22
gdb 5978	3.35032	1.0837	1.0257	2.6938	79.03	-0.2449	-0.0167	0.2282	1293.4203	0.196856	-350.230182	-350.219762	-350.218818	-350.26576	37.11	
C	 0.0259109431	 1.6399041033	-0.068732241	-0.378689
C	-0.0308320472	 0.1106359031	 0.0067997042	-0.186895
C	 0.7032554406	-0.5509697758	-1.1676233847	-0.188745
C	 0.7245749307	-2.1054067641	-1.1817481635	 0.154189
C	 1.4952151954	-2.687893148	 0.0084339511	-0.410712
C	-0.7062250401	-2.6831692944	-1.2538655834	-0.424964
C	 1.41245869	-2.4928244118	-2.4863549914	 0.149654
O	 2.4277969319	-3.1311663817	-2.585542866	-0.254749
H	 1.0606394585	 1.9997329055	-0.0532867702	 0.117311
H	-0.4376626362	 2.0093386711	-0.9902102485	 0.115302
H	-0.4987249364	 2.0983858825	 0.77510999	 0.113973
H	 0.4082253593	-0.2205581999	 0.954877734	 0.104309
H	-1.0787222821	-0.2100691566	 0.0225705037	 0.100891
H	 0.251337102	-0.1973008225	-2.1054217162	 0.092625
H	 1.74179153	-0.1933231233	-1.1781589179	 0.103433
H	 0.9844966714	-2.4739931555	 0.9513184865	 0.11024
H	 1.5906832266	-3.7726133881	-0.0889371925	 0.124619
H	 2.5070846551	-2.2765311123	 0.060360326	 0.122829
H	-1.2565510187	-2.2873385311	-2.1147528708	 0.115832
H	-0.6820062043	-3.7743219696	-1.3405416595	 0.124934
H	-1.2719940229	-2.4359494402	-0.3518712132	 0.127295
H	 0.8818574832	-2.1215657807	-3.3967437466	 0.067317
58.4935	64.929	93.7967	175.9743	208.8946	238.5894	246.357	278.2313	308.1494	324.949	358.9845	392.9886	435.8285	645.7961	744.353	765.0641	860.5405	869.6656	911.6471	947.4973	955.2504	1012.6747	1027.2648	1050.1929	1083.6708	1110.8212	1207.0125	1218.5911	1256.2357	1296.1376	1327.8384	1347.4381	1392.4991	1397.735	1409.4463	1413.9426	1433.8048	1477.9947	1480.9964	1490.0054	1493.1097	1499.2028	1504.7145	1507.0322	1512.1255	1831.6748	2837.2814	3000.4481	3029.6784	3031.9845	3034.2598	3036.5555	3046.9979	3068.8374	3098.4074	3099.4416	3103.6934	3115.1289	3118.8015	3120.0855
CCCC(C)(C)C=O	CCCC(C)(C)C=O	
InChI=1S/C7H14O/c1-4-5-7(2,3)6-8/h6H,4-5H2,1-3H3	InChI=1S/C7H14O/c1-4-5-7(2,3)6-8/h6H,4-5H2,1-3H3
