21
gdb 80385	2.14961	1.66007	1.35894	1.9019	77.87	-0.2286	0.0713	0.2999	1090.7166	0.180024	-424.193336	-424.183864	-424.18292	-424.226512	36.997	
C	-0.1235471232	 1.6014330506	 0.0111798559	-0.506189
C	-0.0336039576	 0.1024766266	 0.0082596317	 0.179917
C	-0.8678353712	-0.7805309106	 0.9379047683	 0.067429
O	-1.6727028654	-1.8530522442	 0.5559262944	-0.435882
C	 0.6127652493	-0.8971736747	 0.9688900882	-0.029288
O	 1.0057248304	-1.7694521312	-0.1000984743	-0.355278
C	 0.6007049327	-0.7578060438	-1.1027382448	 0.354519
C	-0.2937908283	-1.3283073961	-2.195326348	-0.455826
C	 1.8712929327	-0.1451056833	-1.6826207267	-0.422397
H	 0.8284468933	 2.0730066911	-0.2552499281	 0.121898
H	-0.8809983515	 1.9519784727	-0.700120209	 0.126819
H	-0.4101764141	 1.9739921742	 0.9998609315	 0.122403
H	-1.3160576016	-0.2148691587	 1.7514321828	 0.103148
H	-1.060314462	-2.5449968051	 0.2692450009	 0.292982
H	 1.2803239865	-0.8093953143	 1.820080465	 0.097744
H	-1.2228291238	-1.7255807743	-1.7873680738	 0.139735
H	-0.5446783504	-0.5422642135	-2.9156688213	 0.118267
H	 0.2327256448	-2.1207140017	-2.7383611102	 0.120325
H	 2.4221699898	-0.9052481789	-2.2447108893	 0.123671
H	 1.6346777288	 0.6789645064	-2.3638418956	 0.115181
H	 2.521510091	 0.2341709087	-0.8899859577	 0.120822
161.728	179.1235	184.1179	211.3418	224.5139	250.9579	276.1972	303.6955	362.7877	417.4483	424.7323	483.012	579.8336	621.2004	644.7275	680.5096	791.3635	825.5501	885.6519	928.6042	934.3256	972.7121	993.3191	1004.6566	1026.7146	1064.5849	1110.0316	1147.5438	1155.7795	1222.1373	1229.1688	1251.3024	1293.0983	1319.0425	1383.1485	1399.1072	1411.8826	1420.6134	1465.7974	1479.1457	1481.6473	1491.2807	1494.2095	1501.9556	1514.9141	3024.1483	3035.417	3041.7157	3083.338	3096.9897	3098.3915	3109.9465	3120.5411	3143.4532	3155.8591	3161.4377	3745.1563
CC12C(O)C1OC2(C)C	C[C@]12[C@@H](O)[C@H]1OC2(C)C	
InChI=1S/C7H12O2/c1-6(2)7(3)4(8)5(7)9-6/h4-5,8H,1-3H3	InChI=1S/C7H12O2/c1-6(2)7(3)4(8)5(7)9-6/h4-5,8H,1-3H3/t4-,5+,7-/m0/s1
