17
gdb 47877	2.28004	1.70985	1.09846	3.7653	68.72	-0.2361	-0.0786	0.1575	1087.142	0.135861	-458.98009	-458.971811	-458.970867	-459.013898	30.261	
O	-0.1269540634	 0.0170981122	 0.2668236628	-0.273705
C	-0.0891332461	 1.2109494312	 0.1080454157	 0.295244
C	-1.3107238474	 2.1049495364	 0.1364487396	-0.297687
C	-1.797627281	 2.4535762234	-1.2885586112	-0.211965
C	-0.6480754089	 2.9118617764	-2.1982246973	-0.088718
O	 0.2648862378	 3.7397285772	-1.4872463801	-0.238905
C	 1.4430031141	 3.0957785589	-1.0688973557	-0.194064
C	 1.3019990931	 1.8821962669	-0.1366770044	 0.273822
O	 2.2775556553	 1.416814566	 0.3949032826	-0.270437
H	-2.0975428366	 1.5890339372	 0.6914320731	 0.129421
H	-1.0580418685	 3.0356558209	 0.6555355511	 0.127677
H	-2.2865335665	 1.5831894918	-1.7395510696	 0.121997
H	-2.549457526	 3.2445189721	-1.2095408617	 0.119042
H	-0.1197686652	 2.044679696	-2.6215817691	 0.106055
H	-1.0350412404	 3.495724177	-3.0397889448	 0.118838
H	 2.0380838775	 2.7467683209	-1.9301139313	 0.133189
H	 2.0471563721	 3.8419439555	-0.5441893597	 0.150197
33.3598	106.4338	167.6687	246.2892	297.8351	339.6311	352.6587	421.2415	518.6004	524.7475	625.4468	633.4322	756.5824	788.163	855.2469	930.6612	945.1708	1005.1301	1049.409	1082.1567	1091.8207	1139.9945	1174.145	1236.0663	1250.9353	1280.5863	1305.5608	1334.6062	1363.6934	1377.7702	1409.5481	1451.7576	1472.0872	1488.7585	1510.6694	1807.8592	1817.1638	2969.5713	2996.41	3047.382	3051.662	3070.6386	3092.6104	3095.7585	3119.1814
O=C1CCCOCC1=O	O=C1CCCOCC1=O	
InChI=1S/C6H8O3/c7-5-2-1-3-9-4-6(5)8/h1-4H2	InChI=1S/C6H8O3/c7-5-2-1-3-9-4-6(5)8/h1-4H2
