20
gdb 60289	3.29373	0.72182	0.6583	2.7358	85.26	-0.2455	0.025	0.2705	1781.4716	0.166837	-403.116277	-403.105519	-403.104575	-403.153159	38.044	
C	 0.5733242455	 0.9143564093	-0.3798045408	-0.387857
C	-0.0881818797	-0.3011038563	 0.2550976174	 0.125274
C	-0.2282744163	-0.1835409732	 1.7709058858	-0.383199
O	-1.390336734	-0.4209717042	-0.3492124856	-0.214187
C	-1.9189853541	-1.6547480228	-0.411340672	 0.136456
N	-3.1048752938	-1.812731286	-0.8084919513	-0.251527
C	-3.6530636139	-3.1587199986	-0.9104381661	-0.25647
C	-2.7988372288	-4.2854053487	-0.5181916959	 0.288111
C	-2.084699994	-5.1967238572	-0.1919931402	-0.474394
H	 1.5819321735	 1.0509410569	 0.0210122239	 0.117925
H	 0.6409916617	 0.7938247347	-1.4639336139	 0.128474
H	-0.0082757239	 1.8170268456	-0.1698684021	 0.132102
H	 0.4921242671	-1.2019631033	 0.0088786616	 0.085715
H	-0.7180237533	-1.0676474384	 2.1899819056	 0.1238
H	 0.7554973796	-0.0842094386	 2.2403103479	 0.118906
H	-0.8278243914	 0.6948149289	 2.028619991	 0.132481
H	-1.2409062896	-2.4651322882	-0.1144738134	 0.094547
H	-4.573950235	-3.1883683282	-0.3125717923	 0.14197
H	-3.9805824641	-3.3078696203	-1.9482635251	 0.142311
H	-1.4707758356	-6.0160225812	 0.0906424855	 0.199561
33.0189	62.1206	92.2275	162.8535	185.5099	212.9812	251.9176	269.1089	309.2572	331.2209	346.7521	435.1369	489.2946	511.8297	613.2927	655.1763	670.1784	853.4666	921.551	932.3281	947.8254	956.846	962.8297	1022.7026	1044.0128	1147.7227	1161.0942	1200.8906	1261.4959	1266.2993	1348.37	1365.7741	1371.7257	1404.084	1419.1503	1428.1951	1469.7697	1480.4219	1485.0732	1493.8725	1508.7339	1768.6361	2225.2964	3001.5448	3014.1292	3032.2169	3038.3042	3040.1926	3046.5472	3112.4022	3116.2448	3122.5191	3126.3956	3502.5402
CC(C)OC=NCC#C	CC(C)OC=NCC#C	
InChI=1S/C7H11NO/c1-4-5-8-6-9-7(2)3/h1,6-7H,5H2,2-3H3	InChI=1S/C7H11NO/c1-4-5-8-6-9-7(2)3/h1,6-7H,5H2,2-3H3
