18
gdb 17360	3.90017	1.57451	1.48941	2.7382	71.31	-0.2308	-0.0083	0.2224	938.4086	0.153214	-347.795955	-347.788073	-347.787129	-347.828733	29.257	
C	 0.0867107981	 1.1623014923	 0.7406568891	-0.480653
C	 0.0761921302	 0.0268369132	-0.2683446467	 0.385747
O	 1.052564154	-0.2491224724	-0.9312595736	-0.309841
C	-1.2114799619	-0.7681046294	-0.3626779948	-0.093523
C	-1.3456200717	-1.8458246882	-1.4825431885	-0.256586
C	-1.5065958377	-2.9287414251	-0.4059521867	-0.036614
C	-0.308288454	-2.9496237959	 0.4982849655	-0.275609
C	-1.3561649367	-1.8873750984	 0.7024824927	-0.069
H	 1.0954504504	 1.564085181	 0.8429043999	 0.140428
H	-0.589217146	 1.9586500371	 0.4068224311	 0.138569
H	-0.2817276173	 0.8204638964	 1.7139541633	 0.138805
H	-2.0714552742	-0.0925794949	-0.3322150106	 0.080742
H	-2.2438063313	-1.6951769796	-2.0846634005	 0.10152
H	-0.4790613076	-1.9447984508	-2.1400424351	 0.120719
H	-2.2011720298	-3.7581301263	-0.4538972253	 0.086412
H	-0.3071956586	-3.7318331781	 1.2505769579	 0.110702
H	 0.6748416172	-2.6907770011	 0.1148061097	 0.132075
H	-1.902428233	-1.7860111697	 1.6324327927	 0.086108
47.7107	125.5087	134.5623	192.5609	325.8928	361.1906	428.8562	570.3775	598.3886	679.0477	760.4093	784.4814	792.806	915.4297	920.3173	951.0187	967.1335	985.6219	1011.4624	1026.3595	1054.3101	1067.0155	1090.0793	1108.823	1146.1025	1189.4601	1203.868	1219.5325	1258.3777	1287.4857	1357.4008	1362.6292	1381.5743	1463.0363	1476.5039	1478.1621	1494.7911	1799.2361	3034.2687	3062.1544	3071.8504	3095.7357	3120.2423	3125.2193	3151.114	3177.0742	3188.7265	3209.3078
CC(=O)C1CC2CC12	CC(=O)[C@H]1C[C@H]2C[C@@H]12	
InChI=1S/C7H10O/c1-4(8)6-2-5-3-7(5)6/h5-7H,2-3H2,1H3	InChI=1S/C7H10O/c1-4(8)6-2-5-3-7(5)6/h5-7H,2-3H2,1H3/t5-,6+,7+/m0/s1
