14
gdb 12937	2.68625	2.27353	1.6885	3.585	57.63	-0.2636	-0.006	0.2576	808.1018	0.105804	-419.669103	-419.661729	-419.660785	-419.700624	27.158	
C	 0.0050134609	 1.6067978989	 0.0306224894	-0.499569
C	 0.0328652533	 0.1077391897	 0.0297340048	 0.038531
C	-0.8982741177	-0.8026466564	 0.8830019155	 0.092141
O	-1.7362030805	-1.7840359188	 0.3927512326	-0.418668
C	 0.5679150558	-0.9609430569	 0.9869989066	-0.019374
O	 0.9960801965	-1.7912834573	-0.1304515474	-0.289629
C	 0.6333329227	-0.7734207664	-1.0273135567	 0.431534
O	 0.8403786168	-0.7468003864	-2.1944752094	-0.316151
H	 0.9971091087	 2.0280806426	-0.1600207221	 0.138451
H	-0.6724233913	 1.9766076645	-0.7454962066	 0.149942
H	-0.3477961479	 1.9909775997	 0.9922205724	 0.128727
H	-1.3790981292	-0.2382470314	 1.6783753413	 0.126701
H	-1.1830380435	-2.4597022055	-0.0217072343	 0.305386
H	 1.2323116956	-0.9085203163	 1.8394221338	 0.131977
131.2072	148.6928	218.118	232.9027	267.6913	406.6125	430.7749	493.226	637.0778	660.6371	728.5736	772.968	822.3254	867.962	909.9502	936.8304	1009.4941	1035.5848	1060.5456	1109.7811	1157.4614	1238.5494	1284.8245	1293.2205	1390.6059	1420.6659	1467.8117	1483.9368	1496.6602	1944.8404	3038.1085	3104.8561	3110.9804	3153.7111	3208.7211	3766.5671
CC12C(O)C1OC2=O	C[C@]12[C@@H](O)[C@H]1OC2=O	
InChI=1S/C5H6O3/c1-5-2(6)3(5)8-4(5)7/h2-3,6H,1H3	InChI=1S/C5H6O3/c1-5-2(6)3(5)8-4(5)7/h2-3,6H,1H3/t2-,3+,5-/m0/s1
