18
gdb 124820	4.43059	0.92446	0.79753	4.214	74.01	-0.2431	0.0077	0.2507	1415.0687	0.148227	-435.27042	-435.261624	-435.26068	-435.304704	32.216	
C	 0.1887343307	 1.5057026349	 0.010600727	-0.40194
C	 0.0594047707	-0.0016202147	 0.2242886571	 0.126566
O	 0.1021383945	-0.3272285863	 1.6163736685	-0.432699
C	-1.2705338651	-0.5469395151	-0.3056951854	-0.303745
C	-1.385026919	-2.0375370854	-0.2437040099	 0.311596
C	-1.1966658011	-2.9059420862	 0.8085367784	-0.155706
N	-1.4413603171	-4.1243471615	 0.2739031831	-0.15025
N	-1.7623833805	-4.0402574014	-1.0298162657	-0.122401
N	-1.7279952838	-2.7764773783	-1.3423583384	-0.253509
H	 1.1332167454	 1.8774160312	 0.4241962179	 0.104194
H	 0.1727111864	 1.7547860792	-1.0552718864	 0.12163
H	-0.6311770939	 2.0346882492	 0.50672871	 0.125435
H	 0.8795964692	-0.5151411527	-0.3022619347	 0.074821
H	 0.9530011856	-0.040602246	 1.962375447	 0.282275
H	-2.0768403176	-0.0734740449	 0.2693242114	 0.116577
H	-1.3971941705	-0.2469326736	-1.3496026501	 0.122722
H	-0.9114987073	-2.7480957596	 1.833063071	 0.155362
H	-1.4067413366	-5.0292630687	 0.7151837591	 0.279072
43.9733	87.4813	130.762	239.7824	288.9948	303.8728	311.4283	331.7182	463.6469	465.6691	580.9941	678.5812	729.9643	761.1567	814.2612	849.9948	903.5815	949.5995	986.9996	1034.7676	1044.1799	1067.458	1115.2589	1119.8073	1127.9316	1194.4077	1259.4768	1284.3773	1308.6535	1342.3031	1356.5116	1388.6405	1405.9544	1424.0022	1467.0844	1491.2185	1495.0042	1498.389	1584.2994	2975.3898	3027.8521	3030.9643	3095.4222	3100.1587	3114.2	3308.2755	3658.5236	3821.219
CC(O)CC1=CNN=N1	C[C@@H](O)Cc1c[nH]nn1	
InChI=1S/C5H9N3O/c1-4(9)2-5-3-6-8-7-5/h3-4,9H,2H2,1H3,(H,6,7,8)	InChI=1S/C5H9N3O/c1-4(9)2-5-3-6-8-7-5/h3-4,9H,2H2,1H3,(H,6,7,8)/t4-/m1/s1
