19
gdb 70838	2.40702	1.90137	1.40423	1.0329	74.51	-0.2506	0.0686	0.3192	979.9593	0.160075	-422.994703	-422.986885	-422.98594	-423.026374	31.776	
O	-0.0462172307	 1.3567352109	 0.0490504006	-0.482038
C	 0.0430765219	-0.0225104943	 0.0426714694	 0.406191
C	 0.6966169025	-0.9616263064	 1.0914343115	-0.382211
C	 0.0435698317	-1.8719309178	 0.0172774369	 0.406191
O	 0.0727950597	-3.2498516193	-0.0867109707	-0.482039
C	-1.213037258	-0.9310374364	-0.0209123944	-0.117922
C	-1.7765361423	-0.9190149661	-1.4410496659	-0.243782
C	-0.4500700616	-0.9244286652	-2.2575218798	-0.243782
C	 0.5638282082	-0.9471800323	-1.1147353884	-0.117926
H	 0.8446265446	 1.7206580963	 0.0083822293	 0.283626
H	 1.7898644857	-0.9705753668	 1.1404026832	 0.086295
H	 0.2478051149	-0.9668849933	 2.0895368363	 0.086296
H	-0.3689047346	-3.6236808208	 0.6832560336	 0.283626
H	-1.8985427768	-0.9277534995	 0.8296726485	 0.057095
H	-2.3944134596	-1.7996464257	-1.6413199317	 0.097532
H	-2.3869315531	-0.0322032846	-1.634176524	 0.104114
H	-0.3581515405	-1.7998090431	-2.9068104269	 0.104116
H	-0.3397539026	-0.0326078752	-2.881924936	 0.097527
H	 1.6319502206	-0.9588985504	-1.3436529715	 0.057093
178.8948	203.7456	239.2275	246.5707	284.7157	311.4129	438.7509	461.1549	506.0207	612.1573	667.9148	702.5384	708.6494	749.0188	811.4932	887.4961	898.7989	924.854	980.4856	988.1223	1031.9617	1032.9226	1078.3733	1086.6462	1103.5981	1107.6138	1123.689	1135.2507	1174.2468	1247.7541	1251.0084	1284.9919	1290.4614	1306.3932	1318.812	1332.4506	1371.9204	1435.2557	1480.3891	1504.0833	1527.2257	3039.1995	3048.4167	3056.7107	3083.8693	3090.0808	3096.6542	3102.6235	3103.5424	3808.2203	3808.4437
OC12CC3(O)C1CCC23	O[C@@]12C[C@@]3(O)[C@@H]1CC[C@@H]23	
InChI=1S/C7H10O2/c8-6-3-7(9)4(6)1-2-5(6)7/h4-5,8-9H,1-3H2	InChI=1S/C7H10O2/c8-6-3-7(9)4(6)1-2-5(6)7/h4-5,8-9H,1-3H2/t4-,5+,6+,7-
