16
gdb 127572	3.45586	1.29769	0.95065	3.3685	82.73	-0.2021	0.02	0.222	1188.8844	0.124652	-396.922505	-396.913575	-396.912631	-396.956086	32.665	
C	-0.0340811998	 1.4239309046	-0.0161912109	-0.338277
N	-0.005235463	-0.0196781311	 0.0120804522	 0.002354
N	 0.0329126915	-0.7329111681	-1.1534493853	-0.275478
C	 0.0431221918	-1.9973052759	-0.7716099048	-0.105115
C	 0.0309501905	-2.1368041478	 0.6423356367	 0.038559
C	 0.0490991778	-3.2907205452	 1.4495306046	 0.197545
C	 0.069232809	-4.2584423583	 2.1698811591	-0.44182
C	 0.0040940084	-0.8181757928	 1.1027211955	 0.277588
N	-0.0902752801	-0.3251725008	 2.3962253728	-0.621539
H	 0.9589620595	 1.8560035603	 0.1585710129	 0.133712
H	-0.3803123217	 1.7281565742	-1.0035450423	 0.165877
H	-0.7248008479	 1.7940342662	 0.7468364841	 0.148441
H	 0.0624328092	-2.787357469	-1.5074031476	 0.117303
H	 0.0800264333	-5.1206963524	 2.7885922039	 0.181608
H	-0.0161299794	-1.0727415349	 3.0754421035	 0.264615
H	 0.5682776711	 0.412467921	 2.6144066256	 0.254627
87.7324	110.465	126.687	210.6187	265.3549	276.17	290.4414	404.746	462.5447	511.5644	525.3005	577.6231	639.0038	669.2398	696.2305	728.1546	776.0664	784.4889	881.5468	987.6194	1045.5531	1150.2892	1202.6785	1220.6464	1249.2835	1303.8968	1396.908	1435.5619	1469.7046	1490.1308	1505.35	1576.1998	1590.3393	1656.9789	2221.6475	3025.7157	3096.846	3161.7974	3251.6131	3503.8036	3529.0126	3620.3583
CN1N=CC(C#C)=C1N	Cn1ncc(C#C)c1N	
InChI=1S/C6H7N3/c1-3-5-4-8-9(2)6(5)7/h1,4H,7H2,2H3	InChI=1S/C6H7N3/c1-3-5-4-8-9(2)6(5)7/h1,4H,7H2,2H3
