20
gdb 89800	3.22806	1.35786	1.1309	1.1844	78.44	-0.2327	0.0793	0.312	1139.5598	0.171722	-403.112427	-403.10447	-403.103525	-403.144646	31.765	
C	 0.0461322054	 1.5919668007	-0.033019802	-0.395823
C	 0.0542117778	 0.0697332045	 0.0087093682	 0.067148
C	 0.6439690472	-0.6228792402	-1.2425743554	-0.361939
C	 1.2101030247	-1.924525979	-0.6839951667	 0.485815
C	 0.855289729	-3.257545316	-1.1852187183	-0.26276
O	 2.134773073	-2.6779056509	-1.4663287582	-0.286119
C	 1.5088347295	-1.6622949283	 0.7679051325	-0.111976
C	 2.2523085401	-0.4096498787	 1.0662558474	-0.259789
N	 0.7904152334	-0.4484920766	 1.1961892808	-0.103236
H	 1.0575992465	 1.9909013773	-0.1657465296	 0.116023
H	-0.568377254	 1.9515528723	-0.8642812283	 0.11649
H	-0.3606907672	 1.9985458049	 0.8971498384	 0.128067
H	-0.9757914696	-0.2823361047	 0.1455304381	 0.084938
H	-0.1025383547	-0.7855887745	-2.0229471887	 0.109691
H	 1.4532264342	-0.033169064	-1.6874454356	 0.11644
H	 0.8694035744	-4.1144449615	-0.5119188331	 0.114849
H	 0.18568283	-3.3516137707	-2.0398119833	 0.11283
H	 1.535016593	-2.5020013188	 1.4561948747	 0.092467
H	 2.7841323982	-0.3163210402	 2.0081617417	 0.119632
H	 2.706309639	 0.1293834742	 0.2390541973	 0.117253
96.4816	186.7449	231.549	244.0741	304.6561	367.9585	400.0701	435.9923	518.4578	546.5505	612.6095	726.1648	782.9089	855.6032	859.5678	874.3862	903.9444	929.4727	954.9133	972.0108	1010.3042	1064.1529	1087.8169	1106.5853	1122.8994	1132.087	1148.133	1160.2235	1169.9395	1202.2771	1257.2886	1262.4907	1281.7475	1326.4761	1357.7255	1377.911	1408.6134	1443.5582	1485.2957	1489.8414	1497.6515	1514.0562	1533.1094	3023.3137	3035.7284	3050.0939	3074.1722	3102.25	3107.3166	3114.0815	3116.7741	3150.7835	3160.9864	3197.4024
CC1CC2(CO2)C2CN12	C[C@H]1C[C@]2(CO2)[C@H]2CN12	
InChI=1S/C7H11NO/c1-5-2-7(4-9-7)6-3-8(5)6/h5-6H,2-4H2,1H3	InChI=1S/C7H11NO/c1-5-2-7(4-9-7)6-3-8(5)6/h5-6H,2-4H2,1H3/t5-,6+,7-,8?/m0/s1
