18
gdb 57077	2.52115	1.39732	1.16447	1.3987	76.88	-0.248	0.0192	0.2671	1129.6918	0.147327	-401.930243	-401.921407	-401.920463	-401.964206	32.421	
C	 0.0109870175	 1.5534538565	 0.005767183	-0.389674
C	-0.0026626176	 0.0142746047	 0.0673747004	-0.166344
C	 0.7042301502	-0.4833015613	 1.2462463897	 0.352954
C	 1.2833433345	-0.8970243099	 2.215368764	-0.492505
C	-1.4516187605	-0.5365076828	-0.0036906428	 0.009711
C	-1.5547403542	-2.0851106799	 0.0612393592	-0.129179
O	-2.3915993195	-2.3356012861	 1.2171856002	-0.220321
C	-2.6967938849	-1.1138189603	 1.7063695785	 0.13293
N	-2.2673727789	-0.0695846654	 1.1324222957	-0.267094
H	 1.036276318	 1.930517017	 0.0275161888	 0.121816
H	-0.4660846987	 1.8979292165	-0.9173733542	 0.11156
H	-0.5376622842	 1.9683861323	 0.8530013839	 0.153614
H	 0.5179141464	-0.3696650342	-0.8222339622	 0.104064
H	 1.7972214231	-1.2553614127	 3.0728041446	 0.198236
H	-1.8898886262	-0.1484964921	-0.9306932668	 0.090016
H	-2.0420795817	-2.5262443592	-0.8116957371	 0.117935
H	-0.5913975615	-2.5733044161	 0.2299318326	 0.130042
H	-3.3221136219	-1.1316663671	 2.5922191225	 0.14224
63.5062	80.7585	155.1735	198.4041	224.7571	256.8938	340.1379	375.6739	488.7415	548.5161	621.2278	644.6224	677.3909	719.207	782.7341	880.9946	885.3217	960.1717	963.5689	970.0625	1017.4655	1027.0669	1067.7161	1108.9336	1143.0226	1160.235	1225.5133	1277.0798	1308.3545	1316.5657	1335.9081	1371.3469	1387.3269	1405.9058	1491.4366	1502.0442	1511.3726	1706.8225	2232.6574	2998.5757	3031.2048	3046.7988	3061.7186	3112.309	3117.6391	3146.4417	3215.9208	3503.655
CC(C#C)C1COC=N1	C[C@@H](C#C)[C@H]1COC=N1	
InChI=1S/C7H9NO/c1-3-6(2)7-4-9-5-8-7/h1,5-7H,4H2,2H3	InChI=1S/C7H9NO/c1-3-6(2)7-4-9-5-8-7/h1,5-7H,4H2,2H3/t6-,7+/m0/s1
