21
gdb 113045	5.58473	0.68591	0.64651	1.4688	85.89	-0.2465	0.0531	0.2996	1756.4996	0.1804	-387.038354	-387.028453	-387.027509	-387.073837	36.277	
C	 0.1813849533	 1.2095337968	-0.2129154325	-0.240141
O	-0.0026743244	-0.0575230372	 0.3766511084	-0.238599
C	-1.2936722184	-0.5714750163	 0.1950030971	 0.165083
C	-1.6819262366	-1.1651795525	-1.1920207888	-0.291278
C	-2.3482899581	-2.345846588	-0.4314555261	 0.040245
C	-2.1927282707	-3.7556960617	-1.0118626957	-0.371341
C	-2.7448510103	-4.7904409269	-0.1443692044	 0.303407
C	-3.2096127398	-5.6199908069	 0.5912425201	-0.449473
C	-1.5173479951	-1.959425661	 0.823414462	-0.2669
H	 1.2042673009	 1.5257315067	 0.0053555086	 0.126557
H	 0.0460784337	 1.1807285986	-1.304752962	 0.106878
H	-0.5169042006	 1.9550811081	 0.1997585394	 0.103342
H	-2.0471228489	 0.1578920377	 0.533151829	 0.062423
H	-2.3023308206	-0.5710136766	-1.8668885622	 0.096393
H	-0.7802077715	-1.4924137307	-1.7208539714	 0.104289
H	-3.4103593667	-2.1442270476	-0.2623107057	 0.083628
H	-2.6809733962	-3.8023731797	-1.9947367396	 0.128143
H	-1.1278289776	-3.9567190933	-1.1902803982	 0.125841
H	-3.6148162179	-6.3622825929	 1.2330059394	 0.193901
H	-0.5684397806	-2.5039127774	 0.8544459316	 0.112498
H	-1.9940639738	-2.0143022092	 1.8033394109	 0.105104
52.4054	66.1407	109.6469	137.1236	199.7158	245.6926	303.5539	350.0067	383.6728	420.8696	453.2244	492.2578	617.9993	629.1578	640.3157	784.8049	812.995	877.1022	933.9201	951.6582	954.2992	1018.454	1047.0817	1065.4872	1103.9639	1124.2952	1171.1101	1176.5127	1187.012	1218.3129	1244.392	1256.2837	1267.3892	1275.2885	1301.3705	1331.4836	1374.921	1401.0439	1468.2424	1470.979	1482.5023	1487.6143	1500.4385	1510.7955	2236.9848	2968.3556	2976.5562	3010.9258	3019.7399	3039.2693	3048.1083	3060.7569	3066.2042	3110.6798	3114.0343	3125.5583	3507.7728
COC1CC(CC#C)C1	CO[C@H]1C[C@@H](CC#C)C1	
InChI=1S/C8H12O/c1-3-4-7-5-8(6-7)9-2/h1,7-8H,4-6H2,2H3	InChI=1S/C8H12O/c1-3-4-7-5-8(6-7)9-2/h1,7-8H,4-6H2,2H3/t7-,8+
