14
gdb 28624	5.42232	1.04346	0.87551	6.9364	78.4	-0.2406	-0.0625	0.1782	1230.6526	0.102373	-432.925462	-432.91789	-432.916946	-432.957625	28.161	
N	-0.0431737327	 1.4023562786	 0.1235844614	-0.591058
C	-0.0054193758	 0.0305237007	 0.041403544	 0.280666
C	-1.166618772	-0.7580393499	 0.0298000893	-0.05235
N	-1.1247204236	-2.0822840244	 0.0036485954	-0.259998
C	 0.0842827737	-2.6570675791	-0.0133481927	 0.223891
C	 0.0798984194	-4.1500370935	-0.0415710672	 0.111843
O	 1.062915284	-4.8458000957	-0.0619924131	-0.252025
N	 1.2553151307	-2.0073229569	-0.0104602749	-0.248805
C	 1.2055961413	-0.687257931	 0.0164612596	-0.046541
H	 0.7858475665	 1.9038728163	-0.1549977098	 0.264119
H	-0.9016021234	 1.857912055	-0.1445640367	 0.263474
H	-2.150225021	-0.2896298346	 0.0427616242	 0.109506
H	-0.9501839028	-4.5647140609	-0.0415990724	 0.086124
H	 2.1558046157	-0.1530886148	 0.0187493428	 0.111153
84.6658	171.5954	199.6832	343.3705	348.1141	372.9826	438.0818	442.0268	456.628	537.08	626.0619	664.143	795.7044	820.3151	878.6628	933.4975	960.8958	1039.9589	1044.4096	1082.9582	1268.1877	1294.6143	1315.3105	1345.9433	1407.6522	1457.5422	1484.1762	1577.8137	1614.4276	1659.2773	1820.489	2918.9887	3127.5162	3132.9953	3582.8662	3687.8071
NC1=CN=C(C=O)N=C1	Nc1cnc(C=O)nc1	
InChI=1S/C5H5N3O/c6-4-1-7-5(3-9)8-2-4/h1-3H,6H2	InChI=1S/C5H5N3O/c6-4-1-7-5(3-9)8-2-4/h1-3H,6H2
