16
gdb 74505	3.71283	1.25116	1.06179	1.5567	76.87	-0.2396	0.0128	0.2524	1143.4275	0.122943	-400.719948	-400.71184	-400.710896	-400.752421	31.072	
C	 0.0761617504	 1.4539747557	-0.0458078215	-0.481189
C	-0.0332986437	-0.0287035677	 0.0094394522	 0.38162
N	-1.1005899975	-0.7133068688	 0.1492254579	-0.34021
C	-0.7117593341	-2.1096780065	 0.1036255919	 0.144806
C	-0.0736716603	-2.5513340824	-1.2137043424	-0.343777
C	 0.8102640753	-2.0786823822	-0.1061000383	 0.019291
O	 1.1517067835	-0.7093724985	-0.1020725363	-0.240923
C	-1.4116655574	-3.0453106496	 0.9294714572	 0.207538
C	-1.984675417	-3.8482437348	 1.6165861318	-0.383579
H	 0.8029812418	 1.8067191416	 0.6922122343	 0.148727
H	 0.4273833189	 1.7767279104	-1.0311759684	 0.147945
H	-0.898881472	 1.8974436835	 0.1528549622	 0.15796
H	-0.0668424785	-3.6181076209	-1.4040016942	 0.135913
H	-0.2300660325	-1.9163425868	-2.07925238	 0.128742
H	 1.5387036183	-2.7095616918	 0.3851248266	 0.127334
H	-2.4982978252	-4.5489575813	 2.2269112868	 0.189802
117.8438	139.2009	157.9127	206.9844	333.478	362.6459	446.6909	475.8895	516.036	574.0999	585.6964	652.0749	672.6853	690.7535	770.0826	821.5209	874.0189	920.3137	947.6165	998.9068	1027.6399	1051.0772	1068.2639	1080.8703	1140.0295	1207.3249	1248.144	1313.3313	1378.646	1413.1442	1457.906	1474.2764	1477.0758	1709.5617	2243.622	3050.9025	3108.5423	3135.409	3166.8926	3209.3991	3235.5464	3503.5183
CC1=NC2(CC2O1)C#C	CC1=N[C@]2(C[C@H]2O1)C#C	
InChI=1S/C7H7NO/c1-3-7-4-6(7)9-5(2)8-7/h1,6H,4H2,2H3	InChI=1S/C7H7NO/c1-3-7-4-6(7)9-5(2)8-7/h1,6H,4H2,2H3/t6-,7+/m1/s1
