18
gdb 19508	3.61482	1.50955	1.49104	3.5826	72.35	-0.2397	-0.0168	0.2229	944.4666	0.155533	-347.816149	-347.80887	-347.807926	-347.84792	27.523	
O	-0.1847758914	 0.0169944001	-0.2716079726	-0.274808
C	-0.1096314577	 1.1550504045	 0.131262993	 0.148069
C	 1.1436151701	 1.940723812	 0.0971396289	-0.109061
C	 1.2399664997	 3.4424193164	-0.1915001045	-0.058451
C	 0.0107582018	 4.3375148691	-0.080144004	-0.219303
C	-0.5503808892	 4.1288677272	 1.3511723543	-0.229222
C	 0.5988976143	 3.4973958924	 2.1803150973	-0.219298
C	 1.5945577686	 2.9358993993	 1.171419766	-0.05842
H	-1.005141675	 1.6576365029	 0.5504527378	 0.068021
H	 1.952961441	 1.3562064271	-0.3305718955	 0.10529
H	 2.0035511568	 3.7210339857	-0.909515368	 0.096182
H	 0.3384244915	 5.3744171106	-0.2149133752	 0.108162
H	-0.7398796112	 4.143270695	-0.8527983604	 0.109013
H	-0.8903465496	 5.0707249503	 1.78968028	 0.10382
H	-1.4230479048	 3.4710121789	 1.3337356058	 0.116638
H	 1.1142355694	 4.2662237958	 2.7668500512	 0.108161
H	 0.2348224526	 2.7509759733	 2.893402158	 0.109019
H	 2.6269443832	 2.8304541995	 1.4865236578	 0.096188
90.2415	158.4914	166.1459	214.0341	377.7086	396.7109	510.7918	649.2559	676.3422	745.7703	794.6195	843.9976	882.0794	889.3568	936.2442	958.6985	989.4708	1001.3477	1047.9214	1068.4644	1092.1358	1120.9204	1123.9091	1182.1408	1224.4743	1233.5742	1257.2336	1307.8463	1316.7765	1324.7728	1343.6573	1361.0388	1406.3917	1452.0916	1495.6577	1496.7923	1517.8382	1799.4224	2918.1931	3040.8518	3041.4395	3062.1485	3075.6032	3078.4636	3103.9841	3155.8788	3163.806	3176.4337
O=CC1C2CCCC12	O=C[C@H]1[C@H]2CCC[C@@H]12	
InChI=1S/C7H10O/c8-4-7-5-2-1-3-6(5)7/h4-7H,1-3H2	InChI=1S/C7H10O/c8-4-7-5-2-1-3-6(5)7/h4-7H,1-3H2/t5-,6+,7-
