21
gdb 76909	2.73156	1.21945	1.14819	2.6907	78.96	-0.2276	0.0766	0.3041	1211.7069	0.180594	-424.189978	-424.180332	-424.179388	-424.22418	36.327	
C	 0.1257334253	 1.5224102677	-0.0477850545	-0.457488
C	 0.0330459587	 0.0091189246	-0.00477293	 0.253822
C	-1.2185500722	-0.5560778419	-0.6490760355	-0.448946
C	 1.3071261085	-0.8034296341	-0.1177491825	 0.08279
O	 2.560970365	-0.229301872	-0.3133597966	-0.439751
C	 0.5805789613	-0.7464205257	 1.2121889983	-0.161153
C	 1.1466614065	-0.0539269959	 2.4107897418	 0.046958
C	 2.4395573109	-0.4392463129	 2.9993251477	-0.176807
O	 2.3179816843	 0.7745276945	 2.2420241316	-0.247822
H	 1.0596913606	 1.9002888552	 0.3707629306	 0.132334
H	 0.0628290494	 1.8730688959	-1.0840256992	 0.11863
H	-0.7005288488	 1.9823275491	 0.5069021584	 0.109851
H	-1.299379674	-0.2334420617	-1.6937442937	 0.118166
H	-1.2185887712	-1.651163584	-0.6384498498	 0.110042
H	-2.1226638091	-0.2199502065	-0.1264901769	 0.112036
H	 1.2353035367	-1.7380896621	-0.6690370781	 0.093173
H	 2.7491378852	 0.3347157916	 0.4515449125	 0.301804
H	 0.0255643733	-1.6392593535	 1.4959144329	 0.088472
H	 0.416547629	 0.3967621585	 3.0847802274	 0.105431
H	 2.6215003442	-0.2942186062	 4.062137175	 0.124705
H	 3.0251669762	-1.2199531905	 2.5189386805	 0.133754
69.0197	138.3656	168.468	171.5559	206.476	260.7793	273.1993	310.8466	338.7911	375.4729	510.499	522.1608	575.7072	691.5619	712.1732	761.0641	819.0942	849.0134	889.1171	969.414	974.827	992.6871	1026.0125	1028.0034	1097.093	1100.4011	1126.7676	1153.5294	1166.8928	1176.5622	1197.4357	1240.6447	1288.1482	1326.3633	1341.948	1402.4989	1412.4989	1425.9903	1434.1954	1474.3166	1481.5534	1492.9674	1501.377	1514.3699	1520.0262	3016.3164	3030.4749	3076.9825	3083.4658	3091.1232	3094.5992	3099.5833	3115.7681	3133.3495	3135.8748	3192.7677	3691.5034
CC1(C)C(O)C1C1CO1	CC1(C)[C@@H](O)[C@H]1[C@H]1CO1	
InChI=1S/C7H12O2/c1-7(2)5(6(7)8)4-3-9-4/h4-6,8H,3H2,1-2H3	InChI=1S/C7H12O2/c1-7(2)5(6(7)8)4-3-9-4/h4-6,8H,3H2,1-2H3/t4-,5-,6+/m1/s1
