13
gdb 5159	6.2125	1.45952	1.18186	3.5362	64.51	-0.213	-0.0022	0.2108	944.0356	0.097477	-394.805018	-394.798165	-394.797221	-394.836808	24.542	
N	 0.3449485458	 1.2401176305	 0.0034410671	-0.40315
C	 0.0584953014	 0.0057550798	 0.0014824654	 0.073334
N	-1.2344952786	-0.4923903779	 0.0113357941	-0.398813
C	-2.4255041178	 0.1948394877	 0.0255067597	 0.531168
N	-2.6833471061	 1.4616448203	 0.0310430358	-0.308565
C	-4.0766686158	 1.5084844331	 0.0459906774	-0.10333
C	-4.579730017	 0.257098949	 0.0471554308	-0.048903
O	-3.5140016637	-0.6192096389	 0.0348246333	-0.201285
H	 1.3558727723	 1.3595247153	-0.0053868896	 0.228292
H	 0.7766916187	-0.8232871538	-0.0082200462	 0.094717
H	-1.3372633413	-1.4938110045	 0.0097331685	 0.266824
H	-4.6036668679	 2.4493350336	 0.0539711921	 0.125566
H	-5.5598900801	-0.1848643043	 0.0556624516	 0.144145
48.1572	169.5257	170.1913	330.7981	363.8046	467.1838	615.9377	616.6932	706.7653	750.117	806.2652	822.3867	865.9801	924.7481	967.2362	1047.7565	1089.0348	1103.9656	1135.8708	1174.2047	1241.1539	1254.7837	1358.0032	1424.9305	1563.6016	1589.112	1651.9727	1743.7963	3041.3609	3264.6013	3309.988	3509.1	3658.6002
N=CNC1=NC=CO1	N=CNc1ncco1	
InChI=1S/C4H5N3O/c5-3-7-4-6-1-2-8-4/h1-3H,(H2,5,6,7)	InChI=1S/C4H5N3O/c5-3-7-4-6-1-2-8-4/h1-3H,(H2,5,6,7)
