16
gdb 78146	2.10617	1.7419	1.03154	2.5731	70.93	-0.2577	-0.0278	0.2299	1127.7263	0.125572	-437.961594	-437.953913	-437.952969	-437.993821	29.247	
C	-0.0610924784	 1.4565189597	-0.0025303316	-0.42366
C	 0.0605033688	-0.0489746085	 0.038369615	-0.017797
C	 1.4136202603	-0.6887596633	-0.1999935337	-0.183904
C	 0.8032073477	-0.7003755039	 1.1877905871	-0.183907
C	 0.4213941365	-2.1274283801	 1.4664308494	 0.427927
O	-0.0177565792	-2.6030418969	 2.4821045617	-0.351694
N	 0.6839459116	-2.8352419954	 0.2892199987	-0.373474
C	 1.3695981232	-2.1093081363	-0.6898839356	 0.427923
O	 1.8246961995	-2.5679370871	-1.7063488898	-0.351704
H	 0.8363210218	 1.9398722679	 0.3961407518	 0.125181
H	-0.2039664101	 1.8064331394	-1.0298370953	 0.136032
H	-0.9168759215	 1.792885399	 0.5913588153	 0.13603
H	-0.801174381	-0.5888182608	-0.3451646454	 0.114026
H	 2.2568593227	-0.074223329	-0.4855097271	 0.123161
H	 1.1587906501	-0.0950921968	 2.0108447646	 0.123166
H	 0.499811858	-3.823879878	 0.1999418448	 0.272693
138.3377	160.0399	204.5254	217.2674	269.3492	348.5923	432.7117	521.2222	611.6847	618.079	645.1946	725.0949	756.887	837.4639	865.0316	881.696	926.1983	952.317	1000.4896	1027.2471	1075.3127	1124.0821	1137.1157	1173.1566	1201.5882	1292.1858	1299.4133	1335.5248	1349.8624	1415.654	1424.4152	1490.4623	1500.5074	1835.4578	1872.2577	3036.9639	3105.9413	3106.9198	3147.2418	3209.5206	3216.3195	3630.2475
CC1C2C1C(=O)NC2=O	C[C@H]1[C@H]2[C@@H]1C(=O)NC2=O	
InChI=1S/C6H7NO2/c1-2-3-4(2)6(9)7-5(3)8/h2-4H,1H3,(H,7,8,9)	InChI=1S/C6H7NO2/c1-2-3-4(2)6(9)7-5(3)8/h2-4H,1H3,(H,7,8,9)/t2-,3-,4+
