25
gdb 62786	2.7502	1.24667	1.11278	0.1356	93.36	-0.2452	0.0847	0.3298	1289.4343	0.227294	-352.340202	-352.33019	-352.329246	-352.373771	39.942	
C	 0.1653742993	 1.6541528435	-0.3838135758	-0.466961
C	 0.2268564342	 0.146406279	-0.204940846	 0.32078
C	-1.0193644733	-0.5410799923	-0.7509184058	-0.446668
C	 1.484252018	-0.6639272252	-0.3905879564	-0.085364
C	 2.7282899902	 0.0343637306	 0.1758422042	-0.313789
C	 2.0914886553	-0.010991968	 1.6137823183	 0.31905
C	 2.7708852763	-1.0983696185	 2.4561018037	-0.425185
C	 2.0090835534	 1.2815388215	 2.4283256089	-0.45317
C	 0.80302625	-0.5874405414	 0.9873460862	-0.113047
H	 1.1113031293	 2.1555237301	-0.177611903	 0.119955
H	-0.1067783438	 1.8932754769	-1.41902585	 0.107823
H	-0.5983283835	 2.0991068085	 0.2648624678	 0.112858
H	-1.1471972094	-0.327439701	-1.8184275346	 0.112012
H	-0.9656828747	-1.6275814243	-0.6305658154	 0.111898
H	-1.9195518121	-0.1906574464	-0.2326627197	 0.112817
H	 1.5138963702	-1.4993972114	-1.0816210393	 0.074954
H	 3.636978131	-0.5684460697	 0.1050411322	 0.096221
H	 2.9492103896	 1.0259888452	-0.2319331449	 0.091465
H	 3.7847059197	-0.794521101	 2.7410154467	 0.107187
H	 2.2072263309	-1.2894550723	 3.3770771329	 0.107184
H	 2.8407037898	-2.0422165308	 1.9056929615	 0.110994
H	 1.5290650546	 2.0967974751	 1.8853069875	 0.113939
H	 1.4385200519	 1.117478903	 3.3501514842	 0.109391
H	 3.0113199511	 1.6178666981	 2.7200554682	 0.107914
H	 0.2077893519	-1.3504597195	 1.4816635087	 0.06774
146.6378	163.1717	192.3776	210.0107	229.5755	262.9508	276.4334	307.2869	333.7953	362.496	378.7571	424.7448	463.7406	529.7127	618.4564	670.2766	812.3503	824.6859	850.5114	880.7409	929.7908	948.2316	960.9707	965.7978	987.3468	1009.1933	1013.2579	1033.737	1046.1403	1056.5489	1117.9085	1158.1518	1176.6151	1213.2994	1232.5548	1253.3599	1268.4052	1290.3339	1312.2278	1397.7126	1402.8492	1410.8201	1420.9591	1426.6309	1478.3261	1483.001	1486.0195	1490.3756	1497.0497	1501.67	1508.1672	1511.4167	1514.6001	3018.2624	3020.7144	3026.3282	3027.651	3045.5357	3075.895	3079.184	3082.7193	3085.8861	3094.1946	3099.0761	3099.4256	3129.2398	3139.3536	3140.9358	3164.0063
CC1(C)C2CC(C)(C)C12	CC1(C)[C@H]2CC(C)(C)[C@@H]12	
InChI=1S/C9H16/c1-8(2)5-6-7(8)9(6,3)4/h6-7H,5H2,1-4H3	InChI=1S/C9H16/c1-8(2)5-6-7(8)9(6,3)4/h6-7H,5H2,1-4H3/t6-,7-/m0/s1
