21
gdb 106402	2.48537	1.30686	1.22555	2.1624	78.75	-0.2481	0.0708	0.3189	1163.4344	0.181469	-424.170258	-424.160961	-424.160017	-424.203902	36.084	
C	-0.1493552015	 1.5503748674	-0.0897129057	-0.489064
C	 0.0210301336	 0.0381705214	 0.0085116234	 0.425462
O	-1.2564205888	-0.5696256155	-0.1102993635	-0.490262
C	 1.2192013706	-0.6777005221	-0.7112638646	-0.125737
C	 2.1472115423	-0.1154906258	 0.4037490641	-0.273922
C	 0.8709122769	-0.6138075586	 1.1482295938	 0.279919
C	 0.5828020179	-0.5802782899	 2.626782749	-0.208707
O	 1.5297055153	-1.3210474297	 3.3862386045	-0.415067
C	 0.9652415322	-1.8882775611	 0.2349960193	-0.283891
H	 0.77768641	 2.1108843885	 0.03231443	 0.126424
H	-0.5584024219	 1.813368605	-1.0741563336	 0.107927
H	-0.8636197872	 1.8935756058	 0.665043238	 0.129052
H	-1.6945490778	-0.1934967475	-0.8803170257	 0.276748
H	 1.4232134925	-0.7121567641	-1.7832906022	 0.064131
H	 3.0503849845	-0.6966198708	 0.5987139289	 0.099644
H	 2.3678640589	 0.9521847722	 0.4138153666	 0.089826
H	 0.6431719696	 0.4482357267	 3.0007960908	 0.108261
H	-0.4446979081	-0.9341866542	 2.8062356219	 0.09953
H	 1.4886131634	-2.2337767605	 3.0826466922	 0.283635
H	 0.0504915215	-2.4560843463	 0.0806071564	 0.113481
H	 1.8307028959	-2.5330111109	 0.4108509162	 0.082611
75.7501	136.4351	184.6594	216.4695	255.253	266.7616	309.3838	333.9091	367.5479	432.5615	537.5161	562.1062	575.5409	639.6334	709.1997	781.475	808.627	896.8173	921.2502	945.3386	965.4872	995.0744	1010.4258	1043.9397	1059.6443	1074.7554	1107.5059	1134.7625	1153.9719	1163.6868	1191.8858	1204.2254	1209.3268	1239.0939	1253.9968	1309.0709	1369.0333	1383.4746	1410.9944	1423.1318	1486.9819	1495.1364	1499.5673	1506.5429	1545.3801	2982.2558	3025.1563	3060.2937	3063.7822	3075.6449	3090.5473	3094.827	3132.142	3147.8404	3162.1081	3813.8442	3813.9383
CC1(O)C2CC1(CO)C2	C[C@@]1(O)[C@H]2C[C@]1(CO)C2	
InChI=1S/C7H12O2/c1-6(9)5-2-7(6,3-5)4-8/h5,8-9H,2-4H2,1H3	InChI=1S/C7H12O2/c1-6(9)5-2-7(6,3-5)4-8/h5,8-9H,2-4H2,1H3/t5-,6-,7+/m1/s1
