19
gdb 98025	5.64001	0.58362	0.55555	3.5794	91.55	-0.2488	-0.0405	0.2083	2042.7285	0.157002	-385.875355	-385.865247	-385.864303	-385.912496	35.036	
C	 0.105134192	 1.5247539598	 0.1652106377	-0.383625
C	 0.2178232014	 0.0093059086	 0.0231865356	-0.276523
C	 0.5937096312	-0.4357682643	-1.3838670254	 0.205866
O	 0.7833445283	 0.3482719261	-2.2926273809	-0.301002
C	 0.7114854124	-1.8650121303	-1.5700606906	-0.023222
C	 0.8095728858	-3.0611643661	-1.7243175073	 0.175802
C	 0.9303206089	-4.468394006	-1.9270063999	-0.17432
C	 0.527159698	-5.0747393407	-3.268360555	-0.248924
C	 1.9740153204	-5.0030814971	-2.9038620265	-0.248924
H	 1.0510183739	 2.0117765261	-0.0848311041	 0.131983
H	-0.6539470522	 1.9250387358	-0.5115507273	 0.13191
H	-0.1651043289	 1.7954979797	 1.1897247249	 0.107485
H	 0.9653323304	-0.4062558834	 0.7123964966	 0.126879
H	-0.7225123242	-0.4922292082	 0.2889793291	 0.126821
H	 0.7404842157	-5.0832476156	-1.052594744	 0.118004
H	 0.0267132465	-6.0355940172	-3.2342646045	 0.12636
H	 0.1539149208	-4.3910376199	-4.0208519755	 0.139536
H	 2.5932521678	-4.2702228308	-3.4063224636	 0.139533
H	 2.4857387517	-5.9138034765	-2.6147690693	 0.126361
30.1883	51.1493	65.1662	108.1662	164.4332	186.6203	253.7849	268.868	395.7245	485.5424	528.7285	575.6207	595.1694	708.891	788.1153	806.1403	822.793	846.7724	883.7669	950.2762	1006.8525	1062.4168	1068.9551	1085.3388	1087.3452	1115.254	1121.7116	1194.895	1202.7869	1239.8447	1272.0029	1364.7756	1394.2972	1412.0681	1450.3396	1467.7432	1490.3918	1495.7461	1497.5525	1753.6112	2314.6516	3023.3188	3050.6873	3051.1369	3122.328	3127.7113	3145.3224	3148.0944	3154.1516	3231.9396	3246.7116
CCC(=O)C#CC1CC1	CCC(=O)C#CC1CC1	
InChI=1S/C8H10O/c1-2-8(9)6-5-7-3-4-7/h7H,2-4H2,1H3	InChI=1S/C8H10O/c1-2-8(9)6-5-7-3-4-7/h7H,2-4H2,1H3
