17
gdb 63407	2.86413	1.17123	1.05391	3.5373	71.33	-0.2558	-0.0582	0.1975	1203.1668	0.131151	-458.97538	-458.965776	-458.964832	-459.010302	33.774	
C	-0.6378802436	 1.4949514105	-0.3211471195	-0.42391
C	-0.1719753979	 0.0646893264	-0.0834002407	 0.288422
C	-1.2804231461	-0.9674589588	-0.2399429975	-0.427751
O	 0.9938211079	-0.2661291583	-0.9096954774	-0.336672
C	 1.8774693708	-0.4728289452	 0.1986733224	-0.078446
C	 3.0631339686	 0.4733148834	 0.2157156226	 0.124985
O	 3.9952770742	 0.3585398466	 0.9644429448	-0.226438
C	 0.7113382932	-0.1233530891	 1.1642713351	 0.293436
O	 0.565979225	-0.0412138727	 2.3407261304	-0.260555
H	 0.184235909	 2.2057089199	-0.2003439385	 0.127141
H	-1.0279206077	 1.5912971279	-1.3390136312	 0.137667
H	-1.4312184228	 1.7571716969	 0.3846236203	 0.139787
H	-1.6938605871	-0.9147821319	-1.2517661607	 0.136702
H	-0.9029194494	-1.9799243435	-0.0746909156	 0.130623
H	-2.0840644039	-0.7730238552	 0.4761854866	 0.138814
H	 2.2272202771	-1.5078476121	 0.3027664359	 0.138421
H	 2.9728030327	 1.2985975453	-0.525017567	 0.097773
53.7611	85.022	157.4266	178.3697	184.7124	208.9343	274.4043	293.3099	333.9795	405.7659	471.6648	527.0697	658.6668	697.9426	713.4007	839.0659	935.4372	951.5842	972.2859	997.1952	1026.6224	1031.0505	1070.2556	1162.786	1176.9992	1218.8857	1264.8876	1291.7175	1384.2775	1394.0678	1410.8089	1470.6014	1477.4118	1494.0536	1500.6861	1822.754	1929.5732	2892.0344	3038.6587	3040.534	3044.5084	3116.0558	3119.3732	3123.0248	3127.0283
CC1(C)OC(C=O)C1=O	CC1(C)O[C@@H](C=O)C1=O	
InChI=1S/C6H8O3/c1-6(2)5(8)4(3-7)9-6/h3-4H,1-2H3	InChI=1S/C6H8O3/c1-6(2)5(8)4(3-7)9-6/h3-4H,1-2H3/t4-/m0/s1
