15
gdb 29417	5.05244	0.86578	0.75849	3.8113	71.14	-0.1888	-0.0053	0.1835	1414.5551	0.112729	-453.986936	-453.978339	-453.977394	-454.020686	31.112	
N	 0.2452012673	 1.2357746607	 0.6011596545	-0.605365
C	 0.0277297621	-0.0731908472	 0.1341895837	 0.277552
C	-1.1636258957	-0.6276328226	-0.2784021927	-0.168458
N	-0.9303171303	-1.9671045167	-0.5561824394	-0.30806
C	 0.3843420133	-2.2369430733	-0.3449286403	 0.394224
O	 0.8483796162	-3.4992924127	-0.6046661949	-0.218005
C	 1.5019096223	-4.1471345321	 0.407605315	 0.154149
O	 2.0086496457	-5.2113101199	 0.2466647227	-0.255766
C	 1.023229636	-1.1000716863	 0.0882293792	-0.342964
H	 1.141171699	 1.6044801033	 0.3073302013	 0.242654
H	-0.4807840787	 1.8763829355	 0.3061931667	 0.23963
H	-2.1441101165	-0.1970202604	-0.3931144354	 0.112708
H	-1.5996765926	-2.6313552413	-0.9022041135	 0.270929
H	 1.4913623841	-3.5604006528	 1.3423900721	 0.104521
H	 2.0706565078	-1.0052070641	 0.3270915509	 0.102251
59.1561	116.6166	148.9419	191.4991	268.5994	306.5148	347.3856	436.7707	438.9705	499.6499	612.7891	654.2186	668.9145	679.7472	752.9028	793.3721	833.1593	986.3514	1024.5937	1045.8305	1101.4525	1112.4756	1118.5473	1197.4229	1292.5803	1329.3048	1401.237	1456.2906	1505.1223	1556.3209	1638.3398	1661.2984	1877.2425	2998.5468	3255.4817	3272.4011	3530.4676	3618.6467	3693.3207
NC1=CNC(OC=O)=C1	Nc1c[nH]c(OC=O)c1	
InChI=1S/C5H6N2O2/c6-4-1-5(7-2-4)9-3-8/h1-3,7H,6H2	InChI=1S/C5H6N2O2/c6-4-1-5(7-2-4)9-3-8/h1-3,7H,6H2
