25
gdb 81701	2.4393	1.47866	1.22741	0.1051	91.41	-0.2737	0.0806	0.3543	1193.8404	0.232687	-352.369448	-352.361123	-352.360178	-352.40154	34.733	
C	-0.172098408	 1.4840076796	 0.0712634374	-0.422568
C	 0.0134055324	-0.0301619489	 0.0247600913	 0.036983
C	 1.1237588106	-0.5109554906	-0.9625938784	 0.013143
C	 2.1041663529	-0.5611759443	 0.2457856862	-0.240882
C	 0.8739138681	-0.6033841864	 1.1967815624	 0.015354
C	 0.4723491238	-2.0135329412	 1.6544211919	-0.214844
C	 0.699427638	-3.1525488455	 0.6411717059	-0.187624
C	 0.1155782683	-2.9186981477	-0.7611832612	-0.187792
C	 0.8509867227	-1.8717678255	-1.6220476874	-0.214428
H	 0.7834336405	 2.0040425708	 0.2041935437	 0.112605
H	-0.6233575664	 1.8552088268	-0.8558178943	 0.109624
H	-0.8250187269	 1.7767072541	 0.9013358182	 0.109496
H	-0.965424855	-0.5046407238	-0.1040361371	 0.055446
H	 1.3924930487	 0.2121396889	-1.7402980462	 0.054368
H	 2.8114159446	-1.3941703454	 0.2885807607	 0.088038
H	 2.6707665366	 0.3676763525	 0.3490478579	 0.091473
H	 0.9312578682	 0.0528469498	 2.0720381019	 0.054209
H	 1.025480124	-2.2611614954	 2.5695596279	 0.089329
H	-0.5891384481	-1.9932094438	 1.9391104364	 0.090294
H	 1.7735457748	-3.3595630739	 0.5514821981	 0.094996
H	 0.2587793852	-4.0653292627	 1.0601068617	 0.088429
H	 0.1229708929	-3.86779628	-1.310646426	 0.087699
H	-0.942682398	-2.6430748122	-0.6665196693	 0.096196
H	 0.2631560149	-1.7122053017	-2.5352687221	 0.089644
H	 1.8121209854	-2.2906809535	-1.9510832193	 0.090811
168.2443	220.6655	234.0113	236.8152	292.2667	330.1681	358.3723	366.8533	389.9885	544.2965	551.7846	744.8147	768.4128	789.9975	804.7427	840.1393	869.1826	897.3803	912.953	919.9614	945.8641	1020.2628	1028.3	1044.9486	1069.8638	1071.9712	1096.8149	1116.3809	1147.1687	1152.6862	1187.9503	1189.9113	1226.0748	1241.8698	1273.7727	1280.5213	1297.6903	1312.4778	1327.2552	1342.2504	1373.5908	1378.1429	1391.9119	1393.7697	1402.7594	1410.3715	1480.1502	1480.9859	1484.9688	1495.1541	1497.3745	1501.8285	1508.6294	3002.9534	3004.724	3017.7875	3019.402	3021.5835	3034.3549	3035.5344	3039.8425	3043.5734	3046.0123	3054.6146	3057.8208	3064.2051	3087.9853	3090.5194	3102.2266
CC1C2CC1CCCC2	C[C@H]1[C@H]2C[C@@H]1CCCC2	
InChI=1S/C9H16/c1-7-8-4-2-3-5-9(7)6-8/h7-9H,2-6H2,1H3	InChI=1S/C9H16/c1-7-8-4-2-3-5-9(7)6-8/h7-9H,2-6H2,1H3/t7-,8+,9-
