20
gdb 93579	3.56509	1.07175	0.92132	0.8146	81.6	-0.2324	0.0269	0.2592	1344.3779	0.171923	-403.164888	-403.156137	-403.155192	-403.199463	32.244	
C	-0.1390883642	 1.36607364	 0.2478816876	-0.385952
C	-0.0054485648	-0.1155617035	-0.1017863718	 0.031448
C	 1.0565473095	-0.4099118431	-1.2000291602	-0.124977
O	 1.9559787665	-1.3551832265	-0.5847325626	-0.262467
C	 1.5040445754	-1.5237966078	 0.6907524531	 0.427438
N	 0.4537919928	-0.9040885926	 1.0528391198	-0.343568
C	 2.3174740425	-2.4369724006	 1.5119825851	-0.110945
C	 2.4589730509	-2.15030888	 2.9959673861	-0.252765
C	 1.6204590649	-3.3031466877	 2.5452739579	-0.253085
H	 0.8265474841	 1.7751054342	 0.5633576437	 0.117231
H	-0.4932273965	 1.9414642764	-0.61450437	 0.109439
H	-0.8491830205	 1.5004200164	 1.0680364453	 0.128632
H	-0.9900888406	-0.4911618508	-0.4087752997	 0.083031
H	 0.6433427084	-0.8660356182	-2.1035984365	 0.115131
H	 1.6319009939	 0.4785485916	-1.4828757532	 0.110408
H	 3.1710159285	-2.8545676873	 0.9930387479	 0.102199
H	 3.4233646439	-2.3497336922	 3.449245992	 0.115905
H	 1.9453082989	-1.2679811838	 3.3583919651	 0.138168
H	 0.54424293	-3.1942537892	 2.605605787	 0.138838
H	 1.9972460461	-4.3102767052	 2.6832116035	 0.115892
42.7627	59.7872	143.8352	168.6333	238.4153	301.032	339.9476	408.8267	465.0496	645.4507	695.2287	732.4486	795.3765	829.8966	852.4962	898.7814	918.3619	929.318	938.9891	960.7063	1021.8119	1066.6176	1078.5065	1092.6571	1112.4789	1130.2908	1137.4548	1162.1446	1204.6871	1208.8209	1223.2983	1227.9427	1313.4066	1354.5079	1379.4431	1404.7319	1441.0976	1457.6348	1487.8703	1495.0809	1496.6845	1522.9686	1726.4401	3012.4865	3031.9735	3040.8044	3092.7789	3102.3579	3120.8539	3141.2227	3143.8309	3193.2362	3229.8672	3244.2995
CC1COC(=N1)C1CC1	C[C@H]1COC(=N1)C1CC1	
InChI=1S/C7H11NO/c1-5-4-9-7(8-5)6-2-3-6/h5-6H,2-4H2,1H3	InChI=1S/C7H11NO/c1-5-4-9-7(8-5)6-2-3-6/h5-6H,2-4H2,1H3/t5-/m0/s1
