18
gdb 70505	2.65634	1.57034	1.12817	3.4203	80.11	-0.2369	-0.0562	0.1806	1097.0169	0.14775	-401.952376	-401.944235	-401.943291	-401.984903	31.191	
C	-0.0880386823	 1.5579143941	 0.0533917795	-0.489279
C	 0.0639724444	 0.0599703489	 0.0104330903	 0.194569
N	-0.7572420162	-0.8086388794	 0.9019870385	-0.363846
C	 0.7099873368	-0.7612275586	 1.0774499	-0.087477
C	 1.4304894046	-1.9388910047	 0.4296342193	-0.266339
C	 1.0925529995	-1.7745939684	-1.0313209948	-0.154301
C	 0.3669056764	-0.6688143522	-1.2725048725	 0.244161
C	-0.0870977741	-0.2786720682	-2.6080056367	 0.07007
O	-0.7529995818	 0.7019568639	-2.8622154744	-0.28273
H	 0.7796942069	 2.0539931232	-0.3938178873	 0.12563
H	-0.9700986524	 1.8770518458	-0.5062410947	 0.154332
H	-0.1775550465	 1.9026499563	 1.0892392382	 0.104569
H	-1.185308501	-0.2199676956	 1.6155578163	 0.226917
H	 1.1154952547	-0.3053576816	 1.974629028	 0.090183
H	 2.5158966294	-1.9005366063	 0.5927036882	 0.118277
H	 1.0831772851	-2.9032413374	 0.819970907	 0.132181
H	 1.3884618594	-2.492294486	-1.7901232948	 0.113002
H	 0.2378506272	-0.973112384	-3.41564388	 0.070083
95.0611	181.7875	199.7551	226.6856	269.0092	303.9029	354.9057	435.6892	475.9349	589.5034	637.6067	697.5801	762.1664	813.332	827.315	856.1289	905.8835	939.5335	975.7144	1013.8706	1039.2113	1055.8807	1070.4901	1116.6535	1142.8529	1186.249	1211.3686	1251.8547	1309.9002	1331.6699	1390.4115	1410.8017	1423.4851	1435.1001	1452.0987	1479.3413	1500.5038	1662.0764	1782.0228	2873.1749	3022.3762	3034.7934	3060.0243	3098.2269	3127.4372	3165.3131	3187.2328	3472.8629
CC12NC1CC=C2C=O	C[C@]12N[C@H]1CC=C2C=O	
InChI=1S/C7H9NO/c1-7-5(4-9)2-3-6(7)8-7/h2,4,6,8H,3H2,1H3	InChI=1S/C7H9NO/c1-7-5(4-9)2-3-6(7)8-7/h2,4,6,8H,3H2,1H3/t6-,7+/m0/s1
