14
gdb 26894	3.00319	1.22603	0.87852	5.4853	72.19	-0.2166	-0.0401	0.1765	1219.5022	0.101318	-470.071282	-470.062458	-470.061514	-470.105202	31.817	
N	-0.189553633	 1.5350372207	 0.0735622308	-0.537703
C	 0.0603906028	 0.2004510166	-0.1008570422	 0.358448
C	-1.1499330038	-0.6641644966	-0.0378615832	 0.16176
N	-2.3932126761	 0.0176441863	 0.0377840372	-0.595021
C	-1.0803854408	-2.0107097196	 0.0429181102	-0.060916
N	 0.0239288106	-2.8197188447	 0.1279687373	-0.379867
C	 1.2332955738	-2.7547106753	 0.0364096686	 0.565669
O	 2.3856527512	-2.9234133441	-0.0143940713	-0.28649
O	 1.1823595109	-0.2337975912	-0.32168858	-0.365433
H	 0.6201694363	 2.1260184792	 0.1789187329	 0.26288
H	-1.0442146866	 1.8050315322	 0.5350435529	 0.268335
H	-2.5754061886	 0.5765955819	-0.7906166509	 0.252789
H	-3.1706903121	-0.6171743728	 0.1777783352	 0.246145
H	-2.0122743446	-2.5693947825	 0.0911229623	 0.109403
69.8682	92.0183	122.187	251.8006	266.7204	320.1728	346.6445	383.8703	440.6827	518.2765	522.1615	578.0987	595.0432	618.2686	659.5242	761.3794	797.8053	836.9795	905.9344	999.9258	1104.1156	1169.3896	1242.203	1340.1055	1440.6139	1537.5954	1597.9844	1638.0028	1670.8165	1769.6146	2353.5061	3150.3319	3493.6808	3577.1129	3590.8158	3710.0229
NC1=C(N)C=NC(=O)O1	NC(=O)C(=CN=C=O)N	
InChI=1S/C4H5N3O2/c5-2-1-7-4(8)9-3(2)6/h1H,5-6H2	InChI=1S/C4H5N3O2/c5-3(4(6)9)1-7-2-8/h1H,5H2,(H2,6,9)
