18
gdb 111485	2.88058	1.43872	1.07794	2.2129	70.87	-0.2404	-0.0398	0.2006	1113.8488	0.14853	-439.078098	-439.070195	-439.069251	-439.110706	30.499	
O	 0.1718691114	 1.3610737398	 0.0416990941	-0.42303
C	 0.1153323603	-0.0459132824	 0.0594125777	-0.066558
C	-1.337636115	-0.55647339	 0.0250797185	-0.13899
C	-1.5530697139	-2.0547425446	-0.0276845315	-0.04522
C	-1.2328797645	-2.8459522886	 1.1895755376	-0.251553
N	-2.6283766789	-2.4780230332	 0.9163828737	-0.102845
C	-3.0541509723	-1.2878054556	 1.6589737116	-0.265909
C	-2.1157909668	-0.1382292576	 1.2774802639	 0.370836
O	-1.989173094	 0.9088949444	 1.8678217362	-0.327611
H	-0.3758600496	 1.6639335216	 0.7797770722	 0.297096
H	 0.6512690399	-0.4008283528	-0.8271693681	 0.111459
H	 0.6275011863	-0.4682808306	 0.939300967	 0.088279
H	-1.8300703132	-0.0760089745	-0.8324343917	 0.120361
H	-1.565207012	-2.5443293002	-0.9962965131	 0.103542
H	-1.0165017251	-3.906434273	 1.1061226952	 0.128181
H	-0.7181230426	-2.346290169	 2.0096775489	 0.118345
H	-4.076449149	-1.0183433909	 1.3629704163	 0.141866
H	-3.0588547812	-1.4527874527	 2.7403641415	 0.141753
81.404	139.256	181.0232	233.2777	351.6214	390.2378	439.7324	462.2074	554.8018	572.5352	644.3491	663.0196	749.9564	778.1339	834.7323	917.7469	963.774	983.1227	1001.1604	1031.7345	1086.0266	1101.5502	1116.3983	1122.1609	1153.4885	1167.6097	1197.3404	1225.8006	1263.1204	1290.9993	1298.132	1308.7775	1383.755	1390.2623	1456.5277	1457.9376	1507.9228	1513.8897	1821.4635	2971.3774	3017.7096	3031.4295	3068.7716	3092.9879	3095.7568	3156.8351	3189.8227	3735.4548
OCC1C2CN2CC1=O	OC[C@H]1[C@H]2CN2CC1=O	
InChI=1S/C6H9NO2/c8-3-4-5-1-7(5)2-6(4)9/h4-5,8H,1-3H2	InChI=1S/C6H9NO2/c8-3-4-5-1-7(5)2-6(4)9/h4-5,8H,1-3H2/t4-,5+,7?/m0/s1
