19
gdb 46608	2.84533	1.50565	1.01834	3.816	83.46	-0.2293	-0.0331	0.1962	1167.9953	0.161661	-385.952083	-385.944283	-385.943339	-385.984755	29.811	
O	-0.0030262356	-0.0293358954	 0.0659323852	-0.336137
C	 0.022742455	 1.1810780725	 0.0504686125	 0.284493
C	-1.2084088077	 2.109936578	 0.1828408617	-0.32462
C	-0.6693144287	 3.5593486397	 0.0784731376	-0.360081
C	 0.8106928966	 3.3576252045	-0.0755804247	 0.273768
C	 1.1852749532	 2.069512384	-0.0917129921	 0.177432
C	 2.663370565	 1.8865776041	-0.2845499299	-0.353789
C	 3.1999799118	 3.3415159279	-0.0949758045	-0.206343
C	 1.9714294184	 4.2917480919	-0.2553795745	-0.338181
H	-1.9284806753	 1.8660733767	-0.6037790945	 0.131128
H	-1.7075882219	 1.9110549543	 1.1359621363	 0.131354
H	-1.0921702219	 4.1034612603	-0.7755225478	 0.118533
H	-0.9045718216	 4.1620179879	 0.9644994361	 0.117852
H	 3.1071269683	 1.1805611526	 0.4238736701	 0.120339
H	 2.8812527879	 1.4954899633	-1.2864721177	 0.116994
H	 3.6058567652	 3.4487150169	 0.9153568286	 0.112182
H	 4.0071688568	 3.5845934448	-0.7899350294	 0.104514
H	 1.934869009	 4.7576911606	-1.2505446269	 0.117598
H	 1.9780204456	 5.1180523253	 0.4647255539	 0.112967
95.4372	107.3552	152.7728	234.348	271.0863	448.9268	483.5955	576.9928	590.4763	596.1768	676.905	719.2182	819.225	831.4388	897.609	901.0724	966.9641	976.9374	980.9383	1012.1008	1023.0545	1060.7216	1131.272	1169.7661	1175.1687	1212.1559	1223.0336	1237.2635	1258.8492	1277.4583	1314.4062	1324.6231	1341.8767	1397.9009	1453.1513	1474.688	1482.1116	1487.2042	1504.6275	1690.6398	1804.4894	3008.9306	3025.1674	3029.2206	3048.8972	3050.115	3062.0966	3063.3897	3077.8391	3103.8498	3107.403
O=C1CCC2=C1CCC2	O=C1CCC2=C1CCC2	
InChI=1S/C8H10O/c9-8-5-4-6-2-1-3-7(6)8/h1-5H2	InChI=1S/C8H10O/c9-8-5-4-6-2-1-3-7(6)8/h1-5H2
