17
gdb 114180	3.51248	1.06554	0.90032	4.1276	71.17	-0.2531	-0.0334	0.2197	1274.9907	0.134362	-458.919746	-458.911279	-458.910335	-458.95328	31.255	
O	-0.0390899503	 1.3686249974	-0.2662582573	-0.416088
C	 0.0637452836	 0.0206915139	 0.1456569329	-0.081175
C	-1.297007604	-0.6498101967	 0.0997591695	 0.108749
O	-1.8731602058	-0.5925463559	-1.245050201	-0.335609
C	-2.1569801894	-1.9833636497	-1.2020712374	 0.387602
C	-0.8877051741	-2.7973687297	-1.1032604333	-0.343312
C	-1.4372354761	-2.1727872237	 0.1435239212	-0.199554
C	-3.4480244013	-2.5161741509	-1.6567365034	 0.06453
O	-4.3275403636	-1.8653428875	-2.1613600083	-0.261178
H	-0.4578321034	 1.359735157	-1.1355098439	 0.299333
H	 0.7841683464	-0.5391120439	-0.4691581484	 0.089767
H	 0.4374256175	 0.0264096873	 1.1757076144	 0.115354
H	-1.9851439414	-0.1555970379	 0.794666479	 0.106701
H	-1.0156994174	-3.8736794587	-1.1626461753	 0.134812
H	-0.004069017	-2.4088897809	-1.5981232952	 0.136425
H	-1.7566057591	-2.750515263	 0.9999961994	 0.121323
H	-3.5417739447	-3.6142566771	-1.4881539328	 0.07232
87.9534	102.8808	126.0152	208.1871	248.7602	310.5267	414.6208	430.9058	470.3718	517.9888	534.8737	691.4292	786.9611	809.5301	863.0808	900.2499	944.6913	985.6157	1002.9952	1027.9682	1046.3469	1060.9613	1073.8835	1103.8052	1122.841	1190.1867	1221.8988	1289.8575	1297.8279	1342.6121	1362.4891	1402.2808	1431.2681	1439.5993	1473.6032	1498.0283	1816.6434	2861.5096	2994.5553	3050.8785	3074.3919	3131.5716	3210.0131	3223.2995	3792.2432
OCC1OC2(CC12)C=O	OC[C@H]1O[C@]2(C[C@@H]12)C=O	
InChI=1S/C6H8O3/c7-2-5-4-1-6(4,3-8)9-5/h3-5,7H,1-2H2	InChI=1S/C6H8O3/c7-2-5-4-1-6(4,3-8)9-5/h3-5,7H,1-2H2/t4-,5+,6+/m0/s1
