21
gdb 64777	3.47523	1.05489	0.99309	1.0666	83.53	-0.2565	0.0422	0.2987	1294.0394	0.181971	-387.078176	-387.068855	-387.067911	-387.112442	35.961	
O	-0.045859543	 1.2481502978	 0.2067889527	-0.479641
C	 0.0648406447	-0.1633867208	 0.0250058762	 0.398448
C	 0.8462263891	-0.456256969	-1.2778770944	-0.413276
C	 2.1714149405	 0.1536176567	-1.2707718842	 0.274271
C	 3.2446072206	 0.6951546183	-1.2179422851	-0.435262
C	 0.6728680925	-0.8149747438	 1.2849142231	-0.232417
C	-0.4942051911	-0.7909112549	 2.2807023543	-0.199009
C	-1.7040455415	-1.2124321625	 1.4201101608	-0.206368
C	-1.3845437103	-0.705028024	-0.0135417892	-0.233965
H	 0.8511941004	 1.6058578117	 0.2035797927	 0.27886
H	 0.9314507579	-1.5400294022	-1.4219124225	 0.125614
H	 0.2701694504	-0.0631228374	-2.1244246309	 0.135725
H	 4.2030343026	 1.1520291653	-1.1961479982	 0.198391
H	 0.9627272559	-1.850733133	 1.0635561202	 0.089174
H	 1.5679500598	-0.288407282	 1.6278614127	 0.09542
H	-0.3388047403	-1.4398366278	 3.1467466463	 0.087967
H	-0.6305744497	 0.231317772	 2.6465346223	 0.111422
H	-1.7985983866	-2.3037184147	 1.4192806969	 0.095824
H	-2.6473648173	-0.8144085325	 1.8024653145	 0.099176
H	-2.0454694766	 0.104562279	-0.3308381465	 0.117203
H	-1.4771880879	-1.5106432561	-0.7480906816	 0.092444
51.3937	86.2139	128.8775	210.0983	278.0722	336.7647	363.3828	388.0975	422.7948	431.9304	461.9242	580.7678	619.5979	651.2369	693.8503	753.4526	797.9431	856.6313	894.9852	902.0958	914.1993	934.5058	975.8214	1020.8979	1029.4948	1052.9999	1076.263	1120.22	1190.2075	1221.0674	1227.9829	1261.5576	1287.0895	1303.0836	1309.7156	1334.8605	1347.6658	1357.1708	1404.261	1460.679	1477.739	1482.7602	1488.1126	1510.5773	2229.2057	3022.8936	3028.3616	3042.3323	3055.3103	3060.5786	3066.2908	3087.6073	3091.4837	3104.73	3115.7085	3504.2539	3768.3772
OC1(CC#C)CCCC1	OC1(CC#C)CCCC1	
InChI=1S/C8H12O/c1-2-5-8(9)6-3-4-7-8/h1,9H,3-7H2	InChI=1S/C8H12O/c1-2-5-8(9)6-3-4-7-8/h1,9H,3-7H2
