18
gdb 8154	4.09481	1.6398	1.3984	1.9837	67.62	-0.2344	0.0769	0.3113	938.6745	0.153286	-384.927392	-384.919697	-384.918753	-384.959055	30.05	
C	 0.183221268	 1.572642721	 0.1080692571	-0.401217
C	 0.0698238238	 0.0634470003	-0.001521968	 0.1631
C	 0.7228963902	-0.5756740638	-1.2488590307	-0.323258
C	 1.2173270687	-1.9280934509	-0.7235372501	 0.365589
O	 0.7980973823	-3.0979308949	-1.3564067852	-0.46907
C	 2.4994090823	-1.9258595339	 0.0839092539	-0.364118
C	 1.1490660064	-1.8213046632	 0.7661691085	 0.052259
O	 0.737429643	-0.5332585684	 1.1280720202	-0.27621
H	 1.2328356677	 1.8814230394	 0.0752381591	 0.118656
H	-0.3494863853	 2.0566394406	-0.7165789191	 0.115156
H	-0.2487225764	 1.9235633187	 1.0494453589	 0.127291
H	-0.9911666709	-0.2314751211	 0.0302010643	 0.074423
H	-0.0002678685	-0.7293748381	-2.0533604124	 0.109931
H	 1.5388075839	 0.0485039753	-1.6317900805	 0.096028
H	 1.3985157756	-3.2709891275	-2.0897114158	 0.282956
H	 3.0133726861	-2.8777745485	 0.1736536768	 0.111232
H	 3.1307971519	-1.043487691	 0.0729032805	 0.11301
H	 0.7870291912	-2.6300292842	 1.3929586626	 0.104241
86.4738	213.2894	240.5501	276.1477	308.7873	391.1765	400.1262	438.9239	464.2729	567.1722	636.8769	755.8309	816.8963	873.1913	898.1869	915.2856	938.4788	958.62	1003.7961	1021.3333	1048.4666	1077.9574	1111.8987	1143.6083	1158.0389	1203.8996	1251.4439	1268.6051	1290.3684	1324.5582	1368.0365	1386.5184	1405.5894	1413.6568	1469.8309	1484.0722	1489.0888	1498.1858	2972.4243	3034.4751	3040.0217	3105.5794	3113.0006	3118.192	3122.971	3162.7836	3220.9441	3795.2996
CC1CC2(O)CC2O1	C[C@H]1C[C@@]2(O)C[C@H]2O1	
InChI=1S/C6H10O2/c1-4-2-6(7)3-5(6)8-4/h4-5,7H,2-3H2,1H3	InChI=1S/C6H10O2/c1-4-2-6(7)3-5(6)8-4/h4-5,7H,2-3H2,1H3/t4-,5+,6+/m0/s1
