21
gdb 78539	2.3073	1.56844	1.22782	1.9039	83.27	-0.2172	0.0688	0.286	1155.088	0.179829	-387.023979	-387.014629	-387.013684	-387.05739	35.963	
C	-0.0802298714	 1.6313021077	-0.0740329159	-0.433949
C	 0.1436785965	 0.131860215	 0.0345843926	-0.042359
C	 1.3875620979	-0.6994946422	-0.2099774439	-0.214088
C	 2.691153956	-0.2008265431	 0.4924680647	 0.425947
C	 4.0857899526	-0.5144478595	 0.0655087236	-0.500449
O	 2.4311913512	 1.0504637565	 1.152469117	-0.284591
C	 2.0158844665	-0.1695171805	 1.7870113729	-0.119451
C	 0.6867173315	-0.7104823862	 1.1615806234	 0.279915
C	-0.0647278205	-1.8242539401	 1.8338286679	-0.489142
H	-0.1610092891	 1.9164672871	-1.1296222437	 0.108897
H	-1.0301033613	 1.8954311219	 0.4058250135	 0.106581
H	 0.7156908372	 2.21054077	 0.3823986409	 0.152538
H	-0.6993099023	-0.4075760307	-0.4043171061	 0.084042
H	 1.4073268524	-1.5000667349	-0.9411098002	 0.083187
H	 4.3353732158	 0.0108366552	-0.8638545984	 0.130667
H	 4.7977878037	-0.2076008032	 0.8362045129	 0.133272
H	 4.2029870526	-1.5880628384	-0.1156000113	 0.125316
H	 2.369395255	-0.3563219051	 2.7957104817	 0.097663
H	-0.6224090309	-1.4610925844	 2.7064691091	 0.120973
H	-0.7844292211	-2.282732322	 1.1481617762	 0.119696
H	 0.6118502378	-2.6143367231	 2.182487103	 0.115336
122.5433	139.1545	188.8504	198.9951	205.9209	260.1254	281.3576	316.1706	347.9075	422.4303	520.8536	568.3248	585.9117	674.6226	731.8069	779.9272	850.0715	860.6115	901.328	916.9838	929.287	986.7894	1005.1637	1042.0925	1064.796	1100.7975	1107.2867	1125.775	1153.6834	1180.1667	1192.151	1261.0959	1297.7961	1340.9414	1398.5091	1405.9645	1415.8217	1451.2912	1474.461	1484.0116	1486.1487	1494.0466	1498.8271	1505.1259	1513.2549	3013.5545	3029.2689	3030.7724	3067.07	3074.8868	3078.6183	3091.9133	3095.6364	3121.0876	3169.8297	3172.2092	3201.9462
CC1C2C3(C)OC3C12C	C[C@H]1[C@H]2[C@@]3(C)O[C@H]3[C@@]12C	
InChI=1S/C8H12O/c1-4-5-7(4,2)6-8(5,3)9-6/h4-6H,1-3H3	InChI=1S/C8H12O/c1-4-5-7(4,2)6-8(5,3)9-6/h4-6H,1-3H3/t4-,5+,6-,7-,8+/m0/s1
