15
gdb 85651	2.12985	1.71558	1.20041	2.8959	66.7	-0.2729	-0.008	0.265	1052.0695	0.110762	-457.765229	-457.756873	-457.755929	-457.798592	30.477	
C	 0.6102058365	 1.3120347327	-0.3336211592	-0.402379
C	 0.0101745049	-0.0355407304	 0.0201821217	 0.215802
O	 0.1772821033	-1.0030263183	-1.0055939832	-0.247262
C	 1.2653372915	-1.8431407477	-0.6527471069	-0.239516
C	 2.5032756926	-1.5368752854	-1.3662893017	 0.361104
C	 3.5204357139	-1.2838332191	-1.9526059673	-0.457506
C	 1.4176615654	-1.6269392707	 0.868480455	 0.42353
O	 2.0739691799	-2.247217933	 1.6449208722	-0.323792
O	 0.6360162013	-0.571479809	 1.1928609139	-0.222635
H	 1.6798531238	 1.2113466101	-0.5345002235	 0.142647
H	 0.1174969526	 1.7041637553	-1.2270460466	 0.137847
H	 0.4636064405	 2.0155277754	 0.4903647778	 0.136675
H	-1.0617626145	 0.0398525467	 0.2295522743	 0.112806
H	 0.9743551185	-2.8834242344	-0.8347046211	 0.14966
H	 4.42185161	-1.0658723521	-2.4712308754	 0.213019
72.577	104.4819	139.6091	224.2275	242.353	346.5451	401.2458	465.6026	478.7063	539.021	638.652	675.7452	686.0682	700.0097	750.1078	844.8154	910.5079	938.19	982.3287	1062.5626	1075.348	1125.4179	1144.9338	1222.5508	1258.6795	1340.7835	1374.526	1394.9447	1417.1259	1484.8991	1486.752	1906.6703	2239.0973	3051.6723	3055.8613	3064.2996	3133.4454	3138.8417	3499.665
CC1OC(C#C)C(=O)O1	C[C@H]1O[C@@H](C#C)C(=O)O1	
InChI=1S/C6H6O3/c1-3-5-6(7)9-4(2)8-5/h1,4-5H,2H3	InChI=1S/C6H6O3/c1-3-5-6(7)9-4(2)8-5/h1,4-5H,2H3/t4-,5-/m0/s1
