19
gdb 112685	3.45018	1.01115	0.82517	3.1028	72.33	-0.2521	-0.0307	0.2213	1384.498	0.157837	-460.180187	-460.171032	-460.170088	-460.214507	33.665	
C	 0.0483243092	 1.3482024861	-0.0447036823	-0.242468
O	-0.1455670613	-0.0384919332	 0.1278178734	-0.23916
C	 0.6197395495	-0.5993062569	 1.1683772306	 0.12734
C	 0.1148341447	-2.0267040877	 1.4516580201	-0.277393
C	 1.293974578	-2.6856367139	 2.1741732664	 0.064814
O	 1.2831759015	-4.0833568224	 2.210808569	-0.443638
C	 2.4957471236	-2.1319561077	 1.4095566885	 0.366953
O	 3.5131032512	-2.7586491822	 1.2431728031	-0.328567
C	 2.1263752293	-0.7710421405	 0.8325411817	-0.359011
H	 1.0775490844	 1.5915165308	-0.3477453994	 0.108957
H	-0.6333660459	 1.6729335645	-0.8340512962	 0.133142
H	-0.181568581	 1.9066476317	 0.876174003	 0.107523
H	 0.5145872894	 0.0182893867	 2.0757271175	 0.071701
H	-0.8149841146	-2.0385446796	 2.0223419696	 0.116445
H	-0.0586013036	-2.5380631069	 0.4982005175	 0.126387
H	 1.3575691264	-2.2653507719	 3.1979739535	 0.090662
H	 2.1922601303	-4.3557479704	 2.0141408427	 0.292069
H	 2.2642229944	-0.8107088188	-0.254207587	 0.150222
H	 2.7790161345	 0.0173032824	 1.2172785683	 0.134021
71.0816	90.2747	118.3726	197.9185	258.4253	269.9446	344.2064	372.4952	407.8842	433.4948	502.2402	562.6478	592.2647	628.0575	754.1286	848.3085	909.6774	953.399	993.5357	1023.4917	1082.54	1121.5208	1152.0902	1155.6058	1174.1743	1183.7851	1191.0454	1234.2911	1254.2435	1266.9715	1288.6753	1344.6581	1379.1575	1396.655	1419.3371	1437.7363	1481.8453	1490.9291	1500.1863	1509.8802	1837.2058	2906.0536	2960.6923	2978.0901	3026.0388	3053.8272	3059.4543	3104.1805	3119.1744	3125.0193	3715.3672
COC1CC(O)C(=O)C1	CO[C@H]1C[C@@H](O)C(=O)C1	
InChI=1S/C6H10O3/c1-9-4-2-5(7)6(8)3-4/h4-5,7H,2-3H2,1H3	InChI=1S/C6H10O3/c1-9-4-2-5(7)6(8)3-4/h4-5,7H,2-3H2,1H3/t4-,5+/m0/s1
