16
gdb 54646	4.00259	1.10254	0.87369	1.4006	74.06	-0.2396	-0.0744	0.1651	1275.0742	0.12409	-434.116617	-434.107975	-434.107031	-434.150734	30.939	
C	-0.0281168496	 1.48285169	 0.0088530441	-0.478452
C	-0.0004774048	-0.0221230778	 0.0033038416	 0.3363
O	 1.0137004578	-0.6877563777	-0.0069146201	-0.311381
C	-1.3213800769	-0.7315586704	 0.0110461677	 0.277529
N	-2.470845615	-0.1643323663	 0.0214277875	-0.30001
C	-3.4491845472	-1.260912949	 0.0252213512	-0.244371
C	-2.6474886481	-2.564789876	 0.0147736888	 0.384687
N	-3.1274520298	-3.7385864574	 0.0141023059	-0.55032
N	-1.3267466065	-2.1150623243	 0.00687475	-0.371635
H	 0.9921247878	 1.866462565	 0.0011714895	 0.142965
H	-0.5832241777	 1.8496773467	-0.8599261034	 0.161393
H	-0.5674691602	 1.84336225	 0.8901369448	 0.161363
H	-4.092205977	-1.1956890377	 0.9095466939	 0.153527
H	-4.1057534128	-1.1898114669	-0.8486198925	 0.153528
H	-2.3966744896	-4.4514757414	 0.0063571219	 0.212803
H	-0.4856106203	-2.6685636768	-0.0020998708	 0.272073
56.4085	90.0117	116.8227	167.6479	207.3686	334.0757	430.2736	459.1722	481.3024	532.7434	555.9915	611.1849	688.021	718.2396	856.9618	884.4377	935.5206	976.2397	988.5589	1017.7032	1045.5096	1080.1231	1137.3676	1179.2163	1261.8953	1290.6568	1324.0223	1385.8781	1444.6092	1453.8135	1461.2005	1468.9064	1675.4098	1765.9285	1790.0844	3052.9812	3053.3459	3085.0908	3115.7656	3164.4304	3463.8621	3660.5695
CC(=O)C1=NCC(=N)N1	CC(=O)C1=NC[C]([NH])N1	
InChI=1S/C5H7N3O/c1-3(9)5-7-2-4(6)8-5/h2H2,1H3,(H2,6,7,8)	InChI=1S/C5H7N3O/c1-3(9)5-7-2-4(6)8-5/h2H2,1H3,(H2,6,7,8)
