16
gdb 33572	2.23724	1.53134	1.17414	4.3021	74.5	-0.2736	0.0083	0.2819	1089.6252	0.124007	-400.72285	-400.714262	-400.713318	-400.75733	31.078	
C	-0.1412167577	-1.2883393968	-0.3770803329	-0.406949
C	-0.0906065885	-0.1046243404	-0.1827303916	 0.263226
C	 0.012116294	 1.3270285961	 0.0786117503	-0.049221
C	-0.5123182548	 1.750086615	 1.498351162	-0.2875
C	 0.5398355982	 2.7786408853	 1.989194278	-0.080856
O	 1.4218064347	 3.0170000367	 0.8975837491	-0.237066
C	 1.4944721718	 1.8254224885	 0.1616753236	-0.108907
C	-0.6968236788	 2.0847911429	-0.9662955152	 0.273216
N	-1.2520132138	 2.6900672092	-1.7786929535	-0.338645
H	-0.1967779249	-2.3333813689	-0.5601237396	 0.207946
H	-1.5158828343	 2.1702149913	 1.4312826258	 0.14527
H	-0.5521998608	 0.8712555895	 2.1428868774	 0.132921
H	 0.1047569678	 3.7381975683	 2.2758670766	 0.128557
H	 1.0958017046	 2.3765749214	 2.8481535048	 0.106367
H	 2.0860251827	 1.0499832414	 0.6724107734	 0.107924
H	 1.9312727798	 2.0360512405	-0.8152108183	 0.143718
20.5564	128.5085	151.8746	171.166	209.5939	301.9659	446.9396	479.1723	496.2941	572.9665	582.8661	646.1506	668.1195	692.0691	757.2317	821.8824	935.9841	941.3908	973.0711	1002.7696	1074.86	1106.6777	1133.404	1169.6341	1236.5433	1264.184	1294.9176	1301.4344	1353.6418	1396.4209	1493.2173	1503.7487	1525.3824	2245.5119	2360.0184	2990.367	3003.7395	3093.6367	3105.9147	3131.0335	3147.9367	3499.875
C#CC1(CCOC1)C#N	C#C[C@]1(CCOC1)C#N	
InChI=1S/C7H7NO/c1-2-7(5-8)3-4-9-6-7/h1H,3-4,6H2	InChI=1S/C7H7NO/c1-2-7(5-8)3-4-9-6-7/h1H,3-4,6H2/t7-/m0/s1
