14
gdb 27979	3.77321	1.24269	0.93596	6.724	69.6	-0.2002	-0.014	0.1862	1158.0114	0.101026	-470.037305	-470.0292	-470.028256	-470.07007	29.781	
N	 0.1244562161	 1.3630774482	 0.1655303307	-0.591556
C	-0.0498552349	 0.0013779324	 0.0435634518	 0.348939
C	-1.1107492068	-0.8117305478	 0.0025274217	-0.21601
N	-0.606630101	-2.1429563488	-0.0028661591	-0.135612
C	-1.4007199003	-3.2811102387	-0.0240031251	 0.166205
O	-1.0141897866	-4.418020933	-0.0392589255	-0.272174
C	 0.7949117752	-2.0824527842	 0.0086479159	 0.488002
N	 1.6147153067	-3.0355464561	-0.0114870023	-0.542725
O	 1.116917741	-0.7289428615	 0.0457688682	-0.238543
H	 0.9198499949	 1.7081925442	-0.3575428245	 0.26664
H	-0.709119426	 1.8965275796	-0.0380552069	 0.263459
H	-2.1654853576	-0.606725415	-0.0181812284	 0.146564
H	-2.4707161056	-2.993214714	-0.0255216271	 0.082469
H	 2.5693770349	-2.6823733253	 0.0107118703	 0.234342
84.6204	172.394	199.2439	221.2848	230.2624	331.8462	336.3244	462.4463	523.0312	617.0711	629.2991	647.4012	710.9218	728.1327	790.252	794.4874	831.5722	991.726	1009.586	1014.6747	1115.1147	1194.7123	1206.5588	1259.8998	1387.5874	1428.1523	1450.5407	1632.523	1745.907	1792.4297	1850.4567	2935.786	3300.849	3524.1418	3544.7192	3649.5461
NC1=CN(C=O)C(=N)O1	NC1=CN(C=O)[C@@H]([NH])O1	
InChI=1S/C4H5N3O2/c5-3-1-7(2-8)4(6)9-3/h1-2,6H,5H2	InChI=1S/C4H6N3O2/c5-3-1-7(2-8)4(6)9-3/h1-2,4,6H,5H2/t4-/m1/s1
