21
gdb 98404	3.11391	0.9909	0.8792	3.5582	80.63	-0.2613	-0.0211	0.2401	1413.4303	0.179918	-424.240387	-424.230212	-424.229268	-424.275616	37.478	
C	-0.221505115	 1.4938517464	 0.1721872903	-0.421004
C	-0.0591565832	-0.0088298511	 0.154994967	 0.001419
C	 1.1832942083	-0.673895125	-0.3266147626	-0.308169
C	 0.8410856556	-0.7501905062	 1.1630846568	 0.205531
C	 1.688892615	 0.0215893294	 2.1574964611	-0.490833
C	 0.282125249	-2.0642999392	 1.5921324573	 0.300544
O	-0.3559978509	-2.7825068791	 0.8397451603	-0.355754
C	 0.492158329	-2.5461321746	 3.025064633	-0.143188
O	-0.1230682383	-3.7803179875	 3.2320441337	-0.422772
H	 0.7284929868	 2.0156709787	 0.3136652636	 0.119312
H	-0.6377147018	 1.8320455098	-0.7829504455	 0.129079
H	-0.9061802581	 1.8160350147	 0.9639106647	 0.124305
H	-0.9709349826	-0.5593754057	-0.0577731912	 0.113067
H	 1.0882556752	-1.5948658744	-0.8898012398	 0.13612
H	 2.0333545327	-0.0501870885	-0.5855576752	 0.113347
H	 2.064693844	 0.947198295	 1.7176725708	 0.122931
H	 1.1257921418	 0.2941531566	 3.056644609	 0.126603
H	 2.5621110731	-0.5592417059	 2.4728274963	 0.127979
H	 1.5756989208	-2.6011219772	 3.2221057521	 0.114532
H	 0.0963749913	-1.7804437661	 3.7130694866	 0.113892
H	-0.5239563326	-3.99948942	 2.3738820017	 0.293059
46.3833	108.8131	159.7016	175.4658	190.1517	194.1582	284.8719	311.368	349.1399	367.7732	427.3605	454.3155	469.5748	575.3895	594.9047	744.3978	766.3063	849.6346	898.0706	926.993	961.5877	1007.6981	1038.5266	1042.6535	1084.9374	1105.9167	1134.7975	1137.7564	1160.9062	1202.3189	1247.5462	1276.7472	1307.3179	1329.8586	1399.9773	1418.908	1427.9466	1454.0706	1474.1686	1486.4231	1487.3364	1495.4113	1501.9601	1512.5382	1753.8736	2970.3436	2984.8969	3034.476	3038.282	3092.5797	3095.1008	3111.1178	3126.3027	3131.5182	3158.654	3227.4897	3657.9578
CC1CC1(C)C(=O)CO	C[C@H]1C[C@]1(C)C(=O)CO	
InChI=1S/C7H12O2/c1-5-3-7(5,2)6(9)4-8/h5,8H,3-4H2,1-2H3	InChI=1S/C7H12O2/c1-5-3-7(5,2)6(9)4-8/h5,8H,3-4H2,1-2H3/t5-,7-/m0/s1
