18
gdb 41762	2.61157	2.15835	1.64977	1.9999	73.56	-0.2456	0.028	0.2736	877.435	0.15225	-401.957675	-401.951329	-401.950385	-401.988224	26.482	
C	 0.0012924985	 1.5953093848	 0.0740670963	-0.243881
C	 1.4859786385	 1.9755759274	-0.1230306532	-0.190535
C	 2.28055113	 0.8143724764	 0.5263164704	-0.007809
N	 2.4840627928	 1.0967339055	 1.9506105474	-0.26242
C	 1.6237383299	 0.6845892621	 2.7760844759	 0.11934
O	 0.5054403183	-0.0573360012	 2.5532890106	-0.22389
C	 0.3958682696	-0.6830742996	 1.2950985264	 0.098662
C	-0.0107561155	 0.0642145064	 0.0521688054	-0.07439
C	 1.422495428	-0.4255964371	 0.2391886683	-0.133341
H	-0.3881617258	 1.9790985412	 1.0233818864	 0.1164
H	-0.6322829431	 2.0018489145	-0.7178609559	 0.102119
H	 1.7131907769	 1.998374369	-1.1947686394	 0.097767
H	 1.7592124042	 2.9434985058	 0.3041873881	 0.108158
H	 3.2711329936	 0.7138619947	 0.0768375471	 0.084193
H	 1.703362682	 0.914542394	 3.8366322316	 0.123309
H	 0.0082273423	-1.6870286554	 1.4277611814	 0.107245
H	-0.6944112683	-0.4498981429	-0.6139842608	 0.087965
H	 1.8507697481	-1.2525986855	-0.313930026	 0.091107
137.1883	214.5635	328.444	474.3193	490.3361	566.4864	604.6564	660.469	715.6008	754.7826	777.474	830.0382	854.8221	896.1464	925.5248	952.9569	955.9819	985.4273	997.3116	1037.8261	1045.2961	1065.0691	1098.6349	1111.9792	1154.413	1199.6573	1206.3547	1225.7906	1285.0268	1297.4813	1323.9812	1342.4376	1347.8453	1359.767	1404.3182	1427.9436	1484.1239	1499.7135	1729.9362	3042.2344	3048.7719	3077.2681	3096.6415	3109.6794	3162.0414	3166.169	3171.9096	3185.1656
C1CC2N=COC3C1C23	C1C[C@H]2N=CO[C@H]3[C@@H]1[C@@H]23	
InChI=1S/C7H9NO/c1-2-5-6-4(1)7(6)9-3-8-5/h3-7H,1-2H2	InChI=1S/C7H9NO/c1-2-5-6-4(1)7(6)9-3-8-5/h3-7H,1-2H2/t4-,5+,6-,7-/m0/s1
