15
gdb 55572	3.46744	0.89062	0.78141	6.9039	67.68	-0.2734	-0.0442	0.2293	1410.4349	0.110698	-454.009232	-453.999698	-453.998754	-454.045226	32.729	
N	 0.2287117387	 0.9117845038	-0.0054809103	-0.502478
C	-0.4511531249	-0.1385745377	 0.5194617572	 0.403499
O	-0.1495630831	-0.6643463709	 1.5750645769	-0.351448
C	-1.6484014632	-0.6196517942	-0.3148290013	-0.401985
C	-1.4661604578	-2.0816534401	-0.7305105623	 0.385827
O	-1.2299733065	-2.3924353388	-1.8673811568	-0.264739
C	-1.6004685956	-3.0929856329	 0.4129535366	-0.464974
C	-1.2739307791	-4.4596507531	 0.0313831799	 0.285557
N	-1.0175803258	-5.5497784175	-0.2491029823	-0.29879
H	 1.0552602315	 1.2289414856	 0.4759478639	 0.27318
H	 0.0316853059	 1.2786902219	-0.9196242132	 0.272663
H	-2.532250439	-0.5222136713	 0.3243061517	 0.150548
H	-1.7929952243	-0.0312859435	-1.2220351491	 0.129092
H	-0.9674914192	-2.7460387898	 1.2398763329	 0.213701
H	-2.6308249876	-3.0497806917	 0.789625236	 0.170346
34.5148	62.009	73.835	147.1348	186.2538	275.3383	303.5951	381.1407	419.7726	432.8634	491.625	519.786	597.1318	639.7183	746.2387	816.6553	835.3276	917.0586	971.3776	991.6433	1054.3413	1126.5201	1191.8455	1221.3089	1274.6199	1340.5324	1379.0941	1441.1638	1461.8209	1622.5485	1787.0656	1834.1665	2375.6194	3033.6204	3060.464	3069.7581	3132.994	3601.3388	3738.8424
NC(=O)CC(=O)CC#N	NC(=O)CC(=O)CC#N	
InChI=1S/C5H6N2O2/c6-2-1-4(8)3-5(7)9/h1,3H2,(H2,7,9)	InChI=1S/C5H6N2O2/c6-2-1-4(8)3-5(7)9/h1,3H2,(H2,7,9)
