21
gdb 89416	2.69154	1.41385	1.0876	1.3155	77.65	-0.2502	0.0648	0.315	1173.7026	0.18221	-424.21978	-424.210774	-424.20983	-424.252937	35.682	
C	 0.0047805654	 1.5759555104	-0.0279804281	-0.436352
C	 0.0787106082	 0.0515749723	 0.0204800719	 0.03716
C	 0.7793490713	-0.6110747711	-1.1909265593	-0.304123
C	 1.2383239143	-1.9801084201	-0.6728918161	 0.39771
O	 0.7535235357	-3.128284098	-1.3071414243	-0.477967
C	 2.5439666857	-2.0341453361	 0.0675394723	-0.333313
C	 1.2355942244	-1.9267252514	 0.8335267401	-0.089429
C	 0.7968265516	-0.5337706722	 1.2722807754	 0.070272
O	 1.9441724391	 0.2181406084	 1.6657756379	-0.429985
H	 1.0070476679	 2.016145482	-0.0645221617	 0.120522
H	-0.536548716	 1.9161569887	-0.9164095818	 0.118744
H	-0.5179697676	 1.9842797919	 0.845812575	 0.106367
H	-0.9426049102	-0.3502895615	 0.0566782674	 0.078033
H	 0.095327262	-0.7398129174	-2.0340660406	 0.10053
H	 1.6231291859	-0.0028537802	-1.5383219336	 0.096546
H	 1.3064894941	-3.2969550117	-2.0774809738	 0.279935
H	 3.0342990182	-3.0008129645	 0.1163006385	 0.104934
H	 3.2040324831	-1.1747985308	 0.0569936907	 0.125645
H	 0.9202780358	-2.7879512457	 1.409639858	 0.090901
H	 0.0960823195	-0.5992998058	 2.1168432552	 0.061653
H	 1.6413690617	 1.081723303	 1.9630541068	 0.282217
76.4477	166.402	235.0639	260.2128	276.6582	288.7764	329.2112	347.5341	395.6813	411.8012	484.7871	538.1342	579.4677	672.0938	743.0766	805.0311	855.0143	902.0431	913.0344	929.0793	948.9554	960.1684	1004.1944	1038.5111	1046.0979	1068.8742	1097.4376	1121.407	1165.6774	1182.4252	1223.9895	1251.3439	1268.1705	1299.7013	1321.3373	1330.4115	1348.4369	1371.4903	1400.646	1406.1312	1423.0621	1475.4113	1492.2428	1500.7667	1507.6569	2990.5789	3017.898	3023.4699	3034.0888	3086.4801	3094.1261	3101.7208	3133.7075	3186.763	3228.2719	3797.7666	3822.02
CC1CC2(O)CC2C1O	C[C@H]1C[C@@]2(O)C[C@H]2[C@H]1O	
InChI=1S/C7H12O2/c1-4-2-7(9)3-5(7)6(4)8/h4-6,8-9H,2-3H2,1H3	InChI=1S/C7H12O2/c1-4-2-7(9)3-5(7)6(4)8/h4-6,8-9H,2-3H2,1H3/t4-,5-,6-,7+/m0/s1
