23
gdb 59361	2.89938	1.04096	0.85856	2.6571	81.74	-0.2473	0.0668	0.3141	1422.6662	0.203771	-425.416421	-425.405881	-425.404937	-425.451584	39.516	
C	-0.1393321994	 1.5547065378	 0.0214272478	-0.404225
C	-0.0141907685	 0.0322480802	-0.062780897	 0.124243
O	 0.6318586404	-0.3671845555	-1.2730707276	-0.434117
C	 0.6890805263	-0.5600888479	 1.1525810338	 0.018709
C	-0.0120485217	-0.4985055957	 2.5394680804	-0.300971
C	 0.5666821238	-1.9080422139	 2.8326813489	 0.139024
O	-0.2580157433	-2.8776019855	 3.4366117419	-0.430114
C	 0.7978662368	-2.1148239178	 1.3100788055	-0.040181
C	-0.2874040064	-2.9336210008	 0.6138522227	-0.395635
H	 0.8506361936	 2.0221054844	 0.0995443893	 0.102367
H	-0.6301779617	 1.9442844231	-0.8745500279	 0.122379
H	-0.7207606152	 1.8592105706	 0.8977189128	 0.119387
H	-1.018185206	-0.4001282625	-0.1419005626	 0.087393
H	 1.5316096425	-0.0224397203	-1.2497723155	 0.273551
H	 1.6904326692	-0.1126116056	 1.2217546609	 0.053784
H	 0.2450942024	 0.3204111461	 3.2162605699	 0.089959
H	-1.1010525815	-0.5503709978	 2.43866144	 0.105178
H	 1.5279965728	-1.8264825227	 3.3610950946	 0.061734
H	-0.3695457936	-2.6452800002	 4.3637172934	 0.281733
H	 1.7769890315	-2.5294780638	 1.0539458604	 0.064074
H	-1.2945649907	-2.5917459603	 0.8697751166	 0.114529
H	-0.1673843278	-2.870850118	-0.4710239995	 0.12881
H	-0.2208770735	-3.9820247437	 0.9167363215	 0.11839
78.6965	86.5369	143.5435	223.533	233.1235	236.8587	248.519	263.8008	270.4297	321.9031	369.6865	403.0908	467.493	526.6006	557.5223	658.1137	771.54	809.5067	889.3223	913.8812	919.0975	973.4164	1014.5521	1022.3759	1044.0303	1082.8615	1098.8041	1108.2705	1137.1062	1170.9158	1190.9505	1208.6945	1235.8367	1268.6525	1275.9766	1283.5087	1325.6763	1339.0578	1368.5815	1395.1256	1400.377	1406.5481	1419.0147	1431.9803	1487.5014	1490.4922	1493.6915	1498.4082	1502.2851	2984.2347	3001.3291	3022.6434	3044.7847	3047.6381	3052.7684	3058.2737	3093.2618	3104.1966	3114.2906	3117.2531	3123.4265	3795.2372	3818.4575
CC(O)C1CC(O)C1C	C[C@@H](O)[C@H]1C[C@@H](O)[C@H]1C	
InChI=1S/C7H14O2/c1-4-6(5(2)8)3-7(4)9/h4-9H,3H2,1-2H3	InChI=1S/C7H14O2/c1-4-6(5(2)8)3-7(4)9/h4-9H,3H2,1-2H3/t4-,5+,6-,7+/m0/s1
