23
gdb 114082	3.02939	1.23361	1.06385	1.3392	85.97	-0.2328	0.0904	0.3231	1273.5	0.20601	-388.288764	-388.279884	-388.27894	-388.321988	35.263	
C	-0.0842992372	 1.5369938207	 0.1709991993	-0.378046
C	 0.1019447918	 0.030280445	-0.0330609132	-0.201895
C	 0.7372543875	-0.6442076964	 1.1770782376	 0.166078
O	-0.071895817	-0.4723675203	 2.370040418	-0.333708
C	-0.2380502721	-1.8300451828	 2.8397723791	 0.454362
C	-1.0388115789	-1.8500113976	 4.1108538272	-0.489921
C	 1.1893399914	-2.4222971024	 2.6703656894	-0.27385
C	 0.8485896168	-2.1789910513	 1.1674898288	-0.090773
C	-0.6090434887	-2.5940654481	 1.5396522014	-0.272107
H	 0.8774257231	 2.0354389504	 0.3368968019	 0.11032
H	-0.5544549202	 2.0001313598	-0.7016545288	 0.106891
H	-0.7139082873	 1.7273205753	 1.0442208463	 0.135387
H	-0.8649256211	-0.4356945768	-0.252564492	 0.096236
H	 0.7475275145	-0.1543987976	-0.9021457173	 0.090016
H	 1.7225860582	-0.1874716252	 1.3561436049	 0.064089
H	-2.0274630559	-1.4096876619	 3.9473091651	 0.126014
H	-1.1696196409	-2.8753364714	 4.4681542415	 0.114979
H	-0.5347416205	-1.2706220296	 4.8906717335	 0.126482
H	 2.0172473069	-1.8603196008	 3.111234445	 0.094225
H	 1.252520215	-3.4808608798	 2.9298476003	 0.095281
H	 1.4066347629	-2.6395629999	 0.3529181779	 0.067618
H	-0.7084388552	-3.6709207255	 1.6889138528	 0.095801
H	-1.4429160033	-2.2069782238	 0.9505746812	 0.09652
83.8075	162.1584	167.9108	208.3456	246.5506	298.6148	321.3912	393.6171	480.9092	500.8357	529.9398	617.5399	668.2791	770.7699	815.3787	855.0021	861.0681	874.9615	896.707	930.829	961.4772	976.701	987.9107	1029.3629	1033.9268	1051.2264	1082.5986	1112.5609	1126.8173	1161.1392	1186.2824	1198.6203	1216.5878	1234.3478	1286.3073	1292.2528	1310.844	1333.9461	1358.6554	1405.7541	1412.3264	1422.5372	1472.4747	1480.6551	1481.6731	1492.8493	1497.0045	1509.9813	1514.3632	2981.4751	3022.4441	3035.6398	3039.6289	3058.8997	3067.5063	3073.6604	3101.7172	3108.8575	3117.2207	3121.4998	3122.7689	3126.3396	3134.2681
CCC1OC2(C)CC1C2	CC[C@H]1O[C@]2(C)C[C@H]1C2	
InChI=1S/C8H14O/c1-3-7-6-4-8(2,5-6)9-7/h6-7H,3-5H2,1-2H3	InChI=1S/C8H14O/c1-3-7-6-4-8(2,5-6)9-7/h6-7H,3-5H2,1-2H3/t6-,7-,8+/m1/s1
