15
gdb 29503	3.2766	1.65985	1.10174	1.0086	74.66	-0.1651	0.0389	0.2039	1019.7861	0.114751	-416.844242	-416.836228	-416.835284	-416.877296	29.943	
O	 0.0934832258	 1.4020690184	 0.1387236283	-0.458971
C	 0.0715645976	 0.0364165391	 0.0437382294	 0.147133
C	 0.0661139228	-0.7653109535	-1.0804872983	-0.210787
N	 0.0421230192	-2.1045423201	-0.6899097266	-0.417387
C	 0.0314189796	-2.1555059547	 0.6813111526	 0.342536
C	 0.0497171472	-0.843173659	 1.1550679682	 0.282919
N	 0.0396122809	-0.8970650696	 2.5303279323	-0.420085
C	 0.0153223631	-2.2248586883	 2.9099421408	-0.062144
C	 0.0093021829	-3.0395132056	 1.7946898713	-0.317839
H	 0.1050874822	 1.7723038524	-0.7486751262	 0.293332
H	 0.0778399608	-0.4899638904	-2.1231022386	 0.102688
H	 0.0305139438	-2.8837433704	-1.3205386846	 0.254657
H	 0.0484531256	-0.1127137566	 3.1558450277	 0.262024
H	 0.0038769538	-2.4924674505	 3.9546788694	 0.113116
H	-0.0085380553	-4.117861411	 1.8030147642	 0.088808
33.5632	177.6769	209.4431	245.0186	269.0593	320.9008	437.2706	545.2692	566.1896	602.8282	614.6996	644.7731	691.1528	699.6308	741.846	782.985	804.7761	927.7175	1060.0864	1077.3028	1099.8521	1129.2593	1177.2738	1258.625	1284.047	1360.3827	1366.5421	1421.8287	1464.1528	1525.2922	1557.2255	1608.6645	1643.9198	3248.2766	3253.8861	3267.6553	3702.877	3709.147	3838.8357
OC1=CNC2=C1NC=C2	Oc1c[nH]c2c1[nH]cc2	
InChI=1S/C6H6N2O/c9-5-3-8-4-1-2-7-6(4)5/h1-3,7-9H	InChI=1S/C6H6N2O/c9-5-3-8-4-1-2-7-6(4)5/h1-3,7-9H
