14
gdb 126360	1.99751	0.8815	0.68077	2.6931	64.3	-0.2782	-0.0417	0.2365	1615.8898	0.095023	-470.108905	-470.0972	-470.096256	-470.15287	33.962	
C	 0.1737930066	 1.4998686211	 0.3814447072	-0.386494
C	-0.4709029975	 0.1917474186	-0.104607125	-0.264459
C	 0.27696953	-0.4337253795	-1.2579719783	 0.376301
N	 0.2990687201	 0.4112500597	-2.4046348112	-0.429177
C	 0.8033690575	 0.2573032962	-3.5027350264	 0.599641
O	 1.2345508651	 0.2238550196	-4.5815559483	-0.265731
N	 3.4925425631	-1.8251619005	-2.8511296765	-0.00064
N	 3.8079187598	-2.8747277512	-2.7747526994	-0.002241
O	 0.8014099705	-1.5155350575	-1.241154679	-0.294366
H	 1.1923760677	 1.3266511251	 0.7410656175	 0.133539
H	 0.214663196	 2.2388194706	-0.4225782161	 0.141019
H	-0.4085398475	 1.9209891757	 1.2051093882	 0.128953
H	-0.5108043896	-0.5511812536	 0.6944746919	 0.131493
H	-1.4950946518	 0.3931345257	-0.4408010147	 0.132163
8.9059	15.3738	36.2647	45.0501	52.8059	76.3492	82.1488	115.9998	220.8031	237.3264	409.9081	546.138	632.9131	639.762	702.5517	780.6863	818.4344	953.5721	1048.706	1090.4458	1184.9034	1284.1168	1341.8894	1407.7193	1458.401	1471.5491	1498.2531	1507.385	1808.8006	2339.9624	2432.8238	3043.9131	3048.5912	3111.8865	3121.287	3134.5655	8.9065	15.375	36.2653	45.0502	52.8063	76.3493	82.1492	116.	220.8044	237.3265	409.9082	546.1381	632.913	639.7617	702.5519	780.686	818.4345	953.5721	1048.7061	1090.446	1184.9037	1284.1171	1341.8896	1407.7191	1458.4009	1471.5495	1498.2528	1507.3848	1808.8013	2339.9623	2432.8239	3043.9131	3048.5912	3111.8865	3121.287	3134.5654
CCC1=NC(=O)N=NO1	CCC(=O)N=C=O.N#N	
InChI=1S/C4H5N3O2/c1-2-3-5-4(8)6-7-9-3/h2H2,1H3	InChI=1S/C4H5NO2.N2/c1-2-4(7)5-3-6;1-2/h2H2,1H3;
