16
gdb 36227	3.56222	1.26472	1.04503	3.5429	72.94	-0.2562	-0.0169	0.2392	1126.1513	0.126036	-396.928279	-396.920633	-396.919689	-396.961239	28.286	
N	-0.834184051	 0.3142877309	-1.4311451065	-0.307046
C	-0.285835751	 0.6372808435	-0.4672855788	 0.266383
C	 0.4206582508	 1.0407489621	 0.7498311726	-0.414336
C	 1.6691563563	 1.8307900054	 0.450295593	 0.33532
N	 2.8262701456	 1.4789537288	 0.8425913649	-0.255146
C	 3.7727842305	 2.5152583451	 0.3904161256	-0.192787
C	 2.9307025277	 3.4910255402	-0.4320636963	-0.035509
C	 2.1834014507	 2.9661114372	-1.5969998127	-0.241111
N	 1.5172715817	 3.0600121313	-0.2652707595	-0.149979
H	-0.2571743471	 1.655953173	 1.353449865	 0.17508
H	 0.692219503	 0.1558876162	 1.3299867922	 0.178517
H	 4.2159724152	 3.0069395753	 1.2639136781	 0.126217
H	 4.5921031441	 2.0501485717	-0.1682515624	 0.127822
H	 3.1130309993	 4.5571071664	-0.3512810385	 0.109934
H	 1.7867603576	 3.6497050225	-2.3399919539	 0.136111
H	 2.4168318765	 1.9692777204	-1.9609895428	 0.140531
47.6034	92.2361	233.6562	287.419	323.8353	369.8949	384.3676	471.5328	615.5814	723.5458	766.3219	771.7004	842.4584	867.6497	920.1052	941.8491	945.5742	988.7568	1015.7841	1082.8071	1087.6897	1112.6227	1160.8446	1197.3503	1204.7881	1236.9105	1287.8411	1312.8729	1346.3431	1373.2132	1445.7951	1485.1741	1503.1202	1712.6545	2367.7031	3041.8639	3050.8031	3075.012	3119.7108	3120.7899	3171.8675	3215.6298
N#CCC1=NCC2CN12	N#CCC1=NC[C@H]2CN12	
InChI=1S/C6H7N3/c7-2-1-6-8-3-5-4-9(5)6/h5H,1,3-4H2	InChI=1S/C6H7N3/c7-2-1-6-8-3-5-4-9(5)6/h5H,1,3-4H2/t5-,9?/m0/s1
