14
gdb 130511	3.94154	1.69037	1.18302	2.3671	81.92	-0.2056	-0.0861	0.1195	956.3093	0.103431	-399.544619	-399.538505	-399.537561	-399.57492	24.863	
O	-0.0751935175	 1.30647517	 0.0101360249	-0.254588
N	 1.0428729585	 2.1120060358	 0.0034565013	-0.093774
C	 2.2016370246	 1.5127654482	-0.0111926461	 0.03701
C	 2.4414989613	 0.107030697	-0.0211297868	-0.275908
C	 1.353482855	-0.7068337357	-0.0147929887	 0.273405
C	 1.0842933084	-2.1015894539	-0.0196596105	-0.282933
C	-0.2902802423	-2.2383660912	-0.0068532485	-0.060189
C	-0.9617937491	-0.9611446387	 0.0066503775	-0.30006
C	 0.0333624152	-0.029861035	 0.0018623189	 0.371865
H	 3.0287361284	 2.2155197471	-0.0155594375	 0.138268
H	 3.4614065497	-0.2613545378	-0.0331650658	 0.125907
H	 1.8190858522	-2.89167977	-0.0311585051	 0.100989
H	-0.8164163811	-3.1855654617	-0.0067763703	 0.10949
H	-2.0263537532	-0.7909045041	 0.0180589187	 0.110517
188.3876	240.3204	360.6423	419.3251	542.568	558.381	589.6755	614.1584	705.1249	735.2761	766.8204	787.3127	831.4113	883.1044	922.0923	938.0786	949.7514	963.9196	1020.1997	1062.194	1090.5679	1196.4026	1246.7078	1303.6697	1338.4696	1350.7445	1403.3186	1440.6256	1557.8047	1602.5834	1682.5366	3186.0568	3199.4183	3209.4782	3251.9876	3261.7809
O1N=CC=C2C=CC=C12	o1nccc2cccc12	
InChI=1S/C7H5NO/c1-2-6-4-5-8-9-7(6)3-1/h1-5H	InChI=1S/C7H5NO/c1-2-6-4-5-8-9-7(6)3-1/h1-5H
