18
gdb 107105	4.32858	1.01517	0.96376	2.6268	72.75	-0.2523	-0.0388	0.2135	1244.8723	0.147453	-439.047613	-439.039129	-439.038185	-439.080998	31.517	
O	 0.4564029041	 0.2492159369	-0.9180541136	-0.418083
C	-0.0984410989	 0.3297571056	 0.374414173	-0.162016
C	-1.4364556356	-0.357343258	 0.4388625064	 0.329441
C	-2.2874349708	-0.6459342995	 1.6859549255	-0.330346
C	-2.7973906537	-1.9592615196	 1.0100564909	-0.100947
C	-4.2532439868	-2.0617633194	 0.660178276	 0.143751
O	-4.9704447651	-1.0992810129	 0.5058936038	-0.256281
C	-1.9111081114	-1.6113106986	-0.2341562373	-0.110275
N	-2.2606384056	-0.3017752379	-0.7644066265	-0.372111
H	-0.2907852259	 0.358008539	-1.5237581581	 0.29336
H	 0.604469092	-0.1455362625	 1.0692298792	 0.106877
H	-0.2204179068	 1.3775471473	 0.704139641	 0.089816
H	-1.6922998663	-0.8592448815	 2.5769096064	 0.115476
H	-3.0510087675	 0.0977425166	 1.9260707916	 0.123869
H	-2.4490393356	-2.8663413321	 1.5091996596	 0.09442
H	-4.639475974	-3.089362653	 0.4789319982	 0.088378
H	-1.4034685295	-2.3234397355	-0.8734040566	 0.112147
H	-3.2322321225	-0.039025755	-0.6016259596	 0.252524
85.7366	113.5826	150.0416	167.1723	260.9976	279.8002	380.4716	430.2046	490.1116	538.8106	656.9281	696.7666	729.8397	800.9772	849.5264	872.4159	959.242	962.9146	1005.4991	1041.5917	1064.2964	1071.1963	1090.8893	1122.9302	1127.9728	1173.6832	1205.2335	1234.6658	1241.6436	1261.131	1291.3372	1341.7041	1371.1082	1416.8889	1434.5855	1463.424	1482.3904	1512.614	1799.7094	2885.9862	2941.5485	3049.8173	3067.5731	3089.0381	3124.4909	3190.2242	3461.5714	3734.1064
OCC12CC(C=O)C1N2	OC[C@]12C[C@@H](C=O)[C@H]1N2	
InChI=1S/C6H9NO2/c8-2-4-1-6(3-9)5(4)7-6/h2,4-5,7,9H,1,3H2	InChI=1S/C6H9NO2/c8-2-4-1-6(3-9)5(4)7-6/h2,4-5,7,9H,1,3H2/t4-,5+,6+/m0/s1
