21
gdb 38030	3.417	1.48987	1.19348	0.3291	87.42	-0.2153	0.0215	0.2368	1096.3933	0.18632	-349.96588	-349.958675	-349.95773	-349.997375	30.019	
C	 0.0921175448	 1.5317914233	 0.0192137513	-0.281691
C	 1.3769065835	 0.7268346486	-0.0508235613	-0.062917
C	 1.9901368302	 0.454940838	 1.2879214828	-0.254865
C	 1.2029305365	-0.3329539338	 2.0231226038	 0.348261
C	 1.0732317295	-0.6734743607	 3.4851999311	-0.327915
C	-0.428701284	-1.0861494744	 3.6295850553	-0.201396
C	-1.1322848994	-0.5974299694	 2.3365248895	-0.230477
C	-0.0379979144	-0.7760779149	 1.2666656845	-0.045516
C	 0.0186666758	 0.026044759	-0.0259577327	-0.080054
H	-0.1252297668	 2.0551067567	 0.9447123227	 0.106968
H	-0.2249780081	 2.053805387	-0.8781760511	 0.105295
H	 1.9854751886	 0.7851884244	-0.9471575708	 0.080568
H	 2.8962961003	 0.9465099296	 1.6260616186	 0.085776
H	 1.7368286901	-1.4914471177	 3.7887543357	 0.108825
H	 1.3249356067	 0.1820600711	 4.1205987677	 0.110688
H	-0.5046369345	-2.1771379555	 3.6941032703	 0.10062
H	-0.8884030907	-0.6839615099	 4.536306577	 0.09655
H	-2.0519349997	-1.1509017041	 2.1261334619	 0.091512
H	-1.3949094512	 0.463293521	 2.4232234504	 0.099047
H	 0.0278797636	-1.8494965948	 1.0276512863	 0.071487
H	-0.3752717309	-0.4209169835	-0.930986923	 0.079233
103.3159	171.3437	226.3243	348.0257	422.559	448.6121	556.4742	615.74	645.6204	694.8398	772.9639	802.2604	811.8067	835.2348	857.9015	890.9643	904.8101	919.8168	944.9806	996.2841	999.6285	1035.4663	1037.9104	1066.1336	1074.5557	1099.0472	1103.5909	1156.5521	1168.8244	1192.9198	1200.3002	1228.726	1264.6752	1286.8949	1303.7	1315.8131	1332.7306	1351.2534	1361.0206	1383.5852	1473.3427	1478.2379	1491.2255	1505.0911	1713.2841	2970.8479	3032.1815	3039.0412	3045.8029	3065.7574	3088.2074	3099.3886	3120.9254	3159.0704	3176.0082	3184.9886	3208.5566
C1C2C=C3CCCC3C12	C1[C@H]2C=C3CCC[C@H]3[C@@H]12	
InChI=1S/C9H12/c1-2-6-4-7-5-9(7)8(6)3-1/h4,7-9H,1-3,5H2	InChI=1S/C9H12/c1-2-6-4-7-5-9(7)8(6)3-1/h4,7-9H,1-3,5H2/t7-,8-,9+/m1/s1
