19
gdb 78620	2.55311	1.65196	1.30148	3.6738	79.27	-0.2321	0.0113	0.2434	1051.3144	0.158356	-385.872902	-385.86461	-385.863666	-385.905339	32.294	
C	 0.0753478819	 1.6011178754	-0.0899377652	-0.426056
C	 0.0930953973	 0.0814705913	 0.0041018816	-0.034104
C	 1.0934063151	-0.7356345524	-0.8701510304	-0.204312
C	 1.2618728294	-1.7282453038	 0.3495082565	-0.136899
C	 2.2528418729	-0.696275237	 0.9461819297	-0.245787
C	 2.4749200778	-0.1954476089	-0.4447766924	 0.446647
O	 3.4221706738	 0.2334033283	-1.0430628682	-0.350482
C	 0.7334788655	-0.6315477322	 1.2129286859	 0.331036
C	 0.1944455124	-0.6926815395	 2.6125267969	-0.508998
H	 1.0735923211	 2.027244296	 0.0528842152	 0.131538
H	-0.2881954422	 1.927330669	-1.0702212073	 0.122766
H	-0.5869824316	 2.0319229762	 0.6686838712	 0.116528
H	-0.9167696952	-0.3243176254	-0.1315534955	 0.075035
H	 0.8870323717	-0.9906381343	-1.9062120695	 0.086963
H	 1.3058021636	-2.8040092708	 0.4240363742	 0.111841
H	 2.9650909364	-0.8429028645	 1.7469815351	 0.104714
H	 0.2464246305	 0.2861520409	 3.1017609974	 0.129933
H	-0.8535966159	-1.0122555833	 2.6088196325	 0.124517
H	 0.7581577055	-1.402285585	 3.2267436922	 0.125118
128.2755	178.7167	195.6953	203.0362	216.1623	279.1419	368.4418	458.9973	532.8107	571.843	637.3492	689.7797	773.7966	794.0778	818.2187	845.8242	855.4989	886.7092	916.9535	957.9182	997.8949	1037.6483	1061.9698	1074.7227	1108.287	1126.6572	1140.1727	1153.3449	1162.6754	1213.825	1267.8841	1289.9613	1364.1904	1409.915	1411.5309	1433.7211	1486.6191	1492.6167	1495.7592	1497.9544	1874.8185	3027.6712	3031.0002	3034.6279	3091.3545	3097.2451	3100.4642	3104.8774	3159.4963	3213.0736	3239.2193
CC1C2C3C(C2=O)C13C	C[C@H]1[C@@H]2[C@H]3[C@@H](C2=O)[C@@]13C	
InChI=1S/C8H10O/c1-3-4-5-6(7(4)9)8(3,5)2/h3-6H,1-2H3	InChI=1S/C8H10O/c1-3-4-5-6(7(4)9)8(3,5)2/h3-6H,1-2H3/t3-,4+,5-,6-,8-/m0/s1
