18
gdb 15637	3.23403	1.6879	1.17916	2.4572	73.42	-0.2385	-0.016	0.2225	1037.3758	0.153468	-347.842275	-347.834254	-347.83331	-347.875199	29.586	
C	 0.0670314696	 1.599408769	 0.1274731505	-0.392069
C	 0.0244660651	 0.0725842903	 0.0328693625	-0.170059
C	-1.4035866868	-0.5010819736	-0.0608133519	-0.141305
C	-2.143347313	-0.2600632342	-1.3528718922	-0.071549
C	-2.5703341166	-1.3857999966	-1.928535356	-0.079049
C	-2.2102633716	-2.6130966202	-1.1364825443	-0.369207
C	-1.4061847212	-2.0407219151	 0.0413268651	 0.386255
O	-0.8475449491	-2.680931922	 0.8935198197	-0.313577
H	 1.0977036094	 1.9562170736	 0.2168692919	 0.117671
H	-0.3695166332	 2.0740058965	-0.7576410313	 0.116347
H	-0.4865219828	 1.956838312	 1.0029804971	 0.116767
H	 0.6014568749	-0.2630478586	-0.8377516503	 0.09845
H	 0.498757032	-0.3741264858	 0.9134509696	 0.12169
H	-1.9734596378	-0.1126339873	 0.7983544517	 0.104339
H	-2.3045104089	 0.734512602	-1.7531684553	 0.101104
H	-3.1236938424	-1.4352656947	-2.8593481898	 0.100735
H	-3.0828996958	-3.1635925867	-0.7596919323	 0.136685
H	-1.6066677318	-3.3447189086	-1.6881804447	 0.136771
58.6968	93.5968	174.1657	212.102	277.8993	317.227	448.6006	509.2895	560.3007	628.9092	717.4131	744.2743	778.3246	799.7453	898.1576	944.8844	970.658	978.5776	989.1717	1059.3029	1091.8847	1112.1588	1135.97	1148.5097	1163.9066	1253.2693	1263.4318	1282.3619	1331.868	1363.1413	1385.9085	1413.1692	1442.2995	1488.9213	1499.2264	1506.513	1677.4977	1847.018	2982.1251	3024.649	3029.8086	3032.8163	3054.4541	3072.5253	3100.7034	3104.2344	3185.7183	3209.0726
CCC1C=CCC1=O	CC[C@H]1C=CCC1=O	
InChI=1S/C7H10O/c1-2-6-4-3-5-7(6)8/h3-4,6H,2,5H2,1H3	InChI=1S/C7H10O/c1-2-6-4-3-5-7(6)8/h3-4,6H,2,5H2,1H3/t6-/m0/s1
