19
gdb 78311	2.98809	1.43913	1.19851	2.5805	74.53	-0.2413	0.0747	0.316	1075.1171	0.160256	-422.975168	-422.967634	-422.96669	-423.006519	31.642	
O	-0.1486108078	 1.3745779027	-0.0188206416	-0.437889
C	 0.0261546728	-0.0146659232	-0.0406280137	 0.051487
C	-0.380397381	-0.7586802875	 1.216866055	-0.087261
C	-1.2692993834	-0.7693813098	-0.0212581967	-0.072504
C	-1.2968049859	-2.2781721121	-0.30699405	 0.397954
O	-2.0579565321	-2.6135731924	-1.4212904287	-0.486148
C	-1.5591829699	-2.834420513	 1.1473856372	-0.271841
C	-0.115007395	-2.2697621241	 1.3632574932	-0.057734
C	 0.1711848019	-2.7512668274	-0.0890889535	-0.307455
H	 0.5817640904	 1.7549695076	 0.4802428979	 0.285652
H	 0.8638570366	-0.3462966345	-0.6496624846	 0.087363
H	-0.6391268046	-0.1694252586	 2.089590491	 0.088693
H	-2.1953816577	-0.2114373186	-0.0860078204	 0.102269
H	-2.0509811465	-3.5713499075	-1.5161370006	 0.278662
H	-2.3739173189	-2.3878110921	 1.723185211	 0.093773
H	-1.6071451195	-3.9277258097	 1.1857173618	 0.0822
H	 0.5073444098	-2.5999132539	 2.1934448645	 0.066155
H	 0.2426857022	-3.8415183778	-0.1325342914	 0.086842
H	 0.9838775487	-2.3129458582	-0.6683294106	 0.099782
209.5524	243.7587	275.0097	292.0294	323.2917	385.3282	417.5611	446.6075	505.7023	585.7881	600.6916	676.1418	791.2684	824.1139	864.364	886.6185	915.7313	932.2197	946.4784	982.1722	991.7374	1024.1446	1030.8231	1075.2626	1093.3766	1108.8072	1119.9483	1128.8118	1155.2826	1187.0415	1208.3983	1221.4964	1249.4448	1281.2295	1282.7964	1295.937	1330.1342	1393.3989	1449.2797	1489.0839	1535.0954	3044.1782	3067.8522	3110.2196	3114.7581	3125.6812	3135.1549	3172.2339	3193.1834	3806.9069	3818.074
OC1C2C1C1(O)CC2C1	O[C@H]1[C@H]2[C@@H]1[C@]1(O)C[C@H]2C1	
InChI=1S/C7H10O2/c8-6-4-3-1-7(9,2-3)5(4)6/h3-6,8-9H,1-2H2	InChI=1S/C7H10O2/c8-6-4-3-1-7(9,2-3)5(4)6/h3-6,8-9H,1-2H2/t3-,4-,5+,6+,7-/m1/s1
