16
gdb 29203	3.0321	1.42812	0.98264	6.1877	75.26	-0.2499	-0.0672	0.1827	1160.666	0.123574	-437.954939	-437.946627	-437.945683	-437.988033	30.58	
C	-0.0341275058	 1.5475242843	-0.026811495	-0.502452
C	-0.0090537192	 0.044503904	-0.0031017858	 0.141314
C	-0.0307890353	-0.6895749437	-1.1376843958	 0.042129
O	-0.0098194295	-2.0191379821	-1.1556211199	-0.205887
C	 0.0383782207	-2.7579007301	 0.0668431776	 0.437055
O	 0.0545227351	-3.9473462164	-0.0348814469	-0.331769
N	 0.061304514	-2.0332973685	 1.2363479418	-0.375863
C	 0.0396336496	-0.729137812	 1.2163669876	 0.281034
C	 0.0675759345	-0.0257724743	 2.5437353094	-0.481122
H	 0.8543725782	 1.9776814482	 0.4487322718	 0.139037
H	-0.0700902433	 1.9165928086	-1.0555565678	 0.132098
H	-0.9069151901	 1.9491195675	 0.5000523373	 0.139048
H	-0.0672820616	-0.2641163412	-2.1368237255	 0.141254
H	 0.1026158625	-0.7598046666	 3.3480600552	 0.158098
H	 0.9391984679	 0.6351850616	 2.6133909523	 0.14303
H	-0.8184897977	 0.6079499406	 2.6649719139	 0.142995
66.0246	147.5239	193.9658	214.1472	286.0403	294.7627	352.4919	407.8734	472.8526	553.2439	575.4688	648.3054	700.9618	751.6443	796.4581	801.5374	937.59	997.1474	1025.4672	1046.4226	1077.2752	1084.9033	1195.5161	1277.4541	1322.2697	1394.0908	1428.1946	1433.1653	1461.1536	1474.5792	1489.3536	1497.8512	1563.3205	1703.8941	1875.2848	3030.853	3036.7198	3083.7501	3089.937	3112.2172	3162.043	3178.9705
CC1=COC(=O)N=C1C	Cc1coc(=O)nc1C	
InChI=1S/C6H7NO2/c1-4-3-9-6(8)7-5(4)2/h3H,1-2H3	InChI=1S/C6H7NO2/c1-4-3-9-6(8)7-5(4)2/h3H,1-2H3
