16
gdb 42455	2.32129	1.00906	0.74106	2.9544	77.71	-0.2499	0.0205	0.2703	1480.8307	0.12098	-400.709857	-400.699945	-400.699	-400.746351	34.932	
O	-0.5308867657	 1.2485890829	 2.3986679707	-0.377265
C	-0.1247555098	 1.2956403804	 1.2529050631	 0.440742
C	 1.3796000317	 1.4983860424	 0.9761431915	-0.481647
C	 1.7884797272	 1.5555211198	-0.4187122109	 0.284542
C	 2.0998122599	 1.5988858411	-1.5796570344	-0.424475
N	-0.9155750444	 1.1742376033	 0.1580052148	-0.323619
C	-2.3591840075	 1.0263358034	 0.2718954204	-0.292422
C	-3.080425996	 1.9471124561	-0.6011046275	 0.284886
C	-3.666517087	 2.6902650696	-1.3408226876	-0.440342
H	 1.6621845751	 2.4185816837	 1.4998146853	 0.168944
H	 1.8983711882	 0.686114457	 1.497682904	 0.167517
H	 2.3933776239	 1.6411333715	-2.5996179006	 0.206143
H	-0.4992412917	 1.2584883076	-0.7568767611	 0.263453
H	-2.6597464155	-0.0059585585	 0.045754524	 0.141426
H	-2.6023726991	 1.2053343523	 1.3242620466	 0.177516
H	-4.1927022794	 3.3543070775	-1.9811816283	 0.204602
29.9517	47.9222	78.7126	139.4338	213.2828	269.0753	326.6807	330.3841	355.1763	489.4467	493.615	544.6445	619.6075	624.5363	629.4351	650.5139	667.2843	675.4519	889.5218	947.3578	958.5437	987.3389	1043.8196	1100.3505	1216.7368	1243.4987	1263.0471	1303.3398	1375.69	1443.7795	1487.5755	1543.2653	1783.8855	2234.3223	2243.9229	3011.6569	3047.9565	3081.6462	3084.2895	3502.1666	3504.9464	3620.2076
O=C(CC#C)NCC#C	O=C(CC#C)NCC#C	
InChI=1S/C7H7NO/c1-3-5-7(9)8-6-4-2/h1-2H,5-6H2,(H,8,9)	InChI=1S/C7H7NO/c1-3-5-7(9)8-6-4-2/h1-2H,5-6H2,(H,8,9)
