18
gdb 17799	5.47152	1.21617	1.07251	0.0002	67.03	-0.2484	0.0649	0.3133	1092.8825	0.154516	-384.886824	-384.879003	-384.878059	-384.921274	26.986	
C	-0.0260215573	 1.3769557068	-0.2835588991	-0.089228
O	 1.2412197463	 1.6709069642	 0.3372178538	-0.269612
C	 1.5019259458	 0.2736237777	 0.5766003321	-0.089227
C	 0.1070328464	-0.1306784168	 0.041030209	-0.037655
C	-0.8679624388	-0.6857434878	 1.0609877334	-0.037648
C	-2.2628627451	-1.0900552587	 0.5254433037	-0.089228
O	-2.0022001824	-2.4873245401	 0.7649515569	-0.269612
C	-0.7349034708	-2.1933696546	 1.3856129393	-0.089228
H	-0.8564042614	 1.9018994896	 0.2066041323	 0.100221
H	-0.0282552529	 1.630313185	-1.3514050444	 0.100646
H	 2.3551674203	-0.0907576216	-0.0096551629	 0.100646
H	 1.6871392381	 0.0652047668	 1.6384942908	 0.100221
H	 0.1354158325	-0.7782572443	-0.840041994	 0.083982
H	-0.8963491433	-0.0381559965	 1.9420535202	 0.083985
H	-3.1161057695	-0.7255988486	 1.1116487848	 0.100648
H	-2.4480500292	-0.8817236524	-0.536473165	 0.100219
H	 0.0954330075	-2.7183309018	 0.8953884825	 0.100219
H	-0.7325778861	-2.446705667	 2.4534632966	 0.100648
32.817	44.369	72.839	179.1679	323.3295	329.4135	441.5888	749.2407	822.1709	854.4554	877.5985	893.5554	935.9867	977.7987	986.3569	1003.6817	1039.2485	1048.2275	1056.3106	1089.9148	1105.0432	1155.6588	1160.5118	1163.895	1165.2581	1242.8409	1259.4991	1259.6436	1301.3489	1311.6819	1313.3899	1377.4937	1383.5407	1416.8674	1512.4565	1513.2051	1538.2684	1538.8874	2999.3677	3002.6563	3010.4094	3012.733	3043.0066	3044.9959	3046.4097	3047.0799	3061.2729	3079.093
C1OCC1C1COC1	C1OCC1C1COC1	
InChI=1S/C6H10O2/c1-5(2-7-1)6-3-8-4-6/h5-6H,1-4H2	InChI=1S/C6H10O2/c1-5(2-7-1)6-3-8-4-6/h5-6H,1-4H2
