18
gdb 87650	2.62677	1.2542	1.0752	1.6011	73.17	-0.2396	-0.0346	0.2049	1188.1056	0.145533	-439.060075	-439.050898	-439.049954	-439.094147	33.738	
C	-0.1046066883	 1.4253056563	-0.162968175	-0.395628
C	 0.02756416	-0.0653926309	 0.0231598081	-0.065996
N	 1.3941709406	-0.6307749968	-0.0769964773	-0.395577
C	 0.6908981381	-0.6819863684	 1.1937432538	 0.282825
C	 1.1297638245	-0.0249884773	 2.5128543551	-0.419258
C	 0.2178548249	-1.05775195	 3.2031156055	 0.338335
O	-0.4220330485	-1.0696383201	 4.2150595978	-0.296207
C	 0.1719317436	-1.9390803558	 1.9371793367	-0.025313
O	-1.0061571188	-2.5882420748	 1.5650610306	-0.419873
H	 0.7473432054	 1.9482006239	 0.2793882596	 0.129326
H	-0.1369724552	 1.6788271359	-1.2276485705	 0.127103
H	-1.0242884876	 1.7998982018	 0.2999331828	 0.117325
H	-0.7738034018	-0.663806471	-0.4090141335	 0.097141
H	 1.3700134274	-1.5422872306	-0.5302225895	 0.235188
H	 2.1908977489	-0.1727077938	 2.7393691918	 0.139437
H	 0.869368829	 1.02188022	 2.6815371186	 0.137967
H	 0.9692595687	-2.6953465606	 1.9768275987	 0.118271
H	-1.7482740907	-2.1006344076	 1.9406943966	 0.294934
66.6057	134.9623	139.2757	189.1022	196.364	251.5376	279.7692	388.6625	419.3925	455.5381	533.5859	553.0581	623.5356	743.6278	752.1668	810.0877	855.1421	908.0861	966.6099	1019.664	1049.4686	1062.9089	1076.7054	1090.0138	1118.2116	1157.5543	1176.0875	1206.5618	1232.9291	1288.7068	1312.2864	1350.5384	1408.1348	1415.9188	1441.5957	1475.2297	1490.7906	1505.9633	1887.66	3013.7728	3035.2737	3058.9084	3098.4581	3110.524	3121.7924	3128.1236	3482.1114	3798.7628
CC1NC11CC(=O)C1O	C[C@H]1N[C@]21CC(=O)[C@H]2O	
InChI=1S/C6H9NO2/c1-3-6(7-3)2-4(8)5(6)9/h3,5,7,9H,2H2,1H3	InChI=1S/C6H9NO2/c1-3-6(7-3)2-4(8)5(6)9/h3,5,7,9H,2H2,1H3/t3-,5-,6+/m1/s1
