15
gdb 32147	2.88558	1.43248	0.96308	3.0266	72.82	-0.2264	-0.0347	0.1917	1153.491	0.114019	-454.002529	-453.994857	-453.993913	-454.034865	28.55	
C	-0.0466397216	 1.4219795268	 0.0411783409	-0.234373
O	-0.049312824	-0.0040872968	-0.0100299238	-0.257823
C	-1.2400613777	-0.6214166445	 0.0098988585	 0.414798
C	-1.2531824725	-2.0246450534	-0.0402489232	-0.101632
N	-2.4000521213	-2.6911706243	-0.0236820919	-0.218863
C	-3.5342171545	-1.9933900721	 0.04161497	-0.095773
C	-3.500876902	-0.5989487166	 0.0906837137	 0.398699
O	-4.6529999105	 0.0947709123	 0.1564667399	-0.411625
N	-2.3604607679	 0.0886638419	 0.0751271955	-0.439073
H	 1.0039943484	 1.712523238	 0.0143500128	 0.135892
H	-0.5788508164	 1.8477810171	-0.814542986	 0.134532
H	-0.5158516837	 1.7839093746	 0.9607778363	 0.13453
H	-0.3239753635	-2.581398617	-0.0932326091	 0.119971
H	-4.4765739301	-2.5292443755	 0.0556627675	 0.1212
H	-4.4119380627	 1.0308123394	 0.1816813791	 0.299539
110.1265	165.6022	210.7106	213.2241	258.1436	406.8007	478.6501	480.0918	525.1599	564.8788	630.9906	699.8997	734.1338	780.1514	875.0653	916.6699	1006.6603	1020.4517	1077.6769	1175.9407	1178.3017	1199.0486	1216.0595	1295.4183	1311.208	1384.2849	1456.4408	1476.6854	1481.7746	1501.0002	1526.5826	1591.8065	1639.5318	3040.7345	3110.5718	3151.5628	3188.02	3194.4698	3774.197
COC1=CN=CC(O)=N1	COc1cncc(O)n1	
InChI=1S/C5H6N2O2/c1-9-5-3-6-2-4(8)7-5/h2-3H,1H3,(H,7,8)	InChI=1S/C5H6N2O2/c1-9-5-3-6-2-4(8)7-5/h2-3H,1H3,(H,7,8)
