16
gdb 25495	4.282	0.95895	0.85476	1.8816	78.75	-0.2567	-0.0448	0.2119	1314.8839	0.125596	-400.816315	-400.808514	-400.80757	-400.85053	28.016	
O	 0.0083251616	-0.1508017023	-0.1427546675	-0.225272
C	 0.0247900632	 1.0502774241	-0.1302866795	 0.165046
C	 1.2947355589	 1.8945842187	-0.076381307	-0.386001
C	 1.3179738003	 2.9120295783	-1.1927726683	 0.280719
C	 1.828923185	 2.5871272238	-2.4509199896	-0.189096
C	 1.7967573121	 3.5414005772	-3.4627154771	 0.017979
N	 1.2949085241	 4.7705366718	-3.311601583	-0.266264
C	 0.8025375861	 5.0746440392	-2.1085880192	 0.018025
C	 0.7906351827	 4.1936749577	-1.0306182187	-0.201473
H	-0.9150234358	 1.6464727741	-0.1610621687	 0.086207
H	 1.3020449392	 2.4070816043	 0.8944572719	 0.132016
H	 2.1525709798	 1.2193622245	-0.119231954	 0.134021
H	 2.2498836014	 1.6050170292	-2.640542948	 0.108657
H	 2.1964786378	 3.3051727331	-4.4461032625	 0.114186
H	 0.3987697476	 6.0781629887	-1.995429158	 0.113021
H	 0.3838337359	 4.5106451375	-0.0753912308	 0.098227
26.852	55.9258	139.0784	285.7814	328.7855	389.9825	436.7787	535.82	584.0466	682.2978	767.9754	775.7734	837.0148	857.0956	897.7824	989.3229	1002.909	1009.1965	1015.121	1050.9462	1096.3917	1114.7172	1184.9855	1227.9974	1249.6898	1288.7361	1297.6904	1366.4835	1420.3609	1446.3275	1462.4498	1527.9646	1604.1906	1633.9403	1837.3777	2880.0645	3032.1572	3113.363	3153.0023	3155.8439	3181.0749	3186.8076
O=CCC1=CC=NC=C1	O=CCc1ccncc1	
InChI=1S/C7H7NO/c9-6-3-7-1-4-8-5-2-7/h1-2,4-6H,3H2	InChI=1S/C7H7NO/c9-6-3-7-1-4-8-5-2-7/h1-2,4-6H,3H2
