20
gdb 118628	2.2801	0.93317	0.69582	4.2445	79.73	-0.2538	-0.0388	0.215	1645.4691	0.167661	-440.293382	-440.282859	-440.281915	-440.330087	36.191	
C	-0.0967474794	 1.6156214408	 0.0181735148	-0.384925
C	-0.0790732727	 0.0854262499	 0.0315497079	-0.172927
C	 0.8221007185	-0.4820747481	 1.13368998	-0.199197
C	 0.867127743	-2.0136170093	 1.1470798073	 0.001238
O	 1.4433201155	-2.4459342578	-0.0699022791	-0.182628
C	 1.3697829564	-3.7654339697	-0.3630625121	 0.148281
N	 1.8942383757	-4.1935843214	-1.4255197747	-0.44501
C	 1.6343225353	-2.5263087253	 2.3616301735	 0.148979
O	 2.5373476432	-3.3167559468	 2.3157902138	-0.229975
H	 0.9066326173	 2.0213168257	-0.1506572952	 0.121775
H	-0.7458969453	 1.9949595047	-0.7765313004	 0.119239
H	-0.4623283363	 2.0198666254	 0.9688517862	 0.113271
H	-1.0996870332	-0.2957054275	 0.1706900654	 0.094179
H	 0.264999694	-0.2946608089	-0.93545027	 0.131732
H	 1.8469062057	-0.1112526336	 1.0095000649	 0.125646
H	 0.4749644374	-0.1385683312	 2.1164365506	 0.103185
H	-0.1650260617	-2.3970815612	 1.2465309934	 0.100244
H	 0.8173207134	-4.3527298524	 0.3802947622	 0.089866
H	 1.7419254327	-5.196451519	-1.5082007156	 0.230708
H	 1.2691797505	-2.1059633146	 3.3269807271	 0.086321
70.6611	74.3148	82.1635	105.3942	147.9482	192.123	207.4079	246.7558	290.9661	322.4833	362.0518	507.7128	572.4898	737.1458	748.7933	814.1768	846.826	863.2333	895.9431	993.4528	1009.626	1037.3343	1040.4609	1063.6485	1124.6206	1158.4458	1185.3647	1250.8033	1275.8607	1291.9151	1330.5461	1338.4868	1360.6506	1395.3365	1414.0882	1414.4835	1428.7377	1475.4145	1493.898	1499.8432	1510.3537	1749.1182	1843.8029	2869.2508	2945.2696	3020.0699	3027.8115	3032.0853	3045.4535	3065.8847	3081.9425	3103.5713	3107.4834	3521.1034
CCCC(OC=N)C=O	CCC[C@@H](O[CH][NH])C=O	
InChI=1S/C6H11NO2/c1-2-3-6(4-8)9-5-7/h4-7H,2-3H2,1H3	InChI=1S/C6H11NO2/c1-2-3-6(4-8)9-5-7/h4-7H,2-3H2,1H3/t6-/m1/s1
