21
gdb 108366	2.16088	1.58988	1.20211	2.9031	78.4	-0.2397	0.062	0.3017	1139.6899	0.181348	-424.190274	-424.180823	-424.179879	-424.224006	36.459	
C	-0.0416964861	 1.5330918778	 0.2133913289	-0.464826
C	 0.0929431064	 0.0274572302	 0.2288558293	 0.356641
O	-1.1315861199	-0.6252142512	-0.0612757933	-0.48179
C	 1.3047191472	-0.7463205406	-0.2307957715	-0.180169
C	 2.6082557785	-0.0483617384	 0.1671358915	-0.24174
C	 2.1434515877	-0.0568165671	 1.6610042044	-0.298739
C	 0.8493306452	-0.7766032048	 1.2515638632	 0.290544
C	 0.1440565343	-1.8587734438	 2.0345043992	-0.173442
O	-0.9619395526	-1.3659265182	 2.7800312713	-0.42787
H	 0.8908790174	 2.0415946101	 0.4648491959	 0.128007
H	-0.3443516533	 1.8794050455	-0.7832198187	 0.105448
H	-0.8073056662	 1.8498933742	 0.9285330637	 0.128941
H	-1.3845350721	-0.4043742899	-0.9640546332	 0.285282
H	 1.1967266656	-1.5228714652	-0.9806533485	 0.081315
H	 3.4851949776	-0.679699529	 0.0087117553	 0.106501
H	 2.8026093961	 0.9265235499	-0.291790368	 0.095694
H	 2.7800445665	-0.6903459764	 2.2835556262	 0.105661
H	 2.0343748876	 0.9110462616	 2.1599212971	 0.099268
H	-0.1689921617	-2.6633903377	 1.3555072395	 0.094944
H	 0.8333724976	-2.2957061866	 2.7655429968	 0.098991
H	-1.5979684957	-1.0595792705	 2.122936851	 0.29134
77.7501	129.4995	181.8724	223.8002	257.8963	264.8777	290.4771	330.5222	396.0228	430.5756	433.5961	493.4311	524.8723	650.2193	709.9519	763.7866	810.2663	885.0713	924.6548	936.9799	952.5902	965.6418	991.2133	1033.6349	1070.0432	1085.0993	1109.8682	1139.2183	1182.4866	1202.3134	1217.5387	1243.9922	1260.2871	1269.0041	1301.3248	1317.0763	1387.4946	1413.4211	1433.9404	1453.6635	1474.5971	1493.6053	1494.3562	1502.2353	1508.648	3007.6402	3024.1639	3045.7074	3053.152	3065.9643	3089.6835	3092.6974	3110.7988	3128.1727	3167.1468	3796.2311	3801.7014
CC1(O)C2CCC12CO	C[C@@]1(O)[C@H]2CC[C@@]12CO	
InChI=1S/C7H12O2/c1-6(9)5-2-3-7(5,6)4-8/h5,8-9H,2-4H2,1H3	InChI=1S/C7H12O2/c1-6(9)5-2-3-7(5,6)4-8/h5,8-9H,2-4H2,1H3/t5-,6-,7+/m1/s1
