17
gdb 83076	2.63019	1.46214	1.23279	2.8799	75.07	-0.2365	-0.0194	0.2171	1058.3426	0.135708	-421.830011	-421.822098	-421.821154	-421.862347	30.488	
O	 0.0248984511	 1.3180558661	-0.1086830797	-0.416136
C	-0.0349612762	-0.0548937216	 0.0500266128	 0.096597
C	-0.4408885217	-0.7235935036	 1.3127309388	-0.156369
C	-1.1712457834	 0.1273357319	 2.3531732556	-0.284434
C	-2.4367098175	 0.5737118657	 1.6492758638	-0.107249
C	-2.560010252	 0.0326899583	 0.4325746722	-0.158477
C	-1.3882554731	-0.8119956602	 0.0772421057	 0.166715
C	-1.5278885874	-2.0101392169	-0.7651582854	 0.071742
O	-2.5498576426	-2.349201536	-1.3143319355	-0.270853
H	-0.8308877218	 1.6855841289	 0.1532476276	 0.289594
H	 0.7467026781	-0.5362329772	-0.5304174706	 0.117754
H	 0.1081716768	-1.6017006624	 1.6342997923	 0.102065
H	-1.3996257235	-0.4478652268	 3.2581118091	 0.123869
H	-0.5536298016	 0.9785993367	 2.6689100237	 0.128009
H	-3.14688413	 1.2522308133	 2.1081397052	 0.109498
H	-3.3889153765	 0.1681812027	-0.2502015382	 0.125431
H	-0.5871159587	-2.5973681788	-0.8856199873	 0.062244
97.1263	190.4347	206.4567	220.119	271.2296	351.8724	408.3752	430.7044	571.1707	586.4753	684.3954	704.9638	760.2707	790.0751	812.1272	876.636	938.2251	957.5919	972.0922	1019.2856	1030.183	1049.8527	1081.5799	1097.2447	1149.4089	1187.8425	1208.7534	1271.7136	1309.4577	1335.2815	1350.9131	1398.6984	1435.7066	1450.9522	1475.3555	1660.7597	1800.9157	2852.2416	3025.2188	3057.4128	3158.5389	3172.942	3196.9754	3228.6407	3732.5581
OC1C2CC=CC12C=O	O[C@H]1[C@H]2CC=C[C@@]12C=O	
InChI=1S/C7H8O2/c8-4-7-3-1-2-5(7)6(7)9/h1,3-6,9H,2H2	InChI=1S/C7H8O2/c8-4-7-3-1-2-5(7)6(7)9/h1,3-6,9H,2H2/t5-,6+,7+/m1/s1
