17
gdb 80691	3.4158	1.13866	1.11268	3.2737	77.7	-0.2416	-0.0633	0.1783	1145.8707	0.135984	-421.832053	-421.824131	-421.823187	-421.864577	30.273	
O	 0.0015247271	 1.4163364222	 0.0697427746	-0.41836
C	-0.0653459678	 0.0312927147	 0.0005588948	 0.134092
C	-1.3460032672	-0.7402604924	 0.0146206881	-0.115835
C	-2.619151687	 0.0375068861	-0.3226772783	-0.331761
C	-2.3919648944	 0.5101025688	-1.7465973199	 0.180065
C	-3.3337107224	 1.3520463075	-2.4818872647	 0.069804
O	-4.3662568017	 1.7857705253	-2.017505056	-0.272279
C	-1.2360701263	 0.0295853168	-2.2517459418	-0.153108
C	-0.4653895398	-0.7430888704	-1.2607538271	-0.14539
H	-0.5844016881	 1.7899723277	-0.5998238977	 0.288538
H	 0.7673264643	-0.399795196	 0.5467011873	 0.116827
H	-1.4167275361	-1.6218644153	 0.641143323	 0.096781
H	-3.517492637	-0.5852649205	-0.2579170664	 0.129401
H	-2.7764501332	 0.8800449617	 0.3611777111	 0.136766
H	-3.0380494475	 1.5688992581	-3.5332257354	 0.067443
H	-0.8890086325	 0.2097364259	-3.2644480314	 0.117625
H	 0.1491895995	-1.5791965601	-1.5738905501	 0.09939
87.9963	179.5687	188.8002	206.6585	284.8666	335.5776	424.4333	469.1665	546.0028	609.3464	693.0555	735.6351	745.2174	800.7488	864.1109	899.156	925.6507	955.0668	973.2636	1016.2542	1039.0114	1057.6252	1064.1221	1102.3473	1181.1216	1192.7475	1219.1198	1272.2609	1319.8575	1330.3793	1351.7464	1369.2487	1419.201	1446.8728	1476.1638	1649.4375	1778.7165	2875.801	3043.4023	3075.7818	3167.0897	3172.142	3181.3047	3189.5192	3774.5462
OC1C2CC(C=O)=CC12	O[C@H]1[C@H]2CC(=C[C@@H]12)C=O	
InChI=1S/C7H8O2/c8-3-4-1-5-6(2-4)7(5)9/h1,3,5-7,9H,2H2	InChI=1S/C7H8O2/c8-3-4-1-5-6(2-4)7(5)9/h1,3,5-7,9H,2H2/t5-,6+,7-/m1/s1
