15
gdb 79313	4.04941	1.2369	1.14682	2.8243	71.06	-0.2489	0.003	0.2519	1051.7894	0.11479	-416.749967	-416.74301	-416.742066	-416.781409	27.386	
O	 0.0288450228	 1.4419836045	-0.0321322477	-0.442578
C	 0.0077324017	 0.0542284119	-0.0231044348	 0.210748
C	-1.3318590588	-0.6998882071	-0.0835215001	-0.186901
C	-1.6703096062	-0.8007964099	-1.5560701479	-0.092624
N	-0.6363978868	-0.0263635972	-2.2777951965	-0.339712
C	 0.3530772129	-0.6756582854	-1.3506045788	-0.171675
C	-0.694767459	-1.7976350142	-0.951348721	 0.279878
C	-0.6649937081	-3.2032467401	-0.8298121559	 0.11502
N	-0.6270855064	-4.3587404081	-0.7486326117	-0.360466
H	-0.3304802746	 1.699483491	-0.894826869	 0.291721
H	 0.6197022115	-0.3027786867	 0.8077443236	 0.108591
H	-2.0742203919	-0.8400920384	 0.6907180169	 0.120256
H	-2.6721863324	-0.9604436557	-1.9306456185	 0.127873
H	-0.5247037441	-0.4311149565	-3.2052330433	 0.236596
H	 1.3705355094	-0.8098005181	-1.7073846854	 0.103273
115.8318	150.7922	255.9968	335.0757	464.985	490.6765	530.3704	549.0713	613.9159	643.7523	748.1742	750.363	829.0907	862.9191	917.4416	931.3575	960.9195	992.2546	1017.8366	1024.3954	1048.3935	1101.9575	1118.988	1164.4433	1185.3806	1214.9715	1256.3537	1301.1759	1316.4271	1360.2646	1428.3507	1449.7891	2336.8673	3105.5701	3167.4545	3214.5234	3224.4455	3488.3375	3718.0877
OC1C2C3NC1C23C#N	O[C@H]1[C@H]2[C@H]3N[C@@H]1[C@@]23C#N	
InChI=1S/C6H6N2O/c7-1-6-2-3(9)5(6)8-4(2)6/h2-5,8-9H	InChI=1S/C6H6N2O/c7-1-6-2-3(9)5(6)8-4(2)6/h2-5,8-9H/t2-,3-,4+,5-,6-/m0/s1
