15
gdb 14929	4.68872	1.47764	1.19579	2.5116	61.37	-0.2834	0.0212	0.3046	951.9204	0.121182	-399.810684	-399.803837	-399.802893	-399.841872	25.403	
N	 0.0210050317	-1.1538869055	 0.001272785	-0.313466
C	 0.0019161273	 0.0018530584	 0.0016121893	 0.259698
C	-0.0074953726	 1.4595041896	 0.0267633176	-0.172002
C	-0.7224096995	 2.0022063737	 1.2885823583	-0.092142
O	-0.6306142905	 3.4120427323	 1.3143836606	-0.229581
C	 0.7062096533	 3.8420028921	 1.2888175852	 0.010347
O	 1.372768714	 3.445729611	 0.1177992804	-0.22958
C	 1.4285327205	 2.0383701672	 0.0039217379	-0.09215
H	-0.5407973626	 1.8295488488	-0.855758712	 0.143334
H	-1.7834731086	 1.7461074352	 1.2826028657	 0.137617
H	-0.2605413333	 1.5623445488	 2.1870295223	 0.112267
H	 0.692545249	 4.9324957182	 1.2966453251	 0.130045
H	 1.2421445863	 3.4526682693	 2.1751427622	 0.085734
H	 2.0114422532	 1.6005797424	 0.8300936627	 0.112267
H	 1.9324091418	 1.8085796886	-0.9367062203	 0.137614
123.2451	152.0631	264.833	289.9098	409.2512	445.1462	465.3872	527.8551	539.555	651.8977	892.6232	916.9344	966.2875	968.8088	1018.8157	1057.9816	1089.2071	1095.612	1179.7197	1211.8763	1232.7346	1289.3652	1312.5112	1322.3177	1342.2287	1376.1933	1419.3866	1443.1917	1496.259	1496.6288	1513.0628	2357.5771	2929.7064	2982.4459	2988.8279	3062.2854	3114.7495	3116.1815	3130.2577
N#CC1COCOC1	N#CC1COCOC1	
InChI=1S/C5H7NO2/c6-1-5-2-7-4-8-3-5/h5H,2-4H2	InChI=1S/C5H7NO2/c6-1-5-2-7-4-8-3-5/h5H,2-4H2
