17
gdb 51180	4.09123	1.01935	0.91306	2.9848	68.73	-0.2572	-0.0329	0.2243	1262.1858	0.13458	-458.950536	-458.942256	-458.941312	-458.984556	29.809	
O	-0.3911025688	 0.1715460087	 0.2322320291	-0.23461
C	-0.0008636342	 1.3063818955	 0.1486155566	 0.157901
C	 1.4105177428	 1.6996938907	-0.2585752779	-0.3816
C	 1.4118141538	 2.7532756595	-1.3388479587	 0.37116
C	 0.9603964248	 2.4356627628	-2.7553758327	-0.133916
O	 1.3750059151	 3.5358104275	-3.5532967057	-0.252879
C	 2.4723433767	 4.1953880954	-2.931084512	-0.101904
C	 2.3569312129	 3.8684956702	-1.459983249	-0.054838
O	 1.0362714821	 4.0851919121	-0.9470394847	-0.288532
H	-0.6645019264	 2.1684632688	 0.3797155824	 0.101121
H	 1.9027927004	 2.1132075876	 0.6309022833	 0.135353
H	 1.9491475971	 0.8004677815	-0.5716062961	 0.128595
H	 1.4263631129	 1.4919473276	-3.0837703543	 0.100827
H	-0.1260157681	 2.3394201196	-2.8564348348	 0.124796
H	 3.4410910514	 3.8331829012	-3.3131298329	 0.098539
H	 2.3872647272	 5.2643957978	-3.1505183915	 0.125217
H	 3.1817659004	 4.0390962335	-0.7733045911	 0.10477
49.1387	67.3363	147.8308	207.5372	273.772	302.6394	391.378	448.68	475.4289	633.2841	701.4678	770.1097	819.0232	887.7128	905.2503	930.0395	963.1115	995.3911	1027.1286	1039.3088	1090.7732	1114.6542	1121.0567	1174.9193	1221.6032	1243.9941	1255.0375	1287.1797	1317.5464	1359.6696	1381.2547	1422.2941	1443.1646	1471.3207	1499.0456	1510.4898	1836.1421	2897.1827	2971.7828	2978.6593	3034.3278	3068.9483	3077.9057	3103.9473	3155.3312
O=CCC12COCC1O2	O=CC[C@]12COC[C@H]1O2	
InChI=1S/C6H8O3/c7-2-1-6-4-8-3-5(6)9-6/h2,5H,1,3-4H2	InChI=1S/C6H8O3/c7-2-1-6-4-8-3-5(6)9-6/h2,5H,1,3-4H2/t5-,6+/m1/s1
