18
gdb 117103	2.48324	1.04712	0.82515	3.2433	74.16	-0.2614	-0.0053	0.2561	1429.7416	0.147133	-435.305213	-435.294896	-435.293952	-435.342195	35.664	
C	-0.5882906859	 1.1008208556	-0.3670876044	-0.374188
C	 0.5231259067	 0.1574345045	 0.0957056177	-0.154982
N	 1.1524275318	-0.5605765777	-1.0077739361	-0.30864
C	 0.8974573431	-1.8615395613	-1.2773754506	 0.438479
O	 0.2126173116	-2.5952092894	-0.5930148365	-0.365572
C	 1.5646148142	-2.3935266254	-2.5819008564	-0.204654
N	 1.6317930127	-3.8416077816	-2.5030930418	-0.508925
C	 0.8032310539	-1.8726809074	-3.7368711426	 0.246495
N	 0.2195663171	-1.4852928132	-4.6573364314	-0.320089
H	-0.2069097835	 1.8571380845	-1.0613319958	 0.119033
H	-1.3834338287	 0.5451098207	-0.8716279831	 0.142525
H	-1.0220448227	 1.6222715964	 0.4916296418	 0.126352
H	 1.2979684805	 0.7119784733	 0.6368434413	 0.115025
H	 0.1281966408	-0.6061062911	 0.7682791236	 0.155736
H	 1.679564446	-0.0269849951	-1.6819057502	 0.255551
H	 2.5770121231	-1.9721619031	-2.6510439978	 0.133482
H	 0.8143144075	-4.1597152914	-1.9873680699	 0.258953
H	 1.6250451919	-4.2596015584	-3.4259951977	 0.24542
29.7917	45.5592	69.8783	156.8445	192.681	233.1011	255.4172	274.7336	351.5967	364.2468	428.7514	472.6618	491.6472	594.3114	664.4846	752.4986	808.8656	858.2346	903.1254	917.28	960.4233	1057.952	1114.2599	1146.8075	1173.2576	1198.925	1263.5998	1316.1673	1326.7649	1374.5562	1394.4184	1414.8634	1484.3966	1492.9379	1501.7387	1556.8914	1627.6256	1803.5142	2339.8139	3012.4651	3039.023	3046.1983	3103.2516	3122.0476	3133.6419	3492.1473	3596.3552	3624.1085
CCNC(=O)C(N)C#N	CCNC(=O)[C@@H](N)C#N	
InChI=1S/C5H9N3O/c1-2-8-5(9)4(7)3-6/h4H,2,7H2,1H3,(H,8,9)	InChI=1S/C5H9N3O/c1-2-8-5(9)4(7)3-6/h4H,2,7H2,1H3,(H,8,9)/t4-/m0/s1
