19
gdb 35814	2.85975	1.48392	1.14688	3.1718	78.7	-0.2276	0.0342	0.2618	1092.1384	0.162544	-382.074136	-382.066482	-382.065538	-382.106581	29.648	
N	-0.0252485744	-1.1588762374	 0.0816207886	-0.334839
C	-0.0395505792	-0.0025524936	 0.1015965505	 0.272323
C	-0.029501437	 1.4529923472	 0.137535094	-0.16242
C	-0.5351282576	 2.0599272676	 1.4718489517	-0.236089
C	 0.1452613703	 3.4459865145	 1.4709746201	-0.186484
N	 1.4635757258	 3.2540376844	 0.8681951553	-0.081848
C	 2.4779237266	 2.5602239172	 1.7138893632	-0.169931
C	 2.5899529126	 1.4214411595	 0.6707159925	-0.254718
C	 1.3936693707	 2.0814088934	-0.0542962311	 0.016955
H	-0.6698667316	 1.8092556904	-0.67741932	 0.126294
H	-1.6254112297	 2.1037798606	 1.5191680593	 0.118257
H	-0.1897243806	 1.4534095582	 2.3145246608	 0.124981
H	-0.4335628486	 4.1515841061	 0.8613354661	 0.107534
H	 0.2401725278	 3.8771556081	 2.4714286243	 0.113947
H	 3.3765549855	 3.1619765326	 1.8789323187	 0.109346
H	 2.0965777883	 2.2348250256	 2.6904633697	 0.098206
H	 3.5112809858	 1.4321393602	 0.0866576019	 0.117061
H	 2.421461652	 0.4085178378	 1.0398690722	 0.131263
H	 1.5505042236	 2.3261744075	-1.1082082176	 0.090162
70.9542	146.5421	179.7903	241.1399	359.2558	377.0294	492.6054	540.8311	593.7227	637.0153	697.6406	761.7041	805.3098	851.6315	907.3255	926.84	945.8289	979.7613	1006.53	1023.0172	1051.2906	1065.6637	1100.0048	1144.4386	1191.0244	1202.3088	1219.2322	1243.8479	1260.5725	1270.9133	1286.4582	1297.2912	1326.4025	1347.0088	1355.2312	1364.5915	1490.3003	1492.2257	1498.7381	1523.9472	2351.6542	3016.9178	3025.1451	3041.532	3062.6664	3065.3868	3073.1048	3085.0744	3095.5668	3117.8634	3137.8059
N#CC1CCN2CCC12	N#C[C@H]1CCN2CC[C@@H]12	
InChI=1S/C7H10N2/c8-5-6-1-3-9-4-2-7(6)9/h6-7H,1-4H2	InChI=1S/C7H10N2/c8-5-6-1-3-9-4-2-7(6)9/h6-7H,1-4H2/t6-,7+/m1/s1
