18
gdb 120431	2.4244	0.84479	0.64722	2.9609	82.11	-0.233	-0.0746	0.1584	1732.1715	0.144738	-439.115341	-439.104766	-439.103822	-439.153976	35.335	
C	 1.1164156095	 1.3542332509	 0.0472499839	-0.303029
N	 0.0788570431	 0.7098922775	-0.7614465503	-0.498492
H	 0.1182910041	 1.0572068542	-1.7146967296	 0.225959
H	 0.2480305746	-0.2905743799	-0.8160029593	 0.251548
C	-2.6222380093	-0.9949073814	 0.3104306403	-0.428073
C	-2.0979649036	-2.2060568817	 0.1188409726	 0.398888
O	-0.8245629461	-2.3804817084	-0.3875647918	-0.24444
C	-0.5535409022	-3.7465731669	-0.4762677319	 0.408704
O	 0.4924034218	-4.1550297806	-0.8890932603	-0.332854
C	-1.7558868505	-4.4472279268	 0.0149830546	-0.245798
C	-2.6640128866	-3.5231911325	 0.3645455902	-0.154131
H	 0.9161435647	 2.4289449806	 0.1095421669	 0.118824
H	 1.0780661227	 0.9556192263	 1.0659295104	 0.124518
H	 2.1458147105	 1.2254168277	-0.3229761039	 0.100497
H	-2.0546922962	-0.1002310385	 0.0712739872	 0.173774
H	-3.6250781126	-0.9092280016	 0.7097257175	 0.124409
H	-1.8205476422	-5.5234807272	 0.0566759981	 0.141464
H	-3.6570528017	-3.6758228418	 0.7636733353	 0.138231
25.5617	40.0859	65.8128	77.8505	114.1269	141.875	170.5773	294.1145	338.1098	385.1175	521.7052	618.5708	647.9237	737.734	738.7146	772.5638	848.8706	887.4999	893.2595	926.0447	960.195	963.727	987.2304	1000.8664	1064.8145	1084.2019	1118.3705	1184.1318	1307.1269	1349.4767	1358.2968	1444.335	1460.8021	1498.1676	1518.603	1615.0115	1672.5815	1715.7221	1876.6984	2977.0039	3063.6066	3101.6937	3140.2857	3236.9868	3255.0136	3268.0248	3493.4281	3570.3117
C[NH2+]C[C-]1OC(=O)C=C1	CN.C=C1OC(=O)C=C1	
InChI=1S/C6H8NO2/c1-7-4-5-2-3-6(8)9-5/h2-3,7H,4H2,1H3/q-1/p+1	InChI=1S/C5H4O2.CH5N/c1-4-2-3-5(6)7-4;1-2/h2-3H,1H2;2H2,1H3
