15
gdb 74787	3.24652	1.4897	1.4709	4.98	65.9	-0.2377	-0.0062	0.2315	936.6481	0.115738	-453.98764	-453.980899	-453.979954	-454.018595	27.087	
N	 0.0138156813	 1.3216659159	 0.1056835633	-0.611097
C	-0.0258726414	-0.0362657952	 0.0485398696	 0.424694
N	-1.0864717176	-0.7651902595	 0.0397442593	-0.28069
C	-0.5587707822	-2.1629519788	 0.0072361656	-0.133375
C	 0.7251692399	-2.0733040265	 0.8675823332	-0.242502
C	 1.2272238976	-0.9134137386	-0.0057707138	-0.01088
O	 1.2137000992	-1.5051625731	-1.3368947198	-0.249153
C	 0.0941442919	-2.31663521	-1.3746427903	 0.462158
O	-0.2196474754	-2.9465650913	-2.3372100624	-0.34228
H	 0.8374091788	 1.785114604	-0.2414027754	 0.266372
H	-0.8579626783	 1.7999366809	-0.0703456647	 0.269519
H	-1.3130734628	-2.9102954255	 0.2339044843	 0.101782
H	 0.5149227608	-1.7930211098	 1.9009737213	 0.125065
H	 1.3815156304	-2.9465170488	 0.8230934568	 0.123014
H	 2.2061430278	-0.4724520735	 0.1720613531	 0.097372
134.8024	222.2829	346.8588	376.9693	404.191	464.7456	499.6554	523.9721	602.0993	684.6601	741.8223	771.519	779.3447	860.7511	887.7026	929.7128	940.6063	950.9405	996.1704	1025.5039	1082.5648	1129.7242	1148.7885	1199.7847	1262.7516	1276.5183	1281.8608	1321.764	1434.7372	1484.3392	1624.0304	1702.4142	1903.536	3071.1101	3138.9117	3144.4069	3173.1299	3579.019	3699.3682
NC1=NC2CC1OC2=O	N[C]1[N][C@@H]2C[C@H]1OC2=O	
InChI=1S/C5H6N2O2/c6-4-3-1-2(7-4)5(8)9-3/h2-3H,1H2,(H2,6,7)	InChI=1S/C5H6N2O2/c6-4-3-1-2(7-4)5(8)9-3/h2-3H,1H2,(H2,6,7)/t2-,3-/m1/s1
