16
gdb 126087	3.20021	1.54883	1.1105	2.0891	70.58	-0.2465	-0.0167	0.2298	1055.1986	0.125618	-437.869066	-437.861714	-437.86077	-437.901222	27.534	
C	 0.0925725142	 1.5749778986	-0.1359260526	-0.385298
C	-0.0616830964	 0.07318121	 0.0768037341	 0.007947
O	 0.5240653661	-0.6311096329	-1.0567763059	-0.296058
C	 1.4776020398	-1.6276455533	-0.671114416	-0.189267
C	 1.5356854164	-1.4468063099	 0.8068665331	 0.345791
C	 0.6778817219	-0.5028277674	 1.245213725	 0.146782
C	 0.8876648106	-0.5133874479	 2.6464651071	-0.138199
N	 1.8015016182	-1.3953543787	 2.9947164661	-0.138104
O	 2.2254817573	-2.0070098916	 1.793688199	-0.220725
H	 1.1496614384	 1.8535201211	-0.1567951581	 0.124362
H	-0.3670635913	 1.867024974	-1.0838588255	 0.131474
H	-0.4006960497	 2.1262542524	 0.6715236578	 0.11736
H	-1.1317594298	-0.1800242729	 0.1075270414	 0.096425
H	 1.1292122228	-2.6284857655	-0.965213076	 0.128056
H	 2.4364484077	-1.44295862	-1.1737721859	 0.131302
H	 0.4259626537	 0.0733385941	 3.4283342463	 0.138151
81.3524	154.7737	217.8269	229.8524	302.3734	446.4102	458.6184	590.5548	631.0257	663.0926	716.7135	782.0879	848.777	860.7808	908.3176	968.1756	1010.7741	1040.3908	1049.2283	1077.2174	1114.3446	1158.4215	1183.9308	1206.2289	1299.2963	1320.8633	1371.88	1401.5736	1408.2378	1425.1326	1485.8277	1492.6567	1516.178	1518.5716	1656.656	2989.6472	2997.3709	3028.6669	3040.8893	3114.7882	3128.168	3242.3066
CC1OCC2=C1C=NO2	C[C@H]1OCc2c1cno2	
InChI=1S/C6H7NO2/c1-4-5-2-7-9-6(5)3-8-4/h2,4H,3H2,1H3	InChI=1S/C6H7NO2/c1-4-5-2-7-9-6(5)3-8-4/h2,4H,3H2,1H3/t4-/m1/s1
