17
gdb 6067	5.1081	0.98898	0.84142	2.1122	66.77	-0.2415	-0.0285	0.2131	1340.4757	0.138702	-401.061937	-401.051947	-401.051003	-401.101291	32.51	
C	 0.0498725022	 1.4667405044	-0.0226918129	-0.476729
C	 0.093210369	-0.0442861804	 0.0264618855	 0.366111
O	 0.1928031275	-0.6617436614	 1.0638733741	-0.298438
C	 0.0045998527	-0.7674429874	-1.3105569246	-0.226377
N	 0.0581138951	-2.1888083253	-1.1057191176	-0.322228
C	-0.0077477332	-3.0647283159	-2.1454925656	 0.410622
C	 0.0594034394	-4.5351230822	-1.7648244496	-0.482269
O	-0.1135805254	-2.6884608819	-3.300555158	-0.380511
H	 0.8740236181	 1.8510467191	-0.6336859441	 0.148887
H	-0.8795561655	 1.8053797646	-0.4935457123	 0.148879
H	 0.12006775	 1.8717108408	 0.9870636286	 0.150096
H	-0.9204887211	-0.4676693872	-1.8236605796	 0.142877
H	 0.8192036852	-0.4219643157	-1.9632935731	 0.142718
H	 0.1439168237	-2.4858538323	-0.1451173594	 0.257746
H	-0.8456319675	-5.0328065447	-2.123136432	 0.15133
H	 0.9081790091	-4.9930757756	-2.2794986278	 0.151357
H	 0.1588978707	-4.7051691988	-0.6899173814	 0.115929
7.4186	24.1393	27.533	96.9242	127.9874	186.6077	276.8277	319.8869	459.7122	460.0785	510.2073	599.7772	623.4579	645.9008	820.1137	854.3612	934.713	998.3609	1010.5733	1053.8005	1088.6633	1161.5819	1197.6644	1238.0208	1261.5292	1364.0582	1388.5211	1397.14	1461.0691	1471.405	1474.534	1477.7948	1490.4761	1525.2554	1771.9441	1809.4075	3010.5184	3026.6621	3041.6224	3051.1095	3102.0665	3127.6882	3131.8659	3157.8265	3616.5295
CC(=O)CNC(C)=O	CC(=O)CNC(=O)C	
InChI=1S/C5H9NO2/c1-4(7)3-6-5(2)8/h3H2,1-2H3,(H,6,8)	InChI=1S/C5H9NO2/c1-4(7)3-6-5(2)8/h3H2,1-2H3,(H,6,8)
