20
gdb 5969	3.14465	1.26962	1.14197	1.3856	77.86	-0.2493	0.048	0.2973	1179.9419	0.172446	-348.967549	-348.95731	-348.956366	-349.003349	36.948	
C	-0.1660108486	 1.561262675	 0.0122074132	-0.379342
C	 0.0225835234	 0.0519296195	 0.0017381053	-0.042156
O	-1.2693434199	-0.5317504092	 0.0113410028	-0.286732
C	-1.3631119066	-1.9630440301	 0.0045695952	 0.180771
C	-0.7490406754	-2.5675955806	-1.2755228472	-0.415974
C	-0.7248433506	-2.5811322643	 1.2662333666	-0.415951
C	-2.8075769822	-2.2398668332	 0.0168485089	 0.348012
C	-3.9783998305	-2.5074803575	 0.0265986526	-0.476334
H	 0.8047286441	 2.066345086	 0.0053080467	 0.11135
H	-0.7332652453	 1.8817400805	-0.8660084885	 0.127309
H	-0.7154507166	 1.8716889968	 0.9052345543	 0.127302
H	 0.5889300786	-0.2495171898	-0.8917431315	 0.088888
H	 0.6066734903	-0.2595903624	 0.8802152902	 0.088877
H	 0.3379504683	-2.4485118764	-1.2852025937	 0.115365
H	-0.9726711831	-3.6359937569	-1.3289984597	 0.127468
H	-1.1693955671	-2.0793287037	-2.1579087966	 0.132023
H	-1.1283063699	-2.1023417032	 2.1616000112	 0.132023
H	-0.9474854741	-3.6500708433	 1.3125735366	 0.127463
H	 0.3621438709	-2.4620144777	 1.2565096557	 0.115361
H	-5.0167314255	-2.7299886495	 0.035278438	 0.194278
16.8967	94.9603	128.085	177.8713	238.3814	252.5759	254.842	261.9734	322.834	382.7272	388.3349	460.5224	559.5717	560.2676	622.4696	661.5428	722.0447	824.5242	846.4968	916.5484	940.5321	979.5853	1012.5143	1093.1135	1139.4483	1172.5151	1186.3082	1186.4285	1265.931	1299.2141	1387.3081	1397.0469	1406.1801	1424.8013	1477.869	1481.9171	1484.8851	1495.4357	1500.4889	1502.9202	1530.6474	2241.396	2984.7482	3014.5708	3044.2723	3046.2491	3050.3197	3118.3281	3118.7702	3123.6911	3124.4835	3132.136	3134.188	3503.1577
CCOC(C)(C)C#C	CCOC(C)(C)C#C	
InChI=1S/C7H12O/c1-5-7(3,4)8-6-2/h1H,6H2,2-4H3	InChI=1S/C7H12O/c1-5-7(3,4)8-6-2/h1H,6H2,2-4H3
