15
gdb 13842	4.16841	1.64755	1.3146	1.5896	61.75	-0.2434	-0.0222	0.2213	916.7889	0.118761	-399.831966	-399.824324	-399.82338	-399.865189	26.531	
C	-0.9170233268	 0.8467159109	 0.24590441	-0.471676
C	 0.3834252307	 0.1333321065	-0.0391292575	 0.379707
O	 1.2910663421	 0.0715955625	 0.7564111113	-0.292377
C	 0.5033694741	-0.5153400727	-1.4342867387	-0.097552
C	 1.7453036327	-1.4197413093	-1.5895016393	-0.124829
O	 1.1850337964	-2.7305107081	-1.8684818531	-0.214625
C	-0.1497239874	-2.5555401966	-1.8887367187	 0.132206
N	-0.6504774197	-1.4056614616	-1.689191065	-0.284161
H	-1.072066327	 1.6497240783	-0.4840590242	 0.139212
H	-1.7503040574	 0.1491780465	 0.1223517866	 0.168308
H	-0.9019925302	 1.2608030801	 1.2543864255	 0.138903
H	 0.4867717673	 0.3038203498	-2.165383635	 0.10746
H	 2.3906398831	-1.1441352027	-2.4258617832	 0.121371
H	 2.327147867	-1.4692910359	-0.6672458833	 0.150182
H	-0.7199792051	-3.4565625676	-2.0864367754	 0.147872
37.9215	83.7975	121.4682	222.7757	296.4352	376.7796	509.0076	532.9509	597.9372	731.1804	783.4543	894.1447	945.3592	953.9954	964.7217	967.186	1002.2592	1058.1068	1091.9365	1153.032	1201.4249	1214.7956	1258.4852	1311.995	1345.8816	1372.9255	1381.9596	1462.7114	1467.8786	1518.0369	1694.7885	1816.0718	3017.4594	3043.5858	3076.5008	3110.4966	3133.4374	3159.8878	3217.0848
CC(=O)C1COC=N1	CC(=O)[C@H]1COC=N1	
InChI=1S/C5H7NO2/c1-4(7)5-2-8-3-6-5/h3,5H,2H2,1H3	InChI=1S/C5H7NO2/c1-4(7)5-2-8-3-6-5/h3,5H,2H2,1H3/t5-/m1/s1
