19
gdb 35327	5.44939	0.87291	0.86317	1.8723	82.79	-0.2416	0.0514	0.293	1388.1556	0.158261	-385.830376	-385.821776	-385.820832	-385.864182	32.675	
C	-0.8035541696	-0.7649973136	-1.1677154679	-0.44513
C	-0.3474483496	 0.1768812407	-0.5746095005	 0.312879
C	 0.2110184695	 1.2950840781	 0.1544482369	-0.167666
C	-0.0539053751	 1.3996816186	 1.6927272457	-0.301285
C	 1.4010591409	 1.8852053036	 1.8657685042	 0.45704
C	 1.7082143315	 3.3649976069	 2.1904860468	-0.345807
C	 2.4839045405	 2.7887961122	 3.3902075335	-0.081307
O	 2.1456672865	 1.438436067	 3.0083992108	-0.315185
C	 1.7408908501	 1.2930174299	 0.4814193751	-0.301276
H	-1.2073566279	-1.5943852753	-1.6931699635	 0.192726
H	-0.0648427346	 2.2339846746	-0.3369462028	 0.102227
H	-0.8638937042	 2.051544307	 2.0284866504	 0.103048
H	-0.1741485044	 0.4076844098	 2.1348797821	 0.126155
H	 2.3130673264	 3.8879432085	 1.447113778	 0.112065
H	 0.8388449267	 3.9754392757	 2.4424381456	 0.112067
H	 3.5674037002	 2.9554776947	 3.3843024876	 0.10512
H	 2.0907479196	 3.043448367	 4.3813491933	 0.105124
H	 2.113707921	 0.2717173531	 0.5908159499	 0.126153
H	 2.4049468723	 1.8572622018	-0.1776683852	 0.103048
60.685	65.0593	149.6413	212.5374	273.9686	371.6892	387.6578	434.4199	530.9061	541.5462	619.6253	621.0115	676.6466	782.8511	824.1568	850.0861	866.162	905.941	943.5274	973.4781	985.4037	1026.4511	1030.7392	1048.0335	1124.461	1158.0219	1174.8781	1186.4571	1217.1352	1222.9534	1237.5571	1246.5694	1259.0359	1309.9417	1357.5264	1363.16	1463.592	1484.0064	1492.6183	1531.8657	2234.3121	3021.9379	3048.7794	3061.9618	3062.4202	3066.9289	3072.7083	3124.4239	3128.5029	3128.8824	3505.5258
C#CC1CC2(CCO2)C1	C#C[C@H]1C[C@]2(CCO2)C1	
InChI=1S/C8H10O/c1-2-7-5-8(6-7)3-4-9-8/h1,7H,3-6H2	InChI=1S/C8H10O/c1-2-7-5-8(6-7)3-4-9-8/h1,7H,3-6H2/t7-,8+
