17
gdb 40412	3.68236	1.29603	1.14525	0.5516	72.26	-0.2487	-0.0011	0.2475	1087.7616	0.135948	-421.787025	-421.779609	-421.778665	-421.819188	28.775	
C	-0.0470290081	 1.4479994816	-0.0361813963	-0.185852
O	 1.161501312	 0.6908280972	-0.1384773674	-0.234217
C	-0.0683395384	-0.0199598916	 0.0235901475	-0.014712
C	-0.2449829875	-0.7683951895	 1.3023641506	 0.425192
C	 0.2724542873	-0.21876071	 2.6304031239	-0.352779
C	 0.5184119913	-1.4694673129	 3.4485058064	-0.07932
C	 0.2682704985	-2.5857002937	 2.7593749008	-0.074883
C	-0.2303884194	-2.2437908485	 1.3952302656	-0.078616
O	-1.4737474128	-1.4978697606	 1.4044268986	-0.308149
H	-0.1580381601	 2.0279649863	 0.8783278534	 0.117682
H	-0.3626782381	 1.9509499629	-0.9486606781	 0.121286
H	-0.405489174	-0.5647644356	-0.8582781478	 0.097414
H	 1.1911896937	 0.3589334618	 2.472752814	 0.134016
H	-0.458563805	 0.4453614945	 3.1066799788	 0.123389
H	 0.8336119666	-1.4273028427	 4.4848970005	 0.105045
H	 0.3743663282	-3.60079069	 3.1203444296	 0.104764
H	-0.0998937042	-2.9003335492	 0.5398952599	 0.099739
72.3023	159.8884	187.9995	305.1122	367.461	380.9008	491.1405	547.011	603.1005	720.6182	740.1743	808.1492	860.2622	877.7277	892.1984	919.8514	943.3206	952.7799	978.2748	999.5792	1014.7931	1064.9322	1098.5463	1136.9655	1152.9307	1170.6332	1184.6331	1237.0309	1257.2368	1283.1148	1333.4734	1363.7157	1385.1888	1454.7563	1473.3251	1528.6297	1662.828	3035.0944	3072.5533	3088.6794	3113.8536	3159.1405	3177.0257	3194.2862	3222.9838
C1OC1C12CC=CC1O2	C1O[C@H]1[C@]12CC=C[C@H]1O2	
InChI=1S/C7H8O2/c1-2-5-7(3-1,9-5)6-4-8-6/h1-2,5-6H,3-4H2	InChI=1S/C7H8O2/c1-2-5-7(3-1,9-5)6-4-8-6/h1-2,5-6H,3-4H2/t5-,6-,7+/m1/s1
