17
gdb 24664	4.37263	1.12092	0.94841	1.6412	82.97	-0.239	-0.0074	0.2316	1221.2382	0.13843	-384.735	-384.727789	-384.726845	-384.767127	27.937	
C	 0.1815066906	 1.5100338799	 0.0129413853	-0.178569
O	 1.1800650247	 0.5170932866	-0.2062102303	-0.229504
C	-0.1614874561	 0.0744365116	 0.0137433209	-0.017237
C	-0.4439365747	-0.6762027641	 1.2688999315	 0.310314
C	 0.4598371169	-0.6601351724	 2.3346618266	-0.201822
C	 0.1716859677	-1.3475032242	 3.509228247	-0.093025
C	-1.0205603574	-2.0589341869	 3.6327343802	-0.119119
C	-1.9208742074	-2.0858593486	 2.5703038249	-0.092701
C	-1.6308714324	-1.4021002953	 1.3929378147	-0.204447
H	 0.2437678808	 2.0345017574	 0.9652401122	 0.118192
H	-0.0657234561	 2.1262757484	-0.8507747619	 0.119023
H	-0.6527692406	-0.3160850878	-0.8784180128	 0.096456
H	 1.39464685	-0.1228946046	 2.2198777579	 0.112007
H	 0.8826611014	-1.3330921905	 4.3289867827	 0.097542
H	-1.2429579163	-2.5956389578	 4.5489667163	 0.096577
H	-2.847118973	-2.6447091459	 2.6549928844	 0.096738
H	-2.3315179281	-1.4304788858	 0.5631905505	 0.089574
67.2243	148.6287	196.6426	337.5411	397.9901	416.4208	546.2117	583.3132	628.8649	719.3181	763.0168	780.659	861.8418	872.4315	909.9351	929.5482	962.3243	992.5488	1005.7614	1013.6938	1049.8499	1092.2707	1102.8062	1150.4078	1169.8559	1182.2246	1198.4187	1222.6844	1284.7653	1332.4061	1348.6945	1418.1955	1484.141	1521.7574	1528.7489	1625.4042	1646.6276	3080.6742	3101.7336	3162.7023	3172.6308	3173.037	3183.1277	3194.9295	3201.8149
C1OC1C1=CC=CC=C1	C1O[C@H]1c1ccccc1	
InChI=1S/C8H8O/c1-2-4-7(5-3-1)8-6-9-8/h1-5,8H,6H2	InChI=1S/C8H8O/c1-2-4-7(5-3-1)8-6-9-8/h1-5,8H,6H2/t8-/m1/s1
