19
gdb 121708	6.78683	0.5789	0.53877	3.4963	75.79	-0.2537	-0.022	0.2317	1993.5893	0.15802	-456.365421	-456.355172	-456.354228	-456.402044	34.862	
C	-0.0090073504	 1.5344366306	-0.1181676761	-0.228355
O	 0.072111491	 0.1300468175	-0.1566502767	-0.238235
C	 0.7358097924	-0.3451396514	-1.3095495628	-0.051942
C	 0.7515109813	-1.8643656478	-1.2234246426	-0.307994
C	 1.4350842995	-2.5240331431	-2.3976657266	 0.390394
N	 1.9358948009	-1.8517424035	-3.3478555923	-0.502316
N	 1.4373341584	-3.938624917	-2.2918947901	-0.341667
C	 1.9731164192	-4.8333426131	-3.1836284821	 0.168755
O	 2.5372034777	-4.553285347	-4.2172815572	-0.298613
H	 0.9884059711	 2.0019118073	-0.1109905938	 0.105632
H	-0.5669981474	 1.9358452885	-0.9789408232	 0.105639
H	-0.5334669879	 1.8073788855	 0.8009396784	 0.124604
H	 0.2221156286	-0.0200190868	-2.2262158796	 0.108347
H	 1.7628313712	 0.044676141	-1.3658881738	 0.108279
H	 1.249218707	-2.1666958433	-0.2921264446	 0.126056
H	-0.2810615015	-2.2309808624	-1.1470469671	 0.126153
H	 2.3534545074	-2.4637346278	-4.0491216249	 0.253181
H	 0.9983588271	-4.334704393	-1.4737293034	 0.257874
H	 1.8289091742	-5.8773784541	-2.8441258116	 0.094207
43.1633	71.717	100.774	104.1402	127.789	231.8959	239.3695	254.3145	289.7878	335.3922	490.0533	536.2446	553.8482	602.7862	816.6125	817.8869	929.1556	971.2706	997.6685	1026.1047	1030.122	1094.8182	1099.8767	1163.5961	1182.0625	1190.7212	1224.1004	1226.316	1283.6229	1303.2017	1374.8536	1432.6738	1441.006	1473.8006	1483.1978	1484.6807	1505.3923	1508.9052	1525.3999	1739.3321	1814.5688	2947.2904	2969.2219	2995.0591	3014.1025	3020.6104	3022.4699	3056.7782	3112.429	3491.295	3611.4347
COCCC(=N)NC=O	COCCC(=N)NC=O	
InChI=1S/C5H10N2O2/c1-9-3-2-5(6)7-4-8/h4H,2-3H2,1H3,(H2,6,7,8)	InChI=1S/C5H10N2O2/c1-9-3-2-5(6)7-4-8/h4H,2-3H2,1H3,(H2,6,7,8)
