14
gdb 24980	4.72902	1.32809	1.05296	3.9608	64.76	-0.1986	0.0384	0.237	1062.9345	0.102408	-473.813863	-473.806877	-473.805933	-473.845642	26.116	
N	-0.0536758978	 1.241230003	-0.0901448726	-0.5619
C	-0.0201462584	-0.0078534136	-0.016903026	 0.472902
O	-1.1357430796	-0.7902237704	 0.0967474033	-0.233496
C	-0.6635104637	-2.0987641817	 0.2119780579	 0.126874
C	 0.6487599376	-2.0744298374	 0.1123695249	 0.405169
O	 1.3167145108	-3.2284561074	 0.0118402404	-0.278945
C	 0.2297065934	-4.2158656868	 0.2051513736	-0.091186
C	-1.16685337	-3.4920087755	 0.0622912085	-0.36206
O	 1.1379838912	-0.8171556005	-0.0212246833	-0.26068
H	 0.8811565609	 1.6313628704	-0.1670126373	 0.243268
H	 0.3887604328	-5.0028455415	-0.5312370776	 0.140561
H	 0.3513523905	-4.6197627498	 1.2126813139	 0.139852
H	-1.8539767361	-3.8425353137	 0.8389172712	 0.131217
H	-1.6373566516	-3.6832630251	-0.911520287	 0.128424
96.5638	132.7802	218.9402	300.0469	325.5235	528.552	573.8209	643.1493	708.5034	722.7412	738.9179	764.8073	821.0038	848.4014	876.043	911.5203	956.2404	970.2599	1076.6291	1108.9334	1184.8537	1215.2165	1261.9991	1265.9888	1345.3127	1364.4498	1459.673	1501.6647	1519.4734	1792.2173	1854.4287	3010.7274	3061.4794	3082.1898	3150.1381	3558.7258
N=C1OC2=C(OCC2)O1	[NH][C@@H]1OC2=C(OCC2)O1	
InChI=1S/C5H5NO3/c6-5-8-3-1-2-7-4(3)9-5/h6H,1-2H2	InChI=1S/C5H6NO3/c6-5-8-3-1-2-7-4(3)9-5/h5-6H,1-2H2/t5-/m1/s1
