17
gdb 78771	2.63027	1.58049	1.29288	0.7598	67.69	-0.2418	0.0715	0.3133	1009.2036	0.134606	-458.901777	-458.893704	-458.89276	-458.933632	32.5	
O	-0.091728724	 1.4920563569	-0.0353564332	-0.44411
C	-0.0539240767	 0.0839286704	-0.0653892618	 0.109778
C	-1.3883288224	-0.6304640817	-0.1328159376	-0.171615
C	-0.8046270498	-1.7329206324	-1.0113179707	-0.237764
C	-1.7698987339	-0.7601286488	-1.6161993433	 0.4083
O	-3.0563070412	-1.0508016564	-2.016026812	-0.466294
C	-0.6884685319	-0.0445247394	-2.4300657259	-0.369249
C	 0.2965475006	-0.6395768296	-1.389679869	 0.337354
O	 1.6412610742	-0.8246969197	-1.6560444201	-0.481983
H	 0.8151664503	 1.8124688379	 0.0108798346	 0.286053
H	 0.564355312	-0.3253467756	 0.7466279093	 0.074096
H	-2.1302192179	-0.7476965745	 0.6459724989	 0.090695
H	-0.8066518645	-2.8053630989	-0.8912701743	 0.101287
H	-3.6003131204	-0.2688236293	-1.8686056983	 0.287742
H	-0.5690110637	-0.5211106774	-3.4092531243	 0.089296
H	-0.716010372	 1.0452725373	-2.5217385892	 0.102561
H	 1.7342411115	-1.1910468487	-2.5417954931	 0.283853
171.0915	230.9028	266.5859	272.5625	303.3466	310.1613	340.9377	416.3729	425.5302	513.7351	575.5216	622.9543	648.4813	722.899	766.1647	831.0716	879.8318	909.0227	949.2514	962.9253	999.5581	1023.888	1071.1402	1082.2322	1106.2949	1127.6085	1166.018	1189.0099	1215.8851	1271.9848	1288.1592	1301.5384	1348.7887	1389.8044	1426.9236	1450.8814	1495.1314	3006.6262	3039.8364	3103.5243	3206.8051	3240.1307	3789.6221	3809.7312	3814.5292
OC1C2C3C2(O)CC13O	O[C@H]1[C@@H]2[C@H]3[C@]2(O)C[C@@]13O	
InChI=1S/C6H8O3/c7-4-2-3-5(2,8)1-6(3,4)9/h2-4,7-9H,1H2	InChI=1S/C6H8O3/c7-4-2-3-5(2,8)1-6(3,4)9/h2-4,7-9H,1H2/t2-,3-,4-,5-,6-/m0/s1
