17
gdb 105740	2.68725	1.43587	1.21517	3.0321	70.89	-0.2425	-0.043	0.1995	1082.001	0.133441	-458.959679	-458.950776	-458.949831	-458.993764	31.691	
C	-0.4159508031	 1.3871303209	 0.1618570254	-0.260516
O	-0.1115584953	-0.0058949565	 0.1471386633	-0.261383
C	 0.7636420718	-0.4466563626	 1.1362806041	 0.342648
O	 0.3007795048	-0.196516048	 2.4593022468	-0.299922
C	-0.1037205272	-1.4145715996	 3.085938875	-0.134869
C	 0.3490471915	-2.4946541064	 2.1478427739	-0.091761
C	 0.857658751	-1.9547224258	 1.0475175208	-0.132758
C	 2.1678293992	 0.1879216668	 1.041523188	 0.118682
O	 2.6153701453	 0.7143276031	 0.0598569043	-0.250889
H	 0.458797381	 1.9947915804	-0.0899005172	 0.134204
H	-1.1852830968	 1.5348191771	-0.5983867906	 0.128234
H	-0.8098140326	 1.6910723172	 1.137859415	 0.124584
H	 0.3723858163	-1.473512462	 4.0735882897	 0.120547
H	-1.192923566	-1.4341240553	 3.2414388833	 0.120107
H	 0.2265690051	-3.5499956134	 2.3563740889	 0.121231
H	 1.2409648808	-2.452782628	 0.1682733547	 0.130434
H	 2.7498547541	 0.0744587321	 1.9825573347	 0.091426
77.4614	97.1971	105.0708	180.5133	208.8301	249.9408	304.3666	380.8973	438.3113	485.5755	547.5257	733.1179	771.5771	789.7212	829.4817	924.872	956.8769	960.9201	990.8748	1039.5964	1059.3403	1081.0336	1132.7994	1142.0721	1175.4253	1188.4861	1210.3457	1232.3858	1343.0404	1375.0493	1391.2311	1471.8532	1493.1617	1510.4465	1512.7695	1684.1021	1841.4618	2895.9862	2995.363	3031.4926	3033.7803	3103.1693	3132.7064	3215.767	3247.6485
COC1(OCC=C1)C=O	CO[C@]1(OCC=C1)C=O	
InChI=1S/C6H8O3/c1-8-6(5-7)3-2-4-9-6/h2-3,5H,4H2,1H3	InChI=1S/C6H8O3/c1-8-6(5-7)3-2-4-9-6/h2-3,5H,4H2,1H3/t6-/m1/s1
