21
gdb 122234	2.48668	1.20031	0.94375	2.5876	75.66	-0.2485	0.072	0.3205	1315.5238	0.181378	-461.32702	-461.317271	-461.316327	-461.361694	36.454	
O	-0.0161885154	-1.5037145684	-1.2535308485	-0.414658
C	-0.1734160076	-1.0910315492	-2.6055660723	-0.071998
C	-1.651219485	-0.9324577889	-2.9522926508	-0.098106
O	-2.2053493329	-0.078241325	-1.9578302539	-0.310202
C	-3.4874317774	-0.4067757102	-1.4816762056	 0.423463
C	-3.6000456325	-1.7641477101	-0.7996496188	-0.149758
O	-2.5900271599	-1.9939165739	 0.1595011261	-0.425902
C	-4.2309264103	 0.7726084378	-0.9408305154	-0.307014
C	-4.6744944998	 0.1303980137	-2.24226054	-0.329442
H	-0.392490668	-0.7867446678	-0.7260007236	 0.299226
H	 0.3553342962	-0.1435089701	-2.7809948004	 0.106078
H	 0.286513944	-1.857956957	-3.2357978715	 0.115804
H	-1.7771366847	-0.4968513991	-3.9539787556	 0.097976
H	-2.137734269	-1.9141086382	-2.9489236276	 0.104661
H	-4.5612523449	-1.8049055862	-0.2759752348	 0.108036
H	-3.6235256894	-2.5691299956	-1.5512633392	 0.091319
H	-1.7670589715	-2.1770820277	-0.3153500037	 0.288413
H	-4.8399538183	 0.6326720496	-0.0547441445	 0.118801
H	-3.7322897813	 1.7325107962	-1.0067974525	 0.12252
H	-4.4697602836	 0.6728534669	-3.1581157634	 0.117615
H	-5.5924560487	-0.448731897	-2.2530915941	 0.113166
81.7565	93.5202	135.0176	164.5504	202.3833	240.0903	305.2482	327.0469	363.9485	383.0303	462.2542	514.0268	564.939	707.548	752.0888	773.056	852.4512	888.5555	904.296	914.5018	950.2168	983.611	1042.9937	1048.3072	1057.9493	1078.3922	1091.5162	1104.1306	1128.3825	1187.1089	1211.7335	1236.2429	1262.9361	1304.406	1341.9531	1389.8279	1395.8413	1410.4726	1419.0842	1453.0795	1454.9904	1490.0409	1497.6585	1499.9531	1516.4548	2973.8748	3001.3526	3011.3398	3065.1131	3068.2991	3094.5681	3130.2289	3139.8009	3216.227	3232.6154	3721.7829	3773.1463
OCCOC1(CO)CC1	OCCOC1(CO)CC1	
InChI=1S/C6H12O3/c7-3-4-9-6(5-8)1-2-6/h7-8H,1-5H2	InChI=1S/C6H12O3/c7-3-4-9-6(5-8)1-2-6/h7-8H,1-5H2
