19
gdb 48166	3.84244	0.69329	0.61611	1.1705	77.08	-0.2495	-0.0936	0.1559	1783.9737	0.156463	-423.034181	-423.024441	-423.023497	-423.070738	33.983	
O	-0.9108266579	 1.614025127	 0.2699384465	-0.218738
C	 0.1539964102	 1.0592839021	 0.3363194423	 0.094079
C	 1.5039458735	 1.7852512079	 0.2223642736	 0.27966
O	 2.5086259528	 1.1142859646	 0.2904186776	-0.276308
C	 1.4682271275	 3.2811504613	 0.0365667958	-0.298873
C	 2.850819968	 3.9155137543	-0.1265169952	-0.212569
C	 2.7834432131	 5.4198062299	-0.2771529023	 0.028537
C	 2.726800933	 6.3070724245	 0.9429103004	-0.257188
C	 3.9680939195	 6.2768042352	 0.0839316457	-0.276976
H	 0.2692977404	-0.0357100223	 0.4845284026	 0.10669
H	 0.8161415171	 3.4951596196	-0.8214285371	 0.138054
H	 0.9293246758	 3.7094803898	 0.8934369304	 0.142681
H	 3.4699383917	 3.6567168163	 0.7402549657	 0.109369
H	 3.3522689354	 3.4688390274	-0.9934701575	 0.111942
H	 2.2000100093	 5.7585085221	-1.1306029326	 0.081744
H	 2.1008388385	 7.1920146123	 0.915263314	 0.112668
H	 2.7775668562	 5.83125447	 1.9174020467	 0.109408
H	 4.8471274045	 5.7812329985	 0.4831792861	 0.113282
H	 4.1890621014	 7.1405015196	-0.5332572827	 0.112539
31.3583	61.7657	96.2544	119.2402	134.1911	212.479	248.6524	366.2659	414.3283	463.1278	509.8322	638.1255	736.9921	775.1969	803.7809	822.4487	850.0827	913.0326	944.5663	976.9615	1038.0336	1061.3564	1067.0226	1081.0534	1130.426	1139.3392	1159.6601	1198.5134	1223.8559	1231.6046	1298.9477	1315.4246	1363.904	1387.2459	1420.7784	1436.8138	1469.0051	1486.0336	1508.5627	1800.9808	1825.4431	2920.014	3023.3734	3036.144	3045.3791	3073.8442	3127.5438	3128.3925	3134.2583	3206.2938	3221.582
O=CC(=O)CCC1CC1	O=CC(=O)CCC1CC1	
InChI=1S/C7H10O2/c8-5-7(9)4-3-6-1-2-6/h5-6H,1-4H2	InChI=1S/C7H10O2/c8-5-7(9)4-3-6-1-2-6/h5-6H,1-4H2
