22
gdb 118275	4.78461	0.55706	0.51728	3.9627	84.67	-0.263	0.037	0.2999	2107.5409	0.192081	-404.362008	-404.350952	-404.350008	-404.399327	38.186	
C	 0.0092190175	 1.3980149163	 0.0068278262	-0.229922
O	 0.0101913176	-0.0095481371	 0.0080564682	-0.234779
C	 0.6326865586	-0.5620440191	-1.1299406518	-0.059412
C	 0.5452559353	-2.0883700329	-1.0525606363	 0.001901
C	-0.9188236017	-2.5480355787	-1.0359827889	-0.397084
C	 1.3592103328	-2.7036808946	-2.2029782801	-0.188449
C	 1.4897070417	-4.2376044697	-2.104750329	-0.353353
C	 2.3224634449	-4.7921843065	-3.1697803471	 0.259222
N	 2.9832304031	-5.2131853892	-4.0192801621	-0.305321
H	 1.0317928458	 1.8072662716	-0.0094191214	 0.105674
H	-0.5357522277	 1.80575425	-0.8592822967	 0.105798
H	-0.4873483989	 1.725951426	 0.9231367858	 0.129075
H	 0.1412036166	-0.2002587599	-2.0514643682	 0.084583
H	 1.6879978965	-0.2426353341	-1.1800645053	 0.08525
H	 1.0134133424	-2.3805992215	-0.1020476081	 0.086239
H	-1.0132784509	-3.6187243713	-0.8320212165	 0.111773
H	-1.4691871703	-2.0088948984	-0.2624328118	 0.140976
H	-1.4013587196	-2.3449866875	-1.9999342428	 0.112574
H	 0.8992842885	-2.4480583119	-3.165292805	 0.118866
H	 2.366283478	-2.2719277362	-2.2144665609	 0.118219
H	 1.9281697764	-4.5184582778	-1.1396889933	 0.151839
H	 0.5067127134	-4.7168518974	-2.154953245	 0.156331
56.2437	68.2582	82.8829	106.0241	120.6498	190.6193	227.0559	245.4111	265.2494	320.7158	369.7085	396.3383	431.0504	512.7653	577.1577	762.9924	857.106	929.4841	940.9468	947.5269	974.8318	992.8887	1038.3641	1123.2751	1140.873	1161.3846	1170.1168	1190.2149	1217.418	1232.6157	1267.7678	1284.8422	1319.0799	1333.4404	1382.195	1387.474	1406.2123	1426.3963	1468.8468	1481.2286	1486.3726	1492.6173	1495.5038	1503.5412	1509.7278	1527.7898	2362.2116	2937.5508	2967.9318	2972.1995	3013.4774	3015.3079	3030.2643	3034.5876	3046.081	3069.5205	3093.8005	3098.8828	3115.856	3133.0225
COCC(C)CCC#N	COC[C@@H](C)CCC#N	
InChI=1S/C7H13NO/c1-7(6-9-2)4-3-5-8/h7H,3-4,6H2,1-2H3	InChI=1S/C7H13NO/c1-7(6-9-2)4-3-5-8/h7H,3-4,6H2,1-2H3/t7-/m0/s1
