18
gdb 11529	5.56738	1.04377	0.94136	3.8147	70.57	-0.2466	0.0267	0.2733	1224.2692	0.154159	-381.112533	-381.103973	-381.103029	-381.146185	30.273	
C	-0.2675400081	 1.3427057421	 0.1696905714	-0.355296
N	-0.0364424646	-0.0788292149	-0.0301644003	-0.027818
C	-0.0745415113	-0.9645493168	 1.1183675402	-0.210562
C	-1.4367568185	-1.0537947153	 1.7764829517	 0.028721
C	-1.5403429765	-1.4436463834	 3.203326306	-0.24465
N	-1.859624331	-0.0684939732	 2.7855687807	-0.308901
C	 0.2538362659	-0.548321473	-1.27924073	 0.154431
O	 0.3248979754	 0.1208643268	-2.2875769006	-0.339886
H	 0.4601624271	 1.7546957339	 0.881060294	 0.117175
H	-0.1472032404	 1.8350805204	-0.7952162687	 0.170545
H	-1.2751112719	 1.5300143365	 0.55412782	 0.148295
H	 0.2327995332	-1.9602653869	 0.7782061368	 0.124858
H	 0.664349861	-0.6380959719	 1.8679004435	 0.098438
H	-2.2377322521	-1.3460685074	 1.1000757963	 0.104712
H	-2.3867514915	-2.0298186395	 3.5480812808	 0.126652
H	-0.6162780587	-1.6207110947	 3.7492141823	 0.113568
H	-1.082614009	 0.546974309	 3.0176315915	 0.228543
H	 0.422333691	-1.6436322117	-1.2730473255	 0.071174
60.5889	96.0945	130.1306	172.2271	283.339	297.2068	338.8117	341.2196	393.4142	473.8142	707.7699	800.3635	831.652	874.5075	938.0234	944.6106	997.6074	1027.4687	1059.5327	1090.4735	1128.5694	1150.6253	1161.451	1190.3822	1258.151	1270.0171	1280.4622	1307.9995	1357.0124	1427.5916	1430.8197	1439.5633	1445.6248	1476.5695	1498.0685	1513.2174	1524.782	1798.332	2931.6227	2979.0851	3018.3095	3061.2763	3083.143	3107.5535	3130.672	3158.3189	3194.3648	3485.4986
CN(CC1CN1)C=O	CN(C[C@H]1CN1)C=O	
InChI=1S/C5H10N2O/c1-7(4-8)3-5-2-6-5/h4-6H,2-3H2,1H3	InChI=1S/C5H10N2O/c1-7(4-8)3-5-2-6-5/h4-6H,2-3H2,1H3/t5-/m1/s1
