20
gdb 26216	3.97131	1.06696	0.86262	2.9992	85.14	-0.1716	0.0398	0.2114	1379.7815	0.171406	-399.356461	-399.346849	-399.345905	-399.391076	34.503	
C	 0.0095885636	 1.3747081068	-0.0944121896	-0.324347
N	 0.0365881844	-0.0568055151	-0.2950141758	-0.149729
C	 1.2026396348	-0.7427714951	 0.2381625474	-0.334158
C	-1.185631637	-0.7068081455	-0.1764223854	 0.366892
C	-2.4495083428	-0.1571651234	-0.0830769256	-0.251957
N	-3.3181176713	-1.2403699937	-0.060709717	 0.016132
C	-4.7597203876	-1.180110237	 0.0225390701	-0.336006
C	-2.5500246708	-2.3545428623	-0.1211508703	 0.00332
N	-1.2649453817	-2.079667606	-0.1907671203	-0.354133
H	 0.9925512391	 1.7918135968	-0.3298916736	 0.118549
H	-0.721217796	 1.8334053131	-0.7689043646	 0.122887
H	-0.2496543785	 1.6660079111	 0.9397298083	 0.098427
H	 1.2793380403	-0.666105836	 1.336775702	 0.096691
H	 1.1475635222	-1.797979483	-0.0272273389	 0.158628
H	 2.1073120824	-0.3086469714	-0.1992875396	 0.109522
H	-2.811770198	 0.8540584874	-0.0301040605	 0.114603
H	-5.1809933828	-0.6452311666	-0.8352410935	 0.140642
H	-5.1582767388	-2.1966275642	 0.0280916738	 0.142148
H	-5.0799685032	-0.6752587365	 0.9402525496	 0.139942
H	-2.9814506285	-3.3451911494	-0.1107437266	 0.121948
69.8299	105.871	126.5779	179.487	186.5347	218.3775	232.7727	340.4425	370.4167	375.629	525.0245	581.2206	611.0084	627.7793	726.7849	737.5074	804.3884	937.183	1021.8284	1053.4698	1083.1215	1086.663	1129.5986	1151.8513	1174.5676	1182.5424	1226.1833	1269.8003	1298.7875	1354.5663	1404.0672	1438.2095	1440.3682	1457.267	1470.1563	1479.1212	1484.0461	1494.2169	1504.1863	1514.4753	1524.0683	1555.1439	1619.9989	2940.001	2954.7489	3031.5573	3057.9312	3069.4081	3087.7876	3107.4552	3132.4443	3155.7553	3240.356	3285.8557
CN(C)C1=CN(C)C=N1	CN(C)c1cn(C)cn1	
InChI=1S/C6H11N3/c1-8(2)6-4-9(3)5-7-6/h4-5H,1-3H3	InChI=1S/C6H11N3/c1-8(2)6-4-9(3)5-7-6/h4-5H,1-3H3
