22
gdb 114895	3.45041	1.12305	1.01158	1.5551	82.79	-0.2122	0.0882	0.3004	1290.9005	0.195534	-404.334958	-404.326374	-404.32543	-404.368416	32.891	
C	-0.1202196701	 1.5450777425	 0.2039968028	-0.38182
C	 0.0599079701	 0.0450831702	-0.0202141559	-0.122475
N	 0.7662389975	-0.5814358905	 1.0788500169	-0.080438
C	 2.213297582	-0.3199853848	 1.2397376605	-0.200865
C	 2.4391662353	-1.8252140634	 1.5333380638	 0.104829
O	 2.4874309084	-2.2179318973	 2.8889598649	-0.2703
C	 1.1531159625	-2.3606702539	 3.3847315531	-0.076454
C	 0.3062257658	-2.8046188727	 2.1813332842	-0.229053
C	 0.9821641452	-2.0469239974	 1.0406319579	-0.009838
H	 0.8479737499	 2.0514694361	 0.278784125	 0.11998
H	-0.6686213379	 1.9978526072	-0.6276937154	 0.111852
H	-0.6703137229	 1.731662693	 1.1308553197	 0.123093
H	-0.9225558644	-0.4359570488	-0.1050767508	 0.098987
H	 0.579029766	-0.1233813004	-0.9863728069	 0.069095
H	 2.7091040397	-0.0081151093	 0.3056103778	 0.082991
H	 2.4763866547	 0.3822734128	 2.037563908	 0.105511
H	 3.2707045886	-2.3000012347	 1.0105089847	 0.083017
H	 1.1814066865	-3.0874009077	 4.2009112261	 0.1043
H	 0.7829856401	-1.4038252408	 3.776589966	 0.10388
H	 0.393203362	-3.8846930429	 2.0205631029	 0.100755
H	-0.750080358	-2.5470209404	 2.2921121311	 0.104171
H	 0.8580885391	-2.5011753569	 0.0497826736	 0.058782
80.4205	96.9172	176.7943	204.9912	238.6218	281.5742	345.9291	414.6183	452.1769	615.7317	657.1598	729.7499	807.5055	820.8706	863.2757	879.3251	903.516	951.6629	968.9829	978.962	1011.7126	1023.5388	1044.1174	1083.617	1107.136	1136.1865	1159.2238	1191.1403	1200.1986	1220.513	1235.8668	1243.6343	1269.0837	1301.0691	1310.1268	1322.1993	1345.8959	1361.0564	1393.2894	1398.0834	1415.1272	1468.0366	1487.314	1490.2981	1501.1699	1514.7315	1515.6201	2888.2538	2965.2977	3015.4196	3023.9232	3037.1794	3039.9189	3050.7473	3064.9026	3092.3636	3099.6395	3105.2519	3110.9855	3117.0104
CCN1CC2OCCC12	CCN1C[C@H]2OCC[C@@H]12	
InChI=1S/C7H13NO/c1-2-8-5-7-6(8)3-4-9-7/h6-7H,2-5H2,1H3	InChI=1S/C7H13NO/c1-2-8-5-7-6(8)3-4-9-7/h6-7H,2-5H2,1H3/t6-,7-/m1/s1
