17
gdb 53055	5.38984	0.73322	0.65322	4.7972	94.25	-0.2332	-0.0604	0.1728	1682.3282	0.135156	-384.718637	-384.709527	-384.708583	-384.754373	31.84	
C	-0.1023464534	 1.4584004665	 0.011288523	-0.508702
C	-0.0084886005	 0.0084413002	 0.0028068032	 0.23327
C	 0.0838322376	-1.1963437853	-0.0046318322	-0.123123
C	 0.1315484094	-2.605689286	-0.0118904024	 0.205838
C	 1.2363586974	-3.3817032609	-0.0223939841	-0.305837
C	 0.8779843013	-4.8113390742	-0.0276868313	 0.398947
O	 1.6362772135	-5.7546056921	-0.036999687	-0.3404
C	-0.6590725648	-4.8925572304	-0.0187435576	-0.339803
C	-1.1474349841	-3.4348066165	-0.0088238858	-0.332754
H	 0.8891360566	 1.9231862618	 0.0043348312	 0.158617
H	-0.6508110911	 1.8210237382	-0.8653281266	 0.158855
H	-0.6339570856	 1.8117032014	 0.901979002	 0.158875
H	 2.2606050982	-3.034123003	-0.0267003558	 0.11301
H	-0.994413498	-5.450656256	-0.8976155799	 0.134466
H	-0.9836429664	-5.4588685447	 0.8589327364	 0.134488
H	-1.7510970894	-3.1907678736	 0.8720314784	 0.127116
H	-1.7608449607	-3.1821693351	-0.8804851813	 0.127137
24.4826	83.2741	87.8409	97.6464	214.0877	290.3892	384.1737	407.1732	459.5919	539.9816	552.8836	584.8605	630.3189	825.1222	825.8619	851.9728	906.766	951.998	1011.8605	1013.8767	1045.7631	1053.0719	1154.4122	1174.4141	1226.7882	1230.8124	1263.4447	1291.7416	1325.7386	1411.7584	1452.9889	1471.79	1474.0916	1483.35	1638.1167	1804.6254	2341.1577	3028.3183	3044.7143	3067.0691	3074.1789	3088.8325	3095.6135	3108.3003	3231.4492
CC#CC1=CC(=O)CC1	CC#CC1=CC(=O)CC1	
InChI=1S/C8H8O/c1-2-3-7-4-5-8(9)6-7/h6H,4-5H2,1H3	InChI=1S/C8H8O/c1-2-3-7-4-5-8(9)6-7/h6H,4-5H2,1H3
