21
gdb 112982	4.66064	0.79727	0.72746	2.7651	79.82	-0.2452	0.0728	0.318	1594.0712	0.182579	-424.192612	-424.1835	-424.182556	-424.227436	33.933	
O	-0.187281546	 1.5095872435	 0.1273177842	-0.42181
C	-0.0490876554	 0.1871788745	-0.3495261222	-0.063289
C	-1.2835182712	-0.6301589698	-0.0023311514	 0.128765
C	-1.1363158585	-2.1625418338	 0.0211410689	-0.337746
C	-1.2483325006	-2.0199314313	 1.558430018	 0.149951
O	-1.5031116135	-0.5902696571	 1.4337900845	-0.327458
C	-2.352332143	-2.7458232806	 2.2623543062	 0.015462
C	-2.0632139075	-4.0747631354	 2.9216473983	-0.272671
C	-2.3404478846	-2.8597253238	 3.7661759354	-0.266734
H	-0.4616101777	 1.4215066466	 1.0493972501	 0.291629
H	 0.0823135353	 0.2418501831	-1.4364400912	 0.104966
H	 0.8447395378	-0.3036592164	 0.0726507788	 0.078137
H	-2.1561974215	-0.2316087184	-0.5334577575	 0.083753
H	-1.9643499382	-2.7088724937	-0.4335693478	 0.111088
H	-0.1917955332	-2.5580831037	-0.3583459833	 0.108458
H	-0.298811823	-2.1946067386	 2.0847558288	 0.069524
H	-3.3252960371	-2.6357750781	 1.7909119324	 0.084736
H	-2.8197526176	-4.8484912018	 2.8593293815	 0.115765
H	-1.044752036	-4.4480036094	 2.8868959697	 0.11324
H	-1.5093258691	-2.4102795275	 4.2993946404	 0.117346
H	-3.2883195793	-2.7976106582	 4.2883160564	 0.116887
49.0208	74.5657	119.3422	145.4773	247.402	278.674	301.2188	439.1882	451.5775	489.1517	530.1452	733.0108	792.231	802.1342	830.6607	886.4292	899.3098	931.9023	939.3715	976.892	1007.4648	1013.5765	1045.943	1060.2631	1078.3266	1085.406	1114.4347	1132.8943	1165.7003	1196.4824	1220.525	1224.6587	1232.5516	1255.8342	1275.7474	1313.8321	1326.5824	1349.2184	1396.049	1438.4388	1443.1866	1470.4627	1490.9349	1499.804	1505.9726	2956.5743	2996.278	3034.7046	3065.1249	3074.6754	3129.3267	3132.7888	3136.7456	3145.4966	3211.5084	3226.2157	3771.6163
OCC1CC(O1)C1CC1	OC[C@H]1C[C@@H](O1)C1CC1	
InChI=1S/C7H12O2/c8-4-6-3-7(9-6)5-1-2-5/h5-8H,1-4H2	InChI=1S/C7H12O2/c8-4-6-3-7(9-6)5-1-2-5/h5-8H,1-4H2/t6-,7-/m1/s1
