18
gdb 57021	2.42015	1.30626	1.0643	3.2274	79.1	-0.2452	0.0225	0.2677	1205.7297	0.146079	-401.935543	-401.926212	-401.925267	-401.97054	33.763	
C	-0.0450438572	 1.6428509642	 0.3847579003	-0.390416
C	-0.0579461268	 0.1441320476	 0.0373411832	-0.150014
C	 0.7764875808	-0.6414834073	 0.9583383233	 0.347344
C	 1.4510765466	-1.2956599849	 1.7076215038	-0.483579
N	-1.4187829164	-0.3751866567	-0.0116067371	-0.073724
C	-1.8978594563	-1.6629706467	-0.5323525869	-0.170102
C	-3.256815083	-1.3641607246	 0.1557551792	-0.367483
C	-2.5676460165	-0.0963122556	 0.7078927281	 0.418104
O	-2.8633195052	 0.7909960663	 1.4637856086	-0.370448
H	 0.9849486591	 2.006668718	 0.3744195514	 0.124791
H	-0.6283943542	 2.1984970471	-0.3536220678	 0.12686
H	-0.4805275071	 1.8149479786	 1.3687477386	 0.165526
H	 0.3587831666	 0.0249653067	-0.9729092774	 0.117194
H	 2.0488517128	-1.8666082596	 2.374591845	 0.203127
H	-1.9103978466	-1.7196385829	-1.6255994329	 0.111319
H	-1.3589935881	-2.5250280923	-0.125209477	 0.121709
H	-4.0946996235	-1.1676589858	-0.5150407283	 0.13365
H	-3.5613873149	-2.0721384217	 0.9281599358	 0.136142
31.6229	77.0789	171.5952	180.4419	210.5684	225.595	272.5213	364.5595	433.1271	530.1514	546.1784	574.8273	631.0228	661.5594	731.5784	778.6374	821.2626	844.7536	941.9669	996.4445	1044.5694	1048.0332	1075.4779	1112.8771	1154.2814	1175.5285	1190.3131	1232.6221	1265.5484	1323.1836	1347.4298	1409.2138	1417.9738	1461.0157	1487.3732	1494.4091	1527.4761	1871.5779	2233.0983	3001.4682	3038.7156	3060.0178	3084.2281	3090.0919	3133.6216	3148.0986	3165.7124	3501.9603
CC(C#C)N1CCC1=O	C[C@@H](C#C)N1CCC1=O	
InChI=1S/C7H9NO/c1-3-6(2)8-5-4-7(8)9/h1,6H,4-5H2,2H3	InChI=1S/C7H9NO/c1-3-6(2)8-5-4-7(8)9/h1,6H,4-5H2,2H3/t6-/m0/s1
