19
gdb 72725	2.63087	2.04408	1.61093	2.4482	75.6	-0.2259	0.0547	0.2806	913.9481	0.159262	-422.908847	-422.901611	-422.900667	-422.939824	30.313	
C	-0.0603522386	 1.5651509835	-0.0514114804	-0.456359
C	 0.0011128895	 0.0511923094	 0.0381107959	 0.456332
O	-1.2451754365	-0.4004357339	 0.7001707679	-0.359527
C	-0.4612331844	-0.5500762004	 1.9472353039	-0.191934
C	 0.792124218	-0.7122920921	 1.0593244877	 0.305939
C	 2.083482746	-0.3090886192	 0.2963109542	-0.336774
C	 1.0724404357	-0.5949407007	-0.9491053324	-0.170509
C	 0.8420319577	-2.0782790408	-0.7695444315	-0.083577
O	 0.6798160911	-2.1098811692	 0.6555293848	-0.292481
H	 0.8176629245	 2.0077867468	-0.527976897	 0.116549
H	-0.9329279964	 1.8184919361	-0.6637481533	 0.137104
H	-0.2060054699	 2.0336051239	 0.9270379744	 0.121189
H	-0.5141892078	 0.3596307306	 2.5529773902	 0.107339
H	-0.760010484	-1.4307583652	 2.5164985734	 0.129402
H	 2.3768136173	 0.7349159309	 0.380028049	 0.119502
H	 2.9454595992	-0.9739469272	 0.3796212928	 0.114757
H	 1.2632395033	-0.1989104252	-1.9473618377	 0.077501
H	-0.0663988078	-2.4380747872	-1.2674595552	 0.108682
H	 1.6913622233	-2.7013432601	-1.0753604666	 0.096864
189.7118	228.3945	271.074	311.0751	380.4166	415.9801	461.2159	483.473	542.2347	616.54	683.159	771.89	803.8377	831.4295	879.9582	885.7015	913.5201	943.1488	961.2196	976.2621	1004.0347	1031.8239	1063.9094	1095.7883	1109.3276	1122.3131	1150.2293	1167.7276	1179.4385	1210.9502	1230.1536	1243.6755	1288.29	1311.7072	1359.1824	1412.4358	1474.7833	1488.5763	1493.6148	1501.2657	1526.6149	3018.5748	3035.5508	3054.9908	3057.5073	3086.027	3097.0401	3113.0278	3117.7194	3138.4108	3172.9473
CC12OCC11CC2CO1	C[C@]12OC[C@@]31C[C@H]2CO3	
InChI=1S/C7H10O2/c1-6-5-2-7(6,4-9-6)8-3-5/h5H,2-4H2,1H3	InChI=1S/C7H10O2/c1-6-5-2-7(6,4-9-6)8-3-5/h5H,2-4H2,1H3/t5-,6+,7+/m0/s1
