16
gdb 11928	3.22553	1.86425	1.47724	5.002	70.6	-0.2735	0.0117	0.2851	892.8503	0.131	-342.767484	-342.759985	-342.75904	-342.799067	28.176	
C	 0.0115234285	 1.5461616842	 0.0090748791	-0.476427
C	-0.049424048	 0.0517986285	 0.069594447	 0.27056
C	-1.318051549	-0.8179394667	-0.0165329907	-0.283496
C	-0.6893308026	-1.8203209547	 1.00371745	-0.292634
C	 0.5674545215	-0.933487428	 1.0553144362	 0.157104
N	 1.1292179092	-0.7234510188	-0.2807633329	-0.372465
C	 1.3936471386	-0.7144052597	 2.20243005	 0.231687
N	 2.0252099163	-0.5408356639	 3.1563118112	-0.349194
H	 1.004785381	 1.8988449001	 0.2962957783	 0.14998
H	-0.1911202224	 1.8950178861	-1.0102850453	 0.130726
H	-0.7315052759	 1.997150049	 0.6739248488	 0.127999
H	-2.2053027037	-0.3233744692	 0.3845005441	 0.120458
H	-1.5510111714	-1.2001898741	-1.0153857991	 0.10764
H	-1.230699456	-1.8483977647	 1.9506949633	 0.131696
H	-0.5141914656	-2.8458225197	 0.6648083225	 0.112576
H	 0.9394618596	-1.5122301585	-0.8979682524	 0.23379
120.0957	160.4028	191.4455	230.4705	319.2364	373.6754	454.6321	544.8522	563.2811	585.8482	684.4033	762.8992	781.5999	819.9986	936.2403	947.7761	992.4388	1073.0054	1075.9581	1093.9427	1124.9264	1168.8127	1202.7802	1219.1075	1249.0015	1256.7749	1331.1413	1405.8384	1451.9953	1478.7373	1482.3628	1490.3899	1502.7093	2351.0421	3034.9911	3053.0035	3061.5313	3098.2889	3110.1199	3129.5148	3131.3286	3455.6874
CC12CCC1(N2)C#N	C[C@]12CC[C@]1(N2)C#N	
InChI=1S/C6H8N2/c1-5-2-3-6(5,4-7)8-5/h8H,2-3H2,1H3	InChI=1S/C6H8N2/c1-5-2-3-6(5,4-7)8-5/h8H,2-3H2,1H3/t5-,6-/m0/s1
