21
gdb 102758	2.72364	0.866	0.73444	2.8525	79.43	-0.2468	-0.0195	0.2273	1597.5063	0.180285	-424.215167	-424.204892	-424.203948	-424.251766	36.409	
O	 0.1759027363	 1.3476147146	 0.0123317057	-0.414828
C	 0.0761754588	-0.0658495982	 0.0009060839	-0.080614
C	-1.3769622749	-0.5587999358	 0.016334939	-0.098343
C	-1.4448124775	-2.0973287226	 0.1575853667	-0.24334
C	-2.8274086219	-2.6654330222	-0.0842306938	 0.031701
C	-3.2699075787	-3.0110099551	-1.4844422113	-0.254757
C	-2.9946846089	-4.1079882525	-0.4843403846	-0.281484
C	-2.1129272221	 0.0932982934	 1.1718992057	 0.181993
O	-3.1719068531	 0.6587801659	 1.0923052274	-0.256252
H	-0.2814782507	 1.6872081024	-0.7641141674	 0.288009
H	 0.603888494	-0.5083338515	-0.8580794433	 0.096188
H	 0.5950384503	-0.4037249818	 0.9059061122	 0.115666
H	-1.8841126387	-0.2584726738	-0.9089889556	 0.088982
H	-0.737464789	-2.5457508217	-0.5521697818	 0.099291
H	-1.0900647064	-2.3808054477	 1.1588444726	 0.104492
H	-3.599258135	-2.2596422931	 0.5640695847	 0.100918
H	-4.2979078586	-2.8135854641	-1.7663342385	 0.117598
H	-2.5555566968	-2.8736120028	-2.2903294423	 0.107517
H	-2.0974805693	-4.7033248722	-0.6209195155	 0.10978
H	-3.8350167615	-4.6614649445	-0.0804123928	 0.115646
H	-1.5909312964	-0.0169394566	 2.1529917091	 0.071838
54.5094	57.6606	72.7517	126.6584	133.6514	227.8718	294.6112	297.8013	326.5294	363.5026	394.1105	525.4864	544.7123	775.2634	798.4874	830.593	853.5186	888.6797	932.881	950.1951	992.5458	1037.9736	1054.9364	1066.7845	1075.4379	1080.092	1118.2631	1137.8374	1176.8132	1197.4664	1198.2591	1232.3691	1245.8913	1288.3738	1344.49	1352.6633	1384.2502	1412.9207	1420.3264	1433.3067	1469.2258	1483.8424	1506.1761	1507.9496	1836.0337	2844.3856	2985.5895	3005.3259	3036.1622	3046.0073	3065.7869	3127.9248	3132.9837	3146.6245	3207.3112	3222.2648	3812.084
OCC(CC1CC1)C=O	OC[C@@H](CC1CC1)C=O	
InChI=1S/C7H12O2/c8-4-7(5-9)3-6-1-2-6/h4,6-7,9H,1-3,5H2	InChI=1S/C7H12O2/c8-4-7(5-9)3-6-1-2-6/h4,6-7,9H,1-3,5H2/t7-/m0/s1
