16
gdb 11579	6.11947	0.8321	0.78092	3.7304	79.57	-0.2493	-0.0421	0.2072	1464.7519	0.128537	-346.585799	-346.577031	-346.576086	-346.620613	30.141	
C	-0.0243945393	 1.4529651507	 0.3221256724	-0.476868
C	 0.0439074821	 0.0007977852	-0.1113006485	 0.243422
O	 1.0832797331	-0.5408073099	-0.4295933966	-0.284346
C	-1.2187750888	-0.7039779465	-0.1215032943	 0.042038
C	-2.2726324584	-1.2985158262	-0.1318184602	 0.064192
C	-3.5059531166	-2.0154721272	-0.1499814382	-0.169251
C	-3.7392526648	-3.0878649129	-1.2107986449	-0.248925
C	-3.5209418691	-3.4991282296	 0.208379001	-0.248923
H	 0.9755117863	 1.8886768852	 0.2951591953	 0.140385
H	-0.6953569727	 2.0122514319	-0.3387235014	 0.143519
H	-0.438160407	 1.5252912636	 1.3336876012	 0.143494
H	-4.3806693512	-1.4463970103	 0.1495097954	 0.118207
H	-4.7390919302	-3.1492376037	-1.6248085374	 0.126662
H	-2.9389508117	-3.2540020162	-1.9213570465	 0.139865
H	-2.5708184254	-3.9474058622	 0.4716038129	 0.139862
H	-4.3679873662	-3.8482806518	 0.7875595498	 0.126667
37.5752	77.8601	97.4943	119.544	185.3655	249.2123	393.0811	461.648	534.048	606.094	606.3717	651.6453	787.9072	822.7855	855.8973	883.7587	953.7748	1016.4286	1042.1813	1062.3109	1084.9847	1115.2475	1139.0192	1202.7889	1207.9985	1266.201	1378.779	1393.6701	1461.5311	1467.451	1469.6423	1495.3633	1759.2827	2314.5758	3039.1582	3103.7453	3145.3899	3148.0966	3150.3852	3153.9929	3232.0028	3246.7673
CC(=O)C#CC1CC1	CC(=O)C#CC1CC1	
InChI=1S/C7H8O/c1-6(8)2-3-7-4-5-7/h7H,4-5H2,1H3	InChI=1S/C7H8O/c1-6(8)2-3-7-4-5-7/h7H,4-5H2,1H3
