16
gdb 66597	3.05565	1.76156	1.49304	3.2098	73.5	-0.2295	-0.0158	0.2137	921.6106	0.12326	-400.651939	-400.644374	-400.64343	-400.683637	29.114	
C	-0.1492576607	 1.671447778	-0.2064001113	-0.481202
C	 0.153342942	 0.2076056381	-0.219576301	 0.256019
C	-0.3972886999	-0.8101063265	 0.7761339023	-0.166018
C	 0.560295973	-1.7699114231	 1.461075939	-0.062462
C	 0.303176993	-2.8122448644	 0.6601120626	-0.087211
N	 1.583207493	-0.3035305618	-1.0005100109	-0.32733
C	 0.4178338139	-0.6520955838	-1.3119592814	 0.25787
O	-0.2927989018	-1.7793810293	-1.5436272532	-0.259892
C	-0.7269372197	-2.0857283807	-0.1648323591	 0.046723
H	 0.1802342146	 2.135984436	-1.1383034556	 0.139847
H	-1.2279829313	 1.8432757845	-0.0953808818	 0.121859
H	 0.350761588	 2.1820387536	 0.6239947085	 0.130397
H	-1.2186093214	-0.4059000622	 1.3747738765	 0.086108
H	 1.2314020327	-1.6227791634	 2.2991049743	 0.121953
H	 0.6938858172	-3.8191573136	 0.5873150498	 0.118786
H	-1.7458049527	-2.4675120512	-0.2298916388	 0.104554
126.7313	175.7116	202.5416	247.9798	299.6876	353.883	455.572	504.5094	589.7724	602.7854	691.5548	753.8724	803.7905	850.1992	898.7417	908.086	935.372	954.9017	978.0665	1024.9283	1048.973	1072.4265	1117.8265	1166.2257	1183.3616	1194.2809	1255.404	1307.1489	1322.1307	1412.466	1449.6565	1483.8903	1497.3091	1628.9943	1768.1505	3019.091	3073.0927	3075.928	3119.4631	3126.4935	3195.4378	3228.4246
CC12C3C1C1N=C2OC31	C[C@]12[C@@H]3C=C[C@@H]3O[C]2[N]1	
InChI=1S/C7H7NO/c1-7-2-3(7)5-4(2)8-6(7)9-5/h2-5H,1H3	InChI=1S/C7H7NO/c1-7-4-2-3-5(4)9-6(7)8-7/h2-5H,1H3/t4-,5+,7-/m1/s1
