14
gdb 129733	2.37489	1.92988	1.07056	3.4933	69.91	-0.2158	-0.0541	0.1617	1027.446	0.102597	-466.161693	-466.153661	-466.152717	-466.194836	29.42	
N	-0.2602657822	 1.4185883079	-0.0578897158	-0.624112
C	-0.0699380932	 0.0030851313	-0.0206221347	 0.018323
C	-1.1819269718	-0.7690379569	-0.0160773541	 0.527043
O	-2.4321638904	-0.3019845784	-0.0437822909	-0.409239
N	-1.0532536544	-2.1289629292	 0.0190225648	-0.321879
N	 0.1481975499	-2.76737416	 0.0502857357	-0.039322
N	 1.2085773022	-2.0924018156	 0.047454412	-0.260245
C	 1.216173524	-0.6544244164	 0.0122358193	 0.317027
N	 2.3186310827	-0.0018497166	 0.0104787593	-0.54769
H	 0.2317104314	 1.8000812319	-0.8648642191	 0.25846
H	 0.2108166478	 1.8395753523	 0.7418832434	 0.258459
H	-2.3198820712	 0.6683702576	-0.0661788754	 0.314276
H	-1.8567785856	-2.7371610552	 0.0235231978	 0.287411
H	 3.0970530907	-0.6627881925	 0.0368071976	 0.221486
45.1852	127.2089	211.321	265.712	267.8987	322.6886	426.8852	507.4326	530.1207	567.446	587.6659	649.952	692.4584	713.3381	780.9654	879.4651	909.1536	943.6423	1004.1898	1049.0747	1160.135	1225.0081	1230.0838	1296.1636	1356.5827	1400.0982	1506.3411	1598.8323	1644.799	1691.2484	1740.2669	3463.057	3469.605	3509.544	3609.5344	3651.8494
NC1=C(O)NN=NC1=N	Nc1c(O)[nH]nnc1[NH]	
InChI=1S/C3H5N5O/c4-1-2(5)6-8-7-3(1)9/h(H2,4,8)(H3,5,6,7,9)	InChI=1S/C3H10N5O/c4-1-2(5)6-8-7-3(1)9/h1-3,5-9H,4H2
