17
gdb 114982	2.35001	1.61179	1.13289	4.0409	70.98	-0.2627	-0.0458	0.2169	1101.4174	0.136019	-459.004018	-458.995707	-458.994763	-459.037393	30.326	
C	 0.5692683538	 1.1009037546	-0.2986443822	-0.247783
O	 0.5881683288	-0.2792137417	 0.0393685927	-0.236893
C	 0.3776911822	-0.5394027063	 1.3895933508	 0.204864
C	 0.2428055038	-2.0493059915	 1.5582038319	-0.300729
C	 1.5863960108	-2.7136629574	 1.540092644	-0.053731
C	 2.6946637959	-2.0296969873	 1.8252602126	-0.170621
C	 2.6525171273	-0.6107328423	 2.2299265095	 0.415771
O	 3.6061386908	-0.0026660397	 2.6390555133	-0.334618
O	 1.4326172611	 0.0120577649	 2.1924283708	-0.255872
H	 1.3792994879	 1.6478536748	 0.1947149532	 0.142772
H	 0.6951402425	 1.1592744672	-1.3811272055	 0.133241
H	-0.3905999799	 1.5611699938	-0.0220300409	 0.110948
H	-0.5146027589	-0.0096741455	 1.7508354768	 0.085282
H	-0.271158713	-2.2725124778	 2.502394111	 0.133461
H	-0.3952803029	-2.425748122	 0.7533851375	 0.13602
H	 1.6321987605	-3.7738371193	 1.3069634623	 0.115927
H	 3.6815383891	-2.4758966545	 1.8324433525	 0.121961
85.12	100.8067	128.8965	197.4091	270.5427	324.2257	372.4593	441.0726	495.3785	575.7678	627.0223	655.9409	795.8773	831.0289	858.5883	912.6282	946.0179	1001.591	1013.1031	1039.3586	1058.6511	1149.394	1155.121	1183.3788	1204.9216	1231.5515	1257.7392	1365.9911	1388.9859	1409.9278	1419.0806	1456.4421	1481.5345	1485.8026	1512.2352	1702.9712	1829.9496	2999.7828	3011.974	3032.794	3081.0848	3090.6829	3136.4848	3169.5194	3216.6512
COC1CC=CC(=O)O1	CO[C@H]1CC=CC(=O)O1	
InChI=1S/C6H8O3/c1-8-6-4-2-3-5(7)9-6/h2-3,6H,4H2,1H3	InChI=1S/C6H8O3/c1-8-6-4-2-3-5(7)9-6/h2-3,6H,4H2,1H3/t6-/m1/s1
