21
gdb 63579	3.06435	1.26979	1.08292	1.4234	85.89	-0.2152	0.0317	0.2469	1207.9394	0.182009	-387.092142	-387.08318	-387.082236	-387.125345	35.167	
C	 0.0175066961	 1.5417785535	-0.2425358135	-0.446221
C	 0.0254335478	 0.0399088141	-0.0673581005	 0.344775
O	-1.0918068918	-0.6012176335	-0.6353940129	-0.463251
C	 1.3262614543	-0.7235770168	-0.0706849846	-0.411615
C	 0.5061395804	-0.5887437269	 1.2158188274	 0.301977
C	 0.9962049168	 0.2304265625	 2.4212414795	-0.303135
C	 0.9084195418	-0.7405993205	 3.6319358895	-0.266011
C	 0.041230214	-1.865376384	 3.1163255126	-0.092687
C	-0.1639891391	-1.780607257	 1.8021618837	-0.108213
H	 0.8846872769	 2.0088887234	 0.23166917	 0.119236
H	 0.0411099513	 1.8035733327	-1.3078092993	 0.1053
H	-0.8902625765	 1.9755275631	 0.1895427243	 0.126336
H	-1.0030237117	-0.5488406513	-1.5937180768	 0.278847
H	 1.3318281656	-1.6936620935	-0.5571172056	 0.108503
H	 2.2579983601	-0.1693077085	-0.1386425959	 0.104954
H	 2.0042158455	 0.6294425232	 2.2788520937	 0.096405
H	 0.3308263011	 1.0848574278	 2.5856824298	 0.10655
H	 1.8984343678	-1.1157906502	 3.9266775744	 0.10482
H	 0.4910271428	-0.2546839187	 4.5213105969	 0.101637
H	-0.3302254347	-2.6582185973	 3.7558848919	 0.088562
H	-0.7340330785	-2.471716822	 1.1952783652	 0.103231
86.433	153.265	177.6457	213.5108	248.6229	295.5573	353.2952	386.5228	408.4026	450.7559	495.2359	589.0319	675.1224	741.7816	779.57	813.3753	848.4688	896.5868	907.4446	918.5143	944.0649	974.6062	975.887	994.735	1035.4298	1060.746	1079.4792	1110.207	1151.252	1183.8373	1207.1404	1243.3956	1284.6257	1296.0661	1301.9305	1328.176	1369.7924	1406.3256	1422.7593	1475.0372	1481.5335	1486.3155	1502.5029	1505.2822	1680.0593	3008.8467	3023.6565	3038.855	3053.8247	3086.258	3088.9683	3115.2673	3118.5192	3191.2764	3209.4943	3228.6114	3788.8441
CC1(O)CC11CCC=C1	C[C@@]1(O)C[C@]21CCC=C2	
InChI=1S/C8H12O/c1-7(9)6-8(7)4-2-3-5-8/h2,4,9H,3,5-6H2,1H3	InChI=1S/C8H12O/c1-7(9)6-8(7)4-2-3-5-8/h2,4,9H,3,5-6H2,1H3/t7-,8-/m1/s1
