16
gdb 131287	4.96847	1.05555	0.91564	3.1362	70.7	-0.2311	0.0093	0.2405	1240.5589	0.126541	-434.077163	-434.069603	-434.068659	-434.109915	28.412	
O	-0.4469714712	 1.1796038435	-0.0665321818	-0.406743
C	-0.1509590923	-0.1261474897	-0.0256349232	 0.432253
N	-0.4287311045	-0.9261169297	-1.0381979742	-0.322133
N	 0.0232795859	-2.1302490206	-0.5641754203	 0.038171
C	 0.5404315052	-1.9662224987	 0.6667981435	 0.013405
N	 0.442585471	-0.7051297014	 1.0531473004	-0.366997
C	-0.000993791	-3.298685649	-1.3883580482	 0.046994
C	-0.4486421638	-4.6017689052	-0.7795424413	-0.28668
C	-1.3309446214	-3.8840473499	-1.7690404503	-0.25084
H	-0.1549260839	 1.5518921212	 0.7742001888	 0.310488
H	 0.9669372734	-2.7781540882	 1.2356364189	 0.146308
H	 0.7917929695	-3.3244784192	-2.1295439744	 0.119226
H	 0.0700669375	-5.5009341177	-1.0905384193	 0.128068
H	-0.7544606893	-4.5939793209	 0.25995512	 0.129585
H	-2.2112358309	-3.3809036859	-1.3886684529	 0.140791
H	-1.4302346542	-4.2845949186	-2.7706740057	 0.128102
52.7291	116.0202	181.0372	306.9468	377.3657	407.435	411.8154	526.964	605.5856	652.5268	759.6789	770.8122	787.7987	837.2926	859.3533	907.583	968.6166	1025.4184	1048.7998	1064.6366	1083.0329	1100.5799	1127.1578	1194.8591	1200.8192	1222.2457	1256.5915	1286.4024	1373.5291	1424.1981	1464.3253	1473.8478	1501.7471	1522.3281	1641.5524	3146.0753	3150.407	3155.155	3230.0874	3246.3963	3261.9728	3813.1684
OC1=NN(C=N1)C1CC1	Oc1nn(cn1)C1CC1	
InChI=1S/C5H7N3O/c9-5-6-3-8(7-5)4-1-2-4/h3-4H,1-2H2,(H,7,9)	InChI=1S/C5H7N3O/c9-5-6-3-8(7-5)4-1-2-4/h3-4H,1-2H2,(H,7,9)
