23
gdb 96591	2.26119	1.47914	1.04156	1.9318	82.48	-0.2367	0.0786	0.3153	1251.8679	0.206978	-425.421705	-425.412643	-425.411699	-425.455131	35.157	
C	 0.091339108	 1.6208672665	 0.0350976051	-0.398567
C	 0.007300388	 0.0959617187	 0.0094670475	 0.106747
C	 0.6669268795	-0.4544656278	-1.2712980877	-0.068682
O	 0.9906001359	-1.8234784934	-1.2397198592	-0.227701
C	-0.0768145582	-2.7439313612	-1.3346384478	-0.068355
C	-0.8801353782	-2.9513184527	-0.0344787474	-0.224879
C	-0.0329291928	-2.8222042504	 1.2473354262	-0.184755
C	-0.0049680654	-1.4229885595	 1.8793843858	-0.068787
O	 0.6691731952	-0.409335874	 1.1595488444	-0.248428
H	 1.1369905197	 1.9361652738	 0.1062793713	 0.128093
H	-0.341524497	 2.0562081989	-0.8719580998	 0.111053
H	-0.4448927247	 2.0198995534	 0.899946317	 0.119805
H	-1.0515240139	-0.1970160555	 0.0358120469	 0.066418
H	 0.0233503858	-0.2208012904	-2.1372379498	 0.078941
H	 1.6239223327	 0.0594669933	-1.4154686853	 0.105816
H	-0.7521320378	-2.4698486104	-2.1619350258	 0.084204
H	 0.4047546525	-3.6896910066	-1.6063367344	 0.107125
H	-1.7309323062	-2.2615823779	 0.015569523	 0.096646
H	-1.3200372345	-3.9541915814	-0.0895603311	 0.095127
H	-0.442053635	-3.4901956111	 2.0159404726	 0.090305
H	 0.9945093915	-3.1481639615	 1.0549641788	 0.116404
H	-1.0412633993	-1.1055967553	 2.0906560168	 0.080482
H	 0.5174304043	-1.4818081957	 2.8406329631	 0.102988
96.3285	139.4124	198.3769	215.3978	238.4489	291.4125	298.163	355.0955	378.8097	447.7783	499.2022	536.3473	588.7265	750.661	799.888	843.2982	856.6433	920.2313	936.0103	971.6657	989.7238	992.5546	1076.1151	1082.3293	1118.6926	1141.0504	1163.8246	1167.4644	1191.9137	1236.0842	1257.5384	1299.1161	1324.0036	1338.9476	1343.6375	1367.95	1383.5411	1393.2207	1402.9653	1412.5858	1424.1665	1428.57	1467.6886	1476.3548	1485.7351	1489.6524	1491.2552	1497.5221	1503.9158	2950.5467	2956.2529	2970.7104	3002.8687	3023.2966	3033.4425	3037.4628	3049.4559	3064.3151	3065.541	3073.5972	3085.4719	3109.0559	3120.6626
CC1COCCCCO1	C[C@H]1COCCCCO1	
InChI=1S/C7H14O2/c1-7-6-8-4-2-3-5-9-7/h7H,2-6H2,1H3	InChI=1S/C7H14O2/c1-7-6-8-4-2-3-5-9-7/h7H,2-6H2,1H3/t7-/m0/s1
