21
gdb 42120	2.22436	1.63996	1.03709	1.4078	85.28	-0.2367	0.0435	0.2802	1195.6299	0.18436	-387.058305	-387.049664	-387.048719	-387.091215	33.457	
C	 0.2462433646	 1.3060021735	 0.2965807844	-0.198707
C	 1.4963328714	 2.1680684374	-0.0173622509	-0.17334
C	 1.3555058711	 3.0342932951	-1.30028324	-0.343117
C	 1.0087718648	 2.1462153954	-2.4020814021	 0.0899
C	 0.6823575822	 1.1752548456	-3.0353569679	 0.044864
C	 0.2932760445	-0.1905060208	-3.3578951839	-0.341958
C	-0.1740159721	-0.8548981176	-2.0389791046	-0.058589
O	 0.8342748149	-0.7354412519	-1.0533871304	-0.236024
C	 0.4404091512	-0.2198091859	 0.2081826525	-0.062387
H	-0.0911992973	 1.5029161245	 1.3220934268	 0.092203
H	-0.5831931442	 1.6031297494	-0.3542549951	 0.106585
H	 1.7178092939	 2.8339447148	 0.8242135623	 0.09134
H	 2.3678166638	 1.518078377	-0.146593462	 0.116664
H	 0.5789535222	 3.7968545058	-1.1546603527	 0.12026
H	 2.289693551	 3.5773201143	-1.4865939242	 0.120406
H	-0.513228994	-0.2501454831	-4.0987500676	 0.116875
H	 1.1436311913	-0.75032669	-3.7655445298	 0.132796
H	-1.1060217373	-0.3764635064	-1.7125640501	 0.099323
H	-0.3843681793	-1.9199873205	-2.2171567321	 0.093589
H	 1.2397084477	-0.5212446387	 0.8956703798	 0.104229
H	-0.4831342303	-0.7141830278	 0.5497156176	 0.085086
131.1266	143.264	164.8738	214.1753	260.379	326.02	361.7321	370.1212	404.3271	476.7973	539.9729	567.0748	702.3451	765.2954	803.4355	838.8002	896.2859	939.5766	943.8242	991.7606	1020.7028	1064.8555	1071.152	1113.9002	1132.9202	1163.396	1203.959	1222.9851	1235.3838	1267.8235	1287.3844	1315.6317	1345.1485	1348.8352	1357.0071	1389.6665	1400.4979	1420.6808	1469.7113	1475.2389	1478.9358	1486.565	1490.5847	1506.4805	2358.1051	2974.7546	2990.356	3018.2935	3027.0384	3029.1682	3038.2444	3043.4537	3051.1156	3054.1726	3067.0086	3077.3181	3085.1634
C1CCC#CCCOC1	C1CCC#CCCOC1	
InChI=1S/C8H12O/c1-2-4-6-8-9-7-5-3-1/h1,3,5-8H2	InChI=1S/C8H12O/c1-2-4-6-8-9-7-5-3-1/h1,3,5-8H2
