14
gdb 56118	4.36366	0.77723	0.68943	4.4076	65.76	-0.2713	-0.0968	0.1745	1521.4946	0.099766	-470.059145	-470.049859	-470.048915	-470.094718	31.956	
N	-0.107463852	 1.2601926305	 0.2334013638	-0.560151
C	-0.0031149127	-0.1023383877	 0.044189494	 0.459738
O	 0.9631650395	-0.7553227118	 0.3883529513	-0.378642
N	-1.1181076817	-0.6657541119	-0.5675103306	-0.356939
C	-1.2247079283	-2.0998647815	-0.5848953205	-0.249804
C	-2.5540423231	-2.5603315549	-0.0327834793	 0.28292
O	-3.4283846447	-1.8200646356	 0.3444748038	-0.271159
C	-2.7411453217	-4.0229669338	-0.0143823615	 0.236919
N	-2.8727464869	-5.1715168697	-0.0041808454	-0.286566
H	 0.7650627298	 1.7008340724	 0.4795014482	 0.268549
H	-0.6913219922	 1.7913203082	-0.3938192513	 0.256703
H	-2.0003005741	-0.1866057975	-0.4454265528	 0.256228
H	-1.1272319801	-2.5255547956	-1.5967059403	 0.151826
H	-0.4033439317	-2.528390501	 0.0046320107	 0.19038
37.8217	57.1115	91.6875	165.0369	249.8622	280.1047	287.3336	401.0997	412.2223	483.353	533.1113	552.4737	575.6817	601.3483	681.5096	771.1669	833.0919	948.2263	1027.8611	1096.3482	1105.1825	1199.7564	1235.1151	1312.1962	1386.9317	1458.5716	1521.6239	1627.3061	1792.6341	1808.553	2341.3293	2987.9178	3052.6303	3583.7193	3589.6648	3702.7433
NC(=O)NCC(=O)C#N	NC(=O)NCC(=O)C#N	
InChI=1S/C4H5N3O2/c5-1-3(8)2-7-4(6)9/h2H2,(H3,6,7,9)	InChI=1S/C4H5N3O2/c5-1-3(8)2-7-4(6)9/h2H2,(H3,6,7,9)
