24
gdb 13403	5.20171	0.93739	0.84103	0.0794	85.35	-0.2977	0.0832	0.3809	1470.3482	0.224911	-314.299918	-314.290574	-314.289629	-314.335839	34.064	
C	 0.067544402	 1.5739321568	 0.1719212496	-0.378958
C	-0.0031241387	 0.051313776	 0.025248758	-0.168094
C	 0.6818565652	-0.4602556799	-1.2481923211	-0.182799
C	 0.6797377933	-1.9829693714	-1.4030200886	 0.051666
C	-0.7084523062	-2.6295925799	-1.5823379825	-0.19693
C	-0.4268115366	-4.0383840675	-2.1591349824	-0.206098
C	 0.9955703144	-3.9635582527	-2.7916921798	-0.206514
C	 1.4372424978	-2.4932010381	-2.6420830797	-0.210282
H	 1.1067835454	 1.9200496528	 0.2046519207	 0.111954
H	-0.4192969755	 2.0759492413	-0.6718223124	 0.112308
H	-0.4252493723	 1.9123502496	 1.0889192835	 0.108825
H	 0.4625467363	-0.4225009382	 0.9000301155	 0.091577
H	-1.0530415942	-0.2665795274	 0.0316720273	 0.097701
H	 0.1964398341	-0.0113190623	-2.1273739277	 0.08625
H	 1.7202554286	-0.1002270331	-1.2608729841	 0.086141
H	 1.1509956288	-2.4236066944	-0.5105232951	 0.062205
H	-1.2923794731	-2.664586616	-0.6583836538	 0.091893
H	-1.2854589098	-2.0332151558	-2.3018139087	 0.090029
H	-0.4525979717	-4.7924929909	-1.3664404413	 0.096274
H	-1.1868617543	-4.3314024767	-2.8888671252	 0.095056
H	 1.6845257017	-4.6200477027	-2.2501438256	 0.096036
H	 1.0066688653	-4.2928807729	-3.8344207979	 0.093489
H	 1.1216699016	-1.9096877872	-3.5175628478	 0.09018
H	 2.522503678	-2.3796771894	-2.5565997707	 0.088091
14.5571	79.5155	90.3754	124.8318	203.8167	248.2516	306.9613	356.943	436.2747	581.5693	628.3724	743.2537	764.3051	820.323	847.5752	884.5124	894.8901	902.2922	956.9351	967.8202	980.7533	1031.4825	1044.4962	1056.4735	1081.9699	1112.5821	1147.352	1205.6626	1212.1529	1232.7389	1257.3425	1271.1573	1291.2389	1305.0713	1321.5826	1331.4985	1337.5007	1342.5581	1358.2989	1386.0205	1399.5046	1410.2854	1481.2598	1485.996	1492.6935	1495.0204	1497.961	1499.1552	1510.2258	1519.5705	2980.0316	2995.5973	3015.6325	3016.5788	3022.3729	3027.2796	3027.9803	3041.4507	3054.3378	3055.3849	3072.0626	3080.2581	3087.2257	3094.4033	3099.262	3101.74
CCCC1CCCC1	CCCC1CCCC1	
InChI=1S/C8H16/c1-2-5-8-6-3-4-7-8/h8H,2-7H2,1H3	InChI=1S/C8H16/c1-2-5-8-6-3-4-7-8/h8H,2-7H2,1H3
