17
gdb 16540	2.87383	2.30115	1.57546	1.7501	67.88	-0.2276	-0.026	0.2016	853.712	0.142153	-363.833885	-363.826386	-363.825442	-363.86607	27.739	
C	 0.1586418059	 1.6358449466	 0.084424672	-0.416563
C	 0.1224797151	 0.1175797853	 0.040542771	-0.066256
N	 0.709261127	-0.6459586802	-1.1240602669	-0.148934
C	 2.0364823751	-0.1368893263	-1.6190018216	-0.170452
C	 2.8125856395	-1.2043335428	-0.8029727744	-0.249703
C	 1.4486505304	-1.5826791007	-0.1829420215	-0.094105
C	 1.0001483101	-0.7096399239	 1.0033435419	 0.358909
O	 1.2821908589	-0.6471451757	 2.1634206602	-0.292048
H	 1.1762407556	 2.0336008119	 0.11071453	 0.127446
H	-0.3588340268	 2.0590147823	-0.7822420957	 0.132771
H	-0.3509366385	 1.981504984	 0.9883831554	 0.139958
H	-0.9194869452	-0.2174515569	 0.1426757289	 0.114591
H	 2.1180644812	-0.229922983	-2.7049823898	 0.114656
H	 2.2581742992	 0.8997454517	-1.350413403	 0.106718
H	 3.2446316067	-2.0009699161	-1.4109291349	 0.119168
H	 3.5707197069	-0.8448231095	-0.104293185	 0.12181
H	 1.1558502187	-2.6357340667	-0.1508975367	 0.102033
55.3706	153.5011	171.6491	208.1318	289.6685	443.4489	478.0893	583.6228	639.4344	716.4709	755.9805	788.9434	855.591	904.8805	941.6748	956.6893	979.9437	1010.9323	1049.4395	1093.2392	1125.7503	1153.9563	1178.356	1189.3693	1222.9338	1247.8638	1257.1972	1287.393	1311.4039	1348.6356	1401.4536	1483.9066	1488.8236	1495.5805	1517.2648	1891.7377	3006.1025	3043.9837	3056.4601	3070.1787	3078.3309	3095.8002	3116.4362	3121.611	3130.7885
CC1N2CCC2C1=O	C[C@H]1N2CC[C@H]2C1=O	
InChI=1S/C6H9NO/c1-4-6(8)5-2-3-7(4)5/h4-5H,2-3H2,1H3	InChI=1S/C6H9NO/c1-4-6(8)5-2-3-7(4)5/h4-5H,2-3H2,1H3/t4-,5+/m1/s1
