18
gdb 103804	3.60981	0.9377	0.9123	2.325	68.8	-0.2514	0.0123	0.2637	1332.2359	0.145522	-476.237192	-476.227367	-476.226423	-476.272067	35.738	
C	 0.7984872438	 1.181345031	-0.4946621565	-0.468714
C	-0.1453368943	 0.1550079157	 0.0836997945	 0.354471
C	-1.42630348	-0.0708009141	-0.7022687723	-0.112574
O	-1.1508254741	-0.5659299498	-2.0005338009	-0.413682
O	 0.4453193325	-1.0959832121	 0.5176895476	-0.307453
C	-0.1342333289	-0.2366455929	 1.5084488005	-0.101475
C	 0.7837415547	 0.3885934484	 2.5353312914	 0.356575
N	 2.0929628491	 0.0517000641	 2.3929089181	-0.518721
O	 0.3430640806	 1.1198302139	 3.3999421524	-0.36074
H	 1.7424733099	 1.213390428	 0.049706578	 0.131447
H	 0.9912626085	 0.9441889396	-1.544275086	 0.140718
H	 0.3395059282	 2.1746178322	-0.4527527325	 0.13454
H	-2.0839295225	-0.7510754559	-0.1425896157	 0.097075
H	-1.9558022146	 0.8778333997	-0.8390795068	 0.120407
H	-0.7033019474	-1.4121490999	-1.8855868516	 0.293416
H	-1.0649397136	-0.589836799	 1.9507755457	 0.116071
H	 2.3535698335	-0.6512525329	 1.7213705047	 0.273095
H	 2.7521617846	 0.3621712141	 3.0871169796	 0.265543
67.6861	82.1604	133.5647	166.8444	206.4088	265.771	302.043	323.7141	360.5453	405.617	434.6732	495.6627	521.5878	576.593	648.3641	722.0301	753.9937	847.4786	914.6458	920.5446	944.3669	1049.1809	1067.2706	1094.4911	1100.8948	1115.351	1204.3672	1258.8874	1313.5644	1356.038	1388.3472	1414.4311	1421.7907	1448.841	1484.3763	1493.6318	1506.5859	1596.3949	1805.7379	3002.633	3050.4497	3082.2963	3116.4825	3125.729	3153.9459	3595.6099	3735.6623	3799.5696
CC1(CO)OC1C(N)=O	C[C@@]1(CO)O[C@H]1C(=O)N	
InChI=1S/C5H9NO3/c1-5(2-7)3(9-5)4(6)8/h3,7H,2H2,1H3,(H2,6,8)	InChI=1S/C5H9NO3/c1-5(2-7)3(9-5)4(6)8/h3,7H,2H2,1H3,(H2,6,8)/t3-,5-/m0/s1
