17
gdb 54040	2.15863	1.23957	0.91938	2.4186	80.72	-0.2477	-0.024	0.2237	1305.3998	0.130878	-384.641241	-384.630932	-384.629988	-384.677238	36.547	
C	-0.0480637317	 1.526713737	 0.1104833934	-0.481608
C	 0.1069152993	 0.027255318	-0.0081163223	 0.402279
O	 1.1749477152	-0.5265673178	-0.0581188919	-0.28958
C	-1.2190803157	-0.7858563597	-0.0525558345	-0.271227
C	-0.9937528806	-2.1883175438	-0.6744341178	-0.353925
C	-0.759064761	-2.1188346414	-2.1104942869	 0.300091
C	-0.5881237005	-2.0334131378	-3.2969232578	-0.445535
C	-1.7447931097	-0.8704240245	 1.3063290963	 0.312048
C	-2.147272641	-0.9454324615	 2.4368158879	-0.445649
H	 0.9184989926	 1.9882224941	 0.3144445316	 0.146564
H	-0.4460998584	 1.9223578038	-0.8318701026	 0.14892
H	-0.7661305963	 1.7790554883	 0.8965406986	 0.151591
H	-1.9348295842	-0.231353384	-0.672428806	 0.125083
H	-0.1348972694	-2.6454863824	-0.1738678416	 0.160594
H	-1.8696167501	-2.8111482926	-0.4665028388	 0.138831
H	-0.421878188	-1.976442145	-4.3440497116	 0.197576
H	-2.5149509705	-1.0123761406	 3.431031694	 0.203948
46.8572	65.6256	112.7544	129.2927	146.1481	224.808	250.189	337.6261	360.1919	399.696	490.0467	517.1757	573.0031	609.9079	619.8139	627.3023	655.4131	657.0582	752.5266	920.3462	950.0985	979.0646	1002.7057	1038.4323	1079.6313	1170.9085	1222.9742	1261.8646	1321.0712	1351.0309	1380.7027	1459.3096	1463.229	1474.9763	1830.6576	2230.6927	2241.2325	3031.5961	3039.0647	3053.9299	3097.9781	3105.1583	3157.2879	3502.5606	3506.7616
CC(=O)C(CC#C)C#C	CC(=O)[C@@H](CC#C)C#C	
InChI=1S/C8H8O/c1-4-6-8(5-2)7(3)9/h1-2,8H,6H2,3H3	InChI=1S/C8H8O/c1-4-6-8(5-2)7(3)9/h1-2,8H,6H2,3H3/t8-/m1/s1
