19
gdb 76135	2.23072	1.31992	1.14421	13.9049	75.49	-0.1742	-0.0295	0.1447	1174.6198	0.159181	-456.286637	-456.27707	-456.276126	-456.320739	35.683	
C	 0.039804053	 1.6329807734	-0.1263211563	-0.476738
C	 0.0809790321	 0.135102379	-0.0111523049	 0.206685
N	-1.2035728438	-0.475451845	-0.5430137945	-0.431927
H	-1.3755752067	-0.2020588364	-1.5158225351	 0.318385
H	-1.1607321005	-1.4955599166	-0.4908998453	 0.322497
H	-2.0011378859	-0.1668338055	 0.0228643951	 0.323327
C	 1.2973064439	-0.7179425643	-0.2389856186	-0.013642
N	 2.5341251852	-0.0755129279	-0.5855949155	-0.529327
C	 0.664970275	-0.6322033365	 1.1562952051	-0.249516
C	 1.3748549538	 0.1491743303	 2.318657989	 0.381252
O	 2.1271480822	 1.0827098255	 1.9275467869	-0.481578
O	 1.0984845508	-0.2574708245	 3.4456679346	-0.447655
H	 0.9006183841	 2.0142439303	 0.4303797999	 0.222137
H	 0.0907453213	 1.9661924745	-1.1696262732	 0.113655
H	-0.8637450788	 2.0450470556	 0.3421064682	 0.108808
H	 1.1273118395	-1.6437505265	-0.7907298115	 0.06794
H	 2.757994616	 0.5353008996	 0.2151387122	 0.267929
H	 3.2626103236	-0.7827947569	-0.6195040766	 0.227451
H	 0.1004502954	-1.4990044581	 1.4980370004	 0.070317
65.2984	157.517	182.4981	202.2877	223.609	263.668	269.8482	333.304	351.1663	379.0914	425.5587	463.1444	511.823	642.0491	746.6467	782.9991	807.8777	837.8335	869.8965	939.5175	964.6424	992.5247	1022.9948	1055.3228	1100.7342	1113.6938	1158.8023	1199.7389	1253.954	1278.6522	1324.5862	1373.4846	1410.8583	1451.3673	1463.1775	1494.5406	1508.5616	1634.3083	1647.8415	1667.1371	1778.9585	3007.5483	3074.8126	3083.0492	3112.0009	3112.9738	3277.866	3372.159	3453.5375	3494.8661	3532.238
CC1([NH3+])C(N)C1C([O-])=O	C[C@@]1([NH3])[C@@H](N)[C@H]1C(=O)[O]	
InChI=1S/C5H10N2O2/c1-5(7)2(3(5)6)4(8)9/h2-3H,6-7H2,1H3,(H,8,9)	InChI=1S/C5H10N2O2/c1-5(7)2(3(5)6)4(8)9/h2-3H,6H2,1,7H3/t2-,3-,5-/m0/s1
