18
gdb 42063	2.36287	1.81165	1.13963	2.1669	80.5	-0.2404	-0.0263	0.2141	1065.9859	0.149419	-401.934567	-401.926802	-401.925858	-401.966675	30.141	
C	 0.0493969287	 1.4795904502	 0.0408852082	-0.133111
O	 1.4092708293	 2.0014714021	-0.000187768	-0.241159
C	 1.7484671827	 2.7281868196	-1.108731878	 0.098864
N	 1.9259746864	 2.3171861217	-2.2889684008	-0.213576
C	 1.7892424895	 0.8868004513	-2.567717461	-0.218578
C	 0.4175991761	 0.5209236473	-3.0833015084	-0.040429
C	-0.4744515838	-0.2333687955	-2.4299587509	-0.097896
C	-0.3177808347	-0.7512621607	-1.063751213	-0.078835
C	-0.033260227	-0.019699105	 0.0214424275	-0.05516
H	-0.3769756769	 1.8587357044	 0.9755873689	 0.11515
H	-0.5151727852	 1.8980592803	-0.7956102067	 0.125728
H	 1.915519264	 3.7838854859	-0.8822959721	 0.110159
H	 2.5178207853	 0.6530070032	-3.3537337852	 0.109817
H	 2.026555814	 0.2795312679	-1.6880190743	 0.117851
H	 0.1805783932	 0.8644576367	-4.0874068902	 0.102535
H	-1.3844273103	-0.5286523824	-2.9514476423	 0.098698
H	-0.4742234326	-1.8224849673	-0.9370219657	 0.101516
H	 0.0899381713	-0.5225409896	 0.977214122	 0.098426
115.0754	177.1263	199.5099	246.5832	322.4158	331.5158	421.1855	459.	520.3695	609.3026	701.318	735.2213	776.563	791.3576	893.7007	936.954	943.9849	974.2546	996.8777	997.9461	1007.1496	1014.0573	1088.3566	1090.6899	1119.3012	1237.9466	1252.0551	1278.6034	1307.8484	1352.641	1387.8188	1405.7603	1411.835	1445.1612	1492.7319	1502.471	1690.9971	1698.1989	1721.2838	3020.9729	3043.7663	3073.8283	3104.8381	3107.0995	3121.0439	3130.0424	3164.1507	3166.2669
C1OC=NCC=CC=C1	C1OC=NCC=CC=C1	
InChI=1S/C7H9NO/c1-2-4-6-9-7-8-5-3-1/h1-4,7H,5-6H2/b3-1-,4-2-,8-7-	InChI=1S/C7H9NO/c1-2-4-6-9-7-8-5-3-1/h1-4,7H,5-6H2/b3-1-,4-2-,8-7-
