19
gdb 18165	3.69558	1.47299	1.30432	1.3336	71.69	-0.2293	0.0733	0.3026	1007.6918	0.165185	-364.999423	-364.991155	-364.990211	-365.03215	30.827	
C	-0.5374874457	 1.2174628684	-0.0921935116	-0.313067
N	-0.0928848341	-0.124508885	 0.2438954663	-0.06532
C	 1.177626235	-0.6772813897	-0.1479585501	-0.043467
C	 2.3478923802	 0.3215087511	-0.0202195959	-0.275377
C	 2.0354839146	 0.4475059266	 1.5061588298	 0.041495
C	 1.8942122876	 1.7979970731	 2.1851850818	-0.108003
O	 3.1989797133	 2.357863196	 2.2810543137	-0.422676
C	 0.8130477162	-0.4782565594	 1.3109170509	-0.096416
H	 0.2611046724	 1.9576386502	-0.2324996546	 0.107828
H	-1.110315355	 1.1670945532	-1.0244081069	 0.120784
H	-1.20735268	 1.5789523937	 0.6943655103	 0.120208
H	 1.1893391153	-1.5887066876	-0.7367747115	 0.090712
H	 3.3206311734	-0.1341631595	-0.2121454697	 0.108777
H	 2.2741967933	 1.2341081775	-0.619067695	 0.101827
H	 2.7991057809	-0.1067397391	 2.0625715235	 0.089524
H	 1.2237344379	 2.4631459946	 1.6240262039	 0.085485
H	 1.4478637019	 1.6523484489	 3.1834973725	 0.084046
H	 3.1231413199	 3.231975712	 2.6746000425	 0.285467
H	 0.4679073129	-1.202745945	 2.0424845902	 0.088174
75.4094	124.9764	182.8731	221.7341	266.188	272.5303	347.2397	416.7505	455.2162	591.6263	707.8544	762.6598	816.0041	852.9467	880.7233	913.5726	972.0586	1013.2985	1036.529	1049.7888	1073.0344	1099.6629	1107.1372	1150.5379	1167.2357	1185.1902	1209.0683	1244.626	1260.4758	1262.4712	1276.7062	1294.9714	1371.5587	1392.8299	1452.3338	1458.628	1479.431	1499.8256	1503.912	1521.9435	2960.5576	3004.854	3020.2573	3053.9006	3061.964	3070.9966	3099.4598	3119.3597	3150.5997	3165.4392	3828.8123
CN1C2CC(CO)C12	CN1[C@H]2C[C@@H](CO)[C@@H]12	
InChI=1S/C6H11NO/c1-7-5-2-4(3-8)6(5)7/h4-6,8H,2-3H2,1H3	InChI=1S/C6H11NO/c1-7-5-2-4(3-8)6(5)7/h4-6,8H,2-3H2,1H3/t4-,5-,6+,7?/m0/s1
