17
gdb 29129	3.13254	1.35166	0.9505	2.9742	82.94	-0.1835	-0.0147	0.1688	1202.94	0.138127	-418.092571	-418.084328	-418.083384	-418.125016	32.046	
C	-0.0062787472	 1.557232531	 0.0018638586	-0.490506
C	-0.0050660008	 0.0518038626	-0.0101527303	 0.267512
C	-0.030073732	-0.6519840277	-1.1717821723	-0.091775
N	-0.0255653885	-2.028639579	-1.1468534281	-0.375452
C	 0.0046907831	-2.81385607	-0.0122716262	 0.409565
O	 0.0343655556	-4.0418416126	-0.0630740409	-0.425277
C	 0.0116586381	-2.0517558469	 1.2413420238	 0.185731
N	-0.0236249656	-2.8453804728	 2.3657207692	-0.577693
C	 0.018539415	-0.6829153648	 1.2162936748	-0.253444
H	 0.88374223	 1.9546773713	 0.504107223	 0.127904
H	-0.0252100933	 1.9633569797	-1.0131477925	 0.120248
H	-0.8779493467	 1.9530291821	 0.5364012535	 0.129632
H	-0.0529580817	-0.1955754028	-2.1525930718	 0.118545
H	-0.0260801415	-2.5497831056	-2.0121464353	 0.258285
H	 0.2066344236	-3.8101336546	 2.16590121	 0.265746
H	 0.3673502055	-2.4712278145	 3.2150910901	 0.248041
H	 0.0356267465	-0.1318515754	 2.1535331945	 0.082937
121.9266	146.1567	201.3885	278.2604	333.3415	340.9876	392.6989	434.5322	467.7522	507.1176	559.9547	588.9812	610.958	694.5359	714.6215	788.7656	801.79	810.3604	891.329	988.3101	1008.0504	1065.7649	1112.5086	1176.2982	1198.9622	1273.0385	1323.8058	1386.2423	1418.5715	1462.5695	1465.0555	1479.4536	1500.537	1589.7692	1633.2874	1687.6069	1750.9425	3023.4577	3072.6375	3109.8803	3152.8419	3215.3979	3552.8907	3614.3144	3683.0551
CC1=CNC(=O)C(N)=C1	Cc1c[nH]c(=O)c(N)c1	
InChI=1S/C6H8N2O/c1-4-2-5(7)6(9)8-3-4/h2-3H,7H2,1H3,(H,8,9)	InChI=1S/C6H8N2O/c1-4-2-5(7)6(9)8-3-4/h2-3H,7H2,1H3,(H,8,9)
