20
gdb 59033	2.6822	1.29275	1.08372	3.7191	82.45	-0.2401	-0.0191	0.221	1219.7871	0.171274	-403.212277	-403.203018	-403.202073	-403.246269	34.491	
C	-0.0036241371	 1.5516701402	 0.0026383314	-0.397392
C	-0.0000517416	 0.0106955741	 0.0298382454	-0.079113
C	 0.7695200479	-0.516730975	 1.2566061118	-0.397389
C	-1.4023909635	-0.5296162247	 0.0032738301	 0.254248
C	-1.9944405685	-1.3051657071	-0.9106002119	-0.230787
C	-3.4198996182	-1.6074784377	-0.5301627061	-0.206355
N	-3.5498033702	-0.8978364765	 0.7196258192	-0.326696
C	-2.4009998728	-0.2420350793	 1.0930492335	 0.363259
O	-2.2516980757	 0.4242836621	 2.1005990012	-0.394587
H	 1.0224889469	 1.9334909057	 0.0031965386	 0.107199
H	-0.5063893412	 1.9302245026	-0.8929782715	 0.106887
H	-0.5218541649	 1.9443202017	 0.8808571226	 0.151753
H	 0.5061827847	-0.3490461661	-0.8756725072	 0.070878
H	 0.8170456427	-1.610318695	 1.253453488	 0.106883
H	 1.7945999825	-0.1321432899	 1.2555313254	 0.107198
H	 0.2780209197	-0.1956754323	 2.1782118529	 0.151758
H	-1.5492538963	-1.6900085655	-1.8197106147	 0.109459
H	-4.1294577385	-1.2476647773	-1.2900492578	 0.124654
H	-3.5906443682	-2.6883108444	-0.4160455602	 0.124657
H	-4.3829972278	-0.8695309757	 1.2816059994	 0.253488
74.6727	103.6763	155.0162	186.8119	243.1963	267.4525	310.2916	314.4438	425.2308	430.6779	501.0772	509.3146	642.6267	731.9918	799.9814	802.2846	841.9284	882.1906	934.5543	958.1569	968.4911	1015.2091	1030.58	1085.9463	1121.1881	1172.0612	1183.8691	1201.294	1228.5122	1316.0751	1331.9561	1340.4313	1383.1543	1391.2975	1413.6682	1426.5529	1486.6315	1500.5964	1501.5642	1502.6138	1520.4768	1697.5798	1799.3394	2993.8033	3013.269	3013.8763	3034.8935	3038.6329	3100.426	3103.3381	3129.1355	3133.4696	3211.2337	3673.6452
CC(C)C1=CCNC1=O	CC(C)C1=CCNC1=O	
InChI=1S/C7H11NO/c1-5(2)6-3-4-8-7(6)9/h3,5H,4H2,1-2H3,(H,8,9)	InChI=1S/C7H11NO/c1-5(2)6-3-4-8-7(6)9/h3,5H,4H2,1-2H3,(H,8,9)
