23
gdb 101846	3.6878	0.66565	0.59223	1.6703	83.61	-0.2516	0.0846	0.3362	1928.3881	0.20303	-425.399478	-425.388662	-425.387718	-425.436672	38.128	
C	-0.278638186	 1.3872186126	 0.1097956524	-0.233469
O	 0.0186509341	 0.016235774	-0.0007895057	-0.244813
C	 0.750945618	-0.5313622887	 1.0920916173	 0.134928
C	-0.1366609071	-0.7459444581	 2.3211667511	-0.403505
C	 1.3652598134	-1.8408497664	 0.5966541215	-0.182911
C	 2.3275573163	-1.6538480388	-0.5827332566	-0.222337
C	 2.9043587479	-2.9618715274	-1.0617683247	 0.094895
C	 4.2859969322	-3.0912129034	-1.5387002555	-0.180862
O	 3.9171108491	-3.5555634323	-0.238931256	-0.240296
H	 0.630512303	 1.9898400574	 0.2647953973	 0.101759
H	-0.7450291666	 1.6925626328	-0.8306441342	 0.125065
H	-0.978420046	 1.6071175732	 0.9292481052	 0.105892
H	 1.5658810505	 0.166309625	 1.3561311241	 0.060546
H	-0.955197445	-1.4324403759	 2.0822279047	 0.122542
H	 0.4458059723	-1.1736468301	 3.1432286441	 0.117236
H	-0.5702412398	 0.1930358983	 2.6769597607	 0.114461
H	 1.8962746373	-2.3209109359	 1.4261644077	 0.110998
H	 0.5486192655	-2.5149515919	 0.3065257714	 0.100549
H	 1.7966073239	-1.1658885564	-1.4073058871	 0.116447
H	 3.1516516643	-0.9919724864	-0.2888421247	 0.093953
H	 2.1753986983	-3.6833801303	-1.4380353127	 0.088351
H	 4.5455093268	-3.867167798	-2.2579995777	 0.111072
H	 4.9298369777	-2.2122016136	-1.5554778427	 0.1095
50.4236	60.9989	75.3001	126.9761	131.5968	195.4911	220.1596	247.8291	295.509	331.8565	415.2899	448.5451	492.3101	536.0876	751.5414	802.8037	831.2461	872.6788	915.1328	952.1104	964.3018	1035.9249	1047.1143	1077.6314	1115.3109	1119.0559	1147.7369	1159.1475	1170.6049	1179.2643	1187.0757	1208.4192	1253.4089	1275.4135	1296.6297	1325.0219	1354.0465	1381.9861	1401.1361	1405.0406	1449.8013	1468.9445	1477.6013	1481.6991	1486.9951	1493.5771	1503.2945	1513.6052	1532.1189	2942.0299	2974.4774	3022.3742	3023.7693	3033.4702	3039.8634	3068.5071	3077.8927	3081.784	3094.8221	3106.7547	3111.2229	3113.6273	3163.6843
COC(C)CCC1CO1	CO[C@@H](C)CC[C@H]1CO1	
InChI=1S/C7H14O2/c1-6(8-2)3-4-7-5-9-7/h6-7H,3-5H2,1-2H3	InChI=1S/C7H14O2/c1-6(8-2)3-4-7-5-9-7/h6-7H,3-5H2,1-2H3/t6-,7-/m0/s1
