15
gdb 50475	4.44504	1.04115	0.86916	2.4313	62.35	-0.2679	-0.0532	0.2147	1235.1214	0.111384	-494.927958	-494.919767	-494.918823	-494.961738	28.699	
O	-0.9097010613	 1.3045629122	-0.0846198987	-0.237217
C	 0.1902292448	 0.8204671633	-0.1027189885	 0.138845
C	 1.4660406498	 1.6379855949	 0.0407470135	-0.008879
C	 1.317503568	 2.7604426949	 1.0536880958	-0.06702
O	 2.5558173692	 3.4642376638	 1.242913381	-0.226822
C	 3.7409291171	 2.8355293696	 1.0798590434	 0.387569
O	 4.7668400036	 3.4034117505	 1.3284283795	-0.314347
C	 3.7424670927	 1.4207744606	 0.5004552463	-0.218448
O	 2.4913161356	 0.7618247736	 0.4571642231	-0.258399
H	 0.3714081828	-0.2676010573	-0.2321526608	 0.110981
H	 1.6988300781	 2.0644013168	-0.9536098672	 0.112333
H	 0.5846033218	 3.4975561732	 0.7226167791	 0.149196
H	 0.9961390367	 2.3507523952	 2.0175201238	 0.133327
H	 4.1793891118	 1.5006527919	-0.5081312969	 0.138631
H	 4.4165599894	 0.8124398369	 1.1063056968	 0.160249
57.7119	90.6515	147.9682	179.8755	203.9076	369.5783	425.9273	462.4336	515.3654	552.8587	596.0432	731.6575	773.4566	861.0374	924.9019	1014.9345	1062.7491	1076.7122	1103.2948	1128.0653	1156.4439	1232.1933	1260.6118	1270.4065	1319.8655	1351.3	1376.4594	1406.5712	1424.9166	1468.2227	1500.7629	1838.5351	1856.358	2920.1124	2935.0972	2987.8884	3053.9217	3121.3871	3131.6725
O=CC1COC(=O)CO1	O=C[C@H]1COC(=O)CO1	
InChI=1S/C5H6O4/c6-1-4-2-9-5(7)3-8-4/h1,4H,2-3H2	InChI=1S/C5H6O4/c6-1-4-2-9-5(7)3-8-4/h1,4H,2-3H2/t4-/m0/s1
