21
gdb 102451	1.60045	1.34716	0.92639	1.2665	79.89	-0.2472	-0.0934	0.1538	1404.4569	0.178941	-424.256238	-424.245308	-424.244364	-424.293398	37.777	
C	 0.0365508217	 1.475717015	-0.0219611004	-0.39305
C	-0.0283000022	-0.0528005604	-0.0901607282	-0.194292
C	-1.4612695439	-0.6278089314	 0.0967662175	-0.071482
C	-2.3833036247	-0.3581243599	-1.1005754958	-0.181993
C	-3.8502380172	-0.7127509841	-0.8357601018	-0.396005
C	-1.3147032256	-2.1129181055	 0.360300612	 0.284841
O	-1.4331331268	-2.9872768045	-0.4683822534	-0.292578
C	-0.9575121368	-2.5525133065	 1.7919234247	 0.096277
O	-0.8746697449	-1.8014528314	 2.7276895937	-0.223341
H	 1.069923049	 1.8191721643	-0.1304684746	 0.119419
H	-0.5514625946	 1.9496893249	-0.8131286432	 0.124524
H	-0.3372405179	 1.8406775009	 0.9404605897	 0.125254
H	 0.3660295907	-0.4087367245	-1.0499720194	 0.111313
H	 0.6269710145	-0.4627837743	 0.6869455394	 0.111288
H	-1.8723156777	-0.1786001098	 1.0099358801	 0.100201
H	-2.3110261291	 0.7001806875	-1.3709551142	 0.097484
H	-2.0141687076	-0.9319352283	-1.957655046	 0.115806
H	-3.9694939337	-1.7779106212	-0.6157539863	 0.128098
H	-4.2497171882	-0.1450704634	 0.0121528944	 0.11429
H	-4.4701124223	-0.4857197768	-1.7082603149	 0.116824
H	-0.8024649628	-3.6499340604	 1.8708792163	 0.10712
38.8276	68.3225	92.9198	120.0251	162.1392	167.6705	200.9662	242.0057	268.5983	329.03	343.4202	433.0289	518.2209	587.562	643.6635	722.0061	768.6455	846.5058	883.7141	926.9373	1006.7622	1026.6902	1033.4707	1054.5049	1109.6437	1118.4151	1145.2229	1193.7392	1271.8102	1293.8231	1333.1135	1354.8542	1363.5641	1369.6831	1397.2791	1411.2327	1415.9019	1479.2231	1485.8168	1498.8395	1500.7579	1505.3852	1508.3602	1795.502	1822.839	2917.6925	3027.2511	3034.7707	3035.5738	3038.8737	3046.378	3066.5905	3080.5204	3103.6045	3106.6682	3112.1228	3115.2161
CCC(CC)C(=O)C=O	CCC(CC)C(=O)C=O	
InChI=1S/C7H12O2/c1-3-6(4-2)7(9)5-8/h5-6H,3-4H2,1-2H3	InChI=1S/C7H12O2/c1-3-6(4-2)7(9)5-8/h5-6H,3-4H2,1-2H3
