19
gdb 14131	3.56762	1.59346	1.45275	2.0735	70.58	-0.2331	0.0607	0.2939	959.488	0.165111	-365.014643	-365.006382	-365.005438	-365.047446	31.203	
C	-0.0244930228	 1.5819825969	 0.17981922	-0.416122
C	-0.0391664715	 0.0642959813	-0.0000505797	 0.016681
O	 0.8544841874	-0.5851254721	 0.9053338744	-0.425439
C	-1.4211787644	-0.5393371767	 0.0959859596	 0.36577
C	-1.8416113074	-1.6979496764	-0.7146251987	-0.286737
N	-2.455226661	-0.3865223511	-1.0129921721	-0.174032
C	-3.5018213928	-0.1994583651	 0.0543499824	-0.143348
C	-2.4560603348	-0.2726911896	 1.1974069065	-0.332636
H	 0.9905313004	 1.9650038406	 0.045922537	 0.124793
H	-0.6836749505	 2.0612340254	-0.5501130131	 0.134555
H	-0.3630299213	 1.8678130633	 1.1830585664	 0.104618
H	 0.3511215221	-0.1728369026	-0.9964945887	 0.094868
H	 0.6001947142	-0.3295813482	 1.7988753561	 0.278671
H	-1.1652373544	-2.0375817171	-1.4930626888	 0.121282
H	-2.4605415468	-2.4805859322	-0.2786949251	 0.106026
H	-3.9720224008	 0.78017834	-0.0504543274	 0.111602
H	-4.2798070789	-0.9700483199	 0.0396944806	 0.105153
H	-2.5719653661	-1.0553307206	 1.9527898126	 0.104317
H	-2.3267754209	 0.6856431841	 1.703838488	 0.109978
45.3232	148.0776	223.2152	246.0807	268.1897	284.279	335.1687	449.16	474.0558	514.6811	664.8439	748.9114	781.2575	828.1581	849.7255	911.7079	936.0862	967.9881	999.8819	1009.5628	1072.3361	1087.3813	1100.9367	1111.0004	1124.098	1194.8616	1221.2672	1246.5139	1259.0178	1289.1278	1317.2536	1343.0954	1394.3295	1403.1679	1418.442	1484.4927	1492.7969	1494.7463	1497.0096	1517.6978	3029.0815	3045.7	3047.173	3058.2453	3094.8725	3099.8638	3104.1159	3122.2209	3124.6108	3192.1692	3801.3544
CC(O)C12CN1CC2	C[C@@H](O)[C@]12CN1CC2	
InChI=1S/C6H11NO/c1-5(8)6-2-3-7(6)4-6/h5,8H,2-4H2,1H3	InChI=1S/C6H11NO/c1-5(8)6-2-3-7(6)4-6/h5,8H,2-4H2,1H3/t5-,6+,7?/m1/s1
