15
gdb 87037	1.5094	1.30316	0.84506	7.6207	80.15	-0.1936	-0.0312	0.1624	1378.6651	0.105265	-453.891206	-453.882439	-453.881495	-453.925725	31.208	
N	-1.3899383401	 2.0989583444	 0.7086136338	-0.644611
H	-1.2162307677	 2.323846501	-0.3070447178	 0.257977
H	-0.6220904573	 2.5738552588	 1.2778261618	 0.331529
H	-2.2946512199	 2.5784956188	 0.9587654047	 0.260672
C	-1.365883684	 0.1611133376	 1.2219610054	-0.110839
C	 0.0433281465	-0.3580126765	 0.9465463623	-0.325294
C	-0.5935947262	-0.1314136157	 2.2975596276	 0.153077
C	-0.4612695233	-0.2482779056	 3.6924313761	 0.152319
N	-0.3340399393	-0.3260139426	 4.8882483741	-0.432993
C	 1.3850664991	 2.6000552661	 2.9344131965	 0.649915
O	 2.2072983116	 2.0190849684	 3.6276619455	-0.270959
O	 0.5882556474	 3.2353816521	 2.2389696615	-0.343074
H	-2.3757556008	-0.0275762197	 0.8339892881	 0.132462
H	 0.1823675914	-1.3823817557	 0.5595295182	 0.112148
H	 0.7945544126	 0.3471775987	 0.5460122522	 0.077669
-166.0846	51.2931	89.2524	137.7837	224.8858	244.0829	262.134	332.7636	348.8391	440.5577	597.0665	605.6975	622.3669	667.7029	747.0513	791.6979	799.3859	836.3645	924.9701	1007.3263	1028.4334	1074.4658	1084.8939	1101.3389	1118.7664	1149.2471	1342.9306	1506.2375	1594.8279	1688.5244	1706.7346	1865.5948	2018.3857	2920.8282	2954.4498	2983.2968	3050.9971	3113.1929	3171.6133
[NH3+]C1CC1(C#N)C([O-])=O	N.[CH]1C[C]1C#N.C(=O)=O	
InChI=1S/C5H6N2O2/c6-2-5(4(8)9)1-3(5)7/h3H,1,7H2,(H,8,9)	InChI=1S/C4H3N.CO2.H3N/c5-3-4-1-2-4;2-1-3;/h1H,2H2;;1H3
