23
gdb 83230	2.43188	1.56476	1.34523	1.378	84.79	-0.2407	0.0774	0.3181	1118.2656	0.205571	-388.2974	-388.288217	-388.287273	-388.330307	36.514	
C	-0.2165462838	 1.5202559839	-0.1092071158	-0.426359
C	 0.0271963909	 0.0294427618	 0.025669186	-0.02753
C	 1.3629427487	-0.6325247058	-0.2204611106	-0.085002
C	 2.6030832602	 0.232248393	-0.0743371955	-0.108005
O	 2.4840766695	 0.8986838057	 1.1803299867	-0.294124
C	 1.6943684258	 0.0922157872	 2.0796578943	 0.362245
C	 2.6084476688	-0.8948317836	 2.8254371508	-0.413966
C	 1.0219534978	 1.0430735618	 3.0698311089	-0.425029
C	 0.7447125599	-0.6735187101	 1.1602583328	-0.081334
H	 0.6385694474	 2.1092461282	 0.2242076233	 0.144849
H	-0.4188088158	 1.7738540639	-1.1562319828	 0.108553
H	-1.0914566652	 1.8284193305	 0.4741471877	 0.113163
H	-0.8061579185	-0.5629395361	-0.347893925	 0.081878
H	 1.4252366106	-1.5103347065	-0.8540189289	 0.082256
H	 3.5066282081	-0.3963975503	-0.1100886596	 0.092346
H	 2.704376759	 1.0078008375	-0.8423564864	 0.103722
H	 3.3756514821	-0.3458735364	 3.3791699603	 0.118458
H	 2.0369927825	-1.5008372872	 3.5363844798	 0.109522
H	 3.1071709838	-1.5751980294	 2.1287611719	 0.113494
H	 0.3705357881	 1.7535886642	 2.5591145765	 0.122723
H	 0.4207137661	 0.4782638994	 3.789083004	 0.110207
H	 1.7779494895	 1.6061411403	 3.6256591773	 0.119161
H	 0.3104016947	-1.5865428719	 1.5534829843	 0.078772
152.6176	179.8987	190.7279	228.3682	233.3656	252.8451	279.7608	339.611	377.3871	410.4687	463.9918	570.9572	599.7589	724.1122	743.4343	776.8916	822.323	858.8358	922.625	930.8653	954.0577	977.2679	1001.4877	1006.8608	1032.2492	1073.9285	1081.3499	1109.7939	1127.637	1142.381	1198.4101	1204.6432	1225.9082	1233.6124	1260.905	1339.4044	1367.9442	1375.3702	1395.3069	1414.7534	1416.4271	1441.2188	1477.213	1482.1271	1495.8881	1500.0698	1507.2682	1513.2984	1524.5086	2979.3635	3030.656	3035.4062	3047.004	3051.6351	3081.4425	3104.3719	3110.8645	3115.3032	3116.2667	3142.8624	3146.9865	3160.6803	3172.4573
CC1C2COC(C)(C)C12	C[C@H]1[C@H]2COC(C)(C)[C@@H]12	
InChI=1S/C8H14O/c1-5-6-4-9-8(2,3)7(5)6/h5-7H,4H2,1-3H3	InChI=1S/C8H14O/c1-5-6-4-9-8(2,3)7(5)6/h5-7H,4H2,1-3H3/t5-,6+,7-/m0/s1
