18
gdb 24689	3.648	1.50211	1.09375	2.7582	84.48	-0.2447	-0.0145	0.2302	1088.5905	0.152456	-364.895559	-364.888824	-364.88788	-364.926617	27.169	
C	 0.1161244564	 1.4357580389	-0.3622823549	-0.208794
C	 1.3976131816	 1.9976073276	 0.3058416463	-0.332206
C	 2.139743989	 0.7489447506	 0.722976937	 0.295036
C	 3.4633268494	 0.5710374776	 1.0995961595	-0.265909
C	 3.8684292436	-0.7184570827	 1.4471405698	 0.014611
N	 3.0642344227	-1.7853330772	 1.4423168417	-0.278682
C	 1.7887218972	-1.5962860571	 1.0822659684	-0.108114
C	 1.2837467711	-0.3558056175	 0.7152188312	 0.245319
C	-0.1111260692	 0.0491863584	 0.2945053162	-0.33526
H	-0.7435838765	 2.1017617467	-0.2580502787	 0.102063
H	 0.2985140212	 1.301656924	-1.433706279	 0.111274
H	 1.9791894708	 2.6439460847	-0.3583320171	 0.113482
H	 1.1500456259	 2.5981383	 1.191869908	 0.118269
H	 4.1714688637	 1.3932303302	 1.1199929445	 0.094323
H	 4.8995032605	-0.9022560862	 1.7410043203	 0.10458
H	 1.1545475823	-2.4810866752	 1.0834766023	 0.101537
H	-0.7649129939	 0.1340162982	 1.1732255572	 0.115465
H	-0.5863531757	-0.667456581	-0.3819692928	 0.113005
141.088	183.271	255.8619	377.101	415.9946	525.7688	529.2312	598.1893	635.6555	748.5237	774.0576	849.3221	850.3536	866.6073	897.438	917.4635	960.82	986.3016	1006.6366	1060.1173	1064.8783	1139.6496	1153.5153	1196.9994	1210.5973	1232.773	1251.3154	1281.0044	1298.8384	1334.2587	1337.6253	1348.1331	1449.2486	1478.2374	1482.2153	1502.3854	1513.6883	1609.9166	1636.7411	3016.0531	3017.6212	3049.3287	3077.7788	3080.4412	3106.5308	3139.8882	3149.2133	3181.787
C1CC2=CC=NC=C2C1	C1Cc2ccncc2C1	
InChI=1S/C8H9N/c1-2-7-4-5-9-6-8(7)3-1/h4-6H,1-3H2	InChI=1S/C8H9N/c1-2-7-4-5-9-6-8(7)3-1/h4-6H,1-3H2
