20
gdb 22214	2.03198	1.23547	0.9975	0.4858	83.4	-0.2481	0.0056	0.2536	1307.5804	0.167337	-403.080472	-403.069933	-403.068988	-403.115752	38.904	
C	 0.919183601	-1.0005942309	 0.8974775168	-0.424591
C	 0.0167202125	-0.0379121592	 0.1130654478	-0.03949
C	 0.6523865869	 0.3609699343	-1.236163823	-0.394551
C	-1.387425008	-0.5707621094	-0.1034826484	 0.364466
C	-1.6841154659	-2.0614862959	-0.1475801566	-0.422667
C	-1.0113348905	-2.77050121	-1.234703127	 0.328513
C	-0.4662425519	-3.3629157984	-2.1275166906	-0.47503
N	-2.4247786986	 0.1608028649	-0.259991404	-0.177189
O	-2.1260171193	 1.5325123524	-0.2118693138	-0.397175
H	 1.8919350701	-0.5312553805	 1.0746462393	 0.115443
H	 0.4930860364	-1.2536517018	 1.8739980071	 0.11332
H	 1.095431992	-1.9301062665	 0.3476732637	 0.132825
H	-0.1010655283	 0.8799303677	 0.6987072319	 0.106771
H	 0.7749555345	-0.5120914969	-1.8830780751	 0.131034
H	 0.0289018458	 1.0936021965	-1.7534754096	 0.132659
H	 1.6391012257	 0.8053741744	-1.0682428958	 0.108266
H	-1.3973283304	-2.5205746676	 0.8074454098	 0.139978
H	-2.7680693369	-2.1764734546	-0.2450694802	 0.149493
H	 0.0102689714	-3.8871005525	-2.9185671476	 0.200607
H	-2.9970960465	 1.929496184	-0.3152878847	 0.307317
68.4384	82.7312	121.0923	209.0109	226.4815	247.2834	275.8203	283.7929	313.1549	355.7045	373.3906	418.0278	458.185	463.912	610.4167	621.5402	640.5254	671.7877	758.797	901.7984	925.347	938.5341	947.8477	973.7554	1013.7502	1079.5358	1129.8058	1191.4651	1212.141	1275.8497	1318.3227	1340.4766	1347.5487	1395.1738	1407.9796	1420.8347	1453.5064	1491.5334	1494.5513	1505.9168	1516.3918	1717.8183	2235.4742	3023.5659	3034.5713	3040.6525	3051.8964	3082.6949	3100.0213	3109.8414	3114.3097	3132.2499	3504.5898	3822.8184
CC(C)C(CC#C)=NO	CC(C)C(=NO)CC#C	
InChI=1S/C7H11NO/c1-4-5-7(8-9)6(2)3/h1,6,9H,5H2,2-3H3	InChI=1S/C7H11NO/c1-4-5-7(8-9)6(2)3/h1,6,9H,5H2,2-3H3
