16
gdb 110785	2.69395	1.57563	1.32073	4.6225	64.25	-0.2512	0.0438	0.2949	1002.9021	0.124866	-475.03163	-475.023795	-475.022851	-475.064342	28.974	
C	 0.243339466	 0.8865053814	 0.3675471416	-0.240989
O	-0.1810256819	-0.0705269372	-0.5965004477	-0.236474
C	-1.3986335144	-0.6441168233	-0.2982671242	 0.060925
C	-1.6012468014	-2.0950849191	-0.6936385863	-0.103642
N	-0.4258378153	-2.8824177199	-0.8913358859	-0.353724
C	 0.4063836391	-2.8447694261	 0.2155089827	 0.478262
O	 1.5237005296	-3.2561933666	 0.3208881506	-0.377655
O	-0.2836412786	-2.2447408867	 1.250502624	-0.237496
C	-1.4973796554	-1.7200700615	 0.7690214937	 0.019048
H	 1.2147796281	 1.256309644	 0.0344753608	 0.138141
H	-0.4606684856	 1.7284398745	 0.4278471134	 0.110096
H	 0.346745485	 0.4296759299	 1.3584745847	 0.136304
H	-2.2741538321	 0.0023676963	-0.3881360884	 0.098714
H	-2.5136683571	-2.4301216538	-1.1725081469	 0.117806
H	 0.0310500238	-2.9324569179	-1.7883047384	 0.269319
H	-2.3058169299	-1.7719918039	 1.4869604061	 0.121362
85.721	128.0413	165.1503	192.3302	284.7023	333.3831	472.3961	508.5247	608.7046	660.4259	720.598	758.9411	774.2833	794.6513	813.3918	908.205	967.9647	1014.7984	1078.2777	1082.3313	1090.4113	1140.6537	1143.9936	1180.8261	1193.3347	1219.1849	1258.8124	1352.9481	1367.3326	1385.1935	1427.6329	1486.7525	1488.8021	1503.532	1905.2305	3001.7923	3072.4972	3084.4465	3134.8325	3177.1914	3198.0035	3643.8108
COC1C2NC(=O)OC12	CO[C@H]1[C@H]2NC(=O)O[C@@H]12	
InChI=1S/C5H7NO3/c1-8-3-2-4(3)9-5(7)6-2/h2-4H,1H3,(H,6,7)	InChI=1S/C5H7NO3/c1-8-3-2-4(3)9-5(7)6-2/h2-4H,1H3,(H,6,7)/t2-,3+,4-/m1/s1
