13
gdb 131762	2.77359	1.53123	0.9926	1.382	62.72	-0.2641	-0.0753	0.1888	1085.2381	0.088421	-489.863346	-489.855533	-489.854589	-489.896359	27.619	
O	 0.0307498784	 1.4104518984	 0.0075179916	-0.400121
C	-0.0219560022	 0.0086144826	 0.0021485381	-0.142507
C	-1.4459417798	-0.4708873938	 0.012758981	 0.223085
N	-2.3920369392	 0.39817812	 0.0238684497	-0.114398
O	-3.6957631331	-0.1307432628	 0.0333222637	-0.201891
C	-3.8689206033	-1.4550171051	 0.0305558929	 0.174433
N	-2.9807753374	-2.3751388961	 0.0197203243	-0.314204
C	-1.6514011623	-1.9487772139	 0.0093005509	 0.365548
O	-0.7086476393	-2.7086050476	-0.0017048839	-0.324267
H	 0.9563029015	 1.6708114414	-0.002831953	 0.299847
H	 0.4591474204	-0.4399842178	-0.8823014124	 0.134523
H	 0.4746569326	-0.4472487896	 0.8742439611	 0.134524
H	-4.9327660562	-1.6868147859	 0.0391660361	 0.165428
70.5405	106.3799	195.2359	220.709	274.302	347.1668	412.777	486.3392	505.5683	598.7715	608.4485	742.5283	811.798	899.6809	919.3186	988.8542	1015.9588	1042.1438	1117.6234	1207.0181	1238.8976	1244.466	1322.5962	1419.8483	1466.2837	1487.8405	1625.448	1663.923	1792.81	2978.1304	2997.5313	3163.645	3839.7413
OCC1=NOC=NC1=O	OCc1nocnc1=O	
InChI=1S/C4H4N2O3/c7-1-3-4(8)5-2-9-6-3/h2,7H,1H2	InChI=1S/C4H4N2O3/c7-1-3-4(8)5-2-9-6-3/h2,7H,1H2
