19
gdb 111961	2.76042	1.29073	1.05007	2.5535	77.43	-0.242	-0.0135	0.2284	1224.6805	0.159564	-419.268198	-419.259001	-419.258057	-419.303122	32.943	
C	-0.1557758484	 1.5622202088	 0.0267631516	-0.37874
C	 0.0365324259	 0.0438108851	 0.0238300977	-0.165121
N	 0.6842229661	-0.4478268301	-1.181076106	-0.097436
C	 0.1025164141	-0.691774564	-2.4226239423	 0.058446
N	 0.8817756571	-1.0840803713	-3.3546434664	-0.263553
C	 2.2244253074	-1.1407161195	-2.7545593312	-0.092155
C	 3.2427158593	-0.2812978531	-3.5064369239	-0.383499
C	 2.0496114654	-0.6964612745	-1.2949109251	 0.397078
O	 2.8688767423	-0.5689975491	-0.4146543371	-0.384941
H	 0.8091832373	 2.0705115742	-0.0502970463	 0.14292
H	-0.783829689	 1.8865239643	-0.8090564147	 0.12256
H	-0.6379161679	 1.8791557056	 0.9564674804	 0.125852
H	 0.6783516343	-0.2582783826	 0.8560201583	 0.146756
H	-0.9244605115	-0.4695582307	 0.1375834878	 0.117529
H	-0.967820871	-0.548376219	-2.5406117365	 0.134311
H	 2.5643091397	-2.1844926616	-2.7569390952	 0.125287
H	 2.9107147216	 0.7600792863	-3.5507305269	 0.124102
H	 4.206752148	-0.3176890797	-2.9924866342	 0.138718
H	 3.3618304796	-0.6471723191	-4.52864716	 0.131887
34.2304	78.0588	132.022	203.1639	218.1325	240.6777	301.1266	310.6203	398.6977	500.3926	571.517	638.6246	705.7293	735.9207	788.3195	837.818	903.1672	934.7135	944.2742	1014.3125	1072.0841	1092.3234	1104.9254	1109.1049	1148.9401	1241.5087	1267.8004	1297.6798	1310.3703	1376.2744	1383.2604	1399.4794	1409.5405	1418.9674	1479.9655	1487.4482	1493.6735	1496.9121	1502.8871	1675.0347	1826.9815	3033.4016	3041.6725	3047.4203	3048.5609	3098.2954	3116.8187	3123.4305	3127.4407	3136.3774	3180.3348
CCN1C=NC(C)C1=O	CCN1C=N[C@@H](C)C1=O	
InChI=1S/C6H10N2O/c1-3-8-4-7-5(2)6(8)9/h4-5H,3H2,1-2H3	InChI=1S/C6H10N2O/c1-3-8-4-7-5(2)6(8)9/h4-5H,3H2,1-2H3/t5-/m0/s1
