17
gdb 106659	2.85174	1.24672	1.02175	1.9282	71.86	-0.2421	0.0076	0.2497	1179.7071	0.135215	-455.096229	-455.087324	-455.08638	-455.130155	33.117	
O	 0.1674847267	 1.3219287058	-0.2830573264	-0.410304
C	 0.0304540737	-0.0329750557	 0.1323743515	-0.165385
C	-1.3839603872	-0.5174063249	 0.095115977	 0.241025
C	-2.1208931932	-1.0624600265	-1.0981605266	-0.361161
C	-1.984816552	-1.9453730583	 0.1238827724	 0.287428
O	-1.4345760215	-3.1944202677	 0.0125059489	-0.445278
C	-2.8842216421	-1.4501389367	 1.2116201541	 0.296033
N	-3.6986082243	-2.0433743034	 1.969422564	-0.546335
N	-2.3390012112	-0.1212981085	 1.152919844	-0.40635
H	-0.2155800717	 1.8730007986	 0.4071553912	 0.284869
H	 0.632911355	-0.6273899878	-0.5614931885	 0.121805
H	 0.437759085	-0.1776325102	 1.1434057901	 0.099106
H	-3.0847862688	-0.6587022035	-1.3980925864	 0.115022
H	-1.4897721123	-1.3905829314	-1.9198312351	 0.135335
H	-1.328142054	-3.5511204232	 0.9024564034	 0.301735
H	-4.1070938746	-1.4035383291	 2.6535071259	 0.221251
H	-2.9906215174	 0.6310919126	 0.9415587704	 0.231204
57.5138	106.9478	137.7435	213.0817	288.2833	309.5598	336.4098	370.4554	401.981	470.7724	529.5655	626.8038	694.9565	708.7332	784.2216	798.9886	865.8201	874.9715	912.949	950.8548	989.7858	1037.2105	1056.8134	1074.9879	1088.4525	1146.6898	1244.021	1279.2801	1313.4715	1327.8731	1382.7847	1392.0721	1415.4399	1427.1895	1484.5881	1498.6527	1798.2743	3001.9868	3087.0177	3107.206	3199.6975	3461.7484	3486.4086	3794.5365	3815.7902
OCC12CC1(O)C(=N)N2	OC[C@@]12C[C@]1(O)[C]([NH])N2	
InChI=1S/C5H8N2O2/c6-3-5(9)1-4(5,2-8)7-3/h8-9H,1-2H2,(H2,6,7)	InChI=1S/C5H8N2O2/c6-3-5(9)1-4(5,2-8)7-3/h8-9H,1-2H2,(H2,6,7)/t4-,5-/m0/s1
