18
gdb 74325	3.55853	0.97941	0.80855	1.6087	79.57	-0.243	0.0248	0.2678	1411.658	0.146522	-401.941308	-401.932133	-401.931189	-401.976062	33.06	
C	 0.0883878951	 1.480908742	 0.0538895567	-0.471685
C	-0.0167009593	-0.0034869755	-0.0195910611	 0.406273
N	-1.0577136596	-0.7001793995	 0.1927019062	-0.300188
C	-0.6796432862	-2.1067600749	 0.0033295177	 0.007443
C	-1.5564128204	-2.7929589278	-1.0659755711	-0.362513
C	-2.9462689825	-2.9571114808	-0.6639428715	 0.315527
C	-4.0868986744	-3.1111929286	-0.3195195358	-0.439516
C	 0.8211280668	-2.0466520848	-0.3972129421	-0.132329
O	 1.1436584845	-0.6430533312	-0.3475746994	-0.252169
H	 0.8306303839	 1.7704977307	 0.8043735695	 0.145976
H	 0.4230736593	 1.8850812063	-0.9065543741	 0.145133
H	-0.880807944	 1.904439687	 0.3139899863	 0.154589
H	-0.8187121028	-2.6414262066	 0.9494239899	 0.098814
H	-1.4987441658	-2.2059325419	-1.9914925114	 0.131509
H	-1.1239935176	-3.7772578568	-1.2913387581	 0.127057
H	-5.0976801556	-3.2332477945	-0.0188946995	 0.194021
H	 1.4799269254	-2.5784339523	 0.2940018263	 0.119223
H	 1.0090944731	-2.4089149009	-1.4142655887	 0.112833
50.286	81.2645	135.2847	143.5447	192.0326	284.8447	343.6576	374.7749	392.0918	502.0948	615.917	628.678	640.7323	660.648	747.5602	860.2218	896.1593	922.3782	960.4217	1009.4209	1028.7876	1042.0724	1067.0373	1088.9411	1119.8002	1214.101	1238.0445	1260.5643	1304.0685	1333.9171	1373.4919	1386.0582	1416.2986	1463.1752	1475.6558	1476.2457	1520.6039	1741.3988	2243.0183	3013.6214	3036.8854	3040.6343	3051.5863	3056.805	3095.9267	3108.8482	3167.9982	3508.251
CC1=NC(CC#C)CO1	CC1=N[C@@H](CC#C)CO1	
InChI=1S/C7H9NO/c1-3-4-7-5-9-6(2)8-7/h1,7H,4-5H2,2H3	InChI=1S/C7H9NO/c1-3-4-7-5-9-6(2)8-7/h1,7H,4-5H2,2H3/t7-/m0/s1
