18
gdb 37257	3.17932	2.16865	1.73542	1.3131	76.32	-0.2133	0.0677	0.281	834.9344	0.150869	-364.722162	-364.716282	-364.715338	-364.75189	26.324	
C	-0.0082434502	 1.5699546446	-0.0843042845	-0.308752
C	 1.2933366409	 0.7995913233	-0.0245554727	-0.054174
C	 2.0257273578	 0.6846979315	 1.2755070786	-0.061241
C	 1.3162900159	 0.6690694213	 2.6047482523	-0.111369
C	 1.9929751712	-0.5902790272	 2.0961489641	-0.099334
C	 0.6019829336	-1.2983448275	 2.0258827097	-0.059634
C	-0.0694853194	-0.0613314509	 2.5243453444	-0.078998
N	-0.3887335622	-0.5942040692	 1.2168868073	-0.098052
C	-0.0214117613	 0.0703632398	-0.0091353804	 0.02034
H	-0.3057015008	 2.1288000373	 0.7969265754	 0.117658
H	-0.2904083731	 2.0234619098	-1.0277398111	 0.110253
H	 1.9067511393	 0.7596939451	-0.9190585375	 0.08094
H	 2.9882059991	 1.188284248	 1.3164994262	 0.090938
H	 1.6049454629	 1.2981328013	 3.4368144834	 0.087229
H	 2.8851320305	-1.075660389	 2.4685419929	 0.087288
H	 0.4354071773	-2.3420518574	 2.2655805234	 0.092685
H	-0.8646907622	 0.0689259191	 3.2497235852	 0.093817
H	-0.3403549093	-0.48381782	-0.8861137867	 0.090407
256.8656	272.6438	488.6027	502.7236	571.019	581.421	670.5252	723.9709	735.7814	760.3038	771.894	819.5387	861.9945	887.1713	904.6725	914.7475	931.8009	936.8883	995.6513	1020.1335	1027.3832	1032.7351	1054.9819	1066.1655	1075.7061	1093.7458	1120.4879	1142.2798	1154.2578	1205.3821	1231.9567	1262.2555	1266.8009	1295.4294	1352.8689	1377.0652	1402.7883	1434.4807	1483.4755	3132.4606	3137.4043	3147.6202	3156.3313	3166.017	3178.6661	3191.048	3203.9705	3221.6017
C1C2C3C4C3C3C4N3C12	C1[C@H]2[C@H]3[C@@H]4[C@H]3[C@H]3[C@@H]4N3[C@@H]12	
InChI=1S/C8H9N/c1-2-3(1)9-7-5-4(2)6(5)8(7)9/h2-8H,1H2	InChI=1S/C8H9N/c1-2-3(1)9-7-5-4(2)6(5)8(7)9/h2-8H,1H2/t2-,3+,4-,5+,6-,7+,8-,9?/m1/s1
