15
gdb 97709	2.80534	0.82757	0.6974	1.7262	72.77	-0.2638	-0.0464	0.2174	1581.1322	0.10905	-457.701519	-457.691998	-457.691054	-457.737974	32.334	
O	 0.3371020382	 0.94455158	-0.826873589	-0.397632
C	 0.0207058802	 0.062533852	 0.2388427193	-0.20837
C	-1.3329415382	-0.4864820327	 0.1599823959	 0.186908
C	-2.4616678789	-0.8988874438	 0.0825041528	-0.032824
C	-3.8101963668	-1.382918985	 0.0180610589	 0.089407
C	-4.3908878836	-1.8515253639	-1.2726807062	-0.204448
O	-4.0107877802	-2.7837986358	-0.2863701274	-0.247304
C	-4.80670314	-0.8787166362	 1.0317383545	 0.110904
O	-4.6231366159	 0.0455776684	 1.7739386847	-0.234253
H	-0.3179696169	 1.6505111257	-0.8236983692	 0.291231
H	 0.7522480629	-0.7510127145	 0.1829469052	 0.149473
H	 0.1552193216	 0.5448102888	 1.2195317279	 0.130207
H	-5.4622462241	-1.7492686992	-1.4456551268	 0.129144
H	-3.7549469973	-1.795928837	-2.1536379556	 0.144472
H	-5.7503200911	-1.4673278469	 1.0171808949	 0.093085
19.7022	78.3374	94.5331	125.3042	205.3488	244.2667	289.2279	350.3251	362.4279	446.5218	486.1992	553.0601	600.8929	690.9243	821.4502	881.3074	922.8111	978.7345	1027.9909	1036.6114	1071.9983	1138.373	1163.5135	1214.8967	1277.2437	1343.0837	1365.9194	1415.3787	1417.1039	1484.7445	1513.8011	1841.9665	2363.9072	2900.3639	2987.7036	3068.7824	3083.82	3183.4359	3815.5278
OCC#CC1(CO1)C=O	OCC#C[C@]1(CO1)C=O	
InChI=1S/C6H6O3/c7-3-1-2-6(4-8)5-9-6/h4,7H,3,5H2	InChI=1S/C6H6O3/c7-3-1-2-6(4-8)5-9-6/h4,7H,3,5H2/t6-/m1/s1
