14
gdb 5678	5.28943	2.1791	1.55835	3.875	70.57	-0.2032	-0.0213	0.182	762.9391	0.111501	-341.629269	-341.623701	-341.622757	-341.658777	22.074	
C	-0.0590915994	 1.4705540364	 0.0105720617	-0.243286
C	 1.4024884595	 1.8803350144	-0.0010975639	-0.103644
C	 2.1975770221	 0.7957195234	-0.0146880751	-0.206687
C	 1.3738832279	-0.3978078495	-0.0134545819	 0.324862
C	 1.3252819626	-1.7724606909	-0.0205160739	-0.213364
N	 0.0140582802	-2.1929466857	-0.010233977	-0.274053
C	-0.7226317278	-1.0976575685	 0.0027197199	-0.006322
N	 0.0539146542	 0.0172362685	 0.0014135642	-0.031312
H	-0.5880282092	 1.8264332698	 0.9033768695	 0.140566
H	-0.6049199397	 1.8362818	-0.8679720392	 0.140563
H	 1.7118600388	 2.9159857286	 0.0016776183	 0.113458
H	 3.278272779	 0.7928247501	-0.0250151659	 0.120188
H	 2.1416127363	-2.4776649398	-0.0321756999	 0.110017
H	-1.8017023246	-1.0652001469	 0.0131853931	 0.129014
183.6931	245.89	442.8371	443.9652	650.0145	667.5681	675.8938	743.6269	754.3718	803.7273	826.3439	868.2272	935.6885	945.6387	967.9134	992.6904	1090.6995	1132.4417	1179.0691	1189.9088	1246.9122	1258.6028	1312.8456	1347.0809	1365.348	1410.2382	1474.0963	1507.6881	1586.7074	1625.6172	3026.6845	3057.1841	3228.3082	3249.3315	3250.5316	3255.8186
C1C=CC2=CN=CN12	C1C=Cc2cncn12	
InChI=1S/C6H6N2/c1-2-6-4-7-5-8(6)3-1/h1-2,4-5H,3H2	InChI=1S/C6H6N2/c1-2-6-4-7-5-8(6)3-1/h1-2,4-5H,3H2
