18
gdb 52865	2.70461	1.08478	0.82804	3.6864	83.09	-0.2379	0.0305	0.2685	1408.5507	0.145846	-401.957396	-401.947237	-401.946293	-401.994223	35.821	
C	 0.085794204	 1.4603551235	 0.1378372257	-0.507846
C	 0.0688292472	 0.0056065266	 0.0690678687	 0.228889
C	 0.0376712812	-1.1998226771	 0.0227996181	-0.163936
C	 0.0166223907	-2.6353364562	-0.0421632662	 0.063256
C	-0.5567446007	-3.420192024	 1.1432024293	-0.283462
C	-1.3364044893	-3.3515527859	-0.1211714387	-0.28346
C	 1.137929806	-3.3505980943	-0.772508908	 0.382203
N	 2.0841165811	-2.5423110898	-1.3126527014	-0.570258
O	 1.1686769929	-4.5663668031	-0.8569839977	-0.381736
H	 0.9990930781	 1.8304285986	 0.6170068769	 0.148651
H	 0.0248429562	 1.9119474126	-0.8586685847	 0.148756
H	-0.7643278886	 1.833060594	 0.7199563916	 0.153657
H	-0.0449266741	-4.3486425035	 1.3652060047	 0.146171
H	-0.8825206009	-2.8328739492	 1.9928504147	 0.124936
H	-2.2121928989	-2.7158027131	-0.1635175898	 0.124947
H	-1.3489018111	-4.2338520553	-0.7493896396	 0.14615
H	 2.0258669823	-1.5424216563	-1.2238855572	 0.263904
H	 2.8497021237	-2.9659143873	-1.8085797063	 0.259179
16.6538	62.8396	91.8984	133.6055	209.5953	252.8803	269.8096	301.3581	312.4388	425.4196	447.6158	519.165	541.8581	614.1859	644.9379	762.4876	788.7339	833.6967	869.0003	960.2521	978.0983	1051.4742	1055.5814	1068.1942	1075.5847	1100.5414	1101.121	1209.2973	1234.2592	1338.9344	1375.1871	1416.1456	1443.9364	1475.2413	1476.7498	1479.8142	1603.1186	1783.1704	2356.0666	3025.6665	3084.9191	3088.0805	3148.8601	3150.1381	3241.5935	3255.2701	3602.2133	3741.1701
CC#CC1(CC1)C(N)=O	CC#CC1(CC1)C(=O)N	
InChI=1S/C7H9NO/c1-2-3-7(4-5-7)6(8)9/h4-5H2,1H3,(H2,8,9)	InChI=1S/C7H9NO/c1-2-3-7(4-5-7)6(8)9/h4-5H2,1H3,(H2,8,9)
