16
gdb 46193	3.14229	1.61343	1.21963	1.4037	69.69	-0.2367	-0.0393	0.1975	996.8698	0.123948	-437.797131	-437.789919	-437.788975	-437.828867	28.151	
O	-0.1212169948	-0.0018738333	-0.1876828629	-0.293098
C	-0.106776555	 1.1794064236	-0.008784118	 0.296622
C	-1.1595915786	 2.2663589857	 0.2770553207	-0.282226
N	-0.0355241758	 3.2063909616	 0.5147480898	-0.398524
C	 0.9686193234	 2.2738075737	 0.0097500911	 0.329763
C	 2.4311445401	 2.2409756772	 0.5128975781	-0.015182
C	 2.8239399287	 1.394437421	-0.7183027047	-0.236786
C	 1.9359479694	 2.567843435	-1.1831624538	-0.028217
O	 2.6857020088	 3.4743532913	-0.2848083353	-0.325106
H	-1.7851747221	 2.4705288955	-0.603183059	 0.126464
H	-1.8083625897	 2.1012220881	 1.1432697425	 0.135925
H	-0.0777674018	 4.1039361655	 0.049441498	 0.235629
H	 2.7986100453	 2.2175934022	 1.5380132747	 0.105631
H	 3.8700899232	 1.4876605546	-1.0083202161	 0.114356
H	 2.4264374682	 0.3808356571	-0.7949520199	 0.133416
H	 1.7033654306	 2.9246767713	-2.1874098851	 0.101334
116.8996	149.8541	173.5477	332.145	359.9113	461.9363	531.8562	591.8378	615.0719	665.3122	732.0143	775.6287	811.2884	869.198	881.2376	915.5834	980.0751	1010.0437	1020.3488	1036.5708	1063.3675	1088.7731	1120.6828	1129.3597	1171.3079	1172.6333	1200.1578	1213.5715	1258.948	1282.7588	1291.7124	1359.463	1480.4261	1481.4293	1905.4543	3011.673	3075.6528	3080.9505	3112.9694	3134.2245	3168.0599	3572.7684
O=C1CNC11C2CC1O2	O=C1CN[C@]21[C@H]1C[C@@H]2O1	
InChI=1S/C6H7NO2/c8-3-2-7-6(3)4-1-5(6)9-4/h4-5,7H,1-2H2	InChI=1S/C6H7NO2/c8-3-2-7-6(3)4-1-5(6)9-4/h4-5,7H,1-2H2/t4-,5+,6-
