16
gdb 44031	3.23202	1.70086	1.56326	3.1558	74.03	-0.2249	-0.0468	0.1781	894.2701	0.123855	-400.586524	-400.579793	-400.578849	-400.617542	27.26	
O	 0.0207809053	-0.0070888905	-0.172387497	-0.262717
C	-0.0141701828	 1.1743412254	-0.0539841262	 0.315449
C	-1.1637881563	 2.2209828716	 0.2698613245	-0.441152
C	-0.0404405116	 3.1148818516	 0.8484383067	 0.175935
C	 0.7613401253	 2.8706106314	 2.1248288522	-0.213715
N	 1.9175684101	 3.0835360769	 1.1424301161	-0.197398
C	 1.056225576	 4.1531097771	 0.3844953776	-0.047083
C	 1.2685823243	 3.4740358697	-0.9661731229	-0.288092
C	 1.0235757677	 2.3478646425	 0.0497002685	 0.133195
H	-1.6139547419	 2.6029846865	-0.6514711454	 0.14283
H	-1.9580728389	 1.8715591761	 0.9339813641	 0.139374
H	 0.7187259717	 3.6280629928	 2.9138099572	 0.105254
H	 0.753456313	 1.8649043181	 2.5602729178	 0.114583
H	 1.1580458452	 5.2030780434	 0.6719764043	 0.091125
H	 0.4992529494	 3.632124471	-1.725217043	 0.110044
H	 2.2741233134	 3.5267577862	-1.3894464945	 0.122368
88.1165	258.8934	306.0365	391.618	427.3406	441.5821	545.3641	552.3002	656.8158	719.2702	783.6457	825.6342	857.9419	867.5851	892.808	920.2481	941.1575	987.791	1010.8999	1023.3866	1055.2828	1104.7829	1134.2906	1141.5431	1154.1668	1176.9544	1188.669	1216.4025	1234.399	1260.4726	1282.2336	1429.4215	1487.9221	1519.0814	1888.5486	3035.0807	3061.3013	3065.5754	3081.5024	3094.8484	3122.1265	3133.1226
O=C1CC23CN4C2CC134	O=C1C[C@]23CN4[C@H]2C[C@]134	
InChI=1S/C7H7NO/c9-5-2-6-3-8-4(6)1-7(5,6)8/h4H,1-3H2	InChI=1S/C7H7NO/c9-5-2-6-3-8-4(6)1-7(5,6)8/h4H,1-3H2/t4-,6-,7-/m0/s1
