16
gdb 28236	4.72335	1.23267	0.99554	0.8599	72.56	-0.1796	0.036	0.2157	1149.3198	0.12634	-437.897463	-437.889768	-437.888824	-437.930038	28.764	
N	 0.0159942059	 1.3706978515	-0.0968579674	-0.594966
C	-0.1179584753	-0.0087810919	-0.0211363466	 0.290757
C	-1.2119661953	-0.8231405584	-0.0143938541	-0.382905
C	-0.7260367575	-2.1710659391	 0.06035987	 0.16334
C	 0.6145480282	-2.0468586725	 0.1013301607	 0.428093
O	 1.3800228123	-3.1442851069	 0.2129691869	-0.284847
C	 0.403939405	-4.2390657787	 0.1337975712	-0.08966
C	-1.0479631272	-3.6335796229	 0.1853011518	-0.37768
O	 1.0645569475	-0.7970220623	 0.0546004276	-0.232155
H	 0.4827001063	 1.7700539118	 0.711478521	 0.244313
H	 0.5073298507	 1.6790885648	-0.9301993853	 0.244159
H	-2.22904113	-0.4669788082	-0.0645582152	 0.110972
H	 0.5877743955	-4.7607702153	-0.8094342391	 0.124513
H	 0.6175282865	-4.9156535966	 0.962931128	 0.125883
H	-1.5536305222	-3.8885474993	 1.1250806769	 0.114901
H	-1.6599771005	-4.039095706	-0.6275936962	 0.115282
66.0658	143.4458	162.544	269.4693	303.4934	324.3414	500.3851	554.7985	599.07	698.3216	713.7841	736.6389	758.288	821.8851	830.9392	838.2077	899.5613	927.1152	976.2243	1074.8338	1124.1095	1173.3398	1186.5754	1203.9856	1211.1821	1245.1207	1282.3136	1361.8032	1403.4229	1485.552	1503.5723	1522.6126	1632.7136	1672.5843	1693.712	3017.8424	3049.9269	3066.137	3122.64	3258.083	3488.8159	3551.395
NC1=CC2=C(OCC2)O1	Nc1cc2c(OCC2)o1	
InChI=1S/C6H7NO2/c7-5-3-4-1-2-8-6(4)9-5/h3H,1-2,7H2	InChI=1S/C6H7NO2/c7-5-3-4-1-2-8-6(4)9-5/h3H,1-2,7H2
