13
gdb 26623	2.47898	1.91565	1.0806	2.9327	67.78	-0.2052	-0.0429	0.1623	1004.4692	0.090383	-489.922149	-489.91489	-489.913946	-489.953741	27.913	
O	 0.0255478878	 1.3521333581	 0.0077645258	-0.406003
C	-0.0161176885	 0.0077962006	 0.0009447158	 0.316206
C	-1.1914206657	-0.6753912329	 0.0035092108	 0.213033
O	-2.4074338463	-0.0937739107	 0.0129022586	-0.427307
C	-1.1586088061	-2.1184070125	-0.0042039154	 0.32979
N	-2.2357890374	-2.7961161474	-0.0021467518	-0.590254
O	 0.1004963131	-2.7042699304	-0.0138519313	-0.20688
C	 1.1958117738	-1.9183646331	-0.0154607343	 0.111625
N	 1.2004481269	-0.6436218538	-0.008816278	-0.341932
H	 0.9594165365	 1.5993540466	 0.0041900377	 0.305132
H	-3.0394242346	-0.8345002593	 0.0123448467	 0.310164
H	-2.0760826379	-3.8001124015	-0.0082428374	 0.232847
H	 2.1084373983	-2.502538224	-0.0232889972	 0.153578
130.131	186.1634	284.7915	308.3972	342.4202	442.4916	511.0875	521.486	535.8937	549.8945	559.8956	665.154	709.3107	744.5937	780.9909	889.7419	903.4382	989.1579	1052.4102	1163.9701	1198.5506	1287.3941	1343.2781	1383.3887	1421.751	1452.2033	1643.9046	1726.2741	1749.3569	3216.664	3537.4923	3651.4594	3790.3883
OC1=C(O)C(=N)OC=N1	O[C@@H]1C(=C([NH])OC=N1)O	
InChI=1S/C4H4N2O3/c5-3-2(7)4(8)6-1-9-3/h1,5,7-8H	InChI=1S/C4H5N2O3/c5-3-2(7)4(8)6-1-9-3/h1,4-5,7-8H/t4-/m1/s1
