17
gdb 74207	2.41056	1.59701	1.02816	5.0088	79.05	-0.245	-0.0608	0.1842	1147.9523	0.13658	-421.87154	-421.863493	-421.862549	-421.904203	30.364	
C	-0.1162234748	 1.5679434765	 0.0694208771	-0.479984
C	 0.0969192225	 0.0754905364	-0.0065269382	 0.288142
C	 0.2947649433	-0.5221110578	-1.2021617545	-0.311247
C	 0.2681929395	-1.9674860622	-1.5440544393	 0.405022
O	-0.1598378377	-2.3445082986	-2.6064365255	-0.339019
O	 0.7000013463	-2.8902634443	-0.6461655212	-0.221614
C	 1.4931276796	-2.4582580116	 0.4689165379	-0.151545
C	 0.6719540092	-1.7815212731	 1.5251111892	-0.080565
C	 0.0360127441	-0.6318082089	 1.2724575227	-0.104426
H	 0.615773845	 2.0345994977	 0.7388930085	 0.13759
H	-0.0403873005	 2.039570581	-0.9121806271	 0.135061
H	-1.1074268645	 1.7915912937	 0.4825958719	 0.139957
H	 0.2799745697	 0.091084245	-2.0977085512	 0.117099
H	 1.962418457	-3.3686286572	 0.8443418117	 0.128084
H	 2.2818238499	-1.7833603653	 0.1077746379	 0.124047
H	 0.6027276832	-2.243833869	 2.5045711263	 0.111773
H	-0.5282765318	-0.1456852522	 2.064923264	 0.101624
93.812	144.9066	186.5001	240.6749	296.6841	350.2961	377.4613	397.9619	505.6061	576.611	640.3096	692.6193	733.4988	801.1579	842.489	896.6398	907.7982	961.2997	1000.7319	1029.7118	1061.5801	1068.418	1108.8031	1149.387	1229.9008	1254.9302	1298.3413	1347.5025	1408.7007	1412.0423	1440.7307	1478.0047	1485.2975	1488.3278	1647.3946	1701.0537	1803.596	3011.18	3027.3551	3078.9781	3120.3649	3130.1873	3153.3023	3181.8272	3187.7534
CC1=CC(=O)OCC=C1	CC1=CC(=O)OCC=C1	
InChI=1S/C7H8O2/c1-6-3-2-4-9-7(8)5-6/h2-3,5H,4H2,1H3	InChI=1S/C7H8O2/c1-6-3-2-4-9-7(8)5-6/h2-3,5H,4H2,1H3
