16
gdb 21179	5.47135	1.36731	1.11526	4.0323	69.16	-0.1981	0.0099	0.208	1059.0744	0.131657	-376.095628	-376.087578	-376.086634	-376.128364	28.364	
C	 0.0082362516	 1.3862817903	-0.1159155995	-0.32498
N	-0.1776528676	-0.0310608892	 0.1266759104	-0.366706
C	 0.5600359615	-0.6308553282	 1.1288132121	 0.36318
C	 1.1598560345	-0.0893274339	 2.2492697861	-0.199967
N	 1.6892315763	-1.1724249985	 2.8877347231	 0.085639
C	 2.4365200225	-1.2183664734	 4.1255420924	-0.329619
N	 1.4439179501	-2.2971761317	 2.2095746843	-0.147929
N	 0.7610472617	-1.9786942121	 1.1400826565	-0.280662
H	 1.0556971338	 1.6678228603	-0.3119298695	 0.11098
H	-0.5995813026	 1.6860767935	-0.9724339813	 0.129149
H	-0.3386541346	 1.962305706	 0.7496779972	 0.128942
H	-0.2121055843	-0.6060201121	-0.7029285664	 0.246209
H	 1.2511177965	 0.9115974714	 2.631772021	 0.130094
H	 1.8328041276	-0.8434032277	 4.9573568578	 0.144021
H	 2.6963244437	-2.2613952481	 4.305695622	 0.168666
H	 3.3506837493	-0.6220704865	 4.0489058338	 0.142982
91.051	105.9572	148.0928	188.7782	204.7196	336.0861	376.0628	475.8376	551.3218	655.9134	671.0182	684.3975	745.9165	789.0647	1025.0869	1053.7201	1061.5298	1095.0976	1151.1855	1154.5868	1168.0689	1199.153	1283.604	1314.4589	1370.2858	1437.7379	1455.7295	1478.1641	1482.7686	1487.5234	1503.8157	1517.6865	1533.9319	1637.866	2971.6544	3044.0876	3056.934	3105.9662	3120.6293	3162.5153	3292.2052	3600.6655
CNC1=CN(C)N=N1	CNc1cn(C)nn1	
InChI=1S/C4H8N4/c1-5-4-3-8(2)7-6-4/h3,5H,1-2H3	InChI=1S/C4H8N4/c1-5-4-3-8(2)7-6-4/h3,5H,1-2H3
