16
gdb 29377	4.76927	0.87328	0.8295	4.4132	76.72	-0.231	0.0012	0.2322	1402.1424	0.124416	-400.798864	-400.790362	-400.789417	-400.833018	30.357	
C	 0.0808224765	 1.5551863912	-0.0528629747	-0.500931
C	-0.0027059366	 0.0625831473	 0.0219764993	 0.267315
C	-0.214611084	-0.8069804257	-1.001218626	-0.107166
O	-0.2267205171	-2.0954581533	-0.5576613568	-0.176814
C	-0.0201808739	-2.0491100455	 0.7849889826	 0.390446
C	 0.0150030366	-3.3591051218	 1.5052840617	-0.444941
C	-1.2868247993	-4.0372765813	 1.5464654768	 0.268555
N	-2.3098427127	-4.572223526	 1.5807468612	-0.303036
C	 0.1234164217	-0.7622418484	 1.1948988511	-0.380829
H	 1.0504393284	 1.921118827	 0.3029404806	 0.132684
H	-0.0515314887	 1.9064174298	-1.0797277233	 0.128956
H	-0.6894576497	 2.0308685507	 0.5643115456	 0.135356
H	-0.3681864257	-0.6759811082	-2.0599321423	 0.138005
H	 0.7389264599	-4.0375655954	 1.0371632191	 0.169589
H	 0.352661169	-3.1894254844	 2.5321413169	 0.168167
H	 0.2945194358	-0.4293380858	 2.2075871683	 0.114643
40.078	89.4089	131.976	209.4808	243.6682	330.0002	368.5582	380.8106	465.6346	610.8353	626.1159	681.2561	754.9628	779.2356	822.7852	904.8808	930.1027	979.2815	988.5231	1019.9437	1066.4239	1158.5925	1163.5725	1203.501	1265.367	1305.4934	1336.5288	1401.8826	1422.7221	1446.1996	1483.1246	1498.1921	1583.3214	1663.965	2366.3319	3032.0189	3038.808	3083.8318	3096.5602	3113.8622	3248.58	3275.7364
CC1=COC(CC#N)=C1	Cc1coc(CC#N)c1	
InChI=1S/C7H7NO/c1-6-4-7(2-3-8)9-5-6/h4-5H,2H2,1H3	InChI=1S/C7H7NO/c1-6-4-7(2-3-8)9-5-6/h4-5H,2H2,1H3
