20
gdb 62471	2.39356	1.46952	1.24683	2.5713	79.13	-0.2367	-0.0232	0.2135	1116.2147	0.168618	-403.134886	-403.12545	-403.124506	-403.169265	35.444	
C	-0.2599686243	 1.4816378493	 0.0453773266	-0.436716
C	-0.0370404227	-0.0321209984	 0.0279969748	 0.091286
C	-1.3137804917	-0.7910485568	-0.3472931124	-0.442941
C	 1.1802691759	-0.4547901031	-0.8340856579	 0.397005
O	 1.4337654491	-0.3189630919	-1.9961703677	-0.308299
C	 1.9215766254	-1.0759105294	 0.3610193215	-0.437368
C	 0.7431332336	-0.626017922	 1.2385690875	 0.313362
C	 0.7620638731	-0.1349310889	 2.6310223031	-0.305342
N	 0.1999336657	-1.4637096174	 2.3030462009	-0.361695
H	 0.6501452838	 2.0198995737	 0.3267237097	 0.120783
H	-0.5660905156	 1.8302065413	-0.9459942428	 0.13439
H	-1.0466015914	 1.7529162287	 0.7586183545	 0.11469
H	-1.6575402218	-0.4843644228	-1.3396152605	 0.137191
H	-1.1540958977	-1.8735547504	-0.3632166552	 0.127597
H	-2.1183519394	-0.5776581418	 0.3667467076	 0.113595
H	 2.0465511602	-2.1611734864	 0.2912601655	 0.143014
H	 2.8959745163	-0.6254431849	 0.5733556016	 0.134037
H	 1.6845562763	-0.1594138087	 3.205686008	 0.120932
H	 0.0803057218	 0.6662122041	 2.9066015984	 0.113415
H	-0.8171220965	-1.4189129441	 2.3052159769	 0.231064
31.5847	158.6008	196.8215	208.8043	212.0114	252.3384	272.5183	313.9368	362.4569	456.9211	504.5196	510.9559	551.7424	668.171	734.9613	804.1392	864.1454	917.0979	942.8886	959.8337	969.8147	978.9633	1011.8584	1021.3724	1069.7456	1121.5821	1130.1552	1180.2139	1190.3194	1206.595	1231.3329	1263.2556	1304.9246	1392.4995	1399.8917	1414.5814	1434.7977	1481.413	1482.6779	1499.8675	1503.7908	1516.4281	1890.5741	3024.517	3029.	3053.4624	3092.2402	3096.6836	3100.3912	3105.1414	3109.6611	3113.8867	3184.0401	3484.4775
CC1(C)C(=O)CC11CN1	CC1(C)C(=O)C[C@]21CN2	
InChI=1S/C7H11NO/c1-6(2)5(9)3-7(6)4-8-7/h8H,3-4H2,1-2H3	InChI=1S/C7H11NO/c1-6(2)5(9)3-7(6)4-8-7/h8H,3-4H2,1-2H3/t7-/m1/s1
