25
gdb 109539	1.9038	1.35013	1.14343	0.9699	90.13	-0.2285	0.0796	0.308	1321.3844	0.224784	-389.479039	-389.467291	-389.466347	-389.515159	42.79	
C	 0.3569308778	 1.1763633191	 0.2634639198	-0.23353
O	-0.2914978242	 0.0571030541	-0.3062866956	-0.237731
C	 0.4723812522	-0.5700506653	-1.2896589559	 0.035982
C	 1.4404686455	-1.6896534657	-0.932264745	 0.242623
C	 2.7558696516	-1.7758000706	-1.6891412865	-0.455476
C	 1.5774500703	-2.0973905697	 0.5261745675	-0.455218
C	 0.1154515326	-1.9850493301	-1.6608166999	 0.223248
C	-1.0103171636	-2.6738060526	-0.9042358593	-0.447741
C	 0.1271189955	-2.3646594558	-3.1338230698	-0.454291
H	 1.2967998018	 0.8968744877	 0.7597784731	 0.109422
H	 0.5812623347	 1.9405551587	-0.4964622143	 0.105631
H	-0.3252132293	 1.6035950743	 1.002558225	 0.124849
H	 0.7712102498	 0.1020761895	-2.0991565651	 0.068053
H	 3.5359601203	-1.2174548551	-1.157921892	 0.110262
H	 3.0999707082	-2.8138564425	-1.7758606594	 0.113633
H	 2.6937058507	-1.3642848081	-2.6990162861	 0.112508
H	 0.7143113298	-1.8015691042	 1.1235934831	 0.129381
H	 1.7043756614	-3.1820149009	 0.6246538183	 0.111404
H	 2.4630750276	-1.6270137269	 0.9692365961	 0.106513
H	-1.1539654628	-2.2699637733	 0.0971518405	 0.131295
H	-1.9555501447	-2.5450087798	-1.4437428381	 0.111564
H	-0.8237889809	-3.7510680475	-0.8229539183	 0.107866
H	 0.3405871266	-3.4325209453	-3.2641070305	 0.113021
H	-0.8552527928	-2.1703739776	-3.5799249446	 0.114996
H	 0.864259182	-1.8067636724	-3.7151425229	 0.111735
93.2536	120.4637	139.9232	161.9304	170.6972	177.9334	178.7642	187.1458	248.4843	282.4019	304.3244	347.302	384.6077	414.0838	438.3396	527.7302	569.6341	656.4614	729.4005	862.3046	949.4545	961.942	974.7319	989.0944	1011.5583	1031.6792	1052.279	1077.6695	1139.0107	1146.3424	1178.9856	1180.0661	1197.8473	1241.3667	1244.5322	1294.4691	1342.6033	1399.1333	1408.2536	1413.345	1418.9695	1444.454	1476.4917	1481.5593	1486.0856	1486.777	1490.7532	1493.1121	1498.4363	1502.0378	1508.4371	1514.9922	1525.7557	2982.2988	3019.086	3023.9251	3025.2881	3031.5522	3035.1045	3054.3358	3072.1176	3076.1782	3077.7066	3082.0284	3107.2861	3115.161	3123.8667	3132.9409	3152.581
COC1C(C)(C)C1(C)C	COC1C(C)(C)C1(C)C	
InChI=1S/C8H16O/c1-7(2)6(9-5)8(7,3)4/h6H,1-5H3	InChI=1S/C8H16O/c1-7(2)6(9-5)8(7,3)4/h6H,1-5H3
