15
gdb 113610	3.61146	0.71482	0.62979	1.4863	85.52	-0.2508	-0.0365	0.2143	1695.9935	0.109679	-420.537871	-420.528611	-420.527666	-420.572864	33.001	
O	-0.0715929903	 1.4447070561	-0.4011307021	-0.413752
C	-0.0382427219	 0.2290153965	 0.3254062632	-0.100827
C	-1.3612361891	-0.4888291088	 0.2282913981	 0.051929
O	-1.6327108967	-1.1070815218	-1.0327661508	-0.242958
C	-1.4776524012	-1.9617851767	 0.1151324387	-0.232952
C	-0.3437989956	-2.8406662752	 0.1473815073	 0.437424
C	 0.5787154651	-3.6238936852	 0.1926293976	-0.19651
C	 1.6225155791	-4.4933685108	 0.2414181559	 0.293545
C	 2.5490836098	-5.2664894051	 0.2852850218	-0.553802
H	-0.2362652329	 1.2165710673	-1.3230369942	 0.295081
H	 0.7662683721	-0.4351845972	-0.0177932177	 0.110904
H	 0.1630868059	 0.496711986	 1.3680671153	 0.118843
H	-2.2142782133	 0.0444729655	 0.6506048596	 0.109213
H	-2.4107094694	-2.4121395131	 0.4539380135	 0.125512
H	 3.3647839386	-5.9454325374	 0.323108974	 0.198351
58.6234	75.764	102.1093	170.2415	230.1294	268.7203	349.6823	402.3997	444.7736	506.6242	524.7739	540.6265	573.6779	601.4064	613.8357	727.4917	802.8105	897.9678	925.665	1034.5257	1074.2766	1104.3486	1131.4958	1195.3287	1229.7127	1283.6916	1352.7745	1383.9184	1421.4894	1457.9302	1491.0806	2182.7258	2356.5813	3019.4725	3080.9703	3104.4156	3115.0467	3502.6571	3803.8191
OCC1OC1C#CC#C	OC[C@H]1O[C@H]1C#CC#C	
InChI=1S/C7H6O2/c1-2-3-4-6-7(5-8)9-6/h1,6-8H,5H2	InChI=1S/C7H6O2/c1-2-3-4-6-7(5-8)9-6/h1,6-8H,5H2/t6-,7+/m0/s1
