21
gdb 105061	2.58465	1.35334	1.15197	1.6384	78.11	-0.2354	0.0824	0.3177	1186.6116	0.179588	-424.178608	-424.168839	-424.167895	-424.213327	36.48	
C	 0.004359688	 1.3027547371	-0.5994708828	-0.252405
O	-0.0660265824	-0.0502949878	-0.2140218094	-0.295097
C	-1.3155370469	-0.5744211797	 0.1623660795	 0.365991
C	-2.099302174	-0.0061823186	 1.3096661381	-0.327896
C	-2.625491705	 0.1185509044	-0.1113356039	-0.341657
C	-1.2558662994	-2.0739145276	-0.0217160657	 0.374302
C	-1.0286104958	-2.5437135006	-1.4399956334	-0.468093
C	-0.8585285152	-2.9140749188	 1.1163441798	-0.22011
O	-2.2338383453	-2.8060558998	 0.7245091109	-0.281514
H	 1.0599507209	 1.5124959863	-0.7883296047	 0.129568
H	-0.5635791914	 1.5024985428	-1.5183386707	 0.113572
H	-0.3462466926	 1.987255866	 0.1866240381	 0.110648
H	-2.5948208644	-0.7026939297	 1.9749706679	 0.133285
H	-1.7195868183	 0.8951068486	 1.7786736286	 0.110793
H	-2.6251233187	 1.1030090187	-0.563578622	 0.114192
H	-3.4666782309	-0.5044255656	-0.3959395605	 0.127737
H	-0.094031771	-2.1294497673	-1.8261360197	 0.13654
H	-0.9838362581	-3.6345460725	-1.4821722002	 0.120224
H	-1.8440549821	-2.2062308702	-2.0885347945	 0.122354
H	-0.4016950301	-3.8856410458	 0.9349516563	 0.1126
H	-0.6095943273	-2.4471161901	 2.0673716783	 0.114966
53.3151	74.1592	184.6475	191.8408	214.6941	242.6344	287.3919	333.1744	352.5297	372.247	452.1321	501.5884	558.5395	612.9436	768.1007	796.2708	854.2914	887.4415	910.9514	922.6382	958.0603	981.0016	1029.5814	1054.2239	1081.3727	1099.7081	1125.5076	1135.9382	1165.4038	1177.5497	1195.1645	1196.5963	1216.8302	1287.2958	1355.3222	1403.2488	1414.1642	1448.4683	1479.174	1484.357	1490.1445	1495.7608	1501.1016	1511.9294	1528.2255	2989.9252	3043.0424	3043.7786	3087.9257	3112.3727	3114.6552	3134.5822	3139.7877	3140.4968	3177.6623	3222.1808	3236.0833
COC1(CC1)C1(C)CO1	COC1(CC1)[C@@]1(C)CO1	
InChI=1S/C7H12O2/c1-6(5-9-6)7(8-2)3-4-7/h3-5H2,1-2H3	InChI=1S/C7H12O2/c1-6(5-9-6)7(8-2)3-4-7/h3-5H2,1-2H3/t6-/m1/s1
