19
gdb 24115	4.62277	0.92097	0.86619	3.3749	81.6	-0.2139	0.0358	0.2497	1388.6067	0.161662	-382.099569	-382.091358	-382.090414	-382.13399	30.796	
C	-0.087206602	 1.6483535011	 0.070426762	-0.343936
C	-0.2618265417	 0.1821624725	-0.3014305989	 0.032324
C	-0.0460537246	-0.8822114316	 0.7405208765	-0.245462
C	-1.4383522921	-0.5956651554	 0.230957549	-0.275877
C	 1.3437150202	 2.0864113141	 0.1121336039	 0.358641
N	 2.0901954964	 2.1839949235	 1.1924927752	-0.298267
C	 3.3360827746	 2.5739990071	 0.7554822122	-0.087082
C	 3.3476959368	 2.7154155385	-0.6049854737	-0.114465
N	 2.0663617493	 2.4002805483	-1.0063572179	-0.275137
H	-0.6560819172	 2.2778560238	-0.6271246871	 0.099456
H	-0.5024899736	 1.8222176402	 1.067328515	 0.128958
H	 0.0579919557	-0.0666187378	-1.3105933171	 0.073933
H	 0.4307545256	-1.8090136579	 0.4416645151	 0.109818
H	 0.2118706544	-0.5527345272	 1.7411633908	 0.129691
H	-2.1261764188	-0.080800344	 0.8940611073	 0.111733
H	-1.9118991527	-1.3250115346	-0.4171247521	 0.109328
H	 4.1494730053	 2.7351321814	 1.4465839965	 0.103063
H	 4.1110154199	 3.0070809576	-1.306870504	 0.122754
H	 1.7241727045	 2.4098540904	-1.9524085129	 0.260528
28.5655	57.892	112.7136	271.6421	309.0981	358.7046	405.7245	528.6832	645.4539	687.4968	722.8175	766.3839	774.797	805.1461	844.0942	853.8829	891.1509	928.9007	953.2588	986.0454	998.0756	1056.851	1077.955	1094.0565	1114.992	1136.3246	1139.2323	1188.0553	1195.6007	1220.171	1246.6617	1288.4975	1329.3798	1393.4426	1405.9287	1461.8033	1468.0147	1474.5202	1507.4091	1511.3535	1590.1457	3017.3632	3090.2352	3128.5563	3131.0147	3138.9986	3208.2002	3225.5143	3247.3438	3279.1859	3664.1646
C(C1CC1)C1=NC=CN1	C(C1CC1)c1ncc[nH]1	
InChI=1S/C7H10N2/c1-2-6(1)5-7-8-3-4-9-7/h3-4,6H,1-2,5H2,(H,8,9)	InChI=1S/C7H10N2/c1-2-6(1)5-7-8-3-4-9-7/h3-4,6H,1-2,5H2,(H,8,9)
