19
gdb 91926	2.47669	1.46782	1.03127	1.5859	70.28	-0.2596	0.0704	0.3299	1156.5647	0.160063	-460.152763	-460.144469	-460.143524	-460.185429	32.495	
O	-0.1617477727	 1.4599172066	-0.0552477048	-0.439478
C	 0.0176749002	 0.0517963919	-0.0014012621	 0.119752
C	-1.3836526558	-0.5640714916	 0.0529780684	-0.225517
C	-1.3901045909	-2.0536921337	-0.2356948187	 0.028081
O	-1.2951946756	-2.4408533597	-1.6156595864	-0.262942
C	-0.1962876983	-2.7496012031	-0.746659712	 0.019443
C	 1.0788355397	-1.9909416976	-1.0521755282	 0.110587
O	 1.7214667294	-2.5345462469	-2.1974407012	-0.440723
C	 0.8141811449	-0.4859390893	-1.1946872943	-0.26675
H	 0.708332666	 1.8708765803	-0.082304084	 0.280691
H	 0.5543352704	-0.223813983	 0.923657973	 0.064442
H	-1.8303568308	-0.3756761779	 1.0340705633	 0.108617
H	-2.0127145067	-0.0557956696	-0.6867533613	 0.129166
H	-2.1163244819	-2.6443382741	 0.3222416065	 0.096324
H	-0.0668014263	-3.8135362854	-0.5467417951	 0.095353
H	 1.7820387828	-2.161382264	-0.226699362	 0.090885
H	 1.0834459595	-2.493778319	-2.9199107623	 0.287787
H	 0.2522943904	-0.2974033867	-2.1163333716	 0.111563
H	 1.7754645858	 0.0336001127	-1.2804891971	 0.092717
98.1856	157.0415	220.5175	277.9227	306.1456	349.9503	381.8678	412.9219	432.0524	456.0545	490.9877	639.9414	654.6836	785.0676	834.8671	881.383	894.3577	931.1206	997.2656	1027.0533	1052.189	1057.4286	1094.7821	1122.1132	1136.5558	1157.4884	1169.1969	1231.7843	1254.274	1288.4222	1294.1005	1321.2347	1341.1438	1369.544	1371.615	1402.9394	1427.8414	1443.0745	1459.7152	1479.3223	1490.7002	2940.2677	3032.0738	3037.0996	3046.9121	3085.4932	3090.3111	3106.6678	3118.9207	3790.8592	3815.8588
OC1CC2OC2C(O)C1	O[C@H]1C[C@H]2O[C@H]2[C@@H](O)C1	
InChI=1S/C6H10O3/c7-3-1-4(8)6-5(2-3)9-6/h3-8H,1-2H2	InChI=1S/C6H10O3/c7-3-1-4(8)6-5(2-3)9-6/h3-8H,1-2H2/t3-,4+,5-,6+/m1/s1
