18
gdb 14706	5.04066	0.80375	0.7022	1.8162	75.8	-0.2489	-0.0169	0.232	1583.0388	0.153063	-381.155422	-381.146241	-381.145297	-381.190007	31.726	
C	 0.0699784725	 1.5163747301	-0.022151944	-0.393354
C	-0.2729858103	 0.0241046845	 0.0217897854	-0.179918
C	-1.7346497081	-0.2079786394	 0.4206762573	-0.110364
N	-2.2362512237	-1.5701370601	 0.5134162322	-0.262227
C	-1.4769724429	-2.5505681646	 0.2684449166	 0.119171
N	-1.9747143031	-3.849148497	 0.3622759895	-0.307365
C	-1.2331510643	-4.9785266966	 0.1169861923	 0.157611
O	-0.0684922532	-4.9855726558	-0.2073765873	-0.300792
H	 1.1140748841	 1.6749621366	-0.3073037332	 0.117233
H	-0.5570946651	 2.0467379394	-0.7472364033	 0.117989
H	-0.0833387389	 1.9879751455	 0.9547518404	 0.117989
H	-0.0796995535	-0.4243885805	-0.9609559403	 0.105849
H	 0.3917782139	-0.4828775709	 0.7326720886	 0.10585
H	-1.9233150915	 0.2661189036	 1.3944961389	 0.111826
H	-2.3903990373	 0.3238962167	-0.2834481503	 0.111826
H	-0.4268895926	-2.5285001949	-0.022970349	 0.137934
H	-2.9453299035	-3.9365881892	 0.6292956516	 0.262002
H	-1.8344770626	-5.8974657574	 0.2526430546	 0.088741
70.5927	94.397	100.674	171.6002	224.7232	228.2329	231.8434	332.6277	380.5792	380.8765	607.209	655.5879	748.2474	787.1303	882.1041	898.9142	1008.3726	1026.7877	1030.9127	1062.2617	1089.7102	1125.5336	1163.3465	1243.0902	1282.495	1322.2151	1327.8485	1352.5363	1402.9438	1414.555	1437.9281	1474.2556	1493.5729	1499.4119	1504.1078	1510.0115	1755.3611	1816.1621	2955.8687	3003.8954	3021.8132	3022.4782	3032.1103	3058.5138	3098.3592	3106.7674	3139.1561	3609.3369
CCCN=CNC=O	CCCN=CNC=O	
InChI=1S/C5H10N2O/c1-2-3-6-4-7-5-8/h4-5H,2-3H2,1H3,(H,6,7,8)	InChI=1S/C5H10N2O/c1-2-3-6-4-7-5-8/h4-5H,2-3H2,1H3,(H,6,7,8)
