18
gdb 32100	3.31949	1.12739	0.89583	2.3991	82.37	-0.2452	-0.0042	0.241	1311.1166	0.149235	-402.022894	-402.014632	-402.013688	-402.056295	31.363	
C	 0.169453829	 1.5330120464	 0.1469273123	-0.367283
C	-0.015915788	 0.0189346029	-0.0408467652	-0.26462
C	 0.7104911032	-0.4981090738	-1.2606725356	 0.350992
N	 0.2394993916	-0.089903063	-2.4481173682	-0.332788
C	 0.8735157561	-0.5190201497	-3.5419772588	 0.002499
C	 1.9815072466	-1.3554257019	-3.535308062	-0.215788
C	 2.4660312389	-1.7765166676	-2.2982367528	 0.426359
O	 3.5463617675	-2.5941322993	-2.2745696951	-0.431102
C	 1.8174577591	-1.3387103648	-1.1433240034	-0.338341
H	 1.2218347331	 1.7835339391	 0.3168384251	 0.112239
H	-0.1651418887	 2.064972816	-0.747219822	 0.140395
H	-0.4080747153	 1.893378503	 1.0036013282	 0.109909
H	 0.3262781564	-0.517340405	 0.850859162	 0.092184
H	-1.0831578522	-0.1982827428	-0.1614565328	 0.118506
H	 0.469666949	-0.1750042235	-4.4918212731	 0.107068
H	 2.4608309856	-1.6782240286	-4.4511948353	 0.106404
H	 3.7672695341	-2.8020286752	-1.3599110333	 0.300622
H	 2.1687045439	-1.6492502724	-0.1627949402	 0.082743
40.7278	138.7587	219.3876	231.137	297.4043	319.5658	421.768	453.1265	474.3999	529.1132	557.564	664.3955	763.2661	778.587	794.0698	857.1602	868.075	930.3971	989.2228	998.3577	1012.0488	1068.8835	1087.2277	1119.6319	1196.0437	1197.9399	1273.9136	1320.4475	1329.4532	1342.6971	1375.4184	1401.8755	1461.4822	1480.0491	1496.1673	1509.9566	1519.3958	1633.6453	1636.9575	3037.5442	3038.4416	3077.081	3106.5014	3127.1192	3149.8433	3157.6563	3211.2334	3811.4253
CCC1=NC=CC(O)=C1	CCc1nccc(O)c1	
InChI=1S/C7H9NO/c1-2-6-5-7(9)3-4-8-6/h3-5H,2H2,1H3,(H,8,9)	InChI=1S/C7H9NO/c1-2-6-5-7(9)3-4-8-6/h3-5H,2H2,1H3,(H,8,9)
