18
gdb 68963	2.53619	1.62878	1.22559	4.4602	81.83	-0.2478	-0.0033	0.2445	1060.9075	0.148289	-364.836068	-364.827986	-364.827042	-364.868314	31.546	
C	-0.0374845508	 1.5156475453	-0.0105125743	-0.48024
C	 0.0444060154	 0.0083766046	-0.0145554884	 0.277311
C	-0.79257565	-0.7829348538	 0.9448915594	-0.347194
C	 0.7291771878	-0.7815063918	 1.1258365698	 0.151697
C	 1.4378268957	-1.9191200075	 0.4586148107	-0.144701
C	 1.2559034312	-1.8971135106	-0.8616892646	-0.08048
C	 0.4513081709	-0.6995508423	-1.3133983017	-0.333737
C	 1.295952903	-0.1417951187	 2.2759742862	 0.202424
N	 1.7522255374	 0.3779918165	 3.2043194853	-0.357307
H	 0.8885118642	 1.9611482603	-0.3887700609	 0.129758
H	-0.8600917903	 1.8575015636	-0.648772135	 0.125134
H	-0.2089440663	 1.9057527923	 0.9964867276	 0.137979
H	-1.3694533758	-0.2197546535	 1.6709926148	 0.132781
H	-1.2333256478	-1.7246579885	 0.6348965488	 0.125166
H	 1.9892644357	-2.6614530478	 1.0218260164	 0.117144
H	 1.6211873063	-2.64769917	-1.5526018149	 0.107747
H	-0.4251839369	-0.987578721	-1.9075505256	 0.119502
H	 1.0508142404	-0.0355465072	-1.9507907136	 0.117015
131.357	143.2025	195.1569	220.4197	310.1103	368.8043	392.5418	462.8617	505.7254	561.0408	582.2944	649.1469	734.0823	742.6032	774.3633	895.997	916.5272	950.8458	962.0817	968.3801	979.6682	998.8106	1074.1632	1084.7686	1101.9288	1157.4358	1190.8151	1241.6626	1257.4161	1319.0039	1370.599	1380.7255	1423.1805	1470.4408	1481.6576	1491.8645	1500.6293	1673.858	2345.3742	3015.7159	3032.7151	3048.5537	3094.8696	3115.4713	3127.6886	3199.0922	3221.1336	3224.4893
CC12CC1(C=CC2)C#N	C[C@]12C[C@]1(C=CC2)C#N	
InChI=1S/C8H9N/c1-7-3-2-4-8(7,5-7)6-9/h2,4H,3,5H2,1H3	InChI=1S/C8H9N/c1-7-3-2-4-8(7,5-7)6-9/h2,4H,3,5H2,1H3/t7-,8+/m0/s1
