19
gdb 86710	3.40548	1.12233	0.95805	3.2026	75.79	-0.2463	-0.0235	0.2228	1256.7009	0.158847	-423.034346	-423.025862	-423.024918	-423.067962	31.659	
C	 0.1048088204	 1.5771913542	-0.0184864508	-0.405005
C	 0.0371947403	 0.0492447674	 0.0288821634	-0.002165
C	 0.7068359952	-0.6434830553	-1.1872207738	-0.261455
C	 1.2023929047	-2.0305364765	-0.6883472907	-0.099501
C	 2.4486282154	-2.4843467926	-1.4165587664	 0.152347
O	 2.5393202736	-3.4937257706	-2.0669141938	-0.251008
C	 1.443345639	-1.7944929123	 0.7997337244	 0.010927
O	 2.1824450023	-0.5950709821	 1.0752771522	-0.260736
C	 0.7530056363	-0.5702069546	 1.2157595585	 0.045548
H	 1.1467444746	 1.9126212871	-0.0084232815	 0.133081
H	-0.3694265739	 1.9649304266	-0.9255513627	 0.118655
H	-0.4040685763	 2.0252504169	 0.8412247279	 0.116068
H	-1.0143288662	-0.2643830182	 0.0907373896	 0.081253
H	 0.0325405813	-0.7378057197	-2.0409360194	 0.114936
H	 1.5643803792	-0.0460709711	-1.5128662143	 0.11827
H	 0.4368815039	-2.8039424492	-0.8116450212	 0.094962
H	 3.3095937073	-1.7862779587	-1.3061880243	 0.089539
H	 1.6391621749	-2.6298300722	 1.4668369802	 0.106869
H	 0.3908846779	-0.4182287392	 2.2300139527	 0.097415
68.2239	85.6485	161.6948	233.3933	239.6566	338.9666	349.5189	400.8019	465.7461	535.9936	623.2463	702.7048	826.8312	838.3002	867.5771	893.5635	934.4359	949.1579	963.6982	1020.6668	1038.2183	1064.7112	1094.1283	1110.1114	1139.1933	1160.1591	1201.545	1255.6553	1259.7594	1298.3341	1315.5858	1327.3347	1340.4649	1374.9706	1408.6708	1421.267	1431.4243	1487.1721	1498.1761	1502.323	1830.1251	2878.007	3011.4123	3034.4815	3057.3074	3063.2734	3102.5786	3109.2784	3114.0497	3140.1751	3156.1172
CC1CC(C=O)C2OC12	C[C@H]1C[C@@H](C=O)[C@H]2O[C@@H]12	
InChI=1S/C7H10O2/c1-4-2-5(3-8)7-6(4)9-7/h3-7H,2H2,1H3	InChI=1S/C7H10O2/c1-4-2-5(3-8)7-6(4)9-7/h3-7H,2H2,1H3/t4-,5-,6-,7+/m0/s1
