18
gdb 13010	2.62175	2.4694	1.65835	1.2911	72.23	-0.226	0.0193	0.2453	850.9619	0.153847	-347.79895	-347.791419	-347.790475	-347.8301	29.939	
C	-0.1712094084	 1.5743639348	 0.010856878	-0.401255
C	 0.0276905645	 0.0532522769	-0.0239257804	-0.086691
C	 0.8566198992	-0.4573509981	-1.1873728566	-0.088906
C	 1.8294678567	-1.2845129725	-0.7952942978	-0.081702
C	 1.8660121499	-1.4220205219	 0.6889813807	-0.131032
C	 2.1886549525	-0.1359401118	 1.4488340669	-0.343789
C	 0.7570907303	-0.5314582869	 1.1957568131	 0.396942
O	-0.0234144263	-0.9542725571	 2.2744894799	-0.473744
H	 0.7870958596	 2.1006674869	 0.0615899704	 0.117557
H	-0.6990992172	 1.9248173165	-0.8820350396	 0.114579
H	-0.7675769144	 1.869326999	 0.8817311852	 0.105747
H	-0.9676497557	-0.4156004931	-0.0522252968	 0.089823
H	 0.6537559787	-0.1645060567	-2.2119463277	 0.091165
H	 2.5344762965	-1.7833349182	-1.4508888564	 0.094781
H	 2.0936123648	-2.3686841605	 1.1651637639	 0.09582
H	 2.5277847182	-0.257574566	 2.4726410812	 0.109619
H	 2.6395909315	 0.6848244337	 0.9008797028	 0.110038
H	-0.2056684804	-0.187575755	 2.8285883733	 0.281048
143.8809	230.2251	238.6557	256.8554	313.2452	329.4221	423.2877	482.9142	558.5402	601.4808	700.8028	742.6737	778.2006	847.9389	872.7987	913.6656	927.2774	962.1196	982.4428	1035.8118	1042.7028	1063.8092	1066.0772	1095.081	1110.1269	1151.6162	1207.9265	1255.0222	1303.5147	1317.8236	1334.2853	1378.3043	1398.355	1408.9925	1472.5414	1496.3451	1501.1286	1664.701	2991.4395	3028.3599	3092.5225	3105.7365	3123.5962	3177.1849	3183.0754	3205.7723	3217.7925	3795.0695
CC1C=CC2CC12O	C[C@H]1C=C[C@H]2C[C@@]12O	
InChI=1S/C7H10O/c1-5-2-3-6-4-7(5,6)8/h2-3,5-6,8H,4H2,1H3	InChI=1S/C7H10O/c1-5-2-3-6-4-7(5,6)8/h2-3,5-6,8H,4H2,1H3/t5-,6-,7+/m0/s1
