25
gdb 100060	2.96478	1.03529	0.9313	1.3323	88.76	-0.2579	0.0644	0.3223	1432.3251	0.227449	-389.491334	-389.480789	-389.479845	-389.526356	40.336	
C	 0.3934176815	 1.2679825662	 0.533989025	-0.392175
C	 0.0152237867	-0.2128700021	 0.4323491455	-0.20317
C	-1.443942053	-0.4888949162	 0.004745517	 0.310492
C	-2.4574974899	 0.1161150737	 0.9801713768	-0.406195
O	-1.7152039547	 0.1480887778	-1.2520834491	-0.461668
C	-1.6705677694	-2.0075294343	-0.1008123217	 0.061649
C	-3.0084374627	-2.5309227174	-0.6952638253	-0.240484
C	-2.2118198428	-3.6635411079	-1.3951499743	-0.218333
C	-0.9170269496	-2.8340129715	-1.1859848248	-0.249076
H	 1.4690443383	 1.382428388	 0.6997065691	 0.107103
H	 0.1295590927	 1.7982116393	-0.3853164678	 0.12358
H	-0.1206045746	 1.7633533864	 1.3630528952	 0.117666
H	 0.6763648278	-0.7036706282	-0.2959198619	 0.087939
H	 0.2021037191	-0.7152669086	 1.3897141882	 0.092938
H	-2.3623257426	 1.2036843168	 1.0133332029	 0.122092
H	-3.4760054391	-0.1210789689	 0.6616355881	 0.124167
H	-2.3091487803	-0.2805696276	 1.989171556	 0.107557
H	-1.0449609439	-0.1415166982	-1.8801968285	 0.274717
H	-1.4932699594	-2.4545270904	 0.8843178649	 0.063175
H	-3.8008869402	-2.8195763259	-0.000662742	 0.09102
H	-3.4080167511	-1.8117387219	-1.4153428667	 0.113864
H	-2.2007921951	-4.5811427548	-0.7998599193	 0.100515
H	-2.4872309881	-3.9202260048	-2.4208115113	 0.095266
H	-0.6873398812	-2.234288809	-2.0742905791	 0.081329
H	-0.0087637582	-3.3635037905	-0.8883594168	 0.096032
86.5301	103.6322	125.7487	166.0948	205.4544	232.4573	283.457	293.2463	310.3487	337.673	379.587	380.6249	481.7494	569.1516	640.8	733.8589	781.2357	787.8924	828.4572	891.3342	918.8849	938.0158	953.2331	961.22	990.7085	1004.8521	1025.1723	1037.3091	1077.9681	1120.2665	1139.0671	1184.263	1205.0674	1224.13	1247.7778	1258.533	1260.9402	1278.4994	1287.9588	1296.81	1342.1104	1369.9133	1390.1351	1407.1471	1415.1125	1473.5243	1478.7729	1485.903	1487.3266	1495.6075	1506.6267	1508.9118	1514.7123	3007.0773	3031.6745	3036.0722	3042.6191	3046.7165	3051.4256	3055.3302	3061.4449	3092.9298	3104.3509	3106.4544	3118.5141	3119.2797	3121.1702	3129.5878	3808.1918
CCC(C)(O)C1CCC1	CC[C@@](C)(O)C1CCC1	
InChI=1S/C8H16O/c1-3-8(2,9)7-5-4-6-7/h7,9H,3-6H2,1-2H3	InChI=1S/C8H16O/c1-3-8(2,9)7-5-4-6-7/h7,9H,3-6H2,1-2H3/t8-/m1/s1
