16
gdb 14508	4.23214	1.83066	1.50462	2.355	66.13	-0.2604	-0.0419	0.2185	845.8051	0.130808	-383.693861	-383.687128	-383.686184	-383.724611	26.698	
O	 0.0307361524	 1.395304674	-0.0054383944	-0.499391
C	 0.018213045	 0.0049175181	-0.0084739845	 0.409392
C	 1.0107860573	-0.4900701593	-1.03000546	 0.073383
O	 1.6630326178	 0.2893871541	-1.6903530315	-0.282569
C	-0.0432453547	-0.7092879505	 1.3982488326	-0.107754
C	-1.48263856	-0.1187981765	 1.5247265836	-0.228012
C	-1.3948374427	-0.6947597364	 0.0766191544	-0.1078
C	-0.7025855853	-1.9350146639	 0.7070391095	-0.245411
H	 0.6862746628	 1.647664308	-0.675841873	 0.293443
H	 1.1317619076	-1.5777322778	-1.1650242216	 0.103911
H	 0.7460283598	-0.7095324869	 2.1510411322	 0.083142
H	-2.1534086113	-0.6498061462	 2.2048510777	 0.092488
H	-1.5659214035	 0.9611758644	 1.6217636089	 0.130844
H	-2.164966452	-0.6781947097	-0.6955680919	 0.083149
H	-0.0933546613	-2.5830755186	 0.0768911005	 0.096341
H	-1.3439007419	-2.5340419828	 1.3563329175	 0.104844
102.6638	232.291	285.4674	383.6708	393.9974	460.8239	525.1304	540.3173	607.0652	747.377	802.6658	833.3373	868.0078	898.0249	900.6859	993.0478	1012.5046	1017.0065	1028.1065	1077.47	1094.1417	1105.1183	1133.1462	1181.6966	1195.4689	1216.6997	1233.3507	1247.2272	1279.9304	1390.0067	1451.228	1506.616	1548.2037	1786.2598	2990.4196	3071.6719	3078.1651	3106.3389	3112.2165	3136.5887	3170.0823	3673.8069
OC1(C=O)C2CC1C2	O[C@@]1(C=O)[C@H]2C[C@@H]1C2	
InChI=1S/C6H8O2/c7-3-6(8)4-1-5(6)2-4/h3-5,8H,1-2H2	InChI=1S/C6H8O2/c7-3-6(8)4-1-5(6)2-4/h3-5,8H,1-2H2/t4-,5+,6-
