18
gdb 50152	5.03837	0.98221	0.88439	3.9802	83.81	-0.2036	-0.0029	0.2007	1309.9717	0.148334	-401.970018	-401.96186	-401.960915	-402.004017	30.618	
O	-0.0776184313	-0.0260552801	-0.0004738972	-0.332166
C	-0.0008018993	 1.1853094802	 0.0098266172	 0.146474
N	 1.1645698407	 1.8919632973	 0.0027678189	-0.077917
C	 1.2728736129	 3.3616891503	 0.0138720117	-0.268146
C	 2.7949830244	 3.6087573951	-0.0012270712	 0.334124
C	 3.3949290226	 4.7766448681	-0.7518685195	-0.307113
C	 3.4119268598	 4.7639658785	 0.755235416	-0.307113
C	 3.4025670809	 2.2494665652	-0.0195112115	-0.256717
C	 2.4461110522	 1.3188932979	-0.0165371829	 0.00791
H	-0.8855634916	 1.8514535491	 0.0245424419	 0.070714
H	 0.7768326611	 3.7896435964	-0.8644642883	 0.124817
H	 0.7968602389	 3.7747452617	 0.910238458	 0.124817
H	 4.3276830212	 4.6146717013	-1.2816359507	 0.119608
H	 2.7116775167	 5.4581620393	-1.2494576641	 0.115471
H	 2.7402010551	 5.4368872842	 1.2795013046	 0.11547
H	 4.3563597018	 4.5932772722	 1.2610320455	 0.119605
H	 4.4665706313	 2.0623421405	-0.0330840382	 0.11129
H	 2.5113845127	 0.2420306929	-0.0263223401	 0.158872
17.5611	141.2524	193.9811	239.1608	300.4143	313.9021	356.4794	421.8392	578.1256	615.6803	754.1148	772.8063	779.956	835.3465	846.4845	904.1568	918.9336	934.6755	938.5016	991.6159	1020.3402	1058.0504	1059.3001	1081.6158	1096.0662	1190.3476	1223.2271	1233.7325	1260.7161	1298.2797	1318.915	1378.9441	1439.0497	1446.7024	1465.1494	1498.1387	1515.9709	1674.6177	1788.6919	2940.6486	3025.3328	3062.16	3121.8706	3125.8118	3202.8586	3218.6541	3236.7781	3274.2926
O=CN1CC2(CC2)C=C1	O=CN1CC2(CC2)C=C1	
InChI=1S/C7H9NO/c9-6-8-4-3-7(5-8)1-2-7/h3-4,6H,1-2,5H2	InChI=1S/C7H9NO/c9-6-8-4-3-7(5-8)1-2-7/h3-4,6H,1-2,5H2
