14
gdb 128263	3.06743	1.37009	0.95269	7.8269	69.13	-0.2617	-0.0759	0.1859	1153.5838	0.100779	-470.014302	-470.006055	-470.00511	-470.048162	28.869	
C	-0.0028625115	 1.4488203632	 0.0080263427	-0.321352
N	-0.049753632	-0.0049592438	 0.0035103157	-0.349199
C	-1.206579902	-0.6895458096	 0.0099142288	 0.420219
N	-2.3428683625	-0.0463951169	 0.0201909631	-0.423777
C	-3.503323824	-0.7703160053	 0.0262018048	 0.465855
O	-4.6161469757	-0.3375515368	 0.0355154807	-0.332679
O	-3.4113440302	-2.2029061666	 0.0213545098	-0.254857
N	-2.2172455992	-2.8612035567	 0.0106579991	-0.023711
C	-1.1543838639	-2.1420646313	 0.0050427822	-0.038171
H	 1.0414811145	 1.7631270447	-0.0011168771	 0.133734
H	-0.5147798616	 1.8538802045	-0.8694644915	 0.16237
H	-0.4975465135	 1.8481949753	 0.897970294	 0.162147
H	 0.8131869476	-0.5208655939	-0.0036479032	 0.265602
H	-0.216097456	-2.6886295867	-0.0034890392	 0.133819
48.7114	90.8259	149.902	193.2388	206.6469	368.5437	416.6334	448.9377	512.7417	586.1138	602.2858	706.0032	743.59	781.1562	835.9315	880.5861	966.1095	1025.6703	1077.8344	1150.1467	1156.5909	1257.7828	1294.6447	1390.0962	1457.8722	1473.3699	1508.6145	1582.276	1604.9002	1674.4318	1885.4953	3050.3355	3112.448	3150.2516	3178.0565	3667.9142
CNC1=NC(=O)ON=C1	CNc1nc(=O)onc1	
InChI=1S/C4H5N3O2/c1-5-3-2-6-9-4(8)7-3/h2H,1H3,(H,5,7,8)	InChI=1S/C4H5N3O2/c1-5-3-2-6-9-4(8)7-3/h2H,1H3,(H,5,7,8)
