17
gdb 103402	2.50498	1.50918	1.31656	3.0191	68.42	-0.2331	-0.0232	0.2099	1033.849	0.135166	-458.940471	-458.932137	-458.931192	-458.97324	31.933	
O	-0.0111902568	 1.4271793576	-0.0766421407	-0.43047
C	 0.1016503183	 0.0068049555	-0.1373323468	-0.143832
C	-1.2975106177	-0.5803882694	-0.0149180706	 0.30206
O	-2.1343622917	-0.0364976755	-1.0136657723	-0.479694
C	-1.5725253344	-2.0834954561	 0.1096010232	-0.097026
C	-0.9851937989	-2.6347846829	 1.3587688354	-0.305928
C	-2.3076099284	-1.8837524034	 1.4685731549	-0.174344
C	-2.0118114369	-0.4202898965	 1.3751449477	 0.363829
O	-2.3194898584	 0.5599463497	 1.9996798133	-0.342836
H	-0.4152814206	 1.64732154	 0.7736003305	 0.302553
H	 0.5334507841	-0.2271483736	-1.1161142736	 0.120018
H	 0.7753537423	-0.3797613518	 0.6395375918	 0.09558
H	-1.8889783806	 0.8985111631	-1.0672369895	 0.292259
H	-1.9036218226	-2.6918799508	-0.7206406365	 0.117891
H	-1.0848518184	-3.7064555478	 1.4950892658	 0.135621
H	-0.0792039322	-2.2226236824	 1.7918173333	 0.126712
H	-3.1942288471	-2.3584072057	 1.8689183942	 0.117609
102.7577	127.6944	182.3351	219.2605	287.6209	316.7899	421.3841	433.9458	486.4108	503.2656	567.4475	654.6847	695.8457	754.5035	788.5003	871.8886	910.0671	935.1442	943.8282	990.2461	1042.1996	1048.7526	1053.9025	1092.0034	1110.7676	1139.7708	1181.064	1188.5977	1241.7511	1282.3617	1323.7824	1357.0922	1418.7153	1438.2441	1493.8555	1502.6048	1863.9117	3010.9689	3079.2787	3129.0683	3200.1472	3210.3894	3222.0056	3741.6163	3764.3741
OCC1(O)C2CC2C1=O	OC[C@@]1(O)[C@H]2C[C@H]2C1=O	
InChI=1S/C6H8O3/c7-2-6(9)4-1-3(4)5(6)8/h3-4,7,9H,1-2H2	InChI=1S/C6H8O3/c7-2-6(9)4-1-3(4)5(6)8/h3-4,7,9H,1-2H2/t3-,4+,6-/m1/s1
