20
gdb 81268	2.9443	1.39715	1.18206	3.7782	80.07	-0.2267	0.0315	0.2582	1137.5227	0.171958	-403.161076	-403.152545	-403.151601	-403.194229	32.387	
C	-0.1058052877	 1.5693352663	 0.0783825926	-0.436912
C	 0.0255112332	 0.0533062693	 0.0295639856	 0.047907
C	 0.7522100438	-0.6085025689	-1.1839704019	-0.026166
C	 2.1033782939	-0.2666796292	-0.489637826	-0.245019
C	 1.2437620088	-0.6038360512	 0.782155052	-0.169104
C	 0.9775029849	-2.0937097548	 0.4921478431	 0.40613
O	 1.1066939627	-3.0725864413	 1.1901161051	-0.403278
N	 0.5826179326	-2.0362735826	-0.8331372761	-0.056365
C	 0.6340695362	-3.1463632443	-1.7518777076	-0.347921
H	 0.8317573324	 2.0946646438	-0.1198899123	 0.120603
H	-0.8413450612	 1.9122622744	-0.6577097331	 0.120945
H	-0.4587568058	 1.8848157097	 1.0658633398	 0.126169
H	-0.9417085687	-0.4093726597	 0.2486443868	 0.082593
H	 0.5204123758	-0.3831969778	-2.2248069432	 0.076561
H	 2.9527897472	-0.9169223768	-0.7135376493	 0.108437
H	 2.4035257135	 0.7793376579	-0.5547913953	 0.108791
H	 1.5368536721	-0.3517457595	 1.7987417231	 0.085294
H	 0.6636878693	-4.0610541569	-1.1553380396	 0.161639
H	-0.2516492111	-3.1731622559	-2.3961788213	 0.123126
H	 1.5275876081	-3.1179278024	-2.3920523025	 0.11657
72.2954	167.4022	170.1908	191.2609	233.6066	279.959	318.6875	454.5734	474.9211	501.1042	643.1183	730.5332	749.2498	808.0482	846.4263	852.1584	873.4242	937.412	976.8879	1013.5275	1050.4669	1059.6794	1091.126	1109.7049	1115.934	1148.3904	1160.0235	1200.539	1235.8423	1238.1702	1251.0265	1260.722	1271.2848	1385.174	1408.9358	1415.468	1452.1862	1490.2958	1491.686	1496.1203	1512.8883	1518.6033	1842.3599	2997.5791	3035.8315	3059.1992	3061.6912	3072.0269	3095.0984	3116.7182	3121.2196	3130.6206	3138.9211	3150.3116
CC1C2CC1C(=O)N2C	C[C@H]1[C@H]2C[C@@H]1C(=O)N2C	
InChI=1S/C7H11NO/c1-4-5-3-6(4)8(2)7(5)9/h4-6H,3H2,1-2H3	InChI=1S/C7H11NO/c1-4-5-3-6(4)8(2)7(5)9/h4-6H,3H2,1-2H3/t4-,5+,6-/m1/s1
