21
gdb 92087	2.595	1.54945	1.27626	1.8464	77.59	-0.2489	0.0777	0.3267	1092.3089	0.183627	-424.219613	-424.211226	-424.210282	-424.252068	33.616	
C	-0.0406335211	 1.5273524614	-0.0569265867	-0.404224
C	 0.061849218	 0.0137443643	 0.0369209152	 0.101691
O	 0.8878913393	-0.4269691095	-1.0527718397	-0.283612
C	 0.9249083628	-1.8231456513	-1.2098152655	 0.092299
C	 2.1592792846	-2.5523659095	-0.7520025643	-0.312314
C	 0.8651177596	-2.6938074011	 0.0219306772	-0.045162
C	 0.6434716371	-2.0302661518	 1.3747734489	-0.251534
C	 0.725789003	-0.4905761746	 1.3278388162	 0.128455
O	 2.0653693057	-0.0162978957	 1.3998436338	-0.448336
H	 0.936279587	 1.9908320073	 0.1009300465	 0.130117
H	-0.4155353304	 1.8220703446	-1.0402838393	 0.122538
H	-0.7258116503	 1.9059155749	 0.707553682	 0.116938
H	-0.937940924	-0.4370541872	-0.0554107215	 0.069757
H	 0.4292914968	-2.1528768574	-2.1205172135	 0.09014
H	 2.5041795339	-3.398402651	-1.3366433544	 0.111153
H	 2.9508669353	-1.9603631409	-0.3070285935	 0.120097
H	 0.3541124525	-3.6442577919	-0.0994000829	 0.088907
H	-0.3616734978	-2.2979336085	 1.7248698652	 0.096302
H	 1.3519382155	-2.3998051333	 2.1235967444	 0.11091
H	 0.2061821823	-0.0820351922	 2.2022647237	 0.078491
H	 2.3764999702	 0.0427658734	 0.487304228	 0.287387
120.0747	157.6445	200.1502	254.6041	295.5518	319.9181	365.417	421.2729	475.1959	502.7401	544.8208	640.7482	738.2285	750.9692	812.1655	817.4593	871.1755	883.7532	915.289	995.5421	1000.3172	1026.6594	1046.5852	1063.0649	1082.3516	1110.1975	1124.8356	1145.4699	1173.3908	1180.9895	1229.9061	1243.7069	1286.733	1298.333	1343.291	1361.8622	1377.2081	1396.2612	1408.4254	1411.9123	1437.9332	1472.4297	1486.0954	1486.9458	1495.8398	2990.1741	3022.3654	3045.049	3050.1215	3072.985	3119.9184	3121.4573	3132.041	3136.1161	3146.9091	3224.8417	3767.338
CC1OC2CC2CC1O	C[C@H]1O[C@H]2C[C@H]2C[C@H]1O	
InChI=1S/C7H12O2/c1-4-6(8)2-5-3-7(5)9-4/h4-8H,2-3H2,1H3	InChI=1S/C7H12O2/c1-4-6(8)2-5-3-7(5)9-4/h4-8H,2-3H2,1H3/t4-,5-,6-,7+/m1/s1
