18
gdb 16436	3.38695	2.28548	1.72852	1.1188	72.02	-0.2118	0.0752	0.2871	821.8357	0.153681	-343.867575	-343.860354	-343.85941	-343.898427	28.54	
C	 0.0583638675	 1.5282177578	-0.1611757041	-0.329597
N	 0.0416127763	 0.0731373792	-0.0410269831	-0.150779
C	-1.1083113027	-0.4939319343	 0.7210326225	-0.031831
C	-0.2654440712	-1.7200306117	 1.1810864317	-0.081183
N	-0.5647621612	-1.5883071845	 2.6427807605	-0.353255
C	-0.5357626185	-0.1722946243	 2.1524667359	-0.093942
C	 0.6836116546	-0.4833625075	 1.1964378563	 0.392728
C	 2.1497757509	-0.4316249933	 1.493553327	-0.534835
H	 1.0509089186	 1.8552920091	-0.487765111	 0.120352
H	-0.6592533387	 1.8336960498	-0.9298307751	 0.118889
H	-0.1898858583	 2.0661462576	 0.7701559227	 0.0939
H	-2.1408535544	-0.4623749805	 0.3652968446	 0.075912
H	-0.115141228	-2.6701416164	 0.6682563974	 0.085995
H	-1.5291660917	-1.8746667872	 2.8310110321	 0.20783
H	-0.7119832779	 0.6762919573	 2.8146305013	 0.0826
H	 2.3528487765	-0.9679857921	 2.425206238	 0.14453
H	 2.7237546635	-0.89804356	 0.6865567037	 0.130239
H	 2.4979392746	 0.600375211	 1.6086106996	 0.122446
205.7743	212.5905	214.5571	235.3321	278.9736	333.2047	529.9061	554.1443	648.1526	735.835	750.3517	799.203	803.579	843.148	900.4319	912.8045	942.0777	1000.3032	1057.5083	1087.262	1103.9427	1116.6927	1142.0092	1157.3752	1159.2586	1184.385	1189.1262	1221.0646	1268.3891	1287.6915	1292.9787	1377.0718	1413.7904	1446.54	1482.7161	1490.0605	1493.867	1497.3531	2956.9179	3035.1783	3061.8607	3087.738	3097.4524	3101.7715	3107.4796	3117.4187	3122.0526	3400.6753
CN1C2C3NC2C13C	CN1[C@H]2[C@@H]3N[C@H]2[C@]13C	
InChI=1S/C6H10N2/c1-6-4-3(8(6)2)5(6)7-4/h3-5,7H,1-2H3	InChI=1S/C6H10N2/c1-6-4-3(8(6)2)5(6)7-4/h3-5,7H,1-2H3/t3-,4-,5+,6+
