23
gdb 95807	2.27415	1.46726	1.06768	1.6744	81.55	-0.2475	0.0746	0.3221	1228.5644	0.206121	-425.443059	-425.433585	-425.432641	-425.476473	37.038	
C	-0.0697301462	 1.5050666383	-0.0894397315	-0.412188
C	 0.0601704355	-0.0081563238	 0.0113939356	 0.128268
O	 0.6963977012	-0.4533998225	-1.1849079954	-0.256641
C	 0.7115529579	-1.8636837948	-1.3029307124	-0.077545
C	 1.4492782576	-2.5253658942	-0.1334045813	-0.242047
C	 0.8572195088	-2.0438630016	 1.1955183554	 0.115144
O	 1.5769499482	-2.5237295541	 2.3233847382	-0.442174
C	 0.8290678102	-0.5055108701	 1.2571688116	 0.014155
C	 2.230915249	 0.1094497003	 1.3823902509	-0.40637
H	 0.9102001146	 1.9742987468	-0.2069471747	 0.129339
H	-0.6789878205	 1.7716956163	-0.957047833	 0.120582
H	-0.5453867584	 1.9105129993	 0.8088432144	 0.112679
H	-0.9545166998	-0.4457130846	 0.0479758171	 0.057437
H	-0.3228341036	-2.2474072877	-1.3553115188	 0.083528
H	 1.1982875994	-2.0897057371	-2.2560147829	 0.106995
H	 1.3647884313	-3.6172502916	-0.2159519276	 0.082206
H	 2.5142856501	-2.2742652595	-0.1711312876	 0.114522
H	-0.1891893126	-2.3930988739	 1.2490035755	 0.057687
H	 1.641494148	-3.4812228427	 2.2496533044	 0.278623
H	 0.244698624	-0.2300651381	 2.1443394763	 0.07249
H	 2.7710988561	 0.0608283427	 0.4327196996	 0.121975
H	 2.1725281325	 1.1606361322	 1.6775606035	 0.109045
H	 2.8083764467	-0.4241482795	 2.1395439826	 0.132287
125.1649	165.3422	202.328	230.7932	254.1719	265.1227	295.4489	297.4128	327.0774	377.8793	430.7263	449.27	572.2775	595.1428	656.1693	777.0305	833.4837	867.4019	897.8966	943.4483	981.4044	1013.2667	1039.452	1044.7113	1067.889	1118.3109	1135.0343	1155.2047	1160.8949	1176.2785	1223.0616	1260.6072	1281.0235	1300.2794	1341.2387	1347.6485	1377.7585	1381.2864	1395.7284	1406.8743	1412.43	1419.4429	1438.0518	1482.3753	1483.9211	1496.0283	1501.3799	1510.3316	1513.8938	2925.2548	2938.502	2952.0188	3022.191	3026.7618	3047.0381	3051.8714	3078.8404	3088.0552	3115.6958	3119.4312	3128.0236	3137.3998	3815.9798
CC1OCCC(O)C1C	C[C@H]1OCC[C@@H](O)[C@H]1C	
InChI=1S/C7H14O2/c1-5-6(2)9-4-3-7(5)8/h5-8H,3-4H2,1-2H3	InChI=1S/C7H14O2/c1-5-6(2)9-4-3-7(5)8/h5-8H,3-4H2,1-2H3/t5-,6+,7+/m0/s1
