17
gdb 126861	2.21038	1.56729	0.99085	2.3913	73.74	-0.2321	-0.0362	0.1958	1206.5764	0.134355	-451.281494	-451.27212	-451.271176	-451.317698	31.839	
C	-0.104223026	 1.5264603693	-0.098407888	-0.387177
C	-0.09436898	 0.0030795142	 0.0270326016	-0.14586
N	-1.4306646694	-0.5702624273	 0.0185921898	-0.096929
N	-2.1212266901	-0.8365729362	 1.1355572784	-0.043111
N	-3.2619143729	-1.2610081387	 0.8610928177	-0.010887
O	-3.3937639278	-1.2873244687	-0.5683625906	-0.254704
C	-2.2199466408	-0.8195684818	-1.0974028585	 0.566183
N	-1.8859766429	-0.6380368327	-2.2975833047	-0.384413
C	-2.839634085	-0.9705753038	-3.3457660856	-0.326849
H	 0.9226701887	 1.903054866	-0.1089144942	 0.12846
H	-0.5914366173	 1.8265915446	-1.0292670024	 0.152119
H	-0.6316219872	 1.9850875379	 0.7427656378	 0.134693
H	 0.4358680524	-0.4495197198	-0.8151061878	 0.151201
H	 0.3810376037	-0.3222279956	 0.954979678	 0.140698
H	-3.8827722021	-0.7839539637	-3.0598784939	 0.124848
H	-2.6109886991	-0.375167362	-4.2336269352	 0.12502
H	-2.7557729544	-2.0279777118	-3.6291446324	 0.126709
31.5249	34.7034	95.6431	168.6374	183.0332	231.7422	252.4107	311.4399	405.8396	534.6779	640.4828	648.7441	712.7632	718.5323	773.1586	798.1835	964.5925	999.7261	1070.3734	1096.6087	1107.2579	1121.6574	1138.4144	1181.6932	1260.9289	1381.1102	1394.2454	1395.4037	1411.5444	1448.3612	1469.7742	1490.2773	1491.6817	1503.4809	1504.4863	1521.3662	1808.1832	3005.7265	3048.4363	3058.9645	3073.4939	3100.9766	3117.3363	3125.385	3141.8446
CCN1N=NOC1=NC	CCn1nnoc1=NC	
InChI=1S/C4H8N4O/c1-3-8-4(5-2)9-7-6-8/h3H2,1-2H3	InChI=1S/C4H8N4O/c1-3-8-4(5-2)9-7-6-8/h3H2,1-2H3
