16
gdb 131824	5.81109	0.68923	0.67524	6.1017	66.76	-0.2884	-0.0437	0.2446	1622.0428	0.124204	-467.325257	-467.316519	-467.315575	-467.361105	29.278	
O	-0.0785834878	 1.4369378516	 0.0100427914	-0.414081
C	 0.0222358611	 0.0263063841	 0.0020057797	-0.072486
C	-1.4001342003	-0.5241296587	 0.0128866023	-0.184304
C	-1.4125264631	-2.0540605946	 0.0046223214	-0.15933
N	-2.7712012147	-2.586545211	 0.0146442147	 0.16667
N	-3.4624098242	-2.8354920728	 1.1156228247	-0.120666
N	-4.6228383205	-3.2457387523	 0.7021647056	-0.083686
N	-4.6340766273	-3.242529587	-0.6450099841	-0.083731
N	-3.4807781586	-2.8300709238	-1.0758295128	-0.120606
H	 0.8091851808	 1.8065288516	 0.0033624977	 0.292958
H	 0.5556843424	-0.3362493945	-0.892461132	 0.094028
H	 0.5727597255	-0.3451321978	 0.8823719802	 0.094049
H	-1.920664013	-0.156307918	 0.9027128362	 0.139503
H	-1.9377333348	-0.1466057436	-0.8626442684	 0.139412
H	-0.9325585355	-2.4556585025	-0.8905706994	 0.156165
H	-0.91537966	-2.4654282207	 0.8859365429	 0.156107
22.6897	74.0376	88.274	102.7674	234.235	256.8119	330.5302	352.5298	469.1284	725.613	762.6104	767.93	775.6819	868.1443	979.3777	1026.3021	1044.4047	1053.7196	1095.8685	1107.3273	1145.7891	1188.7552	1243.1199	1248.1837	1254.7715	1310.9542	1316.2216	1317.5795	1396.1855	1402.29	1423.2152	1469.9954	1478.826	1500.2662	1529.5509	2957.234	2983.267	3056.9755	3081.8308	3103.6581	3139.2142	3833.2814
OCCCN1N=NN=N1	OCCCn1nnnn1	
InChI=1S/C3H7N5O/c9-3-1-2-8-6-4-5-7-8/h9H,1-3H2	InChI=1S/C3H7N5O/c9-3-1-2-8-6-4-5-7-8/h9H,1-3H2
