16
gdb 45768	3.23947	1.11621	0.86303	3.8063	74.76	-0.262	-0.0393	0.2226	1273.3674	0.12426	-400.795418	-400.787219	-400.786275	-400.829205	29.736	
O	 0.0211636657	 0.0830246788	 0.2871722453	-0.305708
C	-0.0474874942	 1.2682860325	 0.0988848862	 0.389289
C	-1.3241047542	 2.0963868628	-0.091805448	-0.372385
C	-0.8212109112	 3.5127550741	-0.0076598354	-0.074772
C	 0.5082384937	 3.5856693807	 0.0822380698	-0.078017
C	 1.1629603616	 2.2288825586	 0.0668580057	-0.158561
C	 2.1369807464	 1.9146432959	 1.2252435517	-0.346695
C	 3.3539710418	 2.7180795856	 1.1618749669	 0.262116
N	 4.3050847747	 3.3710388815	 1.0931471278	-0.307911
H	-1.7790308587	 1.8563074376	-1.0627972673	 0.146155
H	-2.0698073192	 1.8308891666	 0.6668290431	 0.144191
H	-1.4871326238	 4.3672890834	-0.0299596433	 0.112778
H	 1.083576408	 4.5019222445	 0.1440443462	 0.12668
H	 1.7039427359	 2.0593496779	-0.8754671125	 0.133002
H	 1.646927498	 2.0932076105	 2.1887515035	 0.155383
H	 2.3944169156	 0.8510814292	 1.1870715203	 0.174456
57.5691	77.0226	125.4828	227.8217	251.4822	394.4204	434.2069	447.2315	540.1553	581.7937	638.973	725.1135	756.2575	802.9051	870.1526	907.4895	969.8552	980.8142	992.8531	1027.9833	1078.6505	1132.0387	1138.6195	1161.0159	1201.5474	1239.6655	1284.5575	1317.2715	1342.5303	1383.1808	1442.4431	1466.3898	1678.0778	1851.8096	2361.5873	3007.2717	3024.43	3051.3151	3063.4954	3095.9316	3195.2541	3217.1705
O=C1CC=CC1CC#N	O=C1CC=C[C@H]1CC#N	
InChI=1S/C7H7NO/c8-5-4-6-2-1-3-7(6)9/h1-2,6H,3-4H2	InChI=1S/C7H7NO/c8-5-4-6-2-1-3-7(6)9/h1-2,6H,3-4H2/t6-/m0/s1
