16
gdb 29935	2.47604	1.69844	1.01386	5.0094	77.82	-0.2123	-0.0421	0.1702	1113.2333	0.125085	-437.943741	-437.935602	-437.934658	-437.976604	29.937	
C	-0.0492045411	 1.449791185	 0.0088691662	-0.34623
N	-0.0127606908	 0.0027975219	-0.0108531286	-0.076996
C	-0.0404323164	-0.7790257969	-1.1183234159	-0.062467
C	 0.0095566489	-2.1211057687	-0.7693712468	-0.290431
C	 0.0713332862	-2.1547250205	 0.6356726769	 0.34872
O	 0.1333531214	-3.2285943492	 1.4233598465	-0.420733
C	 0.0573301077	-0.8281179822	 1.107675923	 0.062213
C	 0.1077722528	-0.4768368815	 2.4810916478	 0.06827
O	 0.1686633891	-1.3323123919	 3.3725287296	-0.365059
H	 0.8515158486	 1.8610394208	 0.476532827	 0.147585
H	-0.1041436716	 1.8142018896	-1.0182236155	 0.145334
H	-0.9250619064	 1.8151263256	 0.5552326154	 0.147598
H	-0.0946048203	-0.3285948283	-2.0983313711	 0.133792
H	 0.0021206782	-2.9615574961	-1.443669884	 0.117396
H	 0.1639992496	-2.8755008273	 2.3416352743	 0.314855
H	 0.0914470641	 0.5985963096	 2.7477428151	 0.076153
86.9146	147.8611	176.8444	209.3741	285.2611	291.1792	336.2311	466.495	528.2242	596.6029	615.6834	706.4769	749.4822	769.6557	780.7493	829.257	832.7491	1012.7801	1030.3754	1099.591	1114.2839	1150.8712	1200.5107	1285.3443	1364.3509	1379.9114	1422.1011	1450.2427	1477.7183	1478.8691	1508.3097	1537.3308	1543.1472	1604.0747	1699.4226	2925.2185	3033.7385	3090.606	3139.0449	3245.5311	3273.7605	3429.9865
CN1C=CC(O)=C1C=O	Cn1ccc(O)c1C=O	
InChI=1S/C6H7NO2/c1-7-3-2-6(9)5(7)4-8/h2-4,9H,1H3	InChI=1S/C6H7NO2/c1-7-3-2-6(9)5(7)4-8/h2-4,9H,1H3
