18
gdb 103384	2.61974	1.50367	1.24373	4.1184	72.12	-0.2435	-0.0287	0.2148	1060.8149	0.146717	-439.049237	-439.040582	-439.039638	-439.082193	32.821	
C	-0.0599135347	 1.6058242769	-0.1461141544	-0.449813
C	-0.029982733	 0.0842215362	-0.091400042	 0.149237
C	-1.4151740408	-0.5168472641	 0.2234699183	-0.100505
O	-1.8866415117	-0.108512935	 1.4885468643	-0.424388
C	 0.7205617831	-0.6678412934	-1.2162607203	-0.104184
N	 2.0956283813	-0.1730157351	-1.2016556153	-0.330111
C	 1.7140365664	-1.2774753284	-0.2537947525	-0.187016
C	 0.974303871	-0.6188560857	 0.8763370987	 0.432841
O	 0.9404397683	-0.7898196979	 2.066934403	-0.343904
H	 0.9362444523	 2.0113535951	-0.3305703174	 0.138814
H	-0.7279756269	 1.9436720635	-0.9470417615	 0.113011
H	-0.4437789698	 2.0026454133	 0.7965919855	 0.140497
H	-2.1445950965	-0.1623273234	-0.5145742053	 0.10839
H	-1.3714622444	-1.6162885211	 0.1404711668	 0.084738
H	-1.2073014534	-0.3520028973	 2.1327828089	 0.298107
H	 0.2857590964	-1.1438681323	-2.0865256118	 0.112637
H	 2.6057435183	-0.6275560265	-1.9596947391	 0.243271
H	 2.2323740141	-2.2275920546	-0.2729120757	 0.118377
120.4535	146.4866	184.7201	192.8541	241.5275	256.0789	310.5172	387.3008	475.5504	518.2021	535.0086	651.7769	699.2159	767.1513	820.4407	838.5386	862.0377	900.8549	949.6602	970.4537	981.54	1064.0992	1077.5501	1092.6765	1105.2424	1143.5529	1181.5609	1204.1053	1259.7276	1275.4054	1326.0183	1358.8577	1381.9928	1404.5274	1447.358	1493.0452	1494.9361	1510.3441	1854.5835	2957.0128	3037.2172	3052.1309	3111.4823	3144.4308	3193.5874	3206.8325	3467.0939	3745.6711
CC1(CO)C2NC2C1=O	C[C@@]1(CO)[C@H]2N[C@H]2C1=O	
InChI=1S/C6H9NO2/c1-6(2-8)4-3(7-4)5(6)9/h3-4,7-8H,2H2,1H3	InChI=1S/C6H9NO2/c1-6(2-8)4-3(7-4)5(6)9/h3-4,7-8H,2H2,1H3/t3-,4+,6-/m1/s1
