21
gdb 71392	3.17584	1.36589	1.30752	1.2916	82.54	-0.2376	0.0774	0.315	1107.8521	0.181538	-387.05231	-387.043691	-387.042747	-387.084589	34.889	
C	 0.0006119446	 1.4582237005	 0.0040055956	-0.506273
C	-0.0286718731	-0.0408178025	-0.0242676321	 0.331007
C	-1.2471293862	-0.9418196827	-0.2551058918	-0.283999
C	-0.3624118043	-2.0985162949	 0.2688117909	-0.137924
C	 0.5652539534	-1.0238942682	 0.958306942	-0.131448
C	 1.2095706646	-0.8680118311	-0.4060522431	-0.141807
C	 0.746355759	-2.2517965433	-0.8307081167	 0.441557
C	 1.7475749964	-3.3594510034	-0.517227806	-0.460555
O	 0.3262969523	-2.3208908826	-2.1828299164	-0.482833
H	 0.9728776676	 1.8311713694	 0.3442774482	 0.115452
H	-0.1844603137	 1.876971934	-0.9921689691	 0.122886
H	-0.7636932228	 1.8570973997	 0.6808357245	 0.115506
H	-2.0483658244	-0.6962234132	 0.448990892	 0.085025
H	-1.6446220379	-1.0416564051	-1.2694313358	 0.098466
H	-0.7930812646	-2.9799070785	 0.7428774941	 0.057353
H	 0.9730841988	-0.9148563563	 1.9525135306	 0.084247
H	 2.1499555589	-0.3861750396	-0.6468978839	 0.075603
H	 2.0897313896	-3.3090924033	 0.5197712636	 0.12447
H	 1.2890338199	-4.345421786	-0.6687618439	 0.101278
H	 2.6188167703	-3.2866286372	-1.1760113677	 0.120617
H	 0.1395171315	-3.2415596855	-2.395606875	 0.27137
158.2805	201.6124	222.8461	246.503	266.4494	280.5897	315.0978	368.2911	405.8094	491.5918	553.0543	594.4154	650.0458	763.009	780.7315	829.3056	867.1175	887.8977	906.6905	919.8392	957.3221	969.1713	1002.5098	1016.8133	1036.6139	1078.0577	1109.6037	1112.4637	1145.1209	1160.4068	1180.5422	1200.525	1210.7506	1250.981	1258.8092	1303.8568	1382.1882	1407.7454	1411.1078	1430.7547	1486.1762	1488.6899	1490.7054	1497.0848	1500.5708	3019.5466	3020.8204	3044.0282	3081.2917	3086.4754	3090.1913	3100.5485	3118.0374	3119.3708	3182.1564	3222.9547	3802.9833
CC12CC3C1C2C3(C)O	C[C@]12C[C@@H]3[C@H]1[C@H]2[C@]3(C)O	
InChI=1S/C8H12O/c1-7-3-4-5(7)6(7)8(4,2)9/h4-6,9H,3H2,1-2H3	InChI=1S/C8H12O/c1-7-3-4-5(7)6(7)8(4,2)9/h4-6,9H,3H2,1-2H3/t4-,5+,6-,7+,8-/m1/s1
