23
gdb 109163	3.09791	1.05047	0.86123	1.4826	87.74	-0.2229	0.0356	0.2585	1429.3999	0.205187	-388.30618	-388.296132	-388.295188	-388.340974	37.693	
C	-0.9771198923	 0.9526603944	-0.0047933371	-0.413185
C	 0.1445377639	-0.0844109683	 0.0055875123	 0.037133
C	 1.2222150776	 0.110949286	-1.0914396275	-0.267459
C	 2.4360436998	-0.5509429219	-0.4883788551	-0.162707
C	 2.291253765	-0.7573450636	 0.8210947128	 0.318516
C	 3.2876487641	-1.383712689	 1.7427634966	-0.183641
O	 4.4556655139	-1.7398326406	 1.0238335022	-0.414459
C	 0.9593042462	-0.2271973155	 1.3313211944	-0.098711
C	 1.136888195	 1.0797728099	 2.1281029363	-0.394151
H	-0.595464388	 1.9693927945	 0.1342409298	 0.115308
H	-1.5096082088	 0.9314628602	-0.9618700494	 0.110627
H	-1.7128168521	 0.7605565695	 0.7841757218	 0.109018
H	-0.3051338348	-1.0689251337	-0.1754993639	 0.074462
H	 0.9196458587	-0.3294683534	-2.0489203781	 0.096493
H	 1.4091698453	 1.1771035028	-1.2926120815	 0.097188
H	 3.3251726683	-0.8050499081	-1.0514901493	 0.102494
H	 3.5244973232	-0.6838479124	 2.5635949127	 0.092668
H	 2.8276486175	-2.2677062096	 2.2215255239	 0.091297
H	 5.0735212909	-2.1418990674	 1.6405537822	 0.287802
H	 0.4682651441	-0.9527587902	 1.9949674174	 0.060826
H	 1.612530746	 1.8560075791	 1.5195734376	 0.118822
H	 0.1760621032	 1.4656597123	 2.4825482306	 0.112845
H	 1.7684339134	 0.918581385	 3.0077064512	 0.108816
69.5494	85.3708	181.2932	205.6201	232.2884	245.5407	258.0585	271.6314	291.0839	316.9061	399.2061	529.4712	533.7091	634.6398	667.6976	768.871	829.5734	842.0481	893.4037	938.5234	983.2854	1008.1426	1029.7813	1038.3975	1054.1499	1087.5663	1097.1722	1124.7643	1153.027	1179.8811	1210.1082	1216.6233	1249.718	1285.8748	1303.2684	1317.2108	1343.8774	1362.0935	1373.4212	1404.2253	1414.4113	1465.3073	1490.1644	1491.5618	1494.673	1504.4449	1508.4296	1509.5399	1723.0916	2933.0874	2950.0366	2987.9607	2996.504	3019.5173	3028.4432	3033.5821	3048.7459	3090.3398	3097.7255	3102.3235	3105.5419	3216.5551	3837.6441
CC1CC=C(CO)C1C	C[C@H]1CC=C(CO)[C@H]1C	
InChI=1S/C8H14O/c1-6-3-4-8(5-9)7(6)2/h4,6-7,9H,3,5H2,1-2H3	InChI=1S/C8H14O/c1-6-3-4-8(5-9)7(6)2/h4,6-7,9H,3,5H2,1-2H3/t6-,7-/m0/s1
