19
gdb 57283	2.61544	1.27994	1.06353	2.0528	76.58	-0.2464	0.0292	0.2756	1194.5873	0.156153	-422.963932	-422.954136	-422.953192	-422.998692	35.969	
C	 0.0622023344	 1.5055115696	 0.1188355685	-0.402416
C	-0.0044228177	-0.0241768917	 0.0142581097	 0.117555
O	 0.6835051647	-0.5152733522	 1.1685506575	-0.442058
C	-1.4005406726	-0.4891278066	 0.0195836112	 0.320172
C	-2.5271523295	-0.9094959202	 0.0151926195	-0.479689
C	 0.6766615429	-0.5066498455	-1.2842818558	-0.023992
C	 2.2203400898	-0.4453957011	-1.3271645722	-0.097123
O	 2.3128034829	-1.872199369	-1.5248005381	-0.271237
C	 0.8834589162	-2.0252218487	-1.4661393846	-0.097543
H	 1.1080883733	 1.8253078162	 0.126398522	 0.129238
H	-0.4489357311	 1.9738946415	-0.7254191025	 0.124542
H	-0.4083230763	 1.8344076627	 1.047375782	 0.136413
H	 0.4749270945	-1.450119194	 1.2693193416	 0.290132
H	-3.5272821438	-1.2677506664	 0.0196262563	 0.202653
H	 0.1853445709	-0.032809144	-2.1365845499	 0.089518
H	 2.6545716021	 0.112653294	-2.1649319387	 0.097199
H	 2.693321615	-0.1334696184	-0.389730144	 0.116354
H	 0.5677694237	-2.6556042195	-0.6225250169	 0.085229
H	 0.4733768607	-2.4565655668	-2.3868752757	 0.105055
61.4786	87.0263	134.8825	177.2103	222.4503	245.7667	266.6618	289.1767	366.3076	415.0273	458.1857	550.6964	589.1109	636.5738	666.9857	685.5526	822.5808	886.057	889.6099	939.4866	971.9113	1007.4572	1045.3579	1048.483	1071.6307	1113.1804	1154.7533	1170.5909	1182.8791	1207.9061	1261.2666	1311.4751	1336.5554	1361.4075	1390.776	1404.7405	1480.539	1493.6427	1505.9127	1534.4211	2228.1699	2995.6681	3025.1683	3046.3284	3052.0564	3073.1595	3091.7131	3129.4562	3141.9501	3498.3399	3815.3713
CC(O)(C#C)C1COC1	C[C@@](O)(C#C)C1COC1	
InChI=1S/C7H10O2/c1-3-7(2,8)6-4-9-5-6/h1,6,8H,4-5H2,2H3	InChI=1S/C7H10O2/c1-3-7(2,8)6-4-9-5-6/h1,6,8H,4-5H2,2H3/t7-/m1/s1
