19
gdb 39861	3.06837	1.85757	1.51494	1.8245	78.26	-0.252	0.0923	0.3443	927.0487	0.161848	-385.832857	-385.826403	-385.825459	-385.863311	27.713	
C	 0.0339365009	 1.4413537288	-0.0106978553	-0.304938
O	 1.1695723447	 0.5561782725	 0.0176758487	-0.31927
C	-0.1334018624	-0.0086389273	-0.0044975699	 0.560807
C	-0.594506385	-0.9093367013	 1.1346997368	-0.146336
C	 0.2981892367	-2.153942916	 0.8633842422	-0.237025
C	-0.573204398	-2.2853708832	-0.398035873	-0.032791
C	-1.7787227641	-1.6473142603	 0.3642373066	-0.031505
C	-2.1522030263	-0.8428654173	-0.8931558544	-0.241726
C	-0.6200509691	-0.8825704956	-1.1548835149	-0.143191
H	-0.1279163515	 2.0142782202	 0.9016930199	 0.112172
H	-0.0943437355	 2.0025305978	-0.9361452754	 0.112105
H	-0.709891886	-0.4754478259	 2.1269578453	 0.065806
H	 1.375149607	-1.9898188493	 0.7730542538	 0.111773
H	 0.0964466278	-2.9706992501	 1.5622768155	 0.094892
H	-0.6521825659	-3.188000533	-1.002400474	 0.068401
H	-2.4866787157	-2.2212138562	 0.9610252794	 0.069288
H	-2.7157170268	-1.4609848677	-1.5980110636	 0.098488
H	-2.6292438282	 0.1377401698	-0.7962925233	 0.091463
H	-0.1802512827	-0.7195072259	-2.1375261943	 0.071588
166.4537	274.4404	320.3887	403.3728	416.4043	503.0438	586.6621	709.4438	752.5574	778.0356	817.2638	832.8472	853.0425	886.3779	918.074	926.1956	932.3847	977.9133	994.7265	1002.946	1027.4101	1032.2628	1070.6349	1074.69	1111.2049	1126.8481	1149.9283	1163.3904	1189.2012	1201.7724	1205.8653	1226.7759	1230.9979	1267.5879	1269.1865	1293.6842	1311.4268	1450.3761	1495.6536	1498.7635	1543.0451	3042.6093	3055.096	3076.1516	3099.4958	3113.1561	3116.7445	3123.3022	3128.4123	3134.3811	3160.6324
C1OC11C2CC3C2CC13	C1O[C@]21[C@@H]1C[C@H]3[C@@H]1C[C@@H]23	
InChI=1S/C8H10O/c1-4-5-2-7(4)8(3-9-8)6(1)5/h4-7H,1-3H2	InChI=1S/C8H10O/c1-4-5-2-7(4)8(3-9-8)6(1)5/h4-7H,1-3H2/t4-,5-,6+,7+/m0/s1
