15
gdb 6432	4.60631	1.34925	1.25025	1.5338	63.14	-0.2584	-0.0414	0.217	971.524	0.116833	-399.834367	-399.826323	-399.825378	-399.867141	28.953	
C	-0.0001067951	 1.6278803228	 0.055877551	-0.446434
C	-0.0037585379	 0.1078122555	 0.0633497293	 0.234758
C	 0.6409341734	-0.605040813	-1.1812210842	-0.444867
C	 1.7006797417	-1.1443551278	-0.1916322378	 0.44501
O	 2.6885190491	-1.8188483705	-0.2637867808	-0.347423
N	 1.05524771	-0.5364913354	 0.8624977244	-0.359581
C	-1.3682985184	-0.4778424296	 0.3990265887	 0.136588
O	-2.3811381455	 0.1604067101	 0.5110690828	-0.243332
H	 0.9861020805	 2.0070007776	-0.2243137577	 0.123181
H	-0.7439840088	 2.0037441635	-0.6507672457	 0.144848
H	-0.2609076929	 2.0224869789	 1.0423483289	 0.13225
H	 0.036651862	-1.3831123981	-1.653330662	 0.139962
H	 1.0208635945	 0.0791716648	-1.9409014466	 0.144971
H	 1.3060456214	-0.4423615704	 1.8368659216	 0.255446
H	-1.3480988341	-1.5831207683	 0.5396746782	 0.084622
63.6497	87.2489	204.5768	255.3104	308.6258	345.0893	380.4145	423.8511	469.2562	508.6822	560.9139	728.2727	774.3565	876.3166	905.1631	953.3628	980.4693	1016.9079	1074.3482	1109.7325	1169.7985	1190.6444	1248.4385	1278.6506	1366.212	1403.7771	1422.4892	1454.9791	1482.2164	1490.6576	1834.7649	1906.4159	2875.9123	3048.754	3084.09	3120.1599	3133.1605	3147.3932	3598.6166
CC1(CC(=O)N1)C=O	C[C@]1(CC(=O)N1)C=O	
InChI=1S/C5H7NO2/c1-5(3-7)2-4(8)6-5/h3H,2H2,1H3,(H,6,8)	InChI=1S/C5H7NO2/c1-5(3-7)2-4(8)6-5/h3H,2H2,1H3,(H,6,8)/t5-/m0/s1
