23
gdb 94807	2.76872	1.32818	1.13969	1.544	85.28	-0.2229	0.0791	0.302	1217.0517	0.205566	-388.289656	-388.280319	-388.279375	-388.323407	36.213	
C	-0.6712159837	 1.247591811	 0.0049105516	-0.426006
C	 0.1601879294	-0.0328958783	 0.0240476166	 0.006639
C	 1.2649712424	-0.0832664298	-1.0529773602	-0.08407
O	 2.329230466	-0.8790548025	-0.52682478	-0.308243
C	 1.9548936691	-1.3454226779	 0.7534557552	 0.48643
C	 1.8269796648	-2.8357024028	 0.9443538196	-0.340439
C	 3.0032850988	-2.0655949894	 1.5292560515	-0.345878
C	 0.956465346	-0.3486952572	 1.3180135897	-0.089543
C	 1.6486084095	 0.8648323277	 1.9526970659	-0.39904
H	-0.0483098333	 2.1381217485	 0.1342433697	 0.120895
H	-1.2007159438	 1.3519217421	-0.9483989606	 0.115714
H	-1.4245382937	 1.244658607	 0.7996483382	 0.115935
H	-0.5117883772	-0.8830917627	-0.1454694257	 0.080184
H	 0.9038842959	-0.5182401677	-1.993499757	 0.096737
H	 1.6562833391	 0.9188968218	-1.2766354265	 0.094437
H	 1.0720738615	-3.2195601091	 1.6234127821	 0.105154
H	 2.0279466494	-3.4587617429	 0.0800498843	 0.115971
H	 3.9681958531	-2.1907123024	 1.0507897003	 0.122588
H	 3.0458905269	-1.9217284665	 2.6039873544	 0.110423
H	 0.3077370572	-0.8236869084	 2.0611311677	 0.069568
H	 2.3183601048	 1.3609442806	 1.2430632511	 0.126325
H	 0.9226356078	 1.60200999	 2.3082869122	 0.111287
H	 2.25308002	 0.5537600886	 2.8101629397	 0.114931
83.3916	101.9465	202.9374	214.0559	229.8302	257.7917	283.9932	329.7152	364.3005	440.145	529.7447	560.037	638.8562	761.237	766.8649	794.5574	867.8011	884.2451	917.4602	950.2583	960.7744	981.7011	999.6084	1034.4703	1042.2187	1071.347	1074.6145	1077.8366	1100.2901	1167.2383	1182.4688	1191.2032	1218.699	1249.2519	1260.1812	1325.8389	1353.6248	1361.3404	1391.9373	1400.7318	1407.9424	1417.4192	1451.345	1491.222	1493.1545	1499.2343	1505.5237	1509.0062	1531.0719	3002.9931	3019.5165	3032.1539	3038.3926	3042.9629	3054.7793	3094.6017	3103.7172	3108.4064	3110.3859	3125.2402	3131.4919	3211.8097	3226.0729
CC1COC2(CC2)C1C	C[C@H]1COC2(CC2)[C@H]1C	
InChI=1S/C8H14O/c1-6-5-9-8(3-4-8)7(6)2/h6-7H,3-5H2,1-2H3	InChI=1S/C8H14O/c1-6-5-9-8(3-4-8)7(6)2/h6-7H,3-5H2,1-2H3/t6-,7-/m0/s1
