17
gdb 82676	2.78762	1.59371	1.23128	4.6088	77.39	-0.2397	0.016	0.2557	1031.3724	0.137281	-380.816563	-380.809023	-380.808078	-380.848452	29.462	
C	 0.0337126614	 1.5996120203	-0.0633126792	-0.422902
C	 0.0809381459	 0.0836647517	 0.0103758805	-0.019537
C	 1.1215002868	-0.7086400653	-0.8310871435	-0.082159
N	 2.4276629287	-0.0828840961	-0.4082531884	-0.319096
C	 2.2271867491	-0.8055183839	 0.86244427	-0.072916
C	 1.2252813349	-1.7774324317	 0.3339732555	-0.147952
C	 0.7284845367	-0.6238882162	 1.2146313509	 0.218483
C	 0.2542742695	-0.6859590713	 2.5548232789	 0.165252
N	-0.144244393	-0.7290992379	 3.6413359373	-0.352269
H	 1.0356162472	 2.0226270366	 0.0296595206	 0.144677
H	-0.3919725862	 1.9249659023	-1.0189748257	 0.115335
H	-0.5963569609	 2.0036954894	 0.7357914665	 0.127625
H	-0.9085483448	-0.3568868101	-0.1479984291	 0.091696
H	 0.9767028846	-0.8946245763	-1.8923081371	 0.088173
H	 3.1718198264	-0.5700579694	-0.906949586	 0.225733
H	 2.9788516512	-0.8992687073	 1.6352012839	 0.121448
H	 1.0623113625	-2.8416740348	 0.4363474348	 0.118408
128.8017	154.4741	196.0447	237.2865	287.962	468.2675	502.8025	545.5291	579.7132	608.4266	688.045	738.8382	786.3151	837.1991	850.0199	916.9377	932.0126	964.4873	966.9439	1022.2756	1038.7878	1084.1875	1108.7723	1126.4941	1138.2708	1161.5283	1173.7407	1225.7762	1267.0433	1278.2855	1339.4843	1378.3139	1400.8996	1411.7112	1487.9272	1503.2682	2342.8566	3037.8639	3062.8207	3099.3232	3139.9174	3154.1197	3205.0638	3218.4837	3461.9844
CC1C2NC3C2C13C#N	C[C@H]1[C@H]2N[C@@H]3[C@H]2[C@]13C#N	
InChI=1S/C7H8N2/c1-3-5-4-6(9-5)7(3,4)2-8/h3-6,9H,1H3	InChI=1S/C7H8N2/c1-3-5-4-6(9-5)7(3,4)2-8/h3-6,9H,1H3/t3-,4-,5+,6+,7-/m0/s1
