15
gdb 69915	2.88272	1.75026	1.41484	1.8351	64.4	-0.2652	-0.0225	0.2427	923.7455	0.11164	-457.713582	-457.706455	-457.705511	-457.745095	27.633	
C	-0.0609274908	 1.4926684012	 0.0290864349	-0.499949
C	 0.0841391553	 0.003089009	-0.006164805	 0.405902
O	-0.7588356696	-0.8041050105	 0.8199002722	-0.263145
C	 0.6516857197	-0.8951307212	 1.0189076675	-0.050489
C	 1.3194595656	-1.9652817477	 0.1262543002	-0.09617
O	 0.3411004394	-2.1490835344	-0.9310126571	-0.252986
C	 0.5360100167	-0.7548078182	-1.2835566813	-0.138059
C	 2.0354990308	-1.0286078316	-0.9105738928	 0.433252
O	 3.1249062512	-0.7876560812	-1.309214338	-0.297328
H	 0.8214873434	 1.9760225571	-0.4036327614	 0.138911
H	-0.9359349103	 1.8111806714	-0.5474627547	 0.138902
H	-0.1826353821	 1.8439678847	 1.0564377783	 0.140824
H	 1.0528687569	-0.5921163412	 1.9791437705	 0.117573
H	 1.7287764296	-2.8830562164	 0.5406131661	 0.113478
H	 0.1716193341	-0.471856301	-2.2683980095	 0.109285
117.6216	175.0173	213.7985	293.8988	366.7789	449.1096	526.213	544.9967	595.209	721.5285	725.4437	761.4604	853.3012	875.9894	884.5928	915.6746	948.1542	963.1037	997.854	1049.0828	1080.5902	1098.5907	1131.5251	1174.5721	1197.0914	1248.9332	1270.8204	1286.1846	1407.8242	1444.2424	1483.5161	1493.8839	1928.5155	3037.8935	3100.7939	3126.2768	3159.9812	3165.457	3188.7778
CC12OC1C1OC2C1=O	C[C@]12O[C@H]1[C@H]1O[C@@H]2C1=O	
InChI=1S/C6H6O3/c1-6-4-2(7)3(8-4)5(6)9-6/h3-5H,1H3	InChI=1S/C6H6O3/c1-6-4-2(7)3(8-4)5(6)9-6/h3-5H,1H3/t3-,4+,5-,6+/m0/s1
