17
gdb 47748	2.58908	1.75879	1.17904	3.5308	68.54	-0.269	0.0049	0.2739	1032.6545	0.137412	-458.985758	-458.978178	-458.977234	-459.018164	28.86	
O	 0.0071014806	 0.0804213057	 0.5004521032	-0.344406
C	 0.0234165159	 1.1978184261	 0.0551441299	 0.392596
O	-1.1391175188	 1.7655693857	-0.3546985832	-0.238826
C	-1.1355814704	 3.0492572225	-0.9977760738	 0.017183
O	-0.1641227419	 3.9078539167	-0.5160528232	-0.213606
C	 1.1252870843	 3.3576673661	-0.757329375	-0.192617
C	 1.2615011113	 2.0426007366	-0.0162008603	 0.15328
C	 2.1464162257	 1.9526416033	 1.2219369683	-0.278222
C	 2.5798858199	 1.2991200163	-0.0492891467	-0.294074
H	-1.016901765	 2.8781832142	-2.0801059953	 0.102858
H	-2.1115491149	 3.4892396091	-0.7876950886	 0.136013
H	 1.2643749612	 3.2138879771	-1.8414847748	 0.103458
H	 1.8578156223	 4.0922204503	-0.4140412916	 0.121935
H	 2.637057593	 2.8685086542	 1.5339384495	 0.120885
H	 1.7933763223	 1.3141934442	 2.0223365304	 0.147378
H	 2.517914682	 0.2194519985	-0.1095518374	 0.1483
H	 3.3820097324	 1.7556979331	-0.6204241314	 0.117865
68.8023	131.0816	265.3124	274.7791	293.4488	412.1365	417.2213	470.0927	566.0139	629.7654	746.3583	769.2823	793.201	850.7031	930.8409	959.554	973.2509	1004.7539	1042.9491	1062.4367	1066.9379	1087.7172	1101.3094	1143.0598	1202.8675	1232.8516	1257.0261	1315.5962	1329.1554	1335.6349	1412.9441	1453.3583	1459.9277	1485.1322	1502.0115	1524.1165	1830.8118	2969.8061	2976.3602	3096.5756	3123.824	3135.974	3139.8962	3229.4519	3242.3953
O=C1OCOCC11CC1	O=C1OCOCC21CC2	
InChI=1S/C6H8O3/c7-5-6(1-2-6)3-8-4-9-5/h1-4H2	InChI=1S/C6H8O3/c7-5-6(1-2-6)3-8-4-9-5/h1-4H2
