22
gdb 110364	3.99872	1.13766	1.08666	1.4552	86.25	-0.2168	0.09	0.3069	1242.1547	0.196989	-367.148793	-367.141036	-367.140092	-367.181199	31.716	
C	 0.0708990673	 1.3228767035	-0.9435266956	-0.404236
C	 0.1399974427	-0.0523538355	-0.2665844062	-0.211856
C	-1.244745483	-0.7008424246	-0.1984247128	 0.023584
C	-1.6817016084	-2.1203527237	-0.3550396233	-0.062013
C	-0.857864655	-3.3288977725	 0.1027176437	-0.051604
C	-1.6673219906	-3.6631183245	 1.4126108005	-0.19984
C	-1.0772503571	-2.2773371041	 1.8289316754	 0.009386
C	 0.1999310679	-2.7355860196	 1.068554747	-0.242394
N	-1.8976321727	-1.395326186	 0.9411123659	-0.139442
H	 1.0605826983	 1.7870009606	-0.9921101059	 0.111619
H	-0.3106872733	 1.2408309184	-1.9670313117	 0.119748
H	-0.5925160947	 1.9995316283	-0.3946197363	 0.123543
H	 0.8436654251	-0.6833207432	-0.8190978998	 0.113346
H	 0.5492574406	 0.0685549163	 0.7419161988	 0.1151
H	-1.9903841081	-0.0216019496	-0.6158224457	 0.089485
H	-2.5664289099	-2.3329095081	-0.9533059811	 0.086315
H	-0.611329982	-4.0847067172	-0.642707555	 0.06337
H	-2.7552771598	-3.723902864	 1.3375726513	 0.102228
H	-1.2611565179	-4.5076358485	 1.97390442	 0.093217
H	-1.0560377538	-1.926215437	 2.8600246785	 0.069612
H	 0.7108573327	-3.527467745	 1.6203384276	 0.095423
H	 0.9315356118	-2.0184615239	 0.7147956547	 0.095408
57.9499	184.1083	200.88	268.6307	327.9557	389.9415	500.4735	553.0266	643.0491	665.4273	714.0119	749.512	808.8629	825.9057	835.5126	857.212	889.6048	891.0592	953.6415	982.5893	1008.9461	1027.3955	1035.7726	1047.9658	1077.6113	1078.2491	1106.0144	1119.795	1124.6994	1139.4688	1168.6413	1212.884	1237.6975	1240.7683	1277.7355	1287.1784	1302.7838	1311.7603	1343.8106	1381.1783	1410.9064	1439.2744	1483.1922	1492.3225	1499.6988	1505.4368	1536.142	3032.4715	3037.2778	3064.1534	3072.4307	3078.8342	3088.0209	3104.2289	3107.9186	3109.8059	3119.8743	3124.5013	3132.1351	3199.8235
CCC1C2C3CC(C3)N12	CC[C@H]1[C@H]2[C@@H]3C[C@@H](C3)N12	
InChI=1S/C8H13N/c1-2-7-8-5-3-6(4-5)9(7)8/h5-8H,2-4H2,1H3	InChI=1S/C8H13N/c1-2-7-8-5-3-6(4-5)9(7)8/h5-8H,2-4H2,1H3/t5-,6+,7-,8+,9?/m0/s1
