21
gdb 111766	1.91488	1.5798	1.0928	1.0279	79.	-0.2377	0.0587	0.2964	1211.2778	0.181642	-424.178117	-424.168533	-424.167588	-424.212705	35.172	
C	 0.4634503279	 0.934597279	-0.2758026274	-0.237736
O	-0.2760209917	-0.0142974542	 0.4715967941	-0.240194
C	 0.5292575407	-0.7210569295	 1.3603476712	 0.092367
C	 0.0936629549	-2.0470171028	 1.8793861981	-0.188461
C	-0.6616734422	-2.8267898575	 0.7970448077	-0.214869
C	 0.5679470679	-2.6926158927	-0.1525442564	-0.293424
C	 1.3308314414	-1.9221623198	 0.9415470988	 0.286207
C	 2.8006611552	-2.050011317	 1.2074127291	-0.191671
O	 3.5912226426	-1.3703638504	 0.2318709738	-0.412603
H	 1.3403504964	 0.4750923914	-0.7522404392	 0.115151
H	-0.2042450012	 1.339103168	-1.0400643409	 0.122603
H	 0.8167096168	 1.7590972758	 0.3620999594	 0.107993
H	 1.0375978659	-0.0899051294	 2.0937683287	 0.080708
H	 0.0547850428	-2.2523165712	 2.9436719337	 0.086002
H	-0.8530127405	-3.862950802	 1.0826549497	 0.100387
H	-1.5933697657	-2.3713061571	 0.4545596232	 0.113445
H	 1.0270069611	-3.6602043891	-0.3747646575	 0.095606
H	 0.3999213614	-2.1559280939	-1.090417115	 0.101534
H	 3.0546643033	-1.5871189682	 2.1672500371	 0.107605
H	 3.091296915	-3.1111550584	 1.2712920746	 0.085221
H	 3.440796818	-1.8036842011	-0.6143864026	 0.284131
82.0638	105.8149	109.13	174.2566	193.0983	240.7689	265.7385	300.1484	335.0148	418.9879	505.5827	555.2357	693.5317	781.2329	794.9253	829.346	900.1661	931.2073	961.8722	970.3366	1005.5347	1032.0371	1045.8319	1057.8904	1104.7273	1130.469	1144.0941	1185.7308	1196.3122	1219.6625	1240.3605	1244.2703	1261.8938	1277.8572	1317.6687	1341.9299	1376.1664	1410.7349	1445.1712	1474.2076	1481.1355	1487.5016	1496.6762	1505.9036	1515.7992	2972.2607	2985.534	3040.4909	3049.7494	3065.7952	3070.4794	3075.1095	3095.9223	3119.0394	3123.8137	3168.4928	3816.9133
COC1C2CCC12CO	CO[C@H]1[C@H]2CC[C@@]12CO	
InChI=1S/C7H12O2/c1-9-6-5-2-3-7(5,6)4-8/h5-6,8H,2-4H2,1H3	InChI=1S/C7H12O2/c1-9-6-5-2-3-7(5,6)4-8/h5-6,8H,2-4H2,1H3/t5-,6+,7+/m1/s1
