23
gdb 92726	3.04073	1.28649	1.01499	0.3289	91.84	-0.2143	0.0312	0.2455	1280.5249	0.206926	-351.17389	-351.164978	-351.164034	-351.206914	35.44	
C	 0.1725971148	 1.6080484719	 0.0065016238	-0.392088
C	 0.0312306227	 0.0810069651	 0.006227315	 0.013334
C	 0.5176928527	-0.5253277336	-1.3274407938	-0.271573
C	 0.6694379474	-2.0240750239	-1.2876556109	-0.18717
C	 0.9507860841	-2.7049549779	-0.171584549	 0.354929
C	 1.1183136882	-4.2000440805	-0.1497116022	-0.48663
C	 1.1316098902	-1.9975933385	 1.1271414117	-0.135768
C	 2.1758711515	-0.8919866123	 1.2339572209	-0.295266
C	 0.7117446648	-0.5476301598	 1.2114108092	-0.011857
H	 1.2267388092	 1.9004027638	-0.0577437323	 0.113844
H	-0.3532747378	 2.055385904	-0.8440510061	 0.107706
H	-0.2386301457	 2.0462427276	 0.922172484	 0.107456
H	-1.0373101832	-0.1623761048	 0.0962014709	 0.073495
H	-0.1818569724	-0.2394366984	-2.122223603	 0.097721
H	 1.4740088135	-0.0577900353	-1.6093211736	 0.103196
H	 0.5715560655	-2.5594127561	-2.2291708944	 0.072895
H	 0.9786315428	-4.6363421841	-1.1423680465	 0.117126
H	 2.1163811358	-4.4808155798	 0.2107748381	 0.12297
H	 0.3986939549	-4.6698826844	 0.5335381963	 0.119988
H	 0.9940727326	-2.6097863356	 2.0138834331	 0.074316
H	 2.7125719874	-0.7861386512	 2.1708051793	 0.106612
H	 2.7764690854	-0.6991435162	 0.3517118726	 0.116287
H	 0.2924001457	-0.2339940502	 2.1643064967	 0.078475
92.3135	183.2772	190.7534	233.2638	256.2064	281.2541	305.8128	347.6533	399.1087	495.099	539.5648	596.7841	671.6232	744.7704	771.6794	819.2247	840.4094	892.9508	911.8632	939.5841	961.2961	998.0563	1026.691	1055.1822	1060.9114	1071.483	1080.5055	1107.2426	1128.9075	1130.0513	1175.4282	1183.089	1221.8889	1241.6876	1314.8072	1332.0526	1348.9697	1372.7004	1401.137	1410.442	1413.0933	1426.4426	1477.5658	1478.6786	1490.8553	1491.6559	1498.482	1499.4425	1729.4421	2980.8868	2998.1492	3012.763	3025.3636	3043.7167	3058.1444	3094.6733	3095.1554	3109.367	3128.529	3131.2928	3144.7965	3149.4319	3216.5146
CC1CC=C(C)C2CC12	C[C@H]1CC=C(C)[C@H]2C[C@@H]12	
InChI=1S/C9H14/c1-6-3-4-7(2)9-5-8(6)9/h3,7-9H,4-5H2,1-2H3	InChI=1S/C9H14/c1-6-3-4-7(2)9-5-8(6)9/h3,7-9H,4-5H2,1-2H3/t7-,8+,9-/m0/s1
