20
gdb 40570	4.58754	1.1134	1.03562	1.8054	82.2	-0.2314	0.0882	0.3196	1215.3853	0.172776	-365.924852	-365.917527	-365.916583	-365.956853	29.613	
C	-0.133207065	 1.4586046957	 0.0024777317	-0.276624
C	 1.2907774262	 0.9770382735	 0.1374874667	-0.278569
C	 0.1619803373	-0.0204056224	 0.0541688166	 0.023257
C	-0.2290439728	-0.8314797932	 1.2631278843	-0.01261
C	-1.5737569658	-1.5486831486	 1.0977036612	-0.040413
C	-0.9248947818	-2.7810990563	 0.5912064145	-0.053522
C	 0.3849263008	-2.2645087982	 1.3083895669	-0.092474
C	-0.2435493434	-2.8498000038	 2.5811791888	-0.159259
N	-1.5935240169	-2.8081900803	 1.9224789764	-0.159326
H	-0.5971070835	 1.911913614	 0.8726738398	 0.111407
H	-0.444954511	 1.8915217384	-0.9415477073	 0.111662
H	 1.9529075142	 1.0794219284	-0.7151323359	 0.110822
H	 1.7805703624	 1.1098080895	 1.0968506441	 0.11014
H	 0.0673536957	-0.5556064578	-0.8878691586	 0.081238
H	-0.0930893276	-0.2330974114	 2.1743316412	 0.058635
H	-2.5387398328	-1.1267021841	 0.8479042138	 0.096606
H	-1.1437631528	-3.467525445	-0.2156363794	 0.095035
H	 1.4216775008	-2.4302791815	 1.0207465954	 0.073452
H	 0.0149949337	-3.8964860716	 2.7612886949	 0.106532
H	-0.1556563879	-2.2791852954	 3.5140698448	 0.094012
85.3984	152.0413	161.6969	314.0777	429.9054	436.3285	460.824	746.2981	758.7359	775.8819	789.922	822.3066	826.3372	871.9557	880.2235	916.5918	943.9783	945.8347	967.1533	969.875	998.8915	1020.0498	1056.8651	1059.0815	1072.0426	1078.1457	1137.2682	1149.3404	1160.3634	1171.322	1195.0437	1197.7948	1203.9082	1225.2263	1235.196	1265.7292	1297.5391	1308.576	1339.2346	1432.4736	1470.3486	1506.1943	1510.9665	3009.3632	3027.7118	3098.3942	3128.2966	3130.367	3131.3379	3135.2261	3194.8314	3206.4392	3209.4954	3221.5207
C1CC1C1C2C3C1CN23	C1CC1[C@H]1[C@H]2[C@H]3[C@@H]1CN23	
InChI=1S/C8H11N/c1-2-4(1)6-5-3-9-7(5)8(6)9/h4-8H,1-3H2	InChI=1S/C8H11N/c1-2-4(1)6-5-3-9-7(5)8(6)9/h4-8H,1-3H2/t5-,6-,7-,8+,9?/m1/s1
