19
gdb 95153	2.66627	1.75702	1.48126	0.6124	74.28	-0.2409	0.0048	0.2457	959.1995	0.162313	-423.026327	-423.019143	-423.018199	-423.057454	29.776	
O	-0.0536342136	 1.4370819428	 0.0771330068	-0.440581
C	 0.0085162005	 0.0206365492	-0.0104886745	 0.105881
C	 0.8045634054	-0.5566845226	 1.1889034528	-0.099797
O	 0.5885937988	-1.9408499607	 1.4384727159	-0.278718
C	-0.7941208542	-2.3372729811	 1.3566975304	 0.086153
C	-1.2910772054	-2.0743167372	-0.0733812531	-0.235027
C	-1.4292150856	-0.5368463679	 0.0000804766	-0.069022
C	-2.0431761442	-0.3735361986	 1.386694843	-0.064926
C	-1.696275232	-1.4053676527	 2.1584496859	-0.096046
H	 0.8434698552	 1.7837318364	 0.0320115358	 0.284055
H	 0.4825208588	-0.2837069699	-0.956345771	 0.067795
H	 1.8824697947	-0.4504146486	 1.023520509	 0.093993
H	 0.5355559127	 0.0487394001	 2.0647750881	 0.101873
H	-0.8049307912	-3.3834893617	 1.666739552	 0.074341
H	-0.5801051882	-2.4275673954	-0.8254613582	 0.096651
H	-2.2634723235	-2.5437003721	-0.2453796441	 0.10043
H	-2.0094535847	-0.0832532238	-0.8068365126	 0.070793
H	-2.6077339918	 0.4994179533	 1.6901103436	 0.105547
H	-1.9104684017	-1.5300502994	 3.2127041235	 0.096603
155.9556	257.501	279.5445	302.2497	382.2637	397.9476	433.9643	505.1354	561.7117	615.9233	765.0482	769.3341	808.2166	845.7449	871.2291	919.2593	931.3089	958.4622	969.1029	1006.5971	1011.5414	1047.793	1084.8187	1095.6525	1111.703	1129.7468	1177.8531	1210.6534	1234.9615	1276.697	1298.7484	1313.4754	1322.9934	1341.1385	1358.0379	1367.7373	1402.93	1431.8756	1485.5803	1505.724	1655.6503	2977.153	3015.8445	3056.7481	3068.3128	3082.8457	3102.0249	3110.134	3197.3969	3222.508	3812.2213
OC1COC2CC1C=C2	O[C@H]1CO[C@@H]2C[C@H]1C=C2	
InChI=1S/C7H10O2/c8-7-4-9-6-2-1-5(7)3-6/h1-2,5-8H,3-4H2	InChI=1S/C7H10O2/c8-7-4-9-6-2-1-5(7)3-6/h1-2,5-8H,3-4H2/t5-,6+,7+/m1/s1
