19
gdb 106340	4.97206	0.91682	0.88909	1.9632	84.62	-0.2537	0.0459	0.2996	1347.2161	0.158244	-385.804334	-385.795545	-385.794601	-385.837716	33.879	
O	-0.1034121261	 1.4039075473	 0.0131841229	-0.421318
C	-0.0469342651	-0.0158149129	 0.0053697779	-0.220563
C	-1.4551894058	-0.532125806	 0.0116294754	 0.343811
C	-2.5577806324	-0.2668938872	-1.0563084723	-0.281074
C	-3.2308117356	-1.1825452928	 0.0197330026	 0.241719
C	-1.9077369424	-2.0211266351	 0.0085624355	-0.307373
C	-2.5448693035	-0.2752882895	 1.0947554982	-0.281001
C	-4.576177959	-1.6797877617	 0.0258516354	 0.062357
C	-5.7051180892	-2.0961954741	 0.0312121977	-0.366225
H	 0.7973520957	 1.7404555876	 0.0087369555	 0.289737
H	 0.4778710095	-0.3929816152	-0.8880387104	 0.087598
H	 0.4891729684	-0.4023362232	 0.8880084521	 0.08759
H	-2.9360356069	 0.7547637108	-1.1268745377	 0.107093
H	-2.4076056164	-0.715501974	-2.0421583522	 0.092502
H	-1.7116203804	-2.5971542509	-0.8999431134	 0.095889
H	-1.7007574522	-2.6041327731	 0.9101831249	 0.095897
H	-2.3829132626	-0.7315774063	 2.0751980779	 0.09251
H	-2.9221226046	 0.7457904393	 1.1778239728	 0.107109
H	-6.7014695517	-2.4626134831	 0.0358372772	 0.173741
82.6492	109.8163	146.884	204.8394	244.8733	316.9009	398.7479	494.2257	497.53	543.7656	556.9542	568.2878	626.223	629.3532	662.7768	783.9257	821.0611	929.8064	957.0495	963.8245	990.7574	1031.9133	1067.3833	1074.5648	1110.9495	1126.1907	1126.5678	1147.394	1159.2267	1163.0712	1173.656	1254.9606	1275.232	1283.1404	1350.141	1469.0897	1496.7675	1497.9739	1512.6304	1558.8875	2232.6672	2957.7354	2985.2822	3047.669	3054.4538	3061.426	3116.3837	3128.6191	3131.947	3503.4425	3831.3203
OCC12CC(C1)(C2)C#C	OC[C@@]12C[C@@](C1)(C2)C#C	
InChI=1S/C8H10O/c1-2-7-3-8(4-7,5-7)6-9/h1,9H,3-6H2	InChI=1S/C8H10O/c1-2-7-3-8(4-7,5-7)6-9/h1,9H,3-6H2/t7-,8-
