17
gdb 44090	3.69476	1.44774	1.19517	2.5356	72.09	-0.235	-0.0283	0.2068	1024.0426	0.135986	-421.788518	-421.781357	-421.780413	-421.820186	28.303	
O	 0.0079775602	 0.0456362518	 0.1551611292	-0.293128
C	-0.0150157886	 1.2385395018	 0.0680726588	 0.401008
C	-1.1585934772	 2.2829794896	 0.0713758399	-0.453431
C	-0.0765863286	 3.3430441757	 0.2607465935	 0.485788
O	-0.1125670618	 4.6684217434	-0.2212450575	-0.328984
C	 0.7288378877	 5.1023797356	 0.8881722248	-0.101646
C	 0.6383176201	 3.7174228158	 1.5805642275	-0.139996
C	 1.7825229707	 2.7072017567	 1.2947901923	-0.258282
C	 1.0837703503	 2.3175459978	-0.0454299728	-0.228022
H	-1.5934254598	 2.3499176774	-0.934869623	 0.146014
H	-1.9648283034	 2.1775756236	 0.8015746125	 0.127936
H	 1.7298421554	 5.3942993782	 0.5477745626	 0.107448
H	 0.2667910821	 5.9363232652	 1.4248719445	 0.11639
H	 0.1496628584	 3.7037194033	 2.5551119144	 0.083666
H	 2.7706944292	 3.157289389	 1.1679472232	 0.112474
H	 1.867069903	 1.8912400808	 2.0167589723	 0.122142
H	 1.6681593325	 2.2976942242	-0.9670487523	 0.100624
87.1593	166.1333	261.3107	327.2748	371.4087	439.9759	474.4672	553.2725	622.3959	705.8515	760.132	803.6919	829.2754	885.721	901.2509	934.9758	959.5543	974.4753	1005.6072	1024.1818	1073.316	1079.1777	1112.6267	1140.1791	1154.6494	1180.158	1193.8833	1229.8997	1239.156	1269.5425	1293.9535	1325.4133	1353.269	1435.8854	1481.8671	1516.968	1888.2451	3026.4254	3035.2601	3059.53	3083.4804	3100.5131	3106.1378	3108.1094	3115.0719
O=C1CC23OCC2CC13	O=C1C[C@@]23OC[C@@H]2C[C@@H]13	
InChI=1S/C7H8O2/c8-6-2-7-4(3-9-7)1-5(6)7/h4-5H,1-3H2	InChI=1S/C7H8O2/c8-6-2-7-4(3-9-7)1-5(6)7/h4-5H,1-3H2/t4-,5-,7+/m0/s1
