20
gdb 32528	2.10984	1.45419	0.91364	1.7011	83.47	-0.1742	0.0582	0.2325	1318.6243	0.1721	-399.336106	-399.326321	-399.325377	-399.371411	35.707	
C	 0.2115288913	 1.1633749824	 0.2633265522	-0.317978
N	-0.048950647	-0.2381395152	-0.0128486833	-0.395924
C	 0.5708881196	-0.7808597829	-1.1516399308	 0.227492
C	 1.3018620276	-0.1328556068	-2.1258911622	-0.169702
N	 1.6507168188	-1.0738404024	-3.0732754515	-0.256356
C	 1.1449773265	-2.298372831	-2.7291771171	-0.119807
C	 0.4675883691	-2.1593203462	-1.5369634114	 0.150374
N	-0.2200537577	-3.1790101197	-0.8329517863	-0.392674
C	 0.6006490312	-4.0155569694	 0.044181775	-0.321256
H	 1.2840468505	 1.4077403315	 0.3531686427	 0.101941
H	-0.2015303077	 1.7755287799	-0.5460664344	 0.128637
H	-0.2891672568	 1.4506973635	 1.1915779547	 0.116
H	 0.1139283125	-0.8138081082	 0.8041601551	 0.225579
H	 1.595415666	 0.8978322014	-2.2286535405	 0.107568
H	 2.1690007579	-0.8793645978	-3.9096811619	 0.256895
H	 1.2907223634	-3.1679318283	-3.3489857512	 0.112902
H	-0.9875031885	-2.7708476006	-0.3109987314	 0.220997
H	 1.3270944058	-4.5692003962	-0.5578471784	 0.12489
H	 1.1660373987	-3.458680707	 0.8115938965	 0.089255
H	-0.0402427912	-4.7445699872	 0.5505379643	 0.111167
32.4588	94.3883	159.3028	162.6318	205.1822	215.6073	294.1644	309.2637	334.2011	441.9058	524.463	575.2542	617.4143	621.2225	646.1146	725.9149	756.3303	780.8245	814.6303	905.9655	1026.5077	1066.0116	1088.0484	1120.969	1152.3525	1158.0636	1165.0395	1168.9198	1217.3117	1278.714	1351.9989	1369.4909	1452.667	1457.9186	1466.4086	1481.1898	1484.8378	1490.5737	1500.2618	1518.9275	1522.6108	1578.2621	1646.3087	2948.1536	2955.1241	3058.5475	3063.6437	3107.0578	3110.8598	3266.8124	3275.0058	3530.5486	3541.3094	3705.3761
CNC1=CNC=C1NC	CNc1c[nH]cc1NC	
InChI=1S/C6H11N3/c1-7-5-3-9-4-6(5)8-2/h3-4,7-9H,1-2H3	InChI=1S/C6H11N3/c1-7-5-3-9-4-6(5)8-2/h3-4,7-9H,1-2H3
