17
gdb 52463	6.95102	0.45059	0.44038	4.2855	68.96	-0.2887	-0.0041	0.2846	2310.0811	0.133125	-496.136478	-496.126458	-496.125513	-496.174546	32.421	
O	 0.6124939336	 0.0453799339	 0.0313445467	-0.265327
C	 0.4831501417	 1.2176262571	-0.1432082995	 0.173172
O	 0.9747233722	 2.1405348433	 0.7087738016	-0.173592
C	 0.7929074914	 3.5216583807	 0.3865924428	-0.092575
C	 2.1235230433	 4.1456733605	-0.0246888283	-0.198412
C	 1.99788953	 5.6474554296	-0.2653872101	-0.092572
O	 3.2344599665	 6.1734827542	-0.7538017712	-0.173592
C	 3.9647718405	 6.9529878777	 0.0697873991	 0.173169
O	 5.0196311947	 7.4115645759	-0.2438055854	-0.265325
H	-0.0502748773	 1.6705831102	-1.0027698178	 0.078898
H	 0.0446713478	 3.6274715217	-0.4107478881	 0.115783
H	 0.3917144683	 3.9997256376	 1.2862572568	 0.13019
H	 2.8653782816	 3.9571778931	 0.7586273866	 0.132654
H	 2.4908657663	 3.6655942926	-0.9379533955	 0.132653
H	 1.2447213744	 5.8651354075	-1.0297656375	 0.130188
H	 1.7025351101	 6.1707610225	 0.6542403813	 0.115784
H	 3.4732506749	 7.118065742	 1.0494369186	 0.078904
27.0755	35.5468	74.5881	94.6748	125.0928	157.1969	225.7185	300.5976	364.0204	386.9129	462.7946	646.2518	699.9607	762.33	870.6774	1019.1111	1041.8209	1042.9017	1052.0419	1053.5174	1082.9911	1116.6634	1157.624	1220.9221	1282.5953	1294.2367	1330.335	1339.0908	1407.9388	1414.8184	1435.082	1437.6235	1492.3113	1503.6286	1516.1715	1870.37	1876.1184	2938.4864	2938.5514	3013.8856	3017.7988	3051.5767	3070.479	3076.6284	3106.2182
O=COCCCOC=O	O=COCCCOC=O	
InChI=1S/C5H8O4/c6-4-8-2-1-3-9-5-7/h4-5H,1-3H2	InChI=1S/C5H8O4/c6-4-8-2-1-3-9-5-7/h4-5H,1-3H2
