15
gdb 44331	3.2932	1.93675	1.56021	2.8077	67.25	-0.2469	-0.0397	0.2072	842.1732	0.115503	-416.811204	-416.805083	-416.804139	-416.841695	24.791	
O	 0.1344346727	 0.1466108924	 0.4529582251	-0.284335
C	 0.0745980187	 1.2537181249	 0.0194269913	 0.386651
C	-1.1095210873	 2.2397321665	 0.0763374735	-0.35671
C	-0.6869492522	 3.3902415463	-0.8115378881	-0.06965
C	 0.5827584565	 4.2233677295	-0.5569000918	-0.020895
N	 1.4128480301	 3.9613085614	 0.6048426285	-0.190282
C	 1.7353526801	 2.7340452093	 0.5386596833	-0.001303
N	 1.217277334	 1.9789671658	-0.5857040789	-0.170834
C	 0.6301491955	 3.0151472649	-1.448785078	-0.068338
H	-2.0299867064	 1.7667834102	-0.2773758542	 0.14259
H	-1.2642784914	 2.4948368169	 1.1308561097	 0.153853
H	-1.442186893	 3.8860255745	-1.4094277202	 0.107652
H	 0.5897332902	 5.2373788804	-0.9346824452	 0.111778
H	 2.3042186396	 2.2010245618	 1.2921322295	 0.151817
H	 0.8412036327	 2.9694808852	-2.5094274945	 0.108008
110.2683	249.5022	355.7902	476.2701	498.2125	593.4083	636.0749	719.1115	733.4791	781.4394	791.2684	808.7423	870.2083	922.2074	926.71	965.7532	987.0893	1010.3188	1042.316	1062.5098	1077.6659	1092.3678	1106.8847	1150.2231	1193.3128	1270.4883	1283.5136	1322.705	1332.3187	1375.5845	1457.3992	1660.7401	1888.5845	3052.3695	3098.4277	3183.8307	3190.0177	3207.1316	3215.7129
O=C1CC2C3N=CN1C23	O=C1C[C@H]2[C@H]3[N][CH]N1[C@@H]23	
InChI=1S/C6H6N2O/c9-4-1-3-5-6(3)8(4)2-7-5/h2-3,5-6H,1H2	InChI=1S/C6H6N2O/c9-4-1-3-5-6(3)8(4)2-7-5/h2-3,5-6H,1H2/t3-,5+,6-/m0/s1
