20
gdb 119284	2.16092	1.16902	0.88443	3.0064	79.22	-0.2689	0.0205	0.2894	1391.2998	0.170217	-403.146304	-403.136656	-403.135712	-403.181489	34.386	
C	-0.0800975336	 1.5925121932	-0.0897135752	-0.382372
C	-0.0810052411	 0.061886208	-0.0469411087	-0.188087
C	 0.7735094908	-0.5544530738	-1.1596256936	-0.24624
C	 0.7841274614	-2.0928007361	-1.176575652	 0.100752
C	-0.5201849996	-2.7438174962	-1.7323312178	-0.10384
O	 0.1186626226	-3.0504848944	-2.9822618097	-0.263094
C	 1.41356772	-2.7022808466	-2.4657963476	-0.114598
C	 1.2794138271	-2.6461166524	 0.0772491895	 0.251392
N	 1.6767753803	-3.0861506037	 1.0700809286	-0.347368
H	 0.9342001393	 1.9902445007	 0.0234646122	 0.120799
H	-0.4784225439	 1.9650466248	-1.039917262	 0.117134
H	-0.6926250137	 2.0092807127	 0.714978023	 0.120623
H	 0.2903170275	-0.2813134366	 0.9257229689	 0.127478
H	-1.1119868895	-0.3059034845	-0.1290401482	 0.10163
H	 0.4102094938	-0.2231370137	-2.1404328087	 0.114508
H	 1.8079778639	-0.1996897999	-1.0708566452	 0.115306
H	-0.8410756696	-3.6443757502	-1.1960075366	 0.121834
H	-1.3705079004	-2.0644457726	-1.854759263	 0.11668
H	 1.9431350893	-1.9897450956	-3.107594362	 0.116473
H	 2.0431549553	-3.582324443	-2.290047852	 0.120989
70.9294	92.3322	103.7805	136.6865	192.2974	211.8808	248.7201	316.1463	365.0312	390.7043	547.6393	565.9449	659.7026	750.1959	839.2553	869.2621	891.7312	938.2465	979.1727	980.6036	1005.3276	1049.1564	1053.7826	1077.8928	1141.5255	1161.0616	1164.9791	1199.5378	1247.9582	1294.8315	1310.7851	1321.5671	1341.5071	1376.8739	1397.4557	1413.7084	1480.2975	1492.7571	1500.1909	1509.6633	1509.991	1533.9236	2350.8971	3019.3329	3020.7637	3027.833	3031.3513	3033.6325	3054.8331	3073.1616	3078.2014	3080.5218	3101.3127	3109.6739
CCCC1(COC1)C#N	CCCC1(COC1)C#N	
InChI=1S/C7H11NO/c1-2-3-7(4-8)5-9-6-7/h2-3,5-6H2,1H3	InChI=1S/C7H11NO/c1-2-3-7(4-8)5-9-6-7/h2-3,5-6H2,1H3
