17
gdb 62396	3.16171	1.52018	1.30592	4.0431	72.14	-0.2662	0.0257	0.292	998.3918	0.137792	-417.991594	-417.983896	-417.982951	-418.023477	30.084	
N	 0.0082171252	 1.5296196687	-0.0525401179	-0.570419
C	-0.0070592535	 0.0803073504	-0.0062694645	 0.134918
C	 0.9023421425	-0.5467511576	-0.9749068038	 0.247186
N	 1.6465457283	-0.9372162191	-1.7695817064	-0.341598
C	 0.0529170637	-0.6357822484	 1.3834478069	 0.053673
C	-1.0067488677	 0.100312436	 2.2208007902	-0.222153
C	-2.1518321561	 0.0782146616	 1.1600659567	-0.222129
C	-1.3823805382	-0.6631262414	 0.0535944856	 0.053645
O	-0.7083237387	-1.726784569	 0.7876920791	-0.289679
H	 0.9494551553	 1.8731788268	 0.1202476165	 0.246969
H	-0.2429090486	 1.8504724645	-0.9841031911	 0.246965
H	 0.9950646964	-0.9432389196	 1.8348893294	 0.098972
H	-1.2448060773	-0.4708957103	 3.1197976864	 0.11479
H	-0.7024024349	 1.1099519917	 2.4994818777	 0.117561
H	-3.0179780779	-0.505254619	 1.4771061338	 0.114816
H	-2.4738922489	 1.0757705856	 0.8587392487	 0.117521
H	-1.8976667297	-0.9983505909	-0.8453360071	 0.098962
137.0983	160.2899	200.6853	277.5655	278.3693	363.6002	433.2237	503.3744	557.7405	574.5342	669.2082	737.4333	827.0308	833.0435	874.0101	886.1735	903.3867	927.5481	956.3056	978.7354	1023.8479	1028.3449	1065.1385	1164.0955	1191.5377	1220.1119	1237.2824	1245.0763	1253.6234	1285.7223	1302.203	1318.882	1342.6329	1463.616	1485.4662	1656.4738	2344.2097	3081.5686	3088.1915	3132.3245	3138.2523	3141.8091	3146.2045	3486.741	3561.0813
NC1(C#N)C2CCC1O2	N[C@@]1(C#N)[C@H]2CC[C@@H]1O2	
InChI=1S/C6H8N2O/c7-3-6(8)4-1-2-5(6)9-4/h4-5H,1-2,8H2	InChI=1S/C6H8N2O/c7-3-6(8)4-1-2-5(6)9-4/h4-5H,1-2,8H2/t4-,5+,6+
