13
gdb 20323	6.38838	1.32897	1.11052	0.4378	63.53	-0.2615	-0.0082	0.2533	987.6661	0.096816	-357.613139	-357.606068	-357.605124	-357.646475	25.175	
C	-0.4338918619	-0.7955779688	-0.9574291269	-0.445313
C	-0.1335482989	 0.1053308032	-0.2219479902	 0.307697
C	 0.2285662195	 1.2047270812	 0.6660400677	-0.465939
C	 1.521441796	 1.8767052235	 0.2862002161	 0.308754
N	 2.0997612552	 2.7706972151	 1.0925059283	-0.271995
N	 3.1796125981	 3.1350123011	 0.413690573	-0.070709
N	 3.3660713528	 2.5595578695	-0.7640581692	-0.200115
C	 2.3128150749	 1.7472863394	-0.8682816597	-0.108321
H	-0.70397401	-1.5962849495	-1.6005179024	 0.201408
H	-0.5800000719	 1.947751392	 0.6727538081	 0.156366
H	 0.3040872462	 0.8407265874	 1.6978872089	 0.157666
H	 3.8301807781	 3.8102693292	 0.7816036658	 0.293892
H	 2.1681406817	 1.1203658765	-1.7322305396	 0.13661
9.451	122.4188	264.3895	320.4142	325.5232	471.4676	529.1779	620.9681	653.7174	691.0925	724.1258	729.785	885.29	956.0196	967.0477	1003.0803	1028.0703	1158.9509	1204.3851	1219.7317	1237.4003	1307.4005	1367.8931	1411.0156	1460.4531	1485.5146	1561.0415	2246.0295	3022.2083	3053.7224	3285.8429	3505.7208	3667.803
C#CCC1=NNN=C1	C#CCc1n[nH]nc1	
InChI=1S/C5H5N3/c1-2-3-5-4-6-8-7-5/h1,4H,3H2,(H,6,7,8)	InChI=1S/C5H5N3/c1-2-3-5-4-6-8-7-5/h1,4H,3H2,(H,6,7,8)
