23
gdb 63368	2.27174	1.28004	1.27617	2.4777	86.	-0.2265	-0.0148	0.2117	1229.4903	0.202213	-388.320551	-388.309701	-388.308757	-388.356859	39.954	
C	-0.6666213805	 1.4636374227	-0.3588128284	-0.439873
C	-0.1283404154	 0.029213959	-0.3751855677	 0.206672
C	-1.2581101103	-0.9858984009	-0.173322832	-0.439877
C	 0.8694493658	-0.2999782475	-1.5408038724	-0.342697
C	 2.0515579429	-0.5088407465	-0.5300509436	 0.20667
C	 2.598277605	-1.9377685182	-0.4473145323	-0.439875
C	 3.189688305	 0.5117892336	-0.6327810368	-0.439876
C	 1.0506371581	-0.1817192587	 0.598718086	 0.352876
O	 1.1516800352	-0.1157408963	 1.7918447065	-0.322206
H	 0.1308816566	 2.1991890062	-0.5044919413	 0.116594
H	-1.4037105248	 1.6049528734	-1.1572709997	 0.116741
H	-1.1519391502	 1.6808844132	 0.5979134665	 0.131651
H	-2.0060284422	-0.8892704523	-0.9683618906	 0.116741
H	-0.8868728853	-2.0156104537	-0.185381896	 0.116592
H	-1.7559218673	-0.8205794032	 0.7873581515	 0.131652
H	 0.6080301884	-1.1951523142	-2.110455393	 0.099122
H	 1.0233498714	 0.524998556	-2.2407378818	 0.099122
H	 3.1922644555	-2.1724289915	-1.3377752704	 0.116742
H	 3.2392072645	-2.0534823959	 0.4323864393	 0.131649
H	 1.7945159826	-2.6774425556	-0.3757616894	 0.116593
H	 2.8121226498	 1.5373829227	-0.6950047411	 0.116594
H	 3.8430568733	 0.4479880782	 0.2430576616	 0.131652
H	 3.7945692222	 0.3218519896	-1.5265645951	 0.116742
14.3456	154.1469	172.9001	200.4733	208.8044	213.2896	222.1423	258.5807	268.0484	287.0255	308.7392	368.8166	406.1355	557.7902	576.4782	707.1047	737.1483	765.5758	868.6863	882.8593	915.405	955.223	962.9266	989.5796	992.4206	1015.5828	1032.0432	1045.0624	1180.321	1197.4847	1217.2789	1234.1719	1251.0537	1277.6027	1298.0068	1391.5033	1396.7611	1415.0713	1416.7337	1479.3245	1480.9779	1483.6897	1483.7464	1486.6209	1497.7481	1502.6167	1504.6265	1508.1506	1875.3882	3025.8948	3026.6965	3028.6638	3029.9087	3061.058	3093.532	3095.6202	3096.0198	3098.2635	3103.8146	3104.1168	3107.5787	3109.2773	3114.4421
CC1(C)CC(C)(C)C1=O	CC1(C)CC(C)(C)C1=O	
InChI=1S/C8H14O/c1-7(2)5-8(3,4)6(7)9/h5H2,1-4H3	InChI=1S/C8H14O/c1-7(2)5-8(3,4)6(7)9/h5H2,1-4H3
