18
gdb 105966	3.86303	1.21627	1.18134	2.3775	75.23	-0.2164	0.0622	0.2786	1122.0531	0.146391	-401.827553	-401.81937	-401.818425	-401.860314	31.427	
C	-0.1231143947	 1.4245742896	 0.0124482385	-0.523324
C	 0.0619970436	-0.0530196101	 0.0053137008	 0.361652
C	 0.2328381047	-1.0457311806	-1.0909735763	-0.106588
C	 0.8706635254	-2.0645081827	-0.1189270181	-0.161238
C	 0.7011102011	-1.0448263497	 1.0212394127	-0.2509
C	-0.404880874	-2.0091356233	 0.6822984612	 0.389816
C	-1.2128458446	-3.001687377	 1.4419353399	-0.206887
O	-1.9330340866	-3.8648547707	 0.5768559031	-0.414486
N	-1.0543636416	-1.0258768431	-0.2988235641	-0.271143
H	 0.8403379992	 1.9439592844	-0.0374628322	 0.124885
H	-0.7245426798	 1.7295889572	-0.8496382621	 0.135319
H	-0.6417104355	 1.7523414406	 0.9203691056	 0.128234
H	 0.2446007351	-0.9340364003	-2.1690937869	 0.09553
H	 1.6045637555	-2.8498823568	-0.229239676	 0.099206
H	 1.2867632721	-0.9203857821	 1.9215945214	 0.096553
H	-0.5568504569	-3.632770636	 2.0520312662	 0.113262
H	-1.8926529825	-2.4692528927	 2.1275195776	 0.095511
H	-2.4189486005	-3.2971914067	-0.0330509615	 0.294599
75.7194	129.9514	204.465	212.5434	278.8123	315.0788	376.8652	418.9735	589.6511	636.2882	680.0648	756.0365	775.6024	804.8798	852.3007	855.4793	870.1432	905.629	955.8769	983.1998	991.883	1027.0073	1043.2963	1063.1514	1084.7062	1098.6896	1144.779	1173.0519	1233.858	1254.9309	1259.4635	1371.0117	1395.5051	1403.9918	1439.9066	1471.6086	1477.8867	1490.1612	1490.5601	2969.5506	3027.5821	3067.5464	3091.5182	3108.1395	3176.1253	3208.7908	3222.0892	3793.6734
CC12C3C4C1C4(CO)N23	C[C@@]12[C@H]3[C@H]4[C@@H]1[C@@]4(CO)N23	
InChI=1S/C7H9NO/c1-6-4-3-5(6)8(6)7(3,4)2-9/h3-5,9H,2H2,1H3	InChI=1S/C7H9NO/c1-6-4-3-5(6)8(6)7(3,4)2-9/h3-5,9H,2H2,1H3/t3-,4+,5-,6+,7+,8?/m1/s1
