15
gdb 44352	3.9751	1.56892	1.28352	4.5755	72.25	-0.226	-0.0573	0.1686	939.9513	0.114382	-416.717218	-416.710703	-416.709759	-416.747921	26.632	
O	 0.049536843	-0.1101794219	-0.287780982	-0.354869
C	 0.0165948917	 1.0858205192	-0.1121595211	 0.378548
N	-1.1753921829	 1.7855243916	 0.1198410753	-0.336498
C	-1.2872935473	 3.2018855217	-0.1887254473	 0.049174
C	-0.5508696301	 4.4819599801	 0.3610792045	-0.027828
N	 0.8335632955	 4.3260837066	 0.9722760227	-0.364815
C	 0.9677315758	 3.30915706	-0.0938791813	 0.157201
C	 1.1574439606	 2.0207626475	 0.1878647752	-0.221987
C	-0.1886878646	 3.82973386	-0.9493771619	-0.215534
H	-2.008931534	 1.2331644384	-0.0300904644	 0.246978
H	-2.3050936469	 3.4584105157	-0.4749908399	 0.110937
H	-1.1289889773	 5.3765180004	 0.571291234	 0.108744
H	 1.3131307929	 5.1885960618	 0.6968495164	 0.22813
H	 1.7685664049	 1.7337867041	 1.0392120964	 0.135834
H	-0.1573142615	 4.1739121348	-1.9772514466	 0.105985
131.512	221.4951	380.0916	431.1522	463.3414	487.0645	528.4898	577.8892	666.8898	708.7377	757.4399	773.2971	827.1093	838.1862	857.2382	921.123	933.4296	976.1833	1006.5209	1021.6559	1056.0165	1088.1587	1119.8881	1150.8369	1198.014	1235.988	1262.4658	1293.564	1344.238	1394.8673	1447.7135	1687.1509	1808.0083	3134.6768	3157.947	3169.2563	3172.5539	3385.7713	3592.0302
O=C1NC2C3NC(=C1)C23	O=C1N[C@H]2[C@H]3N[C]([CH]1)[C@@H]23	
InChI=1S/C6H6N2O/c9-3-1-2-4-5(7-2)6(4)8-3/h1,4-7H,(H,8,9)	InChI=1S/C6H6N2O/c9-3-1-2-4-5(7-2)6(4)8-3/h1,4-7H,(H,8,9)/t4-,5+,6-/m1/s1
