18
gdb 124867	3.60968	1.23821	1.18517	3.2935	76.45	-0.2593	0.0097	0.2689	1117.1541	0.14947	-398.143638	-398.135692	-398.134748	-398.176633	29.943	
C	-0.3222351931	 1.3823392295	 0.537001146	-0.442737
C	-0.0151313515	-0.0133803217	 0.0351236666	 0.343628
C	 1.3312609607	-0.3377865885	-0.5626414592	-0.313422
C	 0.9462677222	-0.8913089363	 0.7887959799	-0.278756
N	-1.1498983627	-0.6773016109	-0.557587043	 0.000723
C	-1.4961627335	-0.7928747577	-1.8583078515	 0.011518
N	-2.6644762698	-1.3952571298	-1.9800444099	-0.281101
C	-3.0080209924	-1.6243594548	-0.682601045	 0.033036
N	-2.1325612455	-1.2075639164	 0.2169569021	-0.249655
H	 0.5629413353	 1.8239224571	 1.0027677014	 0.12114
H	-0.6401355539	 2.0348010051	-0.2829973184	 0.125613
H	-1.1238925403	 1.348141679	 1.2803169481	 0.147674
H	 1.370774377	-1.0310631522	-1.3944899086	 0.127858
H	 2.0574929099	 0.4657749688	-0.6115141466	 0.124653
H	 1.4098939712	-0.4720911727	 1.6742541374	 0.123794
H	 0.7088049682	-1.9457655793	 0.8552463493	 0.137021
H	-0.8717746572	-0.4341973402	-2.6621772307	 0.142989
H	-3.9254695048	-2.1153242993	-0.393305578	 0.126021
48.7637	125.3625	195.816	232.9083	300.1782	317.8865	402.9827	510.2473	544.1801	680.7472	701.2491	777.9463	831.8134	861.9942	883.448	908.5221	946.6101	952.8783	972.9159	1026.5011	1043.9082	1071.4453	1086.4575	1131.3701	1150.9969	1188.5824	1199.805	1243.1152	1295.4494	1318.4023	1341.1518	1396.6994	1415.1367	1453.1016	1463.478	1483.8176	1497.3324	1508.86	1548.2037	3038.9834	3108.9918	3122.9701	3142.5488	3148.6633	3226.1535	3241.8013	3256.6119	3262.7915
CC1(CC1)N1C=NC=N1	CC1(CC1)n1cncn1	
InChI=1S/C6H9N3/c1-6(2-3-6)9-5-7-4-8-9/h4-5H,2-3H2,1H3	InChI=1S/C6H9N3/c1-6(2-3-6)9-5-7-4-8-9/h4-5H,2-3H2,1H3
