19
gdb 57931	3.31588	0.88594	0.77224	4.9416	74.51	-0.2373	-0.0235	0.2138	1525.3061	0.157003	-456.401833	-456.391033	-456.390088	-456.439108	37.133	
C	-0.093102431	 1.5395722927	-0.0722875018	-0.368459
C	-0.0295660894	 0.0052239908	 0.0151503013	-0.09507
N	 0.8942283449	-0.3880923821	 1.0699665846	-0.495775
C	-1.4557508842	-0.5472772735	 0.2430473582	 0.403814
O	-1.859057988	-0.8478871122	 1.3382533429	-0.314973
N	-2.2172025346	-0.6320034023	-0.9278869303	-0.379509
C	-3.561827135	-1.0214861389	-1.0658853231	 0.411502
C	-4.0348191499	-0.9811022792	-2.5118953104	-0.502506
O	-4.2601436919	-1.3497745166	-0.1438001792	-0.290265
H	 0.911323815	 1.9368108385	-0.2334884152	 0.136635
H	-0.7449598582	 1.8772276382	-0.8838667061	 0.108074
H	-0.4813377949	 1.9526954202	 0.8644537869	 0.136105
H	 0.3554519164	-0.386556527	-0.9361225571	 0.082034
H	 0.4357760455	-0.2098732331	 1.9622384459	 0.240624
H	 1.0217476677	-1.396731365	 1.0457157552	 0.230804
H	-1.7431214855	-0.3713451582	-1.7798504283	 0.252423
H	-3.4390079217	-1.6550937045	-3.1369773725	 0.14269
H	-5.079175127	-1.288427965	-2.5444512631	 0.15976
H	-3.9409715982	 0.0286156472	-2.9261841581	 0.142092
35.5792	52.6231	93.5317	107.984	141.7022	205.7933	225.8601	246.8766	302.9827	326.3779	379.9476	446.8572	565.9523	571.773	619.2277	694.6161	753.3796	846.6737	917.1733	918.2799	930.8035	1016.8403	1021.2058	1051.3531	1087.8798	1145.7186	1167.9101	1216.7969	1281.5514	1314.9357	1385.6225	1401.1599	1420.1683	1466.189	1483.4049	1484.971	1496.1328	1505.5465	1673.8132	1806.8076	1863.3273	3016.9149	3040.2323	3040.5772	3102.5819	3109.4147	3132.3834	3167.4245	3474.5019	3544.505	3612.6849
CC(N)C(=O)NC(C)=O	C[C@@H](N)C(=O)NC(=O)C	
InChI=1S/C5H10N2O2/c1-3(6)5(9)7-4(2)8/h3H,6H2,1-2H3,(H,7,8,9)	InChI=1S/C5H10N2O2/c1-3(6)5(9)7-4(2)8/h3H,6H2,1-2H3,(H,7,8,9)/t3-/m1/s1
