18
gdb 11451	5.21015	1.22917	1.07902	3.1153	70.82	-0.231	0.0149	0.2459	1120.4812	0.153447	-384.94606	-384.937763	-384.936819	-384.978981	30.248	
C	 0.0248608846	 1.4337149048	 0.1243558101	-0.493105
C	 0.0128371764	-0.0517303603	-0.0321577876	 0.302412
C	-0.1842345659	-0.7828780091	-1.1269101111	-0.218739
C	-0.0854265972	-2.2469468988	-0.8135103802	 0.065909
C	 1.0722161999	-2.9783857813	-1.5020466671	-0.05192
O	 1.2016498489	-4.2948764448	-1.0074086423	-0.423623
O	 0.1411409077	-2.2983373243	 0.6068457636	-0.292987
C	 0.2375003677	-0.9796322696	 1.1360821923	-0.152114
H	 0.9874026814	 1.7816346988	 0.519777083	 0.132122
H	-0.1544905596	 1.9395646175	-0.827445403	 0.131184
H	-0.7423194358	 1.7633696292	 0.8361654766	 0.13215
H	-0.3774567919	-0.404945838	-2.1235045217	 0.101395
H	-1.0151412251	-2.7956366303	-1.0318380896	 0.088122
H	 0.8850075388	-3.0535416737	-2.579229182	 0.100994
H	 1.9959050216	-2.3943267966	-1.3571133709	 0.08036
H	 1.2036249669	-4.2091163354	-0.0459191331	 0.289982
H	 1.2233987901	-0.8258912381	 1.6042042654	 0.10301
H	-0.5174553284	-0.8412691801	 1.9267455076	 0.104848
78.9475	127.2652	144.2148	168.9203	270.1008	301.9093	382.074	451.1879	475.5985	506.4739	614.5615	758.5852	833.1848	839.6254	903.7248	981.7639	999.6159	1004.8721	1040.7159	1078.8018	1081.9887	1096.3095	1106.0091	1197.9479	1210.6431	1225.953	1279.3163	1321.0798	1350.3799	1387.0035	1390.9768	1414.9909	1435.1417	1479.1876	1488.8852	1499.2031	1523.4896	1731.7407	2965.4592	2969.9967	2983.6184	2986.6997	3021.5063	3067.4901	3067.7216	3118.1994	3209.1077	3783.3032
CC1=CC(CO)OC1	CC1=C[C@@H](CO)OC1	
InChI=1S/C6H10O2/c1-5-2-6(3-7)8-4-5/h2,6-7H,3-4H2,1H3	InChI=1S/C6H10O2/c1-5-2-6(3-7)8-4-5/h2,6-7H,3-4H2,1H3/t6-/m0/s1
