19
gdb 60245	3.40984	0.94753	0.78931	0.9802	73.36	-0.2579	-0.0412	0.2167	1446.2386	0.156925	-460.160513	-460.151146	-460.150202	-460.195254	34.2	
C	 0.0115885543	 1.6285739728	 0.0315842674	-0.384417
C	-0.0877549012	 0.1286707466	 0.2831717369	 0.150794
O	 0.0638051264	-0.0698691719	 1.6788719471	-0.447114
C	-1.42429283	-0.4503463336	-0.2181496344	-0.230199
C	-1.4534087355	-1.9733193995	-0.1814990554	-0.005671
O	-1.2011530495	-2.5389778957	 1.1431012252	-0.299266
C	-2.4859558294	-3.1926901832	 1.2269559074	-0.192947
C	-2.8294836485	-2.6583387534	-0.1708518454	 0.340128
O	-3.7579081075	-2.7255605606	-0.9140135465	-0.267762
H	 0.9431886562	 2.0123260784	 0.4557607765	 0.12758
H	-0.0029247976	 1.8510699536	-1.0395951833	 0.108518
H	-0.8208532214	 2.1524323558	 0.5122389136	 0.120819
H	 0.7293391244	-0.3743838898	-0.2661090803	 0.060698
H	-0.1897272188	-0.9818272086	 1.8735084883	 0.292534
H	-2.2326842425	-0.0407526725	 0.3992121998	 0.108909
H	-1.6078743603	-0.1424059807	-1.2543947268	 0.116657
H	-0.7535901933	-2.3976583224	-0.9146090343	 0.11522
H	-2.4020339821	-4.283080691	 1.3064420245	 0.14154
H	-3.1106717038	-2.8115821642	 2.0436475295	 0.143979
62.1488	94.1983	114.4366	161.3592	224.5012	246.7811	302.4305	374.7905	433.8221	469.7254	496.093	536.7228	552.2027	698.2801	816.6646	834.7128	870.4692	932.519	952.177	984.4119	1005.5931	1060.2945	1075.9484	1088.5256	1130.5227	1143.4424	1158.7903	1231.7713	1240.4478	1284.1468	1311.1125	1333.1256	1359.387	1384.0068	1403.0712	1456.852	1465.8299	1481.0291	1485.5001	1500.1761	1927.6522	2928.1195	3018.0809	3029.368	3032.3259	3041.0074	3078.4733	3082.6324	3113.653	3122.3623	3750.3397
CC(O)CC1OCC1=O	C[C@@H](O)C[C@H]1OCC1=O	
InChI=1S/C6H10O3/c1-4(7)2-6-5(8)3-9-6/h4,6-7H,2-3H2,1H3	InChI=1S/C6H10O3/c1-4(7)2-6-5(8)3-9-6/h4,6-7H,2-3H2,1H3/t4-,6-/m1/s1
