19
gdb 77817	2.24675	1.47374	1.29462	4.0605	75.61	-0.2341	-0.0119	0.2222	1095.811	0.15852	-423.046543	-423.037752	-423.036808	-423.079759	33.56	
C	-0.2185961573	 1.45849907	-0.166607864	-0.426666
C	 0.0750426289	-0.0219268213	-0.0485435126	-0.075955
C	 1.4355976757	-0.6916713297	-0.3368338076	-0.227462
C	 2.6717568003	 0.1472334132	-0.297792614	 0.419687
O	 3.4955978128	 0.2384159431	-1.1744095929	-0.330297
C	 2.7742451352	 0.8232072203	 1.0805625232	-0.338463
C	 1.7118327027	 0.1504263015	 1.9756423259	-0.30006
C	 0.828190824	-0.6979836734	 1.0515372822	 0.373607
O	 0.3515661425	-1.905111788	 1.5658529057	-0.464082
H	-0.3173781888	 1.7511803661	-1.2169611353	 0.133851
H	-1.1632011336	 1.6990600932	 0.3339298814	 0.120792
H	 0.5554329493	 2.0865589135	 0.2784800638	 0.125016
H	-0.7243892338	-0.6517157671	-0.4335015214	 0.101941
H	 1.4298931356	-1.5585889214	-0.9853707881	 0.113713
H	 3.7932412553	 0.6993701291	 1.4562114447	 0.134468
H	 2.6215749761	 1.9010147222	 0.961298135	 0.133343
H	 2.1832032871	-0.5372161526	 2.6831353929	 0.122293
H	 1.1296557017	 0.8711120549	 2.5601863695	 0.099844
H	-0.4362296837	-1.7195571736	 2.0885135715	 0.28443
90.4733	147.3787	168.9663	211.5969	226.4204	268.445	352.1141	428.5055	451.7067	495.7707	550.1191	591.4318	618.1536	686.5038	741.3282	814.675	865.5655	917.6206	952.3654	989.642	1004.4164	1038.6676	1060.7991	1097.563	1121.8029	1159.4353	1181.926	1219.451	1234.6908	1265.246	1280.2779	1319.8672	1324.3285	1345.7514	1420.509	1455.2065	1457.888	1491.3157	1502.8723	1505.8969	1828.3388	3038.413	3043.8232	3059.477	3089.1015	3094.1984	3107.8743	3123.7324	3140.4965	3200.9919	3799.0352
CC1C2C(=O)CCC12O	C[C@H]1[C@H]2C(=O)CC[C@@]12O	
InChI=1S/C7H10O2/c1-4-6-5(8)2-3-7(4,6)9/h4,6,9H,2-3H2,1H3	InChI=1S/C7H10O2/c1-4-6-5(8)2-3-7(4,6)9/h4,6,9H,2-3H2,1H3/t4-,6-,7+/m0/s1
