21
gdb 99163	4.95987	0.7272	0.67237	3.3837	78.89	-0.2412	-0.0155	0.2256	1715.4784	0.180449	-424.228724	-424.218596	-424.217652	-424.265821	35.011	
C	 0.0841938092	 1.4813720886	 0.2602333338	-0.375326
C	-0.0503339688	-0.0012491943	-0.0780005975	-0.275849
C	 0.7997974371	-0.4382438607	-1.2630152273	 0.377856
O	 1.4245732505	 0.3531462506	-1.9341980983	-0.296901
C	 0.8325464039	-1.9333347953	-1.5643955239	-0.333801
C	 1.5269633883	-2.2597608804	-2.8765666772	-0.00774
C	 3.0564975258	-2.0642453913	-2.9478845684	-0.067495
O	 3.2634034622	-3.4522931061	-3.2934088279	-0.274094
C	 1.859026324	-3.7418124218	-3.1630609332	-0.097441
H	 1.1137931235	 1.7285756824	 0.5321811196	 0.129954
H	-0.1812792436	 2.1010433581	-0.5995144207	 0.134881
H	-0.5672839966	 1.7478349572	 1.0969919144	 0.111223
H	 0.2072838909	-0.6353820281	 0.7812053858	 0.119434
H	-1.0930256434	-0.2583367667	-0.3141821672	 0.123975
H	 1.3421022041	-2.4293098791	-0.7246500106	 0.126638
H	-0.1944324292	-2.3234097542	-1.5488855623	 0.117653
H	 1.0080395408	-1.7689514769	-3.7023544699	 0.090197
H	 3.4218439352	-1.3843934449	-3.7240628615	 0.111383
H	 3.5365197282	-1.8030802165	-1.9954734569	 0.094926
H	 1.6565486809	-4.4317626588	-2.3308860603	 0.090389
H	 1.4370487769	-4.1672661716	-4.0818769208	 0.100138
37.0349	56.0993	67.2964	82.7655	135.646	192.1958	246.5299	307.8641	341.7612	426.4972	474.9864	645.3607	733.1514	760.9343	827.4577	870.7105	886.163	900.0753	978.4271	998.8873	1003.1468	1027.7076	1037.5177	1076.5859	1123.049	1131.038	1151.2735	1159.6642	1166.5008	1237.4056	1259.0758	1289.3448	1309.7257	1331.2018	1365.746	1381.5147	1405.0228	1415.0702	1445.1373	1456.0677	1492.7207	1498.2777	1512.4214	1537.6705	1800.8026	2990.7582	3005.1476	3015.6435	3017.4274	3037.662	3041.6765	3046.7262	3052.4543	3070.025	3094.6674	3122.4029	3130.0141
CCC(=O)CC1COC1	CCC(=O)CC1COC1	
InChI=1S/C7H12O2/c1-2-7(8)3-6-4-9-5-6/h6H,2-5H2,1H3	InChI=1S/C7H12O2/c1-2-7(8)3-6-4-9-5-6/h6H,2-5H2,1H3
