21
gdb 74034	2.16267	1.79327	1.05045	2.0381	85.84	-0.2265	0.0219	0.2484	1181.1536	0.184029	-387.088554	-387.080251	-387.079307	-387.121147	32.429	
C	 0.0177981835	 1.5111985944	-0.0278967458	-0.48119
C	-0.0301923488	 0.0158033689	 0.107444477	 0.157273
C	-1.1469350746	-0.700471271	 0.0976935254	 0.152548
C	-2.57254973	-0.6099509009	-0.3900562603	-0.165195
O	-2.5012589498	-2.0120414329	-0.7808004912	-0.310757
C	-1.2629430759	-2.1906152402	-0.0327072417	 0.109249
C	-0.0367164118	-2.7802694315	-0.7070764943	-0.243661
C	 1.1613181749	-2.2744235256	 0.1286895579	-0.213698
C	 1.2902081529	-0.7309607433	 0.1511916742	-0.274077
H	 0.6238578292	 1.8107089386	-0.8926661177	 0.123257
H	-0.9807711185	 1.9412538135	-0.1435109017	 0.121811
H	 0.4816546047	 1.9744040324	 0.85263795	 0.126294
H	-3.3426404727	-0.4505069703	 0.3786877787	 0.100899
H	-2.7739490244	 0.0528050662	-1.24037919	 0.111735
H	-1.4778861901	-2.7270868898	 0.9051760064	 0.072655
H	-0.0526149896	-3.8744794986	-0.7377628913	 0.096
H	 0.0212034232	-2.4110600174	-1.7371717591	 0.103089
H	 1.042114393	-2.6424534286	 1.1557950778	 0.104428
H	 2.0946380859	-2.7082810644	-0.2431814416	 0.099322
H	 1.8747564307	-0.399658615	-0.7205881992	 0.106305
H	 1.8834482581	-0.4238600247	 1.0234847264	 0.103716
140.4836	151.7184	175.6561	218.3568	258.5085	291.4843	404.9009	425.2638	460.9	514.9148	603.9172	631.3635	787.9015	847.106	866.8992	893.447	916.1371	964.7729	982.1993	993.5943	1039.654	1047.1775	1065.5552	1113.7836	1116.7788	1131.3743	1148.8244	1166.9307	1209.2993	1229.0309	1266.5578	1292.9308	1324.8302	1347.8169	1366.7852	1374.1254	1390.124	1411.5686	1475.2996	1479.0703	1490.148	1493.2268	1499.3758	1512.6847	1808.1036	2968.8585	2992.4019	2993.9862	3015.0038	3017.9519	3034.1776	3040.2562	3047.8958	3060.8552	3078.2439	3089.6042	3109.4112
CC1=C2COC2CCC1	C[C]1[C]2CO[C@H]2CCC1	
InChI=1S/C8H12O/c1-6-3-2-4-8-7(6)5-9-8/h8H,2-5H2,1H3	InChI=1S/C8H12O/c1-6-3-2-4-8-7(6)5-9-8/h8H,2-5H2,1H3/t8-/m0/s1
