22
gdb 62071	4.78681	0.62681	0.5992	3.9724	85.01	-0.2379	0.0334	0.2713	1899.5032	0.19363	-404.361699	-404.351502	-404.350557	-404.398244	36.226	
C	-0.4570144054	 1.3861438912	-0.0230906498	-0.348114
N	-0.0282724621	-0.001725177	-0.0126496243	-0.027231
C	-0.1118425225	-0.7572969916	 1.2252463022	-0.174276
C	-1.545505749	-1.1197481666	 1.647665374	-0.214345
C	-1.5740348985	-1.9240626532	 2.9291594467	 0.038558
C	-1.5340887685	-1.2296605304	 4.2699175242	-0.255809
C	-2.7945240643	-1.9212228405	 3.8126550402	-0.277303
C	 0.4650908745	-0.5613248526	-1.1543211333	 0.150772
O	 0.5666876799	-0.0083796544	-2.2297771754	-0.34448
H	 0.0629198002	 1.9531581452	 0.7584503747	 0.121577
H	-0.2119149793	 1.8005250548	-1.0011284281	 0.168885
H	-1.5364637604	 1.4791068511	 0.141836454	 0.127145
H	 0.4697878962	-1.6768228711	 1.0944455141	 0.114481
H	 0.3737781896	-0.1879364792	 2.0292911438	 0.11089
H	-2.1343692465	-0.2043749697	 1.7830232432	 0.099156
H	-2.0219973982	-1.6802736745	 0.8332022751	 0.106795
H	-1.0368824827	-2.8685293517	 2.8746981091	 0.083759
H	-0.9592992639	-1.6794715648	 5.0717218279	 0.114158
H	-1.5293123267	-0.1441389835	 4.2779790139	 0.109919
H	-3.6332649304	-1.3006517385	 3.5142246079	 0.112789
H	-3.0806982894	-2.8466617061	 4.2997122214	 0.114568
H	 0.7780765074	-1.6115463868	-0.9889416814	 0.068104
43.5133	57.9932	99.1072	109.4815	143.2498	211.7211	282.3678	335.1578	351.8583	375.269	403.0617	442.167	700.2091	766.7446	782.0349	825.7492	839.3834	879.5716	923.1285	963.7602	1028.3907	1030.0118	1056.1623	1064.0509	1082.6494	1091.6861	1139.7183	1148.0719	1161.3943	1199.4098	1229.2696	1246.8282	1279.1257	1302.9253	1318.8712	1395.8822	1419.0836	1433.3708	1439.3418	1443.0314	1470.6839	1481.2252	1496.9374	1499.5055	1509.1944	1522.4691	1794.6047	2931.3492	3011.9905	3022.9904	3025.5329	3054.0243	3073.0825	3077.5016	3128.6563	3129.2855	3135.2545	3154.9246	3207.3209	3222.5539
CN(CCC1CC1)C=O	CN(CCC1CC1)C=O	
InChI=1S/C7H13NO/c1-8(6-9)5-4-7-2-3-7/h6-7H,2-5H2,1H3	InChI=1S/C7H13NO/c1-8(6-9)5-4-7-2-3-7/h6-7H,2-5H2,1H3
