21
gdb 90069	2.5745	1.70816	1.41687	1.6264	83.46	-0.2291	0.0677	0.2969	1040.6147	0.181655	-386.953054	-386.944854	-386.94391	-386.985011	33.609	
C	-0.1950290316	 1.5826465457	-0.1053088805	-0.415227
C	 0.0181866449	 0.0927042615	 0.0799902059	 0.048179
O	 0.9297512557	-0.5123057094	-0.9455189277	-0.371404
C	 1.8261473176	-0.7880549281	 0.1283055624	 0.407862
C	 2.6789650879	-1.7857560953	 0.9610992808	-0.313684
C	 2.2498858592	-0.5386121449	 1.8998291893	-0.14262
C	 2.6819131123	 0.3672913806	 0.7440076328	-0.274093
C	 0.8093042162	-0.6755889759	 1.2450279604	 0.226928
C	-0.0415389783	-1.8478938979	 1.7284650429	-0.47341
H	 0.7302910525	 2.1560342941	-0.1467515745	 0.131936
H	-0.7357250856	 1.7570099956	-1.0417798512	 0.12903
H	-0.8104222643	 1.9681663131	 0.714790041	 0.1224
H	-0.9528114681	-0.4040973434	-0.0081442883	 0.093363
H	 2.2423106098	-2.7573902283	 1.186827098	 0.110774
H	 3.7498795413	-1.8629127353	 0.7514736478	 0.098526
H	 2.5193198604	-0.439154028	 2.9535990407	 0.079348
H	 3.7439602284	 0.3667096103	 0.4896001959	 0.091002
H	 2.2703917539	 1.3725439088	 0.7358794103	 0.094534
H	-0.9280513583	-1.4617966481	 2.2461047194	 0.114535
H	-0.3962472484	-2.476942241	 0.9032261481	 0.126046
H	 0.4865068645	-2.4873195241	 2.4402281167	 0.115974
152.247	201.7773	210.1209	231.1185	287.9439	342.5147	397.159	458.8364	496.2	534.1375	560.5517	617.951	705.3683	765.8985	796.7667	821.4711	841.6457	894.4309	948.7223	966.9161	990.2676	1023.4073	1040.1262	1050.2916	1061.3604	1098.0771	1116.833	1123.5553	1142.4958	1158.7067	1171.2855	1202.2533	1209.8322	1218.8456	1248.9649	1316.327	1391.6089	1407.9153	1412.246	1477.9728	1487.1252	1497.165	1499.7152	1509.3326	1539.7673	3020.9759	3039.8032	3054.4201	3060.1611	3075.4138	3076.7882	3090.1056	3100.3553	3109.3082	3148.645	3154.1159	3180.061
CC1OC23CC(C2)C13C	C[C@H]1O[C@@]23C[C@@H](C2)[C@@]13C	
InChI=1S/C8H12O/c1-5-7(2)6-3-8(7,4-6)9-5/h5-6H,3-4H2,1-2H3	InChI=1S/C8H12O/c1-5-7(2)6-3-8(7,4-6)9-5/h5-6H,3-4H2,1-2H3/t5-,6-,7-,8-/m1/s1
