14
gdb 20440	5.04359	2.15186	1.55032	5.8404	62.98	-0.2157	0.0149	0.2306	768.3502	0.111853	-374.891656	-374.885808	-374.884864	-374.921607	22.346	
C	 0.0259232064	 1.4619174344	 0.0637209711	-0.181415
C	 1.5179066094	 1.8619503361	-0.1093744207	-0.173099
N	 2.1413157053	 0.5624479047	 0.0628460711	 0.057367
N	 3.4204391294	 0.1319400858	 0.1809919849	-0.182629
N	 3.3564210861	-1.1693850983	 0.1573253684	-0.184661
C	 2.0598518517	-1.5875847466	-0.0065934999	-0.19586
C	 1.2747517874	-0.4593007732	-0.0773064114	 0.369309
N	-0.0091716254	 0.0264970587	-0.3200165549	-0.412621
H	-0.2763710365	 1.6039333568	 1.1097718513	 0.121472
H	-0.6367898079	 2.0515723025	-0.5731002606	 0.129783
H	 1.72569432	 2.2590848538	-1.1089352788	 0.140158
H	 1.8557587823	 2.5816927553	 0.6376714863	 0.145553
H	 1.8017005915	-2.6313682828	-0.0529945646	 0.114828
H	-0.7626085196	-0.5005633272	 0.0992759879	 0.251815
158.2529	196.2687	305.1204	432.1954	562.9185	657.9992	691.0496	713.8818	763.6022	788.7652	812.3502	892.4182	949.4665	1004.8884	1038.8662	1110.4382	1122.3129	1136.8723	1205.3116	1234.5169	1263.1592	1282.8717	1322.187	1346.56	1349.706	1414.5717	1502.2254	1519.3037	1536.7004	1617.1201	3015.9042	3049.2534	3103.8786	3123.7351	3284.9937	3588.2148
C1CN2N=NC=C2N1	C1Cn2nncc2N1	
InChI=1S/C4H6N4/c1-2-8-4(5-1)3-6-7-8/h3,5H,1-2H2	InChI=1S/C4H6N4/c1-2-8-4(5-1)3-6-7-8/h3,5H,1-2H2
