20
gdb 72092	2.89511	1.70018	1.57622	0.9127	77.5	-0.2198	0.0851	0.3049	965.253	0.173773	-403.1464	-403.139097	-403.138153	-403.177682	29.89	
C	-0.0169047798	 1.4963739056	 0.0755950795	-0.485414
C	-0.0186875846	-0.0065427291	-0.0177184907	 0.328239
C	 1.1303559461	-0.722083923	-0.7180502784	-0.285431
C	 0.9048919464	-2.1700177389	-0.2567015177	 0.083252
C	 0.4903002504	-1.9762400347	 1.2108257699	-0.180664
N	-0.3808287047	-0.7799389773	 1.2087614788	-0.16162
C	-1.2752751724	-0.8027489995	 0.0308519511	-0.081678
C	-1.4141346368	-2.0879136976	-0.7634220151	-0.103647
O	-0.1707018852	-2.7421236016	-0.9979067886	-0.276455
H	 0.910778964	 1.85635537	 0.5351831808	 0.117953
H	-0.0968812496	 1.9505278035	-0.9185354011	 0.116821
H	-0.8540619638	 1.849636758	 0.683310886	 0.127218
H	 1.1018250425	-0.6415043842	-1.8080755761	 0.108415
H	 2.0928435221	-0.3296851965	-0.3667323514	 0.098423
H	 1.7603399527	-2.831069146	-0.4066025546	 0.080511
H	-0.0405204556	-2.8469718024	 1.6070391367	 0.111666
H	 1.3545530024	-1.776909505	 1.8535888748	 0.105361
H	-2.2170000534	-0.2788150617	 0.1870872334	 0.08689
H	-2.0887984127	-2.7733495548	-0.2264303156	 0.102935
H	-1.8816673879	-1.8764096449	-1.7349119618	 0.107226
158.5239	186.0956	232.9176	301.3344	375.3287	420.2411	464.099	476.0815	609.2054	674.5748	697.902	757.1914	827.0771	840.9594	887.5395	904.6129	913.6261	935.5475	997.2652	1014.9691	1028.4279	1074.83	1099.8536	1117.9436	1125.5168	1151.9276	1180.289	1228.662	1254.5382	1257.0358	1268.5985	1310.7466	1326.626	1337.1475	1361.1958	1406.0689	1418.7754	1451.0272	1479.6931	1488.572	1492.4209	1501.9289	1525.1762	2975.9421	3017.9446	3027.731	3033.1843	3045.4738	3088.5939	3094.8041	3097.5458	3101.2867	3115.1196	3117.9012
CC12CC3CN1C2CO3	C[C@@]12C[C@H]3CN1[C@@H]2CO3	
InChI=1S/C7H11NO/c1-7-2-5-3-8(7)6(7)4-9-5/h5-6H,2-4H2,1H3	InChI=1S/C7H11NO/c1-7-2-5-3-8(7)6(7)4-9-5/h5-6H,2-4H2,1H3/t5-,6+,7-,8?/m0/s1
