16
gdb 49984	3.80662	0.93795	0.85899	3.4549	73.11	-0.2499	-0.0304	0.2195	1322.0997	0.122623	-437.897886	-437.889503	-437.888558	-437.931512	30.827	
O	-0.0711012172	-0.0152643662	-0.3019795315	-0.260453
C	 0.0162340345	 1.141064752	 0.0278025316	 0.167341
C	 1.2741102167	 1.9193420758	 0.0563468125	-0.177845
C	 1.2089902681	 3.4389793366	-0.1804564517	-0.363756
C	 1.5004265681	 2.9255316177	 1.174090117	 0.403652
C	 0.7307337071	 3.101499784	 2.4970272498	-0.483575
C	 2.1387064941	 3.2311551473	 3.141009897	 0.443594
O	 2.5789369139	 3.4065680127	 4.2412385371	-0.346984
N	 2.7366476624	 3.0636999121	 1.9072359916	-0.381119
H	-0.8832991486	 1.7202264474	 0.3466160816	 0.067843
H	 2.1454752406	 1.3893830843	-0.3145535461	 0.112798
H	 2.0125141391	 3.8719697799	-0.7659806261	 0.134986
H	 0.2293883622	 3.8687143201	-0.3686144868	 0.135524
H	 0.1212595215	 4.0037092379	 2.56996281	 0.142286
H	 0.1640117148	 2.2353506097	 2.8416823237	 0.147644
H	 3.7045694027	 3.0410940187	 1.6212851504	 0.258063
56.2754	108.3589	152.4233	212.4372	313.8007	340.4933	366.1831	433.7817	502.4811	514.9767	550.7726	561.5927	771.8412	830.6596	852.654	894.8824	946.8674	994.3672	1017.3403	1045.6526	1046.8233	1071.0083	1116.37	1134.6037	1168.7394	1196.4068	1253.4392	1266.6879	1340.3963	1422.124	1443.0428	1458.8687	1494.741	1819.5056	1910.3663	2844.43	3089.9421	3126.714	3150.0191	3173.6804	3217.6656	3611.6529
O=CC1CC11CC(=O)N1	O=C[C@H]1C[C@]21CC(=O)N2	
InChI=1S/C6H7NO2/c8-3-4-1-6(4)2-5(9)7-6/h3-4H,1-2H2,(H,7,9)	InChI=1S/C6H7NO2/c8-3-4-1-6(4)2-5(9)7-6/h3-4H,1-2H2,(H,7,9)/t4-,6-/m1/s1
