17
gdb 30942	2.31167	1.4086	0.92788	5.1691	71.99	-0.2301	0.019	0.2491	1261.0823	0.134782	-459.035113	-459.026244	-459.025299	-459.069139	31.783	
C	-0.3194331721	 1.6575112683	-0.1307347403	-0.375885
C	 0.0393788903	 0.1699631693	 0.0305624344	-0.298868
C	 0.8416062748	-0.3651809335	-1.0986459304	 0.245248
C	 2.06593678	-0.8829641054	-1.2200587989	 0.217765
C	 3.1739423819	-1.1661684459	-0.2792027718	-0.492612
O	 2.2738892418	-1.2069885645	-2.5585166492	-0.242029
C	 1.1453522931	-0.8709058095	-3.2490679427	 0.489042
O	 0.9728420253	-1.008549765	-4.4175876183	-0.375882
O	 0.2500856259	-0.3492070155	-2.3606917221	-0.247641
H	 0.5821979235	 2.2760060844	-0.1668467847	 0.124587
H	-0.8801821812	 1.8223296186	-1.0543649324	 0.143981
H	-0.9347018066	 1.9948276135	 0.7079411877	 0.121302
H	 0.6036030016	 0.0122940974	 0.9551663106	 0.118068
H	-0.8827636037	-0.4185394358	 0.1217944698	 0.129606
H	 3.4255104458	-2.2324758853	-0.2774313868	 0.15116
H	 4.0785400246	-0.6149320062	-0.5588616258	 0.150877
H	 2.8933172551	-0.876233605	 0.7354097108	 0.141283
67.4454	123.6298	163.7961	184.9796	195.9557	263.5939	266.8789	332.2884	424.8933	581.6398	606.8261	632.6036	670.2819	778.5537	786.8175	815.7261	940.7088	971.3104	979.5451	1033.1598	1067.7228	1076.7216	1089.9372	1223.9067	1239.7984	1300.6168	1320.6654	1369.956	1410.1388	1423.6915	1467.9218	1472.3725	1490.4437	1495.848	1507.671	1785.7212	1935.745	3027.6204	3036.0616	3046.5809	3081.8994	3089.0919	3119.0127	3128.4266	3134.3606
CCC1=C(C)OC(=O)O1	CCc1c(C)oc(=O)o1	
InChI=1S/C6H8O3/c1-3-5-4(2)8-6(7)9-5/h3H2,1-2H3	InChI=1S/C6H8O3/c1-3-5-4(2)8-6(7)9-5/h3H2,1-2H3
