16
gdb 48755	3.20388	1.31235	1.05943	3.5965	71.66	-0.2588	-0.0338	0.225	1112.5701	0.124332	-437.901552	-437.893913	-437.892969	-437.934035	28.943	
N	 0.1126488985	 1.048969975	-0.7658928864	-0.52275
C	 0.0490106042	 0.0034759656	-0.0694653442	 0.402262
C	-1.222823444	-0.723298393	 0.3341756967	-0.393176
C	-0.7441047079	-1.9902824548	 1.0080590206	 0.20416
C	 0.1670355571	-2.9152358664	 0.1971016184	-0.364488
C	 0.7809380961	-1.8646621432	 1.0475412556	 0.065105
O	 1.1530423682	-0.6557629098	 0.4395009798	-0.23389
C	-1.4714947574	-2.5315597296	 2.1748001657	 0.082575
O	-2.4654733273	-2.0381932394	 2.6478789656	-0.258372
H	 1.081800865	 1.3386079267	-0.9046676549	 0.229513
H	-1.8015734393	-0.1220726068	 1.0414331777	 0.163682
H	-1.8542033436	-0.8928692963	-0.5409152401	 0.147187
H	 0.2434282844	-3.942466852	 0.5400630931	 0.135071
H	 0.179281745	-2.7852158861	-0.8798228701	 0.143247
H	 1.3768126608	-2.1002176497	 1.9208184854	 0.127247
H	-1.0203417897	-3.45381906	 2.608914057	 0.072628
85.8729	115.6914	200.4722	250.7137	337.3889	440.3479	447.5926	484.5859	535.1754	633.4759	688.3246	786.5457	814.1088	843.494	887.9666	900.6642	925.9093	988.3795	1019.6864	1036.7438	1048.5827	1069.3981	1090.1283	1157.2454	1178.5716	1244.6561	1256.8462	1294.6292	1349.3007	1399.3748	1438.1069	1465.2151	1477.6738	1787.8764	1813.0711	2863.9632	3074.3269	3115.3927	3129.1791	3193.9027	3222.6603	3482.1117
N=C1CC2(CC2O1)C=O	[NH][C]1C[C@]2(C[C@H]2O1)C=O	
InChI=1S/C6H7NO2/c7-5-2-6(3-8)1-4(6)9-5/h3-4,7H,1-2H2	InChI=1S/C6H7NO2/c7-5-2-6(3-8)1-4(6)9-5/h3-4,7H,1-2H2/t4-,6-/m1/s1
