12
gdb 52509	4.53088	0.82486	0.70087	5.874	73.13	-0.2871	-0.134	0.1531	1504.9872	0.073738	-435.480376	-435.470755	-435.469811	-435.517712	30.679	
C	 0.0241080189	 1.4632256925	 0.0092824607	-0.508815
C	 0.011069852	 0.0140888513	-0.0009093624	 0.185396
C	-0.0086378185	-1.1931718794	-0.0091675302	-0.013491
C	-0.0181984972	-2.6221350398	-0.0189265751	 0.138595
O	-1.0027843933	-3.3275231412	-0.0246779877	-0.25496
C	 1.3736691476	-3.2898052084	-0.0221699593	 0.223189
O	 2.4113475536	-2.6852486143	-0.0171660489	-0.239943
C	 1.3282206857	-4.7624010471	-0.0321474342	 0.239814
N	 1.3594872388	-5.917980236	-0.0399023715	-0.293097
H	 1.0471236645	 1.8514315193	-0.0051619371	 0.173274
H	-0.5083823418	 1.8578730346	-0.8627974575	 0.17495
H	-0.4778028604	 1.8445254783	 0.9051647032	 0.175088
18.0699	33.0672	68.1795	139.7818	154.7515	254.0281	258.9871	334.7076	382.0039	443.1744	459.6289	511.7962	599.0009	709.514	836.1256	872.1569	1040.2746	1051.1065	1100.2164	1276.5216	1406.8849	1463.5524	1467.7625	1757.3939	1801.4734	2340.2856	2342.7013	3035.1506	3099.9876	3108.9085
CC#CC(=O)C(=O)C#N	CC#CC(=O)C(=O)C#N	
InChI=1S/C6H3NO2/c1-2-3-5(8)6(9)4-7/h1H3	InChI=1S/C6H3NO2/c1-2-3-5(8)6(9)4-7/h1H3
