15
gdb 35399	3.12942	1.68269	1.38885	2.9594	69.76	-0.2507	0.0181	0.2688	930.3822	0.111359	-420.503369	-420.496294	-420.49535	-420.534828	27.848	
C	-0.1684065103	-1.270553769	-0.1352719986	-0.440342
C	-0.0474064878	-0.0837749551	 0.0097518861	 0.352978
C	 0.0505780862	 1.3596200587	 0.1028139203	-0.069826
O	-0.1513756496	 1.9183439195	 1.43825629	-0.292659
C	 1.0702943284	 2.6699022014	 1.3622723495	 0.087459
C	 2.3299088153	 1.9797772132	 1.9686466528	-0.005246
O	 2.2043940957	 0.5829295845	 1.7240112043	-0.210248
C	 2.6576079832	 1.3950036472	 0.6467154323	 0.016832
C	 1.4313288421	 2.0717188356	-0.0137960678	-0.150628
H	-0.2563209925	-2.3238477024	-0.2391022218	 0.199307
H	-0.676488237	 1.8136310934	-0.5837698619	 0.10797
H	 0.9519558425	 3.7378072785	 1.5573769144	 0.087364
H	 2.9549029286	 2.2876290325	 2.7993342311	 0.109101
H	 3.6075048564	 1.1382382186	 0.1929453238	 0.112784
H	 1.6245720587	 2.6801372535	-0.8945675247	 0.095153
117.1687	137.4292	255.6967	286.6049	402.7464	513.39	538.621	613.3297	641.5103	679.6729	723.8776	782.6677	800.0596	832.5771	878.2724	881.5266	941.4726	963.3396	979.853	993.9659	1020.8505	1047.1108	1082.7811	1162.9403	1195.8139	1225.5652	1231.7558	1256.4432	1280.8032	1315.319	1354.3492	1385.6519	2236.8056	3009.898	3091.7882	3142.4353	3178.6641	3195.034	3503.2669
C#CC1OC2C3OC3C12	C#C[C@H]1O[C@H]2[C@H]3O[C@H]3[C@@H]12	
InChI=1S/C7H6O2/c1-2-3-4-5(8-3)7-6(4)9-7/h1,3-7H	InChI=1S/C7H6O2/c1-2-3-4-5(8-3)7-6(4)9-7/h1,3-7H/t3-,4+,5-,6+,7-/m1/s1
