17
gdb 16444	4.26588	1.96098	1.7625	0.4876	67.15	-0.2284	0.0559	0.2843	807.7356	0.142787	-363.783407	-363.776668	-363.775723	-363.813914	26.712	
C	 0.0989138338	 1.5303894382	 0.0610433477	-0.499623
C	-0.0806038739	 0.0448715075	-0.0339987242	 0.344721
C	-0.974142888	-0.7562404956	 0.8153194991	-0.295853
N	 0.4849558703	-0.9308945199	 1.0109484803	-0.197011
C	 1.0446890422	-1.7686289599	-0.1247439659	-0.015929
C	 0.1752730694	-2.8417909041	-0.7973893973	-0.107219
O	-0.3993598727	-1.8547413003	-1.6987040625	-0.297668
C	 0.4776629123	-0.824842856	-1.1833593091	 0.042044
H	 1.1107421663	 1.831922095	-0.2316567926	 0.122384
H	-0.6103905667	 2.0486668677	-0.5951413287	 0.12682
H	-0.0713515319	 1.8725303983	 1.0858499748	 0.132076
H	-1.4316678337	-0.2549120264	 1.6631762447	 0.119797
H	-1.5803314219	-1.5420092884	 0.3779865032	 0.133311
H	 2.102401015	-1.9694072122	 0.0337124055	 0.093307
H	 0.7538185465	-3.5913485022	-1.3516485331	 0.107477
H	-0.5785898027	-3.349043071	-0.1848775579	 0.111387
H	 1.0471205258	-0.3133676605	-1.9625724239	 0.07998
176.7033	180.1551	270.2175	291.401	372.9947	459.8103	528.3655	615.8669	688.4748	734.6811	821.2236	871.7927	874.5695	919.787	941.6199	972.8691	988.0839	998.6275	1044.3914	1084.1451	1091.5575	1126.0955	1141.7397	1159.9968	1199.6977	1237.7177	1251.8258	1298.7273	1310.1979	1346.109	1389.0712	1419.2031	1481.6598	1492.384	1503.9979	1519.037	3019.1218	3026.688	3067.6063	3085.4049	3088.2472	3112.343	3127.6337	3131.9432	3212.4934
CC12CN1C1COC21	C[C@]12CN1[C@H]1CO[C@@H]21	
InChI=1S/C6H9NO/c1-6-3-7(6)4-2-8-5(4)6/h4-5H,2-3H2,1H3	InChI=1S/C6H9NO/c1-6-3-7(6)4-2-8-5(4)6/h4-5H,2-3H2,1H3/t4-,5+,6+,7?/m0/s1
