23
gdb 36987	5.09756	0.67397	0.65996	0.8371	87.35	-0.2424	0.0875	0.3299	1819.6808	0.205691	-388.258928	-388.2495	-388.248556	-388.294556	34.993	
C	-0.1144992446	 1.4649677487	 0.0453925319	-0.079084
O	 0.1487491028	 0.089830935	 0.2599704021	-0.255086
C	-0.9787304048	-0.72925104	 0.1208951652	 0.184448
C	-1.4962334802	-1.0817875772	-1.3057591693	-0.245928
C	-1.6854138472	-2.5418425865	-0.8083187101	-0.217799
C	-0.7166319479	-2.2278102665	 0.3654136758	-0.250159
C	 1.1412381695	 2.2510275539	 0.3020439704	 0.013241
C	 2.1755343647	 2.391909057	-0.7836182859	-0.24677
C	 1.3403222319	 3.5810666399	-0.3802704642	-0.273585
H	-0.4598588277	 1.6375678886	-0.9880490186	 0.08195
H	-0.9251281941	 1.7998660866	 0.715954683	 0.084039
H	-1.8041585227	-0.3567805216	 0.7497673678	 0.058725
H	-2.3676282977	-0.5493897202	-1.6942368576	 0.092148
H	-0.675926987	-1.0069603686	-2.0261074279	 0.105714
H	-2.7053924975	-2.7246940981	-0.459288928	 0.102942
H	-1.404835638	-3.3462354729	-1.4907195813	 0.100973
H	 0.3191907981	-2.4637653863	 0.1060774289	 0.112755
H	-0.9394949522	-2.6338856865	 1.3543929682	 0.095925
H	 1.5148719268	 2.1633810059	 1.3180666186	 0.08874
H	 3.2220624943	 2.3756132753	-0.5011658217	 0.112111
H	 1.9663738026	 1.9249427788	-1.7404116837	 0.112455
H	 0.5731643553	 3.9202113076	-1.069013559	 0.110107
H	 1.8112926655	 4.3790528369	 0.1825548855	 0.112138
45.9126	55.5357	99.6563	121.8035	183.0254	262.9628	313.2404	389.4959	440.9024	496.7479	640.4121	763.186	775.3858	787.1088	816.4135	848.0146	899.1969	921.2383	926.0205	944.3545	949.7755	981.1605	1033.8579	1052.7235	1059.558	1069.1732	1079.2507	1134.9076	1146.864	1181.4859	1191.4288	1196.1414	1200.559	1227.669	1244.6366	1246.8342	1258.5708	1272.3299	1281.1374	1304.5642	1359.302	1396.2323	1453.8506	1470.8943	1472.3132	1486.0644	1505.6161	1509.1209	1519.3673	2945.5401	2964.7769	2975.7142	3054.5847	3062.308	3066.4774	3105.6859	3114.8492	3127.3668	3131.2975	3136.5413	3152.8274	3209.3285	3224.6584
C(OC1CCC1)C1CC1	C(OC1CCC1)C1CC1	
InChI=1S/C8H14O/c1-2-8(3-1)9-6-7-4-5-7/h7-8H,1-6H2	InChI=1S/C8H14O/c1-2-8(3-1)9-6-7-4-5-7/h7-8H,1-6H2
