14
gdb 6422	3.8524	1.57056	1.36015	3.246	64.05	-0.2875	-0.0067	0.2809	916.4584	0.10636	-378.736254	-378.728722	-378.727778	-378.768124	27.584	
C	-0.3389918228	 1.6585601413	-0.0416881441	-0.436961
C	 0.0072298251	 0.1784472062	-0.0723936647	 0.251649
C	 0.8516085038	-0.3346320683	-1.2755863751	-0.401562
C	 1.9137439618	-0.5756509144	-0.2266392431	 0.443754
N	 3.0852851743	-1.0083822333	-0.2404689357	-0.529037
O	 1.1276855695	-0.1301361639	 0.8274225967	-0.268757
C	-1.1510598313	-0.658305558	 0.2577247985	 0.265944
N	-2.0772974946	-1.3055596353	 0.4978181203	-0.322284
H	 0.5495881879	 2.2459326642	-0.2860735512	 0.140481
H	-1.1252269963	 1.8790484044	-0.7692172199	 0.148379
H	-0.6921612917	 1.9464479333	 0.9513876123	 0.156139
H	 0.4798709537	-1.2337099211	-1.767005818	 0.163043
H	 1.0928758842	 0.4251488858	-2.0200857038	 0.150174
H	 3.4958501763	-1.031719151	 0.6940512378	 0.239037
81.2461	184.2477	193.7121	231.1025	315.4023	382.3884	442.9318	495.2363	523.9861	588.806	621.6605	783.8017	863.6789	873.3091	906.3238	947.8564	974.1716	1003.9849	1080.6383	1113.6712	1190.821	1238.4476	1264.2993	1277.8091	1411.1952	1462.2728	1479.9044	1488.9877	1843.4633	2361.0427	3050.7159	3097.2348	3131.0069	3137.1991	3157.7019	3486.5942
CC1(CC(=N)O1)C#N	C[C@]1(C[C]([NH])O1)C#N	
InChI=1S/C5H6N2O/c1-5(3-6)2-4(7)8-5/h7H,2H2,1H3	InChI=1S/C5H6N2O/c1-5(3-6)2-4(7)8-5/h7H,2H2,1H3/t5-/m0/s1
