19
gdb 103803	2.73483	1.1155	0.93096	5.107	73.63	-0.2344	0.024	0.2583	1305.6906	0.157912	-456.349409	-456.339231	-456.338286	-456.384561	36.845	
C	-0.3109987372	 2.039694257	 0.0001172124	-0.465817
C	-0.1690207186	 0.535298594	-0.0660095546	 0.295921
C	-1.3371314332	-0.1566061993	-0.7533780504	-0.147975
O	-1.0655724064	-1.5462218734	-0.8672456949	-0.422227
N	 1.1723912722	 0.0198569601	-0.318763771	-0.353705
C	 0.5503301678	-0.2454883905	 0.9968094231	-0.172482
C	 1.1834767693	 0.4011524056	 2.1999934465	 0.429089
N	 0.9748226947	-0.2938678216	 3.3638255942	-0.535009
O	 1.7884824402	 1.4552430041	 2.1788725463	-0.362708
H	 0.5448824697	 2.4732418415	 0.5157735712	 0.177119
H	-0.3655008867	 2.4556248783	-1.0124718183	 0.11064
H	-1.2262830057	 2.3232098358	 0.5324391912	 0.107104
H	-2.2582326535	 0.025426847	-0.1781127341	 0.099612
H	-1.4728543933	 0.2986508828	-1.7473267674	 0.09968
H	-1.7496682028	-1.9486358479	-1.408508894	 0.296903
H	 1.0978181876	-0.8346589962	-0.8687299955	 0.239968
H	 0.1712487773	-1.2521144297	 1.154209113	 0.089283
H	 0.6427774916	-1.2425383358	 3.3602082749	 0.255857
H	 1.4476367267	 0.0388846483	 4.1886559376	 0.258747
57.4284	107.6256	157.5454	165.962	206.3391	219.523	241.3108	254.061	329.4215	375.7032	400.1607	446.725	533.7045	574.3502	644.9828	681.6304	780.3399	829.4714	883.7617	936.5151	980.7856	1016.2047	1063.6553	1077.1174	1089.936	1106.801	1143.8369	1208.8117	1228.4016	1262.327	1287.8166	1327.2998	1368.1272	1418.0435	1452.7504	1467.4698	1495.5292	1501.8899	1518.2719	1616.7963	1796.1048	2971.0116	3002.4122	3030.3964	3087.2174	3140.0018	3163.0069	3485.9723	3598.7033	3732.4975	3849.4296
CC1(CO)NC1C(N)=O	C[C@@]1(CO)N[C@H]1C(=O)N	
InChI=1S/C5H10N2O2/c1-5(2-8)3(7-5)4(6)9/h3,7-8H,2H2,1H3,(H2,6,9)	InChI=1S/C5H10N2O2/c1-5(2-8)3(7-5)4(6)9/h3,7-8H,2H2,1H3,(H2,6,9)/t3-,5-/m0/s1
