16
gdb 32156	4.12679	1.1605	0.91136	2.0117	76.47	-0.2291	-0.006	0.2231	1234.4524	0.126616	-434.13676	-434.128698	-434.127754	-434.169334	30.116	
C	-0.0187541112	 1.4081419336	-0.0099664153	-0.232359
O	-0.0249964494	-0.0206362975	 0.0120906506	-0.264939
C	-1.2195828618	-0.630628903	 0.0285741263	 0.477597
N	-2.3319542946	 0.1066654218	 0.0207574405	-0.367821
C	-3.4709771212	-0.5888307755	 0.0357976759	 0.064475
N	-3.6251953117	-1.90372478	 0.0561879895	-0.33227
C	-2.4857271749	-2.6287214858	 0.0681303196	 0.418669
N	-2.6429852903	-3.9865604845	 0.1357644771	-0.56709
C	-1.2288670407	-2.0222631991	 0.0523249804	-0.324746
H	 1.0346786637	 1.6913356927	-0.0187720789	 0.127134
H	-0.5230000434	 1.7908077735	-0.9011620525	 0.137119
H	-0.5154631365	 1.8179862463	 0.8733124745	 0.137767
H	-4.3864278481	-0.0001790698	 0.0268836742	 0.112609
H	-3.5683305399	-4.3227188285	-0.0791625457	 0.26072
H	-1.8771661975	-4.5752238895	-0.1458495105	 0.256434
H	-0.3041772524	-2.5850059747	 0.0630166243	 0.096702
99.4348	158.1381	211.8355	231.065	237.0947	366.0634	397.8286	456.3074	472.9937	500.1965	571.5631	638.5298	721.1108	792.0362	834.7192	855.5152	957.7505	996.4977	1003.7287	1055.6572	1082.6368	1177.7926	1195.3437	1238.5099	1313.1637	1331.7169	1377.3321	1438.4149	1479.9505	1495.7321	1502.1269	1520.8193	1596.1363	1627.7253	1654.6748	3046.8273	3120.5494	3147.8358	3151.0299	3206.7448	3596.2725	3718.5331
COC1=NC=NC(N)=C1	COc1ncnc(N)c1	
InChI=1S/C5H7N3O/c1-9-5-2-4(6)7-3-8-5/h2-3H,1H3,(H2,6,7,8)	InChI=1S/C5H7N3O/c1-9-5-2-4(6)7-3-8-5/h2-3H,1H3,(H2,6,7,8)
