20
gdb 12371	2.7551	2.01954	1.34995	1.5294	77.02	-0.2377	0.0222	0.2599	981.4125	0.178275	-349.030348	-349.02219	-349.021246	-349.062432	31.607	
C	-0.03870354	 1.5444785155	 0.0815151851	-0.47782
C	-0.0245066879	 0.0421841358	-0.0096720913	 0.28407
C	-0.0175795563	-0.6160606409	-1.1734680317	-0.146252
C	 0.0186293718	-2.1157628972	-1.3141943245	-0.239936
C	 0.4374524239	-2.8088651727	-0.0122747865	-0.211274
C	-0.298518971	-2.1877274534	 1.1780683682	-0.215318
C	 0.0243749242	-0.6937843581	 1.3160379813	 0.059026
O	 1.2888959482	-0.47437184	 1.9606213742	-0.440296
H	 0.794656131	 1.8979157987	 0.6987537617	 0.13483
H	 0.0311877994	 2.0132877322	-0.9036934737	 0.113644
H	-0.9577840291	 1.9011211105	 0.5648645283	 0.120723
H	-0.0512433475	-0.0441251685	-2.0998190992	 0.077581
H	-0.9752975824	-2.4742646259	-1.6245759505	 0.10827
H	 0.6942962236	-2.3934681012	-2.1328978479	 0.100943
H	 0.2472112998	-3.8852304527	-0.0706780157	 0.094082
H	 1.5209106954	-2.6946519597	 0.1294549419	 0.087432
H	-1.3813541686	-2.3047603688	 1.0378239902	 0.09329
H	-0.0342943766	-2.6861510674	 2.1158163478	 0.100467
H	-0.6974688943	-0.2380702556	 2.0051136671	 0.080149
H	 1.9748346763	-0.6982937407	 1.3223434451	 0.276391
97.8901	180.2446	222.813	247.8562	291.2599	314.0678	338.5111	410.4922	432.6431	552.0854	611.4206	638.3312	784.1112	823.1594	865.4434	876.9447	905.7281	958.7195	997.0939	1029.9081	1061.7804	1075.8292	1100.1194	1105.2946	1166.0564	1176.3027	1202.2487	1261.3732	1286.6908	1336.0244	1365.7355	1366.9141	1382.4427	1397.9934	1406.0532	1422.2027	1472.1351	1476.5422	1481.9747	1495.6763	1500.1288	1733.2942	2988.9171	3013.1778	3018.1663	3021.3459	3036.0667	3041.2592	3073.0647	3074.5186	3083.233	3113.071	3133.0601	3806.2944
CC1=CCCCC1O	CC1=CCCC[C@H]1O	
InChI=1S/C7H12O/c1-6-4-2-3-5-7(6)8/h4,7-8H,2-3,5H2,1H3	InChI=1S/C7H12O/c1-6-4-2-3-5-7(6)8/h4,7-8H,2-3,5H2,1H3/t7-/m1/s1
