18
gdb 127106	2.63555	1.44363	1.01552	3.6174	75.14	-0.2073	0.0109	0.2181	1179.2321	0.148261	-435.243132	-435.234333	-435.233389	-435.276481	33.042	
C	-0.0488666683	 1.5550487328	 0.5105043069	-0.331686
N	-0.1174275523	 0.2052872849	-0.026112475	-0.175241
C	 0.9461634048	-0.6595449948	 0.4897013303	-0.348414
C	-1.3977938894	-0.367407969	 0.0062178675	 0.118376
C	-2.5340002875	-0.0066577386	 0.6629967655	 0.000647
O	-3.5532899211	-0.8224275704	 0.3378419406	-0.18603
N	-3.0937962349	-1.7819180567	-0.5702196254	-0.22695
C	-1.826621851	-1.503048543	-0.763848007	 0.351852
N	-1.0153191046	-2.2689198738	-1.5880174844	-0.593552
H	 0.9399878926	 1.9757493629	 0.3051607976	 0.123608
H	-0.8020110933	 2.1822424663	 0.025725476	 0.130355
H	-0.2114614722	 1.5946803439	 1.6027896564	 0.103778
H	 0.907612272	-0.7611467216	 1.587490909	 0.10772
H	 0.8600389578	-1.6555766791	 0.0510668243	 0.148079
H	 1.9184865371	-0.2378580226	 0.2161874682	 0.118334
H	-2.7674410926	 0.7882008914	 1.352896769	 0.140785
H	-1.5481481192	-2.8832599515	-2.190650759	 0.260359
H	-0.3627448579	-1.704605281	-2.1179521104	 0.257982
68.9895	162.1911	178.8699	255.6761	271.7651	285.4721	306.233	359.3783	388.216	464.1666	527.5084	586.6259	602.4089	702.8095	742.4266	790.6758	811.754	907.7035	941.5566	962.2206	1073.5772	1122.6876	1135.438	1169.4048	1183.8272	1190.2033	1226.0318	1307.6417	1350.0118	1443.1403	1470.866	1472.3806	1482.5909	1498.3673	1503.2279	1515.6218	1568.1593	1633.058	1680.0986	2944.0605	2965.0868	3067.7057	3072.3555	3115.9908	3131.8624	3270.3149	3534.5225	3633.9593
CN(C)C1=CON=C1N	CN(C)c1conc1N	
InChI=1S/C5H9N3O/c1-8(2)4-3-9-7-5(4)6/h3H,1-2H3,(H2,6,7)	InChI=1S/C5H9N3O/c1-8(2)4-3-9-7-5(4)6/h3H,1-2H3,(H2,6,7)
