20
gdb 51617	5.4738	0.74103	0.71219	2.9782	81.77	-0.2249	-0.0238	0.2011	1608.246	0.169218	-403.109364	-403.100293	-403.099348	-403.144215	33.171	
O	-0.3450219348	 0.073921252	 0.3641308644	-0.23721
C	-0.0973162878	 1.2008411507	 0.0240007677	 0.158402
C	 1.3054811465	 1.7671073143	-0.1341386312	-0.238376
N	 1.3612558442	 2.7317019918	-1.2050820316	-0.089432
C	 1.4631751479	 2.2424205134	-2.6022350236	-0.247163
C	 2.4672549009	 3.3637594864	-2.8750280382	 0.362895
C	 3.5266762474	 3.4562638869	-3.9241669997	-0.327241
C	 2.3673833067	 4.4312302872	-3.9201149076	-0.315798
C	 2.5776914965	 3.5630740212	-1.3613980782	-0.238867
H	-0.8976546309	 1.9433221156	-0.1954974215	 0.084041
H	 1.5339030547	 2.2854410701	 0.8096274963	 0.129158
H	 2.0194639806	 0.9290140352	-0.2289928116	 0.102952
H	 1.9087639846	 1.2365413692	-2.6775307255	 0.093126
H	 0.519390856	 2.2537763942	-3.1595493706	 0.107149
H	 4.5055653387	 3.8238211867	-3.632334265	 0.114725
H	 3.5516055904	 2.6932845996	-4.6959258887	 0.115734
H	 1.6076188401	 4.32549584	-4.6881465115	 0.116179
H	 2.5631029595	 5.4570477147	-3.6239884506	 0.115451
H	 2.480714905	 4.5830799916	-0.9711609427	 0.104712
H	 3.482606024	 3.1014199591	-0.9340412109	 0.089562
51.3836	65.0162	95.7108	178.7444	269.7858	276.5466	321.5644	391.6919	397.2012	459.8752	567.0384	723.8929	772.4565	804.2523	861.103	873.8551	906.633	936.5185	1001.4712	1011.2406	1024.9904	1055.2327	1063.6578	1078.332	1115.7992	1131.213	1141.8775	1180.8981	1186.5603	1214.4402	1243.8157	1255.6768	1294.51	1325.6958	1349.1956	1403.5104	1414.4272	1454.6517	1464.1002	1501.2538	1511.3377	1524.612	1838.3546	2883.6534	2944.9168	2962.4025	2972.1914	3020.4865	3044.9885	3048.1253	3121.8056	3125.5479	3199.4372	3214.3879
O=CCN1CC2(CC2)C1	O=CCN1CC2(CC2)C1	
InChI=1S/C7H11NO/c9-4-3-8-5-7(6-8)1-2-7/h4H,1-3,5-6H2	InChI=1S/C7H11NO/c9-4-3-8-5-7(6-8)1-2-7/h4H,1-3,5-6H2
