25
gdb 118952	2.7775	0.88809	0.83954	1.2745	88.88	-0.261	0.0775	0.3385	1557.8195	0.227522	-389.484175	-389.473439	-389.472494	-389.519765	40.323	
C	-0.1205111852	 1.5483544067	-0.123091046	-0.41812
C	 0.049063271	 0.0440048742	 0.0318205221	 0.019257
C	 1.0282177267	-0.7167069165	-0.9016488218	-0.242807
C	 1.410480577	-1.6271378566	 0.2934368231	-0.252546
C	 0.803768967	-0.5675386339	 1.2720273615	 0.325623
C	 1.8883628685	 0.361136464	 1.8301703836	-0.449038
C	-0.1187079591	-1.10094225	 2.3720849576	-0.240817
C	 0.5684556015	-1.9317294153	 3.4515063245	-0.085854
O	-0.448859202	-2.481006738	 4.2793671959	-0.419713
H	 0.8397335475	 2.0730900574	-0.0945249149	 0.111651
H	-0.5949910655	 1.7851509835	-1.0822758624	 0.112574
H	-0.7542247549	 1.966348051	 0.6674390541	 0.113434
H	-0.9375502518	-0.4316048437	-0.0258972207	 0.066512
H	 0.6066522479	-1.1961732084	-1.7886031394	 0.092518
H	 1.8620371287	-0.0837513441	-1.2215974588	 0.096353
H	 0.8367821935	-2.5590782457	 0.2975742082	 0.095541
H	 2.4686834805	-1.8723908135	 0.4213412916	 0.088628
H	 2.5186132711	 0.7691890427	 1.0337354738	 0.111884
H	 1.4536104032	 1.2062580639	 2.3758488203	 0.112238
H	 2.5503171936	-0.1746417707	 2.5185087202	 0.111849
H	-0.646079437	-0.2676831963	 2.8555099976	 0.097023
H	-0.8906436844	-1.7346617804	 1.9183475657	 0.099093
H	 1.169901525	-2.7278714699	 2.9821161708	 0.086094
H	 1.2570855115	-1.3082043282	 4.0412002446	 0.085285
H	-0.0246664442	-2.9770459421	 4.9854607185	 0.283335
75.1382	87.5187	132.8691	139.2566	210.0999	248.4898	262.9465	270.9298	301.6907	325.6892	351.7738	391.2136	429.8873	511.1553	627.1355	727.6692	782.3823	799.4125	880.3795	892.2574	908.2335	949.6332	962.5313	984.573	1011.2517	1028.8071	1069.7863	1078.9119	1111.9532	1150.0664	1175.9909	1199.415	1217.2211	1236.4243	1251.3393	1262.0567	1269.0543	1285.8244	1314.2207	1331.5978	1348.7912	1377.9105	1408.432	1415.2466	1459.1469	1478.1152	1486.7223	1490.6539	1493.0442	1501.8221	1505.523	1509.7835	1528.6106	2963.4083	2996.2172	3016.3289	3023.8703	3026.0337	3031.2191	3045.3208	3051.8446	3060.9276	3085.8314	3089.6937	3094.0519	3096.8652	3101.0846	3108.5006	3828.8453
CC1CCC1(C)CCO	C[C@H]1CC[C@]1(C)CCO	
InChI=1S/C8H16O/c1-7-3-4-8(7,2)5-6-9/h7,9H,3-6H2,1-2H3	InChI=1S/C8H16O/c1-7-3-4-8(7,2)5-6-9/h7,9H,3-6H2,1-2H3/t7-,8+/m0/s1
