17
gdb 52647	3.29959	0.82206	0.73945	1.2436	78.9	-0.2438	-0.0977	0.1461	1573.01	0.131336	-421.821654	-421.810942	-421.809998	-421.859656	35.371	
C	-0.0926657465	 1.5048127201	 0.0047959745	-0.499667
C	 0.0262780481	 0.0556612945	-0.0598759176	 0.103564
C	 0.1309364987	-1.1415998516	-0.1184439447	 0.075834
C	 0.2399358634	-2.5918453247	-0.1823891995	-0.298531
C	-1.0175461182	-3.2994322378	 0.396701046	-0.401244
C	 0.4554652609	-3.0930151836	-1.6096806127	 0.301334
O	 0.1514392322	-2.5069786847	-2.6184881487	-0.267555
C	 1.1037678375	-4.4804804936	-1.7582085247	 0.087703
O	 1.5009539786	-5.1406431732	-0.8346460892	-0.2195
H	 0.7651880881	 1.9525133791	 0.5184005409	 0.148987
H	-0.1441161447	 1.9406687162	-0.9988482852	 0.154421
H	-0.9971954973	 1.8060880656	 0.5444236402	 0.148957
H	 1.101115426	-2.938834065	 0.4025862885	 0.133869
H	-0.8938801439	-4.384889092	 0.3742142535	 0.137522
H	-1.1623577535	-2.9866559306	 1.4328219309	 0.139895
H	-1.9066079539	-3.023351689	-0.1758271064	 0.139542
H	 1.1795546845	-4.7993871096	-2.8191307659	 0.114869
25.6441	35.7451	80.8976	119.8863	129.9876	191.8428	219.1261	240.3181	280.9675	311.3228	416.1593	494.8412	523.0118	584.9854	607.6849	769.0115	792.9242	961.0357	990.691	1051.8761	1052.7647	1073.8704	1076.3832	1146.0454	1189.4139	1290.7938	1360.3209	1363.3871	1398.6241	1414.277	1477.6824	1477.9596	1495.2263	1497.3695	1810.5735	1822.364	2378.4037	2926.1842	3028.7471	3035.6526	3052.6567	3089.6875	3091.6036	3135.335	3136.6654
CC#CC(C)C(=O)C=O	CC#C[C@@H](C)C(=O)C=O	
InChI=1S/C7H8O2/c1-3-4-6(2)7(9)5-8/h5-6H,1-2H3	InChI=1S/C7H8O2/c1-3-4-6(2)7(9)5-8/h5-6H,1-2H3/t6-/m1/s1
