17
gdb 10275	2.48065	1.96832	1.11273	1.9995	69.56	-0.2227	-0.0171	0.2056	1055.3517	0.141139	-397.215395	-397.205729	-397.204785	-397.250562	33.415	
C	 1.3766524661	-0.6582606623	 0.0893965783	-0.297482
N	 0.0322075852	-0.1037397136	-0.0256563218	-0.353094
C	-1.1710851347	-0.7404480019	-0.0838003657	 0.302506
N	-2.3190702522	-0.1663455427	-0.1861815385	-0.304772
C	-2.3640304131	 1.2786060971	-0.2468549395	-0.345128
C	-1.1735212201	-2.2675219783	-0.023193507	 0.367999
N	-2.4204133405	-2.7793528375	-0.0897364397	-0.514971
O	-0.1553165235	-2.9327020845	 0.0741467028	-0.381661
H	 2.0731182599	 0.1844947509	 0.1040425481	 0.108731
H	 1.5019936053	-1.2395720345	 1.0048197974	 0.147068
H	 1.6234449609	-1.309482069	-0.7512178317	 0.147057
H	-0.0204557071	 0.8989649097	-0.0691982573	 0.245728
H	-1.939130358	 1.752055073	 0.6546519646	 0.11056
H	-1.8159100514	 1.6816317814	-1.115513122	 0.110541
H	-3.4014781316	 1.6106742965	-0.3323046454	 0.124568
H	-3.1908690319	-2.1328193133	-0.1686632275	 0.272742
H	-2.5457346034	-3.7756531511	-0.0582280952	 0.259608
25.2898	86.3798	144.9644	194.3107	208.2804	234.6879	255.4304	288.4277	367.3075	375.0276	426.8591	515.3134	573.7101	661.2853	681.9814	743.1803	821.4454	1039.7254	1075.8566	1104.8017	1105.1127	1153.3235	1154.5922	1216.221	1317.1434	1410.4896	1433.5135	1470.3387	1478.0813	1485.4046	1502.4823	1503.9473	1523.2477	1566.2782	1696.1886	1791.9294	2948.4727	2989.4024	3050.5314	3100.6704	3125.0971	3126.6863	3575.3869	3665.2352	3738.6386
CNC(=NC)C(N)=O	CNC(=NC)C(=O)N	
InChI=1S/C4H9N3O/c1-6-4(7-2)3(5)8/h1-2H3,(H2,5,8)(H,6,7)	InChI=1S/C4H9N3O/c1-6-4(7-2)3(5)8/h1-2H3,(H2,5,8)(H,6,7)
