17
gdb 110175	2.69794	1.13736	0.85585	2.7354	75.84	-0.2549	-0.0367	0.2182	1314.529	0.13362	-421.794625	-421.785555	-421.784611	-421.828846	33.384	
O	-0.1667071229	 1.4726530717	-0.0749410807	-0.419085
C	-0.208648536	 0.0992605306	-0.3973414997	-0.082552
C	-1.4949879773	-0.5360024344	 0.1319953762	-0.123692
C	-1.6551324206	-2.1020187843	 0.1911874381	-0.215354
C	-2.0917738137	-1.9911456462	 1.6999159053	-0.348774
C	-1.6149341767	-0.5383501434	 1.6565994508	 0.391591
O	-1.2883873836	 0.2660572558	 2.4876113391	-0.313531
C	-2.5820982797	-2.718268419	-0.7330625713	 0.304393
C	-3.3671312877	-3.2145402031	-1.4967489968	-0.433857
H	-0.274108489	 1.5397982317	 0.8833324863	 0.298682
H	-0.1586988219	 0.0222983185	-1.488340963	 0.120505
H	 0.6607546779	-0.4436950657	 0.0106104058	 0.087988
H	-2.3675278688	-0.062998305	-0.3301593897	 0.12595
H	-0.6723469555	-2.5798712758	 0.1204962156	 0.116037
H	-3.1775100272	-2.0571295186	 1.817135978	 0.14959
H	-1.6119215072	-2.652742618	 2.4240093853	 0.140215
H	-4.0550867801	-3.6579208548	-2.1733984893	 0.201895
66.3727	100.3958	147.7555	158.6457	207.6417	279.0854	370.4628	427.9803	458.9888	497.157	514.2475	616.9149	629.6681	631.7048	649.2319	767.4623	800.8669	904.9825	953.5409	1026.7925	1043.1466	1060.3248	1080.9624	1108.1581	1145.7937	1188.9411	1198.0466	1209.2675	1241.5772	1311.7052	1352.8468	1383.5468	1437.5612	1444.4681	1511.7621	1868.1588	2238.1918	2960.4865	3051.3153	3066.0801	3069.4104	3078.0857	3130.3684	3502.7812	3759.6515
OCC1C(CC1=O)C#C	OC[C@H]1[C@@H](CC1=O)C#C	
InChI=1S/C7H8O2/c1-2-5-3-7(9)6(5)4-8/h1,5-6,8H,3-4H2	InChI=1S/C7H8O2/c1-2-5-3-7(9)6(5)4-8/h1,5-6,8H,3-4H2/t5-,6+/m1/s1
