12
gdb 25120	3.1015	1.5464	1.17929	3.9194	64.36	-0.2655	-0.0876	0.1779	972.1898	0.07906	-468.85433	-468.847341	-468.846397	-468.886263	25.407	
O	 0.0825645651	 0.1815012307	-0.8069355544	-0.317859
C	 0.0333764439	 1.225936268	-0.2140197014	 0.43268
N	-1.2248814568	 1.806248842	 0.0925106946	-0.328238
C	-1.5403055722	 3.1243251402	 0.2727212918	 0.116264
N	-0.8246974409	 4.1684491101	 0.0787109642	-0.26824
C	 0.5108398801	 4.138476481	-0.302376027	 0.340487
O	 1.0113777664	 4.9335907454	-1.0597047203	-0.298684
C	 1.3698235672	 3.0899489603	 0.3677093632	-0.059687
N	 1.1549222648	 1.8372324652	 0.3582565684	-0.205969
H	-1.9931000128	 1.1528487543	-0.0012776402	 0.278635
H	-2.5716170802	 3.2675410047	 0.5967148525	 0.150418
H	 2.2789928555	 3.4527075981	 0.8516756187	 0.160194
80.5301	126.4708	258.8953	319.5869	384.6291	429.42	482.2282	577.0614	638.5012	665.2541	727.0519	768.7025	806.3599	877.7288	892.5554	957.3343	995.2378	1121.5194	1151.6148	1264.8635	1375.2049	1452.5396	1475.8966	1684.5217	1733.7287	1797.9803	1830.2944	3116.8877	3133.8555	3576.6881
O=C1NC=NC(=O)C=N1	O=c1[nH]cnc(=O)cn1	
InChI=1S/C4H3N3O2/c8-3-1-5-4(9)7-2-6-3/h1-2H,(H,6,7,8,9)	InChI=1S/C4H3N3O2/c8-3-1-5-4(9)7-2-6-3/h1-2H,(H,6,7,8,9)
