17
gdb 124085	4.89229	1.05051	0.99071	0.847	74.4	-0.2462	0.0132	0.2594	1204.7901	0.138494	-417.997002	-417.989489	-417.988544	-418.030696	27.351	
C	-0.0421885703	 1.3596335192	-0.3494264922	-0.090527
O	 1.2925643402	 1.6353040987	 0.1180692433	-0.27019
C	 1.4340396086	 0.3111108951	 0.66816734	-0.090525
C	 0.0618383375	-0.1190823685	 0.0957798073	 0.008008
N	-0.9303061875	-0.6345881408	 1.0039714057	 0.036456
C	-1.3631026743	-0.103765865	 2.1789739354	-0.036768
C	-2.3178986579	-0.9625008952	 2.6790114514	-0.232352
C	-2.3941017326	-1.9966666518	 1.7233861818	-0.003463
N	-1.5550372598	-1.7981331689	 0.711714796	-0.26045
H	-0.803347798	 1.9395259874	 0.1873796247	 0.110905
H	-0.149660711	 1.5315770814	-1.4260506467	 0.116104
H	 2.3082926709	-0.2142404232	 0.2682662363	 0.116101
H	 1.4841410582	 0.3147857539	 1.7641949352	 0.110903
H	 0.1164940223	-0.8351050394	-0.7212942378	 0.123127
H	-0.9671104028	 0.8240926598	 2.5607518322	 0.140413
H	-2.8739763973	-0.8553292052	 3.5960772069	 0.107451
H	-3.0227713061	-2.8750095375	 1.7299252903	 0.114808
38.5794	51.9502	137.4407	242.0857	388.8463	400.3213	621.0144	636.3838	674.587	768.4648	836.3065	843.1325	877.2497	892.009	920.177	940.8647	982.893	1026.8939	1041.6201	1046.6932	1064.9593	1111.4134	1119.5271	1155.7672	1160.7345	1224.7435	1256.4473	1258.1347	1303.9059	1357.6977	1370.434	1416.3383	1427.8939	1481.5285	1509.3173	1534.9304	1559.9487	3015.5089	3026.5648	3070.9866	3071.1286	3147.987	3244.7667	3255.9696	3277.8606
C1OCC1N1C=CC=N1	C1OCC1n1cccn1	
InChI=1S/C6H8N2O/c1-2-7-8(3-1)6-4-9-5-6/h1-3,6H,4-5H2	InChI=1S/C6H8N2O/c1-2-7-8(3-1)6-4-9-5-6/h1-3,6H,4-5H2
