21
gdb 62581	3.18418	1.45292	1.28662	1.7606	81.81	-0.2409	0.0609	0.3017	1083.921	0.182752	-387.023763	-387.015654	-387.01471	-387.055726	32.932	
C	 0.0189338817	 1.4609555686	-0.0674625846	-0.437543
C	-0.0460041211	-0.0639803879	 0.023873657	 0.31311
C	-1.347045736	-0.5115264752	 0.6825755368	-0.4849
C	 0.6709045782	-0.692897377	-1.1494556193	-0.117233
C	 1.3155671717	-0.6621044671	 0.2689874423	-0.116124
C	 1.4047723125	-2.2052065408	 0.2189429093	 0.102654
O	 0.3101424376	-3.0121403258	 0.73578581	-0.300548
C	-0.2493493669	-3.1705549146	-0.5986694804	-0.116182
C	 0.8163325447	-2.2316811236	-1.1960547391	-0.08785
H	 0.9366611916	 1.8036670376	-0.5552483527	 0.11133
H	-0.8321651936	 1.8477531425	-0.6392865117	 0.116121
H	-0.0201627689	 1.908748392	 0.9314856156	 0.117082
H	-2.1925517852	-0.3883733344	-0.0044936529	 0.10676
H	-1.3107341893	-1.5353739881	 1.0413435359	 0.158438
H	-1.543329465	 0.1295848675	 1.5499692624	 0.10646
H	 0.9252034458	-0.0755853347	-2.0044614193	 0.082818
H	 2.1333793388	-0.0459742683	 0.6290844861	 0.076858
H	 2.382049285	-2.6193410713	 0.4799283345	 0.081479
H	-0.1577008601	-4.2111234072	-0.9331691276	 0.102267
H	-1.2983354573	-2.8644081316	-0.6556890095	 0.105772
H	 1.3907192358	-2.5935922404	-2.0476837027	 0.079231
156.9802	187.1968	223.0591	251.9633	274.1845	326.045	365.0378	390.0663	491.9219	578.7155	658.4897	698.1635	745.6541	806.8208	864.9269	869.7928	899.2506	929.9342	942.0695	966.3082	979.0363	991.2483	1027.1484	1036.5399	1042.7976	1071.9719	1081.7567	1150.708	1152.1294	1177.6978	1207.5764	1232.7231	1279.3618	1290.9726	1299.6755	1323.2462	1354.223	1400.0596	1409.6323	1426.5183	1482.9713	1493.9712	1504.2579	1513.7165	1530.8611	3023.2713	3024.5808	3029.9489	3073.2293	3075.3676	3080.1027	3090.8958	3102.5056	3119.2078	3153.2651	3164.9448	3194.0348
CC1(C)C2C1C1OCC21	CC1(C)[C@H]2[C@@H]1[C@H]1OC[C@@H]21	
InChI=1S/C8H12O/c1-8(2)5-4-3-9-7(4)6(5)8/h4-7H,3H2,1-2H3	InChI=1S/C8H12O/c1-8(2)5-4-3-9-7(4)6(5)8/h4-7H,3H2,1-2H3/t4-,5+,6+,7-/m0/s1
