18
gdb 73224	2.34866	1.89165	1.34143	4.8916	70.7	-0.234	0.0122	0.2462	998.3335	0.149144	-439.107176	-439.09922	-439.098276	-439.139695	30.208	
C	-0.2622413103	 1.4600024563	 0.1111690295	-0.479743
C	 0.0820074899	-0.0133493689	 0.0229675221	 0.17462
N	-1.0281413372	-0.979191665	 0.2769450222	-0.338204
C	-0.4506608796	-1.3418108476	 1.5917493628	-0.179432
C	 0.8874485739	-0.7053395281	 1.1510806493	-0.111113
C	 1.8528014119	-1.6279593905	 0.381092544	-0.090924
O	 1.7630329942	-1.2995177532	-1.0173592431	-0.227296
C	 0.8017094515	-0.3779982111	-1.2762455913	 0.450575
O	 0.5907193315	 0.0463884501	-2.3761019965	-0.354201
H	 0.6380562579	 2.0811430396	 0.0645333196	 0.130341
H	-0.8974288834	 1.7382000149	-0.735644443	 0.147881
H	-0.7892582863	 1.6852880884	 1.0437610542	 0.114354
H	-1.9565036617	-0.571617824	 0.2876183889	 0.223545
H	-0.8944495624	-0.814937678	 2.446595744	 0.100002
H	-0.4486200067	-2.416937068	 1.8047992777	 0.106629
H	 1.3985126418	-0.0751119216	 1.8779757435	 0.088771
H	 2.8950518447	-1.4882884467	 0.6802787382	 0.120833
H	 1.5961469802	-2.6857487665	 0.4965093878	 0.123361
86.07	139.9895	217.472	225.7573	277.9926	308.5062	360.5581	482.0216	582.2877	630.9434	696.0527	709.2229	770.4068	823.8671	875.7891	907.8766	939.7525	961.8231	1026.8229	1038.5694	1062.1974	1095.5529	1119.1253	1146.7886	1168.7966	1192.0691	1227.7752	1248.2375	1262.9177	1330.6324	1339.9386	1385.8954	1405.0358	1412.6362	1482.7205	1490.8808	1515.3638	1525.8189	1874.8701	3010.1381	3034.2397	3049.413	3058.218	3092.9872	3106.146	3113.2211	3119.1167	3533.9544
CC12NCC1COC2=O	C[C@]12NC[C@H]1COC2=O	
InChI=1S/C6H9NO2/c1-6-4(2-7-6)3-9-5(6)8/h4,7H,2-3H2,1H3	InChI=1S/C6H9NO2/c1-6-4(2-7-6)3-9-5(6)8/h4,7H,2-3H2,1H3/t4-,6-/m0/s1
