17
gdb 34698	4.12225	1.46754	1.39575	0.8272	80.39	-0.2382	0.0499	0.288	959.5174	0.136869	-347.443693	-347.437061	-347.436117	-347.474555	27.794	
C	-0.0093324793	-1.2828287724	-0.0364260748	-0.450099
C	-0.0128298651	-0.0797283468	-0.015697432	 0.308199
C	 0.0010288565	 1.3674255093	 0.0288192636	-0.182759
C	-0.2140816072	 2.1163603219	 1.3812797404	-0.073183
C	 0.9688849948	 1.7485837877	 2.3028557921	-0.059458
C	 2.1197805394	 1.768538256	 1.2949905004	-0.059458
C	 1.7268529521	 3.0303920928	 2.0325280681	-0.110241
C	 0.7115619856	 3.2871028578	 0.878245783	-0.066207
C	 1.3550573544	 2.1435968783	 0.0071586895	-0.07318
H	-0.0110617835	-2.3442402793	-0.0588306562	 0.189719
H	-0.670296027	 1.7884095295	-0.7294566204	 0.097719
H	-1.2048500368	 2.2537630105	 1.8111564645	 0.070328
H	 0.9761723306	 1.1198812397	 3.1824094276	 0.0897
H	 3.0028725434	 1.1550183193	 1.4075778164	 0.089703
H	 2.289401184	 3.6811498662	 2.6877954354	 0.087671
H	 0.3539879534	 4.236437386	 0.4887412308	 0.071213
H	 1.9089476846	 2.3078149236	-0.9156280082	 0.07033
116.8861	148.8256	348.9617	432.5009	519.8287	614.337	623.8166	633.3242	721.1022	764.0391	781.4049	783.7192	802.4553	826.9453	860.0171	866.6091	870.1317	951.6878	967.4117	989.271	990.7542	1021.5024	1036.8632	1048.1533	1065.3713	1078.8284	1136.279	1161.4884	1177.2806	1191.888	1223.6864	1247.8406	1257.0914	1299.5142	1346.1644	1361.3165	2229.426	3039.0535	3128.9466	3129.0139	3153.1925	3201.2631	3205.8677	3219.7973	3504.513
C#CC1C2C3C4C3C2C14	C#C[C@H]1[C@H]2[C@H]3[C@@H]4[C@H]3[C@H]2[C@H]14	
InChI=1S/C9H8/c1-2-3-4-6-5(3)8-7(4)9(6)8/h1,3-9H	InChI=1S/C9H8/c1-2-3-4-6-5(3)8-7(4)9(6)8/h1,3-9H/t3-,4+,5-,6+,7-,8+,9-
