20
gdb 7670	3.54378	1.7819	1.61497	1.7852	74.04	-0.2381	0.0772	0.3153	910.8449	0.176938	-348.97548	-348.967645	-348.966701	-349.007432	30.654	
C	-0.4249409817	 1.5840077255	-0.0074129617	-0.45197
C	-0.0583317749	 0.1026553181	 0.0179360022	 0.339723
C	-1.2816625945	-0.7585060599	-0.303185944	-0.439027
C	 1.1911100922	-0.3024059553	-0.8480298375	-0.28994
C	 1.8972554754	-0.8223072079	 0.418358473	 0.129801
O	 2.7146178671	 0.1863864776	 1.054385942	-0.294938
C	 1.6669949173	 0.499275193	 2.0023381586	-0.096063
C	 0.6756204194	-0.437476227	 1.2988411255	-0.11432
H	 0.4467965283	 2.2259956053	 0.148298792	 0.1232
H	-0.8564375945	 1.8522332827	-0.9787017164	 0.11362
H	-1.1676772705	 1.8259085645	 0.7621094408	 0.110172
H	-1.6615357938	-0.5377230166	-1.3073416736	 0.112478
H	-1.0408998674	-1.8266780316	-0.266083731	 0.110965
H	-2.0921657297	-0.5745577931	 0.4119417634	 0.111122
H	 0.9735401029	-1.0721608588	-1.5947009353	 0.094002
H	 1.726028799	 0.5201816905	-1.3288156048	 0.105584
H	 2.3867462051	-1.7998895176	 0.396398453	 0.071382
H	 1.9385447924	 0.170008324	 3.0144095805	 0.096639
H	 1.4345424182	 1.5699028099	 2.0329920069	 0.099967
H	 0.1120320097	-1.1328100533	 1.9214279963	 0.067603
58.8092	221.4176	257.7116	269.4964	295.752	338.9559	370.7849	412.0295	459.6477	608.6916	723.1414	792.4669	832.7316	842.362	922.7549	939.5276	960.9556	975.1964	981.0641	1008.7245	1019.2242	1034.6957	1077.5709	1109.9017	1152.8116	1181.3931	1199.7519	1223.8882	1244.184	1262.7655	1281.7984	1307.2357	1329.9731	1363.015	1402.2771	1420.9644	1466.5596	1485.3913	1487.3567	1501.403	1507.5522	1531.8538	3005.4345	3017.7394	3024.3297	3049.6054	3055.7726	3067.3843	3083.2213	3087.7275	3089.9783	3103.596	3105.0779	3113.072
CC1(C)CC2OCC12	CC1(C)C[C@H]2OC[C@@H]12	
InChI=1S/C7H12O/c1-7(2)3-6-5(7)4-8-6/h5-6H,3-4H2,1-2H3	InChI=1S/C7H12O/c1-7(2)3-6-5(7)4-8-6/h5-6H,3-4H2,1-2H3/t5-,6-/m1/s1
