16
gdb 78572	2.35757	1.87592	1.30329	1.7565	68.96	-0.2153	-0.0021	0.2132	983.3614	0.123073	-437.817507	-437.809734	-437.80879	-437.849456	30.189	
C	 0.0302808746	 1.54095344	-0.0075910925	-0.33704
N	 0.0555341026	 0.082032859	 0.0108122869	-0.075889
C	 0.7440350442	-0.6113161569	-1.0787906256	-0.082139
C	 2.2867148533	-0.5889288387	-0.8175437967	-0.297423
C	 2.4326773222	-0.032225408	 0.5589150562	 0.426369
O	 3.3504580611	 0.4013904392	 1.199164784	-0.340893
C	 1.0180312181	-0.5693572615	 0.9417253638	-0.231334
C	 1.3044912361	-1.6429907835	-0.1965319594	 0.377402
O	 1.286502974	-2.9990185585	-0.2598257045	-0.445569
H	 1.0191030936	 2.0054709118	-0.1555385457	 0.116476
H	-0.6316986747	 1.8746422447	-0.8125020906	 0.125727
H	-0.3797835105	 1.901685077	 0.9403291433	 0.130466
H	 0.3617613794	-0.6815472104	-2.0901369238	 0.117475
H	 3.0189424499	-0.7314666558	-1.5999058941	 0.115256
H	 0.7194652325	-0.7253868163	 1.9761923577	 0.09671
H	 2.0743049535	-3.3483080421	 0.1737045111	 0.304406
124.2212	182.7262	234.9095	255.3501	278.5334	358.2486	407.3156	441.8557	538.1711	609.5547	653.581	671.9497	728.3376	780.5588	837.1166	863.0866	905.6645	947.3549	995.4228	1028.9284	1068.6729	1087.9167	1131.5976	1154.6398	1161.7253	1195.7334	1196.6512	1238.9703	1279.3939	1320.0581	1449.175	1489.1551	1499.6136	1520.4341	1871.7219	2972.9303	3073.6928	3113.0413	3149.0013	3191.7387	3227.0844	3786.8393
CN1C2C3C(=O)C1C23O	CN1[C@H]2[C@H]3C(=O)[C@@H]1[C@@]23O	
InChI=1S/C6H7NO2/c1-7-4-2-3(8)5(7)6(2,4)9/h2,4-5,9H,1H3	InChI=1S/C6H7NO2/c1-7-4-2-3(8)5(7)6(2,4)9/h2,4-5,9H,1H3/t2-,4+,5-,6+/m1/s1
