18
gdb 35982	3.12513	1.25247	0.95843	5.9639	72.98	-0.2788	0.0195	0.2984	1212.6985	0.148801	-439.08827	-439.080024	-439.07908	-439.121407	30.696	
N	-0.0178134786	-1.1737270993	-0.0376679932	-0.315289
C	 0.0051432836	-0.0205057006	-0.0117097211	 0.301658
C	-0.0074907317	 1.4588287935	-0.027214815	 0.063368
O	-0.6994028705	 1.8876219761	 1.1079146379	-0.240586
C	-1.4487135593	 3.1001041353	 0.992459108	-0.070212
C	-0.7342594605	 4.2409309842	 0.2505062929	-0.236071
C	 0.7910422042	 4.2655080627	 0.4386843462	-0.200435
C	 1.5244504232	 3.2327312168	-0.4244508531	-0.075557
O	 1.3260464831	 1.8755431083	-0.0375101899	-0.2345
H	-0.5231819844	 1.7848383289	-0.948281787	 0.09987
H	-2.4208271459	 2.8942153382	 0.5225869442	 0.108969
H	-1.6390961033	 3.3849787562	 2.0308054974	 0.126625
H	-0.9555842013	 4.1943175926	-0.82311355	 0.106978
H	-1.1736444559	 5.1810668197	 0.6024155487	 0.112284
H	 1.1700042201	 5.2519926138	 0.1461189824	 0.107641
H	 1.0578039948	 4.1167488951	 1.4907874941	 0.123711
H	 1.2291916563	 3.3605438243	-1.4790682624	 0.097754
H	 2.6052078762	 3.3805224641	-0.36001406	 0.123792
77.6203	124.7814	174.8837	201.0578	315.3389	328.4841	339.6495	419.3208	520.5184	557.1895	589.051	595.0817	785.7914	825.361	888.1449	947.4653	973.7922	992.5579	1013.6043	1019.9719	1078.0827	1108.8294	1147.0852	1153.9167	1227.3645	1256.3692	1296.6516	1308.9842	1363.7663	1373.1432	1389.2182	1398.5896	1414.5746	1418.8012	1470.728	1488.851	1498.9449	1510.5313	2378.6984	2946.8165	2974.3852	3007.6246	3030.1446	3036.786	3065.3477	3085.4256	3094.7612	3101.9292
N#CC1OCCCCO1	N#CC1OCCCCO1	
InChI=1S/C6H9NO2/c7-5-6-8-3-1-2-4-9-6/h6H,1-4H2	InChI=1S/C6H9NO2/c7-5-6-8-3-1-2-4-9-6/h6H,1-4H2
