16
gdb 20179	3.89463	2.5864	1.94383	1.011	69.86	-0.2278	-0.0174	0.2105	716.5477	0.132576	-346.519421	-346.513665	-346.512721	-346.548829	24.193	
C	-0.0923465028	 1.3516601567	 0.2069195771	-0.279095
C	 1.4264694173	 1.4562489292	-0.1179278845	-0.093941
C	 2.3118718287	 0.169758471	-0.0603350688	 0.128865
O	 2.252390906	-0.951889386	 0.7818150737	-0.269058
C	 1.2715864206	-1.9241375072	 0.3142423857	-0.112077
C	-0.0369456589	-1.1809327928	 0.2801776158	-0.148302
C	 0.0322202565	-0.0352608803	-0.4041488987	 0.164163
C	 1.3191385812	 0.3278130373	-1.1473412236	-0.20741
H	-0.4237520628	 1.4140973143	 1.247779423	 0.103858
H	-0.6320509247	 2.0846223408	-0.4033058796	 0.109032
H	 1.9379501747	 2.4064145368	-0.240983657	 0.089193
H	 3.3477586361	 0.4122936847	-0.2905464523	 0.098385
H	 1.5842436114	-2.3127476621	-0.6623535267	 0.10955
H	 1.2889753829	-2.7350841476	 1.0433011989	 0.115341
H	-0.741070988	-1.3074219917	 1.0981983764	 0.097804
H	 1.4910336917	 0.3218349067	-2.2167232694	 0.093691
228.4783	294.6867	403.4061	469.2603	520.3609	544.2389	679.4608	745.7239	764.4452	777.1106	819.8121	882.4571	895.5362	939.4101	959.9231	976.3218	991.7689	1014.5974	1043.9161	1066.4542	1068.9909	1121.8104	1136.4811	1175.6715	1226.3114	1241.387	1255.7563	1316.9885	1318.911	1354.9762	1396.4588	1489.8212	1492.4568	1678.7235	3031.548	3032.3505	3089.9563	3124.6176	3127.2609	3152.8768	3163.239	3180.2551
C1C2C3OCC=C1C23	C1[C@H]2[C@H]3OC[CH][C]1[C@@H]23	
InChI=1S/C7H8O/c1-2-8-7-5-3-4(1)6(5)7/h1,5-7H,2-3H2	InChI=1S/C7H8O/c1-2-8-7-5-3-4(1)6(5)7/h1,5-7H,2-3H2/t5-,6+,7-/m1/s1
