21
gdb 114841	3.06294	1.39533	1.32573	0.8042	77.7	-0.2451	0.0885	0.3337	1091.59	0.185243	-424.23966	-424.231815	-424.23087	-424.272012	31.054	
C	 0.0643047091	 1.4135074312	 0.0096313429	-0.243634
O	-0.0457039013	 0.0030091389	-0.0399030817	-0.242577
C	 0.6328433214	-0.5731634298	-1.112423637	 0.253356
O	 2.0549271458	-0.4014391985	-1.0038260762	-0.302787
C	 2.6190295793	-1.7247570264	-0.9323748284	 0.109906
C	 2.274119828	-2.3327634192	 0.440413978	-0.213919
C	 0.7484284216	-2.635101284	 0.2878098647	-0.207468
C	 0.4428582057	-2.100042951	-1.1323569593	-0.092403
C	 1.717856886	-2.5084571838	-1.8986864428	-0.22839
H	 1.1033900646	 1.7281054289	 0.1601462864	 0.128925
H	-0.3140576993	 1.8759532117	-0.9149199068	 0.103879
H	-0.5445536521	 1.7528886696	 0.8504761537	 0.123841
H	 0.3094755099	-0.0855599451	-2.0479395174	 0.060215
H	 3.6812511325	-1.6507308792	-1.1674384483	 0.070782
H	 2.8595955965	-3.2366768607	 0.6354129513	 0.091714
H	 2.4827364422	-1.6135006638	 1.2351970581	 0.109097
H	 0.5452271371	-3.7088233098	 0.3337878529	 0.090119
H	 0.1432628991	-2.1402963337	 1.0464556512	 0.121512
H	-0.5152678666	-2.4104775255	-1.5493282949	 0.068944
H	 1.7699072191	-2.1276445177	-2.9218556252	 0.101627
H	 1.8929786414	-3.587795352	-1.8965353912	 0.09726
99.8377	131.87	191.915	222.3643	331.6692	381.5055	465.8516	477.7776	546.7781	593.1313	784.2473	796.6336	820.7678	849.2799	879.17	902.417	938.0596	957.511	966.6451	970.6471	1015.8872	1029.4253	1058.7299	1072.0645	1145.5997	1151.1754	1169.5367	1180.7068	1193.3189	1226.3843	1240.6362	1260.8096	1281.2985	1315.3053	1325.6695	1337.1022	1350.549	1375.7307	1408.6996	1476.0689	1480.1747	1484.8355	1488.5664	1508.1479	1514.8647	2952.4926	2990.1779	3052.1567	3061.1794	3065.7761	3066.4514	3110.2567	3113.6199	3116.6401	3119.3481	3123.7945	3141.1937
COC1OC2CCC1C2	CO[C@H]1O[C@H]2CC[C@@H]1C2	
InChI=1S/C7H12O2/c1-8-7-5-2-3-6(4-5)9-7/h5-7H,2-4H2,1H3	InChI=1S/C7H12O2/c1-8-7-5-2-3-6(4-5)9-7/h5-7H,2-4H2,1H3/t5-,6+,7+/m1/s1
