19
gdb 98176	2.13306	1.29607	1.0444	1.5298	72.83	-0.2556	-0.0584	0.1971	1253.7129	0.15444	-460.199348	-460.188867	-460.187923	-460.235022	37.25	
C	-0.6010182672	 1.6116913301	-0.304853977	-0.383369
C	-0.8847446012	 0.1659955378	-0.7104300727	-0.295336
C	-1.0638271866	-0.7634264296	 0.4656106456	 0.342387
O	-0.7881628097	-0.4572492999	 1.6065805733	-0.330282
C	-1.6204111075	-2.19251252	 0.2255077991	 0.192588
C	-0.8281567246	-2.9300400108	-0.868725113	-0.427733
O	-1.5793797704	-2.9027372704	 1.4324736196	-0.466587
C	-3.0969056025	-2.0645154116	-0.2035084388	 0.110146
O	-3.4720738829	-1.6724411779	-1.2770524363	-0.244687
H	-0.4377185701	 2.2296991918	-1.1914747627	 0.118831
H	-1.4390214871	 2.033616015	 0.2567558903	 0.131647
H	 0.2847478214	 1.673230107	 0.3314567166	 0.136812
H	-1.7662115206	 0.0781846075	-1.3557840607	 0.158227
H	-0.056676842	-0.2385434792	-1.3095502203	 0.13782
H	 0.2421796839	-2.9059974064	-0.6476242011	 0.128712
H	-1.1483288574	-3.974703093	-0.8897544657	 0.141675
H	-1.0143079533	-2.486482685	-1.8486374992	 0.141947
H	-1.269173849	-2.2623500774	 2.0963319415	 0.296055
H	-3.7922960432	-2.3903897581	 0.5990834115	 0.11115
68.9145	78.7756	98.7396	181.559	191.1551	219.8104	226.0243	263.9436	290.2511	387.6253	395.6579	398.2334	510.2292	547.6137	589.1625	658.9323	733.8235	807.2095	883.1877	952.9152	976.8626	991.1834	1042.5646	1083.6594	1112.7102	1144.577	1160.6612	1225.0177	1279.7031	1368.3914	1382.6735	1392.2193	1404.9593	1416.7399	1453.5439	1483.7987	1494.8592	1495.6594	1500.7157	1781.6039	1823.6308	2917.5495	3024.5925	3050.7805	3053.7644	3074.1771	3123.5746	3127.1151	3133.0647	3144.3345	3642.8375
CCC(=O)C(C)(O)C=O	CCC(=O)[C@@](C)(O)C=O	
InChI=1S/C6H10O3/c1-3-5(8)6(2,9)4-7/h4,9H,3H2,1-2H3	InChI=1S/C6H10O3/c1-3-5(8)6(2,9)4-7/h4,9H,3H2,1-2H3/t6-/m0/s1
