15
gdb 129198	3.46256	1.35492	0.97385	2.0511	84.83	-0.2413	-0.0727	0.1686	1135.7384	0.115909	-412.976423	-412.969068	-412.968124	-413.008697	28.02	
N	-0.0026707063	 0.847130776	-1.252746287	-0.506266
C	 0.0300509757	 0.0710896242	-0.2316390015	 0.3817
N	 1.2451448119	-0.3342434941	 0.3435075084	-0.330947
N	 1.6007939174	-1.109769063	 1.37583528	-0.181356
C	 0.8159955563	-1.7372114119	 2.1730757571	-0.035508
C	-0.6507119137	-1.8500371628	 2.2704487444	 0.244548
N	-1.2101929394	-2.5610116425	 3.1861387293	-0.481309
C	-1.5510827531	-1.1664980579	 1.3400357782	-0.082026
C	-1.2590504514	-0.3711505067	 0.304498858	-0.077131
H	 0.9338405644	 1.1113868514	-1.5672376029	 0.21064
H	 2.0608635945	 0.039818508	-0.1191785469	 0.260495
H	 1.3520143967	-2.3026449921	 2.9355066547	 0.112677
H	-0.5034385934	-2.9975840443	 3.784719976	 0.222962
H	-2.5964092572	-1.3611079095	 1.5590835296	 0.127055
H	-2.0744502426	 0.047491865	-0.2747272774	 0.134469
72.9838	102.0011	293.5872	371.7637	395.3739	401.6455	404.4627	530.0093	585.8236	630.4584	674.3421	748.6307	778.2092	838.2242	864.7142	865.683	904.597	905.0952	949.5637	1050.8673	1085.1473	1153.0378	1197.194	1240.7601	1361.5715	1407.1123	1420.6021	1442.1248	1502.521	1628.889	1661.4975	1690.0262	1730.1071	3125.3209	3183.7528	3206.5807	3428.5668	3444.8648	3600.2475
N=C1NN=CC(=N)C=C1	[NH]C1=CC=C(C=NN1)[NH]	
InChI=1S/C5H6N4/c6-4-1-2-5(7)9-8-3-4/h1-3,6H,(H2,7,9)	InChI=1S/C5H6N4/c6-4-1-2-5(7)9-8-3-4/h1-3,6H,(H2,7,9)
