19
gdb 63704	2.55559	1.56713	1.21126	1.3474	70.9	-0.2375	0.0603	0.2978	1076.4483	0.15707	-460.126187	-460.117321	-460.116377	-460.159305	34.523	
C	 0.2079016613	 1.5464907034	-0.0500419752	-0.457538
C	 0.0533515638	 0.0382431611	-0.0687765395	 0.385526
O	-1.2768410329	-0.3759514979	-0.3684977896	-0.475404
C	 0.9853843468	-0.7989865913	-0.9967575677	-0.34251
C	 1.3918903663	-1.7016566843	 0.2019860309	 0.361205
O	 1.3128204287	-3.082537567	 0.0862681116	-0.473978
C	 2.6133845394	-1.2018958816	 0.9777052661	-0.107194
O	 1.8088754752	-0.2386502644	 1.7024057002	-0.290614
C	 0.5793801264	-0.7596625374	 1.1598658014	-0.022141
H	 1.2234655953	 1.8229192646	 0.2426742191	 0.135853
H	-0.0128125911	 1.9689691398	-1.0352065226	 0.121332
H	-0.4797935431	 1.9971070563	 0.6767152167	 0.105409
H	-1.8607384212	 0.0154343669	 0.291772391	 0.276254
H	 0.4086444343	-1.3189227144	-1.7657395373	 0.111677
H	 1.8065524377	-0.2557936455	-1.4707374607	 0.104517
H	 0.5141469392	-3.3019011735	-0.4053478301	 0.28693
H	 3.0268641555	-1.9645879078	 1.6485909454	 0.111229
H	 3.4209750195	-0.7299807021	 0.4062400579	 0.101939
H	-0.1419133513	-1.0621364548	 1.9257060425	 0.06751
63.7309	203.679	227.1401	232.379	303.567	317.1056	330.4568	369.5868	382.8727	407.8084	428.2153	523.9124	596.647	665.9041	766.9894	855.0057	893.9682	911.7381	935.8607	948.9254	985.5827	1006.5784	1031.9147	1071.4299	1102.4217	1120.2997	1145.8899	1174.1745	1194.5122	1218.1846	1265.4464	1277.6614	1305.6852	1344.3702	1372.7668	1403.7706	1411.6888	1462.2125	1487.3409	1494.3919	1515.945	3020.0458	3026.2541	3058.9602	3063.9021	3073.345	3093.1895	3121.1177	3130.7135	3789.2109	3811.391
CC1(O)CC2(O)COC12	C[C@@]1(O)C[C@@]2(O)CO[C@@H]12	
InChI=1S/C6H10O3/c1-5(7)2-6(8)3-9-4(5)6/h4,7-8H,2-3H2,1H3	InChI=1S/C6H10O3/c1-5(7)2-6(8)3-9-4(5)6/h4,7-8H,2-3H2,1H3/t4-,5+,6+/m0/s1
