16
gdb 68771	2.53002	1.75694	1.27223	2.5727	64.51	-0.2437	0.0029	0.2466	984.0562	0.124821	-475.041463	-475.033423	-475.032479	-475.073702	30.873	
N	-0.2631831546	 1.4185070698	 0.014255815	-0.593303
C	-0.0840505122	 0.0025478327	-0.0473870304	 0.055994
C	-0.384854338	-0.8196821502	 1.2026175111	-0.378204
C	-1.2952889501	-0.9068488415	 0.016661846	 0.385382
O	-2.5764819846	-0.3915454149	 0.037902677	-0.473397
C	-1.0096684801	-2.0349254533	-0.9553912263	-0.137532
O	 0.3619258248	-1.8671729769	-1.3753282596	-0.233523
C	 0.8530271503	-0.6420560026	-1.0230723879	 0.407014
O	 1.8596403416	-0.1898933826	-1.4903647157	-0.350438
H	 0.3993214418	 1.8459044444	 0.6537204943	 0.251471
H	-0.0980663028	 1.8341731341	-0.8976760933	 0.251423
H	 0.2714031614	-1.6445341962	 1.4616737348	 0.132706
H	-0.7572456686	-0.2377532653	 2.038740052	 0.131824
H	-2.4741954477	 0.571064152	 0.1067772936	 0.29131
H	-1.1049090159	-3.0337716884	-0.5215514861	 0.128109
H	-1.6629376654	-1.954649901	-1.8301658447	 0.131162
123.8122	191.7393	195.1232	223.0066	282.7072	340.5028	412.5565	443.0504	461.8988	523.6597	618.5356	662.3715	699.7818	738.6315	810.4203	832.608	901.4779	933.2241	959.9391	1032.1766	1041.3071	1068.003	1094.4064	1145.9727	1196.2477	1214.314	1272.7353	1346.4493	1362.7387	1411.2151	1429.6186	1482.0826	1517.4479	1668.3341	1871.189	3053.7578	3105.4913	3127.188	3224.1755	3502.2513	3573.5899	3694.1665
NC12CC1(O)COC2=O	N[C@@]12C[C@]1(O)COC2=O	
InChI=1S/C5H7NO3/c6-5-1-4(5,8)2-9-3(5)7/h8H,1-2,6H2	InChI=1S/C5H7NO3/c6-5-1-4(5,8)2-9-3(5)7/h8H,1-2,6H2/t4-,5+/m0/s1
