18
gdb 45080	2.74776	1.81266	1.28496	3.1606	76.81	-0.246	0.0226	0.2686	997.2306	0.150178	-401.934138	-401.927051	-401.926107	-401.965583	28.928	
N	-0.066407014	 1.2671527322	 0.176335278	-0.518356
C	-0.0489707185	 0.0173183828	-0.0238623594	 0.382581
O	 1.1367740955	-0.6909273632	-0.0403174997	-0.263621
C	 1.3071651103	-1.738039897	-0.9708107181	 0.087202
C	 1.2503184613	-3.1541851512	-0.4782582494	-0.319652
C	 0.1180773025	-2.5879813729	-1.3120399377	-0.061299
C	-1.2079362854	-2.1695782535	-0.7361349226	-0.052269
C	-1.4460728684	-2.0026216585	 0.7339320572	-0.310411
C	-1.2955973729	-0.7711357879	-0.1450132933	-0.074306
H	 0.8910752899	 1.6194427041	 0.2386963664	 0.217678
H	 2.0243224981	-1.4717347843	-1.7418187253	 0.104484
H	 1.9114921225	-3.8806742053	-0.9373405871	 0.118094
H	 1.0803733157	-3.303716312	 0.5815492887	 0.127652
H	 0.0597088659	-2.9309717609	-2.3396023143	 0.097316
H	-2.0655228555	-2.4852168124	-1.3199108798	 0.09789
H	-2.4379995086	-2.2169901797	 1.1142962837	 0.123628
H	-0.6439881046	-2.2177887181	 1.4299796108	 0.130268
H	-2.1722267139	-0.164984422	-0.3295838381	 0.113121
92.0592	206.2551	243.7555	357.1915	431.1277	457.5619	492.6222	551.6986	663.4467	697.4832	749.1331	791.1072	815.6124	838.0224	851.786	905.3276	944.3419	956.1792	989.5978	1006.6021	1029.7033	1055.6219	1071.3398	1094.0774	1113.9817	1123.7441	1129.4138	1134.8196	1176.4932	1209.9572	1257.3953	1300.2215	1368.1974	1383.3183	1403.7026	1414.0206	1480.1467	1492.3818	1747.5302	3140.0976	3143.9666	3145.7786	3156.6436	3170.932	3207.8533	3230.2006	3233.6098	3464.2655
N=C1OC2CC2C2CC12	[NH][C]1O[C@H]2C[C@H]2[C@H]2C[C@@H]12	
InChI=1S/C7H9NO/c8-7-5-1-3(5)4-2-6(4)9-7/h3-6,8H,1-2H2	InChI=1S/C7H9NO/c8-7-5-1-3(5)4-2-6(4)9-7/h3-6,8H,1-2H2/t3-,4+,5-,6+/m1/s1
