17
gdb 87667	3.63593	1.13548	0.9683	3.185	77.29	-0.2443	-0.0562	0.1881	1220.7449	0.135031	-421.848917	-421.840811	-421.839867	-421.881787	30.704	
C	-0.0470658081	 1.5321122614	-0.1215190003	-0.423933
C	-0.0350013803	 0.0375343491	 0.0657158543	 0.00122
O	 1.2146787321	-0.6362634612	-0.0982862947	-0.294409
C	 0.6207721306	-0.6274195212	 1.2117919543	 0.391234
C	 1.3262079865	 0.0721272058	 2.3641150748	-0.441311
C	 1.1202671464	-0.8745042639	 3.5618664938	 0.37418
O	 1.46648597	-0.663202562	 4.6991644073	-0.323002
C	 0.4155295557	-2.076059938	 3.0482956999	-0.199662
C	 0.1527469538	-1.9359580618	 1.7422995909	-0.111602
H	 0.8190723857	 1.9983117722	 0.3529998319	 0.134201
H	-0.0255730351	 1.7782378824	-1.1881036119	 0.135535
H	-0.9591755298	 1.9638980612	 0.3042102332	 0.12813
H	-0.8756131508	-0.4883949323	-0.3934175522	 0.089735
H	 2.3951120882	 0.1820140709	 2.1590797021	 0.152049
H	 0.9307190269	 1.0636046082	 2.5996085646	 0.136333
H	 0.1725495314	-2.9204944636	 3.6801476257	 0.124408
H	-0.3340739334	-2.6603721272	 1.0989647263	 0.126892
69.8819	160.2835	179.1687	205.4555	302.0608	360.6156	439.9707	447.1968	484.2253	522.187	616.2849	688.082	773.5634	812.0643	831.7059	835.5091	889.681	990.2245	994.8921	998.9728	1022.9318	1090.4659	1121.6281	1147.814	1163.6369	1186.1042	1236.9272	1257.7675	1333.8519	1373.0574	1408.5066	1441.1284	1465.8327	1488.2453	1504.2343	1637.5515	1821.2982	3040.2904	3068.6591	3078.919	3103.7617	3113.3157	3134.3838	3199.0879	3230.3332
CC1OC11CC(=O)C=C1	C[C@H]1O[C@]21CC(=O)C=C2	
InChI=1S/C7H8O2/c1-5-7(9-5)3-2-6(8)4-7/h2-3,5H,4H2,1H3	InChI=1S/C7H8O2/c1-5-7(9-5)3-2-6(8)4-7/h2-3,5H,4H2,1H3/t5-,7+/m1/s1
