18
gdb 81081	2.84164	1.41726	1.16251	2.2534	72.15	-0.2423	0.0547	0.297	1094.0791	0.147435	-438.977843	-438.969752	-438.968808	-439.011136	31.012	
O	 0.8397385438	 0.97777841	-0.2437090266	-0.43055
C	 0.304515776	-0.2786537573	 0.060452515	 0.083786
C	-0.3419436516	-0.5722793803	 1.4480262261	-0.004858
C	-1.4569640425	 0.4504013139	 1.1386890077	-0.287824
C	-1.2286977397	-0.4368760889	-0.1210423458	 0.413517
O	-1.1302560597	-1.6235210023	 0.7754163373	-0.342544
C	-2.0145680823	-0.547216749	-1.3742431255	-0.149738
C	-3.4416308788	-0.1384345485	-1.3987222633	-0.237813
N	-2.4260602093	 0.6851516509	-2.0707391835	-0.31717
H	 1.7815715905	 0.9664802312	-0.0481461891	 0.293464
H	 0.8829807886	-1.1180058005	-0.3402290456	 0.085817
H	 0.1185365373	-0.8256527475	 2.4026355258	 0.093091
H	-2.3972700539	 0.274055823	 1.6625419296	 0.107203
H	-1.1742560135	 1.5022594541	 1.0803094242	 0.114544
H	-1.6823156864	-1.3415104083	-2.0392374352	 0.098911
H	-4.1310592938	-0.647392028	-2.0657555086	 0.123703
H	-3.8825452943	 0.2200153045	-0.4728700444	 0.116168
H	-2.1948541304	 1.4924638531	-1.4953783981	 0.240294
36.302	145.3445	190.7793	254.9109	295.8407	315.8325	394.8185	472.4265	572.2337	600.9656	633.6818	752.1043	827.3566	865.6568	883.7207	906.2078	913.2546	944.0724	965.0112	984.6597	1018.4982	1048.2791	1103.1857	1113.0053	1135.6956	1141.2436	1158.1188	1187.2649	1199.7438	1221.3124	1232.6322	1259.3432	1288.2925	1297.5923	1317.8683	1404.6664	1439.5787	1492.4723	1509.9611	3060.4682	3078.7234	3115.1419	3123.9429	3131.9911	3158.6921	3201.7707	3494.0284	3827.5963
OC1C2CC1(O2)C1CN1	O[C@H]1[C@H]2C[C@@]1(O2)[C@H]1CN1	
InChI=1S/C6H9NO2/c8-5-3-1-6(5,9-3)4-2-7-4/h3-5,7-8H,1-2H2	InChI=1S/C6H9NO2/c8-5-3-1-6(5,9-3)4-2-7-4/h3-5,7-8H,1-2H2/t3-,4-,5+,6-/m1/s1
