22
gdb 121630	4.03269	0.7284	0.62906	2.3491	82.	-0.234	0.0656	0.2996	1849.7327	0.191821	-441.533398	-441.521873	-441.520929	-441.571907	38.597	
C	-0.0876133512	 1.4598133676	 0.0707139321	-0.3828
C	 0.0269746272	-0.0640089935	-0.0253422002	-0.191293
C	 0.7330102433	-0.4994821313	-1.2993302336	-0.033611
O	 0.7907893976	-1.9341422391	-1.2978479594	-0.276007
C	 1.4012203969	-2.4837295662	-2.3792214511	 0.52489
O	 1.8671984565	-1.8249158631	-3.286861183	-0.428759
N	 1.4212103889	-3.8485393105	-2.3125705167	-0.144043
C	 2.0398351161	-4.5908682135	-3.3935040971	-0.338048
C	 0.8636029937	-4.6272513552	-1.2238730979	-0.338859
H	 0.8993007089	 1.9350810702	 0.0683185072	 0.120496
H	-0.6550789016	 1.8711108514	-0.7711280334	 0.120487
H	-0.5971945103	 1.7566095829	 0.9916834604	 0.118221
H	 0.5765403636	-0.4570966582	 0.8379815545	 0.105475
H	-0.9692739902	-0.5206905634	 0.0030569315	 0.105481
H	 0.1992076145	-0.1597215475	-2.193488122	 0.116888
H	 1.7499312808	-0.0963726089	-1.3559349731	 0.117044
H	 2.8751601626	-5.1976869347	-3.0199004327	 0.118034
H	 1.3143303144	-5.2664765339	-3.8654174528	 0.118041
H	 2.4099231888	-3.8841055253	-4.1339399162	 0.168286
H	 0.4297997279	-3.9688381635	-0.4764040079	 0.159778
H	 0.0843354831	-5.3062751879	-1.5954825978	 0.120163
H	 1.6423617486	-5.2398456064	-0.7498313208	 0.120134
35.9117	56.1967	68.366	108.1947	114.926	145.9157	166.4976	223.5382	239.2245	262.5002	323.0196	381.5216	411.5983	569.3339	623.6804	758.5504	772.2262	849.8645	891.5554	921.8471	998.0149	1051.9765	1086.5385	1088.5638	1137.4451	1147.1189	1183.89	1191.7287	1214.5551	1270.137	1293.6676	1309.9998	1331.5488	1400.7109	1415.9374	1435.2749	1440.8993	1472.2935	1489.9308	1491.9776	1501.3149	1501.471	1504.1788	1506.8547	1523.7365	1549.4105	1791.1394	3002.534	3010.8118	3032.9367	3034.3474	3044.1963	3044.2312	3051.5655	3061.7021	3087.2613	3104.8458	3111.1103	3170.7557	3188.7912
CCCOC(=O)N(C)C	CCCOC(=O)N(C)C	
InChI=1S/C6H13NO2/c1-4-5-9-6(8)7(2)3/h4-5H2,1-3H3	InChI=1S/C6H13NO2/c1-4-5-9-6(8)7(2)3/h4-5H2,1-3H3
