15
gdb 27802	2.09369	1.92756	1.00983	5.6893	74.34	-0.2339	-0.0365	0.1974	1119.2599	0.112516	-450.189041	-450.180245	-450.179301	-450.224162	30.885	
C	-0.0185796053	 1.4779205481	 0.0181733416	-0.455679
C	 0.000763294	-0.0195750962	-0.0230547342	 0.341803
N	-0.0206969427	-0.6093091253	-1.1835688968	-0.306142
C	-0.0028140579	-1.972344485	-1.2288824847	 0.422182
N	-0.0209412641	-2.6716744735	-2.278301392	-0.522857
O	 0.0386790816	-2.66602316	 0.0425346167	-0.255895
C	 0.0567309639	-1.9322548818	 1.1564734578	 0.515247
N	 0.0950199946	-2.6778797674	 2.272354215	-0.561513
N	 0.0403557573	-0.632619541	 1.2069578867	-0.39531
H	 0.8694452505	 1.8445226415	 0.5438343108	 0.142247
H	-0.0514450107	 1.8871723623	-0.9907084962	 0.145602
H	-0.8863060434	 1.8206221676	 0.5916247579	 0.142207
H	-0.0017981354	-3.6642365944	-2.0514198825	 0.223244
H	 0.1084286843	-3.6803921915	 2.216202804	 0.280143
H	 0.1121047033	-2.2100632835	 3.1611768757	 0.284721
19.7252	91.6051	112.0435	172.96	190.5954	301.5425	345.9906	528.5746	540.5827	544.5409	567.7569	611.3615	644.0158	741.4221	789.2406	808.8718	835.7525	956.392	978.0972	1025.0361	1061.0453	1110.158	1121.0675	1230.3401	1370.4757	1418.1459	1443.9523	1468.0097	1473.2952	1561.2422	1636.1582	1677.1084	1780.7949	3045.7401	3101.6155	3166.7564	3517.9145	3630.1355	3768.7049
CC1=NC(=N)OC(N)=N1	C[C@@H]1N=C([NH])OC(=N1)N	
InChI=1S/C4H6N4O/c1-2-7-3(5)9-4(6)8-2/h1H3,(H3,5,6,7,8)	InChI=1S/C4H7N4O/c1-2-7-3(5)9-4(6)8-2/h2,5H,1H3,(H2,6,8)/t2-/m1/s1
