25
gdb 101256	2.61379	1.06594	0.88117	1.1532	90.43	-0.2427	0.0789	0.3216	1484.1748	0.225932	-389.479427	-389.468177	-389.467232	-389.515796	41.431	
C	-0.123103605	 1.5133624699	-0.2028456012	-0.23761
O	-0.0566093254	 0.1425308889	 0.1147449816	-0.240012
C	-1.2924397591	-0.5576864727	 0.0005866489	 0.109732
C	-1.6252398269	-0.8517221	-1.468202989	-0.399829
C	-1.2113443938	-1.8536524001	 0.7967450242	-0.046713
C	 0.1095455467	-2.4548189513	 1.222585518	-0.324969
C	-0.8662244885	-1.9631112101	 2.2690166834	 0.330992
C	-0.5206149517	-0.7259423487	 3.0773542301	-0.466325
C	-1.6230179955	-3.0139117039	 3.0629022114	-0.445272
H	 0.8614791501	 1.9391095525	 0.0070618824	 0.126056
H	-0.3585043896	 1.6922625562	-1.2616957449	 0.10859
H	-0.8735554918	 2.036976392	 0.4099045305	 0.104876
H	-2.0915275916	 0.076398377	 0.4236829707	 0.062803
H	-1.6810012429	 0.0655397401	-2.0611425408	 0.1111
H	-0.859138047	-1.5007135695	-1.9032297149	 0.126896
H	-2.5936752766	-1.355555649	-1.547788156	 0.114195
H	-1.9623688426	-2.5667648391	 0.4647444434	 0.073057
H	 0.2548625875	-3.5239143853	 1.1040975044	 0.096551
H	 0.9918650381	-1.8528133716	 1.0413744737	 0.124741
H	 0.0511081812	-0.0084130219	 2.488604819	 0.135341
H	-1.4288350392	-0.2270136369	 3.4388331846	 0.102724
H	 0.0712308583	-0.9993370357	 3.9592634335	 0.106006
H	-1.0338914371	-3.3550526485	 3.9229267971	 0.111024
H	-2.5688410943	-2.6148905482	 3.4497448284	 0.108878
H	-1.8565641934	-3.8916007541	 2.4515409015	 0.107168
51.6476	62.8948	144.9689	153.1493	203.5047	217.043	232.4766	248.6316	279.5251	300.0381	341.8843	366.3953	403.1146	431.1977	521.1834	601.2176	701.073	781.2551	857.6797	882.0331	923.2986	955.5588	972.2604	981.6525	1021.9898	1054.5958	1071.638	1080.07	1118.2444	1127.3451	1143.2282	1157.6694	1182.0387	1195.811	1222.7288	1276.6756	1336.4973	1350.9715	1380.9153	1401.7617	1405.9873	1421.0316	1423.2077	1475.2078	1481.8288	1486.203	1489.4242	1492.5267	1492.8165	1502.6416	1509.2057	1511.9355	1514.5915	2941.6638	2978.4235	3015.039	3020.8057	3027.8735	3040.6772	3068.3036	3074.4503	3093.8971	3108.5949	3109.9369	3118.4263	3127.8099	3132.985	3145.9601	3225.5109
COC(C)C1CC1(C)C	CO[C@@H](C)[C@H]1CC1(C)C	
InChI=1S/C8H16O/c1-6(9-4)7-5-8(7,2)3/h6-7H,5H2,1-4H3	InChI=1S/C8H16O/c1-6(9-4)7-5-8(7,2)3/h6-7H,5H2,1-4H3/t6-,7+/m0/s1
