18
gdb 126478	2.07221	1.42565	0.90145	4.1758	73.94	-0.2477	-0.0001	0.2476	1290.5079	0.147006	-439.07988	-439.070673	-439.069729	-439.114805	32.638	
C	-0.2007126199	 1.504354092	 0.0483973633	-0.38093
C	 0.1066382045	-0.0008484336	-0.0257087165	-0.295237
C	 0.7487317852	-0.5324818723	 1.2210882371	 0.301905
N	 2.0279318154	-0.8297379492	 1.2227615796	-0.207745
O	 2.318258513	-1.2762483892	 2.5071249308	-0.172696
C	 1.1969603214	-1.2337627029	 3.2420092787	 0.010426
C	 0.1568308192	-0.773094236	 2.5025418962	 0.089029
C	-1.2595623505	-0.5870154534	 2.9393659554	-0.206006
O	-1.4003534471	-1.158915001	 4.2294228415	-0.417601
H	 0.7174198055	 2.0784903624	 0.2017319403	 0.135733
H	-0.6682786246	 1.8469629194	-0.8794095533	 0.119836
H	-0.8827571913	 1.7375869728	 0.8722604439	 0.118883
H	-0.8194072306	-0.556449898	-0.2192981419	 0.108735
H	 0.7805097824	-0.2008803087	-0.8635172478	 0.131595
H	 1.2762749989	-1.5660989292	 4.263941519	 0.162042
H	-1.5157626892	 0.4854997925	 2.9532898484	 0.105581
H	-1.9400868403	-1.0620287804	 2.2125141535	 0.102918
H	-2.2907976718	-0.977873585	 4.5433046118	 0.29353
53.7294	66.1408	145.9099	174.2469	219.5079	226.4194	272.7582	307.0267	402.5995	489.0779	614.8919	618.0316	721.1877	751.8368	792.7348	850.7559	917.7892	949.3861	980.7015	1047.3302	1076.2448	1076.847	1095.7415	1150.5151	1191.1686	1227.3016	1249.2507	1280.1677	1296.7148	1353.6883	1407.977	1431.682	1468.7232	1480.4295	1497.5126	1500.8561	1517.0188	1523.6205	1658.2931	2954.0461	2968.9458	3033.5133	3040.6413	3089.4659	3112.1316	3120.5182	3284.3014	3838.7213
CCC1=NOC=C1CO	CCc1nocc1CO	
InChI=1S/C6H9NO2/c1-2-6-5(3-8)4-9-7-6/h4,8H,2-3H2,1H3	InChI=1S/C6H9NO2/c1-2-6-5(3-8)4-9-7-6/h4,8H,2-3H2,1H3
