20
gdb 103795	2.65433	1.10464	0.9318	4.8717	77.38	-0.2326	-0.0118	0.2208	1340.6358	0.168072	-440.278622	-440.268232	-440.267288	-440.314133	37.223	
C	 0.0294484557	 1.0830398043	-0.9309433831	-0.48454
C	-0.0176178036	 0.1893023654	 0.2972644776	 0.402443
O	 0.9245763804	 0.0887414864	 1.0511537818	-0.309196
C	-1.3182548683	-0.5310509025	 0.5049734006	-0.172464
N	-1.3090376119	-1.7639124731	 1.3274486145	-0.352527
C	-2.0079234826	-0.598577898	 1.8462048989	 0.297166
C	-1.4147631126	 0.0474435426	 3.0781498366	-0.464886
C	-3.5296569459	-0.6137298794	 1.8358095362	-0.146433
O	-3.9868176103	-1.3336401467	 0.7014429138	-0.420405
H	 0.9770300343	 1.6216111103	-0.9615848666	 0.139921
H	-0.0803125108	 0.4797877896	-1.8399846294	 0.140593
H	-0.8043357014	 1.794675027	-0.9218030023	 0.135041
H	-1.9906407325	-0.5211925094	-0.3483129504	 0.098706
H	-1.9921341756	-2.4018780737	 0.9211230793	 0.241972
H	-0.3266637792	 0.0245933546	 3.0278770067	 0.173197
H	-1.745617757	 1.0877866122	 3.1755235977	 0.108192
H	-1.7343776462	-0.4944117418	 3.9755391023	 0.115006
H	-3.8761468851	-1.0882785285	 2.7678480017	 0.100788
H	-3.9056115495	 0.4213017163	 1.8334731261	 0.099642
H	-4.9401010681	-1.4343773157	 0.7651221881	 0.297784
60.8717	105.6883	135.6048	155.8459	164.5713	206.793	221.067	249.2134	325.6541	361.1399	396.2585	417.1386	537.8131	606.7765	612.2582	704.9416	811.3892	865.155	918.1234	956.8022	974.269	1013.1894	1040.5507	1066.9901	1085.612	1108.2469	1141.4638	1188.2049	1211.6003	1224.139	1262.482	1318.4351	1358.3396	1376.8844	1417.8473	1448.1006	1454.3148	1464.4911	1474.9676	1492.8972	1502.5703	1518.3849	1804.2734	2970.1607	3001.1357	3031.493	3031.9255	3088.6077	3090.5375	3151.609	3154.3764	3159.8177	3483.7433	3850.1815
CC(=O)C1NC1(C)CO	CC(=O)[C@H]1N[C@]1(C)CO	
InChI=1S/C6H11NO2/c1-4(9)5-6(2,3-8)7-5/h5,7-8H,3H2,1-2H3	InChI=1S/C6H11NO2/c1-4(9)5-6(2,3-8)7-5/h5,7-8H,3H2,1-2H3/t5-,6-/m1/s1
