16
gdb 57835	2.28799	1.40713	0.99599	2.8545	74.14	-0.2497	-0.1137	0.136	1192.4361	0.122485	-434.072128	-434.062369	-434.061425	-434.107377	33.433	
C	-0.1494046176	 1.1701445838	-0.5950554538	-0.32368
N	-0.4284463352	-0.2224167333	-0.2684064064	-0.098835
C	 0.6624260551	-1.138814233	-0.5861581914	-0.352038
C	-1.2290553241	-0.4449934776	 0.8268129458	 0.301813
N	-1.6444490347	 0.4985532873	 1.5840527396	-0.508653
C	-1.7704588712	-1.8527537464	 1.0367599972	 0.22178
O	-2.1427689828	-2.2483337612	 2.1128194664	-0.260295
C	-1.9618131596	-2.6984992125	-0.1573912461	 0.25219
N	-2.1398756297	-3.3754291143	-1.0781107517	-0.312498
H	 0.2502094385	 1.2146544283	-1.6118025225	 0.125627
H	-1.0701018286	 1.7498952116	-0.5320634684	 0.157874
H	 0.5796689519	 1.6174905774	 0.0946853478	 0.13085
H	 1.5952320373	-0.831489838	-0.0911434127	 0.130933
H	 0.4355010367	-2.1565976129	-0.2683148751	 0.146087
H	 0.829988177	-1.1538305653	-1.6668358362	 0.145817
H	-2.2959422029	 0.1273644262	 2.2757635776	 0.243027
48.3851	91.0619	120.2632	175.9389	183.8583	206.0968	262.5868	301.2302	349.8091	378.4143	427.9148	473.1852	575.4658	663.4857	686.9811	807.2219	860.3899	927.6489	1062.4517	1079.4257	1124.735	1134.8402	1173.7862	1234.4386	1304.6194	1426.8393	1448.8984	1469.664	1474.6558	1487.8197	1501.2921	1526.3887	1672.2891	1780.9379	2334.078	3000.8556	3013.9151	3087.4929	3092.465	3146.2896	3154.9776	3491.4908
CN(C)C(=N)C(=O)C#N	CN(C)C(=N)C(=O)C#N	
InChI=1S/C5H7N3O/c1-8(2)5(7)4(9)3-6/h7H,1-2H3	InChI=1S/C5H7N3O/c1-8(2)5(7)4(9)3-6/h7H,1-2H3
