15
gdb 45813	2.99822	1.67934	1.1481	2.2795	68.55	-0.2523	-0.0164	0.2359	1005.7802	0.114945	-453.965479	-453.958397	-453.957452	-453.997341	27.04	
O	 0.0383684299	-0.0493681115	-0.3996579204	-0.359084
C	-0.0040616908	 1.0645641134	 0.0480002383	 0.461314
N	-1.1748507264	 1.820850524	-0.025689599	-0.369009
C	-1.6020897437	 2.9563333264	 0.6659136708	 0.091235
N	-0.9496633445	 3.9444092155	 1.1123410551	-0.234707
C	 0.4465809264	 4.0774489473	 0.8699822556	-0.002302
C	 1.4715997382	 3.7073259984	 1.9181035461	-0.311708
C	 1.413843976	 2.9468967029	 0.6238260497	 0.065133
O	 1.035480624	 1.59348158	 0.7246230847	-0.235483
H	-1.9131996604	 1.2648608666	-0.434422828	 0.269102
H	-2.6853989111	 2.9586309261	 0.7943695201	 0.126784
H	 0.6639124659	 4.9931008054	 0.3236577057	 0.116613
H	 2.3020577047	 4.3771772921	 2.107554843	 0.125454
H	 1.0979154656	 3.1716095641	 2.7835550734	 0.139368
H	 2.2015539561	 3.0810493592	-0.1122422551	 0.11729
92.6087	117.2205	267.5629	331.3274	379.787	428.8246	522.6138	562.5446	658.8637	713.8775	737.6896	765.2235	817.6745	823.3816	888.3397	932.0873	972.3115	1020.9875	1055.4055	1067.5311	1103.5566	1126.7578	1160.7645	1200.6019	1244.7415	1268.3754	1393.877	1395.0499	1452.7211	1475.9832	1486.6191	1764.3617	1845.2281	3122.1338	3126.978	3142.1426	3146.9323	3237.3278	3605.0973
O=C1NC=NC2CC2O1	O=C1NC=N[C@H]2C[C@H]2O1	
InChI=1S/C5H6N2O2/c8-5-7-2-6-3-1-4(3)9-5/h2-4H,1H2,(H,6,7,8)	InChI=1S/C5H6N2O2/c8-5-7-2-6-3-1-4(3)9-5/h2-4H,1H2,(H,6,7,8)/t3-,4+/m0/s1
