14
gdb 22799	3.09962	1.48121	1.0085	3.8864	73.09	-0.2426	-0.0627	0.1799	1090.5684	0.100988	-473.811921	-473.804198	-473.803253	-473.844985	28.205	
O	 0.0090889765	 1.3107563919	-0.1465471247	-0.336119
N	 0.006719989	-0.054535061	-0.0676270347	-0.185764
C	-1.1531249372	-0.6157502266	 0.0283367093	 0.166758
C	-1.1356524257	-2.0683991587	 0.1113043268	-0.077535
C	-2.265062615	-2.7683117055	 0.213257441	-0.123495
C	-3.6000903781	-2.1116513645	 0.2479301824	-0.107783
O	-3.588889174	-0.6858135429	 0.1634968722	-0.246866
C	-2.4785084726	 0.0943374412	 0.0600327541	 0.38723
O	-2.6217701434	 1.282513966	 0.0007704589	-0.301296
H	 0.951642631	 1.5093002153	-0.2097563244	 0.317206
H	-0.1600189859	-2.541054528	 0.0855138146	 0.117716
H	-2.2598333835	-3.8517939688	 0.2757463289	 0.116243
H	-4.2281603594	-2.4725264094	-0.5789445856	 0.136863
H	-4.1320185519	-2.3697392891	 1.1747201513	 0.136841
47.3076	94.1171	233.5587	252.8143	356.8806	416.8741	455.7024	465.9816	525.7255	553.5785	617.7631	690.1433	735.3528	826.6025	884.9183	931.9493	1008.759	1022.7298	1054.0473	1079.6203	1145.1937	1203.5864	1253.4922	1303.7385	1380.1757	1423.9177	1452.7178	1497.7663	1659.0055	1723.0213	1836.347	3003.1902	3023.9484	3181.647	3202.8996	3783.4606
ON=C1C=CCOC1=O	ON=C1C=CCOC1=O	
InChI=1S/C5H5NO3/c7-5-4(6-8)2-1-3-9-5/h1-2,8H,3H2	InChI=1S/C5H5NO3/c7-5-4(6-8)2-1-3-9-5/h1-2,8H,3H2
