21
gdb 66432	2.50317	1.67679	1.33253	0.296	87.03	-0.2071	0.0916	0.2987	1090.5147	0.180164	-349.865173	-349.856155	-349.855211	-349.898063	35.108	
C	 0.0606969462	 1.5154210881	-0.0501614127	-0.522661
C	 0.0081773329	 0.0226525664	-0.0233507723	 0.309858
C	 0.8363975107	-1.0076507853	-0.7793322313	-0.146778
C	 0.8628533066	-0.9773385202	 0.7446852687	-0.223451
C	-0.3322992387	-1.9820688804	 0.7893015934	 0.309541
C	-0.7051497677	-3.0347376551	 1.7810279097	-0.526296
C	-0.3525603894	-2.0079442594	-0.7383951161	-0.208165
C	-1.1968595663	-0.9852528942	 0.0199921725	 0.236579
C	-2.6756031057	-0.769222363	 0.0276208233	-0.525599
H	 1.1002473156	 1.8618204242	-0.076276505	 0.12006
H	-0.4450506427	 1.9242637576	-0.9332176722	 0.118041
H	-0.4101543901	 1.9548711026	 0.837623979	 0.117367
H	 1.6433221798	-0.8553998055	-1.4849269353	 0.078101
H	 1.69092482	-0.7955581577	 1.4189537892	 0.076413
H	-0.871571595	-2.6092599848	 2.7783985372	 0.117233
H	-1.6273323754	-3.5450587713	 1.4811067016	 0.118236
H	 0.077930117	-3.7973420539	 1.8716944221	 0.12008
H	-0.6727039316	-2.7978756756	-1.4068704743	 0.075005
H	-3.2068035099	-1.7266418659	 0.0728405984	 0.119565
H	-2.9951986732	-0.1741442707	 0.8917912745	 0.117458
H	-3.0139722629	-0.2501271959	-0.8773502605	 0.119411
164.1346	170.0148	188.4494	195.5967	203.0004	205.0449	295.1996	311.8995	384.6663	528.7567	619.2623	635.9135	675.2577	762.9568	778.1133	826.7127	841.3062	844.0962	860.4498	905.3151	911.7879	947.2047	979.4396	1019.3914	1087.1677	1097.07	1100.0485	1123.9477	1131.8865	1154.4158	1197.2809	1228.2575	1258.8679	1333.5774	1402.2427	1409.1408	1410.7016	1430.8365	1456.3957	1478.2037	1481.0046	1485.8801	1493.011	1499.443	1504.3254	3012.3703	3013.5025	3016.5152	3069.1521	3069.8595	3072.604	3083.3988	3084.8646	3087.5262	3176.5398	3184.5733	3194.0561
CC12C3C1C1(C)C3C21C	C[C@@]12[C@H]3[C@@H]1[C@]1(C)[C@H]3[C@]21C	
InChI=1S/C9H12/c1-7-4-5(7)8(2)6(4)9(7,8)3/h4-6H,1-3H3	InChI=1S/C9H12/c1-7-4-5(7)8(2)6(4)9(7,8)3/h4-6H,1-3H3/t4-,5-,6-,7+,8+,9+/m0/s1
