16
gdb 44262	3.15825	1.44777	1.18754	1.4547	68.69	-0.2433	-0.0369	0.2064	1027.2839	0.125782	-437.936618	-437.929174	-437.92823	-437.968947	28.249	
O	-0.0029310768	 0.0564426889	 0.4739961254	-0.351603
C	-0.0079013354	 1.2287196415	 0.2201500254	 0.421998
N	-1.014719677	 2.1700417983	 0.1539465596	-0.325754
C	-0.1222175616	 3.319686522	-0.0695936639	-0.084304
C	 1.0627818801	 2.3073745876	-0.0989453385	-0.192823
C	 1.9935543497	 2.6450133716	 1.0837696766	-0.23434
C	 1.1182520881	 3.4345203744	 2.0778138924	-0.333665
C	 0.0842801699	 4.1532543524	 1.2058018257	 0.404858
O	-0.4644071725	 5.1959479079	 1.4491419704	-0.306583
H	-1.978270423	 2.1341494663	 0.4579216602	 0.258864
H	-0.3603119334	 3.9241389875	-0.9464148601	 0.104543
H	 1.5753652373	 2.1644214193	-1.0498755051	 0.109401
H	 2.4284070083	 1.7416262848	 1.5180241938	 0.132801
H	 2.8190916027	 3.2721482619	 0.732250361	 0.116827
H	 0.5829707325	 2.7583981006	 2.7564252776	 0.145396
H	 1.6627977809	 4.148741315	 2.6974142595	 0.134383
74.7239	114.9507	220.8052	247.8442	407.0598	439.3548	485.7106	521.307	576.4231	648.1196	728.004	756.6087	781.6268	837.819	880.1719	900.8529	962.2304	985.2224	1046.9177	1054.7895	1126.734	1160.802	1165.7831	1173.0955	1217.5822	1244.5295	1287.1406	1296.7135	1313.4086	1343.8531	1367.8776	1456.4698	1495.0739	1848.0593	1897.1764	3041.6741	3054.755	3101.9175	3106.6534	3123.681	3126.0303	3592.472
O=C1NC2C1CCC2=O	O=C1N[C@@H]2[C@H]1CCC2=O	
InChI=1S/C6H7NO2/c8-4-2-1-3-5(4)7-6(3)9/h3,5H,1-2H2,(H,7,9)	InChI=1S/C6H7NO2/c8-4-2-1-3-5(4)7-6(3)9/h3,5H,1-2H2,(H,7,9)/t3-,5-/m1/s1
