19
gdb 51890	4.24422	0.91868	0.79437	5.0765	73.58	-0.2673	0.0062	0.2735	1425.0019	0.160034	-460.202713	-460.194302	-460.193357	-460.236317	31.119	
O	-0.057318988	 0.0337305518	-0.0247680587	-0.270792
C	-0.0108989445	 1.2227563215	 0.0529615835	 0.175353
O	 1.1404748309	 1.9158528307	-0.1091640719	-0.185884
C	 1.0372601036	 3.325162262	-0.0614586368	 0.215345
C	 2.431485423	 3.9058208924	 0.1284682194	-0.221045
C	 2.3761353075	 5.4375467217	 0.0213539738	-0.218108
C	 1.6560362083	 5.855249904	-1.2686262553	-0.196017
C	 0.3054024632	 5.1457230018	-1.3654100031	-0.070128
O	 0.4546452803	 3.7305280558	-1.2762946227	-0.252887
H	-0.8766863869	 1.8738821406	 0.2728609134	 0.087898
H	 0.3770415963	 3.620211481	 0.776642917	 0.068221
H	 2.8319478319	 3.584367294	 1.0947000593	 0.110921
H	 3.0716576332	 3.4866678895	-0.6553362023	 0.124195
H	 1.8374322848	 5.8459342359	 0.8873806471	 0.100873
H	 3.386847719	 5.8547978708	 0.0582407983	 0.107684
H	 1.5048673562	 6.9398075778	-1.3005765417	 0.101469
H	 2.2621531248	 5.5823156164	-2.1405480937	 0.112668
H	-0.3668877433	 5.5006925436	-0.5655471449	 0.091465
H	-0.1852606703	 5.3315573489	-2.3237631107	 0.118771
70.945	110.2599	139.4211	230.2014	237.27	344.4912	351.5908	428.439	473.9786	520.1967	549.8595	716.9039	827.7031	852.035	880.8361	920.6383	943.5487	996.995	1037.8131	1056.6535	1085.0177	1101.4168	1113.4357	1149.2312	1182.8911	1205.3418	1239.7375	1279.9007	1301.734	1341.4459	1364.5063	1377.949	1386.4618	1405.3855	1420.832	1442.6586	1475.2648	1482.782	1492.9404	1503.8249	1875.2783	2919.3931	2964.3233	2974.0112	3019.0957	3036.6026	3050.183	3079.2329	3084.8321	3100.3362	3101.1563
O=COC1CCCCO1	O=CO[C@H]1CCCCO1	
InChI=1S/C6H10O3/c7-5-9-6-3-1-2-4-8-6/h5-6H,1-4H2	InChI=1S/C6H10O3/c7-5-9-6-3-1-2-4-8-6/h5-6H,1-4H2/t6-/m0/s1
