16
gdb 46771	2.69973	1.93399	1.31425	1.4011	68.31	-0.2266	0.0147	0.2413	939.5508	0.12903	-434.123951	-434.117073	-434.116129	-434.155483	26.636	
O	 0.0247744218	-0.0615076608	 0.0146685601	-0.394056
C	-0.0041128758	 1.1518517991	-0.0014189929	 0.403255
N	-1.1063599111	 1.9491974241	-0.0277364268	-0.30842
C	-0.8679510971	 3.3812103813	 0.0679268374	-0.179534
C	 0.6415950469	 3.4754645104	 0.3984736517	 0.008781
N	 0.8935967445	 3.6500721894	 1.8428326824	-0.252927
C	 1.6424761787	 2.6756135918	 2.1954621185	 0.059062
N	 2.0668133482	 1.7907325386	 1.2143199644	-0.293379
C	 1.2230979182	 2.0811458939	 0.0523495944	-0.131317
H	-2.0283126989	 1.5421025124	-0.0397103299	 0.256509
H	-1.1092965033	 3.8899601702	-0.8737777216	 0.109173
H	-1.4566321376	 3.8358556414	 0.8698830813	 0.133065
H	 1.105637552	 4.3004020547	-0.1491368334	 0.094524
H	 1.9985094402	 2.5392366391	 3.2127993524	 0.129899
H	 2.1597801659	 0.8116251372	 1.4575247545	 0.255714
H	 1.7855341475	 2.0210685973	-0.8822194823	 0.109651
94.896	148.5069	229.1567	343.089	474.0775	513.4864	534.267	580.1911	634.2065	699.3682	743.5651	798.9956	857.6828	883.0939	916.6968	961.5999	977.977	1007.8461	1061.2882	1072.9896	1093.9943	1126.1404	1222.9818	1235.6163	1264.4759	1274.4605	1311.1924	1315.3047	1348.9033	1372.8462	1412.9343	1448.2476	1525.775	1677.5074	1822.4139	3020.807	3065.0044	3085.0102	3087.2765	3186.3464	3567.3106	3639.9726
O=C1NCC2N=CNC12	O=C1NC[C@H]2[N][CH]N[C@@H]12	
InChI=1S/C5H7N3O/c9-5-4-3(1-6-5)7-2-8-4/h2-4H,1H2,(H,6,9)(H,7,8)	InChI=1S/C5H7N3O/c9-5-4-3(1-6-5)7-2-8-4/h2-4H,1H2,(H,6,9)(H,7,8)/t3-,4-/m1/s1
