21
gdb 101594	3.36761	0.81187	0.72314	3.9118	77.63	-0.2327	0.0631	0.2958	1640.3858	0.180998	-457.581778	-457.570509	-457.569565	-457.619037	39.153	
C	-0.0406944873	 1.3926540126	-0.0802284594	-0.322748
N	-0.0492883995	-0.0490402576	 0.0778254035	-0.361735
C	 0.6538724944	-0.6371381011	 1.1124069428	 0.505245
O	 1.1495462596	 9.3194*^-6	 2.0294253996	-0.420536
N	 0.7477274485	-2.009068211	 1.0167624501	-0.37546
C	 1.250928843	-2.7894984426	 2.1421290841	 0.069913
C	 0.2307747161	-2.9126386638	 3.2831898792	-0.39338
C	 1.6910708255	-4.1488025613	 1.6054465923	-0.099706
O	 0.5555197926	-4.7596541005	 0.9962286261	-0.428245
H	 0.7552502056	 1.7434107473	-0.7515119753	 0.115087
H	-1.0036335951	 1.7367541878	-0.4700115031	 0.116877
H	 0.1275614197	 1.8301835739	 0.9040178725	 0.166972
H	-0.1824569354	-0.5981278907	-0.7564483638	 0.232987
H	 0.0901148401	-2.5024671658	 0.4311296042	 0.238873
H	 2.1350310173	-2.2655223739	 2.5161887046	 0.109033
H	-0.6589648368	-3.4546361546	 2.9508341835	 0.121745
H	 0.6639604818	-3.4536873037	 4.1315191515	 0.106011
H	-0.0587740736	-1.9162746548	 3.6233548312	 0.140451
H	 2.4986187361	-4.0077562877	 0.8728911927	 0.094146
H	 2.0758341371	-4.7626731057	 2.4330861983	 0.092003
H	 0.8338954901	-5.5844249861	 0.5891970155	 0.292467
55.0377	65.8943	85.5535	105.6776	147.8568	169.0991	235.4629	254.7461	261.9608	300.6702	341.3292	396.6308	439.562	499.7968	529.7367	613.438	748.6393	770.1714	843.4313	936.2736	945.8966	986.0209	1006.8092	1110.4709	1139.3877	1139.7158	1151.3184	1169.5871	1199.212	1215.6772	1255.8477	1276.9266	1347.1314	1375.2723	1396.9269	1439.5563	1453.2464	1481.3284	1494.0015	1498.7746	1499.9004	1513.0335	1515.6284	1560.31	1773.5874	2987.1379	3008.4375	3025.9762	3040.4913	3077.7804	3080.4511	3111.2466	3137.7888	3155.9187	3609.2402	3625.9254	3842.1694
CNC(=O)NC(C)CO	CNC(=O)N[C@@H](C)CO	
InChI=1S/C5H12N2O2/c1-4(3-8)7-5(9)6-2/h4,8H,3H2,1-2H3,(H2,6,7,9)	InChI=1S/C5H12N2O2/c1-4(3-8)7-5(9)6-2/h4,8H,3H2,1-2H3,(H2,6,7,9)/t4-/m0/s1
