21
gdb 100964	3.34771	0.98909	0.84957	2.8802	74.95	-0.2518	0.0788	0.3306	1415.6	0.180153	-461.347272	-461.337112	-461.336168	-461.382061	37.928	
C	 0.0270537838	 1.3515051228	-0.3323352372	-0.428548
C	 0.0544432626	-0.0932373761	 0.0909500833	 0.030198
O	 1.339317705	-0.7586151	 0.0849531407	-0.315462
C	 0.6406518644	-0.6130629947	 1.3410130678	 0.337215
C	 1.2876758511	 0.2857509476	 2.3696188848	-0.478584
C	 0.1211000731	-1.9577532222	 1.8637872712	 0.031665
O	-0.2378708063	-2.8101155512	 0.7814148481	-0.444617
C	 1.1345001526	-2.705261019	 2.7462954274	-0.070362
O	 0.6486473554	-3.9895493751	 3.0648142609	-0.425643
H	 0.8549592576	 1.9249944774	 0.0876462997	 0.130035
H	 0.091440508	 1.4199448804	-1.4232134285	 0.13425
H	-0.9157541911	 1.817297834	-0.025497563	 0.127852
H	-0.7343478856	-0.7041531724	-0.3473535796	 0.103175
H	 1.5473441674	 1.2589064918	 1.9523943232	 0.129157
H	 0.6088517167	 0.4443278069	 3.2147808268	 0.129051
H	 2.2055134461	-0.1665777891	 2.7562437084	 0.141068
H	-0.7961863757	-1.7961436252	 2.4436460916	 0.098388
H	 0.4504666305	-2.6668779805	 0.1127875944	 0.293547
H	 2.1021173485	-2.755059204	 2.2156594847	 0.086168
H	 1.2990795959	-2.1770566691	 3.6906929901	 0.10484
H	 0.2656493299	-4.3232535924	 2.2424003653	 0.286608
73.8377	131.1107	146.8849	165.6479	189.1478	232.8463	271.7562	320.3152	330.4274	367.7378	441.461	476.4622	487.8348	526.7893	599.1521	621.3641	729.7034	818.5544	856.4536	895.3813	953.4258	1004.3904	1050.2712	1051.5233	1084.4235	1104.9077	1126.0089	1141.7235	1187.1105	1212.5012	1239.8857	1291.7966	1313.5222	1351.6978	1384.4561	1408.7757	1421.511	1436.3686	1446.4415	1460.0923	1477.6806	1488.3501	1500.2503	1509.2295	1519.7481	2948.3517	3040.0632	3041.3974	3046.2936	3078.407	3101.3855	3108.212	3115.8179	3137.5523	3148.2555	3703.26	3759.8685
CC1OC1(C)C(O)CO	C[C@H]1O[C@]1(C)[C@@H](O)CO	
InChI=1S/C6H12O3/c1-4-6(2,9-4)5(8)3-7/h4-5,7-8H,3H2,1-2H3	InChI=1S/C6H12O3/c1-4-6(2,9-4)5(8)3-7/h4-5,7-8H,3H2,1-2H3/t4-,5+,6+/m1/s1
