19
gdb 72532	2.70597	1.76082	1.75701	1.9252	74.87	-0.2361	0.0088	0.2449	926.0118	0.160785	-423.03818	-423.030829	-423.029885	-423.069351	30.255	
C	 0.0503846632	 1.4976683975	 0.014815989	-0.464388
C	-0.0331683521	-0.0120005768	 0.000400297	 0.438433
O	 0.6490275898	-0.4704921383	-1.1707989213	-0.294491
C	 0.6761560276	-1.895894527	-1.2530966172	-0.058412
C	-0.0438686913	-2.4916256953	-0.0240509504	-0.133583
C	 0.6911331969	-1.9202337408	 1.2076704272	-0.058415
O	 0.6635051193	-0.4934743842	 1.1536614757	-0.294491
C	-1.441117726	-1.9251961603	-0.0098866882	-0.110206
C	-1.434208254	-0.5928551374	 0.0032803458	-0.079777
H	 1.0979047369	 1.8042025078	 0.0100376742	 0.134306
H	-0.4459286404	 1.9063301214	-0.8684414304	 0.126009
H	-0.4326141679	 1.8884388248	 0.9134138903	 0.126052
H	 0.1936699237	-2.2123673053	-2.1866387993	 0.097573
H	 1.7242855247	-2.2238232826	-1.2727419918	 0.099917
H	-0.0034290492	-3.5826557158	-0.035095817	 0.074567
H	 0.2197695335	-2.2549458828	 2.1405406982	 0.097566
H	 1.7393287742	-2.2485131912	 1.2083145133	 0.099926
H	-2.3274494455	-2.5491461025	-0.0106953184	 0.097896
H	-2.3073792733	 0.0490141187	 0.0149786233	 0.101517
173.1323	199.5213	284.1959	294.722	342.5334	389.1952	462.0717	492.0104	580.3665	629.8358	655.3181	719.3431	747.2604	838.1117	842.7029	891.3774	935.6398	951.1667	955.9289	963.9338	983.5459	1060.3198	1075.1607	1125.0748	1129.6089	1130.3378	1195.5116	1220.5654	1223.6334	1273.149	1282.0472	1333.1478	1380.1176	1381.8068	1409.7674	1414.1904	1481.122	1487.1058	1513.7117	1525.2471	1680.9393	3002.1603	3004.7307	3041.0269	3044.65	3059.5897	3095.407	3138.2839	3146.6253	3182.5942	3206.6933
CC12OCC(CO1)C=C2	C[C@@]12OC[C@@H](CO1)C=C2	
InChI=1S/C7H10O2/c1-7-3-2-6(4-8-7)5-9-7/h2-3,6H,4-5H2,1H3	InChI=1S/C7H10O2/c1-7-3-2-6(4-8-7)5-9-7/h2-3,6H,4-5H2,1H3/t6-,7+
