13
gdb 21494	5.19021	1.58613	1.23606	2.9748	61.89	-0.2544	-0.035	0.2194	902.4177	0.098614	-394.833051	-394.826323	-394.825379	-394.864218	24.917	
N	-0.1145883194	 1.3600372331	 0.0517754254	-0.552809
C	 0.0360376288	 0.0014539358	-0.1665601697	 0.312077
O	 1.102927572	-0.5058887492	-0.4458148342	-0.340258
C	-1.2151279172	-0.7822922969	-0.0826544817	 0.297864
C	-1.3951954977	-2.1398702602	 0.1055959778	-0.273029
C	-2.7906187965	-2.3191033782	 0.1082275969	-0.005089
N	-3.4407454963	-1.1693544712	-0.0784450026	-0.21329
N	-2.4687811813	-0.2498767621	-0.1727376117	-0.27574
H	 0.758287362	 1.8655485826	 0.1085190846	 0.264658
H	-0.8246148944	 1.6652242966	 0.7002831164	 0.255812
H	-0.614669537	-2.8708944394	 0.2335618942	 0.131704
H	-3.3515052673	-3.2331531321	 0.2344906341	 0.121649
H	-2.7127346457	 0.6906893613	-0.4366510096	 0.276451
89.4818	175.75	187.7679	400.781	441.1219	503.7002	549.4748	573.6703	654.8407	675.0523	700.5861	785.46	844.3596	911.6064	937.5953	1011.7679	1054.55	1092.8079	1140.4697	1201.5459	1277.6521	1321.6804	1373.6221	1452.8	1470.7579	1591.4593	1625.486	1793.5525	3251.181	3285.8375	3564.8254	3661.9442	3683.3693
NC(=O)C1=CC=NN1	NC(=O)c1ccn[nH]1	
InChI=1S/C4H5N3O/c5-4(8)3-1-2-6-7-3/h1-2H,(H2,5,8)(H,6,7)	InChI=1S/C4H5N3O/c5-4(8)3-1-2-6-7-3/h1-2H,(H2,5,8)(H,6,7)
