13
gdb 131089	4.72839	0.92163	0.81447	3.6174	60.38	-0.2864	-0.0459	0.2404	1302.3276	0.089304	-489.893293	-489.885648	-489.884704	-489.927244	25.816	
O	 0.4380612159	 0.1975713897	-0.4815949551	-0.264129
C	 0.4943503481	 1.3871220124	-0.4870999896	 0.190629
O	 0.8081146591	 2.0996823227	 0.6223971749	-0.173672
C	 0.9013269117	 3.5176585232	 0.486472774	-0.211604
C	 2.3144078162	 3.9299515952	 0.2205613565	 0.38377
N	 2.9790849035	 4.7191891911	 1.0202144742	-0.1605
O	 4.2230688194	 4.8390355194	 0.3938266331	-0.146235
C	 4.155092012	 4.0954097233	-0.7116231275	 0.115129
N	 3.0154820522	 3.5090631442	-0.8899508459	-0.300195
H	 0.289165321	 2.0279263009	-1.3649008992	 0.08994
H	 0.2561994963	 3.8675317881	-0.3289843124	 0.138135
H	 0.556510412	 3.9562787268	 1.4232544088	 0.16038
H	 5.0360903226	 4.057471613	-1.3353126918	 0.178351
51.3709	52.715	138.3823	202.5528	285.5949	366.1376	402.7392	635.362	651.5938	699.0319	810.1291	910.4548	913.903	973.1977	987.144	1022.9699	1035.4991	1054.6745	1142.7141	1155.1684	1290.0264	1304.2182	1377.3278	1394.935	1431.4978	1485.8387	1526.1703	1604.789	1878.1854	2967.7916	3038.0213	3138.9163	3270.7374
O=COCC1=NOC=N1	O=COCc1nocn1	
InChI=1S/C4H4N2O3/c7-3-8-1-4-5-2-9-6-4/h2-3H,1H2	InChI=1S/C4H4N2O3/c7-3-8-1-4-5-2-9-6-4/h2-3H,1H2
