13
gdb 43619	6.22469	0.63597	0.6287	3.483	79.13	-0.2732	-0.06	0.2132	1670.2563	0.089159	-415.610956	-415.602734	-415.601789	-415.645017	28.819	
O	 0.0261208367	-0.0615864692	 0.1286663131	-0.33549
C	-0.0324840971	 1.1316069071	 0.0598845825	 0.437615
C	-1.1575423336	 2.1962689255	 0.0593362298	-0.389867
C	 0.0035118663	 3.2491288913	-0.0435914073	-0.181191
N	 0.9316921558	 2.112465044	-0.0415548675	-0.303842
C	 0.029084043	 4.0783283281	-1.2367426023	 0.162806
C	 0.0578673956	 4.7805802873	-2.219540923	 0.018756
C	 0.0880651766	 5.570937187	-3.3324548621	 0.214745
N	 0.1143280257	 6.2445309545	-4.278351973	-0.328431
H	-1.8158865073	 2.154860018	-0.8082997601	 0.15562
H	-1.7430585958	 2.2494352317	 0.9775494921	 0.150126
H	 0.0922280617	 3.8843704186	 0.845316063	 0.133029
H	 1.9377616525	 2.0751780761	-0.1194804451	 0.266123
43.0347	89.2291	123.305	229.9549	260.4136	371.1482	432.7108	446.6763	526.4101	560.0805	573.4829	595.5469	696.7933	760.3839	879.1133	965.5686	983.651	1013.7257	1100.9117	1150.3029	1189.16	1199.8287	1251.2468	1367.0371	1369.9908	1455.9926	1913.9774	2265.6801	2400.5278	3040.8103	3101.5985	3166.5569	3611.407
O=C1CC(N1)C#CC#N	O=C1C[C@@H](N1)C#CC#N	
InChI=1S/C6H4N2O/c7-3-1-2-5-4-6(9)8-5/h5H,4H2,(H,8,9)	InChI=1S/C6H4N2O/c7-3-1-2-5-4-6(9)8-5/h5H,4H2,(H,8,9)/t5-/m0/s1
