24
gdb 22255	2.06848	1.17727	0.97893	0.4357	88.19	-0.2409	0.0161	0.257	1413.1686	0.214318	-405.523969	-405.512574	-405.51163	-405.559846	42.231	
C	 0.1435563434	 1.4365575383	-0.1842497699	-0.386956
C	 0.2034741495	-0.0994061039	-0.0476437384	-0.04571
C	 0.8603009012	-0.7275604122	-1.2805368396	-0.382726
C	 0.8596536283	-0.4885807962	 1.2689315812	 0.352372
N	 2.0109241289	-1.035425689	 1.1792053166	-0.189661
O	 2.5751656751	-1.3674730448	 2.4271147019	-0.398734
C	 0.0795239509	-0.2044587429	 2.5473951231	-0.04301
C	-0.3116481959	-1.5081317611	 3.2715720069	-0.391288
C	 0.7998282848	 0.7801914861	 3.4882345509	-0.392729
H	 1.1538139024	 1.8509908323	-0.2675912092	 0.12372
H	-0.4130849408	 1.7168186262	-1.0841457787	 0.1145
H	-0.3465283979	 1.9112043893	 0.6711025992	 0.118133
H	-0.8341675173	-0.4617865981	 0.011469709	 0.081954
H	 1.891526481	-0.3835051225	-1.3947436528	 0.126583
H	 0.8855435354	-1.8175435809	-1.2063536215	 0.117035
H	 0.3026143951	-0.4522597506	-2.1816349256	 0.099564
H	 3.4103192213	-1.767639726	 2.1648685631	 0.303212
H	-0.85393735	 0.2767273698	 2.2316130998	 0.073895
H	-0.8757038345	-2.1738763676	 2.6103184841	 0.109527
H	 0.5735448744	-2.0426598847	 3.6191386905	 0.14207
H	-0.9441063883	-1.2787100572	 4.1356767562	 0.107407
H	 1.0327781768	 1.7190022774	 2.9760373551	 0.111634
H	 0.1559311606	 1.0145051941	 4.3427649161	 0.106608
H	 1.7332401157	 0.3571888841	 3.8613500119	 0.142599
64.4278	89.9226	177.8758	203.6344	218.2393	227.7968	233.0436	245.6684	253.3206	273.8965	293.9506	355.9556	387.8725	431.9913	437.4572	470.3425	608.0498	705.4901	749.9329	861.3555	907.0262	931.8584	936.6645	966.4745	968.9122	971.1217	1080.2486	1107.5838	1123.218	1136.462	1146.4918	1202.0649	1222.2489	1324.4996	1350.2859	1357.3073	1364.265	1392.1201	1398.9001	1413.3116	1416.1912	1423.8469	1483.9074	1484.8975	1487.2605	1498.0111	1500.1648	1501.9872	1509.5256	1520.9336	1726.8819	2987.4554	3025.3576	3033.6098	3036.6697	3040.7247	3042.5607	3097.2721	3099.9361	3103.8403	3107.4945	3112.0987	3124.8115	3144.6703	3148.6343	3824.8516
CC(C)C(=NO)C(C)C	CC(C)C(=NO)C(C)C	
InChI=1S/C7H15NO/c1-5(2)7(8-9)6(3)4/h5-6,9H,1-4H3	InChI=1S/C7H15NO/c1-5(2)7(8-9)6(3)4/h5-6,9H,1-4H3
