21
gdb 117959	3.17745	0.91753	0.80109	2.5213	77.46	-0.2224	0.0691	0.2915	1508.55	0.180911	-457.56983	-457.558369	-457.557425	-457.608149	38.672	
C	-0.1360679521	 1.4737176849	-0.0129482704	-0.31689
N	 0.0088448003	 0.0295767202	 0.0214677824	-0.36939
C	 0.6813766445	-0.6022769562	-1.0079163213	 0.500804
O	 1.2931581705	 0.0224644699	-1.8661088595	-0.439878
N	 0.6422230464	-1.9803716872	-0.9828296426	-0.116635
C	 0.0777598818	-2.7356899089	 0.1228756446	-0.356567
C	 1.2985248881	-2.687700104	-2.0735519117	-0.165498
C	 2.7586332422	-3.0266264085	-1.7964550494	-0.069394
O	 2.8070744155	-3.9749163764	-0.7358596449	-0.421585
H	 0.7912265913	 1.9026651808	-0.39257687	 0.16098
H	-0.9536845611	 1.8080125616	-0.6663098783	 0.117543
H	-0.3203569892	 1.8450779475	 0.9990080166	 0.114628
H	-0.7175784641	-0.4822895135	 0.4936750981	 0.239474
H	-1.023303519	-2.7576051656	 0.1022391246	 0.10801
H	 0.4438819316	-3.7598501739	 0.0721878212	 0.157508
H	 0.3991065531	-2.3227865514	 1.0852163807	 0.131538
H	 0.7456615068	-3.6121403635	-2.2752840479	 0.102362
H	 1.2531592715	-2.0520960194	-2.9595334441	 0.137569
H	 3.2097178149	-3.4354331335	-2.7151749903	 0.083492
H	 3.2912130126	-2.1018360232	-1.5377030323	 0.112831
H	 3.7205075744	-4.06475632	-0.4509133856	 0.289098
31.7373	46.6957	74.6255	118.7527	134.0519	142.3632	176.6068	237.814	250.0126	290.3858	339.0666	412.7767	454.4656	475.0533	562.3285	617.5138	766.6007	822.7198	879.1888	931.8089	1004.8909	1090.7997	1094.7773	1113.2662	1147.1266	1151.3475	1165.8726	1180.1352	1238.7187	1260.4304	1286.9005	1339.9094	1393.7522	1404.9668	1440.1186	1446.9628	1452.1435	1477.9417	1489.6657	1493.0931	1508.7798	1515.7593	1524.4389	1557.2548	1751.0514	2973.1087	2976.201	3010.1521	3031.901	3051.5956	3063.6952	3087.1613	3126.6957	3155.3346	3158.5116	3643.9694	3837.8724
CNC(=O)N(C)CCO	CNC(=O)N(C)CCO	
InChI=1S/C5H12N2O2/c1-6-5(9)7(2)3-4-8/h8H,3-4H2,1-2H3,(H,6,9)	InChI=1S/C5H12N2O2/c1-6-5(9)7(2)3-4-8/h8H,3-4H2,1-2H3,(H,6,9)
