18
gdb 10751	2.70695	1.73681	1.50129	2.2149	67.55	-0.2475	-0.0259	0.2216	947.7809	0.150399	-384.929651	-384.92057	-384.919625	-384.963531	32.3	
C	 0.042461797	 1.5602771396	-0.3294684376	-0.428011
C	 0.0167382737	 0.0467667176	-0.0095572548	 0.120564
C	 0.5798627829	-0.2377472542	 1.387449154	-0.415186
C	-1.4411413492	-0.3952670959	-0.1087362231	 0.130798
O	-2.0990232572	-0.7961404681	 0.8176221534	-0.259107
C	 0.858201227	-0.6753469251	-1.0593858705	 0.08096
C	 0.5458366733	-2.0073284391	-1.5900024829	-0.196535
O	 0.3090144522	-0.8281210476	-2.3685722256	-0.242866
H	 1.0731381738	 1.9295149247	-0.3111026576	 0.123928
H	-0.3697198168	 1.7605207716	-1.3230591405	 0.13792
H	-0.533985397	 2.1265692593	 0.4082532556	 0.128888
H	-0.0061530724	 0.2816143916	 2.1491800072	 0.133189
H	 0.5446243746	-1.3061168554	 1.6169157125	 0.126987
H	 1.6190328934	 0.0988429477	 1.4607789887	 0.110386
H	-1.8774350435	-0.2924299774	-1.1249702286	 0.102033
H	 1.9066872088	-0.367456742	-1.0557658248	 0.094997
H	 1.3473882162	-2.64940658	-1.9507312613	 0.122875
H	-0.3476968167	-2.5302075772	-1.2506612843	 0.128178
55.2137	83.281	178.8391	215.4894	225.4297	239.0554	285.4324	313.4226	343.244	469.2364	481.5102	590.1883	746.1549	835.448	865.8887	917.4653	944.4461	955.2312	990.1816	1033.6395	1051.7379	1102.6296	1157.5403	1176.0716	1189.789	1236.835	1255.9568	1312.941	1393.6684	1402.0169	1413.4753	1437.6672	1481.659	1483.2672	1499.1974	1506.5334	1532.1231	1825.1114	2911.5317	3033.8226	3043.6304	3078.0432	3086.4228	3105.5806	3114.0559	3115.6192	3128.5865	3173.1979
CC(C)(C=O)C1CO1	CC(C)(C=O)[C@H]1CO1	
InChI=1S/C6H10O2/c1-6(2,4-7)5-3-8-5/h4-5H,3H2,1-2H3	InChI=1S/C6H10O2/c1-6(2,4-7)5-3-8-5/h4-5H,3H2,1-2H3/t5-/m1/s1
