17
gdb 11883	4.47476	1.57759	1.32408	3.75	69.31	-0.2312	0.0363	0.2675	943.4712	0.14364	-363.899108	-363.89192	-363.890976	-363.93057	27.942	
O	 0.0126703761	-0.0113366202	-0.0994971146	-0.379369
C	-0.0424279936	 1.1969512437	-0.0437063519	 0.400081
C	-1.2078117841	 2.0593918408	 0.4584355783	-0.335107
C	-0.8580664926	 3.4869013349	 0.0007419524	-0.28311
C	 0.663108527	 3.453661853	-0.1628845883	 0.395903
C	 1.4438261791	 4.5420241634	-0.8301085987	-0.328271
C	 1.5940801988	 4.3061312911	 0.6641343594	-0.315245
N	 0.9522055491	 2.0669054427	-0.4097700083	-0.359985
H	-2.156132437	 1.6827343873	 0.0723289018	 0.130248
H	-1.2398667665	 1.9708006477	 1.5502120132	 0.131339
H	-1.3245607063	 3.6955757362	-0.9680807452	 0.116049
H	-1.1781047348	 4.2622330288	 0.6998891114	 0.109263
H	 2.2721655899	 4.2602317971	-1.4725088481	 0.115652
H	 0.9073748367	 5.42480924	-1.1633932028	 0.120747
H	 1.1624924024	 5.031482095	 1.346206675	 0.117902
H	 2.5194082884	 3.8587841794	 1.0121876695	 0.115168
H	 1.8603905575	 1.7228483391	-0.6791044133	 0.248736
91.1356	125.4593	262.3483	313.5872	440.053	460.7738	480.2862	516.1955	568.5468	647.8135	760.2783	767.269	829.327	882.3379	911.3799	925.9455	948.4469	989.7534	1002.3495	1054.4542	1063.1871	1076.7182	1173.6635	1186.9657	1199.8559	1254.261	1285.9678	1298.8464	1322.8011	1352.3808	1444.9449	1460.7887	1469.1426	1497.4867	1509.5223	1832.5853	3047.3894	3054.9796	3105.9572	3122.5659	3124.8723	3126.795	3202.418	3218.2352	3640.4133
O=C1CCC2(CC2)N1	O=C1CCC2(CC2)N1	
InChI=1S/C6H9NO/c8-5-1-2-6(7-5)3-4-6/h1-4H2,(H,7,8)	InChI=1S/C6H9NO/c8-5-1-2-6(7-5)3-4-6/h1-4H2,(H,7,8)
