13
gdb 9973	3.27939	1.42917	1.03627	3.7072	69.67	-0.2804	0.0027	0.2831	1065.802	0.092654	-324.263319	-324.254861	-324.253917	-324.296543	29.862	
C	-0.032599787	-1.2182736651	-0.0329959366	-0.41723
C	-0.0459694087	-0.0176896612	-0.0046604239	 0.294686
C	-0.0272015958	 1.4362318947	 0.0179528185	-0.356525
C	 1.4259562021	 2.0174106127	 0.0361982716	-0.325028
C	 1.4107012461	 3.4740090643	-0.0946681598	 0.319427
C	 1.3609631781	 4.6665748654	-0.2182120616	-0.412202
C	 2.1441304927	 1.6054472016	 1.2532371633	 0.304307
N	 2.7034422798	 1.280929962	 2.2097393866	-0.315708
H	-0.0309721074	-2.2803736613	-0.0460608922	 0.208552
H	-0.5249117991	 1.842187678	-0.8688213047	 0.15458
H	-0.5663099692	 1.8196561845	 0.8901753509	 0.161865
H	 1.9634609389	 1.5843602718	-0.8170534878	 0.170038
H	 1.3328522094	 5.7236201825	-0.3221288044	 0.213237
67.9561	111.6731	132.9163	204.9027	219.6831	337.6555	367.4618	448.4054	485.2299	572.6012	585.0729	636.9672	656.0738	671.7093	675.8365	812.4714	960.5212	972.6987	1025.6429	1054.4629	1200.0992	1272.9834	1327.0216	1349.8885	1470.7985	2245.3859	2250.3117	2368.8613	3034.7517	3051.542	3092.5262	3501.6989	3504.4274
C#CCC(C#C)C#N	C#CC[C@@H](C#C)C#N	
InChI=1S/C7H5N/c1-3-5-7(4-2)6-8/h1-2,7H,5H2	InChI=1S/C7H5N/c1-3-5-7(4-2)6-8/h1-2,7H,5H2/t7-/m1/s1
