20
gdb 59836	4.67071	0.57282	0.54837	2.4942	86.48	-0.2314	0.0367	0.2681	2038.5253	0.169365	-403.093629	-403.083298	-403.082354	-403.13107	36.591	
C	 0.2974077441	 0.0700604691	 0.8082804528	-0.40383
C	-0.622853242	-0.0481438415	-0.4038323647	 0.144287
O	-1.2350309021	 1.1956039828	-0.7269119211	-0.433422
C	 0.1276500451	-0.4638092233	-1.6827477709	-0.341096
C	 0.7029210125	-1.8001587061	-1.6174232024	 0.033708
C	 1.1691833478	-2.9104933583	-1.5458196602	 0.104989
C	 1.74332263	-4.2255963918	-1.4927741259	-0.159462
C	 0.9067364976	-5.3898166035	-1.0702623144	-0.226807
N	 1.3237091257	-5.2631266718	-2.4694146744	-0.306627
H	 0.7921774755	-0.8832670298	 1.0138026176	 0.133851
H	 1.062856256	 0.832847927	 0.6310889775	 0.123011
H	-0.2706106695	 0.3543720367	 1.7016199051	 0.105177
H	-1.3922560187	-0.8099257189	-0.1994838581	 0.073475
H	-1.6440226021	 1.542661636	 0.0718523503	 0.282465
H	-0.5778557388	-0.3974880938	-2.5195236075	 0.137777
H	 0.9106179203	 0.2795298006	-1.8810601112	 0.133688
H	 2.8073206952	-4.2618005238	-1.2723260287	 0.114733
H	 1.3724683498	-6.20542039	-0.5241890709	 0.123743
H	-0.1274318993	-5.1892073444	-0.8066239725	 0.121085
H	 0.5535830433	-4.8937111652	-3.0221639703	 0.239256
16.3037	57.9322	72.9043	136.8936	189.2682	251.2395	260.6167	313.4053	336.8206	369.709	445.0416	461.5751	529.8806	553.4709	737.3337	811.9394	836.5645	881.5672	894.9072	952.5398	961.0164	994.9127	1071.2146	1089.5414	1099.2212	1120.9871	1127.8204	1156.0943	1217.0698	1226.9324	1257.0144	1271.6657	1297.9095	1327.1984	1381.5974	1397.5548	1405.2023	1419.5161	1468.6206	1493.8227	1497.9091	1504.5855	2357.8645	2971.5011	3026.1701	3030.0374	3064.0596	3097.0267	3113.0371	3121.0809	3135.7796	3203.3906	3503.1918	3822.1801
CC(O)CC#CC1CN1	C[C@@H](O)CC#C[C@H]1CN1	
InChI=1S/C7H11NO/c1-6(9)3-2-4-7-5-8-7/h6-9H,3,5H2,1H3	InChI=1S/C7H11NO/c1-6(9)3-2-4-7-5-8-7/h6-9H,3,5H2,1H3/t6-,7+/m1/s1
