14
gdb 128113	2.64376	1.22399	0.8449	6.9849	75.63	-0.253	-0.0703	0.1828	1281.5972	0.096021	-469.963785	-469.956392	-469.955448	-469.995542	28.811	
C	-0.0603165733	 1.5213267006	-0.0448534574	-0.335887
N	 0.225349824	 0.06091766	 0.1461531068	-0.398672
C	 0.6786420337	-0.6878343833	-0.9619813391	 0.453373
C	 0.7163486629	-2.0731339923	-1.213494422	 0.087777
C	 0.1547466132	-3.2015771878	-0.3948983678	 0.097778
O	 0.2317476479	-4.4230518788	-0.6832324352	-0.294332
N	 1.4113909084	-2.2606473578	-2.4580992563	-0.165476
N	 1.7822698781	-1.0613895634	-2.9489550944	-0.014807
O	 1.3187522732	-0.0011984604	-1.9938342535	-0.248792
H	 0.806984039	 1.9819603851	-0.5483176346	 0.177614
H	-0.9694047635	 1.699977081	-0.6542554046	 0.147034
H	-0.1922617089	 1.9800154518	 0.9503875082	 0.148863
H	-0.4972187135	-0.4477850744	 0.7092978842	 0.271968
H	-0.3610203713	-2.8333102102	 0.5387397457	 0.073556
195.4475	213.0183	284.6088	294.8289	347.691	357.2786	382.0681	423.6817	473.897	547.5244	628.7725	709.9736	752.7505	768.6805	829.0547	880.5361	959.4393	987.7478	1035.3691	1054.4605	1103.3625	1156.0601	1183.031	1289.9797	1376.7219	1419.019	1474.6545	1500.1217	1510.9266	1538.9365	1559.098	2741.8276	2927.3809	3008.8141	3046.5977	3185.1402
CNC1=C(C=O)N=NO1	CNc1c(C=O)nno1	
InChI=1S/C4H5N3O2/c1-5-4-3(2-8)6-7-9-4/h2,5H,1H3	InChI=1S/C4H5N3O2/c1-5-4-3(2-8)6-7-9-4/h2,5H,1H3
