20
gdb 119436	4.1278	0.87907	0.79896	3.1219	82.23	-0.2563	0.023	0.2793	1502.9529	0.170203	-403.132486	-403.123473	-403.122528	-403.16683	33.74	
C	 0.0043552366	 1.5214969506	 0.0323870805	-0.385619
C	-0.0371698462	-0.0009821715	-0.1148021525	-0.161971
C	-1.4430587984	-0.5785493467	 0.1159299355	-0.300676
C	-1.4816705025	-2.0670432549	 0.0067220658	 0.479223
C	-1.6110247202	-2.9317570516	-1.1962342139	-0.328969
C	-2.589238559	-3.1019154029	-0.0236322806	-0.280585
C	-1.8429708669	-3.7309220523	 1.1023375557	 0.449424
N	-2.0580299959	-4.6746872295	 1.8981491147	-0.558508
O	-0.7762307682	-2.8328700985	 1.0382892854	-0.309218
H	 1.0148035221	 1.9076349408	-0.1315419285	 0.116693
H	-0.6602230261	 2.0095925607	-0.689466771	 0.114055
H	-0.3120092669	 1.8312857504	 1.0345422003	 0.118452
H	 0.3097160638	-0.2898395758	-1.1145031701	 0.101108
H	 0.6550021811	-0.4643895533	 0.5974362287	 0.120024
H	-1.8062143251	-0.2846570981	 1.1086788928	 0.113726
H	-2.1452075033	-0.1608476444	-0.616397567	 0.106461
H	-2.0556196254	-2.4662527838	-2.0710956375	 0.125215
H	-0.8701614358	-3.6973486457	-1.4034692281	 0.130886
H	-3.6605553384	-3.0117651628	-0.1261506759	 0.122105
H	-1.2965960954	-4.7657108006	 2.5729232857	 0.228174
62.1429	87.1949	108.284	180.9528	251.4048	309.5225	333.7603	361.6856	445.2508	468.6635	635.6686	704.7066	742.6299	756.1802	842.9265	861.3533	869.2516	886.1721	911.2878	950.7621	970.3766	990.757	1002.5254	1032.3773	1048.4827	1079.927	1099.7899	1126.7194	1179.3508	1220.3361	1256.3715	1298.5521	1312.7101	1336.1501	1380.9816	1414.518	1419.1254	1471.1968	1492.1518	1496.1903	1501.2477	1509.9482	1831.2738	3022.1931	3029.8848	3034.8297	3055.4933	3075.387	3099.742	3106.4575	3122.7897	3214.1562	3231.0498	3477.566
CCCC12CC1C(=N)O2	CCC[C@]12C[C@H]1[C]([NH])O2	
InChI=1S/C7H11NO/c1-2-3-7-4-5(7)6(8)9-7/h5,8H,2-4H2,1H3	InChI=1S/C7H11NO/c1-2-3-7-4-5(7)6(8)9-7/h5,8H,2-4H2,1H3/t5-,7-/m0/s1
