16
gdb 77787	2.76487	1.36002	1.08291	2.0889	78.6	-0.2375	-0.0336	0.2039	1126.4691	0.1217	-400.678875	-400.670398	-400.669454	-400.711878	32.003	
C	-0.109783713	 1.5236387517	 0.0037185392	-0.32842
N	 0.0964655867	 0.0813418723	 0.1076516699	-0.115293
C	 1.36221673	-0.5614944331	-0.2005512309	-0.227018
C	 2.5325908079	 0.2357981806	 0.3451451134	 0.419521
O	 3.5936930667	 0.5535712199	-0.107151981	-0.302025
C	 1.9270824922	 0.29908075	 1.7699236779	-0.427111
C	 0.7545403447	-0.5513212231	 1.2255078137	 0.130972
C	 0.1267069435	-1.6172436739	 1.9348175944	 0.208888
C	-0.3802452145	-2.502958721	 2.570666679	-0.356117
H	 0.723729391	 2.1480147242	 0.3493603276	 0.120958
H	-0.2997214282	 1.7594322255	-1.0467925407	 0.140599
H	-1.0028571338	 1.7832791493	 0.5788721158	 0.138518
H	 1.3865596154	-1.3425099081	-0.9529569185	 0.124247
H	 2.5656487505	-0.2491045426	 2.4676665467	 0.147797
H	 1.6802863309	 1.273607703	 2.1971481702	 0.129084
H	-0.8361085599	-3.2893213648	 3.1200473931	 0.195399
91.4212	151.2171	156.2916	166.1464	292.1156	342.4849	422.5159	463.5826	494.656	529.7636	570.1746	612.2212	617.2811	662.0733	676.7692	718.8082	855.1992	924.8615	975.3695	982.5961	1027.0993	1087.7115	1107.3194	1150.41	1170.8991	1192.009	1216.7491	1234.3432	1384.0047	1446.3702	1462.6294	1496.9037	1500.7471	1886.7278	2241.4383	3017.8365	3070.6334	3092.4733	3122.3292	3125.2253	3179.7605	3501.08
CN1C2C(=O)CC12C#C	CN1[C@H]2C(=O)C[C@@]12C#C	
InChI=1S/C7H7NO/c1-3-7-4-5(9)6(7)8(7)2/h1,6H,4H2,2H3	InChI=1S/C7H7NO/c1-3-7-4-5(9)6(7)8(7)2/h1,6H,4H2,2H3/t6-,7+,8?/m0/s1
