23
gdb 117675	2.98163	0.91944	0.83374	1.4946	81.99	-0.2605	0.0814	0.3419	1524.7935	0.203231	-425.41519	-425.404669	-425.403724	-425.450694	39.148	
C	-0.1616364554	 1.5775998468	 0.2828197679	-0.383515
C	-0.0233599989	 0.0683528554	 0.0631119824	-0.17755
C	-1.3776189386	-0.6261968369	-0.1146891608	-0.193756
C	-1.3174022157	-2.1714204248	-0.1652019245	 0.315126
C	-0.5142917825	-2.6952377268	-1.3569124213	-0.410181
O	-0.6948073257	-2.6813787046	 1.0098930545	-0.471361
C	-2.7497059033	-2.7026782539	-0.2327112382	 0.057389
C	-3.1168249449	-4.011004125	 0.3142812719	-0.190791
O	-3.4097826282	-2.8009885084	 1.0361476418	-0.261258
H	 0.8167049962	 2.052531627	 0.4065738008	 0.111029
H	-0.660839165	 2.0608922091	-0.5648367313	 0.110682
H	-0.7529469003	 1.7950755391	 1.1793893149	 0.113802
H	 0.6067273284	-0.1107994639	-0.8163239241	 0.094004
H	 0.4943107852	-0.3895054667	 0.9126089418	 0.112621
H	-2.0356414031	-0.3503362572	 0.7211473316	 0.099309
H	-1.8713377165	-0.2574593236	-1.0244168993	 0.086399
H	 0.5259101509	-2.3685983227	-1.2909868451	 0.131934
H	-0.5255876179	-3.7883127168	-1.3676128123	 0.120354
H	-0.9314207131	-2.3310853402	-2.3011154329	 0.111708
H	-1.3489886087	-2.5811171572	 1.7159795928	 0.285885
H	-3.3688687975	-2.2797674629	-1.0247562763	 0.091842
H	-3.9878026667	-4.5350595731	-0.0741502014	 0.117981
H	-2.3432216685	-4.6309612827	 0.7596023972	 0.128348
74.2707	83.8475	117.4479	150.8512	208.4752	247.9071	249.8692	289.2242	315.6204	332.5502	385.4849	405.9207	510.6375	535.2383	632.646	747.5452	757.7464	832.6854	868.5108	875.1104	924.2874	940.9207	956.1799	1014.774	1032.2283	1050.4262	1090.8565	1110.4775	1151.9917	1170.0881	1170.567	1189.4914	1226.1652	1268.5148	1288.0231	1313.7968	1333.7976	1377.0711	1394.7683	1411.2177	1418.5754	1439.2738	1476.3029	1489.7685	1495.6338	1499.3445	1502.4653	1512.4219	1515.2036	3005.6215	3027.0982	3032.803	3042.2765	3046.8801	3073.7221	3098.5036	3099.4243	3100.5426	3107.8406	3118.2208	3129.3895	3196.6233	3743.0764
CCCC(C)(O)C1CO1	CCC[C@@](C)(O)[C@H]1CO1	
InChI=1S/C7H14O2/c1-3-4-7(2,8)6-5-9-6/h6,8H,3-5H2,1-2H3	InChI=1S/C7H14O2/c1-3-4-7(2,8)6-5-9-6/h6,8H,3-5H2,1-2H3/t6-,7-/m1/s1
