21
gdb 120535	6.34862	0.63377	0.61378	3.0112	81.58	-0.2479	-0.0203	0.2276	1844.0632	0.180151	-424.220714	-424.21074	-424.209796	-424.256879	35.262	
C	-0.0686239298	 1.1710056873	 0.5825264365	-0.384863
C	-0.1776958616	-0.1925173321	-0.0780258476	-0.045677
O	 0.9103545948	-0.3461147286	-0.9737800009	-0.249973
C	 0.9351243701	-1.5812415226	-1.6293409697	 0.173166
C	-0.0306940811	-1.8087900236	-2.8286329625	-0.278219
C	 1.1749354484	-2.3709268332	-3.6568370644	-0.096245
C	 2.1322015389	-1.7526203384	-2.5825465303	-0.28146
C	 1.2132291473	-3.8735029277	-3.6809119229	 0.171072
O	 1.3290259304	-4.5475460391	-4.6721597213	-0.255546
H	 0.8751150504	 1.2578534664	 1.1282487983	 0.128364
H	-0.1038197682	 1.965129211	-0.1686149316	 0.127448
H	-0.8931220368	 1.3211023523	 1.285734842	 0.116445
H	-0.1564100937	-0.9944691701	 0.678940848	 0.088551
H	-1.1340380102	-0.2836036873	-0.6177481853	 0.091816
H	 0.8640503173	-2.4039412712	-0.900058924	 0.066932
H	-0.8913982343	-2.4666435004	-2.6839392467	 0.107712
H	-0.3703447445	-0.8553770934	-3.2402986686	 0.1206
H	 1.2809463154	-2.0021201333	-4.6775666304	 0.095241
H	 2.501733259	-0.7774266284	-2.9063338792	 0.127052
H	 2.9739722047	-2.3588674924	-2.2397447707	 0.111132
H	 1.1226162633	-4.3521259752	-2.6748244787	 0.066452
49.6606	61.498	89.7709	98.5403	170.5621	242.9844	272.9155	297.601	356.8773	405.6286	458.4845	487.3823	698.51	809.4749	822.9368	872.1869	883.8372	887.4409	914.8636	972.6213	986.6273	1052.409	1068.6601	1099.8862	1120.1687	1159.4288	1186.9956	1192.4546	1201.6593	1226.794	1254.6607	1268.7097	1296.576	1299.2032	1317.1567	1376.5799	1405.6234	1436.9704	1443.0925	1462.7866	1483.5746	1487.4641	1500.2583	1529.3843	1831.2118	2830.3736	2960.5229	2973.3279	2990.488	3046.005	3061.7672	3069.4462	3107.1554	3120.7197	3122.618	3122.9049	3129.8611
CCOC1CC(C1)C=O	CCO[C@H]1C[C@@H](C1)C=O	
InChI=1S/C7H12O2/c1-2-9-7-3-6(4-7)5-8/h5-7H,2-4H2,1H3	InChI=1S/C7H12O2/c1-2-9-7-3-6(4-7)5-8/h5-7H,2-4H2,1H3/t6-,7-
