16
gdb 45479	3.1451	1.77695	1.56523	3.735	68.85	-0.2497	0.022	0.2717	885.9793	0.127436	-437.887693	-437.881423	-437.880478	-437.918342	25.597	
N	-0.0857356016	 1.279263014	-0.4653188293	-0.551108
C	-0.0377488221	 0.090472544	-0.0461345546	 0.437434
O	 1.1141645839	-0.5752052765	 0.293962751	-0.254721
C	 0.8130024172	-1.8934824815	 0.7897305855	 0.051357
C	 0.689025404	-1.8165171239	 2.3112422071	-0.087592
O	-0.5855938429	-1.1982723928	 2.5283885921	-0.257672
C	-1.4051047924	-1.5316421991	 1.4380665934	 0.100378
C	-0.6318278242	-2.2087771946	 0.3591453935	-0.151329
C	-1.1987075808	-0.8278016682	 0.0974541901	-0.181673
H	 0.8510689807	 1.6835744318	-0.5056308556	 0.223282
H	 1.5753983148	-2.5820226127	 0.4245798978	 0.100326
H	 0.713487199	-2.8216863971	 2.758293526	 0.099673
H	 1.4598014278	-1.1914898921	 2.766668759	 0.12924
H	-2.415058494	-1.8129388504	 1.7134514051	 0.114852
H	-0.9040205181	-3.1148176599	-0.1647067924	 0.107695
H	-2.0624806012	-0.6521325011	-0.5292064586	 0.119859
126.3829	200.8013	379.3583	410.3901	447.3666	622.2447	659.9335	704.4427	746.7755	771.0139	813.8374	821.514	872.346	888.4804	926.233	937.9656	958.7549	985.4481	1015.3755	1025.9688	1064.6041	1090.402	1095.9236	1116.4585	1152.9995	1224.9749	1251.7286	1266.7692	1289.7947	1335.859	1355.682	1379.0239	1405.6035	1499.4385	1780.8658	2997.7944	3116.8584	3119.2822	3179.76	3203.8612	3217.0859	3478.7207
N=C1OC2COC3C2C13	[NH][C]1O[C@H]2CO[C@@H]3[C@H]2[C@H]13	
InChI=1S/C6H7NO2/c7-6-4-3-2(9-6)1-8-5(3)4/h2-5,7H,1H2	InChI=1S/C6H7NO2/c7-6-4-3-2(9-6)1-8-5(3)4/h2-5,7H,1H2/t2-,3+,4-,5+/m0/s1
