17
gdb 76070	2.10463	1.6024	1.17898	3.0638	75.53	-0.2438	0.0173	0.2611	1102.097	0.133614	-417.987765	-417.978052	-417.977108	-418.022329	35.284	
C	 0.120474248	 1.3566147437	 0.3477798596	-0.410293
C	-0.0875827031	-0.0976739089	 0.0024229592	 0.010072
C	 0.5982227254	-0.7413560518	-1.1905745528	-0.252871
C	 1.4971480271	 0.0089196917	-2.0218650295	 0.368306
C	 2.244218367	 0.6054330055	-2.7515752233	-0.46147
N	 0.941315694	-1.0922865482	 0.1955249113	-0.134262
C	 2.158962891	-0.8313300053	 0.8522621923	 0.426709
N	 3.2421303879	-1.3982431579	 0.2381985761	-0.528992
O	 2.2197799345	-0.2147988986	 1.8961224593	-0.381731
H	 1.0760024586	 1.7277576423	-0.0271783715	 0.140059
H	-0.6824793394	 1.9550707878	-0.0942688417	 0.116717
H	 0.1079662055	 1.4905827431	 1.4315105486	 0.152394
H	-1.0857222794	-0.4766183305	 0.2200689222	 0.102832
H	 0.0622354035	-1.5311551476	-1.7143967208	 0.119847
H	 2.904890128	 1.1425727005	-3.3864631982	 0.205801
H	 3.1208641596	-2.065023898	-0.5039473099	 0.261967
H	 4.0902284019	-1.4375106678	 0.7774125192	 0.264917
60.0527	104.8352	151.3882	172.5278	180.7915	232.9844	254.9339	339.4023	384.9526	469.095	493.3048	550.2851	581.1367	618.6406	652.2604	666.0475	715.6292	788.2846	818.9407	858.4486	986.4873	1035.4447	1053.4204	1102.0261	1117.5611	1161.721	1184.0161	1286.8561	1365.1568	1398.3803	1410.9611	1427.5105	1486.0015	1486.4574	1614.1746	1799.1984	2234.8826	3050.716	3106.5489	3117.7622	3125.6633	3145.1968	3502.1825	3613.2051	3744.2071
CC1C(C#C)N1C(N)=O	C[C@H]1[C@@H](C#C)N1C(=O)N	
InChI=1S/C6H8N2O/c1-3-5-4(2)8(5)6(7)9/h1,4-5H,2H3,(H2,7,9)	InChI=1S/C6H8N2O/c1-3-5-4(2)8(5)6(7)9/h1,4-5H,2H3,(H2,7,9)/t4-,5+,8?/m0/s1
