20
gdb 51000	3.4678	1.04536	0.9346	2.2432	79.64	-0.2298	-0.0283	0.2015	1305.5997	0.168989	-403.102093	-403.092872	-403.091928	-403.13727	33.957	
O	 0.3977866958	-0.3250328081	-1.0293295466	-0.239451
C	 0.5265357777	 0.6736227536	-0.3666512185	 0.131497
C	 1.6337861807	 1.6868472798	-0.5548685621	-0.307187
C	 1.2367754081	 2.8941178108	-1.408939973	 0.332964
C	 0.4484607965	 2.6518738145	-2.6775301014	-0.318078
C	-0.1945726562	 3.3439289309	-1.4908587188	-0.310041
N	 2.2671036669	 3.9072552259	-1.2945885512	-0.114313
C	 3.3820709994	 3.8624928708	-2.2397258179	-0.225078
C	 2.3862253046	 4.9683496731	-2.2840519036	-0.237148
H	-0.1984153313	 0.9111280001	 0.4448460526	 0.082062
H	 1.9440607333	 2.0616007256	 0.4275469317	 0.120751
H	 2.4844012348	 1.1805319838	-1.023316142	 0.12249
H	 0.6575478612	 3.247211821	-3.5590790636	 0.11404
H	 0.1577941639	 1.6302483438	-2.897005464	 0.136716
H	-0.9592477839	 2.8202935223	-0.9280143036	 0.117136
H	-0.3650028562	 4.4122470529	-1.5704240225	 0.119867
H	 4.369989834	 4.0199783999	-1.8169302225	 0.118781
H	 3.3339320494	 3.1307855395	-3.0440811355	 0.117978
H	 1.7064830635	 4.9903193879	-3.1323744461	 0.116631
H	 2.6284310979	 5.946966652	-1.8792095513	 0.120385
38.9604	61.1841	81.0888	200.776	248.5027	273.4964	331.5039	351.5978	456.5179	500.2107	535.8461	622.6907	767.8064	800.2854	824.2867	864.0373	894.5076	915.2573	940.9889	960.9849	991.8568	1034.9143	1042.3677	1058.0717	1078.5914	1092.3794	1113.7247	1120.7039	1171.785	1177.6376	1186.0466	1209.7153	1235.385	1311.3729	1312.619	1363.1957	1429.2083	1465.8387	1477.4384	1487.6457	1508.3471	1521.7319	1825.4087	2870.1914	3035.9272	3091.4618	3099.6849	3107.0196	3135.6314	3137.8673	3181.117	3195.3588	3212.8203	3223.9863
O=CCC1(CC1)N1CC1	O=CCC1(CC1)N1CC1	
InChI=1S/C7H11NO/c9-6-3-7(1-2-7)8-4-5-8/h6H,1-5H2	InChI=1S/C7H11NO/c9-6-3-7(1-2-7)8-4-5-8/h6H,1-5H2
