12
gdb 129144	2.37865	2.01265	1.32579	2.9507	68.89	-0.2723	-0.11	0.1623	911.3984	0.077153	-461.041601	-461.034186	-461.033242	-461.07442	26.635	
N	-0.1281021647	 1.4075439827	 0.1313214411	-0.443096
C	-0.0308050792	 0.1535157784	 0.007852918	 0.333831
N	 1.2317697817	-0.5036287937	-0.0872272519	-0.177637
N	 1.4477908705	-1.4088335125	-0.9118253189	-0.041333
N	 0.491234025	-1.86758154	-1.8040527977	-0.13455
N	-0.8684955502	-1.7636619962	-2.0527801288	-0.041333
N	-1.6698969756	-1.249068271	-1.2534244453	-0.177632
C	-1.2558537999	-0.7221548787	 0.0059055062	 0.333826
N	-1.9026137775	-0.9379121419	 1.0700701309	-0.443095
H	 0.8050338909	 1.8306150797	 0.1396073726	 0.246217
H	 0.9218736997	-2.4685171938	-2.4914191839	 0.298584
H	-2.7158120608	-1.5283465531	 0.8703291178	 0.246218
48.5852	78.6115	225.8192	307.349	344.8468	427.9983	487.3617	503.4733	585.8059	669.4493	691.3929	768.8144	830.3535	832.3375	853.0451	948.7026	950.5461	994.2794	1038.1526	1039.6277	1272.5135	1328.3141	1424.2551	1597.5615	1638.1486	1716.3446	1749.6238	3438.7576	3438.8955	3635.285
N=C1N=NNN=NC1=N	[NH][C]1N=NNN=N[C]1[NH]	
InChI=1S/C2H3N7/c3-1-2(4)6-8-9-7-5-1/h(H3,3,4,5,6,9)	InChI=1S/C2H3N7/c3-1-2(4)6-8-9-7-5-1/h(H3,3,4,5,6,9)
