21
gdb 57047	2.3392	1.32714	0.94512	1.3661	84.13	-0.2446	0.0492	0.2938	1301.8866	0.180507	-387.044415	-387.034444	-387.0335	-387.079578	36.728	
C	-0.0585575967	 1.5180775304	 0.1387457917	-0.399938
C	 0.0459665029	-0.0100852942	-0.0422602086	-0.177447
C	 0.6903969617	-0.3615153272	-1.3058114144	 0.328812
C	 1.2518321049	-0.6416097193	-2.331964435	-0.477153
C	 0.8175248241	-0.6295533015	 1.1328232826	 0.150654
O	 0.1868181022	-0.3381748965	 2.3994009884	-0.295014
C	 0.2453660414	-1.7233490212	 2.8005570167	-0.080402
C	 0.7641843115	-2.159260364	 1.4117027069	-0.048204
C	-0.1796920136	-3.0271988589	 0.5883112325	-0.415827
H	 0.9339789925	 1.9780929492	 0.1142230266	 0.123665
H	-0.6587092551	 1.9610693209	-0.6598496996	 0.121695
H	-0.5238069162	 1.7400636185	 1.1018034484	 0.140549
H	-0.9704543944	-0.4229227511	-0.0361444006	 0.104149
H	 1.7339565819	-0.8893105116	-3.2450595106	 0.195534
H	 1.8453277651	-0.2387536377	 1.1130164211	 0.077931
H	 0.9423411193	-1.8756243285	 3.6344945406	 0.098885
H	-0.7418225951	-2.107272739	 3.086737581	 0.100105
H	 1.7574258332	-2.6138068657	 1.4355662645	 0.080753
H	-1.2036214719	-2.639542389	 0.6031457942	 0.12026
H	 0.1438285402	-3.0902464951	-0.4543209228	 0.136015
H	-0.2095066781	-4.0431357085	 0.9965524365	 0.114977
48.1118	87.3982	122.6784	192.0349	211.9477	239.5958	249.2387	287.4264	362.4863	413.3261	433.9782	514.9039	568.9101	630.2674	640.5565	761.9926	819.5117	869.2147	883.6987	924.8794	969.5184	1014.0899	1021.2815	1045.0285	1072.0042	1101.6814	1127.6565	1156.608	1174.6891	1197.3733	1263.9459	1280.7532	1290.9306	1327.5546	1353.42	1379.3909	1391.7147	1407.1861	1416.8966	1495.9812	1499.1739	1499.3735	1502.9713	1526.5871	2231.0109	2991.947	3009.9092	3032.1617	3037.4423	3047.2719	3050.9341	3075.5464	3100.6638	3117.7517	3120.2277	3136.5981	3504.0119
CC(C#C)C1OCC1C	C[C@@H](C#C)[C@H]1OC[C@H]1C	
InChI=1S/C8H12O/c1-4-6(2)8-7(3)5-9-8/h1,6-8H,5H2,2-3H3	InChI=1S/C8H12O/c1-4-6(2)8-7(3)5-9-8/h1,6-8H,5H2,2-3H3/t6-,7+,8+/m0/s1
