23
gdb 109770	2.48877	1.04825	0.87815	2.5723	82.44	-0.2456	0.0615	0.3071	1460.3486	0.204184	-425.413929	-425.403404	-425.40246	-425.449724	39.308	
C	-0.26141842	 1.6153945693	 0.2393481094	-0.381985
C	 0.108626835	 0.1518099422	-0.0313686306	-0.19112
C	 0.7255112745	-0.5050138262	 1.1870839471	-0.040367
C	-0.1227621489	-1.2970454573	 2.1505088964	 0.0863
O	-1.466285919	-1.5044911396	 1.8340757666	-0.43101
C	 0.9214035271	-2.0127254553	 1.3203012053	-0.134973
C	 0.4516363195	-3.0042036935	 0.2694181534	 0.109556
C	 1.6113244251	-3.7226789786	-0.4148004607	-0.403049
O	-0.4750233728	-3.9570898554	 0.8383874547	-0.4358
H	 0.6189984319	 2.2034835306	 0.5220790792	 0.108654
H	-0.7024448714	 2.081171661	-0.6474137201	 0.108437
H	-0.9876633098	 1.6863102195	 1.0549973326	 0.130088
H	-0.7950956617	-0.3922390265	-0.3191184005	 0.117155
H	 0.8041744998	 0.0977468288	-0.8791451217	 0.087769
H	 1.5155565949	 0.0839695865	 1.6485627524	 0.07901
H	 0.0700588323	-1.1782088267	 3.2167141376	 0.079734
H	-1.5571587104	-2.4504827302	 1.6440498399	 0.294991
H	 1.8216581589	-2.3259924085	 1.8463317922	 0.075126
H	-0.1473276733	-2.495473963	-0.4889345898	 0.101912
H	 2.2219003733	-4.2634797462	 0.3188628265	 0.107589
H	 1.2381438923	-4.4420473688	-1.1484868388	 0.124907
H	 2.2625876744	-3.0051204171	-0.923931573	 0.125884
H	-0.0111820015	-4.4262749051	 1.5416484418	 0.281192
46.845	73.6993	124.2343	182.0516	207.4188	247.2794	270.0996	273.2602	308.7144	335.0963	390.4575	447.4076	538.9479	570.1221	617.9179	655.656	762.3824	792.601	811.7141	854.7793	893.6641	962.6452	993.3873	1023.1758	1030.0399	1066.2815	1075.6258	1100.016	1113.439	1145.82	1184.8677	1187.0973	1249.4238	1274.8136	1297.9093	1318.6125	1339.3474	1388.7033	1399.1196	1402.3415	1404.1122	1409.2423	1424.4705	1445.8661	1483.9651	1489.792	1494.4557	1497.6006	1505.195	3020.1739	3027.0916	3031.4375	3080.5346	3086.5882	3093.0238	3100.7642	3105.5294	3110.5027	3113.9608	3121.7649	3130.4009	3699.2055	3793.7688
CCC1C(O)C1C(C)O	CC[C@H]1[C@@H](O)[C@H]1[C@@H](C)O	
InChI=1S/C7H14O2/c1-3-5-6(4(2)8)7(5)9/h4-9H,3H2,1-2H3	InChI=1S/C7H14O2/c1-3-5-6(4(2)8)7(5)9/h4-9H,3H2,1-2H3/t4-,5-,6+,7-/m1/s1
