21
gdb 58895	2.97814	1.19266	1.16071	2.4572	77.69	-0.2506	0.0759	0.3265	1207.5951	0.181724	-424.218442	-424.209342	-424.208398	-424.252408	34.234	
C	 0.033911614	 1.4220343578	-0.2959305626	-0.400426
C	 0.0027277096	-0.0564451656	 0.1235283816	-0.067746
C	 0.7701793372	-0.2921257582	 1.4335837627	-0.399225
C	-1.4212125757	-0.5668608675	 0.1928816182	 0.414315
C	-2.4458750037	-0.0301895447	 1.1822655121	-0.144393
O	-3.532789137	-0.9500050358	 1.1696630682	-0.257363
C	-3.0865505544	-2.2190654867	 0.7072006655	-0.101939
C	-1.8496996915	-1.9368921727	-0.1125210065	-0.062404
O	-2.0462361605	-0.8853228271	-1.0653967423	-0.304509
H	 1.0641567053	 1.7602318059	-0.4441980066	 0.113767
H	-0.5132163264	 1.5730575556	-1.2308415414	 0.134242
H	-0.4169250295	 2.0630530976	 0.4701927952	 0.116385
H	 0.4873967266	-0.6399977577	-0.6687776558	 0.086075
H	 1.8183804334	-0.0000460719	 1.3169583655	 0.118162
H	 0.3555917886	 0.2993704043	 2.2566305719	 0.120394
H	 0.7446557963	-1.345615737	 1.7300427545	 0.115076
H	-1.9985866946	 0.0462275377	 2.185805298	 0.09509
H	-2.8409867094	 0.9518383945	 0.9026101421	 0.117228
H	-2.8310506654	-2.8944678801	 1.541034847	 0.091951
H	-3.9013153532	-2.6703297573	 0.1311461502	 0.118617
H	-1.1683260996	-2.734052621	-0.3992719976	 0.096704
48.9738	135.156	190.7361	213.6233	231.0267	249.343	288.8532	305.6211	423.5844	457.5498	506.032	584.4957	704.7191	773.7716	873.702	888.8319	907.264	929.6507	933.4843	965.0017	970.0724	1008.9452	1042.0127	1069.3596	1111.1139	1118.4774	1139.5473	1188.9301	1224.9285	1242.9865	1269.0478	1272.7623	1333.0652	1350.5136	1364.4224	1389.0164	1397.941	1418.8484	1472.6091	1487.9147	1491.9834	1499.6538	1504.0683	1510.3832	1514.6334	2967.4085	2985.418	3029.402	3031.9	3035.9169	3068.717	3072.5951	3097.5152	3104.1489	3106.0679	3115.1915	3148.6832
CC(C)C12COCC1O2	CC(C)[C@]12COC[C@H]1O2	
InChI=1S/C7H12O2/c1-5(2)7-4-8-3-6(7)9-7/h5-6H,3-4H2,1-2H3	InChI=1S/C7H12O2/c1-5(2)7-4-8-3-6(7)9-7/h5-6H,3-4H2,1-2H3/t6-,7-/m1/s1
