15
gdb 129966	5.7542	0.97328	0.88121	4.1327	68.35	-0.2257	0.0125	0.2382	1272.0268	0.114734	-450.125454	-450.117562	-450.116618	-450.158846	28.826	
N	 0.0768739774	 1.344830645	 0.2931561536	-0.601419
C	-0.0281371017	-0.0106450313	 0.055956138	 0.412561
N	-1.137863127	-0.7239298644	 0.1053124054	-0.369006
C	-0.7177708977	-1.9689120923	-0.2828792727	 0.353165
N	 0.5680629049	-2.0673356715	-0.5643925626	-0.280153
N	 1.0027445225	-0.7916060071	-0.3380896286	-0.24485
C	-1.6563044677	-3.1099449608	-0.3539807359	-0.019336
C	-1.3193463467	-4.3574258511	-1.0537659387	-0.173133
O	-1.3050273418	-4.3007855145	 0.3689388875	-0.230169
H	 0.9150530295	 1.634421445	 0.7780302855	 0.257231
H	-0.7547435227	 1.7026224298	 0.7429167933	 0.272301
H	 1.9627464703	-0.5499604499	-0.5168976994	 0.27583
H	-2.6993266385	-2.8162082528	-0.2586918105	 0.103893
H	-2.1173628255	-4.9534176613	-1.4956750732	 0.111139
H	-0.3429589851	-4.4404508927	-1.5264497218	 0.131945
29.088	152.8019	174.8314	261.8428	297.4515	336.3699	431.3673	456.1236	493.4905	650.2395	673.2183	751.9243	762.4181	787.6168	848.9278	910.664	997.5272	1030.467	1063.1775	1100.9628	1118.161	1156.3906	1164.2789	1177.2408	1277.3491	1300.7053	1355.9309	1450.3227	1499.876	1528.5326	1560.6152	1606.7935	1661.6566	3084.2725	3142.7779	3180.7984	3558.9639	3657.1666	3670.2574
NC1=NC(=NN1)C1CO1	Nc1nc(n[nH]1)[C@H]1CO1	
InChI=1S/C4H6N4O/c5-4-6-3(7-8-4)2-1-9-2/h2H,1H2,(H3,5,6,7,8)	InChI=1S/C4H6N4O/c5-4-6-3(7-8-4)2-1-9-2/h2H,1H2,(H3,5,6,7,8)/t2-/m1/s1
