23
gdb 119350	4.76682	0.77989	0.76175	1.3736	87.3	-0.2621	0.0811	0.3433	1602.7447	0.205124	-388.248136	-388.238496	-388.237552	-388.282779	36.641	
C	 0.0066892789	 1.4698510242	-0.0143634172	-0.5082
C	 0.0030873447	-0.0356075082	-0.0027223144	 0.334949
C	 0.6123534634	-0.9952472011	-1.0709744181	-0.300904
C	-0.0011483175	-1.932047624	 0.0114295612	 0.352367
C	 0.0071486444	-3.4400771388	 0.0021670998	-0.318683
C	-0.6811381285	-4.0589975094	 1.2134589515	-0.073089
O	-0.6033430358	-5.4711933642	 1.0814034381	-0.419248
C	 0.6280387251	-0.9745563271	 1.0735121995	-0.288204
C	-1.2385151256	-0.9783002461	 0.0123094704	-0.288204
H	 1.0297892245	 1.8619246202	-0.0241762516	 0.11662
H	-0.5093918093	 1.8588428003	-0.8991778109	 0.11662
H	-0.4976042117	 1.8723340958	 0.8713067785	 0.11578
H	 0.1317271546	-1.0036508904	-2.0547194609	 0.082452
H	 1.703535085	-1.0004775547	-1.1610898616	 0.082451
H	-0.4880845239	-3.8086902809	-0.904881284	 0.104641
H	 1.0410214956	-3.8056284663	-0.0344705534	 0.104628
H	-0.1869863593	-3.7173879088	 2.1371161322	 0.087168
H	-1.728602387	-3.7202819657	 1.2596251118	 0.087174
H	-1.0349599839	-5.8682075771	 1.8433647563	 0.283911
H	 1.7204498918	-0.9765274925	 1.1476539102	 0.082841
H	 0.1634256346	-0.9581122997	 2.064746016	 0.08104
H	-1.852716122	-0.9621663039	 0.9184964499	 0.081044
H	-1.8609277581	-0.9837076516	-0.8884877134	 0.082845
71.3208	85.9149	110.407	201.2874	233.5983	265.3092	268.6044	339.3833	366.095	399.0742	545.1154	546.3496	617.7311	697.5941	753.2931	789.1403	809.1633	927.2099	931.6167	953.0885	960.4829	993.9265	1017.2227	1036.7352	1065.1801	1086.5615	1093.9385	1107.7097	1145.123	1146.0427	1157.388	1178.9534	1206.5532	1207.9416	1251.3849	1253.67	1304.5822	1317.8259	1330.9576	1373.2628	1411.201	1461.8323	1485.1288	1488.8227	1489.9055	1496.2926	1496.9889	1528.3394	1560.754	2965.2792	2991.2731	3023.8954	3025.8916	3029.3141	3029.896	3042.0198	3067.0305	3090.5461	3090.8578	3091.7786	3097.3786	3098.5605	3829.4121
CC12CC(CCO)(C1)C2	C[C@@]12C[C@@](CCO)(C1)C2	
InChI=1S/C8H14O/c1-7-4-8(5-7,6-7)2-3-9/h9H,2-6H2,1H3	InChI=1S/C8H14O/c1-7-4-8(5-7,6-7)2-3-9/h9H,2-6H2,1H3/t7-,8+
