15
gdb 54744	3.33849	1.35725	1.15662	6.2266	66.21	-0.2581	-0.0348	0.2232	1065.8111	0.110462	-457.771991	-457.763905	-457.762961	-457.805282	29.31	
C	 0.1724622234	 1.1856749409	-0.556849007	-0.485648
C	 0.1877628898	-0.1995162756	 0.0562586102	 0.393904
O	 1.1918572611	-0.7175113598	 0.4820672727	-0.285593
C	-1.1412324566	-0.9133347221	 0.084628845	-0.171104
C	-1.3945967535	-2.1712840963	-0.6994543514	 0.079607
O	-0.1894454952	-2.9466395916	-0.8429584512	-0.256991
C	-0.1508875167	-3.1432832571	 0.5469467293	 0.499993
O	 0.5370422714	-3.890633772	 1.15037046	-0.310219
C	-1.350988729	-2.2513671973	 0.8001002914	-0.293465
H	 1.1868340719	 1.5828919205	-0.5976129594	 0.152849
H	-0.2575144036	 1.1537874562	-1.5642347965	 0.145436
H	-0.4594487428	 1.8544080967	 0.0395416133	 0.143814
H	-2.0161861565	-0.2682327123	 0.1302933642	 0.116284
H	-2.1865349532	-2.33892583	-1.4158019498	 0.136404
H	-2.1182274004	-2.4029856901	 1.5450635493	 0.134729
59.9557	119.6451	131.5594	187.3081	249.7596	362.5511	432.6765	467.5981	577.0108	640.1817	709.9573	727.3036	798.5875	828.5092	879.8959	905.3609	920.0542	964.1686	1014.069	1025.8005	1048.0779	1072.1431	1081.8646	1128.3244	1183.4738	1258.537	1314.2977	1379.8987	1414.8193	1462.9813	1474.3226	1814.7798	1966.7547	3034.7303	3095.0215	3142.1672	3157.968	3220.9062	3233.9995
CC(=O)C1C2OC(=O)C12	CC(=O)[C@H]1[C@H]2OC(=O)[C@@H]12	
InChI=1S/C6H6O3/c1-2(7)3-4-5(3)9-6(4)8/h3-5H,1H3	InChI=1S/C6H6O3/c1-2(7)3-4-5(3)9-6(4)8/h3-5H,1H3/t3-,4+,5-/m1/s1
