13
gdb 6250	5.15659	1.16892	1.07456	3.7649	57.39	-0.2737	-0.0945	0.1793	1071.8133	0.092167	-435.765726	-435.757287	-435.756343	-435.799944	27.968	
C	 0.3668773478	 1.0935181454	-0.1397980563	-0.479667
C	-0.5164079037	-0.0606752859	 0.23389021	 0.380873
N	-1.1870280137	-0.2809856947	 1.271739786	-0.425018
O	-0.6747521854	-1.01152171	-0.7950028946	-0.233215
C	 0.3911394518	-1.7453675673	-1.1909503159	 0.357983
O	 1.5018112404	-1.686830126	-0.7485994198	-0.321598
C	-0.0645860879	-2.6921559573	-2.3145324467	 0.087697
O	 0.702902766	-3.4311094401	-2.8598261241	-0.196009
H	 1.3905376188	 0.7425794631	-0.2918601459	 0.182119
H	 0.0214298795	 1.5416136332	-1.0770551278	 0.151521
H	 0.356722866	 1.8522518938	 0.6444390746	 0.136774
H	-1.0666898905	 0.4768192093	 1.9433412672	 0.239121
H	-1.141542849	-2.6261219435	-2.5641994368	 0.11942
47.5267	62.3362	132.9484	158.6903	171.0799	277.3607	368.0329	463.9178	511.2203	552.4474	609.9638	744.799	846.8243	887.1551	956.6412	1000.1251	1017.0856	1061.3099	1079.8183	1194.626	1309.8775	1398.9035	1404.6011	1469.5861	1488.4404	1774.9726	1842.3959	1851.3126	2951.3412	3051.0574	3123.4655	3148.1774	3498.6465
CC(=N)OC(=O)C=O	C[C]([NH])OC(=O)C=O	
InChI=1S/C4H5NO3/c1-3(5)8-4(7)2-6/h2,5H,1H3	InChI=1S/C4H5NO3/c1-3(5)8-4(7)2-6/h2,5H,1H3
