12
gdb 132681	3.14156	1.3446	0.94159	3.851	60.59	-0.2373	-0.0366	0.2006	1087.9841	0.076844	-521.925487	-521.918501	-521.917557	-521.956983	26.53	
O	 0.085418115	 1.3593274826	-0.1113444558	-0.436124
C	 0.0645383909	 0.0033615657	-0.0277515824	 0.361018
C	 0.0187341096	-0.7287901269	-1.2141521895	-0.061692
N	-0.0046048102	-2.0633269013	-1.2325391458	-0.301655
C	 0.0160398002	-2.7145581387	-0.0997171593	 0.210804
F	-0.0078145371	-4.0432023794	-0.136596443	-0.057774
C	 0.0617172208	-2.0771979474	 1.1405953634	 0.140687
F	 0.0809660745	-2.7897100239	 2.2633447375	-0.053395
C	 0.0865237714	-0.6958309804	 1.1824924125	-0.35813
H	 0.1166134461	 1.7410196257	 0.7718802887	 0.304991
H	 0.0008665044	-0.2108702536	-2.1674591313	 0.130151
H	 0.1220768444	-0.1919615523	 2.1429288749	 0.121117
145.5805	237.7067	285.9015	318.8011	342.6989	406.2274	479.6625	488.2315	509.0298	612.2734	638.5848	728.0269	747.9706	814.6838	883.26	923.5382	1008.3163	1180.7296	1190.5786	1231.3643	1315.6151	1333.2428	1384.7928	1491.3225	1533.2612	1640.6293	1656.4438	3187.1744	3187.5495	3827.3092
OC1=CN=C(F)C(F)=C1	Oc1cnc(F)c(F)c1	
InChI=1S/C5H3F2NO/c6-4-1-3(9)2-8-5(4)7/h1-2,9H	InChI=1S/C5H3F2NO/c6-4-1-3(9)2-8-5(4)7/h1-2,9H
