18
gdb 28273	4.92355	1.18557	0.96686	1.3879	88.73	-0.1816	0.0162	0.1978	1209.6648	0.150123	-364.865841	-364.858225	-364.857281	-364.897528	30.366	
C	-0.020442309	 1.477314972	 0.0468472661	-0.485298
C	-0.0001357508	-0.0159268138	-0.0168541927	 0.301636
C	-0.0329626717	-0.7893324305	-1.1228300014	-0.328644
C	 0.0042779468	-2.1945423653	-0.742703718	 0.303138
C	 0.0043197939	-3.4773358977	-1.2359608504	-0.251192
N	 0.0613667583	-4.3174665951	-0.1413570918	-0.242808
C	 0.0978000144	-3.5914048399	 1.0342704411	-0.235416
C	 0.0631373453	-2.2693438092	 0.6833845998	 0.243031
C	 0.0643673306	-0.8756990633	 1.2474605489	-0.471279
H	 0.8744407355	 1.8732084363	 0.5455499606	 0.120669
H	-0.0696174047	 1.9178944473	-0.9529892982	 0.12094
H	-0.88159973	 1.8461403835	 0.6200710818	 0.120625
H	-0.0799271719	-0.413748264	-2.1383519819	 0.085811
H	-0.0298781868	-3.8763216815	-2.2367025877	 0.11523
H	 0.0748287997	-5.3205391448	-0.1920783047	 0.256088
H	 0.1440799097	-4.0943031895	 1.9871341653	 0.115128
H	 0.9628957411	-0.6445239919	 1.8365168244	 0.11617
H	-0.7904123003	-0.6716805227	 1.9073912188	 0.116172
132.422	170.6111	255.0759	267.7409	311.8601	421.3731	457.3206	475.8225	523.2045	616.9301	673.902	711.2523	713.1629	744.0826	794.1968	857.5798	865.8207	934.5726	943.1547	1006.805	1056.9606	1061.9883	1096.8365	1156.0839	1159.1801	1175.5886	1208.8218	1288.7317	1300.8876	1327.9043	1405.8614	1416.0262	1456.8662	1461.4797	1477.0802	1488.8971	1572.9304	1632.3642	1667.1293	3006.0745	3011.8057	3032.427	3048.722	3104.5017	3197.99	3255.9685	3262.2981	3688.1195
CC1=CC2=CNC=C2C1	CC1=Cc2c[nH]cc2C1	
InChI=1S/C8H9N/c1-6-2-7-4-9-5-8(7)3-6/h2,4-5,9H,3H2,1H3	InChI=1S/C8H9N/c1-6-2-7-4-9-5-8(7)3-6/h2,4-5,9H,3H2,1H3
