20
gdb 68309	3.14354	1.27438	1.14719	2.0465	79.55	-0.2248	0.0846	0.3094	1154.473	0.17141	-403.059282	-403.051196	-403.050251	-403.092118	32.08	
O	 0.3755274654	 1.2837526918	 0.2234992408	-0.474724
C	 0.1335072818	-0.0626319253	 0.0540499248	 0.395547
C	 0.6447754302	-0.9086540947	-1.1314890398	-0.266395
C	-0.1798286061	-1.8868162867	-0.2383426269	-0.094376
C	 0.534544136	-1.2515715451	 0.9921046881	-0.295069
C	-1.2509459262	-0.7477058132	-0.1492602122	 0.00898
N	-2.2172262589	-0.6281306996	 0.9309494558	-0.114279
C	-3.5346495093	-1.220761837	 0.7225804233	-0.224147
C	-2.5928761105	-1.8093573769	 1.708306047	-0.217331
H	-0.2469315888	 1.6026910783	 0.888047427	 0.288967
H	 0.2378337579	-0.6736361352	-2.1188426066	 0.091307
H	 1.7206348135	-1.0920519696	-1.1661662733	 0.097732
H	-0.3423029299	-2.9455052755	-0.4277721623	 0.077801
H	 1.6055686221	-1.4510409885	 1.0819012292	 0.09137
H	 0.0318431553	-1.3174639737	 1.9573361342	 0.102074
H	-1.7377972411	-0.4940733009	-1.0972547257	 0.069758
H	-4.380059896	-0.6216566757	 1.0502836004	 0.115229
H	-3.701624704	-1.7783716933	-0.197870687	 0.110832
H	-2.1335646725	-2.7602730295	 1.4491407398	 0.120004
H	-2.7315559489	-1.6473127596	 2.7740338234	 0.11672
56.7163	139.0269	206.9452	257.3692	322.3599	351.5544	403.4206	480.6702	521.1514	598.1056	665.313	749.3093	799.2167	813.3734	852.1677	901.9173	907.5945	934.3908	953.8661	964.3029	1020.273	1027.608	1041.7395	1085.3573	1103.7549	1114.6025	1124.5932	1126.7523	1130.1701	1163.0055	1179.3073	1185.7744	1197.9782	1220.3976	1229.2931	1303.256	1332.0247	1385.5129	1407.4681	1493.5986	1497.0262	1519.9582	1543.8823	3045.2292	3057.0643	3067.1633	3091.7537	3104.2046	3126.2088	3138.7716	3141.0475	3173.8124	3191.6639	3791.353
OC12CC(C1)C2N1CC1	O[C@@]12C[C@@H](C1)[C@H]2N1CC1	
InChI=1S/C7H11NO/c9-7-3-5(4-7)6(7)8-1-2-8/h5-6,9H,1-4H2	InChI=1S/C7H11NO/c9-7-3-5(4-7)6(7)8-1-2-8/h5-6,9H,1-4H2/t5-,6-,7-/m1/s1
