13
gdb 29094	3.10668	1.49016	1.01344	5.563	63.69	-0.255	-0.077	0.178	1084.2615	0.087975	-493.758497	-493.750757	-493.749813	-493.79122	27.903	
C	 0.0392208503	 1.5330491006	 0.1859187362	-0.469997
C	-0.0778564813	 0.0560488054	 0.0348165377	 0.297475
C	-1.1406721419	-0.6104537254	-0.4035656261	-0.080977
O	-1.1799597688	-1.9808555341	-0.5184286289	-0.191762
C	-0.0970626543	-2.7274526119	-0.174747596	 0.311681
O	-0.1165497885	-3.9149739109	-0.2677305696	-0.272698
C	 1.1455260135	-1.9735254993	 0.3355462422	 0.295106
O	 2.139181561	-2.5448664343	 0.6582838638	-0.26956
O	 1.0715843879	-0.6143507214	 0.4068839963	-0.224818
H	 0.8596974131	 1.9195012074	-0.4279751556	 0.153927
H	-0.8872579656	 2.0240173097	-0.1175867049	 0.142978
H	 0.2535106884	 1.7983392842	 1.2266272188	 0.153919
H	-2.0650392237	-0.1446854302	-0.7080726638	 0.154726
71.3679	122.9265	185.7389	285.9474	305.0724	357.2026	455.3157	460.381	506.8969	570.0357	606.8184	653.0952	797.9709	802.7458	810.0201	999.7143	1010.1441	1069.5013	1079.7363	1168.0707	1239.5908	1266.5847	1366.0408	1422.5417	1466.2419	1488.4327	1760.992	1865.227	1883.3318	3040.5281	3097.7414	3139.5719	3261.0714
CC1=COC(=O)C(=O)O1	Cc1coc(=O)c(=O)o1	
InChI=1S/C5H4O4/c1-3-2-8-4(6)5(7)9-3/h2H,1H3	InChI=1S/C5H4O4/c1-3-2-8-4(6)5(7)9-3/h2H,1H3
