17
gdb 127723	3.30321	1.3956	0.99314	1.8498	82.07	-0.2257	-0.0609	0.1648	1176.8161	0.136499	-414.181969	-414.173584	-414.172639	-414.214883	31.153	
C	-0.1138364461	 1.4138862855	 0.0019166936	-0.307208
N	-0.0605774613	-0.0407122335	 0.0519151218	-0.042336
N	-0.2133956183	-0.6612417371	-1.1226018112	-0.061351
N	-0.1849935177	-1.9312767129	-1.200484365	-0.28235
C	 0.0086406691	-2.6880889897	-0.0464401336	 0.368257
C	 0.0202625825	-4.1671237466	-0.2847585194	-0.458401
C	 0.1680088908	-2.1100448704	 1.1652667535	-0.277748
C	 0.1412951807	-0.6720838557	 1.2956372436	 0.419438
N	 0.2689165416	 0.0743849395	 2.3310640297	-0.567165
H	 0.8199562517	 1.8302468099	 0.3870067482	 0.155815
H	-0.2722744796	 1.6971318026	-1.0372794552	 0.148413
H	-0.9255089541	 1.7753242207	 0.6377605413	 0.155663
H	 0.8131822984	-4.4284768202	-0.9931285319	 0.149976
H	 0.1741005092	-4.722536084	 0.6425842178	 0.125568
H	-0.9248542536	-4.4834950684	-0.7380044721	 0.149991
H	 0.3180035545	-2.7012018108	 2.0623211996	 0.10972
H	 0.4085871521	-0.5017448188	 3.1597375793	 0.213716
112.397	125.0288	166.3198	195.0863	277.442	300.6405	343.1668	433.9313	468.6935	515.2059	593.3275	632.9098	753.9884	756.9473	785.4456	797.7344	893.3507	952.2412	1040.3209	1044.5242	1065.7876	1102.4549	1153.6001	1171.7482	1249.852	1288.1212	1355.6385	1378.2012	1416.605	1433.0924	1468.023	1470.9472	1481.4575	1503.0323	1511.2835	1636.9894	1710.9817	3043.2561	3061.7149	3102.0588	3126.8919	3135.6396	3178.4331	3188.5593	3493.0139
CN1N=NC(C)=CC1=N	Cn1nnc(C)cc1[NH]	
InChI=1S/C5H8N4/c1-4-3-5(6)9(2)8-7-4/h3,6H,1-2H3	InChI=1S/C5H13N4/c1-4-3-5(6)9(2)8-7-4/h4-8H,3H2,1-2H3
