19
gdb 12099	3.26181	1.73281	1.52426	1.5753	71.35	-0.2223	0.0893	0.3116	936.4523	0.164039	-365.009487	-365.001077	-365.000133	-365.041937	31.62	
C	-0.2279217281	 1.4458230292	-0.1414701066	-0.328175
N	 0.0056987764	 0.0148778488	 0.0345660836	-0.095576
C	 1.369660622	-0.4664418306	-0.1679446505	-0.259629
C	 0.7698594546	-0.4580761736	 1.1932610427	-0.061253
C	 1.2925821726	 0.4504624245	 2.276727762	 0.391129
C	 0.2794535736	 0.8874290762	 3.3133347592	-0.462784
C	 2.7173044009	 0.363808646	 2.6426817096	-0.224226
O	 2.2250533855	 1.4632988527	 1.8711745236	-0.267986
H	 0.5967960156	 2.087080212	 0.1953659308	 0.135189
H	-0.4014703345	 1.6345839152	-1.2058173606	 0.120186
H	-1.1376379395	 1.7306450462	 0.3977721298	 0.117574
H	 1.4718661672	-1.3958089607	-0.7227053401	 0.109278
H	 2.1435001745	 0.2760622803	-0.3531626758	 0.123236
H	 0.3833887439	-1.3945675521	 1.5970801372	 0.089659
H	-0.1686713076	 0.0168420855	 3.803944197	 0.124814
H	 0.751310504	 1.5132951517	 4.0748208999	 0.126326
H	-0.52885885	 1.4603873221	 2.8489898855	 0.133866
H	 3.0285634702	 0.612699482	 3.6562844741	 0.113086
H	 3.3692187386	-0.3249506954	 2.1081200983	 0.115288
88.0352	173.3411	192.047	207.4329	238.4779	323.8861	345.1128	373.9417	397.8338	501.1624	562.4775	699.1137	769.3579	830.7076	866.7449	921.0271	925.1292	993.0238	1026.5658	1057.0023	1089.4011	1107.5263	1134.1691	1134.621	1144.0971	1166.4117	1181.7337	1210.203	1246.2496	1325.8285	1382.1671	1415.4245	1415.6039	1448.7841	1481.5563	1494.8998	1496.5294	1506.483	1509.1312	1526.1138	3013.507	3040.4861	3081.5325	3084.4484	3094.2013	3095.9167	3097.064	3107.4379	3124.8501	3173.4623	3182.7331
CN1CC1C1(C)CO1	CN1C[C@H]1[C@@]1(C)CO1	
InChI=1S/C6H11NO/c1-6(4-8-6)5-3-7(5)2/h5H,3-4H2,1-2H3	InChI=1S/C6H11NO/c1-6(4-8-6)5-3-7(5)2/h5H,3-4H2,1-2H3/t5-,6+,7?/m0/s1
