19
gdb 111330	2.50898	1.40767	1.06509	0.6746	75.03	-0.2521	0.0719	0.3241	1187.4227	0.157637	-422.960858	-422.952352	-422.951408	-422.9942	32.127	
C	 0.0899125971	 1.6243377014	 0.0464834938	-0.383802
C	-0.0527074985	 0.0989807286	 0.016810767	-0.197145
C	 0.6255950448	-0.5405770628	-1.188452886	-0.111568
C	 2.172585114	-0.5899422855	-1.2108170574	 0.021748
O	 2.5868585318	-1.4254601177	-0.1224723761	-0.242213
C	 2.1875115282	-2.0561704074	-1.3508292457	-0.095754
C	 0.6678114599	-2.0897113082	-1.3180759737	 0.428923
C	-0.2486409272	-3.1426125785	-0.8908312956	-0.263133
O	-0.1035783345	-2.782770998	-2.2783563426	-0.278585
H	 1.1426914027	 1.9239672926	 0.087525504	 0.120101
H	-0.3518297428	 2.083628935	-0.8449678383	 0.114727
H	-0.4083512777	 2.0504487534	 0.9223781487	 0.116243
H	 0.3754258426	-0.3361277668	 0.9264183054	 0.114432
H	-1.1165983311	-0.1701295402	 0.009829857	 0.09833
H	 0.2418017904	-0.1304099431	-2.1303768523	 0.092782
H	 2.8785322745	 0.1506172415	-1.5673120396	 0.109045
H	 2.8859284603	-2.727876454	-1.8356520327	 0.115897
H	 0.1383864812	-4.1235453031	-0.6193252581	 0.12014
H	-1.2059210157	-2.8787968072	-0.4442771178	 0.119831
83.4631	119.5971	153.6263	205.2312	266.2463	272.6225	313.3448	439.373	497.6339	563.5717	627.463	755.7411	799.6978	839.2364	858.4232	873.9981	895.0395	911.177	951.7647	982.564	999.4079	1045.5702	1068.7544	1099.3855	1118.6014	1143.5886	1151.0368	1173.7311	1207.0293	1223.1218	1261.5126	1281.477	1340.5765	1369.4113	1386.5816	1412.9852	1444.3238	1487.4025	1500.7524	1505.402	1537.183	3027.1223	3031.3279	3045.4949	3071.4174	3086.177	3100.0794	3105.5712	3173.7543	3185.6255	3200.3395
CCC1C2OC2C11CO1	CC[C@H]1[C@H]2O[C@H]2[C@]21CO2	
InChI=1S/C7H10O2/c1-2-4-5-6(9-5)7(4)3-8-7/h4-6H,2-3H2,1H3	InChI=1S/C7H10O2/c1-2-4-5-6(9-5)7(4)3-8-7/h4-6H,2-3H2,1H3/t4-,5+,6+,7+/m0/s1
