21
gdb 113266	4.17025	0.75235	0.7062	1.969	80.43	-0.2427	-0.024	0.2187	1659.6992	0.1789	-424.223017	-424.212466	-424.211521	-424.259448	37.692	
C	-0.1821512571	 1.5514204008	-0.5253476119	-0.373133
C	-0.0313077789	 0.1937225706	 0.1696817709	-0.195322
C	-1.3463459365	-0.5471579859	 0.2978306872	-0.031932
C	-1.9029360933	-1.3391442615	-0.8741843377	-0.356651
C	-1.3982437527	-2.0511651425	 0.3575253454	 0.354353
O	-0.1611843922	-2.7175078649	 0.2802388058	-0.464031
C	-2.3853896267	-2.7223314241	 1.3063172796	-0.322618
C	-2.8503037497	-4.0679008609	 0.7952473621	 0.158406
O	-4.0016767824	-4.403417937	 0.6857538908	-0.238323
H	 0.78121788	 2.0656216058	-0.5982842246	 0.112124
H	-0.579568284	 1.4342729617	-1.5390658373	 0.116051
H	-0.8680470529	 2.20616064	 0.0236331656	 0.113014
H	 0.6804694822	-0.4345089171	-0.3741376979	 0.106699
H	 0.3968478685	 0.3385550167	 1.1698078875	 0.099475
H	-2.0895124528	-0.0380469699	 0.908112281	 0.085828
H	-2.9696886212	-1.3234848353	-1.0712322433	 0.121642
H	-1.2809338416	-1.3989289998	-1.762523137	 0.111682
H	-0.1995522115	-3.3499855299	-0.4438793445	 0.287753
H	-1.8747653427	-2.8818843322	 2.2664432906	 0.129146
H	-3.2642142381	-2.0956024068	 1.4782460223	 0.119247
H	-2.0255643463	-4.7620357178	 0.5096593855	 0.066591
48.0659	67.7734	79.7401	143.904	165.5665	225.9556	242.9465	284.4307	300.4639	357.1287	391.9901	457.1131	491.3339	619.6262	693.3507	778.3379	808.3427	843.6393	893.87	912.8916	954.8179	967.5553	1024.3494	1047.8977	1058.12	1075.3962	1105.7218	1131.4524	1189.3642	1200.1575	1231.8773	1288.8496	1297.846	1309.3553	1338.9428	1361.64	1411.9039	1423.9286	1429.0304	1448.1117	1482.4924	1491.8928	1498.7998	1508.1994	1834.3034	2857.7862	3020.1049	3028.8635	3031.3276	3078.2029	3101.7639	3104.3649	3107.2214	3122.5595	3130.0549	3210.7856	3816.5713
CCC1CC1(O)CC=O	CC[C@H]1C[C@]1(O)CC=O	
InChI=1S/C7H12O2/c1-2-6-5-7(6,9)3-4-8/h4,6,9H,2-3,5H2,1H3	InChI=1S/C7H12O2/c1-2-6-5-7(6,9)3-4-8/h4,6,9H,2-3,5H2,1H3/t6-,7+/m0/s1
