13
gdb 5034	3.60478	2.27151	1.39345	4.8714	68.65	-0.1837	-0.0473	0.1364	811.5353	0.097043	-398.628657	-398.622157	-398.621213	-398.659028	25.228	
O	 0.1957834444	 0.0952634346	 0.2017949259	-0.483327
C	 0.0424858657	 1.3287543411	 0.0690193055	 0.25249
C	-1.1661951562	 2.0317082291	-0.0241529595	-0.10162
O	-1.2431885637	 3.3765762923	-0.1679156105	-0.134068
C	-0.1588798887	 4.1232133458	-0.2304010464	 0.072736
C	 1.0995538783	 3.5843915723	-0.1539613315	-0.270094
C	 1.2336994036	 2.1985570572	-0.0049476909	 0.278982
N	 2.3733668828	 1.5136074538	 0.0852901787	-0.547636
H	 3.2872879318	 1.9270486279	 0.0552696363	 0.265056
H	 2.2280049565	 0.5116613094	 0.1892651185	 0.281557
H	-2.1403842056	 1.5673447032	 0.0099513457	 0.136952
H	-0.3800336053	 5.1754509927	-0.3453506024	 0.142595
H	 1.9602545465	 4.2414033806	-0.2103850792	 0.106377
161.6657	280.6934	285.1535	320.3438	444.1004	452.0846	544.809	575.3844	595.9838	695.0206	766.2377	775.9784	784.177	808.873	873.352	889.0726	1017.5451	1069.7763	1159.1764	1261.9899	1355.2711	1373.7947	1408.6212	1410.1637	1525.849	1575.5323	1637.3506	1674.9521	3189.3699	3236.3956	3250.7797	3475.5884	3721.7138
[O-]C1=COC=CC1=[NH2+]	O=C1[CH]OC=C[C]1N	
InChI=1S/C5H5NO2/c6-4-1-2-8-3-5(4)7/h1-3,6-7H	InChI=1S/C5H5NO2/c6-4-1-2-8-3-5(4)7/h1-3H,6H2
