18
gdb 56988	2.96628	1.19945	0.95499	2.3284	75.49	-0.2455	0.0205	0.2661	1229.4133	0.149185	-398.081317	-398.072831	-398.071887	-398.114884	31.65	
N	-0.1435363302	 1.4218090356	 0.0601704642	-0.49852
C	 0.0099662844	-0.0259544922	-0.094171117	-0.156226
C	 0.759921389	-0.4171893771	-1.309482997	 0.259485
N	 1.366378836	-0.682593837	-2.2578545347	-0.323604
C	 0.6899820359	-0.6077209778	 1.152174514	 0.0284
C	-0.0572443631	-0.5573051866	 2.5094811458	-0.190463
N	 0.1485892037	-2.0340444963	 2.741764033	-0.124746
C	-0.5744309575	-2.7011044517	 1.6485767973	-0.236378
C	 0.7486851274	-2.1207931085	 1.3423887207	-0.050813
H	 0.7706891909	 1.8659918224	 0.0765999855	 0.24226
H	-0.6382625077	 1.8113538792	-0.7366899509	 0.246559
H	-0.9947461696	-0.4542057649	-0.1820340149	 0.127563
H	 1.6874180262	-0.1670843582	 1.2409312568	 0.096339
H	 0.4530335233	 0.0252654322	 3.2769910487	 0.11925
H	-1.1096969974	-0.2580469869	 2.4744319584	 0.112818
H	-0.6205743569	-3.779352378	 1.7653640594	 0.128973
H	-1.4894501157	-2.2516615265	 1.266826124	 0.110437
H	 1.6145385413	-2.7392496777	 1.1322493867	 0.108667
60.0674	118.2336	148.6922	213.2493	264.1117	284.4281	395.1017	404.0721	484.0782	540.6666	602.7457	739.1936	754.316	788.9395	837.0588	870.9496	943.6015	965.5072	983.8175	1011.7809	1049.2033	1070.4912	1077.5294	1110.6359	1121.6913	1143.0892	1187.6857	1209.3142	1236.9283	1264.2873	1291.3874	1310.1552	1374.9923	1383.2641	1396.4493	1493.4519	1510.1679	1663.5109	2342.1311	3050.027	3055.3485	3069.4891	3101.1683	3127.6806	3171.1436	3197.1387	3492.8982	3572.6417
NC(C#N)C1CN2CC12	N[C@@H](C#N)[C@H]1CN2C[C@@H]12	
InChI=1S/C6H9N3/c7-1-5(8)4-2-9-3-6(4)9/h4-6H,2-3,8H2	InChI=1S/C6H9N3/c7-1-5(8)4-2-9-3-6(4)9/h4-6H,2-3,8H2/t4-,5+,6+,9?/m1/s1
