15
gdb 130948	6.50776	0.6992	0.66441	2.9422	67.78	-0.2588	-0.0337	0.2251	1585.196	0.112145	-453.955357	-453.947169	-453.946225	-453.990024	27.886	
O	-0.4766335163	 0.4885873318	 0.6444006892	-0.230126
C	 0.0842091073	 0.9875906237	-0.2948951613	 0.159484
C	 1.3569133559	 1.8014277049	-0.2127090279	-0.276896
C	 1.2293968229	 3.1413060215	-0.9655138552	-0.327431
C	 2.5406825691	 3.84517307	-1.0789508581	 0.381759
N	 2.7424366009	 5.0440732398	-0.5991808096	-0.172079
O	 4.0815973351	 5.3063994194	-0.9236528089	-0.149657
C	 4.5238078433	 4.2240337423	-1.5612769659	 0.110188
N	 3.6442227545	 3.285123517	-1.6969605348	-0.306652
H	-0.3136441718	 0.8681094664	-1.3311316219	 0.07414
H	 1.6176900852	 1.9503467586	 0.8381285146	 0.135105
H	 2.1560298678	 1.2138315984	-0.6852132044	 0.14992
H	 0.8505014483	 2.9529655294	-1.9779920294	 0.135181
H	 0.5185416867	 3.8036882198	-0.4650782756	 0.146568
H	 5.5505163113	 4.2346225972	-1.8971494808	 0.170498
49.0568	69.7737	79.0693	128.8265	280.3117	320.5404	371.801	517.4758	633.0615	699.1351	749.8118	799.7977	852.8532	908.7142	908.9792	983.4933	996.8718	1007.6968	1076.2109	1094.7333	1150.9307	1194.4443	1264.6579	1297.7475	1303.0184	1357.5163	1381.2662	1430.6471	1462.0531	1479.8792	1525.5211	1606.4095	1841.8061	2848.0565	3029.4521	3037.6237	3102.4222	3117.8133	3266.5515
O=CCCC1=NOC=N1	O=CCCc1nocn1	
InChI=1S/C5H6N2O2/c8-3-1-2-5-6-4-9-7-5/h3-4H,1-2H2	InChI=1S/C5H6N2O2/c8-3-1-2-5-6-4-9-7-5/h3-4H,1-2H2
