17
gdb 6724	5.56704	0.94757	0.85619	4.3079	70.28	-0.2406	-0.027	0.2136	1365.2259	0.138416	-401.008601	-400.9991	-400.998156	-401.04378	31.998	
C	-0.4580153053	 0.7580557172	 0.19259458	-0.313487
N	 0.7910243556	 0.142384148	-0.2019514642	-0.210736
C	 0.7342165662	-0.8073219725	-1.0195286804	 0.153136
O	 1.8740053387	-1.4061553999	-1.4467805481	-0.186522
C	 1.7219186453	-2.5051589791	-2.3093168085	-0.197349
C	 1.1888987488	-3.7638664956	-1.6143697901	 0.37119
C	 1.3406193956	-5.0524156561	-2.3981031007	-0.481932
O	 0.6750148106	-3.7081200851	-0.5249255443	-0.272581
H	-0.4298776909	 1.8289366403	-0.0393468438	 0.125189
H	-1.3472085971	 0.3221735655	-0.2920564503	 0.095143
H	-0.582882037	 0.67057556	 1.2778176876	 0.130274
H	-0.1868408375	-1.2098237806	-1.4654560898	 0.075305
H	 1.0501952221	-2.27689985	-3.1537338803	 0.126314
H	 2.7093158695	-2.7059090791	-2.7366866697	 0.14072
H	 1.0475164915	-4.9193141211	-3.4451580176	 0.138404
H	 2.3937753986	-5.3578216861	-2.3965999104	 0.153268
H	 0.7409525253	-5.8383208659	-1.9380311894	 0.153664
54.5985	68.7801	103.1621	116.4026	201.0085	225.7091	254.825	313.1392	351.086	447.4492	468.9197	539.6553	662.1853	798.9583	860.7106	961.2002	970.4793	1051.8021	1066.1461	1106.7701	1141.8784	1162.4457	1177.3303	1235.406	1311.077	1379.3436	1388.0146	1410.1369	1450.8132	1459.9691	1469.6884	1475.231	1481.2223	1505.6196	1785.3505	1831.9648	2967.148	2977.3352	3011.8348	3036.4533	3058.1274	3078.1131	3086.9195	3097.7882	3155.4251
CN=COCC(C)=O	CN=COCC(=O)C	
InChI=1S/C5H9NO2/c1-5(7)3-8-4-6-2/h4H,3H2,1-2H3	InChI=1S/C5H9NO2/c1-5(7)3-8-4-6-2/h4H,3H2,1-2H3
