21
gdb 126184	2.8537	1.19451	0.91584	2.3386	86.47	-0.2188	0.034	0.2528	1358.807	0.182406	-383.31816	-383.307988	-383.307044	-383.353886	36.281	
C	 0.0366476797	 1.5992720967	 0.2296528824	-0.365089
C	-0.0051988773	 0.0732264035	 0.026901036	-0.30286
C	-1.3921406835	-0.4760290016	-0.1003875434	 0.299167
C	-2.1874589509	-0.7462674773	-1.2015581226	 0.05749
C	-1.8456819998	-0.58545579	-2.6508937099	-0.515383
C	-3.4143197803	-1.2151940858	-0.6563991308	 0.286266
C	-4.6358574334	-1.6571423434	-1.3979186548	-0.49377
N	-3.383625577	-1.2342728562	 0.6736989477	-0.295659
N	-2.1529499046	-0.7790401223	 0.9860080719	-0.268036
H	 1.0686207603	 1.9520144326	 0.3221206198	 0.114455
H	-0.4281933801	 2.1168473821	-0.6145054895	 0.127234
H	-0.5045896166	 1.8913343338	 1.1349800454	 0.118373
H	 0.5617751193	-0.1898329616	-0.8721675167	 0.117436
H	 0.508605067	-0.4197478394	 0.8622527905	 0.104859
H	-2.0645371571	-1.4963429233	-3.2203013508	 0.125698
H	-2.4144373976	 0.226244826	-3.1217659358	 0.125752
H	-0.7844097457	-0.3597774143	-2.7919540649	 0.118115
H	-4.4142581207	-2.484214624	-2.0828228955	 0.122403
H	-5.3992459511	-1.9906814834	-0.6918539397	 0.137919
H	-5.0574992467	-0.8456511066	-2.0029165845	 0.122675
H	-1.8855275439	-0.7232228454	 1.9539108351	 0.262955
43.3105	85.6773	110.4506	125.7861	197.6003	225.2705	240.5059	287.9339	294.8336	398.074	463.7081	489.1837	575.2825	685.4023	701.713	724.4194	750.8006	788.9385	951.5603	976.1451	1004.388	1050.3896	1056.6173	1075.168	1081.5317	1128.1751	1185.1996	1228.2448	1259.671	1330.4744	1352.904	1404.6292	1409.2487	1421.5129	1430.322	1477.5478	1480.2163	1480.6937	1487.0552	1495.555	1501.3104	1504.7463	1509.8385	1520.0649	1629.8006	3019.4902	3025.5214	3026.4047	3037.748	3065.527	3071.3248	3073.0595	3099.7995	3109.3643	3115.968	3129.7994	3670.9485
CCC1=C(C)C(C)=NN1	CCc1c(C)c(C)n[nH]1	
InChI=1S/C7H12N2/c1-4-7-5(2)6(3)8-9-7/h4H2,1-3H3,(H,8,9)	InChI=1S/C7H12N2/c1-4-7-5(2)6(3)8-9-7/h4H2,1-3H3,(H,8,9)
