16
gdb 48160	3.61328	0.8519	0.76668	0.6943	68.22	-0.2592	-0.0848	0.1744	1453.468	0.123432	-475.028877	-475.020117	-475.019172	-475.064027	30.117	
O	-0.6979919961	 1.2961764227	-0.3927546449	-0.245839
C	 0.3153896593	 0.9008079298	 0.1235368715	 0.102648
C	 1.5647216622	 1.7686709051	 0.3054105208	 0.302899
O	 2.5602993108	 1.3106129391	 0.8353192011	-0.355155
N	 1.4045992381	 3.024710096	-0.1759008131	-0.316981
C	 2.4239049335	 4.0335706046	-0.1285637359	-0.004564
C	 2.756927346	 4.8121673392	-1.424340541	-0.090762
O	 2.6034294305	 6.0718984937	-0.7436003739	-0.26493
C	 2.0576805903	 5.4318649382	 0.4253383486	-0.090757
H	 0.4452337946	-0.1259968284	 0.5170619476	 0.122352
H	 0.5015296106	 3.2268551859	-0.5852122402	 0.265346
H	 3.2941080849	 3.5860448954	 0.3503454462	 0.13604
H	 3.7613494136	 4.68130752	-1.8403642012	 0.119714
H	 2.0137342456	 4.6770366416	-2.2234439135	 0.100139
H	 0.9750989786	 5.5975158202	 0.524007446	 0.100137
H	 2.5563713977	 5.749209887	 1.3471095318	 0.119713
44.1574	81.1195	81.7587	161.4256	174.1121	258.237	381.7832	390.6749	511.1806	578.9864	635.5191	652.6051	794.5276	883.6973	896.4908	936.6818	1012.8387	1020.0022	1028.6408	1036.8336	1126.7623	1152.2474	1160.6026	1203.4081	1256.1774	1273.3726	1300.3429	1350.9749	1362.2977	1399.1791	1507.4602	1533.7276	1557.6997	1787.9327	1822.5592	2963.7655	2994.2544	3005.1111	3070.8552	3071.4683	3134.7958	3584.1878
O=CC(=O)NC1COC1	O=CC(=O)NC1COC1	
InChI=1S/C5H7NO3/c7-1-5(8)6-4-2-9-3-4/h1,4H,2-3H2,(H,6,8)	InChI=1S/C5H7NO3/c7-1-5(8)6-4-2-9-3-4/h1,4H,2-3H2,(H,6,8)
