14
gdb 125561	3.47963	1.77321	1.18328	5.	68.76	-0.2284	-0.0126	0.2157	964.4516	0.103972	-429.055919	-429.048975	-429.048031	-429.087296	26.012	
C	-0.0158823385	 1.4834872645	 0.0680084921	-0.492459
C	-0.0106645931	-0.0005164653	 0.0148340973	 0.338633
N	-0.0419739137	-0.7563457684	-1.0639300744	-0.265886
N	-0.0243180954	-2.1084835536	-0.7165768189	-0.36305
C	 0.0177062497	-2.0940071826	 0.5880120403	 0.502707
N	 0.0572205698	-2.9205527575	 1.6907126074	-0.412057
C	 0.0885674732	-2.0866505056	 2.7859026709	 0.064152
N	 0.0729693701	-0.8153467477	 2.4864430302	-0.250532
N	 0.0285711395	-0.8352018188	 1.1085719223	-0.025233
H	 0.8824801893	 1.8706809082	 0.5606876103	 0.142486
H	-0.0514738851	 1.865277144	-0.9531866569	 0.159814
H	-0.883282577	 1.8623486821	 0.6191649775	 0.142481
H	 0.0618314033	-3.9249161408	 1.6893951281	 0.294755
H	 0.122969908	-2.4592940885	 3.7977116539	 0.164189
126.7152	185.1639	233.1402	243.8286	379.4347	407.0105	536.1868	639.0641	640.9743	663.8776	716.2214	745.5337	826.5913	855.5814	960.4982	1008.5047	1036.1662	1067.7297	1102.0419	1136.5457	1231.457	1295.6258	1342.6018	1402.0973	1414.0749	1440.8112	1477.2186	1489.3567	1558.6975	1575.1738	1646.4491	3039.0474	3091.6248	3150.3709	3273.435	3699.5951
CC1=NN=C2NC=NN12	Cc1nnc2[nH]cnn12	
InChI=1S/C4H5N5/c1-3-7-8-4-5-2-6-9(3)4/h2H,1H3,(H,5,6,8)	InChI=1S/C4H5N5/c1-3-7-8-4-5-2-6-9(3)4/h2H,1H3,(H,5,6,8)
