16
gdb 81260	2.73597	1.55334	1.28476	5.1492	70.22	-0.2206	-0.0766	0.144	1018.7242	0.124025	-437.86036	-437.852691	-437.851747	-437.892453	29.179	
C	-0.255346876	 1.4070082818	-0.0101472267	-0.329961
N	 0.0651244749	-0.0155530013	 0.0291929356	-0.123084
C	 1.2177351595	-0.4637104019	-0.848698297	-0.126044
C	 2.2220113717	-0.1316459824	 0.2919744398	-0.269661
C	 0.9732360391	-0.4632885207	 1.1583150762	-0.126044
C	 0.8029496396	-1.9668098841	 0.9125253499	 0.369821
O	 0.597141585	-2.8771842057	 1.6583703317	-0.299987
C	 0.9933447267	-1.9671386618	-0.6503553912	 0.36982
O	 0.9725718692	-2.8778318675	-1.4234199946	-0.299986
H	 0.6064378138	 2.0852984286	 0.0946994594	 0.104731
H	-0.7491006829	 1.6266253974	-0.9614030697	 0.136323
H	-0.9630352654	 1.6269927641	 0.7946484805	 0.136323
H	 1.2899318283	-0.0860468039	-1.8666706499	 0.100731
H	 3.1158209034	-0.7548563221	 0.4009914217	 0.124719
H	 2.4998648354	 0.9221226458	 0.3256004935	 0.131569
H	 0.7989438877	-0.0851980763	 2.1636904009	 0.100731
117.569	146.5797	216.927	282.6347	285.7707	303.1514	471.0481	492.1758	514.7424	623.543	691.7172	749.0644	784.1937	788.206	873.0881	900.5739	941.8447	965.9701	994.7494	1089.5803	1111.4849	1137.5552	1152.7003	1181.3852	1199.2983	1228.418	1257.1853	1277.5186	1289.0373	1449.1015	1480.0256	1500.5067	1507.6979	1882.5848	1905.6252	2977.6411	3055.505	3074.2827	3112.9262	3132.9783	3146.9026	3147.2755
CN1C2CC1C(=O)C2=O	CN1[C@H]2C[C@@H]1C(=O)C2=O	
InChI=1S/C6H7NO2/c1-7-3-2-4(7)6(9)5(3)8/h3-4H,2H2,1H3	InChI=1S/C6H7NO2/c1-7-3-2-4(7)6(9)5(3)8/h3-4H,2H2,1H3/t3-,4+
