14
gdb 35439	2.56632	1.41966	1.10773	4.0874	73.61	-0.2572	-0.0116	0.2456	1085.1994	0.099379	-399.475206	-399.467316	-399.466372	-399.507783	29.524	
C	-0.0029166305	-1.219251378	-0.0220727667	-0.383658
C	 0.0130396622	-0.0162457651	-0.0179339898	 0.177348
C	 0.0123051534	 1.4007215377	 0.0070762703	 0.094432
C	 0.2916127864	 2.3049830021	-1.1905538111	-0.34106
C	 1.1307649477	 2.4466247742	 0.0273929359	 0.057955
O	 0.4730872299	 3.2433613438	 1.0155520208	-0.277211
C	-0.5897768492	 2.2673957235	 1.132370469	-0.070794
C	-1.9239638956	 2.8330867521	 0.9234121266	 0.295461
N	-2.9797471661	 3.2681976715	 0.7481145824	-0.318581
H	-0.0157657513	-2.2812142604	-0.029864768	 0.198051
H	 0.7516360635	 1.7797932835	-2.0205144997	 0.144564
H	-0.4136926746	 3.0866784006	-1.4572278403	 0.146831
H	 2.2062780371	 2.3434317851	 0.0940541864	 0.134245
H	-0.5433123329	 1.7674471995	 2.1048113043	 0.142416
94.9704	133.8871	159.3792	218.9029	334.1172	440.4718	451.0947	484.1203	528.515	560.5419	589.4427	659.3173	676.6971	742.8868	833.0615	890.2934	954.0277	974.1947	1002.4964	1019.5136	1045.7048	1091.3448	1094.4611	1197.5732	1221.2526	1279.5612	1353.9709	1385.9312	1473.5004	2238.6863	2360.415	3068.8761	3127.7521	3206.3211	3227.959	3500.9352
C#CC12CC1OC2C#N	C#C[C@]12C[C@H]1O[C@H]2C#N	
InChI=1S/C7H5NO/c1-2-7-3-5(7)9-6(7)4-8/h1,5-6H,3H2	InChI=1S/C7H5NO/c1-2-7-3-5(7)9-6(7)4-8/h1,5-6H,3H2/t5-,6+,7+/m1/s1
