18
gdb 39943	2.95411	1.60089	1.21705	1.6195	78.21	-0.234	0.0115	0.2455	1042.9665	0.149627	-401.914799	-401.907537	-401.906593	-401.946487	29.185	
C	-0.2684467084	 1.4364969138	 0.0112813484	-0.232509
O	 1.0796516135	 0.9814629339	-0.0710862172	-0.293978
C	 0.0236096431	-0.0074411844	 0.0299618347	 0.470375
C	-0.0091572005	-0.761607804	 1.3026735871	-0.117307
C	-0.0965010501	-2.0893716209	 1.3671783477	-0.059951
C	-0.1510973446	-3.0082034722	 0.1769383885	-0.286365
C	-0.2801976803	-2.2879042199	-1.1504256491	-0.024926
N	-1.4973430576	-1.4784126393	-1.3316353078	-0.343307
C	-0.188703248	-0.8058765412	-1.2204485461	-0.159519
H	-0.5393515175	 1.9422248839	 0.9378574657	 0.112314
H	-0.6716607456	 1.8872461809	-0.8954547463	 0.110057
H	 0.0593898557	-0.1680311334	 2.2097833178	 0.089956
H	-0.1130309631	-2.5715835036	 2.3415361894	 0.093486
H	 0.7608103528	-3.622521143	 0.1645295299	 0.114426
H	-0.9833831892	-3.7163010412	 0.2910670598	 0.117683
H	 0.0790752375	-2.8438982529	-2.0136413602	 0.086473
H	-1.7912121598	-1.5005286395	-2.3043327764	 0.232453
H	 0.242542132	-0.3501261968	-2.1082043758	 0.090639
80.2476	217.4558	271.4699	325.8651	345.8293	429.3273	450.5973	531.3826	571.6442	692.1028	736.3947	787.1554	840.8137	851.672	881.2594	908.9681	927.4513	941.0238	982.6493	994.9504	1012.9955	1029.3653	1090.2908	1131.3804	1155.1278	1165.6139	1168.6545	1217.4985	1235.5313	1267.553	1311.4658	1328.3388	1381.7735	1405.1237	1446.6645	1465.2729	1472.9821	1525.2911	1726.5984	3004.6665	3030.3315	3073.3394	3126.6315	3144.242	3151.6536	3159.3745	3176.5927	3506.2504
C1OC11C=CCC2NC12	C1O[C@]21C=CC[C@H]1N[C@@H]21	
InChI=1S/C7H9NO/c1-2-5-6(8-5)7(3-1)4-9-7/h1,3,5-6,8H,2,4H2	InChI=1S/C7H9NO/c1-2-5-6(8-5)7(3-1)4-9-7/h1,3,5-6,8H,2,4H2/t5-,6-,7+/m1/s1
