19
gdb 30663	3.16586	1.25764	0.9815	1.8126	79.11	-0.1904	0.0351	0.2255	1240.2958	0.159817	-419.237824	-419.2287	-419.227756	-419.272274	32.783	
C	-0.0594056849	 1.4966448935	-0.0103673568	-0.384579
C	-0.0258074943	-0.035534428	-0.0023924116	-0.150653
N	-1.343877528	-0.6638913187	 0.0416483597	-0.166462
C	-2.1413497002	-0.7024425095	-1.1715051595	-0.343863
C	-1.9469950029	-0.76655662	 1.2569511527	 0.535109
N	-1.4261730217	-0.5224821183	 2.428881367	-0.382071
C	-2.4469598131	-0.8516026495	 3.3164043569	-0.109319
C	-3.535285945	-1.2643170757	 2.6381241274	-0.063536
O	-3.2278428456	-1.2100801081	 1.2871130668	-0.208652
H	 0.9592253683	 1.8951277214	-0.0530567174	 0.117382
H	-0.6070661659	 1.8842171832	-0.875516875	 0.114003
H	-0.5344376349	 1.8694573284	 0.9007808828	 0.143592
H	 0.4806135895	-0.4114597443	-0.8985626453	 0.100711
H	 0.5301433153	-0.3882831962	 0.8688987331	 0.144526
H	-1.4922805297	-0.9739025744	-2.0086978908	 0.127116
H	-2.922132357	-1.4582702448	-1.0792415308	 0.151663
H	-2.6212445645	 0.2594878982	-1.4043621252	 0.122438
H	-2.3152504379	-0.7590635235	 4.3831558116	 0.116833
H	-4.5268389576	-1.5968779737	 2.8867771144	 0.135764
73.1709	79.6982	120.2472	140.4298	210.449	260.9048	279.8689	380.2043	416.5078	532.6678	609.0566	618.4319	674.981	761.2163	793.6335	861.7122	886.448	931.0682	947.4654	1027.8653	1071.1944	1095.2464	1110.1241	1139.7249	1152.5372	1175.4627	1215.5751	1259.734	1309.0463	1362.6615	1394.3731	1410.1066	1435.5002	1464.0914	1476.6534	1489.3045	1496.9898	1504.7669	1516.5024	1585.6571	1660.7635	2996.0823	3039.6351	3042.5744	3085.0099	3099.9906	3116.1978	3129.6262	3142.6557	3258.0537	3309.4705
CCN(C)C1=NC=CO1	CCN(C)c1ncco1	
InChI=1S/C6H10N2O/c1-3-8(2)6-7-4-5-9-6/h4-5H,3H2,1-2H3	InChI=1S/C6H10N2O/c1-3-8(2)6-7-4-5-9-6/h4-5H,3H2,1-2H3
