18
gdb 69859	2.65016	1.66318	1.1911	4.2966	80.95	-0.2286	0.0177	0.2463	1058.2755	0.147603	-364.766498	-364.758465	-364.757521	-364.79871	31.612	
C	-0.02170859	 1.5293469019	 0.0552755662	-0.501463
C	-0.0008643954	 0.0300728107	 0.0192658438	 0.303325
C	-0.9157869145	-0.8548871141	 0.8175235384	-0.355955
C	 0.5768951649	-0.9695863909	 1.0093423695	-0.10341
C	 1.2990374446	-1.7213088268	-0.1337939606	-0.091287
C	 0.4092213595	-2.2238355585	-1.2210956954	-0.349584
C	 0.7040256266	-0.7356063392	-1.1592688058	 0.139852
C	 1.3826207011	-0.0596919537	-2.2093240758	 0.20176
N	 1.931850954	 0.5073992233	-3.0581037973	-0.364255
H	 0.9629269482	 1.9489946726	-0.1761791364	 0.138773
H	-0.7321340577	 1.9336229497	-0.6754246773	 0.132689
H	-0.3195160763	 1.8849898635	 1.0462670503	 0.120375
H	-1.4175988991	-0.3322326061	 1.6268905732	 0.121078
H	-1.5191870334	-1.6460981044	 0.3873205502	 0.116688
H	 1.0548090871	-0.770158671	 1.9594781397	 0.100313
H	 2.3400868902	-2.0085376187	-0.0722192671	 0.119748
H	 0.9266078493	-2.7309349174	-2.0291417451	 0.141631
H	-0.5893322091	-2.6022247407	-1.0393621604	 0.129721
119.2046	138.0717	206.6509	239.9453	305.8957	366.3823	442.4659	470.6075	524.6689	536.7347	591.6452	617.2502	765.8733	783.1316	847.5184	869.4468	903.6626	920.3056	960.492	965.7249	993.8657	1019.9848	1044.9211	1065.2263	1091.9992	1104.099	1121.2404	1169.5789	1250.5956	1263.0913	1291.371	1338.5933	1391.8559	1423.656	1480.7823	1481.8956	1499.3127	1517.1948	2332.4743	3027.7953	3089.0439	3108.0206	3126.85	3144.6473	3194.9647	3205.3753	3210.2054	3225.7427
CC12CC1C1CC21C#N	C[C@]12C[C@H]1[C@H]1C[C@@]21C#N	
InChI=1S/C8H9N/c1-7-2-5(7)6-3-8(6,7)4-9/h5-6H,2-3H2,1H3	InChI=1S/C8H9N/c1-7-2-5(7)6-3-8(6,7)4-9/h5-6H,2-3H2,1H3/t5-,6+,7-,8-/m0/s1
