21
gdb 96191	2.22362	1.7761	1.13692	0.2328	77.45	-0.2394	0.0676	0.307	1115.6036	0.185252	-424.213672	-424.205703	-424.204759	-424.245863	31.983	
O	 0.0258135248	 1.4343391106	-0.0753222012	-0.431461
C	 0.0300167231	 0.0142167076	 0.0052011457	 0.069477
C	 0.8176372648	-0.4817485225	 1.2259135078	-0.116973
O	 0.6749127648	-1.8799639849	 1.3889126302	-0.240813
C	-0.6556209492	-2.213789349	 1.7550332128	-0.086028
C	-1.6795418217	-1.8693288049	 0.6633318199	-0.040212
C	-3.0084072542	-1.3027458964	 1.2435609941	-0.235961
C	-2.4348138582	 0.1313064987	 1.063686388	-0.227194
C	-1.4154389859	-0.4594877915	 0.0490764059	 0.033147
H	 0.9328363485	 1.7314627326	-0.2023053929	 0.283938
H	 0.5034228783	-0.4255964579	-0.8876821798	 0.068662
H	 1.8883459626	-0.2867697798	 1.0965407241	 0.092534
H	 0.4820806478	 0.0579266272	 2.127281619	 0.092337
H	-0.6557442095	-3.2878296654	 1.9619087043	 0.10673
H	-0.911680558	-1.6957821319	 2.694584467	 0.085043
H	-1.7589750959	-2.6924668131	-0.0513649716	 0.066647
H	-3.853613171	-1.4883763399	 0.5754949486	 0.101415
H	-3.2878321492	-1.620886337	 2.252154986	 0.094427
H	-3.1072249974	 0.9064666704	 0.6925928019	 0.102669
H	-1.9550789148	 0.5041995314	 1.9719482824	 0.106708
H	-1.8424418196	-0.4033929545	-0.9568445521	 0.074907
125.6461	161.123	227.1507	276.8819	312.3012	366.2973	367.604	435.6266	463.1282	564.9345	625.078	670.7392	757.5117	841.184	888.8663	918.4538	941.0987	958.9675	962.4282	983.2642	1022.4417	1066.2453	1092.182	1106.7735	1125.8466	1150.5858	1171.855	1201.5964	1229.3612	1241.9326	1258.8329	1259.9792	1277.3785	1286.3439	1327.1275	1343.763	1354.5798	1363.1143	1406.2844	1419.3852	1438.0172	1486.1942	1494.1058	1500.2588	1512.4514	2960.8136	2962.8139	2975.6468	3051.5701	3052.5983	3061.6545	3066.7134	3074.4757	3086.9314	3101.791	3126.2369	3809.9641
OC1COCC2CCC12	O[C@H]1COC[C@H]2CC[C@@H]12	
InChI=1S/C7H12O2/c8-7-4-9-3-5-1-2-6(5)7/h5-8H,1-4H2	InChI=1S/C7H12O2/c8-7-4-9-3-5-1-2-6(5)7/h5-8H,1-4H2/t5-,6-,7+/m1/s1
