21
gdb 106534	2.12025	1.53917	1.11954	3.0332	83.13	-0.2319	0.0149	0.2468	1204.615	0.181715	-387.069024	-387.05978	-387.058836	-387.103013	34.846	
C	-0.699485153	 1.8533218662	-0.2731374057	-0.38764
C	-0.4843446542	 0.334450234	-0.3139543845	-0.321101
C	-1.7611761784	-0.4380982123	-0.1212585823	 0.202692
C	-3.0881808447	-0.3966278227	-0.9738016647	-0.28745
C	-3.4192731834	-1.4427149412	 0.1433879424	-0.18949
C	-1.962105123	-2.0089346743	-0.0483723885	-0.012379
C	-1.6189073735	-2.8884724129	-1.2438357317	-0.443323
C	-2.7345176192	-0.4300251091	 1.0697789708	 0.430726
O	-2.8735796128	 0.0938468397	 2.1336915459	-0.341369
H	 0.2484750037	 2.3862168802	-0.3908631605	 0.113893
H	-1.3682595913	 2.1798245097	-1.0764043849	 0.116934
H	-1.1448126892	 2.1556043973	 0.6793263444	 0.142785
H	-0.0177163216	 0.0458406874	-1.2648078911	 0.101288
H	 0.2202654107	 0.041831899	 0.4751515965	 0.109271
H	-3.6583888593	 0.5342793115	-0.9653051431	 0.112547
H	-3.0086931955	-0.7954744868	-1.9841642805	 0.108009
H	-4.3414229065	-2.0027670141	 0.2820140812	 0.088806
H	-1.5436312084	-2.457492392	 0.8591725552	 0.08329
H	-2.0127905196	-2.5217020961	-2.1938997621	 0.122506
H	-0.5317654913	-2.974129603	-1.3473398174	 0.12477
H	-2.0129896594	-3.8986653407	-1.0911457693	 0.125235
69.1285	133.3377	156.8198	174.9832	207.2315	226.9527	278.1012	375.5057	404.3554	507.6284	520.398	643.9753	709.519	745.5551	747.4756	791.2346	817.1273	858.3655	913.6592	968.5303	992.8786	1020.7932	1031.6544	1059.9216	1077.4392	1099.3837	1109.2314	1140.2441	1178.1582	1185.6378	1213.4937	1225.2529	1299.9589	1325.1473	1381.598	1407.2419	1413.1458	1423.0945	1482.1493	1493.5156	1496.1572	1501.0894	1509.6828	1529.698	1904.0365	3017.1831	3037.2744	3038.8314	3045.7537	3049.4764	3081.9049	3095.2574	3106.8021	3117.6482	3123.3035	3145.8903	3153.6657
CCC12CC(C1C)C2=O	CC[C@@]12C[C@@H]([C@H]1C)C2=O	
InChI=1S/C8H12O/c1-3-8-4-6(5(8)2)7(8)9/h5-6H,3-4H2,1-2H3	InChI=1S/C8H12O/c1-3-8-4-6(5(8)2)7(8)9/h5-6H,3-4H2,1-2H3/t5-,6+,8-/m1/s1
