18
gdb 51164	4.31283	1.02247	0.9252	2.9722	77.54	-0.2361	-0.0255	0.2106	1271.2394	0.147495	-401.936754	-401.92857	-401.927626	-401.970552	30.625	
O	 0.5712368629	-0.2626884447	-0.2356882569	-0.23741
C	 0.2054101644	 0.8837397173	-0.2546461826	 0.170315
C	 1.086167864	 2.0682124466	 0.0995024838	-0.397544
C	 1.1502341314	 3.0792625134	-1.026955429	 0.300402
N	 1.8687176762	 2.7219785786	-2.288378187	-0.363482
C	 2.3877349099	 3.80819973	-1.4287585641	-0.101596
C	 1.9943486641	 5.2051555754	-1.8963483342	-0.26404
C	 0.482630973	 5.1861223481	-1.7852705501	-0.071951
C	 0.024395834	 4.0342694786	-1.2926673306	-0.11567
H	-0.8349037193	 1.147869501	-0.5527934085	 0.080932
H	 0.6673568502	 2.5482255751	 0.9953605501	 0.127089
H	 2.0807471002	 1.6864341105	 0.3494479578	 0.119295
H	 2.4285884364	 1.8862082372	-2.1182756203	 0.230662
H	 3.3281242652	 3.6532566411	-0.9099871549	 0.090929
H	 2.4399333592	 5.9844129617	-1.2644753267	 0.108371
H	 2.3264377769	 5.3948449933	-2.9239481692	 0.125374
H	-0.1333766467	 6.0179789638	-2.1075319155	 0.100414
H	-1.017926542	 3.7875208531	-1.128033812	 0.097912
40.1965	73.1482	151.7325	258.433	283.3978	359.9176	435.3299	472.1322	509.6764	655.7652	709.6151	742.0688	782.8933	824.9445	857.724	903.8919	916.3322	949.7012	960.8801	974.3033	1025.5377	1050.917	1058.8348	1101.138	1127.3897	1162.8978	1189.9412	1196.4561	1261.5838	1292.2527	1324.7591	1331.131	1384.0802	1424.2143	1432.113	1454.8979	1463.5	1669.5985	1834.6745	2873.4124	3015.5026	3024.7617	3063.0304	3092.3012	3163.0887	3188.1253	3212.7315	3461.8233
O=CCC12NC1CC=C2	O=CC[C@]12N[C@H]1CC=C2	
InChI=1S/C7H9NO/c9-5-4-7-3-1-2-6(7)8-7/h1,3,5-6,8H,2,4H2	InChI=1S/C7H9NO/c9-5-4-7-3-1-2-6(7)8-7/h1,3,5-6,8H,2,4H2/t6-,7-/m0/s1
