17
gdb 83105	2.60855	1.79332	1.28908	1.9097	74.63	-0.2179	0.0014	0.2193	991.3669	0.137628	-417.994357	-417.986682	-417.985738	-418.026724	29.456	
O	-0.0365716121	 1.5004411242	-0.1864252065	-0.426428
C	 0.0285173244	 0.109296849	-0.0007530139	 0.039163
C	-1.3313830389	-0.6554282938	-0.0699576853	-0.006859
C	-2.5846826355	 0.031221469	-0.6521697051	-0.293174
C	-2.7791837996	-0.7115955245	-1.9640887778	-0.082413
C	-1.7380232755	-1.4962710168	-2.2416317957	-0.081637
N	-0.7659591385	-1.4799200418	-1.1953049217	-0.111689
C	 0.3998000679	-0.6715228228	-1.260539204	 0.325005
N	 1.3481235506	-0.4925013997	-2.0714170906	-0.542888
H	 0.6341925219	 1.722361055	-0.8440999984	 0.30217
H	 0.621097181	-0.1458925101	 0.8874566247	 0.093344
H	-1.5556154259	-1.2611705545	 0.8107065394	 0.088051
H	-3.4429062727	-0.0634839007	 0.0192576892	 0.113811
H	-2.4183497948	 1.1025324406	-0.8205990003	 0.135477
H	-3.6478679554	-0.5888278617	-2.5975110327	 0.105971
H	-1.5706858133	-2.1089479786	-3.1172330157	 0.119014
H	 1.2743629963	-1.0868810428	-2.8988599855	 0.223082
70.0573	150.2812	202.6281	241.7194	291.4481	382.6197	478.2569	549.7887	616.6054	654.2049	708.0774	774.8152	788.7533	838.777	863.8916	880.8248	916.5609	934.1009	949.0663	1001.256	1031.1978	1091.6659	1129.5802	1135.3081	1161.5724	1196.198	1215.2172	1249.0347	1287.8454	1304.3829	1339.9178	1361.1086	1375.3586	1385.2535	1486.5618	1665.6992	1786.8022	3018.2829	3036.0531	3072.0211	3089.22	3213.6175	3238.2322	3463.5874	3784.2704
OC1C2CC=CN2C1=N	O[C@H]1[C@H]2CC=CN2[C]1[NH]	
InChI=1S/C6H8N2O/c7-6-5(9)4-2-1-3-8(4)6/h1,3-5,7,9H,2H2	InChI=1S/C6H8N2O/c7-6-5(9)4-2-1-3-8(4)6/h1,3-5,7,9H,2H2/t4-,5+/m1/s1
