12
gdb 43524	2.71908	1.4958	1.05677	2.6164	62.3	-0.2962	-0.0255	0.2706	1057.3158	0.076656	-472.636146	-472.62863	-472.627686	-472.668897	27.111	
N	-0.032686384	 1.2759778762	-0.0398086519	-0.502009
C	 0.0063320113	 0.0274826639	-0.0042131375	 0.390879
O	 1.1275634735	-0.7682044878	-0.0188530434	-0.229144
C	 0.767811324	-2.1037503671	-0.0299753391	 0.50913
O	 1.5422890153	-2.9971721209	-0.0557701927	-0.339984
O	-0.5762566153	-2.2175965325	-0.0191365551	-0.234756
C	-1.1932644693	-0.914562732	 0.0456303553	-0.151535
C	-2.0044904628	-0.772016065	 1.2422230391	 0.351785
C	-2.6813080152	-0.6522120315	 2.2253134873	-0.435033
H	 0.8998303428	 1.6884259397	-0.0771877848	 0.250869
H	-1.8053043216	-0.7874586559	-0.8535243441	 0.167682
H	-3.2790194387	-0.5428364671	 3.0973483868	 0.222118
63.2988	138.2167	141.4945	242.4916	358.9382	423.5758	473.2541	572.3646	643.9677	651.9976	668.5835	699.2759	748.3212	769.3636	878.2652	904.2978	944.7985	994.3814	1069.1544	1084.4492	1118.9881	1291.2907	1315.8975	1358.8555	1817.3519	1962.1046	2253.176	3062.6959	3498.1946	3499.1224
N=C1OC(=O)OC1C#C	[NH][C]1OC(=O)O[C@H]1C#C	
InChI=1S/C5H3NO3/c1-2-3-4(6)9-5(7)8-3/h1,3,6H	InChI=1S/C5H3NO3/c1-2-3-4(6)9-5(7)8-3/h1,3,6H/t3-/m0/s1
