14
gdb 12300	3.07842	2.36972	1.40514	6.0435	60.77	-0.2566	-0.0361	0.2205	834.475	0.109399	-415.893922	-415.887044	-415.8861	-415.925376	25.366	
N	-0.0321841715	 1.2363534691	 0.3583397707	-0.461948
C	-0.0002617591	 0.0263803904	 0.0018925744	 0.285507
O	 1.1761288154	-0.6120842189	-0.2870500377	-0.255528
C	 1.1085417633	-1.8870000882	-0.9282126041	-0.082277
C	 0.1388457123	-2.797565188	-0.1997774778	-0.169553
N	-1.1469725842	-2.1278983653	-0.1577609125	-0.333683
C	-1.3051064171	-0.7731402731	-0.0430336754	 0.356426
O	-2.3882100682	-0.2401647152	 0.0317721124	-0.334724
H	 0.9145778106	 1.6239540318	 0.3542968463	 0.229516
H	 0.7976109947	-1.7618461322	-1.9735135804	 0.1242
H	 2.1245739053	-2.2860537024	-0.9061021892	 0.130399
H	 0.0402948034	-3.7428917144	-0.742727286	 0.127182
H	 0.5186752071	-3.0248723864	 0.8067127618	 0.126578
H	-1.999713162	-2.6625992373	-0.0834072124	 0.257903
75.5909	123.4042	306.8449	352.9296	399.679	455.0382	488.232	536.5306	584.5971	680.1606	714.743	803.9864	906.2513	927.7023	982.0447	989.6285	1095.2854	1124.3328	1147.1181	1254.2407	1263.0755	1279.4431	1365.9916	1393.569	1417.077	1471.3054	1504.0869	1509.75	1743.2693	1813.6332	3003.0157	3029.0879	3080.2189	3117.7239	3461.5237	3619.3782
N=C1OCCNC1=O	[NH][C]1OCCNC1=O	
InChI=1S/C4H6N2O2/c5-3-4(7)6-1-2-8-3/h5H,1-2H2,(H,6,7)	InChI=1S/C4H6N2O2/c5-3-4(7)6-1-2-8-3/h5H,1-2H2,(H,6,7)
