21
gdb 82097	2.8403	1.29629	1.04104	1.6697	82.03	-0.2458	0.09	0.3358	1226.1931	0.182195	-387.038585	-387.029957	-387.029013	-387.072109	33.246	
C	-0.2276797212	 1.4779633302	 0.0248957248	-0.406442
C	 0.0265533793	-0.0218111743	 0.0824884484	-0.03402
C	 0.983226526	-0.6145101992	-0.9640967781	 0.020407
O	 2.2800357481	-0.0482196834	-0.7277688621	-0.251131
C	 1.8691161718	-1.1684895094	 0.0690624644	 0.009942
C	 0.9877135086	-0.6206424921	 1.2051287869	-0.050703
C	 1.6456940758	 0.2946548242	 2.2005062499	 0.034202
C	 0.9549758106	 0.6394504952	 3.4976664281	-0.271384
C	 2.1670330919	-0.2575692248	 3.5064177804	-0.281047
H	 0.7114204666	 2.0268847721	-0.0820398535	 0.132045
H	-0.8657421448	 1.7299198328	-0.8294744549	 0.109262
H	-0.7286410609	 1.8300916314	 0.9319298092	 0.118637
H	-0.9201547359	-0.571998966	 0.0894215688	 0.072816
H	 0.7736903782	-0.9551212944	-1.9720374872	 0.098133
H	 2.5132619003	-2.0407465219	 0.0585644261	 0.098636
H	 0.4754545197	-1.4364135247	 1.7272013061	 0.067339
H	 2.2403159927	 1.0821707065	 1.7494976135	 0.096139
H	 1.055345331	 1.6477678925	 3.8839091924	 0.111091
H	-0.0108594829	 0.1847798154	 3.6946126392	 0.106898
H	 2.0145574834	-1.312917082	 3.7095188932	 0.107101
H	 3.0986955918	 0.1370818016	 3.8962048246	 0.112079
68.4062	114.5539	150.5139	219.2973	230.0769	280.4964	308.3702	460.5166	503.2004	612.4227	710.1905	754.4488	800.9925	826.6302	851.9588	860.4903	876.8994	885.4273	920.2215	947.8391	991.1409	1014.1392	1041.1688	1052.8835	1059.663	1070.5691	1076.9745	1131.4768	1145.9072	1192.1988	1198.7705	1209.7202	1225.9018	1240.379	1246.2724	1281.7046	1298.0606	1361.5707	1383.9814	1408.1341	1430.9784	1469.5402	1490.1583	1503.9383	1505.6267	3035.1745	3040.7635	3057.8747	3098.058	3122.1249	3126.4569	3131.6098	3164.5037	3171.8387	3187.4022	3204.473	3220.2766
CC1C2OC2C1C1CC1	C[C@H]1[C@H]2O[C@H]2[C@H]1C1CC1	
InChI=1S/C8H12O/c1-4-6(5-2-3-5)8-7(4)9-8/h4-8H,2-3H2,1H3	InChI=1S/C8H12O/c1-4-6(5-2-3-5)8-7(4)9-8/h4-8H,2-3H2,1H3/t4-,6-,7-,8+/m1/s1
