16
gdb 35359	3.09105	1.46325	1.2106	2.8546	74.12	-0.2421	0.001	0.2432	1034.235	0.126887	-396.923395	-396.91606	-396.915116	-396.955473	27.62	
N	-0.3100940388	-1.1504803463	-0.2673091143	-0.316553
C	-0.2205100455	-0.0059365938	-0.1307097059	 0.291686
C	-0.0590936854	 1.4396348257	 0.0154077789	-0.146812
C	-0.0655457051	 1.9387556067	 1.5166832105	-0.358186
C	 1.4358723995	 2.0182197933	 1.3201642895	 0.373523
N	 2.5483163841	 1.8650007333	 1.9015824127	-0.322224
C	 3.4912784019	 1.6371619797	 0.7646393516	-0.171223
C	 2.6021624904	 1.2533756079	-0.4715229548	-0.209534
N	 1.3551306939	 1.9222717419	-0.0733158668	-0.081224
H	-0.734375372	 1.9545094251	-0.6718344776	 0.1367
H	-0.572283817	 2.8969889974	 1.6366213025	 0.148358
H	-0.4125193902	 1.2270070312	 2.2640232401	 0.160883
H	 4.0574186204	 2.5552633377	 0.566705276	 0.120348
H	 4.2050166602	 0.8529375958	 1.0257528031	 0.124091
H	 2.9921744927	 1.6321660272	-1.4180854022	 0.121124
H	 2.4631801808	 0.1663453871	-0.5478894333	 0.129042
85.3876	140.4493	213.747	270.813	296.0926	416.9889	514.3315	571.5891	602.6515	681.6991	761.9935	792.8653	823.1075	860.3613	908.3961	956.7886	997.1284	1011.1777	1045.7524	1098.6543	1121.1468	1142.2476	1193.9047	1208.7779	1221.8783	1243.0634	1268.0435	1321.4807	1344.7887	1356.0128	1462.8102	1494.0585	1515.5834	1771.2751	2351.5574	3019.3846	3038.6774	3085.7303	3100.8925	3103.2592	3113.072	3169.5222
N#CC1CC2=NCCN12	N#C[C@H]1C[C]2[N]CCN12	
InChI=1S/C6H7N3/c7-4-5-3-6-8-1-2-9(5)6/h5H,1-3H2	InChI=1S/C6H7N3/c7-4-5-3-6-8-1-2-9(5)6/h5H,1-3H2/t5-/m1/s1
