16
gdb 51531	5.48079	0.7073	0.69585	1.5785	71.81	-0.291	-0.005	0.286	1564.4049	0.1236	-437.910047	-437.901429	-437.900485	-437.944856	30.114	
O	-0.9271709396	 0.5600635155	-0.3140486214	-0.264908
C	-0.4474828501	 1.6407020275	-0.1636530091	 0.163048
O	 0.8656099441	 1.8235426066	 0.0998528895	-0.18865
C	 1.3520267442	 3.1445078361	 0.2652465635	 0.153747
C	 2.1713483438	 3.3971578411	 1.5491168254	-0.263095
C	 3.2042820967	 4.195878051	 0.6814531761	-0.173104
C	 2.5861074856	 3.5118065517	-0.5865387737	-0.263133
C	 3.0121722973	 5.6375940919	 0.7214037791	 0.273922
N	 2.8444911948	 6.7813934089	 0.7501634404	-0.318023
H	-1.0085603324	 2.5937122173	-0.2212582458	 0.086543
H	 0.5365590978	 3.8663802161	 0.1455742465	 0.109985
H	 1.6894023033	 3.9211291608	 2.3745990971	 0.13528
H	 2.6155092868	 2.4666300136	 1.9079406097	 0.13871
H	 4.2546039533	 3.9708110701	 0.8733899793	 0.135667
H	 3.1507048589	 2.6147061385	-0.8479715271	 0.138715
H	 2.4366018955	 4.1279063632	-1.4732933494	 0.135295
44.9758	51.5103	137.3068	192.0965	197.7157	286.9995	374.3079	384.0892	517.5032	563.9615	571.8785	780.6877	791.6206	821.6037	923.7142	930.3483	991.2364	997.0355	1041.7712	1094.7146	1098.0126	1133.0693	1169.1769	1178.1076	1233.2799	1251.1097	1275.7004	1282.1059	1344.7259	1388.7794	1444.3534	1466.2028	1490.6579	1873.3499	2354.5434	2952.0961	3049.22	3083.9638	3086.6868	3101.0292	3150.7132	3152.0701
O=COC1CC(C1)C#N	O=CO[C@H]1C[C@@H](C1)C#N	
InChI=1S/C6H7NO2/c7-3-5-1-6(2-5)9-4-8/h4-6H,1-2H2	InChI=1S/C6H7NO2/c7-3-5-1-6(2-5)9-4-8/h4-6H,1-2H2/t5-,6-
