19
gdb 104379	2.48264	1.4869	1.20711	1.1359	71.47	-0.2279	-0.0316	0.1963	1108.5084	0.157287	-460.167727	-460.158451	-460.157506	-460.201748	33.965	
C	-0.2356030725	 1.4861862155	 0.0427309976	-0.259528
O	-0.0181119717	 0.0827402668	-0.0237044295	-0.292244
C	 0.6753188544	-0.5227081667	 1.0493628595	 0.285556
C	 0.0957514127	-0.2149895089	 2.434741945	-0.45975
C	 0.719810671	-2.0358846573	 0.7730224762	-0.136309
O	 1.9364509966	-2.497478806	 1.3565743643	-0.251575
C	 2.9290438775	-1.5295640204	 1.0705258766	-0.182914
C	 2.1919367697	-0.19229013	 1.0301501721	 0.335276
O	 2.6892640451	 0.9023487308	 0.9739447895	-0.313978
H	 0.7022803263	 2.0390776195	 0.1469992928	 0.14509
H	-0.7153729148	 1.7576904381	-0.9004533588	 0.127645
H	-0.9089346982	 1.7584202501	 0.8661460686	 0.108786
H	-0.9827273135	-0.402818336	 2.435853877	 0.129122
H	 0.5624747135	-0.8664783736	 3.1796681747	 0.137166
H	 0.2786811326	 0.8216161261	 2.7286643267	 0.136045
H	-0.1002753953	-2.5906081436	 1.2326237931	 0.116878
H	 0.7043799276	-2.1993064874	-0.3146268415	 0.108771
H	 3.7018533455	-1.553448664	 1.843502134	 0.141046
H	 3.4110811133	-1.7032246431	 0.0931114322	 0.124917
66.1264	115.4488	174.4228	200.3427	216.6984	260.996	291.513	308.8854	362.2974	410.1486	504.24	558.5939	624.237	656.2108	697.278	871.0401	927.6969	956.9622	966.962	991.6996	1069.7818	1090.6776	1112.9353	1155.0503	1181.1304	1189.5386	1226.5758	1234.2777	1255.6754	1269.1381	1324.846	1375.3842	1397.7057	1470.6637	1472.748	1486.048	1487.6526	1504.0215	1511.8896	1518.3243	1851.0618	2966.8713	3003.9065	3014.14	3039.4057	3091.5647	3096.3257	3114.0084	3114.4644	3124.7119	3128.6349
COC1(C)COCC1=O	CO[C@@]1(C)COCC1=O	
InChI=1S/C6H10O3/c1-6(8-2)4-9-3-5(6)7/h3-4H2,1-2H3	InChI=1S/C6H10O3/c1-6(8-2)4-9-3-5(6)7/h3-4H2,1-2H3/t6-/m0/s1
