17
gdb 36555	8.3607	0.48213	0.4718	2.867	85.16	-0.2454	0.0127	0.2581	2217.6926	0.135826	-380.830462	-380.820967	-380.820023	-380.867215	32.491	
N	-0.0687219851	-1.1107393716	 0.1368465079	-0.299313
C	-0.0109118797	 0.0407822636	 0.2127228076	 0.255551
C	 0.0880407975	 1.4958417603	 0.2956048409	-0.323965
C	 1.3862038124	 2.0298252679	-0.3663729215	-0.353028
C	 1.4825350364	 3.4801092717	-0.278423776	 0.001977
C	 1.529429748	 4.6817473562	-0.1887345323	 0.156376
C	 1.6162191619	 6.1129298951	-0.1148575559	-0.160077
C	 1.5764251501	 6.7949271875	 1.215069223	-0.226078
N	 2.8265376708	 6.7577298317	 0.4533097013	-0.302897
H	-0.7855764787	 1.9423079726	-0.1894870084	 0.165524
H	 0.0571392138	 1.7969213287	 1.3474305693	 0.163214
H	 2.2516540616	 1.5620028779	 0.1168376073	 0.153691
H	 1.4101522005	 1.7102298594	-1.4144670758	 0.155482
H	 1.214695221	 6.6474981714	-0.9719186213	 0.120212
H	 1.1128667301	 7.7743557866	 1.2905568276	 0.128956
H	 1.4738813981	 6.1663124975	 2.0945805968	 0.123102
H	 3.4366598114	 6.0355467736	 0.8290878494	 0.241275
21.7019	52.2595	68.1333	133.7151	168.7762	211.5739	313.5281	400.9711	424.2757	493.4914	541.9556	545.0448	728.9982	764.4808	814.6612	881.0728	949.6446	961.6473	993.9052	1005.8675	1032.9506	1088.524	1120.2539	1157.0908	1197.9038	1219.1452	1257.3831	1284.9984	1299.5257	1306.8217	1368.8744	1397.5698	1467.3682	1478.6762	1503.917	2359.9347	2364.0543	3038.0894	3061.6239	3070.0912	3104.6652	3114.9429	3139.84	3205.5712	3505.377
N#CCCC#CC1CN1	N#CCCC#C[C@H]1CN1	
InChI=1S/C7H8N2/c8-5-3-1-2-4-7-6-9-7/h7,9H,1,3,6H2	InChI=1S/C7H8N2/c8-5-3-1-2-4-7-6-9-7/h7,9H,1,3,6H2/t7-/m0/s1
