19
gdb 102932	2.42179	0.97091	0.79688	2.3487	76.83	-0.2638	0.0146	0.2784	1488.1273	0.158454	-419.257414	-419.247137	-419.246193	-419.294325	35.329	
C	-0.3537301827	 1.3162666018	 0.2496110129	-0.398428
C	 0.1112056989	-0.1052248861	-0.0721564244	-0.185327
C	 0.843799562	-0.7968621432	 1.0974824436	-0.132045
C	 1.1986353658	-2.2678122473	 0.7612021705	-0.180657
N	 1.8390761377	-2.9723207224	 1.8533683679	-0.270762
C	 1.1096585794	-3.5129835883	 2.868392695	 0.154008
O	-0.1028281204	-3.5147326782	 2.9135583339	-0.323804
C	 2.0616450465	-0.0732383242	 1.4747157719	 0.271284
N	 3.0439456609	 0.4685805129	 1.7551447593	-0.333683
H	 0.4925030383	 1.9640308384	 0.4977720826	 0.143717
H	-0.8733051782	 1.7546041517	-0.6070090827	 0.123548
H	-1.0441010048	 1.3234907055	 1.0996661614	 0.125263
H	-0.7500084323	-0.7315187408	-0.3314533269	 0.11552
H	 0.7705691438	-0.0960774782	-0.9482195791	 0.114838
H	 0.1834047208	-0.8163302502	 1.9728925502	 0.150199
H	 0.269459237	-2.792326205	 0.5277831792	 0.149177
H	 1.851537889	-2.3030375816	-0.1152829025	 0.124687
H	 2.83889483	-2.9025991727	 1.959671783	 0.264102
H	 1.7495827784	-3.9689789621	 3.6477177943	 0.088362
28.9898	56.6324	91.9977	133.3863	159.4333	210.4182	257.4179	273.5781	300.6287	379.9258	423.7561	519.932	552.1845	607.5209	746.6957	765.07	839.8708	934.2685	961.676	999.4786	1032.8738	1038.996	1085.76	1131.7491	1139.2292	1212.2287	1252.7712	1281.5863	1310.8253	1363.8928	1375.0945	1395.2374	1419.0254	1426.2878	1465.2964	1487.9015	1499.3731	1506.4416	1527.1993	1799.4985	2350.9878	2955.8216	3032.3944	3039.8983	3047.8464	3067.5387	3073.7129	3110.5105	3117.5975	3126.4007	3636.5847
CCC(CNC=O)C#N	CC[C@@H](CNC=O)C#N	
InChI=1S/C6H10N2O/c1-2-6(3-7)4-8-5-9/h5-6H,2,4H2,1H3,(H,8,9)	InChI=1S/C6H10N2O/c1-2-6(3-7)4-8-5-9/h5-6H,2,4H2,1H3,(H,8,9)/t6-/m1/s1
