21
gdb 112585	3.12649	0.92146	0.84061	2.9997	83.68	-0.2646	0.0291	0.2936	1476.9713	0.182467	-383.278549	-383.268703	-383.267758	-383.313511	36.489	
C	 0.1718209562	 1.5099074032	-0.1688197543	-0.381345
C	 0.0867048066	-0.0014691249	 0.0675371055	-0.198049
C	-1.3423867084	-0.5264424786	 0.0776481039	 0.060911
C	-2.1440297549	-0.5406868442	-1.2555315378	-0.262698
C	-2.7111176694	-1.9460314297	-0.8773159645	 0.141324
N	-2.673165369	-2.9409971539	-1.9436363299	-0.545389
C	-1.5695231424	-2.0591727017	 0.1827515322	-0.279574
C	-4.034916727	-1.8439290169	-0.2396555138	 0.232513
N	-5.089410607	-1.7951531188	 0.2346156906	-0.348321
H	 1.2108929758	 1.8524243083	-0.1764866682	 0.115976
H	-0.2761316608	 1.7885612521	-1.1289120467	 0.11968
H	-0.3562443531	 2.0633684893	 0.6154197873	 0.118212
H	 0.6563256642	-0.5302296551	-0.708608984	 0.095337
H	 0.5659966185	-0.2523393903	 1.0230665349	 0.099807
H	-1.9204191919	-0.0093866755	 0.8517773758	 0.086976
H	-2.8651780937	 0.2567988765	-1.4404078066	 0.116227
H	-1.4879587899	-0.6552229445	-2.1228605877	 0.116596
H	-2.9350800118	-3.8525733845	-1.5749242175	 0.239771
H	-3.3672035902	-2.7143327498	-2.6524720455	 0.239645
H	-0.7435662494	-2.6246527526	-0.2571945682	 0.116721
H	-1.8279918024	-2.4796485484	 1.1559514146	 0.115679
54.5526	97.2862	141.0575	179.7852	204.1002	234.342	247.7081	352.3205	361.682	403.5547	422.0233	519.4545	594.3951	631.1151	706.4604	781.3117	838.1769	847.5007	906.0251	929.2902	948.5054	963.4411	977.7393	1016.7992	1068.8854	1095.453	1137.7018	1190.3269	1212.6679	1232.8103	1261.7724	1281.7574	1286.8681	1300.8009	1311.9536	1348.5312	1395.5922	1413.3423	1467.5047	1483.2536	1492.958	1500.1873	1506.6642	1655.2593	2335.3445	3011.8905	3031.8154	3036.6549	3052.7263	3063.1838	3068.1633	3098.237	3105.7761	3130.0649	3131.9478	3473.6105	3551.286
CCC1CC(N)(C1)C#N	CC[C@H]1C[C@@](N)(C1)C#N	
InChI=1S/C7H12N2/c1-2-6-3-7(9,4-6)5-8/h6H,2-4,9H2,1H3	InChI=1S/C7H12N2/c1-2-6-3-7(9,4-6)5-8/h6H,2-4,9H2,1H3/t6-,7+
