21
gdb 69935	3.75983	1.34692	1.17022	0.3579	89.32	-0.2159	0.0202	0.2362	1137.9603	0.184097	-349.929889	-349.922119	-349.921175	-349.961573	32.052	
C	-0.0623226703	 1.5345617842	-0.0581409641	-0.482971
C	 0.0213077913	 0.0272684491	-0.0034180834	 0.347592
C	-0.8032506451	-0.7563829187	 1.0027445602	-0.323369
C	 0.6995152249	-0.7561675448	 1.1416207054	-0.119806
C	 1.5331620404	-1.8401461356	 0.4855066307	-0.038436
C	 1.2252202747	-3.3826048082	 0.3563708406	-0.247338
C	 1.367445633	-3.2508745838	-1.2062583895	-0.307618
C	 1.1430786416	-1.7729344481	-0.9701426753	 0.270506
C	 0.29172819	-0.7837800163	-1.2445496695	-0.312915
H	 0.8642523158	 1.9718543755	-0.4466240749	 0.117291
H	-0.8814667749	 1.8623789106	-0.7097386309	 0.114897
H	-0.2447066788	 1.9588532008	 0.9344169617	 0.111977
H	-1.3484235423	-0.1857036082	 1.7490262828	 0.10404
H	-1.3140556957	-1.6536140954	 0.6678661416	 0.104856
H	 1.1129248442	-0.2096672602	 1.9818747203	 0.07773
H	 2.6040249516	-1.6953696037	 0.6724148367	 0.071973
H	 1.9164844335	-4.0639691043	 0.8576459597	 0.099273
H	 0.1994282251	-3.6202335215	 0.6457273645	 0.110757
H	 2.3848940051	-3.4934171203	-1.5312693494	 0.108441
H	 0.6547724284	-3.78541115	-1.8382239141	 0.10696
H	-0.2810364525	-0.6508106112	-2.156688053	 0.08616
158.0616	180.0291	206.8092	266.0982	296.6787	381.5731	450.2406	484.9197	565.1939	651.4336	679.1894	725.2725	789.4705	798.3253	832.661	861.1213	880.9038	909.154	932.1661	946.6942	968.9278	1006.9149	1025.586	1065.4964	1069.4685	1082.3287	1093.5821	1126.9226	1131.2716	1179.0728	1208.9705	1226.4535	1247.2823	1262.4379	1277.8239	1311.0375	1346.9584	1387.1805	1418.2265	1473.412	1480.6884	1486.1926	1488.5962	1501.7473	1708.9499	3021.4786	3026.2641	3045.9157	3064.4363	3079.4902	3097.7906	3104.725	3116.4635	3129.2567	3169.2046	3180.82	3201.6644
CC12CC1C1CCC1=C2	C[C@]12C[C@H]1[C@H]1CC[C]1[CH]2	
InChI=1S/C9H12/c1-9-4-6-2-3-7(6)8(9)5-9/h4,7-8H,2-3,5H2,1H3	InChI=1S/C9H12/c1-9-4-6-2-3-7(6)8(9)5-9/h4,7-8H,2-3,5H2,1H3/t7-,8-,9-/m0/s1
