16
gdb 93599	5.02237	0.99534	0.85551	2.4499	75.35	-0.2524	-0.0243	0.2281	1289.8329	0.123759	-437.854223	-437.84576	-437.844816	-437.887287	31.479	
O	-0.0352582816	 1.428853092	 0.0571298927	-0.425332
C	 0.0331882703	 0.0146452473	 0.0075106751	 0.068699
C	 0.7297014343	-0.548146344	 1.2463840527	-0.111419
O	 0.686222702	-1.9790605852	 1.2549229782	-0.257262
C	-0.5007689482	-2.5247474298	 0.8565113172	 0.212434
N	-1.4876026294	-1.9457961818	 0.3060229993	-0.322625
C	-1.3932363462	-0.5285199293	-0.0161968498	-0.165364
C	-0.5349153479	-3.9323427055	 1.1334112311	 0.269611
C	-0.5537196913	-5.1110050937	 1.3650611348	-0.331979
H	 0.8358726785	 1.7868067316	-0.1413379609	 0.289247
H	 0.5699290837	-0.3302596179	-0.8888771911	 0.086325
H	 1.7892146085	-0.2800770419	 1.2826425608	 0.11107
H	 0.2383834344	-0.1573641954	 2.1467061501	 0.122865
H	-1.9980404598	 0.0454976217	 0.6985565718	 0.129826
H	-1.8483414006	-0.3696456868	-0.9992067034	 0.122138
H	-0.5820595965	-6.1535050713	 1.5669868414	 0.201766
80.2618	151.0478	169.3828	206.4714	263.6731	328.8843	381.0183	416.8912	450.3194	475.9304	580.2866	647.0358	660.1817	663.9183	725.8773	814.2693	898.3335	938.8533	1027.8325	1065.631	1100.9616	1110.3044	1145.1304	1208.621	1228.2289	1242.8118	1304.2786	1344.5336	1357.4281	1397.9284	1442.3538	1482.4653	1510.4604	1716.0553	2246.6948	2992.4451	3024.6032	3033.2356	3072.2371	3096.8994	3502.0763	3818.1458
OC1COC(=NC1)C#C	O[C@H]1COC(=NC1)C#C	
InChI=1S/C6H7NO2/c1-2-6-7-3-5(8)4-9-6/h1,5,8H,3-4H2	InChI=1S/C6H7NO2/c1-2-6-7-3-5(8)4-9-6/h1,5,8H,3-4H2/t5-/m1/s1
