21
gdb 59120	3.26604	1.28615	1.1283	1.5817	80.8	-0.2294	0.0742	0.3036	1178.6602	0.182075	-387.02621	-387.017826	-387.016882	-387.059258	32.952	
C	 0.0312082415	 1.5622882312	 0.0415401384	-0.39331
C	 0.0164284575	 0.0284959493	-0.0132974856	 0.019012
C	 0.7731256454	-0.5750021102	 1.1782154831	-0.394333
C	-1.4148978497	-0.5028562777	-0.0732077731	 0.03668
C	-2.3241993452	-0.2092519098	-1.2748151119	-0.150779
C	-2.0298146395	-1.3460688473	-2.2715062585	 0.095126
O	-0.9893972683	-2.1585246829	-1.7273923619	-0.290578
C	-1.6609383894	-1.9981133452	-0.4427824683	 0.036169
C	-2.9945038163	-1.5763676313	-1.1624879462	-0.155715
H	 1.0572113046	 1.9450339727	 0.0477510181	 0.109693
H	-0.4825462922	 2.0012120633	-0.819950124	 0.111311
H	-0.4641278193	 1.9303894844	 0.9485757851	 0.107069
H	 0.5159087881	-0.2916611759	-0.9349247485	 0.088209
H	 0.8017636143	-1.6681518424	 1.1250547604	 0.114357
H	 1.807750196	-0.2181578433	 1.2087406485	 0.110106
H	 0.2992768089	-0.2975564064	 2.1280081688	 0.1066
H	-1.9582179857	-0.2741922358	 0.8525612515	 0.068693
H	-2.7734741771	 0.728033478	-1.57735793	 0.089845
H	-2.1428932991	-1.2818530947	-3.3453661134	 0.108697
H	-1.486073256	-2.8255356888	 0.2414398127	 0.083783
H	-4.0259456084	-1.8934857773	-1.1076118451	 0.099364
61.3201	162.6541	168.7755	223.6783	246.3879	311.1003	384.006	417.2634	535.3654	615.3393	758.7685	770.119	785.8876	789.2443	831.1482	861.7002	894.4656	914.9597	930.1259	956.7468	978.3854	981.9019	1004.2243	1025.7765	1033.1669	1061.7849	1086.2717	1136.9796	1153.1661	1170.7525	1175.192	1199.986	1226.3404	1238.5671	1297.6984	1316.0601	1358.0577	1372.1138	1397.7128	1401.6832	1421.4719	1486.6372	1493.1328	1505.2354	1509.9468	3020.9424	3024.2908	3029.4234	3047.4316	3084.9228	3093.3496	3097.3857	3100.9391	3144.9439	3196.4945	3207.157	3223.1061
CC(C)C1C2C3OC1C23	CC(C)[C@H]1[C@H]2[C@H]3O[C@@H]1[C@@H]23	
InChI=1S/C8H12O/c1-3(2)4-5-6-7(4)9-8(5)6/h3-8H,1-2H3	InChI=1S/C8H12O/c1-3(2)4-5-6-7(4)9-8(5)6/h3-8H,1-2H3/t4-,5+,6+,7-,8+/m0/s1
