19
gdb 30801	2.21216	1.37366	0.87671	3.5317	81.19	-0.2003	0.0326	0.2329	1339.4135	0.158849	-419.258944	-419.249062	-419.248118	-419.294387	34.883	
C	 0.0787663419	 1.4430384637	 0.0599388436	-0.498999
C	 0.073385361	-0.0475278193	-0.0123684774	 0.329263
N	-0.0326503218	-0.7660450956	-1.1099099291	-0.351369
C	-0.0272747359	-2.0886820801	-0.7094073406	 0.180096
C	-0.126131173	-3.1968709327	-1.7076023261	-0.495757
C	 0.0918482367	-2.1627280493	 0.6564122361	 0.2554
C	 0.2018002473	-3.2860175618	 1.6250648271	-0.213698
O	-0.5418185505	-2.936476106	 2.7947183825	-0.426562
N	 0.1722877169	-0.8509288692	 1.0858030856	-0.324218
H	 1.0030774015	 1.8280434304	 0.5061752152	 0.128521
H	-0.0082133848	 1.8406792207	-0.9518667609	 0.155073
H	-0.7586202696	 1.826185376	 0.6550597782	 0.129603
H	 0.7936647471	-3.2931659367	-2.2967193479	 0.128054
H	-0.3130022623	-4.1599778898	-1.2234274232	 0.110957
H	-0.9400210518	-3.0035935668	-2.41343751	 0.134402
H	-0.1785190411	-4.2061160132	 1.158435877	 0.107074
H	 1.2551909185	-3.4724665846	 1.8957593442	 0.098593
H	-0.3532470789	-3.5929922089	 3.4723938093	 0.28984
H	 0.1541944588	-0.5748582467	 2.0537846766	 0.263727
63.9578	74.5728	99.5833	140.5014	202.0651	228.767	255.2091	295.1873	320.0213	390.5519	507.3105	552.0428	621.2914	635.5394	689.5055	703.8268	813.8917	977.6032	996.9769	1025.7453	1044.9595	1055.3772	1061.7664	1063.0827	1173.2043	1188.8875	1244.0291	1252.1162	1303.1405	1401.1784	1413.5054	1427.3659	1441.9998	1460.9083	1474.6481	1483.0816	1492.2412	1501.0704	1514.5698	1570.9772	1646.4494	2948.4167	3009.453	3028.2046	3029.3048	3076.4877	3083.9973	3110.4257	3148.071	3660.5355	3822.9429
CC1=NC(C)=C(CO)N1	Cc1nc(C)c(CO)[nH]1	
InChI=1S/C6H10N2O/c1-4-6(3-9)8-5(2)7-4/h9H,3H2,1-2H3,(H,7,8)	InChI=1S/C6H10N2O/c1-4-6(3-9)8-5(2)7-4/h9H,3H2,1-2H3,(H,7,8)
