20
gdb 92477	2.55556	1.68323	1.6563	2.0862	73.25	-0.2229	0.0659	0.2889	969.975	0.174234	-440.285008	-440.277397	-440.276452	-440.317007	30.355	
C	-0.119136542	 1.554397685	 0.0139502596	-0.379981
C	 0.0347359522	 0.0342648347	-0.0004581328	 0.002959
N	 0.7763802237	-0.4204139354	-1.2086941941	-0.310801
C	 1.8826905629	-1.3011318235	-0.8153333967	-0.067479
C	 2.8375010008	-0.4599908388	 0.0338687062	-0.04428
O	 2.1393442076	-0.0133935725	 1.2063064423	-0.272319
C	 0.81255983	-0.4959594043	 1.218452571	 0.20308
O	 0.7783116132	-1.9094980009	 1.2364264597	-0.272906
C	 1.3837231363	-2.4600876824	 0.0586733931	-0.066807
H	 0.860819241	 2.036089001	 0.0579474348	 0.130071
H	-0.6271688104	 1.8910892006	-0.8942757059	 0.112233
H	-0.7078564871	 1.8822361207	 0.8782947586	 0.105986
H	-0.9598633631	-0.4299184036	 0.0400851285	 0.076765
H	 0.1510070982	-0.9134438115	-1.8359206735	 0.21753
H	 2.3928057656	-1.6730702054	-1.7084071715	 0.077694
H	 3.7073723059	-1.0511818839	 0.3473184799	 0.100788
H	 3.1835837119	 0.4123328718	-0.5319172179	 0.10733
H	 0.3719788359	-0.166269502	 2.1609520206	 0.088774
H	 0.6421978641	-3.0660192332	-0.4810725004	 0.089637
H	 2.2069225133	-3.1214789466	 0.3628725484	 0.101724
73.3767	220.9975	221.7375	278.3645	322.0512	408.8459	430.4192	465.6815	557.5079	606.0524	691.2784	773.4562	816.6062	839.6542	887.6309	903.6498	949.2471	961.6507	969.2647	990.5197	1041.8302	1093.3328	1102.5653	1114.7504	1133.9086	1154.0856	1177.3557	1219.3776	1240.219	1286.9682	1316.5557	1327.6927	1354.5364	1361.7331	1394.7171	1403.8067	1405.9801	1415.019	1461.2264	1489.753	1494.4208	1510.0407	1523.2861	2992.2473	3008.3078	3017.3018	3028.3299	3035.7824	3063.7583	3074.1145	3103.5392	3108.1996	3128.1579	3529.0303
CC1NC2COC1OC2	C[C@H]1N[C@H]2CO[C@@H]1OC2	
InChI=1S/C6H11NO2/c1-4-6-8-2-5(7-4)3-9-6/h4-7H,2-3H2,1H3	InChI=1S/C6H11NO2/c1-4-6-8-2-5(7-4)3-9-6/h4-7H,2-3H2,1H3/t4-,5-,6+/m1/s1
