17
gdb 13765	3.15447	1.45989	1.20047	3.6578	68.96	-0.2952	-0.0029	0.2923	1052.4555	0.140367	-363.86027	-363.851586	-363.850642	-363.893768	30.953	
C	-0.0057728086	 1.3802740347	-0.2849217477	-0.394865
C	 0.0726483979	-0.0625165058	 0.2350964217	-0.016628
C	 0.731115421	-0.1411029095	 1.6201054578	-0.397829
C	-1.3138480431	-0.6639652718	 0.2848136174	 0.090507
O	-1.9302368511	-1.0221603667	-0.9519880368	-0.238622
C	-1.6099797374	-2.0772145	-0.0434436226	-0.111686
C	-0.5606787361	-2.9894524224	-0.4465904681	 0.305665
N	 0.269096878	-3.7372786666	-0.7441303407	-0.330503
H	 0.9954382248	 1.8127294471	-0.3712798211	 0.121273
H	-0.4805664546	 1.4158923948	-1.2694358491	 0.135134
H	-0.5851455276	 2.0141472085	 0.3966161965	 0.115156
H	 0.6641399146	-0.6555941335	-0.4719531578	 0.106373
H	 0.826365753	-1.1764256747	 1.9615238674	 0.128329
H	 1.7328246988	 0.2970997432	 1.5922261493	 0.126111
H	 0.1486577384	 0.410955146	 2.3669500382	 0.116674
H	-2.0005290041	-0.1950807733	 0.9942539162	 0.105443
H	-2.4654263539	-2.5651845899	 0.4204087893	 0.139469
56.0824	108.802	178.0032	213.1627	235.9191	251.7488	309.0574	338.5615	433.3365	478.4962	581.6335	624.3974	778.2475	846.0175	885.4908	931.7686	961.0697	963.7008	983.9804	1068.1215	1118.3113	1159.1207	1183.5454	1205.9404	1278.7286	1318.0948	1343.7219	1383.8624	1398.7086	1419.4093	1461.226	1487.112	1491.1259	1503.7753	1513.1105	2359.0994	3030.7004	3033.3382	3047.1111	3083.4946	3098.0546	3104.3188	3114.0333	3117.9397	3132.3308
CC(C)C1OC1C#N	CC(C)[C@H]1O[C@H]1C#N	
InChI=1S/C6H9NO/c1-4(2)6-5(3-7)8-6/h4-6H,1-2H3	InChI=1S/C6H9NO/c1-4(2)6-5(3-7)8-6/h4-6H,1-2H3/t5-,6+/m0/s1
