16
gdb 26199	4.12486	0.97583	0.93253	1.2776	67.29	-0.2207	-0.0009	0.2198	1281.9536	0.12362	-475.053414	-475.044694	-475.04375	-475.087428	31.91	
C	-0.0415046678	 1.5349622202	 0.0187543057	-0.408594
C	-0.0438952673	 0.0018124066	 0.0130349438	 0.025268
O	 0.6674853902	-0.5307673485	 1.1235633453	-0.423809
C	-1.4363862904	-0.5540753146	-0.0468138076	 0.400496
N	-2.0215381969	-1.1900292265	-1.0166209125	-0.391175
C	-3.2859310005	-1.46661416	-0.5336763896	 0.321484
O	-4.1929613012	-2.1268658391	-1.2745688023	-0.428318
C	-3.4158717221	-0.9847358003	 0.7269023559	-0.154745
O	-2.2128770055	-0.3850261839	 1.0433422821	-0.192161
H	 0.9881791591	 1.8967312537	 0.0754590506	 0.130796
H	-0.5082123716	 1.9311645955	-0.8882772525	 0.129949
H	-0.5965231118	 1.9176951473	 0.8818118053	 0.123216
H	 0.4751099951	-0.3667402181	-0.8754913636	 0.122571
H	 0.181914512	-0.2924326044	 1.9215757976	 0.28877
H	-3.7651663741	-2.336230675	-2.1137465512	 0.30844
H	-4.1880528075	-0.9755312029	 1.4727033829	 0.14781
34.7377	123.9809	177.3103	252.7161	288.6652	296.2448	328.8876	360.5212	413.5132	440.0754	528.638	656.5874	672.4673	710.3602	735.3109	774.0738	903.3037	974.5486	1020.7631	1023.1103	1084.8934	1099.5235	1125.3721	1178.7729	1265.1711	1290.1448	1336.7369	1350.9597	1399.7515	1406.0483	1419.6885	1490.2236	1492.8971	1608.2376	1700.5544	3038.4483	3089.6179	3114.7631	3127.6531	3318.1161	3802.73	3806.6116
CC(O)C1=NC(O)=CO1	C[C@@H](O)c1nc(O)co1	
InChI=1S/C5H7NO3/c1-3(7)5-6-4(8)2-9-5/h2-3,7-8H,1H3	InChI=1S/C5H7NO3/c1-3(7)5-6-4(8)2-9-5/h2-3,7-8H,1H3/t3-/m1/s1
