16
gdb 105735	2.30059	1.53168	1.21655	5.4599	70.6	-0.2667	-0.0198	0.2469	1069.3003	0.123831	-437.888129	-437.879681	-437.878737	-437.921517	30.846	
O	 0.0401609501	 1.3581369333	-0.2066263105	-0.41038
C	 0.0075734954	-0.0264484227	 0.0209713987	-0.070069
C	-1.4415908874	-0.5405577235	 0.1618491672	 0.156356
O	-2.1482181085	-0.1514309603	-1.0227718784	-0.302006
C	-2.7644247501	-1.2910190926	-1.633865219	-0.135053
C	-2.2987018982	-2.4629679681	-0.8206876878	-0.087489
C	-1.5612221265	-2.0486509571	 0.2009630027	-0.127885
C	-2.0913166157	 0.0762362265	 1.3439270209	 0.27694
N	-2.5959788218	 0.5197455316	 2.2836697668	-0.332552
H	-0.5401707973	 1.5278555421	-0.9589308032	 0.297754
H	 0.4702758906	-0.5994038412	-0.7973725879	 0.097103
H	 0.566366545	-0.2203517159	 0.9417237714	 0.124277
H	-3.8585636931	-1.1801382884	-1.618195365	 0.129175
H	-2.4508317066	-1.3463241384	-2.6850816156	 0.124042
H	-2.5589208294	-3.4867956385	-1.0563759901	 0.127499
H	-1.1030561166	-2.6455455966	 0.9773793798	 0.132286
80.2081	107.728	167.7334	169.7916	217.4321	332.4188	411.7532	443.0007	467.2738	522.6319	560.9943	678.857	737.9517	775.8846	828.7079	882.7861	951.7525	960.0094	1022.6183	1045.2099	1086.2978	1100.5474	1117.1312	1132.4929	1158.702	1202.6354	1247.3402	1342.6229	1376.3182	1381.2626	1428.1879	1493.1648	1516.8438	1690.6752	2355.3709	2989.0936	2999.9038	3031.0846	3089.3765	3218.4077	3244.4653	3788.9765
OCC1(OCC=C1)C#N	OC[C@]1(OCC=C1)C#N	
InChI=1S/C6H7NO2/c7-4-6(5-8)2-1-3-9-6/h1-2,8H,3,5H2	InChI=1S/C6H7NO2/c7-4-6(5-8)2-1-3-9-6/h1-2,8H,3,5H2/t6-/m1/s1
