23
gdb 80421	2.363	1.6999	1.24777	1.2968	84.77	-0.2544	0.0695	0.3239	1116.1716	0.206453	-388.290094	-388.281172	-388.280228	-388.322776	36.032	
C	-0.1382145845	 1.5490355895	 0.0474209429	-0.426848
C	 0.0437763093	 0.0322911117	 0.0465976825	-0.039975
C	 0.9850142119	-0.5264690942	-1.0922290166	 0.114694
O	 1.7056401048	 0.458934045	-1.8157866497	-0.43449
C	 1.9647555293	-1.3319479119	-0.2329216569	-0.025685
C	 2.2813579678	-0.3339439609	 0.9138898041	-0.265139
C	 0.7790493625	-0.5696336202	 1.2765501262	 0.352964
C	 0.2209678692	-0.2794350153	 2.6516442607	-0.504695
C	 1.0103630907	-2.0295953625	 0.7724956951	-0.275104
H	 0.8129079472	 2.0792701159	 0.1398146587	 0.129445
H	-0.6171015245	 1.8919142301	-0.8776361986	 0.098007
H	-0.7858169923	 1.8608242319	 0.8730470673	 0.114033
H	-0.9477790495	-0.4313638375	-0.0359001931	 0.059912
H	 0.4317859255	-1.1735892679	-1.7880283805	 0.055681
H	 1.080718982	 0.9619121342	-2.3463615642	 0.281086
H	 2.7460965593	-1.8711856261	-0.7680732714	 0.06122
H	 2.9522456285	-0.7616558155	 1.663401056	 0.088135
H	 2.6111035808	 0.6700374963	 0.6404523049	 0.103847
H	 0.2489895741	 0.7916498505	 2.8806078743	 0.116804
H	-0.8224845989	-0.6076693618	 2.7329434678	 0.111122
H	 0.7938896639	-0.7977935063	 3.4278934509	 0.110927
H	 0.1494778429	-2.5824110837	 0.3799181585	 0.081815
H	 1.5493315298	-2.6430531413	 1.4990947312	 0.092244
126.5881	195.2519	207.878	249.8234	276.9336	279.3927	297.2898	310.6022	426.795	476.362	489.5654	544.6172	641.8225	702.682	772.8009	809.4559	843.1248	875.8766	890.2489	926.6266	972.6676	983.4019	1009.6537	1030.3821	1038.3816	1063.1662	1093.1336	1112.0198	1146.4574	1148.0801	1167.2768	1205.0473	1220.5969	1249.9942	1254.0082	1272.6499	1302.904	1334.4339	1344.9	1373.197	1405.3409	1413.1097	1426.9662	1486.3164	1490.1696	1492.0594	1496.1755	1507.1732	1523.6045	2986.3143	3015.8112	3020.9601	3031.2514	3037.699	3065.8275	3082.9581	3086.687	3092.6062	3103.8148	3118.1415	3119.1834	3126.9382	3827.0723
CC1C(O)C2CC1(C)C2	C[C@H]1[C@@H](O)[C@H]2C[C@]1(C)C2	
InChI=1S/C8H14O/c1-5-7(9)6-3-8(5,2)4-6/h5-7,9H,3-4H2,1-2H3	InChI=1S/C8H14O/c1-5-7(9)6-3-8(5,2)4-6/h5-7,9H,3-4H2,1-2H3/t5-,6-,7+,8+/m0/s1
