22
gdb 15633	2.89282	1.64691	1.19383	0.2434	84.44	-0.224	0.0343	0.2583	1114.0756	0.20088	-313.098977	-313.090148	-313.089203	-313.132245	33.299	
C	 0.1583337248	 1.4815904824	-0.1505355438	-0.373526
C	-0.1122451999	-0.0138882091	 0.096063063	-0.295843
C	 0.639197861	-0.5701924221	 1.2715065212	 0.355809
C	 0.1052521194	-1.0112860138	 2.4130295502	-0.184185
C	 1.1421544744	-1.4347919284	 3.4237097618	-0.254165
C	 2.4314689048	-1.508211935	 2.5716211282	-0.214003
C	 2.163239324	-0.63176442	 1.3200729712	-0.055709
C	 2.8334652856	-1.1696692109	 0.0500316911	-0.403387
H	 1.2179221646	 1.6720897977	-0.3495043616	 0.119249
H	-0.4115136662	 1.8432801571	-1.0120809642	 0.111458
H	-0.1280448349	 2.0780463607	 0.7214907314	 0.118907
H	-1.1861796569	-0.1674522392	 0.250708905	 0.098352
H	 0.1514512736	-0.5720885184	-0.812637568	 0.102322
H	-0.9595802203	-1.0271427753	 2.6253550471	 0.078056
H	 1.2264731596	-0.6911265041	 4.2298684481	 0.100184
H	 0.906471794	-2.3869903567	 3.9130028973	 0.097253
H	 3.328011736	-1.2014683851	 3.1175519792	 0.090885
H	 2.5905426866	-2.543112742	 2.2466594406	 0.097344
H	 2.5488247607	 0.385301426	 1.4937025568	 0.073611
H	 2.4583038826	-2.1698085427	-0.1954066599	 0.113464
H	 2.6543945107	-0.5218158102	-0.8142779239	 0.112541
H	 3.9177155259	-1.2437099708	 0.1861941891	 0.111385
79.9788	102.1171	165.5526	201.5379	242.6011	271.7971	298.8092	375.02	408.0566	537.2375	626.8722	646.7183	766.0507	796.6618	826.2545	861.1342	904.1837	933.5921	957.342	972.959	1012.1148	1049.8962	1062.6221	1086.4502	1105.9397	1124.7881	1180.3384	1209.8373	1242.6623	1266.5119	1292.7455	1313.7023	1327.5851	1343.3214	1352.7344	1372.1163	1405.9851	1408.2541	1480.4804	1485.1209	1495.7911	1499.1516	1499.7607	1503.4382	1508.5328	1713.6839	2971.7893	2998.4606	3013.0823	3026.1648	3033.9593	3035.543	3051.4625	3058.4012	3089.2668	3094.961	3097.2549	3105.5826	3107.5954	3174.6794
CCC1=CCCC1C	CCC1=CCC[C@H]1C	
InChI=1S/C8H14/c1-3-8-6-4-5-7(8)2/h6-7H,3-5H2,1-2H3	InChI=1S/C8H14/c1-3-8-6-4-5-7(8)2/h6-7H,3-5H2,1-2H3/t7-/m1/s1
