19
gdb 40621	4.23049	1.20481	1.18424	1.5794	79.23	-0.2255	0.0147	0.2403	1108.0949	0.160787	-385.824192	-385.816972	-385.816028	-385.856171	29.1	
C	 1.3877552567	 0.4419949044	-0.1141453275	-0.180767
O	 0.3677441248	-0.090053154	-0.9613840703	-0.224853
C	-0.0143311511	 0.4054807324	 0.3259338604	 0.044087
C	-0.5068533312	-0.5329367974	 1.3995880376	 0.006737
C	-1.9743469586	-1.1150368011	 1.2902117092	-0.090758
C	-1.3693831365	-2.1878873499	 0.3216864744	-0.213179
C	-0.1669267025	-2.0718676447	 1.3203665854	-0.085901
C	-0.8420301634	-2.5446794274	 2.6157491196	-0.091192
C	-2.024674651	-1.9213955389	 2.5941603459	-0.091283
H	 2.0917011951	-0.2894382775	 0.2799389358	 0.114762
H	 1.829357799	 1.3807417049	-0.4455509604	 0.114081
H	-0.5675510647	 1.3469075964	 0.2770152283	 0.091962
H	-0.291980896	-0.0662842609	 2.3675463207	 0.074415
H	-2.8267981728	-0.4912309463	 1.0201731559	 0.058222
H	-1.8808997515	-3.152082026	 0.2793661935	 0.088317
H	-1.1387807028	-1.8106802968	-0.6746559997	 0.128855
H	 0.8303683782	-2.4407283527	 1.0819452825	 0.060694
H	-0.4213318505	-3.2186182524	 3.3484265155	 0.097669
H	-2.8383281311	-1.9431273622	 3.3051965733	 0.098129
61.0301	165.3274	204.4601	345.7269	393.3362	484.6894	540.9799	600.3054	697.0266	726.9221	800.58	837.1606	846.23	888.3893	895.6123	907.571	911.4722	922.3868	938.7062	979.4029	1002.4808	1047.4026	1076.9418	1096.6881	1100.0899	1113.9913	1143.2906	1158.7989	1170.9545	1207.9239	1225.4427	1239.8075	1245.9344	1248.3794	1294.6308	1319.9617	1366.6847	1424.6529	1501.7393	1526.5089	1620.8577	3044.9782	3072.8474	3076.6039	3084.4797	3112.7209	3118.9238	3152.5882	3170.5641	3218.0796	3245.2454
C1OC1C1C2CC1C=C2	C1O[C@H]1[C@H]1[C@H]2C[C@@H]1C=C2	
InChI=1S/C8H10O/c1-2-6-3-5(1)8(6)7-4-9-7/h1-2,5-8H,3-4H2	InChI=1S/C8H10O/c1-2-6-3-5(1)8(6)7-4-9-7/h1-2,5-8H,3-4H2/t5-,6+,7-,8+/m1/s1
