23
gdb 116320	2.90477	1.27638	0.99088	1.2121	85.46	-0.2437	0.0819	0.3256	1292.9689	0.207573	-388.293826	-388.28504	-388.284096	-388.327223	34.371	
C	-0.0394775426	 1.5751527944	 0.0415549315	-0.385614
C	-0.0102820928	 0.0447456912	 0.0387533489	-0.182728
C	-1.4007066819	-0.5866809399	-0.0221225683	 0.11387
O	-2.01284951	-0.1663652636	-1.2368359043	-0.260083
C	-3.3413787518	-0.6477177734	-1.3562846575	-0.06781
C	-3.376142474	-2.1590307726	-1.6111442183	-0.230851
C	-2.384882189	-2.9016985097	-0.7162923483	-0.041064
C	-0.9222459891	-2.927698403	-1.095007214	-0.284218
C	-1.3733925782	-2.1026295909	 0.0807403368	-0.028681
H	 0.9734664223	 1.9882509302	 0.0689445528	 0.10664
H	-0.5404402242	 1.9521588504	-0.8533796439	 0.13331
H	-0.5793962917	 1.9592978458	 0.9145911735	 0.107308
H	 0.5710938969	-0.3211278528	-0.8153967913	 0.103403
H	 0.4907236483	-0.3267980728	 0.9412810685	 0.090979
H	-2.0032430385	-0.1973744303	 0.8207432812	 0.055788
H	-3.9032924583	-0.4065669701	-0.4384683526	 0.084823
H	-3.7992880578	-0.0967929539	-2.1832782534	 0.101089
H	-4.3933878558	-2.5239821893	-1.4306626453	 0.096432
H	-3.1535523362	-2.3589266171	-2.6656807726	 0.104607
H	-2.7684416485	-3.7995836778	-0.2424295851	 0.081418
H	-0.3504757625	-3.8296326586	-0.9063286873	 0.103862
H	-0.6435553571	-2.3953688175	-1.9990056998	 0.118262
H	-1.1210475877	-2.4719847386	 1.0709258089	 0.079259
90.6087	107.6283	164.2439	200.16	271.9134	301.7621	357.3694	375.2091	451.8224	488.845	591.3964	683.8299	756.0905	766.3567	817.0813	847.5868	864.8125	899.4441	939.371	951.2213	977.9236	1030.182	1058.6324	1074.013	1082.6971	1089.2413	1115.5375	1133.3654	1143.9196	1158.9729	1175.7142	1224.6003	1259.5201	1280.062	1307.5637	1325.672	1357.0043	1360.1465	1378.5317	1398.6991	1406.0449	1413.3015	1423.2401	1475.3453	1479.1431	1491.8451	1495.3841	1501.7641	1508.8961	2916.3842	2965.6814	3030.8104	3031.2349	3035.222	3068.9186	3069.2304	3081.4758	3099.3496	3125.2521	3127.4613	3140.3631	3154.0623	3214.7948
CCC1OCCC2CC12	CC[C@H]1OCC[C@H]2C[C@@H]12	
InChI=1S/C8H14O/c1-2-8-7-5-6(7)3-4-9-8/h6-8H,2-5H2,1H3	InChI=1S/C8H14O/c1-2-8-7-5-6(7)3-4-9-8/h6-8H,2-5H2,1H3/t6-,7+,8+/m0/s1
