19
gdb 126657	6.34709	0.68559	0.62955	1.7357	78.9	-0.2051	0.0081	0.2132	1764.5551	0.161334	-415.391643	-415.382526	-415.381582	-415.426638	32.535	
C	 0.0522003391	 1.5092619221	-0.1105992273	-0.381535
C	-0.0892578381	-0.0014562619	 0.0865769754	-0.19017
C	 0.7993089193	-0.5336936579	 1.2098325267	-0.118934
N	 0.615157001	-1.968356019	 1.3776990032	-0.394621
C	 1.3400875779	-2.6299216111	 2.3486844422	 0.381817
N	 1.5737073755	-3.9444306296	 2.2794611647	-0.316657
N	 2.2388370916	-4.1883648973	 3.4134154833	-0.075905
N	 2.4653205709	-3.1579210477	 4.202923128	-0.194704
C	 1.9030770863	-2.1384519919	 3.5493477056	-0.12795
H	 1.0840502357	 1.7847355215	-0.3540593054	 0.119231
H	-0.5869472528	 1.8611976294	-0.9253608436	 0.11893
H	-0.2323031243	 2.0561454502	 0.7949313043	 0.119563
H	-1.1306863672	-0.2613480256	 0.3084254592	 0.113155
H	 0.1678633816	-0.518955398	-0.8479781216	 0.097446
H	 1.8524551402	-0.2702020942	 1.0091960015	 0.094403
H	 0.5267301339	-0.0392741	 2.1508315137	 0.112572
H	 0.5787522821	-2.4851567777	 0.509406185	 0.239673
H	 2.5548589311	-5.114742311	 3.6452371836	 0.289045
H	 1.9259657661	-1.1399517303	 3.9523299216	 0.114642
55.4545	66.9706	100.9544	138.3487	229.422	276.3752	331.8804	344.885	437.4132	465.5886	611.8086	702.7959	738.9376	762.1686	773.0704	831.8759	899.9424	917.4092	991.7808	1015.2406	1051.2045	1100.747	1150.0991	1170.4339	1182.4728	1203.6501	1258.0747	1272.5329	1314.1684	1325.7154	1356.1391	1400.5398	1412.7859	1424.8966	1488.8619	1491.9936	1499.0514	1506.206	1520.0707	1527.5314	1610.7214	2950.5373	3014.6545	3033.332	3038.0355	3065.2084	3100.6095	3109.93	3278.9756	3582.6497	3683.2298
CCCNC1=NNN=C1	CCCNc1n[nH]nc1	
InChI=1S/C5H10N4/c1-2-3-6-5-4-7-9-8-5/h4H,2-3H2,1H3,(H2,6,7,8,9)	InChI=1S/C5H10N4/c1-2-3-6-5-4-7-9-8-5/h4H,2-3H2,1H3,(H2,6,7,8,9)
