13
gdb 12659	3.4724	2.00574	1.31733	4.0811	55.21	-0.2458	-0.076	0.1697	853.1298	0.096089	-435.778535	-435.771404	-435.77046	-435.810086	25.89	
O	 0.2070552917	 1.2854439594	 0.4493161353	-0.431348
C	-0.0048437983	-0.0336864964	 0.0447863105	 0.05447
C	-1.4908481277	-0.4065438408	-0.1469533107	-0.199931
N	-1.4316683316	-1.4128260013	-1.2050442284	-0.324467
C	-0.3024789033	-1.4158633242	-1.9776541652	 0.334601
O	-0.067147513	-2.0849755843	-2.9542786786	-0.347803
C	 0.5945726205	-0.349495012	-1.3175582278	 0.261783
O	 1.5421223139	 0.2107133872	-1.7993125886	-0.298717
H	 0.9788951912	 1.5988829492	-0.0446096335	 0.300556
H	 0.4384938042	-0.7540274297	 0.7564318373	 0.115277
H	-1.9482806085	-0.8149970486	 0.7573590954	 0.13087
H	-2.0491818247	 0.4870631252	-0.4501925438	 0.137822
H	-2.2216417944	-1.9883276439	-1.4540256518	 0.266885
84.6607	169.7031	234.3173	313.2976	333.3056	366.8556	483.1432	530.075	571.1692	633.5202	660.9851	746.3567	826.7166	964.918	1030.4106	1055.9714	1074.629	1169.0091	1195.6469	1236.8728	1274.2612	1323.0859	1368.0191	1407.6904	1442.2408	1531.7799	1844.6359	1862.6862	2943.264	3038.0498	3098.2898	3630.8743	3731.7787
OC1CNC(=O)C1=O	O[C@H]1CNC(=O)C1=O	
InChI=1S/C4H5NO3/c6-2-1-5-4(8)3(2)7/h2,6H,1H2,(H,5,8)	InChI=1S/C4H5NO3/c6-2-1-5-4(8)3(2)7/h2,6H,1H2,(H,5,8)/t2-/m0/s1
