18
gdb 13671	5.22646	0.8963	0.82178	2.0559	74.38	-0.2534	0.06	0.3133	1380.394	0.151762	-347.751218	-347.742279	-347.741335	-347.785189	32.733	
O	-0.0634139582	 1.4556641622	 0.1521902091	-0.415814
C	-0.0183507485	 0.0607907128	 0.0587974307	 0.084493
C	-0.6248219643	-0.7795117171	 1.1555166574	-0.327435
C	-1.3192625668	-0.6458133891	-0.1898463902	-0.014941
C	-2.6144562259	 0.1279898637	-0.3056359763	-0.197287
C	-3.8322944035	-0.7092171723	 0.1418450835	-0.347614
C	-5.0930078942	 0.0131730337	 0.0255666458	 0.294429
C	-6.1185927879	 0.6316034321	-0.0793708419	-0.440559
H	 0.5530185855	 1.7268065572	 0.8400443474	 0.288787
H	 0.8651377272	-0.3301199431	-0.4462443754	 0.085896
H	-0.1551158728	-1.7192775232	 1.4250163847	 0.110396
H	-1.0668505948	-0.236381635	 1.9853957101	 0.114072
H	-1.2541304779	-1.5151318095	-0.8402840606	 0.085803
H	-2.5551057899	 1.0399112506	 0.2935900335	 0.122816
H	-2.765063524	 0.4500217484	-1.3423601133	 0.111305
H	-3.8838671451	-1.629879305	-0.4547013671	 0.124873
H	-3.686998839	-1.0318457677	 1.1807625848	 0.129721
H	-7.02991902	 1.1685606713	-0.168746342	 0.191059
68.3744	83.6419	101.3315	206.0786	250.4068	293.9571	345.458	364.0983	452.9045	497.0197	584.3843	613.5435	633.1157	758.3096	776.7577	837.5575	883.2804	942.2566	966.6263	991.087	1033.8492	1049.1319	1072.6432	1131.1122	1140.8817	1178.6211	1228.5236	1239.2962	1278.3184	1300.9306	1313.9076	1362.6603	1405.2086	1426.715	1473.2277	1489.282	1499.8574	2237.9816	3016.0605	3041.8638	3052.4988	3094.286	3105.8173	3125.7363	3134.8588	3214.7512	3508.4147	3808.9826
OC1CC1CCC#C	O[C@H]1C[C@H]1CCC#C	
InChI=1S/C7H10O/c1-2-3-4-6-5-7(6)8/h1,6-8H,3-5H2	InChI=1S/C7H10O/c1-2-3-4-6-5-7(6)8/h1,6-8H,3-5H2/t6-,7+/m1/s1
