18
gdb 91071	3.1267	1.55441	1.54519	2.4959	70.85	-0.2329	0.0734	0.3063	960.3864	0.148571	-439.034966	-439.027583	-439.026639	-439.067179	28.959	
C	 0.4853528608	 1.4408291744	 0.0279283437	-0.40036
C	 0.041581226	-0.0062846144	 0.006196496	 0.241277
O	 0.5673393469	-0.6728119758	-1.1413256122	-0.27764
C	 1.1515124372	-1.8843035747	-0.7466953699	 0.083254
C	 2.6932599289	-1.9609133403	-0.6749941199	-0.085093
N	 3.1389259211	-0.782767255	 0.094509146	-0.325073
C	 2.6483959216	-1.9697709894	 0.8219380092	-0.085085
C	 1.1050992201	-1.8934024163	 0.8020939333	 0.083244
O	 0.497974736	-0.6863815074	 1.1752197146	-0.277632
H	 1.5756495954	 1.4766722441	 0.061112288	 0.149593
H	 0.1244873711	 1.9519268033	-0.8691020992	 0.116774
H	 0.0707172638	 1.9418178996	 0.9072421176	 0.116759
H	-1.0584291215	-0.0823830893	-0.0271843182	 0.070977
H	 0.6932117946	-2.7385284463	-1.2547028521	 0.081534
H	 3.3594919486	-2.4753781047	-1.3557153473	 0.095404
H	 4.1571248616	-0.8116687642	 0.1248653349	 0.235133
H	 3.2728301522	-2.4925001267	 1.535209685	 0.095404
H	 0.6174641857	-2.7533396468	 1.2716982803	 0.08153
51.6475	154.4291	240.2745	279.9201	336.6939	463.3446	463.7709	629.1632	639.2166	703.8385	749.7059	813.9119	835.8877	870.1208	880.406	890.1868	915.5057	953.5776	979.2385	1012.9084	1082.1566	1083.9236	1100.0125	1101.6247	1124.4193	1140.6041	1168.8225	1201.0065	1247.9681	1265.8331	1309.333	1341.7376	1365.6699	1376.6488	1377.0275	1390.9367	1425.1078	1481.32	1492.6065	2955.8505	3049.8109	3053.0825	3064.9382	3123.3025	3151.7382	3189.7699	3203.0557	3483.0805
CC1OC2C3NC3C2O1	C[C@H]1O[C@H]2[C@H]3N[C@H]3[C@H]2O1	
InChI=1S/C6H9NO2/c1-2-8-5-3-4(7-3)6(5)9-2/h2-7H,1H3	InChI=1S/C6H9NO2/c1-2-8-5-3-4(7-3)6(5)9-2/h2-7H,1H3/t2-,3-,4+,5-,6+
