18
gdb 82582	2.35555	2.21924	1.79554	3.5671	74.2	-0.2337	-0.0172	0.2165	871.1879	0.149216	-401.885063	-401.878169	-401.877225	-401.915943	28.232	
C	-0.4852348977	 1.496214698	 0.2279612068	-0.415277
C	-0.0251103449	 0.0620483935	 0.0216776473	-0.005228
C	 0.559697146	-0.4370846452	-1.3855985679	-0.090996
C	 1.2525176472	 0.6199905465	-2.2978107577	-0.176864
N	 2.2578823704	 1.2683274573	-1.3908392412	-0.255003
C	 2.4316913666	 0.3873828445	-0.5003549867	 0.319689
O	 2.38963154	 0.5257984704	 0.8756771503	-0.274457
C	 1.2623375489	-0.4567829914	 0.7843118001	 0.059035
C	 1.7517998106	-0.9688845461	-0.5735585154	-0.135481
H	 0.3183879296	 2.2031747921	 0.007918964	 0.159067
H	-1.3386081548	 1.7268608808	-0.4190336852	 0.115028
H	-0.8027815447	 1.6524174591	 1.2646946844	 0.118037
H	-0.8288723946	-0.6323410261	 0.2896464915	 0.088222
H	-0.0922981419	-1.1347470052	-1.9144699893	 0.070352
H	 1.6981853445	 0.1569484555	-3.1894904147	 0.107863
H	 0.572769601	 1.4065159735	-2.6387318488	 0.121229
H	 1.1677706963	-1.0021925287	 1.7214491948	 0.098141
H	 2.3259047975	-1.8759021184	-0.7487594223	 0.096644
187.4348	203.6019	208.4974	297.3888	408.6683	524.3536	536.5408	615.6186	664.0665	708.1605	734.7235	783.1443	839.1163	854.2825	892.4705	907.5044	918.5528	963.5904	982.743	1001.8227	1048.5773	1093.1941	1095.0774	1133.0755	1151.1051	1168.0992	1202.6035	1213.4081	1248.6935	1271.2583	1301.0897	1304.6653	1327.5086	1342.5877	1411.7731	1484.1536	1490.693	1503.9624	1697.8003	3010.8166	3032.9448	3049.4454	3084.3821	3095.252	3095.9947	3127.7696	3134.2197	3145.9718
CC1C2CN=C3OC1C23	C[C@H]1[C@H]2C[N][C]3O[C@@H]1[C@@H]23	
InChI=1S/C7H9NO/c1-3-4-2-8-7-5(4)6(3)9-7/h3-6H,2H2,1H3	InChI=1S/C7H9NO/c1-3-4-2-8-7-5(4)6(3)9-7/h3-6H,2H2,1H3/t3-,4+,5+,6-/m0/s1
