21
gdb 122789	4.4274	0.53416	0.4837	1.1937	81.03	-0.2499	-0.0933	0.1565	2247.7695	0.178855	-424.258216	-424.247308	-424.246364	-424.295998	37.188	
C	-0.1254687293	 1.5888535428	 0.2474911948	-0.380491
C	-0.0595453227	 0.0847209104	-0.0297611972	-0.164938
C	-1.4144787456	-0.6151363533	 0.1220402992	-0.167101
C	-1.3510313344	-2.1202798346	-0.154916163	-0.183396
C	-2.7062331708	-2.8086519822	-0.0010841679	-0.309532
C	-2.6711343429	-4.2928139078	-0.268347688	 0.280442
O	-1.6862671099	-4.9235401509	-0.5781947256	-0.275559
C	-3.9956928095	-5.0610380075	-0.1350356174	 0.094111
O	-5.039738685	-4.5460237499	 0.1664191053	-0.219286
H	 0.8554025842	 2.060116172	 0.1314486821	 0.112801
H	-0.8180554247	 2.0881165994	-0.439324497	 0.113913
H	-0.4722443364	 1.7886541591	 1.2675325307	 0.113912
H	 0.3227987038	-0.0860478455	-1.0447377029	 0.09693
H	 0.6659806224	-0.3831470804	 0.6486454524	 0.096931
H	-1.7989285577	-0.4450492993	 1.1376653191	 0.093143
H	-2.1422491248	-0.1478176581	-0.5563312404	 0.093144
H	-0.970300249	-2.2987541274	-1.1675631894	 0.110647
H	-0.628411393	-2.5948107582	 0.5195423065	 0.11066
H	-3.1247294256	-2.6648688731	 1.0052374949	 0.138463
H	-3.4635660889	-2.3716413502	-0.6673746016	 0.138466
H	-3.8835108102	-6.1456421853	-0.3478775545	 0.106739
43.977	57.9717	79.6234	116.6013	134.1732	139.9678	186.6862	227.9241	244.8246	370.3998	417.0074	459.1841	514.6797	649.3396	722.4901	747.7689	816.5168	826.3328	908.6965	938.5957	1002.8897	1018.1481	1055.8203	1069.1832	1123.0103	1126.9026	1162.6709	1223.9066	1275.8027	1284.3188	1325.7686	1334.958	1346.2564	1363.8486	1395.3259	1405.0702	1415.0477	1436.633	1483.8398	1488.3576	1499.9144	1501.1505	1513.8093	1801.8417	1825.2286	2920.357	3002.4922	3017.3189	3020.081	3027.0097	3029.7491	3038.5186	3040.6238	3052.1567	3079.057	3095.9983	3102.3911
CCCCCC(=O)C=O	CCCCCC(=O)C=O	
InChI=1S/C7H12O2/c1-2-3-4-5-7(9)6-8/h6H,2-5H2,1H3	InChI=1S/C7H12O2/c1-2-3-4-5-7(9)6-8/h6H,2-5H2,1H3
