16
gdb 45790	3.04283	1.53046	1.12395	4.172	72.69	-0.2168	-0.0006	0.2163	1061.1178	0.125167	-437.922459	-437.91489	-437.913946	-437.954899	29.324	
O	 0.0659431413	-0.0105094595	 0.1653587829	-0.379023
C	-0.0070340897	 1.1785903165	 0.0017169113	 0.460344
N	-1.2023374079	 1.8730000336	 0.0079114763	-0.395924
C	-1.2778151148	 3.2660599355	 0.0127962419	 0.001722
C	-0.2029442554	 3.9921654248	-0.2881411495	-0.201626
C	 1.0420595102	 3.2812442786	-0.6388070871	 0.41481
C	 1.7521149826	 3.5056321963	-1.9561748356	-0.311915
C	 2.3825416324	 3.9510219724	-0.6543295052	-0.319023
O	 1.1054786189	 1.9350603505	-0.1540396297	-0.290713
H	-2.0042762426	 1.3121822376	 0.2419215996	 0.268489
H	-2.2413746867	 3.6833710728	 0.2754524316	 0.128333
H	-0.2236874943	 5.0730636691	-0.2902518245	 0.110469
H	 2.1676005954	 2.6250893503	-2.4327178043	 0.135906
H	 1.350814731	 4.2532897226	-2.6312931445	 0.120063
H	 2.4219675662	 5.0099409259	-0.4231357654	 0.120323
H	 3.2144105433	 3.367951323	-0.2769872478	 0.137767
59.2915	120.1561	265.3455	272.8399	396.5354	444.2402	485.302	498.9015	552.3509	602.7161	687.3657	716.9293	764.803	766.9832	863.0023	896.1497	912.7379	927.4601	951.6539	977.7133	1021.4814	1056.1954	1078.0204	1103.8052	1171.6129	1191.2481	1241.3702	1291.3586	1349.0015	1431.1585	1449.3394	1468.4775	1489.3187	1731.4082	1855.4158	3136.4008	3138.8227	3212.1489	3223.746	3233.449	3237.9491	3667.5632
O=C1NC=CC2(CC2)O1	O=C1NC=CC2(CC2)O1	
InChI=1S/C6H7NO2/c8-5-7-4-3-6(9-5)1-2-6/h3-4H,1-2H2,(H,7,8)	InChI=1S/C6H7NO2/c8-5-7-4-3-6(9-5)1-2-6/h3-4H,1-2H2,(H,7,8)
