21
gdb 122270	2.69512	0.92972	0.76929	2.725	81.3	-0.2407	-0.0199	0.2207	1572.6859	0.179589	-424.219985	-424.20983	-424.208886	-424.255897	36.453	
C	 0.1293937324	 1.4175682404	 0.300000658	-0.383596
C	-0.0743802775	-0.0629117892	-0.0313516246	-0.18096
C	 0.7674459208	-0.5079622152	-1.217752088	-0.067207
O	 0.5131731978	-1.8979500942	-1.4389381162	-0.291423
C	 1.2432868323	-2.4760401578	-2.4595123408	 0.343906
C	 2.6968800877	-2.8765515308	-2.1889538005	-0.324553
C	 1.6322807885	-3.9249037964	-2.2379790874	-0.311606
C	 0.9157774295	-2.0876731722	-3.8563107945	 0.120876
O	 0.0966174964	-1.2624728482	-4.1744202543	-0.276485
H	 1.1735229226	 1.6310141721	 0.5549339178	 0.113997
H	-0.1416854352	 2.0565743526	-0.5473871062	 0.121462
H	-0.4872578296	 1.7170896173	 1.1521815469	 0.117244
H	 0.179190947	-0.685695054	 0.8345529517	 0.100329
H	-1.1275504383	-0.2593610172	-0.2612296771	 0.113172
H	 0.5088873676	 0.0659939636	-2.1147208767	 0.12296
H	 1.8385669423	-0.35489449	-1.0105755581	 0.081118
H	 3.4137834088	-2.8140848078	-3.0004886398	 0.126351
H	 3.0753263704	-2.5840611945	-1.2168020584	 0.136538
H	 1.2818336481	-4.3392761717	-1.3004914397	 0.142818
H	 1.5971464658	-4.6008233259	-3.0853254718	 0.126571
H	 1.5140043626	-2.6401506909	-4.6198252201	 0.068489
48.8298	73.1553	127.2457	146.9023	166.736	223.8321	232.2775	297.6866	335.3915	345.0663	413.8615	526.0102	557.8546	768.4621	775.5064	812.4348	849.8221	893.6642	903.7811	908.1328	967.4096	989.8504	1037.8949	1048.3301	1057.5429	1085.2245	1095.2633	1150.1472	1190.8695	1197.9478	1266.7076	1269.1388	1317.7027	1334.9519	1347.3184	1414.4314	1425.2499	1443.8054	1451.8065	1485.7848	1493.473	1500.5462	1508.5305	1525.4842	1820.8512	2846.1137	2979.334	3032.5934	3037.7593	3059.7819	3077.2432	3101.8786	3109.0013	3140.6715	3142.9486	3228.0114	3242.1347
CCCOC1(CC1)C=O	CCCOC1(CC1)C=O	
InChI=1S/C7H12O2/c1-2-5-9-7(6-8)3-4-7/h6H,2-5H2,1H3	InChI=1S/C7H12O2/c1-2-5-9-7(6-8)3-4-7/h6H,2-5H2,1H3
