23
gdb 104305	2.74439	1.26843	1.20184	1.4597	83.87	-0.2262	0.0812	0.3074	1204.7776	0.206034	-388.284775	-388.275725	-388.27478	-388.317971	35.862	
C	 0.0885726272	 1.560669194	-0.0928767945	-0.395649
C	-0.0195360493	 0.0343916818	 0.0208293943	-0.214682
C	-1.4522639908	-0.5314630587	 0.0498602143	 0.287531
C	-2.229410859	-0.0727068899	 1.2973828674	-0.438933
C	-2.2520029308	-0.1798593513	-1.23772382	-0.132724
O	-3.1595146954	-1.2536400903	-1.4794959352	-0.261189
C	-2.5886262091	-2.4201351845	-0.9433785558	 0.114642
C	-1.166196338	-2.7604006181	-1.3054900619	-0.355896
C	-1.4868258546	-2.0625972186	 0.0079865957	-0.095585
H	 1.1376895481	 1.8678939297	-0.1448976406	 0.114316
H	-0.4065229549	 1.9357066389	-0.9951170466	 0.118895
H	-0.3575858334	 2.0701793835	 0.7666683441	 0.119251
H	 0.5145739734	-0.4245750837	-0.8200890663	 0.09442
H	 0.5041882643	-0.2970097593	 0.9267796893	 0.092728
H	-2.3027050029	 1.0176174313	 1.3497969029	 0.112649
H	-3.2467050904	-0.4754176907	 1.280863561	 0.126709
H	-1.7417933699	-0.4205257505	 2.2148271581	 0.108952
H	-2.8415225989	 0.7361834408	-1.1444777672	 0.107422
H	-1.570959986	-0.0561458699	-2.0928222665	 0.088874
H	-3.3281186158	-3.1935295101	-0.7737489406	 0.098342
H	-0.8781789476	-3.8046586117	-1.2456961911	 0.111745
H	-0.6752858881	-2.2134053202	-2.1033712033	 0.115807
H	-1.3317033783	-2.5988794125	 0.9377895524	 0.082376
99.5343	143.7771	179.2424	231.8746	255.5225	288.7973	324.5676	366.1235	406.4832	409.3265	482.8932	596.9714	701.1134	738.0544	784.6062	799.835	836.397	909.2386	916.0019	945.7364	972.6865	980.5301	1008.752	1015.1774	1027.3874	1063.4222	1065.3577	1082.2628	1101.9496	1155.4742	1196.824	1199.8748	1222.3852	1231.6656	1258.4579	1303.9185	1336.6827	1366.6379	1376.6408	1393.3626	1410.4348	1419.6306	1474.7521	1482.9277	1497.7401	1499.0503	1507.0961	1513.6214	1526.446	2988.6684	3019.2683	3032.4625	3037.2277	3052.5798	3084.8844	3099.5648	3101.5434	3106.2487	3112.9218	3131.3079	3164.2087	3184.9813	3215.1535
CCC1(C)COC2CC12	CC[C@@]1(C)CO[C@H]2C[C@@H]12	
InChI=1S/C8H14O/c1-3-8(2)5-9-7-4-6(7)8/h6-7H,3-5H2,1-2H3	InChI=1S/C8H14O/c1-3-8(2)5-9-7-4-6(7)8/h6-7H,3-5H2,1-2H3/t6-,7+,8+/m1/s1
