20
gdb 66319	5.10344	0.62491	0.59856	4.169	78.88	-0.2483	0.0294	0.2777	1868.89	0.168379	-440.25998	-440.249622	-440.248678	-440.297737	36.21	
O	 0.0308274052	 1.4324753299	-0.15018676	-0.475312
C	 0.0403975586	 0.0280193186	-0.0472835485	 0.435161
C	 1.1915812319	-0.521198368	-0.8568644596	-0.23931
C	 2.5374648298	-0.0051026242	-0.3592414324	-0.078128
O	 3.5663406405	-0.6138310963	-1.1417450812	-0.180914
C	 4.6944584803	 0.0912615201	-1.3351377838	 0.125513
N	 5.6883633347	-0.4426740175	-1.9023174348	-0.442377
C	-0.3585069468	-0.629808646	 1.2485938996	-0.329228
C	-1.2578501292	-0.725318447	 0.0232920704	-0.336907
H	-0.6701024351	 1.7828159402	 0.4076672305	 0.282874
H	 1.1855064275	-1.6143047479	-0.8109867216	 0.114681
H	 1.0676294385	-0.2376997955	-1.9079985717	 0.118861
H	 2.5800336386	 1.0861358391	-0.4470970936	 0.124223
H	 2.6853218553	-0.2682121604	 0.6963753414	 0.109519
H	 4.6305048066	 1.1265077429	-0.9698693772	 0.082492
H	 6.4403013017	 0.2376213159	-1.9904917479	 0.226509
H	 0.1699681917	-1.5196713189	 1.5742820106	 0.121296
H	-0.6845944227	 0.0108552799	 2.0625302707	 0.109003
H	-2.1741173394	-0.1428269607	 0.0275820653	 0.110588
H	-1.3423890477	-1.6789173444	-0.4870330764	 0.121457
13.3439	60.5986	95.5844	102.916	157.4893	165.3078	255.4972	289.4497	342.513	418.8884	429.3571	505.5691	638.7563	738.9138	770.5519	805.7188	819.6245	874.5559	935.7224	943.8496	980.0654	1005.3833	1044.5639	1049.3281	1067.8138	1075.0252	1087.6641	1140.5177	1179.9991	1185.6444	1216.3138	1292.6574	1307.4789	1319.127	1347.509	1402.4783	1426.1368	1442.9874	1461.8956	1482.1293	1504.1982	1517.4356	1745.2592	3008.9976	3019.6326	3049.4128	3069.6106	3102.4954	3122.119	3126.8523	3201.8997	3216.7759	3517.2742	3829.0023
OC1(CCOC=N)CC1	OC1(CCO[CH][NH])CC1	
InChI=1S/C6H11NO2/c7-5-9-4-3-6(8)1-2-6/h5,7-8H,1-4H2	InChI=1S/C6H11NO2/c7-5-9-4-3-6(8)1-2-6/h5,7-8H,1-4H2
