17
gdb 8016	3.35583	2.00627	1.54365	3.8927	68.46	-0.2392	0.0303	0.2696	866.0097	0.142725	-363.879023	-363.871691	-363.870747	-363.910351	28.341	
C	-0.0332970228	 1.569044984	-0.0287946565	-0.473949
C	 0.0284503139	 0.0623859867	 0.0545273164	 0.375414
C	-1.2887533594	-0.7494406787	 0.2718099953	-0.268467
C	-0.6094187104	-1.55395648	 1.4192349134	-0.225611
C	 0.7159156972	-0.7618034542	 1.204627188	-0.249795
C	 1.5739453546	-1.3880942657	 0.0902048266	 0.430007
O	 2.3974419235	-2.2603699745	 0.0147629064	-0.365575
N	 0.9746524226	-0.5884177334	-0.8667843637	-0.365997
H	 0.9709854374	 2.0022473283	-0.0047376819	 0.128269
H	-0.5188387363	 1.8898045253	-0.9584781697	 0.12052
H	-0.612033427	 1.9809148041	 0.8037562931	 0.122413
H	-2.123464815	-0.1319588208	 0.613049318	 0.105953
H	-1.616662087	-1.3243951563	-0.5973015681	 0.100945
H	-1.0586936885	-1.3620337807	 2.3953045833	 0.111767
H	-0.5287339257	-2.6345021501	 1.2847931621	 0.121259
H	 1.2202220463	-0.3212643631	 2.0627976904	 0.093602
H	 0.8990395065	-0.7504948609	-1.8632228532	 0.239245
105.6548	187.7281	223.3316	276.6374	322.8801	394.9714	473.978	497.8652	617.4861	661.1077	732.2974	750.6879	800.3974	868.8487	912.9894	920.9465	955.7795	990.2355	992.4652	1081.7311	1120.6381	1132.4042	1165.3926	1211.7814	1222.5867	1235.1657	1268.3626	1284.2037	1307.9165	1369.9601	1413.6281	1472.7224	1487.4093	1492.3517	1494.5243	1886.7315	3028.383	3061.8992	3074.8868	3092.6072	3108.654	3114.8896	3127.9545	3137.5978	3568.4111
CC12CCC1C(=O)N2	C[C@]12CC[C@H]1C(=O)N2	
InChI=1S/C6H9NO/c1-6-3-2-4(6)5(8)7-6/h4H,2-3H2,1H3,(H,7,8)	InChI=1S/C6H9NO/c1-6-3-2-4(6)5(8)7-6/h4H,2-3H2,1H3,(H,7,8)/t4-,6-/m0/s1
