19
gdb 90158	3.1148	1.52091	1.40894	0.7341	73.98	-0.2255	0.056	0.2815	1017.8518	0.1593	-422.968768	-422.961	-422.960056	-423.000707	30.846	
C	-0.2164424112	 1.4080369479	 0.011501775	-0.40476
C	 0.1012624444	-0.0623072758	 0.1672646903	 0.07737
O	 1.0894804112	-0.5524750943	-0.8047051496	-0.342682
C	 1.8348919074	-1.1640734004	 0.2610675265	 0.337928
C	 2.4209654397	-0.1602150783	 1.2111719904	-0.378317
C	 0.9697051708	-0.5736041267	 1.3310035572	 0.244331
O	 0.6015771116	-1.5419982752	 2.2547519028	-0.297178
C	 0.7531556313	-2.8275805408	 1.6071528684	-0.087267
C	 1.8575010143	-2.6574073618	 0.5116582161	-0.325928
H	 0.6780933881	 2.0238435606	 0.1369976515	 0.122823
H	-0.6319243395	 1.6050262337	-0.9818699656	 0.127281
H	-0.9563570835	 1.7103362742	 0.7600400313	 0.125146
H	-0.8110876674	-0.6682072573	 0.0911715386	 0.087545
H	 3.058391416	-0.559454688	 1.9919463811	 0.127964
H	 2.6893416805	 0.8254430557	 0.8444436525	 0.121399
H	 1.0052680091	-3.5589897318	 2.380085155	 0.11305
H	-0.1999287871	-3.1256964083	 1.1491438759	 0.106628
H	 1.6160236114	-3.2145728419	-0.3959039293	 0.127473
H	 2.832019063	-2.9983630714	 0.8713363519	 0.117195
126.3432	155.0536	214.8949	239.936	310.8046	370.7334	437.8673	482.0937	566.7025	615.001	663.3714	749.6838	808.0763	838.0352	849.0563	883.882	889.6882	916.8404	942.2887	985.2568	1000.984	1047.7424	1060.706	1082.8251	1131.5015	1161.4094	1186.3237	1208.2597	1225.5856	1271.1669	1288.6554	1309.7646	1352.8112	1376.1194	1394.0445	1412.6659	1463.5491	1476.879	1481.5527	1492.7587	1516.8689	3009.3239	3021.024	3038.7516	3065.5172	3091.3343	3108.8352	3120.443	3123.5904	3129.3849	3228.5385
CC1OC23CC12OCC3	C[C@H]1O[C@@]23C[C@@]12OCC3	
InChI=1S/C7H10O2/c1-5-7-4-6(7,9-5)2-3-8-7/h5H,2-4H2,1H3	InChI=1S/C7H10O2/c1-5-7-4-6(7,9-5)2-3-8-7/h5H,2-4H2,1H3/t5-,6+,7-/m1/s1
