20
gdb 66767	2.36749	2.16564	1.74485	1.8545	80.23	-0.2241	0.0797	0.3037	915.5354	0.173503	-365.969109	-365.962076	-365.961132	-366.000073	29.325	
C	 0.0201223982	 1.5552552252	 0.0105926536	-0.528305
C	 0.0223269077	 0.0525090226	-0.0335969764	 0.304829
C	 0.5511332026	-0.9063002696	-1.1588257036	-0.121634
C	 0.8572836643	-1.8763811141	-0.085371946	-0.04829
C	 0.7722228107	-0.8290726591	 1.0286701579	-0.0696
C	-0.2086266925	-1.1743249988	 2.1554636737	-0.236163
C	-1.5849117045	-1.2385326602	 1.4224305356	-0.228268
C	-1.2504273432	-0.8313695744	-0.0128400316	 0.002827
N	-0.4904194893	-1.8989894579	-0.766231368	-0.156352
H	 1.0359481835	 1.9608569713	-0.0547126499	 0.119678
H	-0.5616468598	 1.9788157586	-0.8159124782	 0.120328
H	-0.4209545287	 1.9190847698	 0.9463620784	 0.120481
H	 0.9149308212	-0.7789635765	-2.169921881	 0.092175
H	 1.4279277868	-2.796166751	-0.1184620591	 0.08985
H	 1.7477548448	-0.4467105216	 1.336350229	 0.065566
H	 0.0514183284	-2.1169246166	 2.6466671722	 0.10177
H	-0.2062079232	-0.3993193128	 2.9294948152	 0.095578
H	-2.0247592181	-2.2403675549	 1.4385963362	 0.111552
H	-2.3149721387	-0.5560073341	 1.8690760048	 0.097156
H	-2.0918865101	-0.4933179359	-0.6214890828	 0.066819
178.6604	207.2755	209.1084	277.2938	382.6219	459.4897	601.6	660.6327	672.175	737.9389	761.5514	783.0374	831.2102	852.6268	883.6003	889.8536	898.0257	938.7552	965.6481	985.9941	995.6492	1015.907	1054.7725	1066.6349	1113.851	1132.1598	1159.0537	1187.0552	1201.4043	1209.971	1224.3348	1251.8216	1269.684	1308.7219	1323.5853	1335.3162	1340.1313	1383.148	1415.371	1476.8104	1488.0254	1495.0051	1499.7258	3020.749	3039.2517	3051.3836	3076.4229	3084.4696	3087.146	3090.3209	3094.8282	3098.2017	3186.9665	3204.2171
CC12C3C4C1CCC2N34	C[C@@]12[C@H]3[C@H]4[C@@H]1CC[C@@H]2N34	
InChI=1S/C8H11N/c1-8-4-2-3-5(8)9-6(4)7(8)9/h4-7H,2-3H2,1H3	InChI=1S/C8H11N/c1-8-4-2-3-5(8)9-6(4)7(8)9/h4-7H,2-3H2,1H3/t4-,5-,6+,7+,8+,9?/m0/s1
