19
gdb 61631	3.09906	0.87082	0.80053	2.0172	78.24	-0.2526	0.0375	0.2901	1486.9765	0.156344	-422.963682	-422.953658	-422.952714	-422.999175	36.926	
O	-0.9509192083	 0.6180935742	 0.0747454627	-0.422626
C	 0.1440775263	-0.2652717413	-0.1728341068	-0.052532
C	 1.1057542214	 0.2948564182	-1.242015349	-0.222466
C	 0.3889416718	 0.5911998281	-2.5406362591	-0.012752
C	 1.1621147897	 0.6398305287	-3.8444248425	-0.354671
C	 0.2064272771	-0.4936853647	-3.5633013595	 0.107261
O	 0.7115898244	-1.756934049	-3.232357752	-0.41993
C	 0.8587313248	-0.5885356254	 1.0650110644	 0.292388
C	 1.4600028239	-0.8007049112	 2.084526076	-0.44041
H	-0.6145715287	 1.3481438219	 0.6065914211	 0.282851
H	-0.3147308914	-1.175981332	-0.5740654515	 0.135022
H	 1.5773200808	 1.2052307831	-0.8496966549	 0.092833
H	 1.9007316249	-0.4372655494	-1.406790987	 0.119936
H	-0.441068435	 1.2824094912	-2.4396288454	 0.099729
H	 0.8970225916	 1.3809066518	-4.5909397227	 0.110529
H	 2.2204561356	 0.4029645838	-3.7943117983	 0.112372
H	-0.7335163462	-0.5127070334	-4.1143227627	 0.086717
H	 1.0832509147	-2.149167224	-4.028898117	 0.289198
H	 1.9791397224	-1.0107328605	 2.986934534	 0.196553
50.1666	64.0038	115.5995	190.2468	216.9119	264.8927	294.0415	311.8319	316.865	416.6394	438.7389	539.865	566.5182	587.1469	628.7937	668.4142	781.5245	815.1284	852.975	862.3831	944.7779	1003.2384	1018.5863	1027.8458	1064.8845	1083.7886	1136.2295	1143.7632	1173.4647	1224.3356	1235.8587	1277.5141	1292.4391	1310.6376	1356.7493	1397.2925	1421.1772	1428.3298	1469.229	1491.5075	2231.0787	3025.0889	3057.8089	3100.5933	3100.9452	3126.5731	3168.6218	3215.0409	3503.676	3802.5429	3810.6646
OC(CC1CC1O)C#C	O[C@@H](C[C@H]1C[C@H]1O)C#C	
InChI=1S/C7H10O2/c1-2-6(8)3-5-4-7(5)9/h1,5-9H,3-4H2	InChI=1S/C7H10O2/c1-2-6(8)3-5-4-7(5)9/h1,5-9H,3-4H2/t5-,6+,7+/m0/s1
