17
gdb 30456	3.33808	1.28985	0.9413	3.7777	74.	-0.1765	0.0437	0.2202	1217.3902	0.134179	-455.154067	-455.144182	-455.143238	-455.190394	33.691	
C	-0.0002637741	 1.3807458401	-0.0314992124	-0.315101
N	 0.0038511855	-0.0719747755	-0.0426086284	-0.397136
C	-1.1146350601	-0.6619324336	-0.012602291	 0.52212
O	-2.3642617303	-0.09254176	 0.023668839	-0.23305
C	-3.3102425249	-1.1251131713	 0.0339181596	-0.222834
C	-2.6553520146	-2.2953017269	 0.0108992558	 0.355614
O	-3.0463111726	-3.5852931736	 0.0089864747	-0.427282
N	-1.2948471057	-2.0361469942	-0.0110578996	-0.172939
C	-0.2060895476	-2.9850708482	-0.0665243022	-0.334215
H	 1.0297541165	 1.7396770906	-0.1051190236	 0.11226
H	-0.5685143135	 1.8080648308	-0.8704198946	 0.110074
H	-0.4344065856	 1.7920330652	 0.8915242816	 0.109972
H	-4.3476645327	-0.8499306486	 0.06103047	 0.135943
H	-4.0075311349	-3.6225933403	 0.0464123832	 0.315309
H	-0.605803038	-3.9871434215	 0.0895094043	 0.147188
H	 0.3029323189	-2.9405399053	-1.0352629038	 0.141922
H	 0.5246008337	-2.7501250277	 0.7118722872	 0.152155
32.3415	41.6275	103.7673	126.1994	180.9459	248.7595	267.6279	276.0936	354.9099	368.2243	533.9695	570.6427	620.9372	644.3903	729.4565	735.5467	774.9145	945.8133	1079.5038	1087.2548	1107.7724	1123.3755	1158.724	1162.8358	1178.0028	1272.9911	1297.6549	1373.4599	1444.2447	1450.5097	1479.4145	1490.2912	1499.9885	1507.3733	1550.6009	1721.6107	1798.6581	2984.8548	3028.1073	3041.3138	3094.7748	3102.2798	3158.3754	3309.7494	3837.8967
CN=C1OC=C(O)N1C	CN=c1occ(O)n1C	
InChI=1S/C5H8N2O2/c1-6-5-7(2)4(8)3-9-5/h3,8H,1-2H3	InChI=1S/C5H8N2O2/c1-6-5-7(2)4(8)3-9-5/h3,8H,1-2H3
