17
gdb 67823	2.63407	2.3028	1.63054	0.8906	71.27	-0.2324	0.0029	0.2353	850.9606	0.137654	-421.795418	-421.78889	-421.787946	-421.825733	27.953	
O	-0.0547739452	 1.4066693425	-0.0610823635	-0.494759
C	 0.0070981259	 0.0094172637	-0.101428978	 0.373703
C	 0.6089111441	-0.6604349008	-1.2933344643	-0.16009
C	 0.1457408984	-1.916721335	-1.3308250346	-0.08139
C	-0.6852704959	-2.1091100797	-0.0841218493	 0.033667
O	 0.3053875061	-2.0945230432	 1.0188740176	-0.277329
C	 0.2954485183	-0.7163979647	 1.334505011	 0.018808
C	-1.1872737769	-0.4535194388	 1.6703807626	-0.254212
C	-1.3466736747	-0.7238294227	 0.1583663683	-0.09779
H	 0.8303802177	 1.7440816874	 0.1102011574	 0.284423
H	 1.34382956	-0.2038108651	-1.9455675404	 0.09945
H	 0.4391826107	-2.7105469038	-2.0053757823	 0.10556
H	-1.2978376884	-3.0053068811	-0.0009014616	 0.078548
H	 1.1406304704	-0.4506687548	 1.9693529436	 0.076572
H	-1.6512371153	-1.1398018134	 2.3809766625	 0.096342
H	-1.3998397734	 0.5874071679	 1.9126640316	 0.116536
H	-2.2329528118	-0.4809679685	-0.4270794606	 0.081961
224.8324	295.954	325.7981	384.3293	413.7012	461.2307	520.8249	614.7683	661.851	704.2568	750.8285	770.04	826.0496	850.2927	892.7076	913.4576	934.1265	948.8893	966.3279	988.5198	1002.0151	1034.5433	1081.6631	1105.6818	1127.3739	1146.3046	1186.9784	1224.2147	1242.2845	1248.5007	1268.7696	1287.0146	1326.2739	1350.7519	1375.0826	1480.2691	1630.9107	3082.4967	3123.525	3126.0854	3134.4403	3155.0174	3196.0177	3224.7877	3813.3282
OC12C=CC3OC1CC23	O[C@@]12C=C[C@H]3O[C@@H]1C[C@@H]23	
InChI=1S/C7H8O2/c8-7-2-1-5-4(7)3-6(7)9-5/h1-2,4-6,8H,3H2	InChI=1S/C7H8O2/c8-7-2-1-5-4(7)3-6(7)9-5/h1-2,4-6,8H,3H2/t4-,5-,6-,7-/m1/s1
