18
gdb 56701	1.99991	1.36157	1.23014	4.0946	81.9	-0.2577	0.0257	0.2833	1166.4211	0.145406	-364.784787	-364.775249	-364.774305	-364.819119	35.277	
C	 0.1760343376	 1.4210452101	 0.2839700901	-0.401714
C	-0.042720061	-0.0712246513	-0.0269989973	-0.220314
C	-1.4758588048	-0.3777881352	-0.138642604	 0.285073
N	-2.6036102501	-0.6186978107	-0.2116318791	-0.323141
C	 0.7139499366	-0.5328761716	-1.2835496307	 0.15704
C	 2.1509968952	-0.996866594	-1.0867982156	-0.309811
C	 1.0797740969	-2.0044779008	-1.3862826646	-0.295306
C	 0.388845169	 0.1682515098	-2.4965832246	 0.290617
C	 0.1095172724	 0.7625163517	-3.5041981982	-0.448037
H	 1.2433409848	 1.6125154611	 0.4236856946	 0.127345
H	-0.1822343901	 2.0388728643	-0.5422207042	 0.15331
H	-0.3555675871	 1.709941221	 1.1935885262	 0.135613
H	 0.3379736496	-0.6644997731	 0.8139261312	 0.122926
H	 2.8602203445	-0.7504523418	-1.8673331403	 0.136628
H	 2.5519011944	-0.9514625225	-0.079602691	 0.122183
H	 0.7390421269	-2.6528316952	-0.5861923088	 0.129123
H	 1.0533468751	-2.4511151607	-2.3723369306	 0.138376
H	-0.1460393899	 1.2783072788	-4.396518993	 0.200089
56.227	116.8215	148.2914	207.1124	217.914	231.2728	256.0274	334.274	388.5965	469.4367	542.5352	559.7816	585.3597	599.4167	665.0483	708.4492	776.8954	836.7424	906.6924	918.2141	949.8718	973.9324	1022.4204	1063.9878	1086.8736	1099.172	1119.7328	1191.6068	1251.5183	1287.5053	1322.5285	1363.9896	1408.8625	1467.7906	1490.1925	1496.53	1498.907	2236.0069	2358.7974	3033.2085	3053.457	3130.0051	3137.5728	3140.77	3145.1081	3226.493	3240.9572	3502.7371
CC(C#N)C1(CC1)C#C	C[C@@H](C#N)C1(CC1)C#C	
InChI=1S/C8H9N/c1-3-8(4-5-8)7(2)6-9/h1,7H,4-5H2,2H3	InChI=1S/C8H9N/c1-3-8(4-5-8)7(2)6-9/h1,7H,4-5H2,2H3/t7-/m0/s1
