19
gdb 52814	2.91036	1.10501	0.93114	1.6582	84.62	-0.2297	0.0339	0.2636	1348.0169	0.156584	-385.826534	-385.817092	-385.816148	-385.861697	34.559	
C	 0.0035512353	 1.4913789195	-0.0205479678	-0.501943
C	-0.0131481278	 0.0362043652	-0.0075247552	 0.071698
C	-0.0272028339	-1.1681467026	 0.01183952	 0.084274
C	-0.0390608648	-2.6253160177	 0.0178590784	 0.20272
C	 1.0023009853	-3.2115126027	-0.9294135302	-0.433904
O	 0.1625286406	-3.1838662417	 1.3708921524	-0.323026
C	-1.0594588707	-3.914782699	 1.2657855964	 0.100216
C	-2.2337933635	-2.9953001275	 1.1502553108	-0.309655
C	-1.4094578645	-3.3248857781	-0.0747626592	-0.15718
H	 0.7830822783	 1.8764053751	-0.687024201	 0.149396
H	-0.9558586117	 1.8975353043	-0.3594648367	 0.149639
H	 0.1966109901	 1.8901109092	 0.9814575478	 0.153793
H	 2.0021421278	-2.8858244684	-0.6317785329	 0.133507
H	 0.9601212901	-4.3035520182	-0.8984837859	 0.12061
H	 0.8166149679	-2.874592317	-1.9541960879	 0.121407
H	-1.0787790604	-4.9268180324	 1.6525877436	 0.101958
H	-3.208707229	-3.4729423796	 1.1753861497	 0.112185
H	-2.1868180196	-2.0049050843	 1.5931048704	 0.124991
H	-1.8104001793	-3.768517894	-0.9762060926	 0.099315
31.0794	83.3434	107.9592	200.1879	236.5583	268.3279	293.0747	336.8037	412.4105	461.5995	493.4307	542.7357	592.4796	761.4384	795.459	845.5331	861.6946	913.9407	969.8386	983.7014	1011.0976	1045.2015	1051.0733	1051.4073	1054.3743	1060.5216	1087.0305	1124.8779	1155.2666	1203.8358	1274.7599	1291.7151	1349.8521	1400.1215	1413.4119	1469.8425	1476.5089	1478.0583	1482.0624	1484.8864	2365.3768	3027.9292	3041.7229	3089.2002	3090.3209	3117.7513	3119.5467	3129.5177	3180.1924	3200.5862	3212.9759
CC#CC1(C)OC2CC12	CC#C[C@@]1(C)O[C@H]2C[C@@H]12	
InChI=1S/C8H10O/c1-3-4-8(2)6-5-7(6)9-8/h6-7H,5H2,1-2H3	InChI=1S/C8H10O/c1-3-4-8(2)6-5-7(6)9-8/h6-7H,5H2,1-2H3/t6-,7+,8-/m1/s1
