16
gdb 60886	2.52	1.37574	1.13576	3.5988	67.	-0.262	-0.0415	0.2205	1102.3369	0.121463	-475.002464	-474.993509	-474.992565	-475.036606	31.989	
O	 0.1704550166	 1.5432262247	 0.1956046829	-0.429816
C	 0.0905204207	 0.1516352707	 0.0926658106	-0.034403
C	 0.6478041525	-0.3009934852	-1.2559189576	 0.146999
O	 0.859961476	 0.4975094105	-2.1334526416	-0.268961
C	 0.7608035559	-0.5209170503	 1.2822504473	 0.19442
C	 0.1090252025	-0.3840997322	 2.6189070173	-0.26497
N	 0.1373935997	-1.6864667036	 1.967739376	-0.353628
C	 2.246495988	-0.6476963882	 1.2254744861	 0.148747
O	 2.9024470933	-0.3479057982	 0.259277472	-0.254169
H	 0.470290926	 1.8465833016	-0.6781580785	 0.300932
H	-0.9684473352	-0.1815329864	 0.091654352	 0.084537
H	 0.7698359006	-1.3914461936	-1.4032895128	 0.106561
H	 0.724841972	-0.3011712454	 3.5102751986	 0.135668
H	-0.8138603868	 0.1883125499	 2.6436251875	 0.142643
H	-0.7593795183	-1.8925619938	 1.5325349575	 0.245107
H	 2.7066736965	-1.0725250705	 2.1419549426	 0.100333
53.3272	121.0857	139.0758	185.7353	207.4428	288.4355	329.052	341.0172	412.1839	472.6996	510.8956	539.8364	718.2983	812.6077	822.1508	889.8401	916.9138	962.4488	977.3969	1023.7646	1046.402	1084.1046	1132.8747	1166.1796	1236.9142	1256.199	1310.4704	1341.3695	1374.4465	1391.8622	1418.5161	1451.1614	1507.9985	1812.8096	1822.5393	2891.2722	2922.0202	2951.6196	3114.1499	3202.8895	3493.0312	3662.8485
OC(C=O)C1(CN1)C=O	O[C@@H](C=O)[C@]1(CN1)C=O	
InChI=1S/C5H7NO3/c7-1-4(9)5(3-8)2-6-5/h1,3-4,6,9H,2H2	InChI=1S/C5H7NO3/c7-1-4(9)5(3-8)2-6-5/h1,3-4,6,9H,2H2/t4-,5-/m0/s1
