17
gdb 17804	4.50272	1.59736	1.40708	3.3517	68.95	-0.2394	0.0259	0.2653	916.6306	0.143665	-363.842992	-363.83569	-363.834746	-363.875088	27.822	
N	-0.0764945875	 1.3721796005	 0.057897836	-0.52462
C	 0.1200447242	 0.0207061844	-0.0477103089	 0.366811
O	 1.2351473121	-0.4655068773	-0.0949893787	-0.361961
C	-1.1684701283	-0.7822693268	-0.061428837	-0.070528
C	-1.8475875576	-1.176145849	-1.4241899609	-0.056576
C	-0.7051072082	-2.2124102566	-1.6332951939	-0.218725
C	-1.1185351657	-2.334675936	-0.134444271	-0.037897
C	-2.5979719875	-2.2763995873	-0.6218765309	-0.225811
H	 0.7287996541	 1.9718446466	-0.0215930674	 0.258282
H	-0.9890681333	 1.7832094213	-0.0349394191	 0.256252
H	-1.8715289241	-0.3754317869	 0.675390911	 0.071915
H	-2.2694642004	-0.48923476	-2.1603010544	 0.069115
H	-0.9543266681	-3.0670733748	-2.2681336158	 0.085654
H	 0.2946040664	-1.8327405276	-1.8332881189	 0.128628
H	-0.691863942	-2.9987540718	 0.6166347951	 0.080233
H	-3.3481066131	-1.9404551736	 0.1002036912	 0.086388
H	-2.950398581	-3.1361299951	-1.1973463764	 0.092837
39.8977	175.7824	216.2851	225.889	389.7588	428.2337	547.0963	569.4405	646.1086	707.9095	777.4122	815.6162	880.8235	894.8506	901.7636	909.2028	987.9108	1015.1768	1030.267	1047.7184	1078.0205	1100.6575	1116.7173	1130.8648	1146.599	1193.0612	1213.6357	1239.8379	1241.547	1265.8978	1299.1474	1420.144	1500.9491	1539.0007	1615.3738	1786.5175	3032.7303	3046.6484	3065.0246	3093.3185	3113.6494	3120.2136	3164.9142	3597.0426	3732.8555
NC(=O)C1C2CC1C2	NC(=O)[C@H]1[C@H]2C[C@@H]1C2	
InChI=1S/C6H9NO/c7-6(8)5-3-1-4(5)2-3/h3-5H,1-2H2,(H2,7,8)	InChI=1S/C6H9NO/c7-6(8)5-3-1-4(5)2-3/h3-5H,1-2H2,(H2,7,8)/t3-,4+,5-
