21
gdb 102629	1.99592	1.18698	0.88001	4.0948	75.51	-0.2427	-0.0144	0.2283	1397.3191	0.179103	-461.368248	-461.357306	-461.356362	-461.405222	38.281	
C	-0.4033568168	 1.4956231491	 0.2194455337	-0.245883
O	-0.1453862754	 0.1079141832	 0.1511093155	-0.255426
C	-1.3081949988	-0.7202230584	 0.1468328348	 0.085542
C	-0.894102116	-2.002678254	-0.5754936089	-0.065478
O	-0.4554480076	-1.7207481155	-1.8875464228	-0.424618
C	-1.8821121534	-0.9640649961	 1.5616386898	-0.321492
C	-0.9730585301	-1.7938282724	 2.4682299091	 0.396584
C	 0.1829411301	-1.0693422519	 3.1273282004	-0.482214
O	-1.1736461251	-2.9760079335	 2.6330310465	-0.305301
H	 0.5596992697	 2.0058034844	 0.1422509475	 0.13405
H	-1.0498973492	 1.8239453772	-0.6071321671	 0.119389
H	-0.8766884842	 1.7868207972	 1.1676979346	 0.112178
H	-2.0869425113	-0.2289674196	-0.4561941036	 0.083292
H	-0.1183640219	-2.5200193794	 0.008939726	 0.103555
H	-1.7515819617	-2.6774015341	-0.6535803292	 0.119588
H	 0.2177240597	-1.0363806647	-1.7923977505	 0.284951
H	-2.0964999363	 0.0045784695	 2.0272624824	 0.107392
H	-2.8256247736	-1.5073478043	 1.4574602214	 0.127263
H	-0.194336244	-0.2759507477	 3.7834571198	 0.131996
H	 0.7826704047	-1.770885273	 3.7082569854	 0.138145
H	 0.7920531914	-0.5838611359	 2.3579998052	 0.156486
40.7218	71.3811	102.869	123.0017	153.34	179.0174	206.577	244.6946	280.0967	347.4876	407.2895	449.9141	476.6186	508.5015	534.1797	674.1408	757.0555	829.2505	864.424	945.9366	983.6018	1037.488	1070.2281	1085.7494	1112.6264	1128.0208	1183.4851	1199.7077	1207.1525	1236.5574	1257.0738	1281.7565	1356.3558	1380.9692	1386.6881	1404.6643	1441.1114	1462.0579	1473.1204	1473.8973	1481.4499	1493.9467	1496.2404	1509.8397	1807.2508	2985.0561	2992.0652	3002.8653	3035.4672	3041.5989	3047.2918	3093.379	3101.9731	3105.3045	3117.9745	3154.959	3791.8073
COC(CO)CC(C)=O	CO[C@@H](CO)CC(=O)C	
InChI=1S/C6H12O3/c1-5(8)3-6(4-7)9-2/h6-7H,3-4H2,1-2H3	InChI=1S/C6H12O3/c1-5(8)3-6(4-7)9-2/h6-7H,3-4H2,1-2H3/t6-/m1/s1
