19
gdb 76046	2.47566	1.32284	1.10081	1.498	82.74	-0.2221	0.0466	0.2687	1193.6915	0.15696	-385.826198	-385.81692	-385.815976	-385.860297	34.45	
C	-0.0987799381	 1.6172160442	-0.169345228	-0.41482
C	-0.032509018	 0.1156534366	-0.0175763411	-0.105552
C	 1.3058101279	-0.649522948	-0.1358253743	-0.32483
C	 2.5464313042	 0.0366485212	-0.319898406	 0.354805
C	 3.5930354779	 0.6192901078	-0.4459778403	-0.477417
C	 0.5587925211	-0.5262631538	 1.1829070135	 0.450289
C	 1.0656416248	 0.0558811939	 2.4946167829	-0.358233
C	 0.4797948103	-1.2387177924	 3.1004074872	-0.076651
O	-0.0164690856	-1.6677779937	 1.8068759758	-0.307573
H	 0.7819150074	 2.0988373785	 0.2635827324	 0.131514
H	-0.143486556	 1.9025239334	-1.2253628829	 0.126292
H	-0.9886271035	 2.0189531959	 0.3271381069	 0.119212
H	-0.8662308017	-0.4355373192	-0.4458568114	 0.103181
H	 1.230797535	-1.6274382865	-0.6032480117	 0.119789
H	 4.516813931	 1.1265615113	-0.5736567674	 0.193855
H	 2.1477414542	 0.1759090437	 2.5625224559	 0.1289
H	 0.5748433535	 0.9779204058	 2.8122988469	 0.116253
H	 1.2137224199	-1.9444036727	 3.5047924135	 0.11118
H	-0.3359063942	-1.1097166561	 3.819181788	 0.109805
83.4763	114.6461	130.5182	163.5569	174.8517	229.6074	337.6226	377.9295	431.042	510.2044	565.401	571.2842	635.5796	647.9196	764.0826	796.9915	846.087	875.9823	908.6347	962.6683	990.5431	1010.147	1019.9484	1093.3664	1104.9175	1124.1493	1130.7733	1163.3448	1194.324	1212.0268	1244.2388	1305.2491	1339.4037	1362.4296	1414.0678	1447.927	1490.5196	1492.1878	1499.8196	1532.2761	2225.6066	3033.237	3035.7286	3076.9053	3081.1012	3097.6143	3115.4682	3134.6698	3141.7755	3151.4284	3504.1517
CC1C(C#C)C11CCO1	C[C@H]1[C@@H](C#C)[C@]21CCO2	
InChI=1S/C8H10O/c1-3-7-6(2)8(7)4-5-9-8/h1,6-7H,4-5H2,2H3	InChI=1S/C8H10O/c1-3-7-6(2)8(7)4-5-9-8/h1,6-7H,4-5H2,2H3/t6-,7+,8+/m0/s1
