23
gdb 60135	3.69471	0.97048	0.87863	1.0128	87.26	-0.2437	0.0874	0.3311	1449.8159	0.205219	-388.240938	-388.231729	-388.230785	-388.275803	35.3	
C	-0.4612209326	 1.3906922505	-0.1231866014	-0.386891
C	 0.1044664324	-0.0208278638	 0.0564715961	 0.142177
C	 1.0720946747	-0.3974247734	-1.0600776617	-0.389055
O	 0.8315712795	-0.1297502785	 1.283324796	-0.28599
C	 0.0516964589	-0.3775144554	 2.4157208103	 0.193892
C	-0.3444839436	-1.8494399306	 2.7840828875	-0.086671
C	 1.1621307297	-2.0935240826	 3.099828389	-0.218562
C	 0.8322645498	-0.6977217677	 3.7131290963	-0.08474
C	-0.489907802	-1.3264836053	 4.2401709192	-0.224589
H	 0.3527809148	 2.1224292991	-0.1390342844	 0.122258
H	-1.0146597858	 1.4664865081	-1.0648231044	 0.111918
H	-1.1451628316	 1.658315473	 0.6873304296	 0.117171
H	-0.7261911885	-0.743641868	 0.0691257714	 0.06857
H	 1.9286900854	 0.2842940406	-1.0616292085	 0.123322
H	 1.4459143664	-1.4148490208	-0.9180412588	 0.119515
H	 0.5812585192	-0.3378994821	-2.0362318513	 0.110585
H	-0.7559817598	 0.3601110785	 2.5200361257	 0.058256
H	-1.0293529244	-2.5125628433	 2.2532655427	 0.065018
H	 1.3811555583	-2.8934502813	 3.8121880799	 0.084211
H	 1.8457500365	-2.1014413684	 2.2519343658	 0.107368
H	 1.5077525273	-0.0292864072	 4.2483387392	 0.070037
H	-1.3194068718	-0.6430923958	 4.4466726407	 0.087235
H	-0.3814237429	-2.0736710059	 5.0289576311	 0.094964
30.972	72.0931	146.7064	208.6597	243.492	276.1956	329.7999	394.3386	438.15	457.9374	547.901	621.3151	768.5966	805.7967	838.5464	876.58	901.102	908.0246	920.5435	926.0164	938.027	954.983	1018.6712	1023.8215	1032.8234	1089.858	1097.8721	1115.5199	1145.039	1145.4021	1164.413	1175.8451	1196.6693	1203.4887	1216.4441	1247.5822	1258.0079	1277.5505	1366.3422	1369.0584	1397.2865	1414.3988	1426.8624	1480.2575	1484.7125	1492.9311	1494.8251	1508.8993	1530.8168	2979.4199	3005.0061	3035.8181	3041.0503	3048.9052	3063.5334	3097.3228	3106.2263	3107.1423	3111.5168	3115.6275	3119.3513	3119.915	3148.7123
CC(C)OC1C2CC1C2	CC(C)O[C@H]1[C@H]2C[C@@H]1C2	
InChI=1S/C8H14O/c1-5(2)9-8-6-3-7(8)4-6/h5-8H,3-4H2,1-2H3	InChI=1S/C8H14O/c1-5(2)9-8-6-3-7(8)4-6/h5-8H,3-4H2,1-2H3/t6-,7+,8-
