20
gdb 61497	3.37012	0.80652	0.74812	3.3043	83.47	-0.2438	0.0208	0.2646	1569.4001	0.168296	-403.1403	-403.129696	-403.128751	-403.176576	37.502	
C	 0.1877810103	 1.5559166024	 0.0781024596	-0.391429
C	 0.0599407612	 0.0244793863	-0.0194779076	-0.154318
C	-1.4078494147	-0.4805656058	 0.0732051072	-0.190684
N	-2.1036884133	-0.1018970184	 1.2929825008	-0.030396
C	-3.0220919232	 1.0277280389	 1.2857679522	-0.353725
C	-2.0033541506	-0.879880645	 2.4107156777	 0.148142
O	-2.558599135	-0.6769728859	 3.4697369932	-0.34009
C	 0.657188246	-0.4822270247	-1.2530286246	 0.324331
C	 1.1125700306	-0.8980471433	-2.2850576608	-0.464874
H	 1.2348001577	 1.8561804256	-0.0086849894	 0.132742
H	-0.3711971185	 2.0467552976	-0.7247202609	 0.125144
H	-0.1898805882	 1.9097980172	 1.0406566146	 0.130726
H	 0.6017207772	-0.4137865163	 0.8300618326	 0.114007
H	-1.975360083	-0.0993322425	-0.7813862645	 0.12343
H	-1.3977049459	-1.5719100752	-0.0142100108	 0.130819
H	-3.8201494312	 0.8724791719	 0.5496583279	 0.126747
H	-3.459391267	 1.1017322365	 2.2815537061	 0.170285
H	-2.507793454	 1.9629274816	 1.0455950406	 0.127228
H	-1.3364991912	-1.7491470793	 2.2413827584	 0.071765
H	 1.5315446031	-1.2674202616	-3.1883228523	 0.20015
51.8097	71.6975	104.0733	121.9312	168.4827	219.2004	265.6921	278.443	320.3143	339.279	393.9687	424.0204	497.8686	530.7344	637.2965	651.1725	713.7229	816.6154	875.6607	905.5881	924.1464	1032.2337	1075.4646	1086.9168	1107.0009	1132.7784	1158.7826	1237.7467	1278.7807	1312.3258	1344.803	1384.4521	1410.0158	1423.9247	1440.576	1445.0805	1484.3689	1492.3472	1501.1903	1504.1536	1521.4931	1798.0205	2234.5748	2929.3636	3012.6277	3027.2167	3045.1018	3047.0364	3087.8261	3095.5235	3120.0314	3128.6057	3157.6381	3503.6405
CC(CN(C)C=O)C#C	C[C@@H](CN(C)C=O)C#C	
InChI=1S/C7H11NO/c1-4-7(2)5-8(3)6-9/h1,6-7H,5H2,2-3H3	InChI=1S/C7H11NO/c1-4-7(2)5-8(3)6-9/h1,6-7H,5H2,2-3H3/t7-/m1/s1
