19
gdb 93966	3.79917	1.07625	1.00867	1.8161	70.51	-0.2494	0.0726	0.322	1225.0205	0.159772	-460.136567	-460.128226	-460.127282	-460.170182	31.401	
O	-0.4106743518	 1.2810481117	 0.6084928701	-0.443074
C	-0.4436543648	 0.0580798822	-0.1100157492	 0.142335
C	 0.7240960384	-0.8464153779	 0.280987532	-0.124796
O	 0.3181107802	-1.3630353168	 1.5501302989	-0.282619
C	-1.0837688191	-1.6832613198	 1.4534167002	 0.07873
C	-1.642846299	-0.8284442475	 0.2892326464	-0.297123
C	-1.2452682316	-3.1817170085	 1.283439984	 0.073241
C	-2.4561300049	-3.8039925475	 0.7385711805	-0.188842
O	-1.261243988	-3.7178354921	-0.0426662076	-0.227478
H	-0.2006131994	 1.058647287	 1.523567282	 0.285684
H	-0.4536294511	 0.3240440274	-1.1694835099	 0.089335
H	 0.8737694772	-1.6529719082	-0.4511374642	 0.109341
H	 1.659665144	-0.2998781785	 0.4205422631	 0.114525
H	-1.5254474109	-1.4117902918	 2.4198813354	 0.087743
H	-2.4961424791	-0.2150029164	 0.5811780871	 0.112153
H	-1.9289939704	-1.4707893031	-0.5474463808	 0.126856
H	-0.6418339842	-3.7596302125	 1.9838775231	 0.104518
H	-2.7350928219	-4.8070418171	 1.0562262988	 0.122052
H	-3.2804792336	-3.1788882807	 0.39785941	 0.11742
58.4174	88.5671	150.1799	207.1826	271.2557	396.8481	400.7935	430.385	446.6849	574.4576	718.5986	752.7448	795.7252	850.715	869.4506	903.3731	915.7162	928.3539	975.0123	977.2349	1039.9373	1078.1073	1091.7384	1100.9747	1119.5234	1163.3354	1170.0909	1192.1784	1229.5516	1259.7836	1288.0078	1303.3935	1311.7301	1344.7841	1369.5958	1381.0928	1422.4659	1432.3541	1472.9157	1507.86	1528.8909	3005.9062	3033.2651	3072.905	3086.8766	3096.3284	3108.9698	3113.7588	3133.5221	3173.6973	3786.6842
OC1COC(C1)C1CO1	O[C@H]1CO[C@@H](C1)[C@H]1CO1	
InChI=1S/C6H10O3/c7-4-1-5(8-2-4)6-3-9-6/h4-7H,1-3H2	InChI=1S/C6H10O3/c7-4-1-5(8-2-4)6-3-9-6/h4-7H,1-3H2/t4-,5+,6-/m1/s1
