18
gdb 78997	3.50624	1.8086	1.65356	2.2535	79.6	-0.2056	-0.0292	0.1763	884.0385	0.14929	-364.699176	-364.692696	-364.691752	-364.729607	27.497	
C	 0.151209322	 1.5248146631	 0.3460157714	-0.417095
C	 0.0075674799	 0.0454276145	 0.0485875703	-0.015102
C	 0.8602845498	-0.6737483662	-1.0965577394	-0.064119
C	 2.4210226971	-0.7812486914	-1.0320501711	-0.072851
C	 2.9421473137	-1.1459900189	 0.3678758465	-0.067722
C	 1.9669135693	-0.6603856982	 1.3596077042	-0.110781
C	 0.7410981296	-1.00712322	 0.9026866387	-0.01455
C	 0.9136786132	-1.9743589775	-0.2783400913	-0.010649
N	 2.3855576304	-2.1913148377	-0.5190182347	-0.146421
H	 1.2025985038	 1.8137750903	 0.4348979525	 0.121331
H	-0.3018593061	 2.1219569787	-0.4524328357	 0.117894
H	-0.3527303019	 1.7895469609	 1.2816023204	 0.126904
H	-1.0415794596	-0.2011523799	-0.1609170493	 0.08343
H	 0.4679719097	-0.6469706802	-2.1155586383	 0.088488
H	 3.1000625962	-0.4908334648	-1.8259886328	 0.101736
H	 4.0174940245	-1.1839353783	 0.5121993874	 0.096896
H	 2.1724515063	 0.2356113657	 1.9353603577	 0.102037
H	 0.2580577722	-2.8324179702	-0.4085422565	 0.080574
163.4066	216.5275	275.3742	479.8481	502.8862	546.0207	614.5592	674.3497	718.2391	727.344	748.771	800.9138	823.4436	855.4027	876.4606	900.6386	924.4487	950.6185	969.302	983.6664	1031.1341	1055.8407	1066.7568	1078.2522	1125.7374	1143.249	1155.9546	1171.1991	1197.5599	1246.0377	1250.622	1266.5718	1308.3736	1326.2314	1378.3858	1410.4663	1493.0048	1496.0912	1571.0713	3017.4301	3034.5846	3089.6234	3098.1607	3110.8943	3133.6856	3159.675	3177.52	3184.3643
CC1C2C3C4C=C1C2N34	C[C@H]1[C@H]2[C@H]3[C@H]4[CH][C]1[C@@H]2N34	
InChI=1S/C8H9N/c1-3-4-2-5-8-6(3)7(4)9(5)8/h2-3,5-8H,1H3	InChI=1S/C8H9N/c1-3-4-2-5-8-6(3)7(4)9(5)8/h2-3,5-8H,1H3/t3-,5-,6-,7+,8-,9?/m1/s1
