23
gdb 110095	2.14112	1.19351	0.97537	3.095	82.49	-0.2423	0.0603	0.3025	1359.1582	0.204642	-425.411029	-425.400591	-425.399646	-425.445673	39.489	
C	 0.9051231364	 1.5440684802	-0.3243346828	-0.456906
C	 0.6567763346	 0.0491370424	-0.2058908832	 0.287242
C	-0.2648341288	-0.4692732014	-1.2979248834	-0.445216
C	 1.7400844743	-0.8956116046	 0.2748955291	-0.073912
C	 3.1335260405	-0.4741912797	 0.7039584361	-0.093439
O	 3.6497802161	-1.3059825758	 1.7263204328	-0.431286
C	 0.5283033598	-0.6211791207	 1.1549385046	-0.094926
C	 0.6652583956	 0.0962304746	 2.4767874431	-0.110019
O	 1.3804706318	-0.6786405178	 3.4538020293	-0.406934
H	 1.5659623644	 1.9434357794	 0.4462962949	 0.12011
H	 1.3599618043	 1.776707172	-1.2941889497	 0.119491
H	-0.04096538	 2.0954284713	-0.2683212888	 0.114994
H	 0.1655290276	-0.2883877807	-2.2899682197	 0.116664
H	-0.4384097663	-1.5452929608	-1.2012764012	 0.113252
H	-1.2390436913	 0.0330940387	-1.2630480228	 0.11307
H	 1.737840031	-1.875634056	-0.1971575785	 0.083919
H	 3.8197645198	-0.5685716648	-0.1455014597	 0.103263
H	 3.1543263974	 0.5835263146	 1.0052482373	 0.076599
H	 3.0504453062	-1.2031815588	 2.4819934628	 0.282926
H	-0.2057305495	-1.4256888874	 1.1912608935	 0.073725
H	 1.2354355056	 1.0223204424	 2.3869224713	 0.117342
H	-0.325941047	 0.3636514492	 2.8695651	 0.101685
H	 0.9180016076	-1.5176000364	 3.5567439052	 0.288356
119.9749	147.4612	152.5527	179.7379	200.2555	215.841	251.6648	270.412	296.2039	334.4451	359.5317	422.3311	474.0633	478.9708	599.8272	646.7407	708.2618	819.1544	841.7567	943.0988	967.1509	987.715	998.2667	1008.9196	1017.4595	1043.9435	1073.9825	1100.175	1130.1244	1158.3403	1172.2202	1190.8687	1250.717	1274.7302	1327.1889	1343.5056	1373.3561	1399.101	1414.6325	1419.4597	1433.3153	1454.8811	1475.9397	1484.2263	1491.9784	1498.0811	1504.4015	1511.7658	1519.3701	2990.2035	3006.5415	3019.8942	3029.5057	3056.2101	3078.3834	3082.2969	3097.4059	3101.2632	3117.321	3129.9527	3135.4979	3686.2638	3808.7815
CC1(C)C(CO)C1CO	CC1(C)[C@@H](CO)[C@H]1CO	
InChI=1S/C7H14O2/c1-7(2)5(3-8)6(7)4-9/h5-6,8-9H,3-4H2,1-2H3	InChI=1S/C7H14O2/c1-7(2)5(3-8)6(7)4-9/h5-6,8-9H,3-4H2,1-2H3/t5-,6+
