20
gdb 13002	2.6294	2.37862	1.53079	0.2977	80.5	-0.2155	0.0325	0.2481	921.7273	0.177417	-311.882836	-311.87491	-311.873966	-311.914372	31.242	
C	-0.0264308671	 1.4872586012	 0.0347334368	-0.501332
C	-0.0235777686	-0.0096043906	-0.0069968033	 0.277249
C	 0.0174230744	-0.7853509672	-1.095839694	-0.181972
C	 0.0030080238	-2.2619172553	-0.7659921057	-0.27322
C	 0.0619756494	-2.2777964648	 0.7596895559	-0.076797
C	 1.2531194383	-1.6415166215	 1.4342950448	-0.319279
C	-0.0236571309	-0.8402178892	 1.2501235538	 0.277762
C	-0.8363748024	-0.4066194596	 2.4478281208	-0.490386
H	 0.8401926404	 1.8716526409	 0.5881338237	 0.124741
H	-0.0052814511	 1.9147377816	-0.9712887162	 0.121179
H	-0.9167928597	 1.8732856165	 0.5464512714	 0.125257
H	 0.0821892364	-0.4154874189	-2.1139807294	 0.080543
H	-0.9090419657	-2.7495910226	-1.1378851623	 0.101463
H	 0.8445932685	-2.798989687	-1.2239147661	 0.103617
H	-0.4514852459	-3.0686565315	 1.2953226064	 0.078397
H	 1.4858906131	-1.9854828616	 2.4379342142	 0.101443
H	 2.1188676131	-1.3760103163	 0.8353384687	 0.105463
H	-0.4679650278	 0.5374990408	 2.8662154188	 0.115982
H	-1.8919462424	-0.2652462749	 2.187612291	 0.115873
H	-0.7878928657	-1.1567643	 3.2433257907	 0.114017
154.3396	186.3801	220.1382	246.0732	263.7413	292.1452	379.8817	417.0832	546.8834	604.2765	641.4935	727.9889	813.3355	818.7277	823.1268	880.1129	942.3265	960.5802	972.3784	1025.7485	1032.0935	1058.357	1064.0078	1087.0289	1102.5893	1119.2696	1156.2549	1192.492	1250.6482	1276.5252	1320.0636	1354.0834	1392.4999	1412.6912	1420.4907	1475.4046	1478.3905	1484.728	1487.9328	1493.7472	1503.3852	1707.6991	3005.3846	3016.5957	3021.8801	3031.3057	3062.5995	3078.9288	3097.6882	3110.2835	3113.9504	3166.4906	3182.8523	3201.9342
CC1=CCC2CC12C	CC1=CC[C@H]2C[C@@]12C	
InChI=1S/C8H12/c1-6-3-4-7-5-8(6,7)2/h3,7H,4-5H2,1-2H3	InChI=1S/C8H12/c1-6-3-4-7-5-8(6,7)2/h3,7H,4-5H2,1-2H3/t7-,8-/m0/s1
