18
gdb 88918	3.64914	0.82377	0.71349	2.4585	80.19	-0.2469	-0.0559	0.191	1574.4868	0.144794	-401.902533	-401.892718	-401.891774	-401.938593	34.821	
C	-0.0446745507	 1.5490194161	-0.150928446	-0.393333
C	 0.0325133975	 0.0496759499	 0.014717029	-0.0163
N	 1.3670141014	-0.570646568	-0.0381660142	-0.337036
C	 0.5890388868	-0.6418991334	 1.209938156	-0.006549
C	 1.1658541935	 0.077001233	 2.405021788	-0.317512
C	 2.0039624291	-0.8377367757	 3.288173748	 0.234894
O	 2.0917151326	-2.0341817416	 3.1201410987	-0.289935
C	 2.6925036591	-0.1721845972	 4.383945734	 0.243037
C	 3.2536803594	 0.4004812902	 5.2818345387	-0.383537
H	 0.7981835524	 2.0491321322	 0.3312060618	 0.124095
H	-0.0243348256	 1.817165538	-1.2126082509	 0.122214
H	-0.9738183488	 1.9419339156	 0.2765180577	 0.115294
H	-0.774049542	-0.4884263196	-0.4835010046	 0.08246
H	 1.3403578762	-1.4607233647	-0.5269794838	 0.234236
H	 0.1452560649	-1.6023951933	 1.4593534768	 0.099795
H	 1.7916330231	 0.9202841084	 2.0961214269	 0.141829
H	 0.3749218164	 0.5018295332	 3.0405723464	 0.133011
H	 3.7579062845	 0.888108637	 6.0805830074	 0.213337
37.8863	51.4875	95.231	167.0968	192.6534	222.049	238.0808	339.926	411.3806	474.4183	491.8515	573.5721	612.1835	644.7893	704.1378	773.4547	802.8579	868.6116	885.3292	940.9835	983.4116	1027.6901	1035.9227	1087.0538	1102.8943	1153.01	1187.4696	1240.6271	1265.7062	1280.0364	1332.1379	1403.9808	1425.8982	1432.4389	1472.784	1492.1503	1505.5682	1771.5179	2210.8534	3016.8903	3035.9337	3087.5425	3095.4138	3099.4194	3129.5633	3144.2525	3495.6857	3513.3832
CC1NC1CC(=O)C#C	C[C@H]1N[C@H]1CC(=O)C#C	
InChI=1S/C7H9NO/c1-3-6(9)4-7-5(2)8-7/h1,5,7-8H,4H2,2H3	InChI=1S/C7H9NO/c1-3-6(9)4-7-5(2)8-7/h1,5,7-8H,4H2,2H3/t5-,7+/m1/s1
