17
gdb 11402	3.79474	1.50804	1.16988	0.6891	65.2	-0.2463	0.0232	0.2695	1029.9721	0.142475	-401.022801	-401.01468	-401.013736	-401.055864	29.149	
C	 0.1193770828	 1.3431938227	 0.2830042411	-0.47227
C	-0.0377258513	-0.1184616481	 0.0395173797	 0.405625
N	 0.146309405	-0.7279159119	-1.0585192223	-0.300093
C	-0.1394303702	-2.1473895727	-0.8082387768	-0.208932
C	-0.467959106	-2.2334755722	 0.7035947555	 0.069004
C	 0.5491906399	-3.0056395653	 1.5326257681	-0.064613
O	 0.2844969313	-2.9213716415	 2.9163832836	-0.421232
O	-0.4301497883	-0.8435765083	 1.1314442227	-0.278906
H	 0.8724318378	 1.5211868899	 1.057197704	 0.143069
H	 0.4191710956	 1.8381831025	-0.6398172674	 0.154742
H	-0.8225715454	 1.7702234967	 0.6412194945	 0.14664
H	-0.9702070367	-2.4786307216	-1.439756176	 0.118328
H	 0.7321529116	-2.7583037094	-1.0736063229	 0.114088
H	-1.4751373784	-2.6047072501	 0.9141529887	 0.097513
H	 0.5069152394	-4.066541184	 1.2618817886	 0.11443
H	 1.5595646316	-2.638490919	 1.2848452128	 0.092187
H	 0.2202643313	-1.9820281378	 3.124055186	 0.29042
57.1833	125.9765	139.6683	197.3484	256.9697	336.3913	388.9288	428.62	488.8271	611.2585	656.1536	758.3491	840.6998	910.408	945.2721	973.2829	1027.8942	1031.4425	1066.3493	1085.7426	1097.7267	1123.2617	1203.5317	1235.7913	1252.759	1316.0237	1333.2982	1365.4136	1397.8506	1417.9969	1432.5156	1475.5645	1476.2136	1496.0746	1504.3746	1747.8904	2966.9493	3031.8599	3050.7945	3059.5471	3070.4462	3080.9039	3107.829	3167.539	3800.1665
CC1=NCC(CO)O1	CC1=NC[C@@H](CO)O1	
InChI=1S/C5H9NO2/c1-4-6-2-5(3-7)8-4/h5,7H,2-3H2,1H3	InChI=1S/C5H9NO2/c1-4-6-2-5(3-7)8-4/h5,7H,2-3H2,1H3/t5-/m0/s1
