18
gdb 124845	3.42634	1.35944	1.24435	3.7815	77.38	-0.2518	0.0217	0.2736	1078.7048	0.14918	-398.124357	-398.116257	-398.115313	-398.157131	30.291	
C	-0.1662560632	 1.5821843221	 0.0068301454	-0.437486
C	-0.0181127403	 0.0611936368	-0.0020542794	 0.133629
C	-1.3363069839	-0.6508694148	 0.30027735	-0.437462
C	 0.7567125275	-0.5137363796	-1.2846625573	-0.211001
N	 1.793994032	-0.9318178146	-0.3286449217	 0.077023
N	 2.9823707214	-1.5183925061	-0.059471417	-0.288409
C	 3.003160738	-1.3538256644	 1.2692724315	 0.019843
N	 1.9271347498	-0.7146132353	 1.8440662628	-0.39042
C	 1.2011334439	-0.4769640942	 0.7653374622	 0.36093
H	 0.7805247997	 2.0788716799	-0.2240866439	 0.129258
H	-0.9130698516	 1.9014708469	-0.7278572363	 0.121586
H	-0.4946741564	 1.9259792324	 0.9922905381	 0.137869
H	-2.1032364024	-0.3689794885	-0.4289981593	 0.121564
H	-1.2196305075	-1.7381883446	 0.2766880747	 0.129248
H	-1.6988292617	-0.3732562057	 1.2946038457	 0.137853
H	 0.2669114846	-1.3450420333	-1.7972772764	 0.135647
H	 1.0952803933	 0.2352530945	-2.0045276353	 0.13564
H	 3.8366048167	-1.7132935317	 1.8549692762	 0.124689
68.0549	132.6513	220.8526	232.2546	288.9897	290.3109	329.9617	437.5621	512.8315	609.4755	668.4445	712.8102	767.8376	842.6919	885.1368	921.9901	950.822	961.9583	992.4575	1034.3474	1083.5212	1135.8156	1157.04	1173.9912	1236.0742	1244.9319	1245.3858	1277.5654	1322.6264	1404.0654	1404.7505	1422.7847	1480.6168	1486.8015	1489.2126	1499.5707	1502.2199	1520.133	1569.023	3034.0802	3037.9992	3065.2812	3104.823	3108.9341	3113.4627	3116.238	3126.7016	3257.2224
CC1(C)CN2N=CN=C12	CC1(C)Cn2ncnc12	
InChI=1S/C6H9N3/c1-6(2)3-9-5(6)7-4-8-9/h4H,3H2,1-2H3	InChI=1S/C6H9N3/c1-6(2)3-9-5(6)7-4-8-9/h4H,3H2,1-2H3
