17
gdb 20091	3.39133	1.57517	1.43266	2.9619	63.86	-0.2308	0.0484	0.2792	934.9989	0.14222	-400.931918	-400.923883	-400.922939	-400.9648	29.903	
O	-0.1595477126	 0.9830871221	-0.6102922325	-0.422414
C	-0.1739542078	-0.3229416584	-0.1283153479	 0.079421
C	-0.3927734963	-0.5203228939	 1.3503515004	 0.017902
O	-0.7201155895	 0.6489272991	 2.0614270023	-0.419399
C	-1.4550903123	-0.9848226999	 0.3777703809	-0.141905
C	-2.8159855675	-0.3530530058	 0.3555590135	 0.005804
C	-3.2152191851	 0.6760573276	-0.6430785202	-0.247962
N	-3.7515324987	-0.6928221481	-0.7349680928	-0.330074
H	-0.5209764862	 1.5325939658	 0.0997061909	 0.287056
H	 0.5423325478	-0.9431367918	-0.6573790101	 0.106302
H	 0.1717432787	-1.2589721423	 1.9156688059	 0.093405
H	 0.1009308797	 1.0328676394	 2.3897039531	 0.298177
H	-1.4771566015	-2.0665140414	 0.253203458	 0.097846
H	-3.3063611167	-0.3193585059	 1.3260004638	 0.100316
H	-3.9452259695	 1.4320358865	-0.3660608389	 0.112729
H	-2.4726443936	 0.9931635307	-1.3656007277	 0.135595
H	-3.2442597289	-1.1943539537	-1.4614883888	 0.2272
42.3411	135.7597	192.2412	244.7474	269.3085	327.3702	341.7747	512.4243	540.6267	636.8875	684.0938	741.7787	784.4403	822.7431	863.118	917.8357	962.0608	994.184	1048.221	1055.1312	1077.328	1117.4358	1126.9718	1153.9866	1162.1861	1211.3878	1239.6166	1262.502	1272.2163	1303.506	1325.6177	1353.8813	1411.941	1421.5027	1472.0118	1514.8024	3110.4478	3118.2591	3121.6656	3127.5233	3164.6541	3220.5541	3484.226	3739.0744	3796.9376
OC1C(O)C1C1CN1	O[C@H]1[C@@H](O)[C@H]1[C@H]1CN1	
InChI=1S/C5H9NO2/c7-4-3(5(4)8)2-1-6-2/h2-8H,1H2	InChI=1S/C5H9NO2/c7-4-3(5(4)8)2-1-6-2/h2-8H,1H2/t2-,3-,4+,5-/m1/s1
