21
gdb 95526	2.16389	1.54533	1.119	0.7155	89.55	-0.2424	0.0198	0.2622	1190.4806	0.182836	-349.944096	-349.935139	-349.934195	-349.977331	35.073	
C	-0.0878946438	 1.5651457408	-0.03825231	-0.414732
C	 0.0333344394	 0.0405216611	-0.0216887399	 0.023736
C	 0.6767492018	-0.5155099232	-1.2989262351	-0.199425
C	 0.5931210753	-2.0478765901	-1.3411475151	-0.264259
C	 0.925946495	-2.6719478805	-0.0120558005	-0.036211
C	 1.0296501744	-1.9883472843	 1.125165873	-0.070454
C	 0.8024796485	-0.4878722236	 1.223085366	-0.207053
C	 2.080299953	 0.195932316	 1.4462985009	 0.361358
C	 3.1377925898	 0.7390829195	 1.6301938087	-0.503765
H	 0.8945878849	 2.0371592474	-0.1329302949	 0.130068
H	-0.7064471872	 1.8922316484	-0.8804580978	 0.107944
H	-0.5493447011	 1.9400420944	 0.881986736	 0.109191
H	-0.9767659733	-0.3852247161	 0.0581128811	 0.074553
H	 0.1919520406	-0.0862960683	-2.182639924	 0.089146
H	 1.7276014087	-0.2012208943	-1.3288191222	 0.111313
H	-0.416612008	-2.3636101209	-1.6449981445	 0.106918
H	 1.2643059992	-2.446302541	-2.1125566861	 0.104375
H	 1.0849991347	-3.748076326	-0.0004075743	 0.086754
H	 1.3018967949	-2.4913545191	 2.0487890939	 0.09347
H	 0.174388297	-0.2944919002	 2.1051258187	 0.103059
H	 4.0706246963	 1.2180550299	 1.7967297461	 0.194013
83.5895	144.7644	183.0473	214.6572	238.6507	302.949	367.0769	381.5535	442.9077	478.8828	541.7418	608.4339	619.9906	636.1773	703.7188	742.9911	788.5841	870.2468	901.6436	945.4417	963.3349	988.6745	1004.1823	1017.6256	1058.9365	1089.838	1128.5786	1135.6039	1177.1921	1235.8327	1261.944	1290.6825	1311.2613	1331.59	1361.5122	1370.2487	1393.6983	1409.6308	1418.0885	1474.3295	1491.9962	1496.3929	1501.7288	1724.8821	2225.2809	2991.0109	2994.5	3007.6075	3027.1739	3032.2939	3041.9847	3072.4342	3095.8696	3112.4098	3144.2047	3172.1401	3503.9898
CC1CCC=CC1C#C	C[C@H]1CCC=C[C@H]1C#C	
InChI=1S/C9H12/c1-3-9-7-5-4-6-8(9)2/h1,5,7-9H,4,6H2,2H3	InChI=1S/C9H12/c1-3-9-7-5-4-6-8(9)2/h1,5,7-9H,4,6H2,2H3/t8-,9+/m0/s1
