18
gdb 39863	3.19103	1.86123	1.53316	2.3406	74.44	-0.2293	0.0804	0.3096	902.808	0.150146	-401.866169	-401.859815	-401.85887	-401.89657	26.93	
C	 0.0489905763	 1.4568923144	-0.0107572317	-0.304718
O	 1.1696096324	 0.5543196354	 0.0294744797	-0.314679
C	-0.1410813358	 0.0100919915	 0.0073994509	 0.550501
C	-0.618986872	-0.8901074089	 1.1391662762	-0.169268
C	 0.2120734327	-2.1413212991	 0.7860947402	-0.170675
N	-0.6476519067	-2.2685475148	-0.4468392186	-0.15384
C	-1.7832233863	-1.6101846965	 0.3414369597	-0.002555
C	-2.1650836525	-0.8077701777	-0.9052293555	-0.239872
C	-0.6378472732	-0.8786209211	-1.1305550017	-0.109758
H	-0.1092800422	 2.0391288113	 0.896101238	 0.116505
H	-0.0672838061	 2.012144934	-0.9413279865	 0.116306
H	-0.7127931923	-0.4722536527	 2.1416190763	 0.069284
H	 1.2863206692	-2.0197199819	 0.6244110757	 0.121662
H	 0.0190922198	-3.0048495877	 1.4282779212	 0.106526
H	-2.4679609093	-2.2543797742	 0.8944776163	 0.081899
H	-2.721806531	-1.4301052936	-1.6083395875	 0.117189
H	-2.626094421	 0.1769141022	-0.8033888298	 0.09976
H	-0.1583691118	-0.7968305805	-2.104368943	 0.085735
170.0943	269.6429	321.7143	410.8432	423.7145	517.215	587.3914	724.5427	751.1158	752.4343	815.39	850.9827	887.0442	892.8089	925.6385	938.0317	947.9088	979.9669	1003.2755	1014.9437	1042.0606	1062.4517	1091.6076	1118.5679	1144.5508	1165.0922	1174.8011	1192.8073	1205.7827	1216.1135	1232.9411	1244.9384	1267.8009	1279.9877	1319.4584	1449.7438	1483.8727	1504.0327	1543.0414	3057.438	3070.5599	3077.8993	3105.6381	3116.2404	3118.6086	3133.8525	3139.0063	3162.7751
C1OC11C2CN3C2CC13	C1O[C@]21[C@@H]1CN3[C@@H]1C[C@@H]23	
InChI=1S/C7H9NO/c1-5-4-2-8(5)6(1)7(4)3-9-7/h4-6H,1-3H2	InChI=1S/C7H9NO/c1-5-4-2-8(5)6(1)7(4)3-9-7/h4-6H,1-3H2/t4-,5-,6+,7-/m1/s1
