17
gdb 80688	3.50826	1.18402	1.14722	2.7786	76.35	-0.2261	-0.0663	0.1598	1129.9905	0.136095	-418.0156	-418.007292	-418.006348	-418.048641	30.774	
C	-0.2633132065	 1.5118794429	-0.2665402456	-0.409212
C	-0.0002486158	 0.0274499568	-0.1802934011	-0.036274
C	 0.860545765	-0.7278737391	-1.1536478576	-0.050061
N	 1.8589628996	 0.0478488488	-1.8280953518	-0.316333
C	 2.7367037271	 0.5270443125	-0.8917716223	 0.244778
C	 3.9221088891	 1.307998445	-1.3010973918	 0.108821
O	 4.1777885785	 1.5551100084	-2.4570601208	-0.27413
N	 2.4928455029	 0.2125850958	 0.3406537957	-0.275665
C	 1.3008910563	-0.5758872733	 0.3405505191	-0.040369
H	 0.62830162	 2.0721964178	-0.5538981317	 0.132122
H	-1.0419349219	 1.7227006008	-1.0074473919	 0.118822
H	-0.600895638	 1.8987518992	 0.7000328396	 0.124285
H	-0.8554888639	-0.5585632206	 0.1475892068	 0.095169
H	 0.5274784858	-1.6406183345	-1.6345072779	 0.104396
H	 2.1208946506	-0.0620495648	-2.79327672	 0.26589
H	 4.5649424598	 1.6201661715	-0.4564198745	 0.108578
H	 1.2432998412	-1.3565321372	 1.0909647857	 0.099182
87.7922	116.0519	187.2646	193.7617	243.1029	290.7338	343.3331	473.8816	535.0802	567.385	602.6521	705.3064	757.1376	771.9806	830.5921	884.2267	940.4146	987.6075	1011.1618	1030.7158	1039.4436	1064.5133	1106.467	1123.137	1160.0485	1222.2037	1281.9254	1326.6187	1355.6969	1384.1409	1408.1365	1424.5233	1488.4326	1495.4696	1501.1891	1622.5755	1795.1755	2965.7338	3041.0033	3099.7698	3126.9002	3142.0275	3165.631	3174.8403	3662.8992
CC1C2NC(C=O)=NC12	C[C@H]1[C@H]2NC(=N[C@@H]12)C=O	
InChI=1S/C6H8N2O/c1-3-5-6(3)8-4(2-9)7-5/h2-3,5-6H,1H3,(H,7,8)	InChI=1S/C6H8N2O/c1-3-5-6(3)8-4(2-9)7-5/h2-3,5-6H,1H3,(H,7,8)/t3-,5+,6-
