25
gdb 60221	3.63522	0.79543	0.76891	0.127	93.95	-0.2335	0.0313	0.2648	1658.0413	0.229081	-352.381013	-352.37101	-352.370066	-352.416458	37.906	
C	 0.9020459312	-0.3229851026	-1.0723982871	-0.381737
C	-0.016374443	 0.0500544643	 0.1003267331	 0.041997
C	-0.1212115015	 1.5757725106	 0.2340974593	-0.38873
C	-1.4198483392	-0.5727560908	-0.0302785623	-0.193005
C	-1.4831055976	-2.1027525903	 0.0138925063	 0.032293
C	-0.9978199921	-2.7455536613	 1.3447827607	-0.256553
C	-1.8963341613	-3.9493371332	 1.5015721974	-0.065881
C	-2.9326268011	-3.911016738	 0.6661708459	-0.060974
C	-2.9135017504	-2.6749559679	-0.2003766127	-0.275312
H	 1.8869240051	 0.1426827071	-0.9608330035	 0.108128
H	 1.0566693764	-1.4032598617	-1.1505821584	 0.113438
H	 0.4787496741	 0.0225665614	-2.0236232704	 0.109515
H	 0.4407664712	-0.3346237515	 1.0229553311	 0.07459
H	-0.5806517154	 2.0153895519	-0.6595924853	 0.110026
H	-0.7339579323	 1.8606489922	 1.0959598052	 0.107804
H	 0.8660341218	 2.0334621294	 0.3576300127	 0.10689
H	-2.0561433045	-0.1783802717	 0.7748315686	 0.08554
H	-1.8715409852	-0.2219215735	-0.9698396086	 0.08587
H	-0.8570569673	-2.5090659721	-0.7888507398	 0.075843
H	 0.0668935433	-3.0052660655	 1.3223739341	 0.099043
H	-1.1252501475	-2.0569192477	 2.1945138454	 0.099549
H	-1.7174378333	-4.7200528091	 2.2437098647	 0.0869
H	-3.7296832226	-4.6454746229	 0.62184504	 0.087334
H	-3.6850839909	-1.9612593643	 0.1276295915	 0.099037
H	-3.1221927877	-2.8830320426	-1.256375318	 0.098396
46.0278	80.2098	106.8149	159.3788	217.2416	238.2526	298.4337	331.1089	396.0981	403.9466	423.23	454.2089	625.8706	717.466	777.9442	817.2484	825.2315	877.6225	922.1601	926.4675	948.8519	955.5439	967.2662	975.6561	979.6742	1024.451	1050.6937	1085.5742	1123.5448	1135.4573	1153.0482	1164.8229	1191.5283	1214.2292	1275.599	1290.4011	1298.6623	1327.0338	1334.7839	1359.7252	1367.9954	1382.1171	1394.5509	1400.0019	1420.4732	1477.266	1485.8739	1488.1475	1492.3717	1496.05	1503.6668	1510.2131	1689.0105	2987.7135	2988.7821	2995.6645	3004.0936	3021.1526	3023.0678	3026.6364	3036.6963	3046.8142	3057.8905	3085.4476	3091.9361	3096.5827	3103.4608	3176.8446	3202.8226
CC(C)CC1CC=CC1	CC(C)C[C@H]1CC=CC1	
InChI=1S/C9H16/c1-8(2)7-9-5-3-4-6-9/h3-4,8-9H,5-7H2,1-2H3	InChI=1S/C9H16/c1-8(2)7-9-5-3-4-6-9/h3-4,8-9H,5-7H2,1-2H3
