15
gdb 10720	2.60495	2.24071	1.38818	5.9502	57.37	-0.2529	0.0041	0.257	881.1365	0.119138	-436.942907	-436.935289	-436.934344	-436.975053	27.945	
N	 0.3634727224	 1.0589280789	 0.2637237651	-0.527291
H	 1.2170919389	 1.2626900643	 0.7757148921	 0.260897
H	 0.002473399	 2.3277827266	-0.9102617858	 0.318672
H	 0.3600203383	 0.0671886275	 0.0524869244	 0.251955
C	-0.8083018925	 1.4375609465	 1.0747480056	-0.26241
C	-0.8771928488	 2.9469281999	 1.185702172	 0.248546
C	-1.3833293235	 3.5789469753	 2.4079902197	-0.211991
O	 0.0228671599	 3.5081214449	 2.1630059111	-0.27049
C	-0.9427479037	 3.7739498197	-0.1053622863	 0.393945
O	-1.425041588	 4.8751283701	-0.1330395652	-0.334485
O	-0.4193892411	 3.1861682511	-1.1834556891	-0.380031
H	-1.7041838589	 1.0673978557	 0.5637147103	 0.132304
H	-0.7941206852	 1.0096951653	 2.0855050003	 0.116455
H	-1.8178043733	 4.5705826244	 2.3222160816	 0.151897
H	-1.7471523734	 2.9505823697	 3.2197322443	 0.112026
73.1468	129.9131	247.8788	281.1043	309.5481	332.6756	393.4651	443.3478	514.6649	610.1273	742.9942	761.132	823.3494	887.0776	912.5667	969.3446	992.5471	1002.3732	1052.4828	1130.3888	1163.0067	1182.1777	1203.5563	1285.518	1320.2617	1389.5667	1436.4135	1488.773	1505.9562	1512.6926	1647.2555	1856.9307	3017.6182	3075.7089	3095.4194	3204.4296	3205.9541	3504.7105	3589.4628
[NH3+]CC1(CO1)C([O-])=O	NC[C@]1(CO1)C(=O)O	
InChI=1S/C4H7NO3/c5-1-4(2-8-4)3(6)7/h1-2,5H2,(H,6,7)	InChI=1S/C4H7NO3/c5-1-4(2-8-4)3(6)7/h1-2,5H2,(H,6,7)/t4-/m0/s1
