23
gdb 57462	2.89951	1.19297	1.03732	1.248	85.95	-0.2352	0.0288	0.264	1278.4808	0.204986	-388.311063	-388.301418	-388.300474	-388.344868	37.771	
C	-1.4940845796	-0.3121534488	-0.0799212894	-0.394156
C	 0.0017274064	 0.0028884286	 0.0222312415	 0.311212
C	 0.2063609976	 1.5176531197	 0.1775104159	-0.421599
O	 0.4363824567	-0.6685646384	 1.2122972434	-0.458488
C	 0.7601788887	-0.5358951825	-1.2161298214	 0.042551
C	 2.2924011991	-0.2548651472	-1.2333924664	-0.28905
C	 2.8708998808	-1.4809653871	-1.8961253841	-0.06567
C	 1.9759839597	-2.461241047	-1.9975346511	-0.065267
C	 0.6370796629	-2.0718358682	-1.4233995837	-0.278029
H	-1.928845056	 0.1490444122	-0.9717057339	 0.108271
H	-1.6625999031	-1.3904398693	-0.1284078382	 0.12448
H	-2.0168687422	 0.0716751086	 0.800617996	 0.116606
H	-0.3351003807	 1.8797204241	 1.0562474174	 0.118459
H	 1.2651995512	 1.7669991774	 0.3050857028	 0.107646
H	-0.1580842336	 2.0599790882	-0.7011789083	 0.112702
H	 1.348762609	-0.4125632786	 1.3830713401	 0.27623
H	 0.3320841485	-0.0408318657	-2.0961784083	 0.070229
H	 2.5393291748	 0.6753264791	-1.7571981647	 0.10381
H	 2.7092535863	-0.1442849873	-0.2193236958	 0.081652
H	 3.909225972	-1.5414924305	-2.203689778	 0.088334
H	 2.1721486145	-3.4477415224	-2.4038044352	 0.089278
H	 0.4655731307	-2.5776494427	-0.4638283697	 0.122715
H	-0.2002089536	-2.3392720123	-2.0774825087	 0.098085
96.0578	105.8065	201.4909	221.889	249.4452	281.8065	292.1063	334.3268	356.533	385.2741	400.9277	488.5569	559.9153	578.2021	725.5801	783.8877	786.519	855.4945	921.2357	932.8226	951.5327	957.4432	972.3319	976.0877	987.2897	1008.4448	1045.6971	1070.4978	1130.7471	1133.8891	1170.2708	1176.9723	1227.2513	1249.1649	1298.4644	1309.0955	1327.3406	1347.1772	1371.1589	1379.8389	1402.1389	1417.3711	1477.681	1483.5836	1490.8335	1493.8047	1498.1978	1510.8309	1692.0804	2972.4871	3021.7573	3024.2916	3032.6144	3046.6536	3053.3359	3063.183	3100.1647	3110.7895	3118.9274	3128.5138	3178.3212	3204.1833	3808.0909
CC(C)(O)C1CC=CC1	CC(C)(O)[C@H]1CC=CC1	
InChI=1S/C8H14O/c1-8(2,9)7-5-3-4-6-7/h3-4,7,9H,5-6H2,1-2H3	InChI=1S/C8H14O/c1-8(2,9)7-5-3-4-6-7/h3-4,7,9H,5-6H2,1-2H3
