19
gdb 36022	1.91546	1.38226	0.95029	0.7114	86.15	-0.2593	0.0485	0.3078	1295.8796	0.15598	-348.675507	-348.665771	-348.664826	-348.710344	36.638	
C	-0.4559521916	 3.2876719483	 2.6364206769	-0.460109
C	-0.2824976813	 2.7267775864	 1.5872728157	 0.319207
C	-0.0413631506	 2.0475140405	 0.3167663572	-0.435179
C	 1.4276496093	 2.0659567004	-0.1045402224	 0.384877
C	 2.3679609694	 1.3042870293	 0.8289879919	-0.435193
C	 2.0971556745	-0.1305212098	 0.870388111	 0.319638
C	 1.8549550289	-1.3079331635	 0.8916827083	-0.460562
C	 1.731991738	 2.0538857202	-1.5795638456	-0.311695
C	 1.9579394594	 3.3096700426	-0.7681660972	-0.311703
H	-0.62423521	 3.7819693621	 3.5608916401	 0.195529
H	-0.3802971672	 1.0059695304	 0.3887650332	 0.144817
H	-0.6477338438	 2.517444785	-0.4670549705	 0.124605
H	 3.4044769931	 1.4692142593	 0.5106472638	 0.124607
H	 2.2839163638	 1.7217336313	 1.8407001186	 0.144847
H	 1.6515264643	-2.3496358834	 0.91942975	 0.195548
H	 2.5991347957	 1.4946745831	-1.9140418764	 0.118037
H	 0.9003244016	 2.035778279	-2.2759298585	 0.112355
H	 1.2753144366	 4.1411895567	-0.9064661414	 0.118024
H	 2.9796809299	 3.6082617922	-0.5588476846	 0.112351
48.082	90.8045	130.2687	142.2385	299.3738	315.7317	315.9789	351.6574	356.413	374.6358	472.3391	575.2593	615.5933	616.6021	640.1064	642.4595	750.1238	778.5268	869.336	910.2423	916.0724	925.1677	981.7167	986.1651	1007.5419	1016.6597	1057.0759	1080.4313	1183.3262	1207.8597	1208.0365	1314.9668	1315.3925	1337.4244	1390.7395	1463.2302	1464.0416	1473.2558	1506.653	2235.5851	2235.7664	3021.9879	3023.728	3057.4434	3058.2472	3129.4483	3133.288	3207.1593	3220.7518	3506.1616	3506.4266
C#CCC1(CC#C)CC1	C#CCC1(CC#C)CC1	
InChI=1S/C9H10/c1-3-5-9(6-4-2)7-8-9/h1-2H,5-8H2	InChI=1S/C9H10/c1-3-5-9(6-4-2)7-8-9/h1-2H,5-8H2
