19
gdb 98407	2.89746	1.052	0.89915	2.9293	73.05	-0.2418	-0.0188	0.2229	1359.7233	0.15478	-460.156521	-460.146081	-460.145137	-460.192151	36.877	
C	 0.2006949167	 1.0980710191	-0.4628057847	-0.425902
C	 0.3916678162	-0.2718124697	 0.1339759573	 0.037893
O	 1.7079164838	-0.6520352331	 0.5389284856	-0.287041
C	 0.7024472538	-0.5373382651	 1.562951125	 0.264368
C	 0.8642643663	 0.5526374837	 2.595152131	-0.469473
C	 0.2281104904	-1.8639997458	 2.1286710486	 0.312216
O	-0.537109629	-1.9036697909	 3.0605043161	-0.292931
C	 0.8044421748	-3.1161508049	 1.4785576091	-0.178438
O	 0.1951454963	-4.2472469941	 2.044131092	-0.398134
H	 0.7716533634	 1.8609913471	 0.0679687084	 0.134917
H	 0.5306227644	 1.0943647553	-1.5069302756	 0.13524
H	-0.8590695258	 1.3731816903	-0.4473451419	 0.133025
H	-0.1421565778	-1.0612420638	-0.4003177805	 0.090782
H	 1.0795963996	 1.519408593	 2.1401847595	 0.123645
H	-0.0490972835	 0.6218325875	 3.1899718666	 0.153096
H	 1.6861110428	 0.3046808787	 3.2745583016	 0.133722
H	 0.6663610804	-3.0555171749	 0.3874769173	 0.11572
H	 1.8951270321	-3.0831509345	 1.6417642675	 0.124451
H	 0.6068404249	-5.0262182981	 1.6593760371	 0.292843
64.209	94.772	128.7929	157.9495	164.2105	189.4342	242.4116	275.6926	307.0298	324.0919	350.4015	471.1795	503.952	568.6172	587.5329	745.2073	785.9588	831.7822	909.0895	991.7484	997.55	1030.1348	1073.5171	1101.0462	1134.9489	1139.5826	1184.4154	1226.7057	1248.8164	1285.9443	1341.0631	1402.2631	1414.447	1444.8712	1453.1142	1473.5286	1474.8525	1484.744	1492.1042	1513.1957	1818.3324	2970.8424	2995.6274	3043.3795	3055.1979	3079.3205	3104.3331	3122.7631	3143.4972	3158.04	3838.3281
CC1OC1(C)C(=O)CO	C[C@H]1O[C@]1(C)C(=O)CO	
InChI=1S/C6H10O3/c1-4-6(2,9-4)5(8)3-7/h4,7H,3H2,1-2H3	InChI=1S/C6H10O3/c1-4-6(2,9-4)5(8)3-7/h4,7H,3H2,1-2H3/t4-,6+/m1/s1
