18
gdb 91179	2.27992	1.76027	1.5489	1.2391	70.5	-0.2532	0.0105	0.2638	971.114	0.148151	-439.092329	-439.084364	-439.083419	-439.124653	30.981	
C	-0.3943562949	 1.3493175807	-0.1179861871	-0.473353
C	 0.0892946794	-0.0779834758	-0.0359703831	 0.352328
O	-1.0488240874	-0.9849979946	-0.1728674236	-0.278054
C	-1.0514190104	-1.7530737545	 0.9559536963	 0.094059
N	-0.1084314549	-1.6508367642	 1.7943804789	-0.249288
C	 0.8153180766	-0.6645911824	 1.2183412743	-0.055522
C	 1.9065430885	-1.2825557895	 0.2950180864	-0.271219
C	 1.267544575	-0.5565842306	-0.9355997525	 0.101871
O	 0.9404943601	-1.2947343991	-2.0778593678	-0.434796
H	 0.4436849419	 2.0393378892	 0.0209775035	 0.123969
H	-0.8441081773	 1.5505191097	-1.0954654268	 0.137688
H	-1.1408797699	 1.5539210704	 0.6557591058	 0.129821
H	-1.9044749118	-2.4177311909	 1.0371655158	 0.143471
H	 1.1674580325	 0.0379870567	 1.9753015719	 0.082656
H	 2.9398985386	-1.0078834698	 0.5164255641	 0.107418
H	 1.8322111026	-2.370865827	 0.2383504916	 0.111736
H	 1.8775629654	 0.289239592	-1.2681949105	 0.089937
H	 0.1407199561	-1.7928060803	-1.8671204571	 0.287281
77.326	200.2944	223.3077	233.6034	317.3562	329.0934	388.4871	425.5035	522.8999	581.9163	631.1306	650.9737	771.1109	835.6917	852.9902	870.0741	921.1543	941.8544	956.9686	1016.4849	1044.8588	1083.8665	1110.1899	1142.6891	1160.3636	1184.3445	1196.0345	1215.1879	1262.4861	1294.4456	1320.9037	1332.9104	1335.887	1409.5832	1440.1832	1473.164	1482.7506	1488.6732	1693.462	3036.3209	3060.7118	3070.3384	3096.9028	3111.161	3111.8607	3130.8077	3215.8222	3776.6426
CC12OC=NC1CC2O	C[C@]12OC=N[C@H]1C[C@H]2O	
InChI=1S/C6H9NO2/c1-6-4(2-5(6)8)7-3-9-6/h3-5,8H,2H2,1H3	InChI=1S/C6H9NO2/c1-6-4(2-5(6)8)7-3-9-6/h3-5,8H,2H2,1H3/t4-,5+,6-/m0/s1
