18
gdb 29859	4.69652	1.20564	0.98074	1.9943	80.95	-0.1826	0.0418	0.2244	1203.5731	0.150017	-401.973702	-401.965798	-401.964854	-402.006298	29.818	
C	-0.0181461079	 1.4324787943	 0.0306283328	-0.329375
N	-0.0890209832	-0.0105979123	 0.0005414373	 0.017371
C	-0.015698992	-0.7815352078	-1.1383697356	-0.256503
C	 0.0588075615	-2.095664024	-0.7449680141	 0.186796
C	 0.0619679487	-3.5204938228	-1.2177156334	-0.380234
C	 0.3601559476	-4.2540919306	 0.1288989611	-0.088646
O	 0.0476544019	-3.3494554773	 1.2180193778	-0.290494
C	 0.0318778982	-2.1042246544	 0.66372785	 0.328444
C	-0.0517553327	-0.8200893852	 1.1328295368	-0.270351
H	 1.0014823545	 1.7942708541	 0.2150592219	 0.132649
H	-0.3598773302	 1.8310949259	-0.9274915031	 0.135823
H	-0.6715110225	 1.82360244	 0.8161699602	 0.136487
H	-0.020347569	-0.3139788598	-2.1104172211	 0.116197
H	-0.9076668024	-3.8249070987	-1.6314732716	 0.114165
H	 0.8238209755	-3.7574282116	-1.9665356814	 0.111963
H	-0.2318113317	-5.1606350105	 0.2730327564	 0.112258
H	 1.424274745	-4.5133095394	 0.1961197426	 0.107643
H	-0.0897809014	-0.3979674897	 2.1222749234	 0.115808
96.9046	115.0873	158.7956	230.1492	290.0992	313.0642	498.0019	544.1412	588.623	633.2042	678.4332	710.6222	725.3159	734.9648	833.6853	856.132	938.4565	999.6826	1010.0313	1073.8814	1083.4235	1121.2619	1147.1417	1181.874	1200.9881	1220.2128	1253.617	1292.7889	1371.2261	1379.7185	1421.3074	1459.2222	1468.1623	1485.2432	1494.436	1513.9355	1518.1752	1580.9407	1651.1281	3016.779	3020.963	3023.2759	3073.3674	3084.0374	3105.5803	3124.5128	3251.8801	3275.3854
CN1C=C2CCOC2=C1	Cn1cc2CCOc2c1	
InChI=1S/C7H9NO/c1-8-4-6-2-3-9-7(6)5-8/h4-5H,2-3H2,1H3	InChI=1S/C7H9NO/c1-8-4-6-2-3-9-7(6)5-8/h4-5H,2-3H2,1H3
