22
gdb 121641	5.80771	0.58545	0.5616	2.4391	84.77	-0.2547	-0.0209	0.2338	2046.5896	0.193012	-404.352726	-404.342362	-404.341418	-404.389713	36.491	
C	 0.0351170025	 1.6222026535	-0.0590896359	-0.380572
C	-0.009442797	 0.1037703986	-0.2490586444	-0.171053
C	-1.3660034031	-0.503749654	 0.121823634	-0.157749
C	-1.409968809	-2.0204300074	-0.0564132891	-0.313729
C	-2.752255022	-2.6475448748	 0.2690579886	 0.377879
O	-3.740447774	-1.9917897175	 0.5341324136	-0.33651
C	-2.8185698084	-4.1451811608	 0.248905373	-0.099815
C	-3.4739910843	-4.7922860662	 1.432478433	-0.217465
N	-4.1493952441	-4.7607635916	 0.1436623201	-0.304001
H	 1.0125757056	 2.0307041099	-0.3336005957	 0.111792
H	-0.7203321807	 2.1203629297	-0.6766876146	 0.117037
H	-0.1600172976	 1.8958387114	 0.9836769762	 0.115998
H	 0.2266554961	-0.1424186742	-1.293147455	 0.0941
H	 0.7786382242	-0.3641718724	 0.3563973306	 0.093106
H	-1.6129445538	-0.2575897804	 1.1615618991	 0.107021
H	-2.1590029866	-0.0506383886	-0.4837611313	 0.113853
H	-1.1633427426	-2.3018468141	-1.0916954774	 0.127546
H	-0.6453763742	-2.5191589171	 0.557140471	 0.122168
H	-2.015034409	-4.6695333755	-0.2601484203	 0.096336
H	-3.1230770976	-5.7680750429	 1.7558568844	 0.125485
H	-3.8226450919	-4.1292656945	 2.2194140412	 0.130985
H	-4.8215254426	-3.991759391	 0.1535687388	 0.247589
36.5984	51.8019	98.3421	101.5705	135.1241	242.2142	246.2179	263.7554	294.1551	327.8574	458.8691	576.5935	681.0512	730.9538	801.6195	814.5915	853.812	896.1073	913.2909	928.768	974.3956	1012.1111	1019.317	1064.2956	1075.504	1116.8172	1121.0955	1132.9311	1149.272	1184.0586	1233.3492	1280.6359	1293.8454	1308.8316	1324.0842	1325.7916	1363.5883	1395.5736	1408.5129	1415.8212	1448.1079	1482.0489	1493.8086	1497.9402	1500.0866	1510.3547	1781.183	3001.9308	3009.7481	3028.2308	3030.459	3035.8922	3040.1985	3079.4425	3098.1843	3103.3059	3112.2457	3153.4461	3205.8812	3456.9404
CCCCC(=O)C1CN1	CCCCC(=O)[C@H]1CN1	
InChI=1S/C7H13NO/c1-2-3-4-7(9)6-5-8-6/h6,8H,2-5H2,1H3	InChI=1S/C7H13NO/c1-2-3-4-7(9)6-5-8-6/h6,8H,2-5H2,1H3/t6-/m1/s1
