18
gdb 23314	3.47507	1.23905	1.05034	1.2499	83.73	-0.2158	-0.0284	0.1874	1162.1254	0.149421	-401.917374	-401.909712	-401.908768	-401.949392	30.644	
O	-0.0602826713	 1.4109277821	-0.3619242219	-0.396747
N	 0.0789045752	 0.0203012458	-0.2224720708	-0.213745
C	-1.0348215108	-0.5522788499	 0.0681531901	 0.327618
C	-0.9919989094	-2.061705172	 0.1960704839	-0.297497
C	-1.9530983273	-2.6044754335	 1.2384668249	-0.034272
C	-2.1096502577	-1.9703766651	 2.5860050994	-0.284205
C	-3.2062177819	-1.799349224	 1.5336321536	-0.077244
C	-3.3389785592	-0.4885852169	 0.8669102426	-0.062611
C	-2.3253401524	 0.1111891031	 0.2214509677	-0.141712
H	 0.8330982719	 1.6764519551	-0.6023863826	 0.305278
H	-1.2700516159	-2.4903043564	-0.7769775078	 0.118145
H	 0.0364425003	-2.3758407229	 0.3954455655	 0.122443
H	-2.0828836359	-3.6818928132	 1.2010910788	 0.090307
H	-2.3216391204	-2.6120833413	 3.4342355985	 0.114105
H	-1.5212732994	-1.0885974913	 2.8163227136	 0.129931
H	-4.1295717626	-2.3400669958	 1.7115082129	 0.087577
H	-4.2982408766	 0.0161543793	 0.9477103728	 0.098582
H	-2.4298081167	 1.106851837	-0.1900711712	 0.114046
84.247	224.1567	249.272	295.9966	341.239	352.2062	426.8089	455.9905	538.6946	613.4776	647.0897	755.9503	762.0316	790.517	815.5284	851.5096	871.7871	953.0666	970.6123	998.926	1016.6799	1027.1461	1058.1298	1079.8566	1118.7027	1128.8824	1185.1373	1217.7475	1234.526	1282.2775	1332.2799	1373.5277	1389.1812	1419.415	1430.9613	1474.2145	1486.474	1666.9083	1696.5159	3011.8489	3086.2644	3131.7473	3148.6635	3156.1069	3169.1348	3218.4048	3223.0364	3825.4833
ON=C1CC2CC2C=C1	ON=C1C[C@H]2C[C@H]2C=C1	
InChI=1S/C7H9NO/c9-8-7-2-1-5-3-6(5)4-7/h1-2,5-6,9H,3-4H2	InChI=1S/C7H9NO/c9-8-7-2-1-5-3-6(5)4-7/h1-2,5-6,9H,3-4H2/t5-,6-/m1/s1
