19
gdb 71717	2.29809	2.10697	1.72811	1.6782	77.55	-0.2386	0.0878	0.3264	923.8971	0.158661	-385.823563	-385.815977	-385.815033	-385.855004	30.903	
C	 0.0352645652	 1.4569986244	-0.0711633298	-0.519733
C	-0.0376689326	-0.0389192727	-0.0282297577	 0.401442
O	 0.5563747469	-0.7232660524	-1.1624692633	-0.33338
C	-0.2344846515	-1.860126891	-0.7602827024	 0.022091
C	 0.192397859	-2.2559303069	 0.6791722277	-0.095079
C	 0.3477454919	-0.8488924119	 1.24577331	-0.131932
C	-0.9842922959	-1.5589174055	 1.3238061288	-0.179778
C	-1.3201010341	-0.9579197921	-0.0810493886	 0.277739
C	-2.6494080749	-0.5839226265	-0.6623513927	-0.540631
H	 1.0788334428	 1.7885548782	-0.0322543925	 0.131905
H	-0.4123228152	 1.8462206247	-0.9899870784	 0.127732
H	-0.4900538122	 1.8889033763	 0.7864431034	 0.124023
H	-0.3860132354	-2.6055182181	-1.5403148054	 0.074122
H	 0.7697180013	-3.1020774984	 1.02540707	 0.090067
H	 1.0452083871	-0.5981648716	 2.0340038049	 0.086948
H	-1.5945707426	-1.8323089572	 2.1725602754	 0.089992
H	-3.1452553475	 0.1889453799	-0.0638453754	 0.121298
H	-2.5286167788	-0.1980092199	-1.6805803635	 0.130454
H	-3.3208681536	-1.4489090489	-0.7079914407	 0.122719
173.9109	189.763	219.4311	232.8341	292.161	327.8626	526.9936	578.1513	612.2493	638.6805	752.8706	778.9803	799.6322	815.1194	836.3407	851.4619	857.2123	867.9037	906.5432	941.1109	967.907	1003.0547	1017.85	1036.9571	1119.4353	1128.3541	1138.4983	1157.8168	1162.4447	1196.3479	1232.1734	1276.7441	1308.4365	1350.9787	1365.5727	1409.6834	1413.4382	1477.3592	1485.201	1493.1543	1493.8198	3022.4115	3035.1963	3084.8666	3093.8495	3102.5017	3115.757	3126.6458	3199.3269	3206.6521	3222.5735
CC12OC3C4C1C4C23C	C[C@@]12O[C@H]3[C@H]4[C@@H]1[C@H]4[C@@]23C	
InChI=1S/C8H10O/c1-7-4-3-5(4)8(7,2)9-6(3)7/h3-6H,1-2H3	InChI=1S/C8H10O/c1-7-4-3-5(4)8(7,2)9-6(3)7/h3-6H,1-2H3/t3-,4+,5-,6+,7-,8-/m1/s1
