16
gdb 114164	5.16977	0.90597	0.83834	4.6392	71.08	-0.2785	-0.0043	0.2742	1329.3954	0.123298	-437.84732	-437.838845	-437.837901	-437.880822	30.805	
O	 0.0135286978	 1.3693544052	-0.2198310444	-0.420696
C	 0.0549484268	-0.0178824518	 0.0777468272	-0.094776
C	-1.3722653701	-0.5272051888	 0.0172230866	-0.002004
C	-2.0928172972	-0.5285174731	-1.3793757584	-0.313115
C	-2.2675139604	-2.0492012446	-1.2312208978	 0.311627
O	-0.9604710972	-2.621634228	-1.0792872587	-0.264152
C	-1.5712619263	-2.0510094717	 0.0778832796	-0.072308
C	-3.3203080382	-2.8801013526	-1.726287203	 0.204726
N	-4.1961467067	-3.5139414451	-2.1368401522	-0.335504
H	 0.9168008341	 1.6941913466	-0.277761952	 0.292201
H	 0.6669728326	-0.5716741888	-0.648006066	 0.108063
H	 0.4725987461	-0.2031852479	 1.0809704312	 0.091037
H	-1.9861511	-0.0170463758	 0.7642638525	 0.101653
H	-3.0363458813	 0.0180651388	-1.3699576008	 0.133887
H	-1.4947520636	-0.2251635883	-2.2398854439	 0.131329
H	-1.7098169364	-2.6998330041	 0.93504295	 0.128029
77.481	106.449	139.989	213.6068	238.7418	265.5348	377.5705	449.6696	466.6228	552.5831	580.3106	634.6828	733.8864	829.5806	864.7254	919.9884	925.1144	970.8412	1016.9322	1061.7737	1080.2063	1102.015	1158.5695	1169.9658	1202.4617	1245.317	1257.9307	1268.4831	1281.7617	1359.4693	1407.0412	1464.0689	1474.4557	1524.9962	2357.6269	2968.6963	3022.5075	3083.6984	3090.2067	3151.6753	3193.5746	3830.8959
OCC1CC2(OC12)C#N	OC[C@H]1C[C@]2(O[C@@H]12)C#N	
InChI=1S/C6H7NO2/c7-3-6-1-4(2-8)5(6)9-6/h4-5,8H,1-2H2	InChI=1S/C6H7NO2/c7-3-6-1-4(2-8)5(6)9-6/h4-5,8H,1-2H2/t4-,5+,6+/m1/s1
