18
gdb 37624	2.82879	2.21675	2.02106	2.1864	72.	-0.2286	0.0861	0.3147	802.5839	0.152481	-401.912989	-401.907269	-401.906325	-401.942682	25.113	
C	-0.044021421	 1.5753369004	 0.0406170063	-0.236286
C	 1.4588694948	 1.8846466399	 0.0459261201	-0.088315
C	 2.0297564019	 0.9240185766	 1.1111391848	-0.046141
C	 1.2712144301	-0.3054945533	 0.7854190496	-0.048327
C	 0.017674624	 0.0335494878	-0.0379859058	 0.08337
O	 0.1785603566	-0.3886925624	-1.3927696484	-0.273411
C	 1.2630319317	 0.2888432275	-2.0305749327	-0.079729
C	 2.1624958049	 0.9471659734	-0.9956650303	-0.000925
N	 2.5646952833	-0.02465394	 0.0813349683	-0.147348
H	-0.5143245976	 1.9132356641	 0.9705379895	 0.100875
H	-0.5944895843	 1.9964573089	-0.806200244	 0.105792
H	 1.7496264533	 2.9339498544	 0.0560148254	 0.071533
H	 2.5453424701	 1.1434100497	 2.0382193554	 0.093664
H	 1.3078968725	-1.1897194865	 1.4103001668	 0.097726
H	-0.8771787608	-0.4736565882	 0.3249699861	 0.079665
H	 1.8300201079	-0.4552749831	-2.6029894137	 0.113754
H	 0.8792221508	 1.039259865	-2.7393934173	 0.092184
H	 3.0544812019	 1.3793677159	-1.45298939	 0.081922
234.5873	355.9771	396.7072	483.7257	559.4091	630.4902	669.1704	730.7724	784.8465	799.2297	839.3178	852.4033	892.128	904.7838	918.7177	935.9848	970.5379	999.342	1029.2138	1046.663	1053.2711	1077.3874	1084.6006	1105.0749	1168.197	1184.6753	1206.9312	1239.9574	1252.9725	1267.179	1289.9749	1298.8033	1318.8814	1348.9467	1357.2911	1381.7922	1405.8154	1482.6012	1511.2259	2980.3664	3043.1607	3047.006	3091.0124	3096.492	3106.1615	3125.3018	3180.4163	3191.8465
C1C2C3C4C1OCC2N34	C1[C@H]2[C@H]3[C@H]4[C@@H]1OC[C@@H]2N34	
InChI=1S/C7H9NO/c1-3-4-2-9-5(1)7-6(3)8(4)7/h3-7H,1-2H2	InChI=1S/C7H9NO/c1-3-4-2-9-5(1)7-6(3)8(4)7/h3-7H,1-2H2/t3-,4+,5-,6+,7-,8?/m1/s1
