17
gdb 94967	3.44712	1.3437	1.14295	3.303	67.74	-0.2315	-0.036	0.1955	1066.1169	0.135621	-458.961475	-458.95358	-458.952636	-458.994376	29.897	
O	-0.0086866225	 1.3667581079	 0.2775957408	-0.440352
C	 0.0071705092	-0.0195256209	-0.0227881263	 0.121937
C	 0.5444129628	-0.8693183195	 1.1449574156	-0.132345
O	-0.5341318012	-0.991349426	 2.0657168876	-0.244381
C	-1.7187673643	-1.0902440637	 1.3059143467	 0.003282
C	-1.4574979795	-0.4617419037	-0.1070837064	-0.059737
C	-1.7420327006	-1.8228994323	-0.8042520617	-0.388014
C	-1.9457158921	-2.4604676549	 0.5854734204	 0.377661
O	-2.1630551164	-3.5716230636	 0.9652043087	-0.281109
H	 0.8877472469	 1.6420988626	 0.4943679099	 0.284753
H	 0.5592145882	-0.2204696408	-0.9526692311	 0.072819
H	 0.8715104284	-1.8572598347	 0.7815497597	 0.10118
H	 1.3837799868	-0.4022626907	 1.6686941386	 0.108847
H	-2.5579960458	-0.7374683705	 1.9101661995	 0.107512
H	-2.0918155826	 0.3687626954	-0.4104396664	 0.099451
H	-2.6430679813	-1.8435339916	-1.4242863939	 0.138907
H	-0.9216761861	-2.258741603	-1.3844876417	 0.129589
48.4853	135.6068	239.7964	247.3929	272.1267	367.1211	416.7656	430.15	535.6419	623.0079	737.2238	752.8887	769.7774	856.57	863.3059	911.6605	956.5877	987.8588	998.4977	1032.2135	1058.449	1083.274	1125.7899	1139.0557	1171.7184	1198.0041	1231.6841	1240.499	1256.8556	1292.6314	1317.3442	1347.7457	1377.7739	1416.2152	1435.1955	1500.74	1897.2682	2971.6885	2999.2423	3051.4717	3085.0006	3090.5869	3103.306	3139.2484	3817.1386
OC1COC2C1CC2=O	O[C@H]1CO[C@H]2[C@@H]1CC2=O	
InChI=1S/C6H8O3/c7-4-1-3-5(8)2-9-6(3)4/h3,5-6,8H,1-2H2	InChI=1S/C6H8O3/c7-4-1-3-5(8)2-9-6(3)4/h3,5-6,8H,1-2H2/t3-,5+,6+/m1/s1
