16
gdb 14499	3.7837	2.00096	1.55055	1.1042	71.14	-0.253	0.0359	0.289	836.7539	0.129837	-346.511987	-346.504825	-346.503881	-346.542838	28.625	
O	-0.0062626409	 1.38371318	-0.0737202965	-0.489022
C	 0.0173421477	-0.0280554592	-0.0111692603	 0.328454
C	 0.9823997428	-0.5548357838	-0.9697341926	 0.244961
C	 1.8204491444	-0.9172787874	-1.7531740402	-0.454384
C	-0.0551566564	-0.7053148082	 1.4111108681	-0.105313
C	-1.4853489179	-0.0993784481	 1.5314982342	-0.252598
C	-1.3992318342	-0.6742686931	 0.0830021603	-0.081773
C	-0.7151730535	-1.9245732511	 0.7075407504	-0.240032
H	 0.9009465145	 1.687636629	-0.1785527072	 0.285188
H	 2.5476384341	-1.2510209607	-2.4517954815	 0.194657
H	 0.7356732168	-0.7172038449	 2.1625050869	 0.074207
H	-2.1637422303	-0.6267374237	 2.2056760012	 0.090168
H	-1.5604536868	 0.981057402	 1.6327643499	 0.118452
H	-2.1616468036	-0.6478529195	-0.6960663179	 0.080014
H	-0.0866773547	-2.5322794321	 0.0550134756	 0.110863
H	-1.357045592	-2.5396002292	 1.3407994496	 0.096159
150.8985	167.7097	255.0854	333.0579	342.5614	504.8855	511.224	524.081	584.6506	621.9334	667.966	676.5336	786.3572	809.8012	899.176	904.2507	914.2629	994.0106	1019.5108	1022.1415	1058.964	1087.7087	1109.9585	1140.7967	1173.646	1188.9343	1197.1212	1233.3689	1249.1391	1250.7236	1365.4051	1493.0809	1530.3412	2225.2127	3072.3671	3076.9881	3104.7672	3114.5268	3140.4436	3165.6676	3499.6221	3823.0621
OC1(C#C)C2CC1C2	O[C@@]1(C#C)[C@H]2C[C@@H]1C2	
InChI=1S/C7H8O/c1-2-7(8)5-3-6(7)4-5/h1,5-6,8H,3-4H2	InChI=1S/C7H8O/c1-2-7(8)5-3-6(7)4-5/h1,5-6,8H,3-4H2/t5-,6+,7-
