18
gdb 13519	3.17141	1.63982	1.40545	3.2615	67.88	-0.2469	-0.0225	0.2244	969.5336	0.151817	-384.944754	-384.935994	-384.93505	-384.978951	30.832	
C	-0.8462074525	 1.2375528386	 0.2570729132	-0.413188
C	-0.1646118864	-0.1077314678	 0.1021005929	 0.157749
O	 0.8532305142	-0.0875322999	-0.9173716466	-0.285356
C	 1.8710125841	-0.5285961752	 0.004568903	-0.083363
C	 0.8793909819	-0.5844852692	 1.179345601	-0.179201
C	 1.132809928	 0.3693178795	 2.3322865715	 0.381963
C	 0.3763996132	 0.0858431241	 3.6162064914	-0.482941
O	 1.8818365622	 1.3146974633	 2.2243100136	-0.299395
H	-0.1257311116	 2.0179283256	 0.5140069572	 0.146173
H	-1.3249739104	 1.5077689886	-0.6892309395	 0.131058
H	-1.622495996	 1.1984586908	 1.0295748836	 0.111396
H	-0.9102782963	-0.8865628679	-0.1095969293	 0.079644
H	 2.3024813516	-1.4922138776	-0.2899151635	 0.09861
H	 2.6623776957	 0.2170355975	 0.1288870503	 0.126718
H	 0.6594911669	-1.5856587393	 1.5556621167	 0.083079
H	 0.7323924596	-0.8544864108	 4.0541475216	 0.143451
H	 0.5263730841	 0.8980030905	 4.3282451018	 0.144503
H	-0.6928292982	-0.0461859308	 3.4157624612	 0.139101
42.7039	68.7142	126.8945	157.4651	252.8965	255.7108	344.3217	366.3767	442.5402	581.4581	595.9281	742.346	746.7254	878.319	890.6549	943.682	962.7568	1005.118	1031.2044	1080.2477	1103.6623	1105.1717	1145.6061	1178.3663	1188.1979	1221.9702	1285.3168	1358.4717	1363.2109	1379.8432	1391.2483	1409.4641	1461.3013	1474.5308	1484.2654	1498.8117	1517.035	1803.5885	3000.1708	3027.8616	3033.0875	3036.6677	3081.6972	3091.6119	3094.2368	3105.0183	3130.213	3153.332
CC1OCC1C(C)=O	C[C@H]1OC[C@H]1C(=O)C	
InChI=1S/C6H10O2/c1-4(7)6-3-8-5(6)2/h5-6H,3H2,1-2H3	InChI=1S/C6H10O2/c1-4(7)6-3-8-5(6)2/h5-6H,3H2,1-2H3/t5-,6+/m1/s1
