17
gdb 50130	4.46918	0.92471	0.83578	2.7341	75.98	-0.249	-0.0406	0.2085	1336.734	0.134356	-421.816268	-421.807822	-421.806878	-421.850152	30.606	
O	 0.0632719142	-0.1004095897	-0.2925697379	-0.246022
C	 0.0255708599	 1.0727930227	-0.0232978471	 0.158538
C	 1.2248382298	 1.9873818714	-0.0322809858	-0.074127
C	 1.1675570322	 3.2603799166	-0.9561880619	-0.336551
C	 1.4487372856	 4.1513483949	 0.254783239	 0.286796
C	 0.3833352417	 3.9622445417	 1.3099703455	-0.338748
C	 1.4243202012	 2.9036517649	 1.1908967962	-0.121096
C	 2.4173874342	 5.2501810008	 0.2963687997	 0.05196
O	 3.0094317726	 5.6739293232	-0.6684282924	-0.2656
H	-0.9365833585	 1.5632658716	 0.2514882524	 0.07195
H	 2.1112019833	 1.3863869958	-0.2399026885	 0.108694
H	 1.9740448156	 3.2734656807	-1.6888427958	 0.146005
H	 0.2189932699	 3.4490688217	-1.4680232915	 0.113114
H	 0.4809685979	 4.5981712427	 2.1848152682	 0.133824
H	-0.6423476687	 3.8055509396	 0.9898534019	 0.129412
H	 2.102622051	 2.6872886791	 2.0072510636	 0.115551
H	 2.5888143583	 5.6713253423	 1.3147109144	 0.0663
56.2498	84.6837	161.6515	167.4299	276.6805	304.2177	368.371	425.3049	456.1658	529.3869	689.3747	761.1248	787.3941	849.1606	870.2498	936.4823	953.3245	966.1121	1022.4409	1047.7005	1058.6795	1065.7731	1090.4512	1115.6493	1167.7899	1228.0449	1238.4841	1254.0294	1300.4831	1329.5808	1381.943	1432.2717	1440.7507	1480.8084	1495.8257	1800.6543	1828.6462	2856.9041	2866.3238	3060.6543	3106.9883	3121.8361	3143.6322	3189.4726	3206.4354
O=CC1CC2(CC12)C=O	O=C[C@H]1C[C@]2(C[C@@H]12)C=O	
InChI=1S/C7H8O2/c8-3-5-1-7(4-9)2-6(5)7/h3-6H,1-2H2	InChI=1S/C7H8O2/c8-3-5-1-7(4-9)2-6(5)7/h3-6H,1-2H2/t5-,6+,7+/m1/s1
