17
gdb 45417	2.63625	1.76623	1.74689	4.5194	71.01	-0.2476	-0.0135	0.2341	895.7899	0.139606	-421.880963	-421.87439	-421.873445	-421.911727	26.965	
O	-0.0186149783	-0.0185059369	 0.03334176	-0.350725
C	 0.0108209703	 1.1802415547	 0.0133620108	 0.445935
O	-1.1278259696	 1.9197560245	 0.0579313087	-0.23918
C	-0.894631703	 3.3577374916	 0.0317248142	 0.055134
C	-0.1193815588	 3.6979293137	 1.3247100922	-0.212708
C	 1.2190252699	 2.9170545489	 1.2832367916	-0.2224
C	 1.2565089047	 2.0623983928	-0.0282622603	-0.194399
C	 1.0961553464	 3.0098660786	-1.197725778	-0.085438
C	-0.0394215273	 3.7052368932	-1.1617832863	-0.072522
H	-1.8877018048	 3.8046265671	 0.0083099702	 0.093569
H	 0.0377974311	 4.7775749359	 1.3882096052	 0.112011
H	-0.7264535113	 3.3972342732	 2.1830375425	 0.119045
H	 2.0777626788	 3.5923037885	 1.2849904203	 0.112708
H	 1.3162688908	 2.2576509076	 2.1495462509	 0.122774
H	 2.1420559936	 1.4323444954	-0.0824532167	 0.095556
H	 1.8558213871	 3.0901623366	-1.9660105008	 0.111766
H	-0.3454253998	 4.4533501648	-1.8822942646	 0.108876
137.0799	213.0035	348.9233	399.9702	426.4247	462.3347	590.0533	616.6347	646.6742	721.6241	788.7424	800.2565	835.8866	862.0263	881.8412	961.4934	962.895	978.8902	983.2536	1031.2249	1035.6792	1056.4296	1131.4658	1151.0251	1185.7666	1217.2914	1256.2554	1283.9167	1311.9147	1323.6798	1361.2079	1379.8355	1389.8152	1481.9404	1502.5587	1680.4528	1862.5104	3057.8565	3067.9712	3098.7035	3117.541	3125.4667	3137.7921	3194.8257	3218.6128
O=C1OC2CCC1C=C2	O=C1O[C@H]2CC[C@@H]1C=C2	
InChI=1S/C7H8O2/c8-7-5-1-3-6(9-7)4-2-5/h1,3,5-6H,2,4H2	InChI=1S/C7H8O2/c8-7-5-1-3-6(9-7)4-2-5/h1,3,5-6H,2,4H2/t5-,6+/m0/s1
