19
gdb 41830	2.33499	2.20679	1.88631	1.2521	77.75	-0.2146	0.0157	0.2303	873.4294	0.163748	-385.894467	-385.888097	-385.887153	-385.924685	27.674	
C	-0.0109218786	 1.5147338129	 0.1732034799	-0.228505
C	 1.3950410633	 2.1202068788	-0.0307407445	-0.202345
C	 2.1663103353	 1.3395631823	-1.1034162663	 0.028642
O	 2.416681198	 0.0114148335	-0.5985438475	-0.261032
C	 1.2444524022	-0.7096503245	-0.3877231114	 0.09798
C	-0.0201864474	 0.0020874067	-0.0169251425	-0.090081
C	 0.1492375389	-0.5862473884	-1.4382534097	-0.140419
C	 0.473458307	 0.3221648634	-2.5557945194	-0.040355
C	 1.4264511938	 1.2495137545	-2.4175457848	-0.101606
H	-0.3740822944	 1.7582805882	 1.1763590827	 0.099548
H	-0.7137892361	 1.9728649546	-0.5315123652	 0.107762
H	 1.3189257525	 3.1772962494	-0.3068359049	 0.095461
H	 1.9774149564	 2.0620608579	 0.8959847858	 0.103081
H	 3.1608062402	 1.7710304255	-1.2456870646	 0.083622
H	 1.4740997051	-1.6834172375	 0.029679854	 0.100835
H	-0.7126019622	-0.5491069328	 0.6115920991	 0.086254
H	-0.4429778146	-1.4647430694	-1.6682816774	 0.082097
H	-0.0566744682	 0.1948134618	-3.4949001606	 0.089885
H	 1.7024237789	 1.9183166831	-3.2255195226	 0.089174
206.8409	289.5533	343.2379	420.8005	459.6228	520.8786	562.9199	657.1143	700.9625	715.9844	755.2956	780.2061	811.6901	869.1401	880.8392	899.1341	931.0185	936.4324	978.4752	1016.4655	1035.2509	1067.7587	1072.3365	1081.6368	1109.6194	1134.7137	1183.7267	1208.2442	1224.8379	1251.8835	1312.4192	1330.0443	1341.2102	1366.9567	1375.8288	1384.3536	1417.4433	1432.7877	1474.9514	1490.3031	1688.7677	3032.9448	3038.9509	3070.7085	3074.8596	3086.3094	3149.5585	3159.6699	3170.493	3179.947	3191.8643
C1CC2OC3C1C3C=C2	C1C[C@H]2O[C@H]3[C@@H]1[C@H]3C=C2	
InChI=1S/C8H10O/c1-3-6-7-4-2-5(1)9-8(6)7/h1,3,5-8H,2,4H2	InChI=1S/C8H10O/c1-3-6-7-4-2-5(1)9-8(6)7/h1,3,5-8H,2,4H2/t5-,6+,7-,8+/m0/s1
