19
gdb 89755	2.45707	1.55109	1.13911	2.5179	75.69	-0.2478	0.0593	0.3071	1118.058	0.15805	-422.973042	-422.964528	-422.963584	-423.006095	32.957	
O	 0.6170544457	 0.6145293633	-0.8536315972	-0.431169
C	 0.0384739711	-0.3138879505	 0.0242020078	 0.073737
C	 0.062032978	-0.054795778	 1.5692866874	-0.387315
C	-1.3962211214	-0.5352884899	 1.6303414959	 0.292541
C	-1.9223575535	-1.7063789289	 2.4120277317	-0.308796
C	-2.4540019247	-0.31614216	 2.6684455249	-0.339256
C	-1.4921018699	-0.4204923919	 0.1251512466	 0.350024
C	-2.4929404613	 0.2402651697	-0.7168189492	-0.279629
O	-2.3313527421	-1.1887147605	-0.7115203811	-0.276671
H	 0.2496822508	 1.482228144	-0.6527863228	 0.27861
H	 0.4769962306	-1.2838629428	-0.2263392568	 0.110556
H	 0.8016401178	-0.6118886805	 2.148112423	 0.111295
H	 0.1676261019	 1.0131950469	 1.7912405906	 0.096567
H	-2.5617491486	-2.4042495978	 1.8817811648	 0.129856
H	-1.2739746521	-2.1544753959	 3.1579118298	 0.113608
H	-2.1653135839	 0.1826135027	 3.5880675648	 0.115245
H	-3.4606413219	-0.0858873715	 2.3330168563	 0.11533
H	-3.4177762281	 0.6082106015	-0.2746892712	 0.115045
H	-2.1798871685	 0.73483763	-1.6355562653	 0.120421
68.0091	175.4797	197.7824	218.3993	248.1103	310.9835	325.7583	420.8876	482.0101	508.5145	570.143	634.7017	770.2439	785.4236	855.9054	874.319	880.7971	918.7584	927.9433	983.6276	999.5683	1039.1228	1055.7461	1078.4418	1097.5501	1121.1162	1135.6367	1152.2142	1162.5833	1191.0286	1197.5736	1244.8808	1257.5702	1310.3513	1370.969	1425.5334	1442.8594	1459.4235	1483.4881	1500.991	1531.8341	3040.4883	3080.3557	3080.553	3110.5461	3122.2186	3128.893	3169.8537	3202.604	3221.0351	3803.2273
OC1CC2(CC2)C11CO1	O[C@H]1CC2(CC2)[C@]21CO2	
InChI=1S/C7H10O2/c8-5-3-6(1-2-6)7(5)4-9-7/h5,8H,1-4H2	InChI=1S/C7H10O2/c8-5-3-6(1-2-6)7(5)4-9-7/h5,8H,1-4H2/t5-,7+/m0/s1
