25
gdb 100749	2.72819	0.86732	0.79167	2.3777	84.84	-0.2549	0.0618	0.3167	1609.0609	0.226646	-426.629687	-426.618235	-426.617291	-426.666149	42.635	
C	 1.0054362881	-0.356919517	-0.961238193	-0.396049
C	 0.0292963163	-0.0279909117	 0.1786160669	 0.046711
C	 0.0374555977	 1.4777940028	 0.4792134329	-0.405279
C	-1.4122814092	-0.5572964994	-0.0651166035	 0.002659
C	-2.0044341846	-0.1204207399	-1.4163348012	-0.416495
C	-1.4958557348	-2.0834766247	 0.1181246908	 0.085904
O	-1.0091879279	-2.4946946353	 1.4065363099	-0.440229
C	-2.902274771	-2.6706509226	-0.0594172773	-0.070191
O	-2.9097894495	-4.0481395559	 0.2441570755	-0.425857
H	 2.0211282537	-0.0516303173	-0.6899475722	 0.112983
H	 1.0357810782	-1.428046659	-1.1829591398	 0.116962
H	 0.7419335826	 0.1701321407	-1.8844933607	 0.113453
H	 0.3899282483	-0.5433193091	 1.0760887394	 0.084547
H	-0.2882598117	 2.0706105646	-0.3829406271	 0.114507
H	-0.6219529517	 1.7225504511	 1.3192725437	 0.105265
H	 1.0464424264	 1.8143422836	 0.7394657132	 0.112488
H	-2.043347841	-0.1184241887	 0.72578539	 0.055484
H	-3.0836554136	-0.2902825746	-1.4560536597	 0.12199
H	-1.8394777531	 0.946089607	-1.5921275239	 0.118743
H	-1.5518791653	-0.667196436	-2.2501820848	 0.12332
H	-0.8282255503	-2.5872123011	-0.5907168911	 0.098621
H	-1.4825431938	-1.9796976321	 2.0717645954	 0.280363
H	-3.6081011945	-2.1104133422	 0.5839762345	 0.068235
H	-3.2458158021	-2.562941838	-1.0922815032	 0.108775
H	-2.3149137371	-4.1411980153	 1.0004094153	 0.283091
50.8583	74.7315	131.94	156.835	220.8865	230.5489	252.0463	273.8935	278.6568	299.471	325.8443	348.6667	418.2971	430.547	452.8586	535.3086	571.3497	586.9075	779.9766	851.5795	906.7487	931.0618	940.3668	966.6401	1010.0016	1030.5231	1053.6302	1070.6092	1101.6048	1128.7132	1149.6712	1177.996	1208.6862	1215.1575	1251.3547	1294.9211	1330.9576	1347.6044	1377.4599	1386.2303	1387.7153	1402.6498	1411.9947	1417.9177	1428.3921	1450.074	1486.0416	1491.3937	1500.6729	1507.3475	1509.2219	1513.4496	1515.3188	2918.6786	2961.5348	3025.8765	3034.3525	3040.72	3043.6874	3051.6006	3084.8558	3091.2255	3094.6899	3101.5899	3104.8818	3110.0555	3116.2406	3754.7497	3777.9314
CC(C)C(C)C(O)CO	CC(C)[C@@H](C)[C@@H](O)CO	
InChI=1S/C7H16O2/c1-5(2)6(3)7(9)4-8/h5-9H,4H2,1-3H3	InChI=1S/C7H16O2/c1-5(2)6(3)7(9)4-8/h5-9H,4H2,1-3H3/t6-,7+/m1/s1
