19
gdb 107555	2.50069	1.60377	1.11272	1.803	76.62	-0.2362	0.0094	0.2455	1123.4806	0.158569	-423.019364	-423.010656	-423.009712	-423.0526	33.099	
C	-0.2857888311	 1.450736019	 0.005614303	-0.494072
C	-0.1471761891	-0.0387002327	-0.0086586301	 0.282224
C	-0.0592379923	-0.8468644839	-1.0714535132	-0.180001
C	 0.0723761884	-2.3083712227	-0.6969400715	-0.29701
C	 0.1239349756	-2.2634955844	 0.8246472934	-0.027679
O	 1.2410903688	-1.5425518387	 1.3547821588	-0.312386
C	-0.0479964839	-0.8629636284	 1.2484999085	 0.306202
C	-0.5866331441	-0.413191639	 2.578883836	-0.173302
O	 0.1998359244	 0.6363077836	 3.1227873256	-0.416739
H	 0.5391170108	 1.9196492744	 0.5521957764	 0.140272
H	-0.311720724	 1.8536562806	-1.0104133699	 0.118323
H	-1.2045199568	 1.7625320638	 0.5172622417	 0.128984
H	-0.0408782581	-0.5093336231	-2.1024433982	 0.093164
H	-0.7817424028	-2.9052056044	-1.0429996222	 0.111279
H	 0.9742781473	-2.7703346313	-1.1167818612	 0.124624
H	-0.2039657663	-3.1118448087	 1.4205136089	 0.093034
H	-1.6005193842	-0.0137864033	 2.470845241	 0.11212
H	-0.6325331158	-1.2751679449	 3.2604699588	 0.09599
H	 1.103853473	 0.3025370441	 3.1622419741	 0.294972
81.2572	135.3946	170.2391	210.9233	255.2696	297.388	339.0236	389.2473	444.8041	469.5377	571.969	622.6439	702.0282	749.9621	805.6932	815.0742	893.7723	945.5461	953.7209	988.9292	998.0414	1037.7907	1045.578	1069.4842	1091.442	1135.3853	1186.4817	1204.0878	1251.0834	1287.8519	1314.8961	1348.75	1380.7106	1417.4549	1422.2661	1441.9023	1463.6738	1474.0942	1484.3884	1492.6562	1703.4537	2998.0365	3024.0044	3028.7487	3059.5948	3076.2907	3081.3265	3115.852	3142.472	3187.1645	3796.2738
CC1=CCC2OC12CO	CC1=CC[C@H]2O[C@@]12CO	
InChI=1S/C7H10O2/c1-5-2-3-6-7(5,4-8)9-6/h2,6,8H,3-4H2,1H3	InChI=1S/C7H10O2/c1-5-2-3-6-7(5,4-8)9-6/h2,6,8H,3-4H2,1H3/t6-,7+/m1/s1
