18
gdb 76102	2.29674	1.42046	1.09205	2.9259	79.5	-0.2249	0.0502	0.275	1168.3505	0.145691	-401.855195	-401.846244	-401.8453	-401.88918	33.722	
O	 0.431616045	 1.5488310836	 0.4404930597	-0.42021
C	 0.3251841285	 0.194703777	 0.1945425584	 0.11002
C	-0.4899406135	-0.710048731	 1.1323843109	-0.310858
C	-1.1230150296	-0.1719880733	 2.2953677248	 0.348672
C	-1.6430971583	 0.2699407211	 3.2862084736	-0.453204
C	-0.9912455559	-0.3548468329	-0.2762343962	-0.040185
N	-2.0295896323	 0.6292728434	-0.3652364312	-0.080818
C	-2.724716047	 0.7580733329	-1.6441666499	-0.227648
C	-3.4091711865	 0.1623543429	-0.4629461195	-0.21083
H	-0.4752486103	 1.8926647824	 0.4212951846	 0.293736
H	 1.2466165825	-0.2206937506	-0.2002801575	 0.110654
H	-0.1198354473	-1.7266802125	 1.2350660331	 0.112721
H	-2.0970494021	 0.6637471556	 4.1611085653	 0.191929
H	-1.0091092404	-1.1695400768	-1.0031556194	 0.083606
H	-2.9482501562	 1.7731402125	-1.9581560518	 0.125576
H	-2.4313459281	 0.0859030338	-2.4480014539	 0.118672
H	-3.5770764186	-0.9120649281	-0.4697161563	 0.12005
H	-4.1377988298	 0.7362437599	 0.1008836653	 0.128118
57.5871	109.4846	126.9639	172.307	252.9333	319.2018	361.6762	386.0482	460.7689	570.0901	597.1661	633.182	648.5705	674.6232	742.4355	766.7942	790.9461	852.9803	903.7617	953.1119	1010.0707	1024.9384	1057.9762	1073.7725	1114.0511	1120.7922	1123.7352	1130.0314	1175.2704	1199.8977	1227.9039	1313.2978	1349.0841	1357.4415	1384.1042	1468.3393	1492.6075	1519.2825	2235.0391	3070.4177	3103.7664	3111.7234	3139.6464	3166.7979	3188.7794	3204.7375	3506.3447	3700.6212
OC1C(C#C)C1N1CC1	O[C@H]1[C@@H](C#C)[C@H]1N1CC1	
InChI=1S/C7H9NO/c1-2-5-6(7(5)9)8-3-4-8/h1,5-7,9H,3-4H2	InChI=1S/C7H9NO/c1-2-5-6(7(5)9)8-3-4-8/h1,5-7,9H,3-4H2/t5-,6+,7-/m0/s1
