14
gdb 11187	4.03553	1.58072	1.38225	3.7572	63.17	-0.2518	0.0271	0.2788	897.4376	0.108849	-378.73225	-378.725082	-378.724138	-378.763741	26.865	
O	 0.0660319625	 0.0148159823	-0.1946734032	-0.401684
C	 0.0152462804	 1.2163339195	-0.0789308395	 0.436209
N	-1.0909678766	 2.0300877345	-0.2716567064	-0.33322
C	-0.8383702083	 3.3857904567	 0.1776205228	-0.170931
C	 0.7135941166	 3.4618000897	 0.0604806087	-0.167262
N	 1.0675369098	 2.0604702602	 0.2886810413	-0.328904
C	 1.1693436623	 3.9743683031	-1.2346371161	 0.354373
C	 1.5693793002	 4.3931306028	-2.2876330858	-0.474891
H	-1.9991126528	 1.6053162216	-0.1776623138	 0.25683
H	-1.3258750277	 4.131690207	-0.4531793741	 0.131044
H	-1.137395964	 3.5491151184	 1.2224018275	 0.112765
H	 1.1183965467	 4.0957103527	 0.8561985646	 0.120287
H	 1.9931710811	 1.7433348969	 0.0424693501	 0.257568
H	 1.9173697998	 4.7578964148	-3.2226945463	 0.207816
90.8065	148.9081	224.4453	268.9994	433.2466	468.4603	509.3069	533.7528	597.7749	640.7843	663.1433	721.549	769.2695	788.7245	836.0699	964.3225	989.8516	1041.4169	1097.2666	1118.3395	1220.1917	1239.432	1275.0843	1358.6116	1375.1455	1404.3556	1438.771	1524.5906	1857.9227	2234.9809	3003.6556	3050.2472	3103.8849	3501.4516	3630.3705	3653.8654
O=C1NCC(N1)C#C	O=C1NC[C@@H](N1)C#C	
InChI=1S/C5H6N2O/c1-2-4-3-6-5(8)7-4/h1,4H,3H2,(H2,6,7,8)	InChI=1S/C5H6N2O/c1-2-4-3-6-5(8)7-4/h1,4H,3H2,(H2,6,7,8)/t4-/m0/s1
