23
gdb 105881	2.0206	1.40124	1.25873	1.3578	85.77	-0.2378	0.0777	0.3155	1218.104	0.204873	-388.267649	-388.25778	-388.256836	-388.301932	37.686	
C	-0.2883733267	 1.5319272343	-0.0596276671	-0.374791
C	 0.1053157253	 0.0502826031	 0.0316627556	-0.290834
C	 0.7788345064	-0.468920913	-1.2135807453	 0.318341
C	-0.0019861199	-1.0143905687	-2.3665298771	 0.054309
O	 0.1631982636	-0.5268746085	-3.6723198787	-0.420603
C	 0.97630727	-1.9346619701	-1.7008070837	-0.191736
C	 2.403261361	-1.6100419061	-2.1544922778	-0.249189
C	 2.2447941759	-0.1580316904	-1.5964227248	-0.010169
C	 2.5798953901	 1.0327617543	-2.4898699574	-0.422225
H	 0.5898810207	 2.168806454	-0.2048196793	 0.121825
H	-0.9661077742	 1.705924513	-0.9016246056	 0.122515
H	-0.7908803269	 1.8623770537	 0.8550417713	 0.10799
H	 0.7720554362	-0.0988722831	 0.8919031379	 0.092516
H	-0.7900281333	-0.5513590426	 0.2346287973	 0.092512
H	-1.0426846756	-1.2227580279	-2.1096685107	 0.08002
H	 0.0632957942	-1.2690132855	-4.2783736636	 0.284281
H	 0.6600974222	-2.8596192051	-1.2299622779	 0.078678
H	 3.1703340242	-2.1882788477	-1.6356892876	 0.096538
H	 2.5766305728	-1.685344847	-3.2327595765	 0.089191
H	 2.8200514489	-0.0822758017	-0.6660826402	 0.067091
H	 2.0274088039	 0.9844276182	-3.4293894902	 0.142213
H	 2.3341970175	 1.9799200284	-1.9970398937	 0.108874
H	 3.6528485437	 1.0511434284	-2.7154004148	 0.102651
68.7129	133.0916	182.6368	204.7909	214.8814	226.1788	273.6894	292.0123	339.2105	354.7143	389.9388	516.8407	573.4705	669.4968	714.6187	784.5676	795.7071	847.2773	869.8536	894.6892	958.1768	984.8571	1000.0074	1022.0899	1040.3004	1088.7482	1096.4256	1108.7812	1124.4129	1172.5331	1185.1861	1232.6715	1239.539	1260.1915	1288.4636	1298.3118	1325.0405	1355.6403	1366.0494	1373.6985	1404.0374	1410.984	1469.7996	1484.046	1489.4984	1498.0787	1499.2067	1507.9093	1510.7312	3010.3252	3024.5695	3032.0396	3035.4544	3042.7947	3049.755	3081.7708	3084.4656	3104.1547	3107.6975	3108.0633	3143.982	3163.417	3798.6928
CCC12C(O)C1CC2C	CC[C@]12[C@@H](O)[C@H]1C[C@H]2C	
InChI=1S/C8H14O/c1-3-8-5(2)4-6(8)7(8)9/h5-7,9H,3-4H2,1-2H3	InChI=1S/C8H14O/c1-3-8-5(2)4-6(8)7(8)9/h5-7,9H,3-4H2,1-2H3/t5-,6-,7+,8-/m1/s1
