23
gdb 103178	1.87867	1.47056	1.13759	1.5471	81.04	-0.236	0.0626	0.2985	1250.5391	0.20354	-425.422325	-425.411882	-425.410938	-425.456817	39.97	
C	 0.1489235725	 1.4930456839	 0.275404818	-0.422286
C	 0.000745074	-0.0291583436	 0.4143921499	-0.222497
C	-1.4049628273	-0.5494393912	 0.0863925224	 0.34187
O	-1.8205698949	-0.1419771409	-1.2060977012	-0.490345
C	-1.5991913243	-2.0871487943	 0.2693245863	 0.015163
C	-0.4291981378	-3.0490712532	 0.1286371312	-0.421765
C	-2.2036993703	-1.8193257361	 1.6748125857	-0.301873
C	-2.4544255059	-0.3578429969	 1.2378686549	 0.09514
O	-2.3445159416	 0.6903757437	 2.174186822	-0.430585
H	 1.1494997615	 1.8145871284	 0.5794861477	 0.114835
H	 0.0186867255	 1.8085941192	-0.765411267	 0.115233
H	-0.5842278241	 2.0213892269	 0.8907023121	 0.136538
H	 0.7169257117	-0.5255905805	-0.2500346114	 0.107794
H	 0.2740764972	-0.3324071346	 1.4337568521	 0.079915
H	-1.8405203554	 0.8207280586	-1.2278033178	 0.279272
H	-2.398658651	-2.3788410535	-0.4191923716	 0.088031
H	 0.3870801085	-2.8053951883	 0.8167238701	 0.110127
H	-0.7470963702	-4.0743257948	 0.3472800878	 0.114343
H	-0.0263429576	-3.0385851599	-0.8898436747	 0.12386
H	-3.0624795703	-2.4129144304	 1.9943613207	 0.103866
H	-1.4351853668	-1.8724497021	 2.4562495931	 0.087655
H	-3.4414730657	-0.2484825056	 0.7789410876	 0.095404
H	-1.5666345376	 0.5263220352	 2.7169469422	 0.280307
97.4768	138.5672	161.951	209.1806	222.3202	238.4177	251.3431	304.1506	313.8772	326.0146	334.582	423.432	457.6612	497.3229	555.4089	593.4704	709.6367	784.5645	835.3888	887.3378	899.7796	935.8181	976.3733	1012.8104	1037.4667	1067.3586	1073.1398	1107.4689	1157.3504	1157.9799	1179.3683	1208.6408	1232.325	1248.0382	1298.3621	1300.4152	1314.5352	1334.3735	1374.5039	1385.871	1404.1028	1409.6442	1436.3521	1480.6583	1487.7656	1498.0103	1498.7648	1505.5888	1519.5007	3016.8359	3027.5902	3031.8267	3037.6407	3056.7005	3061.8881	3073.4251	3094.048	3098.7593	3099.5321	3110.512	3123.0275	3809.7474	3817.6519
CCC1(O)C(C)CC1O	CC[C@@]1(O)[C@@H](C)C[C@H]1O	
InChI=1S/C7H14O2/c1-3-7(9)5(2)4-6(7)8/h5-6,8-9H,3-4H2,1-2H3	InChI=1S/C7H14O2/c1-3-7(9)5(2)4-6(7)8/h5-6,8-9H,3-4H2,1-2H3/t5-,6+,7+/m0/s1
