22
gdb 115309	2.47912	1.33666	0.99298	3.4592	83.57	-0.2335	0.0346	0.2681	1295.3496	0.195137	-404.408746	-404.39901	-404.398066	-404.443585	35.363	
C	-0.3028738487	 1.4060646599	 0.1145368729	-0.385478
C	-0.0966892174	-0.0943779298	-0.1104994743	-0.181224
C	 0.8616443693	-0.4266409204	-1.2757134341	-0.105566
C	 1.1512385023	-1.9337201014	-1.428715183	-0.249408
C	 0.1758586914	-2.4126387157	-2.5252188837	-0.165269
N	-0.106535488	-1.2024988287	-3.2729398869	-0.060377
C	-0.8570671072	-1.2095748034	-4.5051844726	-0.34478
C	 0.2332315513	-0.0451464926	-2.6224816986	 0.409468
O	 0.0314463771	 1.0789212994	-3.0434965852	-0.403987
H	 0.6427522194	 1.8927314074	 0.3782837834	 0.111456
H	-0.6812091049	 1.8902151912	-0.7881085223	 0.152965
H	-1.0086446899	 1.5822142845	 0.9323391471	 0.104266
H	 0.3103185335	-0.5524319164	 0.7997598343	 0.09427
H	-1.0648336313	-0.5820400699	-0.2887624878	 0.096214
H	 1.780493863	 0.1529616996	-1.144761523	 0.094552
H	 2.1803768502	-2.0876902905	-1.7650537128	 0.111315
H	 1.0219686369	-2.4884227786	-0.4962149669	 0.10517
H	 0.6188899473	-3.177636041	-3.1739449748	 0.107557
H	-0.747130661	-2.8405636196	-2.1044362135	 0.103052
H	-1.8592241903	-1.6356204795	-4.3618947705	 0.119662
H	-0.952212642	-0.1750063977	-4.8393940404	 0.164704
H	-0.3431038909	-1.7964241467	-5.2760592673	 0.121438
63.1437	109.6165	134.0437	157.496	193.7059	209.2749	243.4095	310.4986	323.8296	373.4088	484.3762	609.4244	671.6839	719.95	753.9214	800.7326	842.8433	917.3818	946.9828	993.9097	1024.8522	1034.8878	1057.6602	1105.9362	1134.9445	1146.9783	1167.6171	1219.1535	1229.9744	1269.8501	1285.9087	1297.2342	1326.0857	1335.9706	1356.0514	1375.5918	1415.0315	1431.4626	1452.4697	1488.1265	1493.5193	1494.8454	1496.0895	1511.1294	1515.1289	1544.9632	1788.8126	2982.5549	3008.7901	3011.6704	3036.2533	3039.3496	3044.1348	3058.4951	3058.8678	3070.9915	3098.9386	3106.6052	3136.4615	3142.279
CCC1CCN(C)C1=O	CC[C@H]1CCN(C)C1=O	
InChI=1S/C7H13NO/c1-3-6-4-5-8(2)7(6)9/h6H,3-5H2,1-2H3	InChI=1S/C7H13NO/c1-3-6-4-5-8(2)7(6)9/h6H,3-5H2,1-2H3/t6-/m0/s1
