21
gdb 77479	1.94112	1.5467	1.41065	1.8522	78.95	-0.2257	0.0774	0.3031	1133.5601	0.179904	-424.198302	-424.188486	-424.187542	-424.232044	37.22	
C	-0.101376106	 1.5407088127	-0.0065939205	-0.430056
C	 0.1809406172	 0.0516041777	 0.0419069707	 0.108798
O	 1.3460863202	-0.3764274988	-0.7394993684	-0.366476
C	 1.8015675578	-1.1993030154	 0.3568537844	 0.354268
C	 2.3120650243	-2.5636054889	 0.0261714603	-0.496192
C	 2.2095595898	-0.2722445737	 1.4494169518	 0.029312
O	 2.7818747128	 0.9730794093	 1.18497678	-0.438786
C	 0.7303444707	-0.623234827	 1.2978768485	 0.136381
C	-0.1052999751	-1.2368810466	 2.3830525681	-0.503515
H	 0.7141141582	 2.1185693976	 0.4304719949	 0.138702
H	-0.261230932	 1.8622987958	-1.0412092139	 0.123908
H	-1.0173116425	 1.7576265705	 0.5541486987	 0.119444
H	-0.6901931063	-0.5055449831	-0.3318759693	 0.079913
H	 3.2100517933	-2.4980655008	-0.5989705837	 0.13406
H	 2.5777649772	-3.1031951546	 0.9399953804	 0.124726
H	 1.5624445075	-3.1465835232	-0.5185459638	 0.127401
H	 2.6652079128	-0.7432226573	 2.3175946132	 0.099892
H	 2.7301724026	 1.0804870369	 0.2249054558	 0.291542
H	-0.5689937507	-0.4660322532	 3.0104322524	 0.127582
H	-0.9087359974	-1.859567029	 1.9719464723	 0.117813
H	 0.4999423457	-1.8694226688	 3.0406928281	 0.121283
158.2215	166.595	171.8629	185.0071	206.485	224.3832	240.7444	263.8417	305.7767	359.0271	456.5416	473.8451	576.8361	596.8822	642.9407	698.0014	749.5852	818.2403	861.0252	912.3962	943.2677	997.8037	1048.4684	1074.5616	1095.9106	1102.1873	1128.5313	1146.9429	1201.3019	1230.9969	1256.2993	1286.8145	1330.7641	1379.5226	1394.4212	1409.0828	1409.8751	1419.415	1474.9517	1486.4206	1487.4802	1488.9026	1495.935	1504.0265	1516.3552	2995.9159	3018.8885	3030.3515	3038.8948	3076.5156	3092.617	3093.4189	3100.3067	3112.8286	3142.0928	3144.1229	3744.0785
CC1OC2(C)C(O)C12C	C[C@H]1O[C@@]2(C)[C@@H](O)[C@@]12C	
InChI=1S/C7H12O2/c1-4-6(2)5(8)7(6,3)9-4/h4-5,8H,1-3H3	InChI=1S/C7H12O2/c1-4-6(2)5(8)7(6,3)9-4/h4-5,8H,1-3H3/t4-,5+,6-,7+/m1/s1
