17
gdb 30187	3.7234	1.33347	1.1234	1.2395	74.32	-0.2143	0.0164	0.2307	1081.9546	0.138425	-421.856031	-421.848862	-421.847918	-421.887689	28.512	
O	 0.1043793609	 1.3928374384	-0.0246676074	-0.430194
C	 0.0272845272	-0.02197563	 0.0381669597	 0.134964
C	 0.6124328695	-0.5549580991	 1.3938206644	-0.372692
C	-0.6537460894	-0.7185402703	 2.1601190897	 0.310484
C	-1.7917207113	-0.700957383	 1.424113418	 0.234816
C	-1.4633546084	-0.5095439554	-0.0298550326	-0.372285
C	-2.8624444666	-0.93966885	 2.3463332534	-0.368446
C	-2.2639592601	-1.0767103141	 3.563808539	-0.013393
O	-0.9014613561	-0.948131587	 3.4696488497	-0.202146
H	-0.4236869024	 1.7414095317	 0.7035329826	 0.28142
H	 0.6101866364	-0.3744179811	-0.8157384606	 0.088531
H	 1.1461066058	-1.5058100123	 1.2617750114	 0.115418
H	 1.3238303121	 0.1692435568	 1.8018726342	 0.122256
H	-2.063582027	 0.2408322131	-0.5538016744	 0.113804
H	-1.5514493748	-1.446368589	-0.5954538987	 0.110091
H	-3.9227302054	-0.9981258044	 2.1545336345	 0.11335
H	-2.6424855205	-1.2497091142	 4.557743547	 0.134022
85.9023	210.3571	233.8557	367.9241	382.2147	386.2076	486.8789	614.0187	629.6241	652.9961	706.3872	732.8078	785.676	823.0442	849.4394	885.418	922.1714	937.5985	1023.2694	1047.8207	1064.0612	1072.7717	1149.4095	1163.6528	1171.6055	1229.7745	1253.428	1263.294	1309.7898	1322.3344	1360.9161	1431.4149	1461.9789	1484.2367	1489.8435	1519.0536	1644.0937	3016.3003	3021.1923	3076.8032	3081.1507	3091.588	3250.2648	3282.5705	3786.3031
OC1CC2=C(C1)C=CO2	O[C@H]1Cc2c(C1)cco2	
InChI=1S/C7H8O2/c8-6-3-5-1-2-9-7(5)4-6/h1-2,6,8H,3-4H2	InChI=1S/C7H8O2/c8-6-3-5-1-2-9-7(5)4-6/h1-2,6,8H,3-4H2/t6-/m1/s1
