17
gdb 54920	4.77796	0.89088	0.79365	1.353	75.49	-0.2409	-0.0218	0.2191	1411.4667	0.132403	-421.788295	-421.778816	-421.777871	-421.824295	33.328	
C	-0.0733569401	 0.5542920262	 1.2152428193	-0.47721
C	-0.098348931	 0.4529833815	-0.2926099803	 0.346246
O	 0.6388396492	 1.0779056449	-1.0197080608	-0.294547
C	-1.1466520186	-0.4862126849	-0.8879821544	 0.052123
C	-0.7286382262	-1.2984406358	-2.1236256105	-0.306976
C	-0.9630996339	-2.5371864309	-1.2142057508	-0.037247
O	-1.3556148026	-1.6826164894	-0.1001311599	-0.300304
C	-2.0034023086	-3.466762899	-1.6161016585	 0.332514
C	-2.8582996682	-4.2372918644	-1.962549344	-0.451706
H	 0.6987692297	 1.2570565529	 1.5294120664	 0.140098
H	-1.0517173564	 0.881819147	 1.5860028349	 0.143719
H	 0.1027372239	-0.4353467437	 1.6468618552	 0.159676
H	-2.0820951041	 0.0828400948	-0.9978466279	 0.109321
H	-1.3986560165	-1.2326831335	-2.9790662708	 0.12806
H	 0.3006433401	-1.1356030209	-2.4412792208	 0.136714
H	-0.0480465664	-3.0880700277	-0.9641081514	 0.113423
H	-3.6141527704	-4.920301877	-2.2634983556	 0.206095
31.085	41.0239	108.3063	124.367	196.5329	235.7287	291.2808	405.3581	468.4946	508.2757	566.7689	606.6152	623.6302	675.5838	715.8457	763.7578	878.2664	939.4612	948.5523	972.0447	1008.4582	1038.7882	1066.7951	1088.7181	1145.1778	1208.8282	1248.5047	1252.6434	1288.4318	1343.0728	1371.0622	1380.3794	1459.8241	1466.1224	1494.517	1812.5555	2236.5486	2994.6185	3027.3643	3042.6973	3105.6966	3107.8616	3159.5168	3167.0627	3501.991
CC(=O)C1CC(O1)C#C	CC(=O)[C@H]1C[C@@H](O1)C#C	
InChI=1S/C7H8O2/c1-3-6-4-7(9-6)5(2)8/h1,6-7H,4H2,2H3	InChI=1S/C7H8O2/c1-3-6-4-7(9-6)5(2)8/h1,6-7H,4H2,2H3/t6-,7+/m0/s1
