19
gdb 92773	3.55192	1.02761	0.90886	2.0951	79.15	-0.2332	0.0129	0.2462	1319.5056	0.159285	-423.01252	-423.004038	-423.003094	-423.046201	31.982	
O	-0.5701747011	 1.2704656468	 0.7321274419	-0.438643
C	-0.0971630895	 0.0950827914	 0.0815447691	 0.115479
C	 0.8198926759	-0.745657431	 1.011107141	-0.278642
C	-0.1191178147	-1.766328463	 1.5991920689	-0.187093
C	-1.2983730203	-1.7890316847	 0.9717806364	 0.378882
C	-1.3341194448	-0.7925867391	-0.1674464201	-0.315065
C	-2.4187101989	-2.6923320752	 1.2883342892	-0.046969
C	-3.8339037893	-2.3054021746	 1.1317796037	-0.185536
O	-3.2114921069	-3.1621714164	 0.1808900251	-0.23508
H	 0.1931873601	 1.8130991578	 0.9540534835	 0.279066
H	 0.4097968708	 0.361227936	-0.8560156185	 0.061072
H	 1.6302629131	-1.2301381178	 0.4479019978	 0.107011
H	 1.3017882844	-0.1110648916	 1.7660187619	 0.095522
H	 0.1562353321	-2.4168056211	 2.4226966641	 0.088518
H	-2.2333222177	-0.169354526	-0.1863342361	 0.119213
H	-1.2807610808	-1.3097651119	-1.1324100927	 0.118532
H	-2.1980650715	-3.4622915879	 2.0282744215	 0.088872
H	-4.58258248	-2.7739419536	 1.7699495473	 0.11594
H	-4.087122731	-1.3094481483	 0.7734094161	 0.118921
65.4535	82.9266	168.0834	192.6078	300.6173	328.9546	388.2648	426.4496	428.1196	540.6064	627.2287	768.2313	805.3513	834.3457	845.7539	874.4268	904.2542	921.7969	962.7046	968.3451	998.178	1033.9556	1076.852	1097.5712	1147.1396	1162.4433	1170.5897	1184.5176	1219.8457	1240.8131	1270.7138	1291.2567	1307.5492	1338.0053	1378.7797	1417.9357	1422.3306	1466.0055	1476.5887	1524.4613	1712.2661	2995.8725	3011.8673	3041.4503	3045.0458	3082.9921	3087.869	3106.3715	3172.9669	3186.5234	3814.597
OC1CC=C(C1)C1CO1	O[C@H]1CC=C(C1)[C@H]1CO1	
InChI=1S/C7H10O2/c8-6-2-1-5(3-6)7-4-9-7/h1,6-8H,2-4H2	InChI=1S/C7H10O2/c8-6-2-1-5(3-6)7-4-9-7/h1,6-8H,2-4H2/t6-,7+/m0/s1
