19
gdb 90658	4.09774	1.02355	0.96518	3.1864	78.05	-0.2441	-0.0225	0.2216	1280.0953	0.156952	-423.001679	-422.992696	-422.991752	-423.035145	33.524	
C	 0.0508556491	 1.4742577193	-0.1204267192	-0.401351
C	 0.0256212898	-0.0266803847	 0.0789628948	 0.114451
O	 1.0092268957	-0.689778345	-0.7831334809	-0.29433
C	 1.745911014	-1.0930474284	 0.359624108	 0.059506
C	 0.7506787682	-0.5362162421	 1.3262895857	-0.195195
C	 0.9354029344	-2.0604654073	 1.2312107286	 0.184416
C	-0.0924753969	-3.0043726238	 0.6529512585	-0.484297
C	 1.7420798615	-2.5769754321	 2.3660940947	 0.122502
O	 1.6337847663	-3.6809776852	 2.8424370626	-0.272508
H	 1.0495983261	 1.877418365	 0.0700584961	 0.127261
H	-0.2341098554	 1.7205674551	-1.1472749509	 0.134568
H	-0.6589403274	 1.9576071233	 0.5597030851	 0.121995
H	-0.97774546	-0.4309192128	-0.0958890688	 0.093251
H	 2.8283371065	-1.0819273902	 0.3012453671	 0.117554
H	 0.8779748281	 0.0130182798	 2.2504514338	 0.108122
H	-0.3605213671	-2.7112349375	-0.3637623399	 0.136851
H	 0.3173464159	-4.0169601677	 0.6286621133	 0.140044
H	-0.9983291474	-3.0319066366	 1.2664969508	 0.123995
H	 2.4927527286	-1.8543830091	 2.7663220307	 0.063166
104.0543	127.8458	162.2653	204.2378	240.2986	275.3278	284.929	314.1384	400.1704	405.4144	529.3576	618.8345	758.9355	774.0585	819.6187	839.5615	890.0578	917.3102	959.023	1009.7402	1037.1401	1038.0456	1069.7638	1090.3319	1111.0174	1111.2408	1129.964	1188.5205	1231.36	1291.4901	1321.3736	1368.2564	1384.9026	1407.9563	1409.9983	1446.5334	1486.0819	1490.7501	1494.897	1496.5783	1812.8115	2844.8529	3038.0012	3045.0489	3051.011	3111.124	3116.3189	3123.3774	3139.9199	3175.7161	3194.5095
CC1OC2C1C2(C)C=O	C[C@H]1O[C@H]2[C@@H]1[C@]2(C)C=O	
InChI=1S/C7H10O2/c1-4-5-6(9-4)7(5,2)3-8/h3-6H,1-2H3	InChI=1S/C7H10O2/c1-4-5-6(9-4)7(5,2)3-8/h3-6H,1-2H3/t4-,5-,6+,7+/m1/s1
