21
gdb 94311	2.33564	1.50893	1.17245	2.3153	79.71	-0.2228	0.0597	0.2825	1160.2166	0.179908	-424.19215	-424.182336	-424.181391	-424.226497	36.801	
C	 0.0762185279	 1.4934522671	 0.1648328174	-0.446121
C	-0.0307868989	-0.0176228258	 0.0826906785	 0.249827
C	-1.368091807	-0.5352773154	-0.4136097128	-0.437973
C	 1.2252507749	-0.7892090514	-0.3186441286	-0.409254
C	 0.7493153778	-0.8027405437	 1.0995189655	 0.423824
O	 1.5039652463	-0.1562945929	 2.1336973012	-0.305681
C	 1.0601743279	-1.1242644751	 3.1088387564	-0.101019
C	 0.3454694363	-1.9543420678	 2.0151269147	-0.041362
O	-1.0444746488	-2.1403114016	 2.1429518759	-0.422366
H	 1.0301484188	 1.8045968476	 0.5965499063	 0.13081
H	-0.019026866	 1.9424766624	-0.8305512338	 0.109783
H	-0.7215949502	 1.9039901292	 0.794271485	 0.114465
H	-1.5550105446	-0.1751888765	-1.4327915993	 0.104388
H	-1.4054704804	-1.6265382756	-0.4227973939	 0.116139
H	-2.1864953613	-0.1875466028	 0.2249276413	 0.119265
H	 1.1094468059	-1.6935943667	-0.9093765841	 0.106342
H	 2.1295177801	-0.2240680055	-0.521920391	 0.11582
H	 1.902028411	-1.5948651807	 3.6286381162	 0.099933
H	 0.3612436343	-0.6911983872	 3.8348779542	 0.103816
H	 0.854082421	-2.8974744944	 1.7775480247	 0.080766
H	-1.1976776049	-2.9353824634	 2.6626388361	 0.2886
62.3823	129.3666	176.7812	183.4002	217.4394	233.1587	258.8017	302.4487	358.0828	384.5157	433.5157	478.6141	542.0967	578.2722	720.8259	772.3119	869.916	884.9297	906.9924	966.6655	976.9338	990.9999	1017.3335	1034.5165	1042.0571	1075.2584	1138.43	1151.9558	1162.3485	1172.5982	1218.7258	1219.2523	1289.57	1302.7518	1335.6881	1393.31	1409.8427	1424.1974	1449.2774	1476.4592	1478.5294	1489.2393	1497.6558	1510.1558	1520.7786	3014.6988	3020.4676	3024.8075	3029.0432	3075.9584	3084.1836	3090.2216	3115.0901	3123.2257	3125.0679	3206.1332	3823.1585
CC1(C)CC11OCC1O	CC1(C)C[C@]21OC[C@H]2O	
InChI=1S/C7H12O2/c1-6(2)4-7(6)5(8)3-9-7/h5,8H,3-4H2,1-2H3	InChI=1S/C7H12O2/c1-6(2)4-7(6)5(8)3-9-7/h5,8H,3-4H2,1-2H3/t5-,7+/m1/s1
