12
gdb 21474	8.09442	1.24383	1.08022	2.0192	59.39	-0.2663	-0.0257	0.2407	1001.563	0.084348	-414.641774	-414.635074	-414.63413	-414.67379	23.316	
N	-0.1200983638	 1.2989389108	 0.1227813088	-0.41952
C	-0.0229975762	 0.0557777648	-0.0283497207	 0.110066
O	-1.1678899392	-0.6930930685	 0.0977438433	-0.221045
C	-1.0685868712	-2.0381170366	 0.0672891804	 0.509213
N	 0.0691928176	-2.6887258692	 0.130408017	-0.235449
O	-0.2898001935	-4.0343142496	 0.0727232217	-0.171665
C	-1.6247014729	-4.1276069662	-0.0121255935	 0.107199
C	-2.1966093178	-2.8995803016	-0.0212593515	-0.375944
H	 0.7883776395	 1.7373299917	-0.0175957136	 0.242476
H	 0.8589777679	-0.5415121782	-0.2639119205	 0.151133
H	-2.0215111501	-5.1299104102	-0.0593453565	 0.162236
H	-3.2358014904	-2.6277981772	-0.0819666248	 0.1413
48.9674	90.3124	188.5768	340.1747	449.2582	493.561	597.9244	718.0645	794.9673	798.722	839.0032	877.9611	917.8453	955.201	1011.2825	1049.1558	1054.9521	1094.2087	1166.6475	1257.697	1323.9026	1404.6256	1455.756	1511.3345	1620.9724	1751.7743	3127.6029	3266.0588	3299.0506	3518.8584
N=COC1=NOC=C1	[NH][CH]Oc1nocc1	
InChI=1S/C4H4N2O2/c5-3-7-4-1-2-8-6-4/h1-3,5H	InChI=1S/C4H4N2O2/c5-3-7-4-1-2-8-6-4/h1-3,5H
