16
gdb 123441	4.94818	0.97615	0.87797	1.5402	69.74	-0.2474	-0.0283	0.2191	1287.5988	0.126233	-434.037743	-434.030173	-434.029229	-434.071085	27.388	
C	-0.0475927252	 1.5456605546	 0.4191407975	-0.355778
C	-0.1755057179	 0.0383498247	 0.260688147	 0.03072
C	-1.3664250555	-0.5375891103	-0.411265711	-0.245229
N	-0.0469743347	-0.5852003667	-1.06156888	-0.305243
C	 1.3495534372	 2.0212272688	 0.1790674003	 0.384341
N	 2.1380123222	 2.4355326859	 1.1350975359	-0.173474
O	 3.3297114752	 2.7515136923	 0.4650162693	-0.151659
C	 3.1087185667	 2.487995359	-0.8216878044	 0.112393
N	 1.923153184	 2.0402279517	-1.0807714949	-0.304939
H	-0.7067458075	 2.0474417763	-0.2985315685	 0.122672
H	-0.3552591663	 1.8449738052	 1.4252789212	 0.137536
H	 0.3021191271	-0.5316545332	 1.0552719105	 0.104752
H	-1.7592530546	-1.5008828849	-0.0987927662	 0.121552
H	-2.1159556686	 0.1541134179	-0.7891821903	 0.110847
H	 0.033039789	 0.1335063281	-1.7772154961	 0.242251
H	 3.921169179	 2.6725315007	-1.5093098401	 0.169258
57.7213	69.0848	125.8344	300.9966	318.5848	362.1601	448.3347	632.5755	691.743	789.5943	812.0141	831.1455	901.0019	907.3916	924.7251	942.377	968.6094	986.182	1011.8162	1056.6858	1124.6394	1143.9751	1151.63	1169.9106	1242.4597	1263.8694	1296.0591	1313.9097	1328.1635	1372.6112	1418.296	1463.8762	1513.6249	1523.6179	1605.8088	3044.2439	3100.0429	3105.1733	3129.1413	3190.3986	3266.5671	3503.3635
C(C1CN1)C1=NOC=N1	C([C@H]1CN1)c1nocn1	
InChI=1S/C5H7N3O/c1(4-2-6-4)5-7-3-9-8-5/h3-4,6H,1-2H2	InChI=1S/C5H7N3O/c1(4-2-6-4)5-7-3-9-8-5/h3-4,6H,1-2H2/t4-/m0/s1
