12
gdb 5674	5.42357	2.26857	1.59952	1.289	60.16	-0.2089	0.0154	0.2243	721.1878	0.086649	-381.361684	-381.35637	-381.355426	-381.390932	21.154	
O	-0.0850562627	 1.278492179	 0.0098554461	-0.207471
C	 1.2095156551	 1.7954078345	 0.0000732709	-0.013174
C	 2.1529205754	 0.8132365844	-0.0145186474	-0.349839
C	 1.423667691	-0.4299452004	-0.013729783	 0.201873
C	 0.1184611096	-0.038797723	 0.0010905324	 0.415494
O	-0.7760387981	-1.0270305456	 0.0048070258	-0.207471
C	 0.0208377223	-2.1707185775	-0.0086680405	-0.013175
C	 1.3489510248	-1.8692802126	-0.0203195016	-0.349838
H	 1.2587947917	 2.8704766627	 0.0052724828	 0.141975
H	 3.2193154695	 0.9751898551	-0.0242175815	 0.119825
H	-0.529309553	-3.0956865442	-0.0079144813	 0.141975
H	 2.1504963644	-2.5910223225	-0.0319165826	 0.119825
197.7824	342.5719	470.2413	583.0181	593.4781	672.5178	691.3592	703.2851	736.7326	756.7794	821.135	821.1946	885.4558	942.2308	1020.8906	1021.2594	1113.2713	1147.6296	1180.6721	1250.8137	1322.1277	1434.2559	1504.2619	1540.1335	1556.7521	1612.195	3257.9118	3257.9967	3298.1157	3298.2745
O1C=CC2=C1OC=C2	o1ccc2c1occ2	
InChI=1S/C6H4O2/c1-3-7-6-5(1)2-4-8-6/h1-4H	InChI=1S/C6H4O2/c1-3-7-6-5(1)2-4-8-6/h1-4H
