21
gdb 74440	2.81036	1.54043	1.29022	1.592	83.14	-0.2308	0.0228	0.2536	1099.4512	0.183359	-387.110522	-387.102248	-387.101304	-387.142723	33.221	
C	-0.0167290881	 1.4979960227	 0.0784591192	-0.508241
C	-0.0580018697	 0.0115756313	-0.0291925116	 0.354497
C	-0.0393217184	-0.7903894959	-1.0959518614	-0.253501
C	 0.0325453817	-2.2203788867	-0.5614743257	 0.365363
C	-0.5258965769	-3.3334941121	-1.4156592957	-0.487402
C	 1.4945680591	-2.4079919796	-0.0198145555	-0.238841
C	 1.4753721018	-1.4830586215	 1.2292164918	-0.220815
C	 0.0083861453	-0.9454154573	 1.1626996926	-0.039732
O	-0.6905572872	-2.0935875708	 0.6800742997	-0.276527
H	 0.8802445731	 1.8331851273	 0.6158783204	 0.127519
H	-0.0152071182	 1.973551254	-0.9061335841	 0.12682
H	-0.8769604415	 1.8810342793	 0.6419698115	 0.129772
H	 0.0232404581	-0.5148428296	-2.1413588583	 0.091469
H	 0.0518821142	-3.4336830155	-2.3399250572	 0.116171
H	-0.4829745911	-4.2861574987	-0.8794684618	 0.123342
H	-1.5675430801	-3.1311532234	-1.6801243774	 0.127222
H	 1.6555911125	-3.4526191906	 0.261003892	 0.098521
H	 2.2504633118	-2.1308524233	-0.7581585535	 0.095377
H	 1.6246179141	-2.0530192224	 2.1492980091	 0.102652
H	 2.2208504521	-0.6842585207	 1.1976196141	 0.095801
H	-0.4153578225	-0.5987437067	 2.105980382	 0.070531
151.7631	179.7427	203.2213	234.9957	247.9601	295.3303	369.3968	430.2403	518.3537	561.2654	615.4721	640.243	737.7331	810.9098	826.3426	839.7902	868.6682	883.2623	903.4503	908.5536	966.9156	997.8744	1026.6374	1055.6407	1064.2495	1104.8383	1118.9168	1157.1791	1198.5647	1202.1101	1240.6221	1251.5534	1284.7186	1315.0767	1339.1729	1352.7827	1412.4217	1415.9313	1478.8587	1479.996	1485.9481	1488.0527	1495.5084	1503.0282	1703.7824	3014.7102	3040.6205	3056.4596	3059.7906	3067.2664	3100.0597	3108.7591	3111.6749	3113.3315	3117.4918	3118.9806	3209.0537
CC1=CC2(C)CCC1O2	CC1=C[C@@]2(C)CC[C@@H]1O2	
InChI=1S/C8H12O/c1-6-5-8(2)4-3-7(6)9-8/h5,7H,3-4H2,1-2H3	InChI=1S/C8H12O/c1-6-5-8(2)4-3-7(6)9-8/h5,7H,3-4H2,1-2H3/t7-,8+/m0/s1
