20
gdb 7557	3.48851	1.23964	1.07451	1.8888	72.65	-0.24	0.0811	0.3211	1197.4467	0.174753	-386.11518	-386.105727	-386.104783	-386.149194	34.418	
C	 0.1333294932	 1.3377477421	 0.1031492546	-0.225534
O	-0.0014037288	-0.055387899	 0.2553722654	-0.249687
C	-1.2832602423	-0.5384293843	-0.1167082826	-0.134751
C	-1.2082879313	-2.0426219475	-0.0654781951	 0.41784
O	-0.2039890678	-2.549382067	-0.9029180512	-0.477802
C	-1.4811855307	-2.7778090899	 1.2291652258	-0.347791
C	-2.4231191219	-2.912869849	 0.0449058721	-0.045975
C	-3.8412432726	-2.386335347	 0.0869616732	-0.414802
H	 1.152096686	 1.6028591419	 0.3962805827	 0.128314
H	-0.0321538855	 1.6525397169	-0.9391321236	 0.107659
H	-0.5741118187	 1.887313995	 0.7436074611	 0.106264
H	-2.055474465	-0.1441324126	 0.5602256871	 0.086738
H	-1.5242413036	-0.2065637272	-1.1403024149	 0.092124
H	 0.5947912027	-2.0560185399	-0.6769074658	 0.285708
H	-0.8353538024	-3.6156704713	 1.4646552094	 0.113824
H	-1.8191138897	-2.2020295951	 2.0855424541	 0.104911
H	-2.3066490892	-3.8402978703	-0.5098648262	 0.099121
H	-3.9235089915	-1.475190082	 0.687198246	 0.114007
H	-4.2169440855	-2.160354952	-0.917259755	 0.119772
H	-4.5124867254	-3.1285245918	 0.5327587629	 0.12006
81.1498	106.8721	131.4297	204.7772	223.5324	234.5509	244.8528	342.3751	395.9291	424.4302	437.7723	473.9137	528.9423	749.0204	819.5875	882.2868	923.3674	932.5137	986.9148	1007.5781	1022.5353	1046.8403	1114.3498	1133.8716	1154.0506	1181.9062	1187.232	1223.3767	1228.001	1288.0156	1295.1688	1364.742	1409.1451	1419.1163	1439.8125	1479.4447	1486.5542	1490.968	1496.9559	1500.0869	1515.2537	1520.4187	2963.7172	2976.175	3013.5622	3019.2055	3029.959	3088.977	3100.4291	3114.1571	3126.9355	3147.1861	3221.5732	3776.1339
COCC1(O)CC1C	COC[C@@]1(O)C[C@H]1C	
InChI=1S/C6H12O2/c1-5-3-6(5,7)4-8-2/h5,7H,3-4H2,1-2H3	InChI=1S/C6H12O2/c1-5-3-6(5,7)4-8-2/h5,7H,3-4H2,1-2H3/t5-,6+/m1/s1
