17
gdb 95608	2.32511	1.77547	1.04758	6.8069	71.24	-0.2421	-0.0317	0.2104	1110.4034	0.137693	-455.207877	-455.199358	-455.198414	-455.241402	30.828	
C	-0.0515158577	 1.4512053577	 0.0557082174	-0.351266
N	 0.0025292687	 0.0073569526	-0.1141076835	-0.115871
C	-1.2573516478	-0.7213953767	-0.0814321648	-0.153837
C	-1.1391517543	-2.0251971509	-0.8550531726	-0.17516
N	-0.0020131854	-2.7697109832	-0.3487675703	-0.334411
C	 1.1943472651	-2.1846384291	-0.0355015298	 0.326611
O	 2.1917864076	-2.813665792	 0.2307473373	-0.332547
C	 1.2154996716	-0.6310377928	-0.0164316362	 0.315541
O	 2.2758089308	-0.0516099412	 0.0765846834	-0.34967
H	 0.9683970043	 1.831983451	 0.0360103817	 0.17639
H	-0.6332737614	 1.9076249222	-0.7526976023	 0.125685
H	-0.5175128321	 1.7191025579	 1.0131000833	 0.127016
H	-1.5704357525	-0.9246414832	 0.9541681189	 0.120162
H	-2.0285742802	-0.0954247926	-0.5410810686	 0.121173
H	-2.0467604961	-2.6186677226	-0.7138259043	 0.12509
H	-1.0408587105	-1.8120135035	-1.9298360473	 0.12118
H	 0.0358668503	-3.7716744236	-0.4725253024	 0.253913
80.4878	104.902	127.4521	179.6951	295.6773	327.9535	374.8061	432.7923	452.0744	466.3766	558.6269	615.1256	669.7527	710.657	819.8543	909.6635	953.6461	1004.2637	1101.2357	1107.8023	1112.6752	1155.0382	1230.0179	1263.9413	1282.9594	1323.9406	1377.2365	1397.2123	1425.379	1449.4228	1474.6426	1498.511	1499.4149	1512.9965	1527.8224	1788.4482	1817.4026	2986.51	2999.5701	3015.588	3072.0528	3076.772	3088.2596	3169.3491	3602.4489
CN1CCNC(=O)C1=O	CN1CCNC(=O)C1=O	
InChI=1S/C5H8N2O2/c1-7-3-2-6-4(8)5(7)9/h2-3H2,1H3,(H,6,8)	InChI=1S/C5H8N2O2/c1-7-3-2-6-4(8)5(7)9/h2-3H2,1H3,(H,6,8)
