18
gdb 55221	3.89651	0.98168	0.86812	4.8799	72.79	-0.2417	-0.026	0.2157	1335.8772	0.147566	-439.155207	-439.146195	-439.145251	-439.190337	32.223	
C	-0.0397827654	 1.4873803343	-0.1898618751	-0.482308
C	 0.077319449	-0.0123117846	-0.0031748184	 0.377398
O	 1.1468821008	-0.5694694219	 0.0797042284	-0.294397
C	-1.2375213115	-0.7922031257	 0.0471803071	-0.100077
C	-1.7165947634	-1.1617012402	-1.3939783367	-0.179914
N	-2.4210975338	-2.4084652054	-1.1773435064	-0.304252
C	-2.0896613796	-3.0701667971	-0.0187532371	 0.402083
O	-2.471916318	-4.1727047142	 0.2986366541	-0.372749
C	-1.1481852388	-2.1485728795	 0.7575290356	-0.351033
H	 0.9454494887	 1.925125152	-0.3528162251	 0.147479
H	-0.7013481817	 1.7262906624	-1.0303729762	 0.139323
H	-0.4939156252	 1.9330609772	 0.7033665758	 0.147988
H	-2.0107434224	-0.167885312	 0.5062765291	 0.091439
H	-2.3734715008	-0.394655871	-1.8159538936	 0.116925
H	-0.859583531	-1.2866806562	-2.0719395803	 0.120478
H	-2.8902315157	-2.9057218193	-1.9182509189	 0.252611
H	-0.1293589627	-2.5437735727	 0.6850966601	 0.156798
H	-1.4213110886	-2.1166197562	 1.8132679976	 0.132208
27.7045	77.759	136.681	151.2435	186.3599	281.9411	319.8366	464.0418	486.7359	548.3823	593.5895	600.4193	628.1862	696.0384	822.1369	874.1867	925.8999	943.4011	958.976	993.648	1071.355	1081.0517	1100.6297	1168.1708	1192.0961	1234.1563	1255.0242	1273.9505	1319.2494	1336.4711	1371.5893	1387.1582	1446.1355	1461.0724	1468.2461	1475.2463	1533.5277	1815.0077	1838.2956	2995.6863	3032.9099	3051.2208	3066.9908	3070.0653	3092.069	3128.3714	3154.503	3636.4813
CC(=O)C1CNC(=O)C1	CC(=O)[C@H]1CNC(=O)C1	
InChI=1S/C6H9NO2/c1-4(8)5-2-6(9)7-3-5/h5H,2-3H2,1H3,(H,7,9)	InChI=1S/C6H9NO2/c1-4(8)5-2-6(9)7-3-5/h5H,2-3H2,1H3,(H,7,9)/t5-/m1/s1
