13
gdb 132811	2.36882	1.83397	1.03368	3.0217	63.72	-0.2345	-0.0137	0.2208	1026.2428	0.089604	-497.901866	-497.894585	-497.893641	-497.933396	27.997	
O	 0.0924486409	 1.3687882694	 0.1150206022	-0.439997
C	 0.0636239407	 0.0144240389	 0.0539218816	 0.275873
C	 0.1057360161	-0.6574121396	-1.1699349077	 0.157146
O	 0.1769570803	 0.0727672673	-2.3140928053	-0.45567
C	 0.0720268392	-2.0446162582	-1.1444862082	 0.130823
F	 0.1130227751	-2.6844889063	-2.3287902151	-0.093204
C	-0.0008511765	-2.7277212975	 0.0573474263	-0.107992
N	-0.0410262463	-2.0834770451	 1.2253844335	-0.274109
C	-0.0093633709	-0.7498133388	 1.217890515	-0.064892
H	 0.1446959479	 1.7118753057	-0.7859506316	 0.313251
H	 0.1993556766	-0.5329672578	-3.0649379304	 0.314449
H	-0.0267410069	-3.8131938313	 0.0647628854	 0.122659
H	-0.0426037961	-0.2402244966	 2.1766531643	 0.121665
160.0919	256.8023	272.7319	299.6275	307.6035	374.2301	428.3803	490.1402	513.0068	581.2398	600.9161	607.0147	698.559	752.5445	845.7637	892.3139	942.1384	1029.1348	1167.162	1217.574	1246.6034	1292.2805	1317.5583	1356.8976	1395.0565	1494.5726	1552.3754	1642.2364	1655.6757	3171.6485	3176.9793	3790.9356	3802.0283
OC1=C(O)C(F)=CN=C1	Oc1c(O)c(F)cnc1	
InChI=1S/C5H4FNO2/c6-3-1-7-2-4(8)5(3)9/h1-2,8H,(H,7,9)	InChI=1S/C5H4FNO2/c6-3-1-7-2-4(8)5(3)9/h1-2,8H,(H,7,9)
