18
gdb 71104	2.79845	1.47402	1.27742	4.3772	77.74	-0.2442	-0.0351	0.2092	1058.6564	0.146895	-401.894603	-401.886516	-401.885572	-401.927336	30.592	
C	 0.0966018435	 1.6073785347	-0.0864097633	-0.509989
C	-0.0123647067	 0.1093388013	 0.0000952387	 0.225451
C	 0.3071614312	-0.8125216876	-1.2137908815	-0.282002
C	-0.5990673124	-1.84189587	-0.5420542295	-0.06075
N	-0.4356984664	-1.7950824112	 0.9284343776	-0.16198
C	 0.5843292147	-0.7148535304	 1.156723904	-0.182051
C	-1.3092669738	-0.7747519177	 0.2436535386	 0.226104
C	-2.7406392091	-0.5685171484	 0.5010480429	 0.000858
O	-3.5160127016	-1.449525701	 0.786683088	-0.256685
H	 1.1368892849	 1.9079065596	-0.2574508055	 0.128324
H	-0.5024170594	 2.0078390591	-0.9113531139	 0.124843
H	-0.2402799984	 2.0870597814	 0.8389057611	 0.125491
H	-0.1448216626	-0.4437436336	-2.1381653146	 0.111968
H	 1.3574277686	-1.0704176064	-1.3893068621	 0.101375
H	-1.0411759695	-2.7427747933	-0.946787803	 0.122818
H	 1.627013665	-1.0433220392	 1.0734703921	 0.101638
H	 0.4050110385	-0.2786962944	 2.1425550998	 0.114611
H	-3.0785742862	 0.4867591272	 0.3910386407	 0.069975
80.6039	137.1721	181.2485	218.2774	271.1951	300.0054	396.6328	483.7192	528.1294	607.0495	690.247	726.9257	813.5323	815.6215	847.1394	902.5478	926.8476	953.2714	994.798	1028.8889	1039.4356	1057.7344	1106.9757	1128.5753	1151.4708	1166.9605	1214.367	1237.7008	1253.5508	1275.5533	1351.5322	1367.1609	1418.1763	1437.6805	1488.1156	1491.6479	1493.9849	1512.9487	1797.8709	2869.6457	3025.7544	3033.1126	3042.5746	3090.9967	3095.6021	3105.4153	3108.3205	3212.6853
CC12CC3N(C1)C23C=O	C[C@@]12C[C@H]3N(C1)[C@@]23C=O	
InChI=1S/C7H9NO/c1-6-2-5-7(6,4-9)8(5)3-6/h4-5H,2-3H2,1H3	InChI=1S/C7H9NO/c1-6-2-5-7(6,4-9)8(5)3-6/h4-5H,2-3H2,1H3/t5-,6-,7-,8?/m1/s1
