18
gdb 90012	3.08753	1.32915	1.09591	2.641	73.15	-0.2559	0.0077	0.2636	1145.192	0.147297	-439.069259	-439.060926	-439.059982	-439.102716	31.149	
C	 0.6725227514	 1.4571234552	 0.1109163776	-0.401718
C	-0.0534469663	 0.1430282229	-0.0910418551	 0.145628
C	 0.3812550978	-0.7259119859	-1.2940433271	-0.371933
C	 0.9453237101	-1.6730086524	-0.2217203178	 0.3008
C	 0.744065948	-3.2011093054	-0.1841654864	-0.143601
O	 2.1947432665	-3.3947789183	-0.2276933494	-0.26152
C	 2.4264984277	-2.0348705512	-0.1942605478	 0.392268
N	 3.4891495693	-1.372776723	-0.1694295144	-0.547918
O	 0.4117859717	-0.8849189762	 0.835453306	-0.315254
H	 1.7529716732	 1.3147065799	 0.0136362126	 0.149388
H	 0.3414718234	 2.1924733612	-0.630883443	 0.114926
H	 0.4634265427	 1.8579137429	 1.1074611284	 0.128231
H	-1.1372222696	 0.2730104833	 0.0106811966	 0.080465
H	-0.4365161767	-1.1474638676	-1.8810798334	 0.114483
H	 1.1252379217	-0.2818928628	-1.9567062196	 0.132457
H	 0.3218428114	-3.5716866322	 0.75282355	 0.132868
H	 0.2577885311	-3.6625046062	-1.0473816971	 0.119171
H	 4.3154474966	-1.9731532942	-0.1576479602	 0.231259
49.0904	110.4717	185.5855	247.6958	262.7024	285.798	377.4233	393.3482	513.5046	559.6658	676.2156	753.8395	797.7404	853.5043	866.9254	885.132	920.7495	929.23	949.9076	971.9832	1006.832	1071.0012	1099.3325	1140.3638	1160.799	1170.1392	1211.3401	1228.0938	1243.8585	1275.5629	1314.1522	1362.7263	1387.0799	1412.8642	1481.1018	1488.1743	1499.6182	1501.2918	1824.7508	3032.3205	3035.8103	3061.3439	3082.0648	3106.9453	3121.1413	3127.5795	3142.524	3476.4533
CC1CC2(COC2=N)O1	C[C@H]1C[C@]2(CO[C]2[NH])O1	
InChI=1S/C6H9NO2/c1-4-2-6(9-4)3-8-5(6)7/h4,7H,2-3H2,1H3	InChI=1S/C6H9NO2/c1-4-2-6(9-4)3-8-5(6)7/h4,7H,2-3H2,1H3/t4-,6+/m0/s1
