19
gdb 39942	2.88943	1.58676	1.22029	1.8877	81.56	-0.2375	0.0097	0.2471	1062.1501	0.160972	-385.872863	-385.86546	-385.864516	-385.904613	30.048	
C	-0.2201499278	 1.4569973248	 0.0175515026	-0.238938
O	 1.1047839131	 0.9373258574	-0.0544521993	-0.292327
C	-0.0014188625	-0.0008814183	 0.0232286368	 0.429108
C	-0.0722353734	-0.7514400061	 1.2990231771	-0.122956
C	-0.1076287787	-2.0825104872	 1.3622690237	-0.067226
C	-0.0588870991	-2.9967727392	 0.1679946438	-0.296763
C	-0.289426422	-2.2963539752	-1.159909216	-0.030136
C	-1.5600171473	-1.5199967598	-1.3935753348	-0.303835
C	-0.248041048	-0.7857934067	-1.2287082197	-0.111803
H	-0.4748210156	 1.9721408791	 0.9442742715	 0.107341
H	-0.5896041444	 1.9340685577	-0.8903214922	 0.108684
H	-0.0631840904	-0.1563735232	 2.2078042171	 0.089616
H	-0.1412632084	-2.5659234363	 2.3357842808	 0.093333
H	 0.92469021	-3.4892269525	 0.1555799764	 0.118921
H	-0.7854556113	-3.8113971792	 0.296705027	 0.109284
H	 0.1094010692	-2.8236124257	-2.0209558783	 0.086835
H	-2.0085343672	-1.546145265	-2.3803298845	 0.111252
H	-2.2724539075	-1.4591683597	-0.5769811561	 0.117141
H	 0.1847621811	-0.3286640847	-2.112272886	 0.09247
81.6544	215.0277	269.1245	324.6372	324.8661	414.6652	444.1477	530.6022	564.954	674.9719	733.0475	756.82	818.8106	829.8178	856.1831	881.5916	920.5666	939.7327	990.2071	1000.3573	1020.9993	1037.555	1057.8639	1073.4928	1124.7098	1132.3313	1135.112	1157.107	1200.0527	1214.4761	1242.6325	1299.4551	1319.0553	1370.6285	1390.0029	1422.0142	1447.4636	1476.2146	1491.1941	1524.8115	1721.3293	2998.4284	3019.2174	3068.0575	3130.8026	3149.1903	3150.6326	3153.305	3166.4103	3174.7541	3217.6074
C1OC11C=CCC2CC12	C1O[C@]21C=CC[C@H]1C[C@@H]21	
InChI=1S/C8H10O/c1-2-6-4-7(6)8(3-1)5-9-8/h1,3,6-7H,2,4-5H2	InChI=1S/C8H10O/c1-2-6-4-7(6)8(3-1)5-9-8/h1,3,6-7H,2,4-5H2/t6-,7+,8-/m0/s1
