15
gdb 125560	3.48825	1.71697	1.15895	5.8215	72.81	-0.2062	0.0085	0.2147	995.2925	0.115329	-413.018354	-413.011142	-413.010198	-413.049831	27.504	
C	-0.0188938602	 1.4969266586	 0.0192865561	-0.499495
C	-0.01156893	 0.0109611501	 0.0002445427	 0.326422
N	-0.0389784463	-0.7579154054	-1.0674141387	-0.269422
N	-0.0213432459	-2.095410503	-0.6960189526	-0.365463
C	 0.017845851	-2.0671265003	 0.6125411151	 0.501666
N	 0.0543365747	-2.9273045249	 1.6799218122	-0.422436
C	 0.0852409597	-2.1675017197	 2.8441979893	-0.067679
C	 0.0685947749	-0.849184654	 2.5182147096	-0.148387
N	 0.0265129406	-0.7924543047	 1.1231669126	-0.062971
H	 0.8797980225	 1.9050170034	 0.4970547903	 0.131082
H	-0.0541279691	 1.8531564265	-1.0113715519	 0.162217
H	-0.8890772965	 1.8955482399	 0.5543584032	 0.131001
H	 0.0567793659	-3.9286580304	 1.6164572534	 0.283346
H	 0.1167563996	-2.6314399391	 3.8156151751	 0.149918
H	 0.0828535491	 0.0249026028	 3.1441107037	 0.150198
148.0115	183.0224	210.439	247.9315	320.7977	384.6903	531.443	595.5803	635.3364	652.214	688.6308	718.6198	755.0312	789.8496	824.3515	938.8225	1011.7273	1057.4101	1066.6053	1073.3973	1100.7628	1171.7716	1253.0409	1316.0133	1357.1711	1408.0212	1413.1195	1458.9928	1480.0132	1489.7566	1548.6264	1600.871	1652.5299	3025.348	3073.0315	3145.2897	3280.0686	3304.9285	3710.3225
CC1=NN=C2NC=CN12	Cc1nnc2[nH]ccn12	
InChI=1S/C5H6N4/c1-4-7-8-5-6-2-3-9(4)5/h2-3H,1H3,(H,6,8)	InChI=1S/C5H6N4/c1-4-7-8-5-6-2-3-9(4)5/h2-3H,1H3,(H,6,8)
