23
gdb 58263	3.2607	1.02626	0.93487	1.864	81.75	-0.255	0.0653	0.3203	1391.2023	0.204855	-425.414688	-425.404623	-425.403678	-425.449736	37.449	
C	-0.1948539056	 1.5302801533	-0.1733157461	-0.403016
C	 0.0445409465	 0.0164030684	-0.065555583	 0.026857
C	 0.8328053595	-0.5010368951	-1.2758493683	-0.397316
C	 0.7604288478	-0.3869920466	 1.2438590241	 0.110089
O	 2.0414880513	 0.2130813818	 1.3685824488	-0.446999
C	-0.0536912677	-0.1124696967	 2.5098632038	 0.120452
C	 0.5316202696	-0.5933300894	 3.8555235478	-0.290609
C	 0.4210028488	 0.8830902802	 4.2752869044	-0.067363
O	 0.0626569886	 1.279333788	 2.9289829076	-0.304617
H	 0.758329337	 2.0682276042	-0.2158334556	 0.114809
H	-0.7443325407	 1.7648211467	-1.090512591	 0.106577
H	-0.7607575708	 1.9211375211	 0.6760632028	 0.133038
H	-0.9330807373	-0.4875674163	-0.0495589925	 0.064688
H	 1.8421332683	-0.078594922	-1.2786188693	 0.130901
H	 0.9266623369	-1.5924442545	-1.2555706687	 0.103825
H	 0.341567122	-0.2234770641	-2.2139244461	 0.104786
H	 0.9343744672	-1.4722526008	 1.2078937371	 0.080002
H	 1.8733415146	 1.0879663056	 1.7450071904	 0.288469
H	-1.1066724216	-0.3852956577	 2.3592281712	 0.074065
H	-0.0624552845	-1.3130759657	 4.4196289594	 0.108086
H	 1.5598523569	-0.9455918603	 3.7622311455	 0.127232
H	-0.3887319159	 1.1032283795	 4.9819086641	 0.106023
H	 1.3374756091	 1.3767536006	 4.6151602736	 0.11002
71.9048	91.3258	105.4394	179.7608	218.2399	242.7322	276.1714	289.3605	303.3445	315.2301	428.7743	519.276	597.3124	691.0263	725.7137	805.4165	828.53	878.5146	929.1554	947.0366	958.7833	969.464	984.967	1018.8782	1020.9425	1068.5881	1101.5648	1130.8393	1155.6741	1177.005	1206.6395	1221.1904	1247.8096	1263.4348	1294.2823	1309.6403	1354.0825	1357.1382	1367.0608	1390.7794	1398.498	1424.3326	1438.8193	1484.9984	1486.725	1497.0647	1506.3256	1516.1009	1528.9353	2994.7527	3006.9683	3017.6187	3024.2958	3030.6949	3038.2023	3071.5127	3086.134	3095.255	3099.3843	3113.0457	3121.6658	3145.9261	3750.5172
CC(C)C(O)C1CCO1	CC(C)[C@@H](O)[C@H]1CCO1	
InChI=1S/C7H14O2/c1-5(2)7(8)6-3-4-9-6/h5-8H,3-4H2,1-2H3	InChI=1S/C7H14O2/c1-5(2)7(8)6-3-4-9-6/h5-8H,3-4H2,1-2H3/t6-,7-/m1/s1
