17
gdb 48591	3.21215	1.55278	1.34815	4.106	72.17	-0.2519	-0.0302	0.2217	979.3384	0.136331	-421.780998	-421.773989	-421.773045	-421.812513	28.056	
O	-0.0200755118	-0.0526940096	 0.0075681859	-0.240561
C	 0.0391670926	 1.1480660046	 0.0201890134	 0.055853
C	 1.3013300616	 1.9486971414	 0.0278214952	 0.321699
C	 1.7899730498	 2.7462027037	 1.2822828464	-0.26932
C	 3.1078514042	 2.4935936305	 0.5008585503	 0.0491
O	 2.5489107611	 1.2156713727	 0.0665708246	-0.299228
C	 2.9423563063	 3.3915324337	-0.7445954893	-0.051559
C	 2.6716244708	 2.6769888481	-2.0446293637	-0.291042
C	 1.5273396206	 2.9837120186	-1.1147544153	-0.114881
H	-0.8779526128	 1.7835669344	 0.0294485107	 0.074335
H	 1.4425180811	 3.7732191483	 1.4168503026	 0.102519
H	 1.7220294952	 2.1592891427	 2.1999188417	 0.122439
H	 4.0808046022	 2.4080245873	 0.9829987577	 0.091529
H	 3.2774625529	 4.4209507939	-0.7208171123	 0.096245
H	 2.7273425377	 3.2832790976	-2.942495857	 0.113415
H	 2.9958959439	 1.6502848377	-2.1562230626	 0.142579
H	 0.7450213444	 3.6856132742	-1.3748662784	 0.096877
85.454	182.603	248.286	362.6545	402.8834	443.1055	511.3135	622.4101	683.1147	732.4211	778.5505	799.7422	820.4288	860.6202	901.4584	930.8745	944.5508	971.4869	989.3411	1012.6552	1054.9917	1068.8696	1088.9454	1094.7245	1102.7239	1140.6251	1183.5913	1208.7359	1241.6743	1255.2089	1282.5962	1303.6672	1357.8534	1425.0129	1462.8999	1481.4264	1837.4139	2853.4735	3068.3689	3132.5274	3144.4815	3146.0334	3188.144	3196.7916	3237.8737
O=CC12CC(O1)C1CC21	O=C[C@@]12C[C@@H](O1)[C@H]1C[C@@H]21	
InChI=1S/C7H8O2/c8-3-7-2-6(9-7)4-1-5(4)7/h3-6H,1-2H2	InChI=1S/C7H8O2/c8-3-7-2-6(9-7)4-1-5(4)7/h3-6H,1-2H2/t4-,5+,6+,7+/m0/s1
