18
gdb 82282	2.51498	1.79344	1.16622	2.7439	79.08	-0.2392	-0.0496	0.1896	1053.6429	0.14882	-401.95538	-401.9475	-401.946556	-401.987985	30.376	
C	-0.335901698	 1.5388528259	 0.0592353328	-0.388611
C	 0.0267921346	 0.0499721188	-0.010168732	-0.136719
C	 0.6979536655	-0.3347200569	-1.321786267	-0.012845
C	 2.0716196599	 0.0729960181	-1.7264064784	-0.251067
N	 1.765780934	-1.3380653308	-1.3758606968	-0.124182
C	 2.2864941612	-1.776206014	-0.1504650373	-0.023218
C	 1.8227388612	-1.4304843867	 1.0631048478	-0.159975
C	 0.7846056554	-0.412806837	 1.2437923906	 0.354846
O	 0.5081515141	 0.0432344726	 2.3381100305	-0.346672
H	 0.5606363808	 2.1623678765	-0.0169043493	 0.118282
H	-1.0114871486	 1.8145646784	-0.7561527143	 0.111097
H	-0.8209729748	 1.755938576	 1.0121878815	 0.146344
H	-0.9118618851	-0.5229319555	 0.0324386323	 0.114611
H	-0.0029113056	-0.4589428632	-2.1452937811	 0.106421
H	 2.3001695692	 0.2588119095	-2.7713839445	 0.129719
H	 2.6769060362	 0.6204445444	-1.0089437178	 0.131271
H	 3.135596193	-2.4478322382	-0.2574679862	 0.122089
H	 2.266500617	-1.837996618	 1.9644171494	 0.108609
53.2477	185.9674	219.4338	247.359	285.659	389.3903	404.1367	476.1807	526.7147	568.9688	664.3964	715.3165	768.2044	816.779	853.2237	861.9361	916.1553	986.4061	999.08	1029.1865	1055.8609	1073.2777	1105.3957	1109.8004	1141.3432	1182.1769	1220.6086	1240.7921	1308.5816	1330.392	1349.3003	1397.5351	1419.1476	1430.0229	1492.4174	1499.454	1502.4383	1650.9556	1760.5337	2996.1943	3043.2011	3107.9733	3113.5466	3118.4203	3143.0811	3153.7713	3202.2108	3208.1706
CC1C2CN2C=CC1=O	C[C@H]1[C@H]2CN2C=CC1=O	
InChI=1S/C7H9NO/c1-5-6-4-8(6)3-2-7(5)9/h2-3,5-6H,4H2,1H3	InChI=1S/C7H9NO/c1-5-6-4-8(6)3-2-7(5)9/h2-3,5-6H,4H2,1H3/t5-,6+,8?/m0/s1
