21
gdb 47941	2.42706	1.47113	1.03425	3.1641	79.12	-0.2288	0.0412	0.2701	1200.8265	0.186974	-420.45102	-420.44251	-420.441566	-420.48434	32.761	
O	-0.0021410563	-0.2080927262	 0.1308062292	-0.383409
C	 0.016748157	 1.0001661805	-0.0247657988	 0.358396
N	-1.1420221906	 1.7546947537	-0.2956833384	-0.330289
C	-1.6915428363	 2.6916206239	 0.7096397664	-0.160469
C	-0.7287861371	 3.7071414346	 1.3291100091	-0.188046
C	-0.036015615	 4.6729341262	 0.3474819998	-0.183564
C	 1.3683633646	 4.2461925743	-0.0990148412	-0.179541
C	 1.4292754759	 2.9086900699	-0.8407255496	-0.150522
N	 1.182863378	 1.7309474637	-0.0035286527	-0.29887
H	-1.8612201241	 1.078926493	-0.5284636326	 0.238163
H	-2.4990036166	 3.2379325266	 0.207255353	 0.106522
H	-2.1548878123	 2.1256626994	 1.5327314485	 0.103347
H	-1.3419779239	 4.285962847	 2.0300874331	 0.098948
H	 0.0203294125	 3.1923314734	 1.9389578306	 0.113736
H	-0.672694799	 4.8157433929	-0.5357835974	 0.098377
H	 0.0490294212	 5.6579370863	 0.8201322775	 0.095267
H	 1.7795466267	 5.0181215261	-0.7622224529	 0.092663
H	 2.0325761072	 4.1983355734	 0.773686953	 0.097037
H	 0.7062269809	 2.9103135931	-1.662930495	 0.124883
H	 2.4247061205	 2.7901594965	-1.2825640875	 0.102589
H	 1.9774533966	 1.1316523218	 0.1613641359	 0.244783
73.0369	103.2126	191.716	243.6565	270.6716	314.9538	346.4182	454.5182	468.0567	544.0188	559.8334	653.4713	721.077	795.0259	802.1913	831.2057	859.8009	889.3427	906.7819	975.8372	1015.0466	1049.8943	1063.9359	1127.7502	1156.8583	1160.7221	1215.5543	1222.0143	1284.0609	1310.1398	1315.676	1340.0972	1376.7844	1395.9815	1403.1328	1410.1793	1440.0506	1455.4225	1477.628	1478.2018	1486.3789	1488.9877	1494.2396	1517.3272	1793.0269	2978.4891	3015.8314	3019.4087	3035.2518	3036.1999	3040.577	3057.1613	3064.7362	3083.5833	3088.2878	3547.4831	3621.2195
O=C1NCCCCCN1	O=C1NCCCCCN1	
InChI=1S/C6H12N2O/c9-6-7-4-2-1-3-5-8-6/h1-5H2,(H2,7,8,9)	InChI=1S/C6H12N2O/c9-6-7-4-2-1-3-5-8-6/h1-5H2,(H2,7,8,9)
