16
gdb 8930	3.80303	1.26196	1.00103	1.6984	62.98	-0.2611	0.0283	0.2895	1125.3694	0.127106	-420.821504	-420.812043	-420.811099	-420.855576	33.798	
O	-0.0861573495	 1.405748304	-0.2121544408	-0.43656
C	 0.0171617383	 0.0120839883	 0.0753317804	-0.107285
C	-1.4103205458	-0.527127762	 0.0105724907	 0.126464
O	-1.9956841711	-0.204003406	-1.2325060557	-0.441765
C	-1.4378331431	-2.0619469588	 0.1513029792	-0.053861
O	-0.7226611723	-2.4809343671	 1.3125436242	-0.424431
C	-2.8062458756	-2.577797115	 0.1463225502	 0.296685
C	-3.9288504517	-3.0012104009	 0.2150530302	-0.435105
H	 0.7941908767	 1.750508584	-0.3835619615	 0.295513
H	 0.6328653852	-0.5017826832	-0.6781467014	 0.094263
H	 0.4514283257	-0.1692284955	 1.0650481738	 0.108017
H	-1.9865852737	-0.0877139454	 0.8429813612	 0.071237
H	-1.7266857394	 0.7060096218	-1.4132496045	 0.29347
H	-0.890821355	-2.4775687504	-0.7038448922	 0.123595
H	-1.3256115489	-2.416759573	 2.0612146126	 0.289236
H	-4.9210866898	-3.3783731007	 0.2505912535	 0.200526
67.2419	112.1262	129.3069	210.8262	237.2347	248.9248	269.708	299.4196	400.7346	422.0386	465.9335	472.225	586.3846	608.772	634.3055	672.1116	895.5108	918.6433	1044.7292	1063.8426	1080.2704	1091.0718	1132.3095	1210.4766	1240.4086	1253.5983	1289.9664	1329.3275	1367.1842	1406.1701	1433.244	1457.5939	1511.6293	2236.6323	2957.5832	2994.7307	3043.0822	3064.4836	3503.8185	3772.388	3812.2908	3844.6426
OCC(O)C(O)C#C	OC[C@@H](O)[C@@H](O)C#C	
InChI=1S/C5H8O3/c1-2-4(7)5(8)3-6/h1,4-8H,3H2	InChI=1S/C5H8O3/c1-2-4(7)5(8)3-6/h1,4-8H,3H2/t4-,5+/m0/s1
