21
gdb 100795	2.55313	1.20177	1.05319	3.1379	74.11	-0.2526	0.0526	0.3052	1246.325	0.18176	-461.338405	-461.32857	-461.327625	-461.373036	37.059	
O	 0.0098255173	-0.7483885357	 0.977989114	-0.431475
C	-1.0620752091	 0.0828844091	 0.5171498793	-0.094798
C	-1.4650824009	-0.3665825119	-0.8902145162	 0.104083
O	-0.4432789017	-0.0816168573	-1.8272426161	-0.444613
C	-1.8462706577	-1.8614360243	-0.9880354801	 0.06968
O	-0.6751450767	-2.6621146308	-0.8470868567	-0.452621
C	-2.9748358476	-2.2753334288	-0.0566018655	-0.001854
C	-3.2044667607	-3.7315564226	 0.2482473916	-0.275338
C	-2.7208502281	-2.8043083936	 1.3347637317	-0.26634
H	 0.2573274179	-0.4771546738	 1.8658815753	 0.297205
H	-1.9259799847	 0.0122942904	 1.1916577258	 0.09894
H	-0.73619048	 1.1299410341	 0.4638464804	 0.104681
H	-2.3369300546	 0.2364629227	-1.1762142225	 0.082782
H	 0.1409013004	-0.8515445057	-1.8109371233	 0.287554
H	-2.1765819392	-2.0275929007	-2.0214112671	 0.093358
H	-0.2445859241	-2.3704841525	-0.0292085952	 0.298445
H	-3.8677416855	-1.6657642832	-0.1775235108	 0.080175
H	-4.223994971	-4.0976878785	 0.2922568948	 0.106751
H	-2.4809664239	-4.4306983698	-0.1552883649	 0.128605
H	-1.6934115059	-2.9086740177	 1.6641634955	 0.10866
H	-3.4123078542	-2.5209230492	 2.1210028299	 0.106121
70.704	90.895	162.8446	177.0638	222.375	258.2818	269.8063	305.3261	335.6843	396.8346	433.3522	496.4636	588.9879	665.7566	759.7931	786.6515	797.8969	831.3757	834.4426	917.0126	958.2723	979.1249	1019.5175	1046.8413	1058.8988	1083.9771	1100.486	1113.2573	1137.1051	1168.3208	1198.3934	1206.7177	1230.8782	1241.6647	1290.0784	1308.9657	1347.7279	1383.237	1400.9179	1435.987	1446.1726	1460.9477	1473.4479	1500.1985	1505.5002	3003.7117	3025.3226	3035.9751	3050.2068	3128.3831	3135.9853	3141.2688	3216.4575	3232.605	3709.9699	3760.9751	3844.5706
OCC(O)C(O)C1CC1	OC[C@@H](O)[C@@H](O)C1CC1	
InChI=1S/C6H12O3/c7-3-5(8)6(9)4-1-2-4/h4-9H,1-3H2	InChI=1S/C6H12O3/c7-3-5(8)6(9)4-1-2-4/h4-9H,1-3H2/t5-,6+/m1/s1
