14
gdb 68729	2.5236	1.6787	1.31849	3.9861	66.27	-0.276	-0.0145	0.2615	972.7413	0.098961	-436.621737	-436.614102	-436.613158	-436.653872	28.53	
C	 0.003904972	 1.5322744185	 0.0263110262	-0.502009
C	-0.0701113297	 0.0446650254	 0.0872122121	 0.300447
O	 1.0737172685	-0.7415983832	-0.269775742	-0.293132
C	 0.5275930405	-0.9294795578	 1.0499401472	 0.23786
C	 1.3667545804	-0.6948655382	 2.1809965482	 0.219306
N	 2.0287740634	-0.5239633491	 3.1135493884	-0.341509
C	-0.7068455733	-1.8207289535	 0.9301078897	-0.075122
O	-1.8479502941	-1.0315261971	 1.2769536444	-0.22131
C	-1.291639249	-0.8748276185	-0.0346965617	-0.046787
H	 0.9574621763	 1.8840976098	 0.4264941231	 0.156544
H	-0.0850116903	 1.8771011511	-1.0091346711	 0.144919
H	-0.8122501828	 1.9704184572	 0.6074320824	 0.153229
H	-0.7795037122	-2.8979875895	 0.9941301201	 0.136072
H	-1.9261768997	-1.067238345	-0.890066727	 0.131491
122.0767	138.7744	192.0145	215.2901	305.116	387.4819	457.0641	545.794	556.9096	602.2801	637.1159	704.7409	764.0634	838.7026	854.0763	882.514	905.0456	978.6378	1033.905	1053.0147	1104.6385	1164.8757	1196.521	1243.1841	1285.8394	1352.4808	1405.2941	1451.7897	1481.1322	1488.5498	2359.4021	3045.6863	3114.2344	3137.0715	3208.7473	3224.7359
CC12OC1(C#N)C1OC21	C[C@@]12O[C@]1(C#N)[C@H]1O[C@@H]21	
InChI=1S/C6H5NO2/c1-5-3-4(8-3)6(5,2-7)9-5/h3-4H,1H3	InChI=1S/C6H5NO2/c1-5-3-4(8-3)6(5,2-7)9-5/h3-4H,1H3/t3-,4+,5+,6-/m1/s1
