15
gdb 32130	4.07088	1.19067	0.92661	1.6344	72.3	-0.24	-0.0212	0.2188	1202.3958	0.115736	-450.208938	-450.200999	-450.200055	-450.242507	28.332	
C	 0.0079343884	 1.4697358274	 0.114048721	-0.334155
N	-0.0933867178	 0.0261648478	 0.1491353551	-0.348084
C	-1.2324769951	-0.684626017	 0.0334723145	 0.481938
N	-2.3997580016	-0.0260822827	-0.1302698897	-0.328419
C	-3.4546865851	-0.8214202666	-0.2328354836	 0.078081
N	-3.4631430697	-2.1523041621	-0.1904267993	-0.368791
C	-2.2384083567	-2.6796394668	-0.0239843328	 0.447581
O	-2.1623422381	-4.0119569018	 0.0287614973	-0.385406
N	-1.0994664669	-2.0250050287	 0.0934294496	-0.36799
H	 0.6424328051	 1.79981792	-0.7163882077	 0.129804
H	-0.992647973	 1.8783547776	-0.0203762458	 0.176832
H	 0.4289585814	 1.8575674036	 1.048640289	 0.129809
H	 0.737653875	-0.5311959073	 0.2684370329	 0.259033
H	-4.4192508136	-0.3346742317	-0.3662487558	 0.123063
H	-3.0696038422	-4.3330957317	-0.0713090446	 0.306704
36.8068	104.5221	183.2864	216.3606	227.7111	407.1622	465.4488	521.87	564.356	593.2519	593.4568	659.043	768.7395	833.1079	848.4823	990.1775	992.4617	1025.2815	1105.9525	1156.8892	1157.8713	1236.6195	1280.8005	1373.1915	1379.6209	1410.546	1453.6249	1485.3617	1499.0913	1509.3211	1585.9302	1636.9083	1663.4176	3026.4672	3075.7381	3152.7027	3166.8708	3641.9116	3772.059	36.8092	104.5225	183.2863	216.3606	227.7111	407.1621	465.4488	521.87	564.3561	593.2521	593.4569	659.0429	768.7395	833.1079	848.4823	990.1775	992.4617	1025.2816	1105.9524	1156.889	1157.8712	1236.6194	1280.8003	1373.1916	1379.6211	1410.5458	1453.6247	1485.3617	1499.0911	1509.321	1585.9301	1636.9083	1663.4176	3026.4673	3075.7381	3152.7027	3166.8709	3641.9118	3772.0591
CNC1=NC=NC(O)=N1	CNc1ncnc(O)n1	
InChI=1S/C4H6N4O/c1-5-3-6-2-7-4(9)8-3/h2H,1H3,(H2,5,6,7,8,9)	InChI=1S/C4H6N4O/c1-5-3-6-2-7-4(9)8-3/h2H,1H3,(H2,5,6,7,8,9)
