16
gdb 5931	4.04586	1.19615	1.15989	2.7072	62.23	-0.2703	-0.0461	0.2242	1068.9416	0.125857	-420.910028	-420.900726	-420.899782	-420.944726	31.758	
C	-0.0864700737	 1.6466066889	 0.0169668187	-0.425898
C	-0.0529339663	 0.1164626675	 0.0166864761	 0.251658
C	 0.8221152011	-0.4619574693	 1.1384527863	-0.421411
O	-1.3833951366	-0.4617616452	 0.0405223065	-0.232875
C	-2.2054933222	-0.2241870075	 1.0793707896	 0.16844
O	-3.3055874978	-0.6870462033	 1.1370568867	-0.271337
C	 0.5110281442	-0.3855918024	-1.3208581763	 0.143142
O	 1.5271251409	 0.0361321002	-1.802858782	-0.250731
H	 0.9006255544	 2.0167590438	-0.2695896162	 0.155247
H	-0.8178902956	 2.0134834335	-0.7081841347	 0.141062
H	-0.3366837655	 2.0462421023	 1.0031413313	 0.124957
H	 0.4874053392	-0.1150677048	 2.1199913156	 0.129056
H	 0.7926366668	-1.555210248	 1.1276649513	 0.141089
H	 1.8554538836	-0.1380190836	 0.9911017119	 0.151688
H	-1.7712353279	 0.4291334748	 1.8555112737	 0.083891
H	-0.0936407446	-1.1881755368	-1.7923930685	 0.112023
33.3384	103.232	130.2443	167.0693	220.4133	256.5692	286.5985	300.7144	344.3795	413.9948	433.8967	505.0219	699.0796	785.639	912.8396	928.3106	961.267	1004.1528	1042.7999	1048.6598	1175.3678	1186.6286	1210.0886	1272.6909	1385.9324	1393.0044	1413.3846	1433.9892	1481.3388	1482.838	1499.6316	1506.4267	1841.3741	1859.0228	2925.2775	2988.1746	3045.2514	3050.4861	3120.6177	3125.4337	3131.7577	3138.01	33.334	103.2321	130.2445	167.0692	220.4133	256.5692	286.5985	300.7144	344.3796	413.9947	433.8968	505.0219	699.0795	785.6389	912.8394	928.3105	961.2668	1004.1528	1042.7998	1048.6598	1175.368	1186.6286	1210.0885	1272.6909	1385.9319	1393.0044	1413.3845	1433.9893	1481.3388	1482.838	1499.6315	1506.4267	1841.3731	1859.023	2925.2772	2988.1747	3045.2514	3050.4861	3120.6176	3125.4337	3131.7577	3138.0101
CC(C)(OC=O)C=O	CC(C)(OC=O)C=O	
InChI=1S/C5H8O3/c1-5(2,3-6)8-4-7/h3-4H,1-2H3	InChI=1S/C5H8O3/c1-5(2,3-6)8-4-7/h3-4H,1-2H3
