15
gdb 127418	2.95652	1.32885	0.92743	4.6356	76.32	-0.268	-0.04	0.228	1208.4826	0.113216	-413.020972	-413.012168	-413.011224	-413.056396	29.67	
C	-0.0319917395	 1.4255461186	 0.0055408641	-0.314338
N	-0.0089365446	-0.0251524965	 0.0070888078	 0.1443
N	 0.0296709781	-0.7287473353	-1.1245620287	-0.280852
C	 0.0403252283	-1.9997121938	-0.7240150552	 0.238248
C	 0.0812818707	-3.1480851473	-1.673862096	-0.508254
C	 0.0061919301	-1.9951865854	 0.6896329393	 0.157768
N	-0.0246194296	-0.7242241352	 1.1230385166	-0.284784
C	 0.0028863028	-3.1049229264	 1.5721999969	 0.232569
N	 0.0018083429	-4.0443247001	 2.248486183	-0.339832
H	 0.864579652	 1.8080573962	-0.4869751258	 0.162544
H	-0.9159005441	 1.7797644319	-0.5292204956	 0.162533
H	-0.0618155001	 1.7522990744	 1.0433397844	 0.173468
H	 0.9640268809	-3.7715117207	-1.5002408414	 0.15239
H	-0.7971756248	-3.7900313366	-1.5538728681	 0.152382
H	 0.1084109368	-2.7803286939	-2.7007841114	 0.151858
26.3631	47.423	134.2357	146.2973	204.0183	268.8111	311.4469	407.0305	530.8086	555.7279	598.0451	644.6003	678.9902	752.7749	813.0656	1016.5357	1036.0365	1069.7039	1084.3956	1151.061	1223.7354	1326.1568	1357.067	1415.2471	1416.0648	1452.8509	1470.5335	1477.1555	1481.2517	1501.8616	1517.1017	1541.1837	2354.806	3047.2554	3066.1495	3103.0459	3137.2497	3145.0836	3184.8912
CN1N=C(C)C(=N1)C#N	Cn1nc(C)c(n1)C#N	
InChI=1S/C5H6N4/c1-4-5(3-6)8-9(2)7-4/h1-2H3	InChI=1S/C5H6N4/c1-4-5(3-6)8-9(2)7-4/h1-2H3
