20
gdb 86124	2.15262	1.6753	1.02051	1.8092	82.26	-0.2293	-0.0001	0.2293	1215.5854	0.170348	-403.163268	-403.154154	-403.15321	-403.197094	34.152	
C	-0.5926323831	 1.2906076556	 0.2057095099	-0.414149
C	 0.0979566767	-0.0640422634	 0.2272696002	 0.092573
O	 0.1581170335	-0.4961575903	-1.151213303	-0.271287
C	 0.5896885333	-1.7540839971	-1.4641825217	 0.39151
C	 0.2543928928	-2.0280700946	-2.907407954	-0.43378
N	 1.1812448473	-2.6338406327	-0.772418834	-0.30591
C	 1.6404977531	-2.4998728207	 0.605805609	-0.216743
C	 2.1634457915	-1.1452445128	 1.0326164845	-0.081562
C	 1.4652214528	-0.0268472426	 0.8592703761	-0.055051
H	 0.0071536733	 2.013402231	-0.3559704033	 0.130219
H	-1.5756855639	 1.2159779872	-0.2649025168	 0.125842
H	-0.7187332249	 1.6629149718	 1.2268148157	 0.121695
H	-0.5330978938	-0.7856583432	 0.7656546298	 0.09365
H	 0.70995984	-1.2659606343	-3.5481465765	 0.134158
H	 0.6210528826	-3.013845978	-3.1891214217	 0.138491
H	-0.8278709849	-1.9736627296	-3.0635851426	 0.130114
H	 0.8351756067	-2.8199184421	 1.287027979	 0.118178
H	 2.4334431862	-3.2434960893	 0.7368612924	 0.11205
H	 3.1529243932	-1.1103062598	 1.4820333578	 0.097831
H	 1.8654731175	 0.9410410048	 1.1489805193	 0.09217
71.5597	119.2809	147.6005	233.5707	236.1386	242.3878	323.0809	377.8478	383.4473	405.7605	536.0368	610.7694	621.0115	725.1539	773.3627	808.5101	858.6152	901.8345	972.1164	982.1507	1004.3097	1016.5509	1061.1284	1072.6029	1099.9414	1141.4848	1169.8593	1216.6085	1237.2048	1259.9722	1337.1777	1358.0754	1382.306	1401.3499	1409.7398	1415.3618	1474.7379	1478.1102	1484.2967	1489.4548	1497.197	1724.3999	1762.12	2971.3802	2996.9294	3044.345	3045.5726	3055.2801	3102.2706	3117.2673	3129.0433	3147.586	3168.202	3172.1479
CC1OC(C)=NCC=C1	C[C@H]1OC(=NCC=C1)C	
InChI=1S/C7H11NO/c1-6-4-3-5-8-7(2)9-6/h3-4,6H,5H2,1-2H3	InChI=1S/C7H11NO/c1-6-4-3-5-8-7(2)9-6/h3-4,6H,5H2,1-2H3/t6-/m1/s1
