20
gdb 53566	4.7579	0.74073	0.71184	1.8249	88.58	-0.2283	0.0572	0.2855	1669.8591	0.171008	-365.904782	-365.89572	-365.894776	-365.941098	32.8	
C	 0.315736481	 1.2719647767	 0.7184448027	-0.496
C	 0.1868972978	-0.1359240145	 1.0674325707	 0.065194
C	 0.0920202667	-1.2997213261	 1.3614826282	 0.063732
C	-0.0569691838	-2.711697467	 1.7017925868	-0.411678
C	-1.4220948262	-3.2470150889	 1.2659520493	 0.096151
C	-1.7555000402	-3.7099224651	-0.1747172809	-0.064707
C	-0.9176041383	-4.9625219059	 0.155059349	-0.1764
N	-1.7073966514	-4.7564627064	 1.4651835194	-0.165151
C	-2.8938741309	-4.4907041787	 0.5169543836	-0.167799
H	 1.2578749124	 1.4684025707	 0.1946235122	 0.146833
H	-0.4998643098	 1.5961936773	 0.0624612724	 0.146172
H	 0.2945801231	 1.908279821	 1.6101884288	 0.147037
H	 0.7677205975	-3.2832864951	 1.2642244344	 0.127231
H	 0.0232529646	-2.8483559612	 2.7885973071	 0.138631
H	-2.1975414115	-2.6369341432	 1.7412380386	 0.079755
H	-1.7846322161	-3.1187378423	-1.0962021596	 0.068243
H	-1.1757754103	-5.8940597823	-0.3558572684	 0.100693
H	 0.1643380192	-4.8754233979	 0.2586096262	 0.101604
H	-3.7055282912	-3.9235563513	 0.9812038363	 0.100652
H	-3.2652647724	-5.3958487799	 0.0296696533	 0.099806
15.2557	42.4587	77.0955	201.191	231.1264	313.0738	327.3454	382.7952	445.3045	593.6997	618.2055	747.4993	764.883	777.7712	812.1565	876.8858	904.4686	921.3842	981.015	1027.4385	1046.4701	1053.7081	1054.6522	1083.0396	1116.1763	1143.0714	1156.1902	1165.9293	1180.438	1196.9207	1227.448	1231.7739	1255.0935	1288.808	1326.2827	1415.4944	1435.7285	1470.605	1478.9984	1479.5877	1518.4429	1556.3602	2373.8446	3022.3226	3025.3121	3040.2969	3044.8069	3053.0669	3068.7313	3073.3248	3085.1877	3085.4946	3117.6278	3131.5644
CC#CCC1C2CN1C2	CC#CC[C@H]1[C@H]2CN1C2	
InChI=1S/C8H11N/c1-2-3-4-8-7-5-9(8)6-7/h7-8H,4-6H2,1H3	InChI=1S/C8H11N/c1-2-3-4-8-7-5-9(8)6-7/h7-8H,4-6H2,1H3/t8-/m0/s1
