18
gdb 74265	2.52637	1.48202	1.17946	2.1755	73.32	-0.263	-0.0155	0.2475	1126.6268	0.145812	-439.161182	-439.152002	-439.151058	-439.194763	33.68	
C	 0.0568382699	 1.4642702623	 0.0014297564	-0.479815
C	-0.0520266322	-0.0175635025	 0.0104934048	 0.394695
N	-1.104231289	-0.7218756889	-0.0637479591	-0.304327
C	-0.6771844228	-2.1271413547	-0.0139713404	 0.092447
C	-1.2623883716	-2.8290708237	 1.2205729859	-0.405408
C	-1.0642110535	-2.8588436988	-1.3077324829	-0.405472
C	 0.84912385	-2.0406448361	 0.1049697364	 0.419987
O	 1.6784202589	-2.8927340923	 0.1801946714	-0.33388
O	 1.1605054518	-0.6874405526	 0.1136047792	-0.238351
H	 0.6770989026	 1.7939346632	-0.8380719507	 0.153903
H	-0.9380224168	 1.9010051682	-0.0815354669	 0.157273
H	 0.5394625332	 1.8146100227	 0.9193274979	 0.153893
H	-2.3514702945	-2.8677090379	 1.1379548388	 0.132505
H	-0.8691150236	-3.8465186147	 1.2925237353	 0.138797
H	-1.0066034116	-2.2906354238	 2.1372307784	 0.126211
H	-0.6680072736	-2.3414383429	-2.1857455862	 0.126211
H	-0.6662217824	-3.8769160668	-1.2939052345	 0.138814
H	-2.1529388348	-2.8977700906	-1.3948084437	 0.132517
99.8834	162.0312	165.9915	199.7328	209.8963	226.0839	287.0319	290.8896	337.5546	429.3565	562.3254	611.3751	628.2873	651.379	758.8476	759.4886	887.7378	924.8092	955.8431	974.132	1026.9425	1027.8176	1067.4587	1086.1331	1186.6975	1224.7408	1269.3682	1284.8803	1391.6299	1410.7185	1415.2324	1473.0615	1473.7225	1475.7338	1482.5967	1494.4459	1506.6581	1742.7935	1909.3889	3045.7043	3048.4929	3050.6625	3109.2095	3122.4596	3124.4611	3130.5643	3134.9594	3165.0319
CC1=NC(C)(C)C(=O)O1	CC1=NC(C)(C)C(=O)O1	
InChI=1S/C6H9NO2/c1-4-7-6(2,3)5(8)9-4/h1-3H3	InChI=1S/C6H9NO2/c1-4-7-6(2,3)5(8)9-4/h1-3H3
