20
gdb 58322	3.55391	0.70984	0.61877	4.6796	76.43	-0.2677	0.0397	0.3074	1766.5252	0.168304	-440.302026	-440.2913	-440.290356	-440.338409	38.194	
C	 0.002703309	 1.5643933007	-0.0112577633	-0.408949
C	 0.0050111109	 0.0393111396	 0.0343374484	 0.101765
O	 0.7334078555	-0.4573890293	 1.1523768273	-0.423238
C	-1.4226478357	-0.5479568963	 0.0081281099	 0.099721
O	-2.1550090468	-0.0765251864	-1.1202509691	-0.428073
C	-1.4163064685	-2.0778227681	 0.0762901244	-0.20085
C	-2.8461449141	-2.6444888606	 0.1588759324	-0.343721
C	-2.8785517416	-4.1035736379	 0.1143879197	 0.25512
N	-2.8875839384	-5.2585829466	 0.0753060978	-0.307421
H	 1.0265888724	 1.9455855418	-0.0438692012	 0.126223
H	-0.5459574249	 1.9276320974	-0.8827470701	 0.134735
H	-0.4894679517	 1.9730528594	 0.8812350522	 0.108435
H	 0.542614993	-0.3499717824	-0.8429808726	 0.082204
H	 0.4542952195	 0.0392261705	 1.9296900771	 0.282582
H	-1.9697988361	-0.1500842779	 0.8754277829	 0.080973
H	-1.7112452779	-0.3977640607	-1.9143198037	 0.284008
H	-0.9170933439	-2.4769228026	-0.8168082256	 0.107831
H	-0.8229045725	-2.3981044301	 0.9354540721	 0.139006
H	-3.3318186069	-2.3139538672	 1.0847772879	 0.148573
H	-3.4452869814	-2.2473422932	-0.6670103468	 0.161077
51.959	82.4571	101.4367	111.1038	218.0305	230.4812	251.2187	278.8838	323.3211	335.0821	379.6913	407.8209	447.5696	478.5675	519.4831	589.3557	772.3985	855.966	908.8814	948.1652	965.0907	1018.2756	1059.6862	1065.4538	1096.132	1123.1594	1155.9402	1176.198	1231.2832	1268.3675	1304.2411	1315.7487	1341.8348	1382.4315	1394.4917	1398.6183	1411.7711	1417.3695	1471.5803	1489.701	1493.0428	1495.8854	2362.0636	2998.0163	3010.9546	3026.483	3030.8223	3046.554	3086.4249	3102.8775	3118.6539	3138.4138	3786.803	3800.4836
CC(O)C(O)CCC#N	C[C@@H](O)[C@@H](O)CCC#N	
InChI=1S/C6H11NO2/c1-5(8)6(9)3-2-4-7/h5-6,8-9H,2-3H2,1H3	InChI=1S/C6H11NO2/c1-5(8)6(9)3-2-4-7/h5-6,8-9H,2-3H2,1H3/t5-,6+/m1/s1
