19
gdb 111071	2.39109	1.47495	1.19892	3.0721	74.32	-0.2306	-0.0192	0.2114	1125.0114	0.159464	-423.021635	-423.013504	-423.01256	-423.054723	31.157	
C	 0.0068095804	 1.6378277846	-0.0023336873	-0.379349
C	 0.0731965814	 0.1096449878	-0.1160780923	-0.233708
C	-1.2969886581	-0.5401231485	 0.0180514464	 0.028408
C	-1.5215285074	-2.0748423274	 0.1315134299	 0.037872
C	-0.6504004358	-2.5400182771	 1.3116105454	-0.34597
C	-1.0484534391	-1.3861209128	 2.261944776	 0.44348
O	-0.670308744	-1.1349566103	 3.371388607	-0.325264
C	-2.0607251046	-0.6442741102	 1.3714141126	-0.056079
O	-2.7865159281	-1.7903917668	 0.8205100348	-0.299398
H	 0.9963436369	 2.0851078834	-0.1322660104	 0.120326
H	-0.6561858656	 2.0632573793	-0.7633523586	 0.119157
H	-0.3706129241	 1.9458187581	 0.9783986505	 0.128133
H	 0.4966746553	-0.169160116	-1.0895563052	 0.10502
H	 0.7647224447	-0.2783297181	 0.6403390405	 0.111506
H	-1.9956477691	-0.1449347531	-0.7254147349	 0.095012
H	-1.6250860869	-2.7237562582	-0.7375077612	 0.088976
H	-0.9775929871	-3.5085261904	 1.6972868035	 0.138353
H	 0.4274192735	-2.5732380595	 1.1329658481	 0.126292
H	-2.6771407022	 0.1377172754	 1.8095100851	 0.097234
62.8185	123.4728	173.6637	209.858	281.4589	368.8592	439.497	457.0521	551.5771	621.4418	648.9078	738.7373	783.5509	811.4303	855.4851	860.0402	910.8478	939.8732	956.1683	982.7486	1001.7067	1058.0268	1080.694	1110.4841	1132.0207	1168.8232	1178.2451	1200.8069	1227.6462	1279.9919	1287.4361	1295.5231	1320.4668	1343.5847	1402.0653	1415.3442	1450.5691	1488.5003	1500.4138	1507.8028	1880.6728	3026.5159	3035.3965	3058.4696	3071.8236	3076.697	3104.0404	3111.3191	3123.1897	3126.2308	3154.6536
CCC1C2CC(=O)C1O2	CC[C@H]1[C@H]2CC(=O)[C@@H]1O2	
InChI=1S/C7H10O2/c1-2-4-6-3-5(8)7(4)9-6/h4,6-7H,2-3H2,1H3	InChI=1S/C7H10O2/c1-2-4-6-3-5(8)7(4)9-6/h4,6-7H,2-3H2,1H3/t4-,6+,7+/m0/s1
