14
gdb 24985	4.75833	1.29458	1.03445	4.5539	63.75	-0.1952	0.0342	0.2294	1068.9148	0.103041	-473.854751	-473.847733	-473.846789	-473.886392	26.312	
O	-0.0004169681	 0.016560032	 0.1597966592	-0.381707
C	-0.0254424822	 1.2108934508	 0.0815522665	 0.460348
N	-1.1345240524	 2.0437310644	-0.1307767645	-0.494799
C	-0.6908835371	 3.3450181514	-0.0458000402	 0.42994
C	 0.6195877442	 3.3446799757	 0.167876619	 0.148225
C	 1.1880779829	 4.68783773	-0.1455070824	-0.350092
C	-0.170816806	 5.4768857244	-0.1627984141	-0.093327
O	-1.2764955105	 4.5171466163	-0.3521073375	-0.280088
O	 1.0811961748	 2.0339353941	 0.2150535562	-0.243937
H	-2.0744114474	 1.6882038794	-0.0993049107	 0.284325
H	 1.861737742	 5.112824377	 0.6052393104	 0.127847
H	 1.7037710327	 4.7230221899	-1.1153794414	 0.124074
H	-0.3383437724	 5.9687426032	 0.7990615875	 0.133684
H	-0.2468489704	 6.2067996715	-0.9683324781	 0.135508
109.3147	157.3914	224.6434	322.2186	333.6546	402.5427	541.7953	582.7563	645.9707	714.6382	746.0941	759.1108	835.5656	866.3336	912.1584	925.1212	955.7882	1025.3971	1091.2088	1181.8459	1199.7642	1247.6789	1266.7404	1290.6977	1344.0185	1375.8132	1489.9856	1509.875	1531.3446	1771.3176	1900.5727	3003.4684	3060.404	3075.1345	3144.5339	3684.7502
O=C1NC2=C(CCO2)O1	O=c1[nH]c2c(CCO2)o1	
InChI=1S/C5H5NO3/c7-5-6-4-3(9-5)1-2-8-4/h1-2H2,(H,6,7)	InChI=1S/C5H5NO3/c7-5-6-4-3(9-5)1-2-8-4/h1-2H2,(H,6,7)
