23
gdb 117541	2.09104	1.0582	0.74174	3.0813	87.52	-0.2454	0.0325	0.2778	1613.9216	0.204098	-384.48947	-384.478223	-384.477278	-384.526288	40.074	
C	 0.074322552	 1.566803199	-0.0390071997	-0.392242
C	 0.1525009769	 0.0449264303	-0.1021265433	-0.120068
N	 0.5484386225	-0.5031335793	 1.1973890674	-0.279039
C	 0.6710351753	-1.9555767609	 1.2481047535	-0.100832
C	 1.7494282412	-2.4468881249	 0.3531559222	 0.271457
N	 2.6111484427	-2.761123258	-0.3518182553	-0.344159
C	 0.8810179168	-2.4577064306	 2.700839401	 0.016104
C	-0.2957420126	-2.0275818231	 3.5847886005	-0.391859
C	 1.0867400515	-3.9766768878	 2.7494353245	-0.407231
H	 1.0558829811	 2.0031426323	 0.1789698682	 0.117721
H	-0.2619161821	 1.9741510194	-0.9966355451	 0.122582
H	-0.6205953758	 1.8879517063	 0.7421350926	 0.127447
H	-0.8344689293	-0.3682060264	-0.3464553586	 0.106628
H	 0.8335156638	-0.2613214158	-0.9139706076	 0.107774
H	 1.427195102	-0.0839554851	 1.489883995	 0.222867
H	-0.2717555432	-2.3787830598	 0.8749380527	 0.122323
H	 1.7952447446	-1.974360695	 3.0736137934	 0.084269
H	-0.1089858828	-2.3034593489	 4.6270492569	 0.113558
H	-0.4598439573	-0.950384425	 3.5279997528	 0.13311
H	-1.2189064863	-2.5288083228	 3.2696233451	 0.111676
H	 1.9503265419	-4.2931776024	 2.1586307745	 0.142692
H	 1.2439290515	-4.303554798	 3.781528191	 0.118626
H	 0.2039465358	-4.5032311737	 2.3674130483	 0.116595
57.7526	78.3504	89.9861	141.5169	147.7784	213.3978	225.5771	249.3875	264.2841	311.9175	317.6037	401.2219	412.3617	451.4829	540.3919	628.9106	757.0503	817.6294	849.3761	902.5314	930.0914	935.7744	959.1325	984.0717	1047.1472	1107.8463	1128.9057	1146.8309	1164.0878	1192.0425	1210.3045	1275.5414	1299.3585	1335.9217	1349.256	1367.7915	1395.9961	1400.2144	1416.8689	1422.562	1483.1017	1488.4306	1491.2108	1497.5609	1501.5617	1504.2878	1514.02	1523.471	2337.0084	2965.1359	3004.6382	3025.3189	3030.4373	3034.3911	3036.5872	3040.3051	3095.5599	3102.1646	3103.0574	3120.0663	3122.0094	3139.2254	3500.8401
CCNC(C#N)C(C)C	CCN[C@@H](C#N)C(C)C	
InChI=1S/C7H14N2/c1-4-9-7(5-8)6(2)3/h6-7,9H,4H2,1-3H3	InChI=1S/C7H14N2/c1-4-9-7(5-8)6(2)3/h6-7,9H,4H2,1-3H3/t7-/m0/s1
