23
gdb 71894	2.26542	1.76294	1.55813	0.3089	88.94	-0.2459	0.0829	0.3288	1051.9266	0.206297	-351.133734	-351.125255	-351.12431	-351.165915	34.542	
C	 0.0818804507	 1.5379723648	 0.023737819	-0.497224
C	-0.0088119388	 0.0283658635	 0.0042837909	 0.312593
C	 0.4564363145	-0.7145010066	-1.2776257252	-0.274973
C	-0.6950835354	-1.7382946802	-1.1303957744	-0.087023
C	-0.4289441068	-2.8023903516	-0.038458792	-0.223749
C	-0.7501265108	-1.7632410976	 1.0626610847	-0.087026
C	 0.3919778114	-0.7437181761	 1.2906946342	-0.274972
C	-1.3566754323	-0.8105813874	-0.039087688	 0.347883
C	-2.7512423916	-0.2557821323	-0.067792648	-0.535875
H	 1.1293588921	 1.8648961391	 0.0537487959	 0.114606
H	-0.3739920196	 1.9820634	-0.8687594522	 0.109137
H	-0.4184373897	 1.9619111381	 0.9021148453	 0.109138
H	 0.3079834661	-0.08419474	-2.1611054162	 0.090268
H	 1.4820733314	-1.1006399042	-1.2982387038	 0.084159
H	-1.1977366351	-2.0632413578	-2.0431638416	 0.056799
H	-1.1902470287	-3.5883091316	-0.0665082239	 0.094139
H	 0.5585407185	-3.2772166632	-0.0190736316	 0.084655
H	-1.2977396961	-2.1085648233	 1.9414484517	 0.056799
H	 1.4155090299	-1.1308145533	 1.3539382895	 0.084159
H	 0.1990438344	-0.133573403	 2.1797167561	 0.090267
H	-2.9589018873	 0.3558046045	 0.8185935827	 0.115124
H	-2.914621665	 0.3756147909	-0.9495446759	 0.115124
H	-3.4983288718	-1.0582468629	-0.0954939871	 0.115992
182.5417	189.3091	191.9339	210.9701	235.474	311.3309	381.3841	398.53	405.243	538.9261	614.3683	614.8545	709.0843	819.0661	829.9874	835.795	861.4713	892.6332	920.0178	931.3185	940.9307	982.0176	1026.6064	1039.0249	1057.9692	1111.5411	1112.5494	1132.0904	1158.0549	1163.8134	1189.3396	1194.9939	1235.959	1240.4689	1249.9245	1288.9887	1308.4622	1310.6766	1334.5755	1344.6086	1406.9805	1413.3112	1476.8607	1477.682	1486.4309	1486.6581	1492.4502	1493.5652	1498.8352	3011.3307	3013.7921	3024.5633	3028.3038	3032.1907	3072.8041	3073.1129	3075.3517	3075.4965	3076.8003	3079.6322	3083.2156	3085.8373	3092.0221
CC12CC3CC(C1)C23C	C[C@@]12C[C@H]3C[C@@H](C1)[C@@]23C	
InChI=1S/C9H14/c1-8-4-6-3-7(5-8)9(6,8)2/h6-7H,3-5H2,1-2H3	InChI=1S/C9H14/c1-8-4-6-3-7(5-8)9(6,8)2/h6-7H,3-5H2,1-2H3/t6-,7+,8-,9+
