16
gdb 129765	3.34528	1.64177	1.11058	2.6232	81.15	-0.185	-0.0184	0.1666	1040.8662	0.127882	-396.949747	-396.942493	-396.941549	-396.981381	28.079	
N	 0.0261455796	 1.464029554	 0.1543759118	-0.610431
C	-0.0328336818	 0.0642352836	 0.0440082768	-0.007149
C	-1.1496630956	-0.7610455356	 0.0350920167	 0.398226
C	-2.5972402071	-0.8529011642	 0.0486339	-0.222316
C	-2.9519130652	-2.1517618578	 0.0120256009	-0.104337
C	-1.7222205031	-3.0399305431	-0.0295199241	-0.229544
N	-0.6685990127	-2.0422385171	-0.0090011196	 0.029155
N	 0.6586343452	-2.1283325149	-0.0233828561	-0.297285
C	 1.0542313413	-0.8469355361	 0.0082474398	-0.04607
H	 0.911251959	 1.8322775358	-0.1698838974	 0.244235
H	-0.7201065588	 1.9304126219	-0.3456634049	 0.24236
H	-3.2712620456	-0.0084877466	 0.0881458538	 0.111077
H	-3.9559228812	-2.5509405597	 0.0144126734	 0.11118
H	-1.6542734173	-3.7116636439	 0.8353293662	 0.141558
H	-1.6730705469	-3.6572169062	-0.9354070261	 0.139913
H	 2.1092278702	-0.6112744001	 0.0070928586	 0.099428
134.8468	147.2723	210.9725	263.4931	335.6616	457.011	521.1984	617.1352	639.1715	670.0204	683.1498	736.9184	760.2431	813.9288	837.7243	875.585	934.8811	944.0597	984.8532	1046.7739	1078.1272	1153.8828	1173.4165	1213.9831	1240.3385	1295.4584	1348.0039	1369.2295	1393.2059	1430.7381	1482.7133	1486.9094	1599.5805	1647.7439	1663.1213	3025.4313	3055.2122	3225.8563	3233.7929	3248.4335	3533.0648	3620.5494
NC1=C2C=CCN2N=C1	Nc1c2C=CCn2nc1	
InChI=1S/C6H7N3/c7-5-4-8-9-3-1-2-6(5)9/h1-2,4H,3,7H2	InChI=1S/C6H7N3/c7-5-4-8-9-3-1-2-6(5)9/h1-2,4H,3,7H2
