16
gdb 6423	4.06665	1.39993	1.26709	2.328	71.3	-0.2449	-0.0252	0.2198	989.8183	0.127444	-346.582379	-346.574203	-346.573259	-346.614943	30.842	
C	-0.2030513957	 1.6081009151	-0.0241255389	-0.441028
C	-0.0096310763	 0.084635765	 0.0025542687	 0.122132
C	 1.1951656032	-0.3799829685	-0.9029398402	-0.37586
C	 2.0210666848	-0.5727754959	 0.3758593672	 0.404888
O	 3.1843341732	-0.7457372341	 0.5909423807	-0.285626
C	 0.7905371671	-0.3932170362	 1.2748394272	-0.375861
C	-1.2601266391	-0.6164424859	-0.2340384569	 0.271039
C	-2.2949118516	-1.1972225309	-0.4299139762	-0.451765
H	 0.749923217	 2.1171951846	 0.1560276399	 0.119807
H	-0.5878056224	 1.9329513165	-0.9948817025	 0.131786
H	-0.9115156398	 1.9223630138	 0.7473980645	 0.131786
H	 1.0084686144	-1.3306810915	-1.4104912996	 0.142922
H	 1.5745905213	 0.342936827	-1.6296166416	 0.133173
H	 0.8820466461	 0.3202855625	 2.0977458324	 0.133173
H	 0.43607019	-1.349403615	 1.6702528389	 0.142921
H	-3.2080815121	-1.7109604667	-0.6028593435	 0.196512
51.7825	165.4744	174.1703	264.2743	328.0732	343.1919	405.6733	438.4781	504.2391	559.1516	582.5574	622.2984	633.6479	686.9774	726.0903	872.7415	879.7577	913.6049	965.5099	1016.1097	1081.0382	1117.9995	1150.6927	1176.4187	1208.0328	1243.1464	1289.934	1410.935	1424.7834	1444.4112	1490.8406	1498.5535	1898.7393	2233.4921	3035.7703	3061.9829	3066.819	3108.0427	3119.3999	3122.2581	3123.2218	3501.3121
CC1(CC(=O)C1)C#C	CC1(CC(=O)C1)C#C	
InChI=1S/C7H8O/c1-3-7(2)4-6(8)5-7/h1H,4-5H2,2H3	InChI=1S/C7H8O/c1-3-7(2)4-6(8)5-7/h1H,4-5H2,2H3
