23
gdb 65027	2.55248	1.45061	1.19835	1.4349	84.85	-0.2446	0.0699	0.3145	1168.2324	0.205082	-388.269398	-388.260107	-388.259163	-388.302738	37.333	
C	-0.2032255402	 1.4755007669	 0.2314585208	-0.484805
C	-0.0608294874	-0.0240151557	 0.0390073921	 0.355871
C	 1.0592804455	-0.4858080631	-0.8643396336	-0.305852
C	 1.1710772169	-0.6674677646	 0.6325745051	-0.305856
C	-1.3534137554	-0.8375542506	 0.0368048521	 0.336207
O	-0.9880901821	-2.1925743882	-0.1550107158	-0.482173
C	-2.3104407371	-0.5606827472	 1.2445314725	-0.275335
C	-3.2234560254	 0.2816798589	 0.3124252532	-0.210315
C	-2.4719734842	-0.2983236491	-0.916743938	-0.275317
H	 0.7829636258	 1.9485795782	 0.2158061333	 0.113803
H	-0.7973216492	 1.9401714615	-0.5629481775	 0.116679
H	-0.6673997671	 1.727487143	 1.191137531	 0.116679
H	 0.8963916263	-1.3773950931	-1.4561622901	 0.123992
H	 1.6681280758	 0.2760410957	-1.3401795353	 0.097332
H	 1.8564744903	-0.0299679536	 1.1815406212	 0.097331
H	 1.0808222821	-1.6769863291	 1.0126283585	 0.123977
H	-1.7934248875	-2.7178395188	-0.1580564572	 0.275016
H	-2.7926927505	-1.4883506764	 1.5697900127	 0.086933
H	-1.8828455037	-0.0752714732	 2.1250614071	 0.103064
H	-4.2955897825	 0.0822340672	 0.3683488445	 0.095412
H	-3.0711135134	 1.3562304636	 0.4314648453	 0.107354
H	-2.1694685402	 0.3901920937	-1.709350109	 0.103056
H	-3.0130601867	-1.1304165161	-1.3790931028	 0.086946
69.7044	160.9859	239.8864	248.8476	257.5894	272.939	329.7562	354.0188	387.5504	388.1979	447.0457	513.5124	593.6905	682.4503	775.8865	787.4502	800.2598	866.8006	878.2669	910.8127	931.7468	937.1493	957.0742	975.2277	1029.4977	1042.0328	1059.4089	1067.1429	1088.8252	1091.9608	1129.2289	1166.9224	1195.8972	1202.2014	1214.4177	1241.6062	1272.6118	1275.0099	1289.7913	1327.4508	1413.1135	1424.3537	1457.6694	1467.6059	1484.9774	1494.6906	1505.0535	1505.8924	1512.6051	3031.5879	3045.3049	3050.282	3074.5715	3090.5752	3099.942	3102.4027	3105.3643	3127.5817	3134.394	3138.4907	3226.3051	3238.4294	3828.4391
CC1(CC1)C1(O)CCC1	CC1(CC1)C1(O)CCC1	
InChI=1S/C8H14O/c1-7(5-6-7)8(9)3-2-4-8/h9H,2-6H2,1H3	InChI=1S/C8H14O/c1-7(5-6-7)8(9)3-2-4-8/h9H,2-6H2,1H3
