21
gdb 119070	1.96327	1.24759	0.94934	2.845	75.85	-0.2485	0.0583	0.3068	1364.2524	0.179697	-461.329072	-461.318537	-461.317593	-461.365118	37.408	
C	-0.026416687	 1.42053194	-0.1075387084	-0.230238
O	 0.4473517257	 0.0907258138	-0.1267735687	-0.245826
C	-0.0421567421	-0.6600180302	-1.2282803812	-0.135094
C	 0.3964464398	-2.1006408535	-1.0638733747	 0.320521
C	 0.0021589273	-2.7376712649	 0.2617157867	-0.129052
O	 0.8134775953	-2.2940814998	 1.3321960625	-0.424012
O	 0.1722279654	-2.9078801763	-2.227290879	-0.306628
C	 1.5295437484	-2.6774956883	-1.8066126279	 0.043929
C	 2.4405184825	-1.9390967893	-2.7512652719	-0.429281
H	 0.2809632379	 1.9676384318	-1.0109865412	 0.114722
H	-1.1237307119	 1.4573550597	-0.0358452646	 0.114727
H	 0.4060807537	 1.9092369317	 0.7680860644	 0.135157
H	-1.1447273422	-0.6282511866	-1.2460844997	 0.101403
H	 0.3120898356	-0.2353836518	-2.1767180171	 0.101317
H	-1.0675141511	-2.5465733142	 0.4543100309	 0.08022
H	 0.1305246543	-3.8211636163	 0.179879509	 0.113889
H	 0.8029911952	-1.3289999575	 1.2896654636	 0.290777
H	 1.9867218341	-3.5543626627	-1.343848268	 0.095634
H	 1.9538669659	-1.0739470769	-3.2055387041	 0.125066
H	 3.3364675295	-1.5997000873	-2.2208464411	 0.131037
H	 2.7609310239	-2.6053019814	-3.5590331294	 0.131731
57.4157	87.5443	98.1433	149.0637	176.9613	199.8771	219.0806	262.7853	335.1659	345.4942	402.8814	453.2272	500.1112	512.7771	541.6751	757.5337	806.6823	933.3462	961.959	981.1018	1001.982	1010.9988	1078.3733	1099.4304	1127.5521	1148.4645	1167.6137	1184.7705	1201.2826	1226.5718	1241.7046	1281.001	1353.7039	1382.1451	1411.4571	1420.5259	1451.0147	1471.1441	1481.104	1485.8735	1489.2841	1500.8363	1508.8121	1519.418	1526.6244	2957.4959	2968.1212	2985.3734	3032.4976	3035.7898	3042.8162	3083.1484	3091.2451	3103.1283	3124.2762	3135.7058	3763.9282
COCC1(CO)OC1C	COC[C@@]1(CO)O[C@H]1C	
InChI=1S/C6H12O3/c1-5-6(3-7,9-5)4-8-2/h5,7H,3-4H2,1-2H3	InChI=1S/C6H12O3/c1-5-6(3-7,9-5)4-8-2/h5,7H,3-4H2,1-2H3/t5-,6+/m0/s1
