17
gdb 19556	4.1667	1.7734	1.6362	1.5878	67.34	-0.2391	0.0734	0.3125	847.8149	0.143794	-363.788724	-363.781871	-363.780927	-363.819901	26.599	
O	 0.0678487782	 1.3480418265	-0.3743986976	-0.414684
C	 0.0439009483	 0.0306877432	 0.1569873761	-0.220226
C	-1.3412562804	-0.5073210903	 0.2592725874	 0.344861
C	-1.9613951446	-1.8436329486	 0.0901882736	-0.092473
C	-2.8998966694	-1.6279081096	 1.2757607725	-0.240296
C	-2.661408479	-0.1113811124	 1.0428124076	-0.122621
C	-3.2691731015	 0.0980265366	-0.3502327032	-0.147007
N	-2.195133858	-0.7687397229	-0.9444263166	-0.200638
H	-0.3422413613	 1.2953700245	-1.2452725167	 0.29123
H	 0.6453063796	-0.6626511942	-0.451904599	 0.099545
H	 0.5111571335	 0.0932066612	 1.1456100794	 0.1151
H	-1.5227260353	-2.762344768	-0.2775780479	 0.099538
H	-3.9304861662	-1.9935776469	 1.2116229728	 0.096054
H	-2.4371508038	-1.9810019358	 2.2007604593	 0.108223
H	-2.7688879984	 0.6084939673	 1.8512505423	 0.079917
H	-4.2969750843	-0.2420316143	-0.5255083745	 0.095259
H	-3.1417162774	 1.1127098437	-0.7345237256	 0.108219
82.0138	140.177	271.707	350.8932	422.5866	445.6719	507.096	651.0555	701.2942	761.4409	822.9396	840.9997	918.9868	945.3446	957.361	978.6501	989.5311	1009.6653	1037.9257	1066.3601	1086.611	1123.2725	1135.0946	1160.0994	1192.3048	1227.6793	1232.5697	1256.8722	1281.7506	1317.6001	1366.0818	1410.271	1447.2323	1486.4034	1493.2058	1513.8091	2984.159	3030.7408	3043.4799	3072.3707	3104.6656	3107.4973	3141.4265	3201.0603	3800.271
OCC12C3CC1CN23	OC[C@@]12[C@H]3C[C@@H]1CN23	
InChI=1S/C6H9NO/c8-3-6-4-1-5(6)7(6)2-4/h4-5,8H,1-3H2	InChI=1S/C6H9NO/c8-3-6-4-1-5(6)7(6)2-4/h4-5,8H,1-3H2/t4-,5-,6+,7?/m1/s1
