19
gdb 71833	2.43536	1.76453	1.53438	0.8068	79.71	-0.2087	0.0183	0.2271	981.6418	0.159529	-385.864836	-385.856943	-385.855999	-385.896552	31.953	
C	-0.1024158342	 1.5038550441	-0.0487990074	-0.521422
C	-0.0078316416	 0.0108808019	 0.007196831	 0.291684
C	 0.0356676222	-0.9502221713	-1.1678196247	-0.205548
C	 1.2823468034	-1.7596047177	-1.072639931	-0.081974
C	 1.7747643826	-1.6694157382	 0.1676834741	-0.095994
C	 0.8067870514	-0.8790610862	 1.0214191892	-0.149209
C	-0.502643842	-1.748204999	 1.2004589109	-0.29487
C	-1.0451278181	-1.0729442993	-0.050351427	 0.344904
O	-2.3837634333	-0.9079552116	-0.3582161857	-0.467698
H	 0.8519154806	 1.9553058004	-0.3432788727	 0.121976
H	-0.8614832137	 1.8119581991	-0.7747133807	 0.129791
H	-0.3851510234	 1.9227977738	 0.9240027232	 0.119255
H	-0.3673164859	-0.6176015227	-2.1186256151	 0.079922
H	 1.6861225014	-2.3455507016	-1.8893172379	 0.092483
H	 2.6393177513	-2.1900058005	 0.5606999389	 0.092673
H	 1.1996993641	-0.4162913206	 1.926420263	 0.067769
H	-0.3811898387	-2.8367718996	 1.2234102481	 0.084021
H	-1.0751107479	-1.4155161706	 2.0699350473	 0.107219
H	-2.6881152883	-1.6929532505	-0.8268974836	 0.285017
169.1617	192.4081	210.5888	249.8373	302.4336	341.7403	371.7866	487.0254	538.2641	588.5142	643.7593	703.7139	756.8835	774.2157	792.2972	836.2702	870.7117	914.6189	928.1233	956.0118	966.6058	1015.443	1040.427	1065.9123	1107.9518	1128.7862	1144.3276	1163.6524	1191.4059	1220.0972	1247.4618	1274.2647	1296.0341	1332.2138	1355.3607	1408.7958	1469.0983	1483.1906	1493.4619	1509.5927	1642.4188	3022.7389	3036.4001	3081.1572	3101.3474	3102.9222	3113.7599	3172.8294	3195.3755	3220.4343	3793.5031
CC12C3C=CC1CC23O	C[C@@]12[C@H]3C=C[C@@H]1C[C@@]23O	
InChI=1S/C8H10O/c1-7-5-2-3-6(7)8(7,9)4-5/h2-3,5-6,9H,4H2,1H3	InChI=1S/C8H10O/c1-7-5-2-3-6(7)8(7,9)4-5/h2-3,5-6,9H,4H2,1H3/t5-,6-,7+,8+/m1/s1
