14
gdb 24574	2.42619	2.13	1.3551	1.7463	72.26	-0.2316	-0.0338	0.1979	908.8922	0.102704	-432.861477	-432.854407	-432.853463	-432.892942	26.443	
O	-0.0237022787	 1.2459547801	-0.3039122474	-0.193398
C	 0.9836368834	 2.130753884	 0.0590885843	-0.007091
C	 2.2684933749	 2.0516882984	-0.3050171382	-0.031072
N	 2.9050559291	 1.0839470045	-1.0558960496	-0.234087
C	 3.205259286	-0.0699248631	-0.5809047188	 0.056836
N	 3.0629687736	-0.4752537308	 0.7210728088	-0.220639
C	 1.928491488	-0.6022355942	 1.3029025992	 0.061183
N	 0.7043134701	-0.7716452241	 0.7208741182	-0.236387
C	-0.0443915133	-0.0600912659	-0.0028626989	 0.150115
H	 0.5741917958	 3.0152127359	 0.5289457943	 0.124661
H	 2.8825810542	 2.9149201104	-0.0511272257	 0.124666
H	 3.7432548401	-0.7583279568	-1.2343791677	 0.125962
H	 1.9308168271	-0.7900820679	 2.377552809	 0.133005
H	-0.9266110101	-0.5053300005	-0.4595023276	 0.146247
149.703	181.4662	191.1774	241.5142	367.5481	404.5679	474.5037	523.749	668.9823	723.1965	752.1704	830.5412	843.2235	893.0443	913.911	966.0763	982.3611	992.1408	1043.6442	1055.1588	1119.3357	1214.2491	1307.4164	1384.9963	1419.9639	1434.674	1459.3669	1631.366	1663.807	1703.9232	1778.9358	3121.0251	3123.6121	3137.5927	3160.6093	3222.191
O1C=CN=CN=CN=C1	O1C=CN=C[N][CH]N=C1	
InChI=1S/C5H5N3O/c1-2-9-5-8-4-7-3-6-1/h1-5H/b2-1-,6-3-,7-4-,8-5-	InChI=1S/C5H5N3O/c1-2-9-5-8-4-7-3-6-1/h1-5H/b2-1-,6-3-,7-4?,8-5-
