16
gdb 67172	3.0031	1.5613	1.50057	3.926	68.09	-0.2392	-0.0028	0.2365	948.1648	0.125984	-437.877169	-437.870168	-437.869223	-437.908489	27.47	
C	 0.0301803943	 1.5552293723	-0.1085403203	-0.519496
C	-0.009129029	 0.0635880328	 0.0033107018	 0.280141
C	 0.4455231473	-1.0782403041	-0.8996465421	-0.107643
N	 1.1915493054	-1.7056113884	 0.1837596305	-0.305192
C	 0.4727732642	-0.8328477441	 1.1761393427	-0.21167
C	-0.7710431491	-1.6023840259	 1.610213175	 0.436181
O	-1.0352788658	-2.1220295732	 2.6537494686	-0.341984
O	-1.5650753591	-1.7213273834	 0.4918774321	-0.229033
C	-1.0270770326	-0.8972950671	-0.5249221437	 0.035785
H	 1.0476778441	 1.9384839622	 0.0204152225	 0.135987
H	-0.3266570331	 1.8781235618	-1.0916941989	 0.129881
H	-0.6079809803	 2.0265443336	 0.6473077931	 0.135174
H	 0.8038605005	-1.0881699643	-1.9232963049	 0.104803
H	 1.0233806828	-2.7057724363	 0.3014778406	 0.233442
H	 1.0842497257	-0.4452250546	 1.9881862599	 0.103806
H	-1.7586428954	-0.6109724313	-1.2693898867	 0.119818
134.5099	190.2452	233.3767	275.0058	352.2982	461.6968	541.3403	578.767	646.3695	737.2147	757.0338	804.8419	828.5683	863.2119	888.8143	934.8576	954.8309	996.3993	1022.366	1058.3655	1091.8118	1109.3755	1123.8248	1141.9795	1193.1695	1220.6506	1242.3259	1274.2534	1327.4238	1370.1738	1418.0206	1466.8927	1485.4995	1498.1972	1882.4644	3030.6773	3094.9391	3104.2649	3143.0948	3174.4075	3207.6987	3439.3203
CC12C3NC1C(=O)OC23	C[C@@]12[C@H]3N[C@@H]1C(=O)O[C@@H]23	
InChI=1S/C6H7NO2/c1-6-2-4(6)9-5(8)3(6)7-2/h2-4,7H,1H3	InChI=1S/C6H7NO2/c1-6-2-4(6)9-5(8)3(6)7-2/h2-4,7H,1H3/t2-,3+,4+,6+/m0/s1
