16
gdb 73778	2.43035	1.67543	0.99859	1.3113	78.89	-0.2152	-0.0533	0.1619	1129.9943	0.12508	-434.142516	-434.133612	-434.132667	-434.176246	32.668	
C	 0.0711393035	 1.5342968836	 0.024719898	-0.525107
C	 0.0062891827	 0.0410883099	 0.0235265288	 0.163946
C	-1.0745354351	-0.7742776788	 0.0408462466	 0.14471
N	-2.4138769647	-0.5368467623	 0.1028009861	-0.59995
C	-0.6217876098	-2.2049137018	 0.0229478561	 0.404032
O	-1.3271461243	-3.1892116544	-0.0161954153	-0.376714
N	 0.7559909288	-2.1467630762	 0.0421445555	-0.42549
C	 1.2074165376	-0.8105574345	 0.0137440941	 0.332232
N	 2.4087479957	-0.3875702661	-0.0188998404	-0.534336
H	 1.0810750931	 1.8599982131	-0.2327002358	 0.162521
H	-0.628094302	 1.9710252026	-0.6987546507	 0.114805
H	-0.1749718124	 1.9538495045	 1.0082369167	 0.133341
H	-2.7643573797	 0.3625914278	-0.1830582728	 0.261375
H	-2.9959780101	-1.3315191971	-0.1204048161	 0.270927
H	 1.3449738808	-2.9598893236	-0.0263634324	 0.260409
H	 3.0828271058	-1.1540604068	-0.0191883581	 0.213297
61.7877	119.8386	139.8577	234.6565	251.5865	279.3967	369.3151	379.9506	409.8422	492.9111	540.1991	551.3819	642.9995	655.4897	713.696	719.6863	794.5561	851.7449	876.7702	993.721	1051.6565	1057.965	1186.1212	1217.215	1232.4132	1337.0818	1388.7051	1403.3865	1429.0705	1487.327	1494.2488	1621.5877	1720.8432	1745.4555	1832.5478	3019.0831	3064.5764	3131.3312	3470.2213	3572.8374	3665.5352	3695.1299
CC1=C(N)C(=O)NC1=N	CC1=C(NC(=O)[C]1N)[NH]	
InChI=1S/C5H7N3O/c1-2-3(6)5(9)8-4(2)7/h1H3,(H4,6,7,8,9)	InChI=1S/C5H7N3O/c1-2-3(6)5(9)8-4(2)7/h1H3,(H4,6,7,8,9)
