15
gdb 31366	3.05467	1.37972	0.95697	9.2624	71.	-0.2346	-0.0226	0.212	1163.3948	0.114362	-450.186262	-450.177872	-450.176928	-450.219979	29.665	
C	 0.0243525901	 1.4542864101	-0.0127876039	-0.318676
N	-0.0187565477	 0.0016661384	 0.0851936984	-0.379616
C	-1.2097368657	-0.6571431738	 0.033876675	 0.522949
N	-2.3350946285	-0.0259422348	 0.0369535244	-0.377383
C	-3.5368150369	-0.7531320626	 0.0537924007	 0.373892
O	-4.6056709979	-0.199020644	 0.114975178	-0.342319
N	-3.4815138997	-2.1849861563	-0.015838523	-0.285996
C	-2.3309560474	-2.7321565948	-0.0229468717	 0.093984
N	-1.1408546101	-2.0399135172	 0.0080323452	-0.371522
H	 1.0275575035	 1.7896779958	 0.2578157746	 0.126355
H	-0.221542082	 1.8124596253	-1.0193801213	 0.139553
H	-0.7016133518	 1.8784465484	 0.6810382339	 0.17586
H	 0.7987805822	-0.4986052075	-0.2251499197	 0.244305
H	-2.2264658435	-3.8163335995	-0.0593248195	 0.134768
H	-0.2646585446	-2.5316565776	 0.0813413889	 0.263847
62.6579	96.9504	134.8272	201.7378	222.8208	310.7752	397.3704	455.1653	500.2936	543.3602	576.8589	625.5018	737.435	771.4841	825.1657	921.1684	969.9	1000.8736	1080.9822	1091.1605	1153.2278	1178.5556	1255.0186	1303.696	1415.7321	1450.2386	1463.9439	1481.6651	1508.7607	1556.5074	1649.2021	1728.8973	1817.1773	3035.6309	3113.0548	3136.0839	3159.0755	3630.3739	3635.836
CNC1=NC(=O)N=CN1	CNc1nc(=O)nc[nH]1	
InChI=1S/C4H6N4O/c1-5-3-6-2-7-4(9)8-3/h2H,1H3,(H2,5,6,7,8,9)	InChI=1S/C4H6N4O/c1-5-3-6-2-7-4(9)8-3/h2H,1H3,(H2,5,6,7,8,9)
