17
gdb 7807	3.5237	1.79414	1.24838	4.5042	65.54	-0.2333	0.0134	0.2467	959.0679	0.143254	-401.024843	-401.017342	-401.016398	-401.056702	27.784	
C	 0.0125489638	 1.485189013	-0.0104764196	-0.318108
N	-0.000062385	 0.0332614933	-0.06469067	-0.075391
C	 0.7861018818	-0.511284933	-1.1567789007	-0.167018
C	 0.5054608782	-1.9990378598	-1.2458551196	-0.06694
O	 0.7577787908	-2.6910112706	-0.0117753924	-0.222241
C	 0.6039990484	-2.0697476427	 1.1778138142	 0.408434
O	 0.6787565491	-2.7029518656	 2.194548511	-0.325328
C	 0.4305566034	-0.5544812877	 1.1935444113	-0.290289
H	 1.0225055059	 1.9031192832	 0.1629659597	 0.098428
H	-0.3707117551	 1.8937177106	-0.9502996081	 0.123072
H	-0.6371832527	 1.8283841541	 0.800632433	 0.127442
H	 0.4816501499	-0.0399239508	-2.0972495388	 0.113817
H	 1.872550621	-0.3305382178	-1.0304052928	 0.089463
H	-0.5432506329	-2.1619115512	-1.5180557523	 0.124266
H	 1.1438580678	-2.4822917895	-1.9897295005	 0.12251
H	 1.4093964814	-0.1525202043	 1.5292480962	 0.113996
H	-0.2875124459	-0.3256890511	 1.9855609692	 0.143888
104.2647	129.4378	227.1513	256.9522	323.145	366.8253	425.0538	471.0197	521.0529	585.1856	668.693	796.1146	845.8019	940.3631	988.3218	1029.3945	1079.8226	1098.7434	1107.7532	1162.2716	1179.7596	1206.6258	1251.7649	1275.1673	1296.6619	1327.3744	1372.2054	1405.8932	1433.6179	1457.7134	1474.1459	1485.5328	1501.1797	1505.1892	1507.68	1849.654	2893.1173	2908.0904	2932.0113	3045.6339	3064.652	3072.6946	3091.3913	3106.2991	3109.6567
CN1CCOC(=O)C1	CN1CCOC(=O)C1	
InChI=1S/C5H9NO2/c1-6-2-3-8-5(7)4-6/h2-4H2,1H3	InChI=1S/C5H9NO2/c1-6-2-3-8-5(7)4-6/h2-4H2,1H3
