25
gdb 96251	2.21276	1.41236	0.97239	0.2038	94.09	-0.2342	0.0248	0.259	1332.0684	0.231571	-352.374215	-352.365152	-352.364208	-352.407386	36.555	
C	 0.0159336827	 1.6021689538	 0.0347343083	-0.399269
C	 0.0256746783	 0.0641546539	 0.0471989097	 0.054034
C	 0.59596558	-0.4752211991	-1.2931542399	-0.18199
C	-0.1520668787	-1.6573325322	-1.9339649866	-0.194513
C	-0.3316554986	-2.902255169	-1.0340984155	-0.243092
C	 0.9522127213	-3.3397879652	-0.3865247599	-0.038291
C	 1.3898684726	-2.8851035607	 0.7884286415	-0.045197
C	 0.6511732301	-1.915894064	 1.6811374738	-0.264212
C	 0.7844828602	-0.4222511461	 1.3029031693	-0.171182
H	 1.0336265833	 1.9988299136	-0.0664991757	 0.112434
H	-0.5717792508	 1.9861010976	-0.8057158744	 0.107783
H	-0.4089961453	 2.0109690277	 0.9577589269	 0.105915
H	-1.0198412032	-0.2656940958	 0.1390891851	 0.064548
H	 0.5937801278	 0.338172813	-2.0285868347	 0.084977
H	 1.6482300817	-0.7453303391	-1.152382204	 0.097573
H	-1.146578045	-1.3260905455	-2.2605459043	 0.091323
H	 0.3872886973	-1.9466066694	-2.845148915	 0.091714
H	-1.0775499746	-2.6760352418	-0.2638725783	 0.101471
H	-0.7517322116	-3.7134930502	-1.6396711905	 0.092354
H	 1.5815131756	-4.0227968903	-0.9542715532	 0.078911
H	 2.3629262439	-3.2169138497	 1.1455382056	 0.080424
H	-0.4160057535	-2.1698021809	 1.7165949209	 0.103216
H	 1.0207004302	-2.034734037	 2.7059864771	 0.09348
H	 1.8480982629	-0.1695117912	 1.1929495578	 0.091461
H	 0.4219591733	 0.1618962477	 2.158697946	 0.086129
97.1628	180.1359	209.6462	232.2281	246.3402	287.5631	307.0326	359.2629	412.9138	461.3256	481.4367	554.418	595.6175	737.2736	763.7269	789.8621	842.6197	855.4028	897.2102	933.9112	962.8643	980.7105	1003.0757	1008.1825	1018.5392	1054.9764	1079.7609	1104.3765	1125.9159	1149.5017	1169.6712	1215.986	1249.5075	1271.8303	1283.1107	1301.9969	1327.2857	1335.2992	1346.9982	1364.0612	1373.9712	1387.9671	1398.0612	1414.9336	1427.5588	1478.8338	1479.0368	1488.2289	1494.5621	1500.5772	1502.3445	1504.5667	1721.739	2988.9141	3007.0773	3011.0478	3017.8592	3021.5644	3029.4234	3034.3635	3046.1356	3047.8762	3059.3556	3069.1675	3074.1013	3087.8714	3096.7736	3130.2788	3154.9099
CC1CCCC=CCC1	C[C@H]1CCCC=CCC1	
InChI=1S/C9H16/c1-9-7-5-3-2-4-6-8-9/h2-3,9H,4-8H2,1H3/b3-2-	InChI=1S/C9H16/c1-9-7-5-3-2-4-6-8-9/h2-3,9H,4-8H2,1H3/b3-2-/t9-/m1/s1
