17
gdb 39307	2.71156	2.12963	1.82534	2.503	65.27	-0.2408	0.073	0.3138	826.685	0.139691	-458.942651	-458.936613	-458.935668	-458.97292	25.146	
C	-0.1001591827	 1.5543152079	-0.0937080363	-0.11217
O	 1.2170843519	 2.0155641514	 0.2497154934	-0.267646
C	 1.947210484	 0.9496877435	 0.8230050181	 0.188445
O	 1.6964810824	 0.7968761208	 2.198419933	-0.253831
C	 0.4239346875	 0.2179631332	 2.4961711886	-0.090159
C	 0.0051137828	-0.7015438939	 1.3543662455	 0.043404
O	 1.2114082278	-1.4125656936	 0.9511355674	-0.286627
C	 1.4668486164	-0.3181129475	 0.0512113726	 0.049856
C	-0.0244686891	 0.0364553015	-0.0244819068	-0.078811
H	-0.8423789865	 1.9881276112	 0.5893815124	 0.106276
H	-0.3304698927	 1.9001228825	-1.1072590509	 0.111641
H	 3.0056757776	 1.1950989314	 0.7325882693	 0.099641
H	 0.5522462157	-0.3584431613	 3.4173580707	 0.120695
H	-0.3298589246	 0.9981275423	 2.6792986949	 0.101261
H	-0.8195680297	-1.369231388	 1.6152415484	 0.086914
H	 2.0721976562	-0.5865271545	-0.8157451243	 0.089343
H	-0.612395037	-0.4930307969	-0.7727268059	 0.091769
153.6743	274.6091	378.9883	428.264	503.9387	548.9425	657.3841	685.8406	744.6036	792.2741	849.2721	884.5254	908.7371	929.0124	942.0117	989.2074	998.7002	1016.1516	1033.6921	1045.6349	1080.3966	1103.5824	1120.65	1180.5326	1208.539	1243.7634	1244.3306	1282.923	1299.6732	1310.0443	1326.492	1354.4526	1367.7272	1393.5877	1407.9251	1499.5177	1526.2702	2997.7872	3017.7341	3062.6781	3078.2681	3088.0649	3105.1802	3122.6107	3129.2588
C1OC2OCC3OC2C13	C1O[C@H]2OC[C@@H]3O[C@H]2[C@H]13	
InChI=1S/C6H8O3/c1-3-4-2-8-6(7-1)5(3)9-4/h3-6H,1-2H2	InChI=1S/C6H8O3/c1-3-4-2-8-6(7-1)5(3)9-4/h3-6H,1-2H2/t3-,4+,5+,6+/m1/s1
