13
gdb 133291	3.86492	1.20329	0.92287	2.4331	66.97	-0.2577	-0.0988	0.1589	1161.0625	0.087167	-493.996616	-493.988742	-493.987798	-494.030212	27.619	
C	 0.0071255332	 1.4313178735	-0.0284676894	-0.320507
N	-0.0027207428	-0.0215341784	 0.0079920276	-0.283655
C	 0.5306747329	-0.6705896141	-0.9243377295	 0.48227
O	 1.1385537597	 0.033670217	-2.0058966945	-0.281845
N	 1.7407781982	-0.6061210428	-3.0583729079	-0.00516
C	 1.7376181631	-1.889976926	-3.0351868925	-0.101644
C	 1.1206586607	-2.6078376816	-1.9381847155	 0.326005
F	 1.1718682515	-3.9250488752	-2.0107412722	-0.044688
N	 0.5558364395	-2.0566585958	-0.9500738224	-0.329655
H	 1.0287111877	 1.8319581774	-0.0479053459	 0.131692
H	-0.5083004987	 1.8203428231	-0.9159046702	 0.131718
H	-0.4989542654	 1.8079847021	 0.8624548973	 0.129112
H	 2.2126943405	-2.3988662991	-3.8654275849	 0.166357
39.208	102.5746	156.3506	204.0713	326.1279	379.239	395.1162	493.1799	540.1992	613.1432	699.2491	702.7879	743.1831	842.1182	888.77	960.0444	1004.0984	1050.1414	1109.0234	1138.0967	1240.2086	1272.321	1394.0662	1437.854	1483.8967	1499.1466	1628.6572	1731.0102	1780.4934	3010.7041	3063.6708	3118.5417	3214.4822
CN=C1ON=CC(F)=N1	C[N]C1=N[C](C=NO1)F	
InChI=1S/C4H4FN3O/c1-6-4-8-3(5)2-7-9-4/h2H,1H3	InChI=1S/C4H4FN3O/c1-6-4-8-3(5)2-7-9-4/h2H,1H3
