17
gdb 66601	3.00704	2.02044	1.8775	1.704	76.72	-0.1967	-0.0752	0.1215	822.7905	0.136335	-384.533214	-384.526788	-384.525844	-384.563307	27.995	
O	 0.2507441996	 1.3737358263	-0.1964748273	-0.487331
C	 0.0608791355	 0.0118525716	-0.0377487594	 0.413613
C	 1.0713079514	-0.9369496332	-0.6179875645	-0.10731
C	-0.3387762071	-0.9155113237	-1.1712131683	-0.166104
C	-0.7689070811	-2.1187102474	-0.3236962433	-0.095866
C	-1.366645179	-1.5812009679	 0.9440535868	-0.071389
C	-0.4603006145	-0.5959253434	 1.2781121056	-0.118557
C	 0.6952042377	-1.5350196248	 1.7478574688	-0.251407
C	 0.8118816468	-2.1655985626	 0.2763821853	-0.052195
H	-0.6068596081	 1.8004652675	-0.0892451328	 0.281506
H	 2.0063894145	-0.6172360759	-1.0601757049	 0.094315
H	-0.7057031182	-0.616861825	-2.1439351649	 0.090331
H	-1.1714758669	-3.0144760107	-0.794324908	 0.076459
H	-1.7460497782	-2.2768601783	 1.6921761955	 0.108078
H	 1.6260547037	-1.0320332752	 2.0315726105	 0.109256
H	 0.4144168586	-2.2551503837	 2.5187318138	 0.106794
H	 1.4376932053	-3.0484516936	 0.1173767773	 0.06981
252.1014	281.9662	311.3378	422.0503	459.37	547.0207	570.1429	596.3419	668.8924	678.3992	718.8529	763.9798	814.8324	869.3675	889.4039	903.9989	917.529	932.8469	940.567	967.8557	985.327	1016.0564	1045.5959	1068.3229	1101.1524	1129.7268	1176.0806	1196.0937	1216.5365	1222.831	1238.265	1279.1302	1301.7922	1313.1752	1424.565	1454.867	1489.1604	3044.6612	3077.8227	3113.769	3120.7807	3129.4604	3192.9522	3207.2877	3791.731
OC12C3C1C1C=C2CC31	O[C@]12[C@@H]3[C@H]1[C@@H]1[CH][C]2C[C@H]31	
InChI=1S/C8H8O/c9-8-3-1-4-5(2-3)7(8)6(4)8/h1,4-7,9H,2H2	InChI=1S/C8H8O/c9-8-3-1-4-5(2-3)7(8)6(4)8/h1,4-7,9H,2H2/t4-,5+,6-,7+,8+/m1/s1
