13
gdb 8982	4.64169	0.98078	0.81771	3.1455	59.69	-0.2721	-0.114	0.158	1265.6293	0.092883	-398.632483	-398.624086	-398.623142	-398.666843	27.62	
O	-0.8910265245	 1.4371606405	 0.1934836683	-0.210709
C	 0.1579316116	 0.9868721829	-0.1821476277	 0.096247
C	 1.4354631164	 1.8292666706	-0.3077806055	 0.284109
O	 2.4471451844	 1.2927031519	-0.6946146408	-0.270103
C	 1.3307842479	 3.2893694777	 0.0674538904	-0.305035
C	 2.6729331765	 4.016029177	-0.1026420116	-0.345694
C	 2.581370245	 5.4276725794	 0.2591216827	 0.257526
N	 2.4952800766	 6.5428230255	 0.5484822996	-0.29697
H	 0.3088477519	-0.0730479859	-0.47364639	 0.118137
H	 0.5431613495	 3.7495802013	-0.5408718883	 0.166256
H	 0.9626113528	 3.3584860571	 1.0979300617	 0.166272
H	 3.4409964715	 3.5362358481	 0.5122015793	 0.169999
H	 3.0177429903	 3.9318412439	-1.1381062079	 0.169965
51.1861	75.8038	102.4855	136.071	225.5133	253.0617	388.502	462.4361	503.0471	529.4163	637.3563	744.889	822.9833	936.3003	962.525	1049.0885	1059.9077	1157.1905	1176.2592	1296.3234	1308.0623	1363.3582	1392.6187	1439.0214	1463.2369	1805.751	1825.9468	2366.6776	2937.7052	3050.9691	3064.9728	3078.427	3103.9495
O=CC(=O)CCC#N	O=CC(=O)CCC#N	
InChI=1S/C5H5NO2/c6-3-1-2-5(8)4-7/h4H,1-2H2	InChI=1S/C5H5NO2/c6-3-1-2-5(8)4-7/h4H,1-2H2
