20
gdb 70359	2.77586	1.70441	1.39273	1.6804	77.36	-0.2256	0.0789	0.3045	1009.3818	0.172781	-403.114335	-403.106791	-403.105847	-403.145932	30.506	
C	-0.0980235417	 1.4658617418	 0.0911017891	-0.484735
C	-0.0094701305	-0.0396538995	 0.0198293806	 0.338531
C	-0.5004068597	-0.8877290398	 1.1429106374	-0.298116
N	 0.9465160599	-0.7125402714	 0.9409339642	-0.137977
C	 1.5763204044	-1.8292540916	 0.2122804566	-0.191919
C	 0.9182194533	-1.950158088	-1.1649644432	 0.109847
O	-0.2608371916	-2.7970025632	-1.2336611341	-0.294944
C	-1.0588390832	-1.6955152067	-1.7262712397	-0.097961
C	 0.0489968187	-0.6861383655	-1.364657122	-0.130516
H	 0.7105307364	 1.9350999143	-0.4810144906	 0.1174
H	-1.0499783796	 1.8223238225	-0.3190278231	 0.115989
H	-0.0213622864	 1.8074456503	 1.1262281659	 0.128915
H	-0.8925060622	-0.4083084372	 2.0370888106	 0.106995
H	-0.9310209125	-1.8595920366	 0.9203855743	 0.132509
H	 2.6394010055	-1.5923126199	 0.089162549	 0.106453
H	 1.501524652	-2.7631167223	 0.7786397629	 0.120056
H	 1.6277029536	-2.2124337588	-1.9591275929	 0.077204
H	-1.2440966752	-1.7893341544	-2.8040308824	 0.101338
H	-2.0144878701	-1.6034052647	-1.1994802647	 0.106909
H	 0.335389419	 0.0311167007	-2.1353302778	 0.074023
148.5021	191.8504	215.0944	285.1962	307.2742	361.2698	435.8077	471.4024	587.6165	690.8555	710.4422	773.4143	789.9996	846.795	868.8126	907.0922	941.7014	978.0368	987.2449	1008.3735	1038.5711	1050.6497	1074.0412	1078.3484	1117.8492	1139.5569	1163.134	1169.973	1209.7355	1231.9443	1253.3422	1270.2209	1317.3103	1331.3882	1357.0591	1358.3311	1391.8664	1417.7238	1478.1968	1486.64	1493.3374	1511.0609	1522.0225	3014.6596	3026.1782	3027.5047	3043.554	3070.9939	3086.882	3088.4941	3098.204	3102.2905	3120.5061	3193.6402
CC12CN1CC1OCC21	C[C@]12CN1C[C@H]1OC[C@@H]21	
InChI=1S/C7H11NO/c1-7-4-8(7)2-6-5(7)3-9-6/h5-6H,2-4H2,1H3	InChI=1S/C7H11NO/c1-7-4-8(7)2-6-5(7)3-9-6/h5-6H,2-4H2,1H3/t5-,6-,7-,8?/m1/s1
