18
gdb 92946	2.25285	1.57006	1.32141	4.8603	77.06	-0.2471	-0.0075	0.2395	1056.7927	0.149259	-398.135772	-398.126977	-398.126033	-398.168836	33.592	
N	-0.147063102	 1.5297373663	 0.0912714429	-0.51917
C	-0.0491470836	 0.0726645961	 0.0306374361	-0.035017
C	 0.6207059388	-0.5677800404	 1.2736883503	-0.280335
C	-0.5510703415	-0.8030633409	 2.2001356365	-0.070914
C	-1.7110938365	-0.7844224456	 1.5486420443	-0.081227
C	-1.5222598791	-0.5355524531	 0.0528511714	 0.125791
N	-2.5686871003	 0.3057686641	-0.5270717769	-0.568247
C	-1.508828829	-1.832876105	-0.6461757472	 0.268628
N	-1.473654946	-2.847315104	-1.2002608801	-0.347629
H	-0.2941956445	 1.8366389663	 1.0487802458	 0.23641
H	 0.713150125	 1.9563746994	-0.2322443739	 0.241196
H	 0.4557353107	-0.1888368901	-0.9017603262	 0.094192
H	 1.1081108041	-1.5187259374	 1.0190617449	 0.13116
H	 1.394665521	 0.082159457	 1.6965388236	 0.099835
H	-0.4336110687	-0.9989639105	 3.2598225192	 0.106962
H	-2.7000237263	-0.9576263868	 1.9526029688	 0.116665
H	-2.2274569864	 1.2655012364	-0.4693354208	 0.244288
H	-2.6689728259	 0.1008540184	-1.5166426488	 0.237412
99.2493	143.4481	178.9208	187.3521	273.5933	285.6339	331.1924	402.1207	441.5394	490.3144	533.1466	561.5486	649.1013	737.1613	765.8881	781.255	846.4728	906.5119	922.3136	942.1235	965.603	981.7286	994.1704	1064.5956	1102.0724	1131.6909	1171.3878	1185.2613	1240.9303	1246.2517	1309.3861	1332.3344	1371.9396	1418.0341	1480.9018	1647.2798	1670.3422	1678.195	2346.6073	3019.5339	3063.4043	3092.4637	3195.4972	3230.399	3453.4325	3500.1358	3553.9458	3590.7824
NC1CC=CC1(N)C#N	N[C@H]1CC=C[C@]1(N)C#N	
InChI=1S/C6H9N3/c7-4-6(9)3-1-2-5(6)8/h1,3,5H,2,8-9H2	InChI=1S/C6H9N3/c7-4-6(9)3-1-2-5(6)8/h1,3,5H,2,8-9H2/t5-,6-/m0/s1
