19
gdb 60802	2.6634	1.08502	0.89456	2.247	73.57	-0.2465	-0.05	0.1965	1337.4521	0.15492	-460.193415	-460.182956	-460.182011	-460.229629	36.7	
C	 0.2778457821	 1.6970759504	-0.1186647948	-0.4127
C	 0.0562819759	 0.1838017442	 0.0138600975	-0.115109
C	 0.6385615086	-0.6277138917	-1.179457148	 0.05778
O	 0.5072251186	-2.0064204765	-0.9521951063	-0.441789
C	-0.0278669297	-0.2677105955	-2.4931857083	 0.126149
O	-0.5988653375	-1.1037427546	-3.1534419562	-0.260764
C	 0.7674235781	-0.3343658546	 1.2815127535	 0.418619
C	 0.006288549	-1.3165727537	 2.1385967451	-0.48703
O	 1.8895823515	 0.0358549505	 1.5373248267	-0.319629
H	 1.3457698886	 1.9184832854	-0.1855733593	 0.147184
H	-0.2299254521	 2.115951115	-0.9910786423	 0.114605
H	-0.1084637949	 2.2141245482	 0.7644270046	 0.128966
H	-1.0128044593	-0.0486448668	 0.0779124891	 0.086338
H	 1.7044874856	-0.35119198	-1.2637236034	 0.114093
H	 0.006142311	-2.3493112227	-1.7102777552	 0.296693
H	 0.0379135325	 0.7846882616	-2.8257255537	 0.110545
H	-0.2591712922	-2.1801501886	 1.5198947703	 0.16345
H	 0.6116481322	-1.6276350394	 2.9907452325	 0.138887
H	-0.9308643981	-0.8686859709	 2.4897623882	 0.133712
50.8941	57.897	104.7104	168.8571	171.7972	189.9104	253.3925	280.241	318.6921	341.563	397.6292	443.0846	494.4839	590.4464	600.6666	755.1172	766.3403	830.5599	930.3327	955.7071	983.9249	1011.2573	1065.279	1107.937	1129.674	1155.5753	1188.3078	1252.6112	1294.0458	1344.3607	1348.5846	1375.8126	1396.9016	1411.0517	1439.9644	1464.8137	1473.7907	1493.3721	1502.862	1802.4257	1814.0337	2956.4811	2972.4666	3035.2822	3047.7799	3050.7083	3103.2531	3115.289	3132.9057	3154.4775	3674.4466
CC(C(O)C=O)C(C)=O	C[C@@H]([C@@H](O)C=O)C(=O)C	
InChI=1S/C6H10O3/c1-4(5(2)8)6(9)3-7/h3-4,6,9H,1-2H3	InChI=1S/C6H10O3/c1-4(5(2)8)6(9)3-7/h3-4,6,9H,1-2H3/t4-,6+/m1/s1
