17
gdb 7449	3.01199	1.70444	1.14659	5.2593	60.91	-0.2675	0.0164	0.2839	1017.3947	0.141865	-438.177357	-438.168966	-438.168022	-438.210057	31.325	
C	 0.0223328158	 1.5914278408	-0.0666759153	-0.396164
C	 0.0386950024	 0.0694484747	 0.0679520575	 0.003114
N	 0.6241479499	-0.4133431061	 1.3423828554	-0.536808
H	-0.0463365855	-2.0187864404	 1.2216097853	 0.318792
H	 1.6295012538	-0.2733048627	 1.3490606767	 0.250737
H	 0.2493504691	 0.1247004778	 2.1204433539	 0.24409
C	-1.3819812415	-0.528938063	-0.0421576361	 0.014018
O	-2.0462297893	-0.0284358188	-1.16678686	-0.437365
C	-1.3747823824	-2.0705276742	-0.1118586889	 0.397464
O	-0.6087660974	-2.7065647715	 0.7621293833	-0.368182
O	-2.0626281971	-2.6362558194	-0.9304190521	-0.358283
H	 1.0388222069	 1.9958886842	-0.0198191532	 0.109134
H	-0.4303987653	 1.8839060919	-1.0159022921	 0.156044
H	-0.5644525902	 2.045140672	 0.7415053332	 0.113632
H	 0.6458380657	-0.3574794472	-0.7392788592	 0.106059
H	-1.9256644546	-0.2563715417	 0.8838822144	 0.085178
H	-2.4346188002	-0.8149341564	-1.587970173	 0.298539
93.1205	107.361	235.1706	253.6504	302.1545	337.4154	350.6851	384.6994	415.4477	470.4323	513.8959	565.0431	615.1849	739.5796	873.2362	883.7429	935.0689	961.1169	1001.58	1036.0402	1105.1626	1155.6675	1172.2585	1199.1515	1266.934	1296.5817	1337.9856	1376.0431	1395.5537	1408.2633	1448.4553	1487.3928	1502.4101	1520.2577	1646.7596	1835.354	2911.9489	3028.4291	3044.5518	3095.239	3117.2208	3140.4112	3486.1419	3570.8923	3647.9039
CC([NH3+])C(O)C([O-])=O	C[C@@H](N)[C@@H](O)C(=O)O	
InChI=1S/C4H9NO3/c1-2(5)3(6)4(7)8/h2-3,6H,5H2,1H3,(H,7,8)	InChI=1S/C4H9NO3/c1-2(5)3(6)4(7)8/h2-3,6H,5H2,1H3,(H,7,8)/t2-,3-/m1/s1
