20
gdb 97074	4.21035	1.01326	0.85356	2.5386	79.69	-0.2407	0.0201	0.2608	1392.7346	0.170426	-440.293164	-440.2838	-440.282856	-440.327732	33.924	
C	-0.2762732878	 1.4403437671	 0.0694819465	-0.327281
N	-0.1431387426	-0.007377851	 0.0749180653	-0.290988
C	 0.6636444036	-0.5628188155	 0.8699001324	 0.380965
C	 0.735918567	-2.075276175	 0.9427960534	-0.174678
O	 2.0152015797	-2.5681021126	 1.2955700569	-0.255542
C	 2.4859759123	-1.9635553147	 2.4919835782	 0.114899
C	 3.8027540765	-2.6235136815	 2.867550589	-0.410507
C	 2.6334003199	-0.4692691375	 2.243384041	-0.076157
O	 1.4142198421	 0.128598341	 1.7809536551	-0.26464
H	 0.5814869154	 1.9688136821	 0.4999487729	 0.118784
H	-0.4281973115	 1.7757173401	-0.9610873513	 0.121246
H	-1.1715073155	 1.7285970655	 0.6348897588	 0.125229
H	-0.014412311	-2.416788127	 1.6776129713	 0.109611
H	 0.4732916333	-2.4882383562	-0.0309006529	 0.141445
H	 1.7431578518	-2.1177736831	 3.2946048239	 0.073349
H	 4.5451161208	-2.4753411609	 2.0775483713	 0.13077
H	 4.1946845764	-2.2077752087	 3.8005382343	 0.120618
H	 3.655685267	-3.6980496083	 3.0002041632	 0.134427
H	 2.8977323153	 0.0663114768	 3.1593638858	 0.116344
H	 3.4199808772	-0.3019117106	 1.495312725	 0.112107
56.8876	81.2894	165.9146	197.3025	212.6526	227.7462	275.9797	304.672	386.1692	474.6044	496.8874	540.2551	585.0258	732.7709	790.6968	864.3304	915.7563	953.145	1000.4132	1036.481	1072.2861	1102.9587	1128.088	1141.8976	1155.2896	1168.9986	1172.2658	1241.309	1270.9891	1291.1143	1348.7961	1370.9497	1401.6387	1412.7952	1428.8905	1436.5936	1478.0145	1482.7961	1490.2597	1495.772	1498.996	1501.3041	1778.2543	2949.6208	2955.5018	3016.3221	3020.1669	3046.0565	3073.7388	3095.8785	3096.3238	3119.7721	3128.2463	3137.5743
CN=C1COC(C)CO1	CN=C1CO[C@@H](C)CO1	
InChI=1S/C6H11NO2/c1-5-3-9-6(7-2)4-8-5/h5H,3-4H2,1-2H3	InChI=1S/C6H11NO2/c1-5-3-9-6(7-2)4-8-5/h5H,3-4H2,1-2H3/t5-/m0/s1
