18
gdb 10618	2.60876	1.69825	1.25146	1.5688	75.06	-0.2473	0.044	0.2913	1036.8168	0.151609	-347.755729	-347.746666	-347.745722	-347.78907	33.547	
C	-0.0762327513	 1.5177291622	-0.1051550923	-0.416291
C	 0.0700902471	 0.0154247227	 0.0066282791	-0.030598
C	 1.3997747853	-0.6701542897	-0.1234202164	-0.312761
C	 0.6901709588	-0.6705998152	 1.224963162	 0.105829
C	 1.2892062988	 0.1367167806	 2.3736739986	-0.123895
O	 2.3073720374	-0.5722825861	 3.0530912891	-0.417959
C	 0.0948463211	-1.9033762991	 1.6705326879	 0.264098
C	-0.3761866539	-2.9248684244	 2.1012304917	-0.464255
H	 0.8037065157	 2.0504474586	 0.2641350567	 0.12283
H	-0.210895879	 1.8026009242	-1.1543485266	 0.124296
H	-0.9478354315	 1.8789143711	 0.4510595886	 0.125019
H	-0.769555876	-0.5355824375	-0.4075988505	 0.098811
H	 1.4593667906	-1.6054727788	-0.6671052819	 0.123735
H	 2.2888026869	-0.0506056511	-0.189497538	 0.121395
H	 1.7594397256	 1.0462585132	 1.9922719285	 0.103755
H	 0.4847449873	 0.43837076	 3.0625473203	 0.093582
H	 1.929408295	-1.41764657	 3.3233976678	 0.286676
H	-0.8077760477	-3.8273418106	 2.4573543953	 0.195732
82.7045	140.7508	147.4193	173.3828	213.8121	270.5718	341.4312	380.9814	401.964	475.2211	543.5664	562.2696	583.5944	659.6344	697.5269	797.5221	887.8733	918.3619	944.3425	969.759	1016.8056	1071.1165	1080.3917	1099.5289	1128.1117	1187.4875	1202.064	1289.8643	1304.8266	1376.6982	1406.0225	1422.3701	1436.8235	1486.1641	1493.5874	1504.3314	1507.7756	2222.9669	2981.7405	3035.093	3093.1032	3095.4571	3115.8409	3134.3442	3150.2642	3225.1779	3501.6478	3786.3311
CC1CC1(CO)C#C	C[C@H]1C[C@]1(CO)C#C	
InChI=1S/C7H10O/c1-3-7(5-8)4-6(7)2/h1,6,8H,4-5H2,2H3	InChI=1S/C7H10O/c1-3-7(5-8)4-6(7)2/h1,6,8H,4-5H2,2H3/t6-,7-/m0/s1
