17
gdb 127001	6.81421	0.80945	0.73078	2.1384	73.71	-0.2163	0.0291	0.2454	1533.9762	0.135734	-455.140278	-455.131377	-455.130433	-455.174545	32.31	
C	-0.0231488944	 1.4640917985	 0.0024558128	-0.390764
C	 0.0067304475	-0.051008308	-0.0031021262	-0.057094
O	-1.3633822621	-0.5056517695	 0.016847329	-0.279839
C	-1.5751752835	-1.8146277291	 0.020291895	 0.575353
C	-2.7495015253	-2.5053641594	 0.0517346787	-0.498339
C	-2.3115625201	-3.8596914679	 0.0433928791	 0.452
N	-3.1106692156	-4.9862587375	 0.1395184532	-0.587428
N	-0.9987156086	-3.978299932	-0.0022954106	-0.255924
O	-0.5227979412	-2.6365505511	-0.0059697372	-0.233016
H	 0.9990509192	 1.8529940501	-0.0123866634	 0.126637
H	-0.5520142661	 1.8456234065	-0.8751645841	 0.133961
H	-0.5239840979	 1.8395344661	 0.8989096142	 0.134634
H	 0.5007786837	-0.4446884235	-0.8975191069	 0.127533
H	 0.5283077429	-0.4506933056	 0.8727944992	 0.128427
H	-3.7495459904	-2.1121609359	 0.0978062491	 0.11266
H	-3.9831103931	-4.9169841031	-0.3643685826	 0.253329
H	-2.6131319048	-5.8365977087	-0.0902868291	 0.257871
52.8489	70.9383	144.0874	207.5958	253.7412	295.8551	342.176	357.1709	394.7261	507.2424	632.2533	663.3587	691.4766	722.042	763.9449	776.1997	814.7083	899.1346	925.3058	1003.7899	1036.7852	1062.1001	1129.4519	1137.9675	1179.9701	1220.1496	1294.7122	1344.6954	1394.0263	1419.862	1484.4701	1498.5008	1515.0547	1523.6764	1565.084	1646.1416	1676.8484	3044.0295	3049.4002	3085.4795	3125.3728	3129.8827	3288.0908	3554.6116	3655.2639
CCOC1=CC(N)=NO1	CCOc1cc(N)no1	
InChI=1S/C5H8N2O2/c1-2-8-5-3-4(6)7-9-5/h3H,2H2,1H3,(H2,6,7)	InChI=1S/C5H8N2O2/c1-2-8-5-3-4(6)7-9-5/h3H,2H2,1H3,(H2,6,7)
