17
gdb 54868	3.19836	1.49757	1.14629	2.6682	72.63	-0.2274	0.006	0.2334	1050.9393	0.137255	-418.016388	-418.008518	-418.007574	-418.049074	30.333	
N	 0.5703202441	 0.1791976999	 0.8619510928	-0.518628
C	-0.1202140795	 0.4532612118	-0.2761614685	 0.390908
O	 0.1696133006	 1.3475201296	-1.046648845	-0.368632
C	-1.3553806901	-0.4330112466	-0.4908517209	-0.122896
C	-1.6970707984	-0.6982354424	-1.9405710981	-0.082937
C	-1.9253026751	-1.9969086643	-2.1282240617	-0.091894
C	-1.667764847	-2.7541708559	-0.8682370812	-0.069943
C	-0.2603946976	-2.6743284063	-0.3851948057	-0.242231
N	-1.2799784061	-1.7624470467	 0.166585388	-0.130349
H	 1.3542551573	 0.7616961479	 1.1053671244	 0.260584
H	 0.2694183097	-0.5523728785	 1.4832542042	 0.274846
H	-2.1796139144	 0.1181130868	-0.0096447255	 0.121474
H	-1.7199591249	 0.0897402605	-2.6803706685	 0.126398
H	-2.2142243395	-2.473815682	-3.05626934	 0.108671
H	-2.3167495417	-3.5707799744	-0.5642773975	 0.099835
H	 0.1148153511	-3.3953146153	 0.3361634089	 0.115715
H	 0.4770867715	-2.2831825841	-1.0811494956	 0.129079
54.9132	143.1116	182.0637	273.7768	341.0873	366.8958	456.7585	491.2363	544.6231	628.7958	684.3288	717.5402	754.3497	774.3087	808.4035	858.6653	914.4013	935.4267	962.6439	998.3987	1046.0821	1063.8479	1090.3101	1104.0847	1112.5487	1127.1362	1157.306	1249.9809	1276.8913	1299.2413	1329.1775	1362.3158	1367.3118	1491.1669	1601.8775	1669.3607	1797.8573	2972.0764	3104.319	3147.7395	3196.7015	3212.3088	3244.135	3595.717	3736.7437
NC(=O)C1C=CC2CN12	NC(=O)[C@H]1C=C[C@H]2CN12	
InChI=1S/C6H8N2O/c7-6(9)5-2-1-4-3-8(4)5/h1-2,4-5H,3H2,(H2,7,9)	InChI=1S/C6H8N2O/c7-6(9)5-2-1-4-3-8(4)5/h1-2,4-5H,3H2,(H2,7,9)/t4-,5+,8?/m0/s1
