14
gdb 128946	4.11991	1.04328	0.90823	3.5889	67.28	-0.2344	-0.0082	0.2262	1220.384	0.102624	-432.876868	-432.869078	-432.868134	-432.91043	27.733	
N	 1.5251278521	-0.3895155464	 0.5055231528	-0.287756
C	 0.7413928227	 0.3964033758	 0.1869034636	 0.264763
C	-0.2759307079	 1.3755850639	-0.2301481892	-0.208288
O	-0.2308088722	 2.5749603027	 0.5179114939	-0.254334
C	 0.7846674889	 3.4195427059	 0.2142055765	 0.478723
C	 1.8837677434	 3.3524580258	-0.6164012462	-0.351572
C	 2.5043630158	 4.6130613692	-0.4374827834	 0.004024
N	 1.8557220919	 5.3878652832	 0.4199799995	-0.222253
N	 0.7979472719	 4.6327063838	 0.8093180669	-0.281867
H	-0.1620288285	 1.5790996535	-1.3024736002	 0.165415
H	-1.2677978791	 0.9498435957	-0.0602122683	 0.174517
H	 2.2081418768	 2.5281727891	-1.2278284795	 0.120667
H	 3.4069395928	 4.9754125762	-0.9074983084	 0.118551
H	 0.1323293416	 4.9918656816	 1.472310652	 0.27941
44.1273	66.6631	200.4766	231.6206	315.7875	375.7579	426.5052	471.1212	629.8863	665.6374	674.9588	687.7481	761.1692	891.3358	911.9981	928.3618	1017.4629	1044.5005	1062.9364	1105.7644	1113.9104	1251.9317	1298.4596	1307.5081	1378.2801	1392.3183	1449.253	1471.5696	1535.0793	1614.5544	2365.6385	3036.2449	3112.2315	3246.0318	3280.7745	3678.9947
N#CCOC1=CC=NN1	N#CCOc1ccn[nH]1	
InChI=1S/C5H5N3O/c6-2-4-9-5-1-3-7-8-5/h1,3H,4H2,(H,7,8)	InChI=1S/C5H5N3O/c6-2-4-9-5-1-3-7-8-5/h1,3H,4H2,(H,7,8)
