21
gdb 95133	2.11946	1.82252	1.43361	2.956	81.1	-0.2285	-0.0076	0.2209	1043.7476	0.184663	-387.11335	-387.105302	-387.104358	-387.145615	32.127	
C	-0.2814610991	 1.5323579882	 0.1159135777	-0.395393
C	 0.0178411481	 0.0318788969	-0.0003362025	 0.018476
C	 0.8503635741	-0.3282253807	-1.2631898802	-0.219181
C	 2.3777463643	-0.3860765173	-1.0164113009	-0.218909
C	 2.6889232674	-0.8768030108	 0.4205998388	-0.127725
C	 1.5436835138	-1.8027045952	 0.947213486	-0.263874
C	 0.7343918073	-0.5036698555	 1.2721848084	-0.137704
C	 2.1094437606	 0.1698711284	 1.378064993	 0.441452
O	 2.5657973205	 1.0720397635	 2.0217335374	-0.335851
H	 0.6374486439	 2.1258804736	 0.1564369835	 0.13234
H	-0.8698088566	 1.8761219379	-0.7408336472	 0.110614
H	-0.8509019921	 1.7525076772	 1.0250850263	 0.117524
H	-0.9419526655	-0.4949779017	-0.0742340132	 0.076107
H	 0.5248249699	-1.3085105387	-1.6239032925	 0.105015
H	 0.6259086259	 0.3746428652	-2.0717930617	 0.0991
H	 2.8416664025	-1.0566800482	-1.7477247661	 0.103264
H	 2.8417416556	 0.596462313	-1.1590457309	 0.116947
H	 3.7314378157	-1.1749366404	 0.5454386404	 0.082913
H	 1.098835928	-2.5060725701	 0.2411529965	 0.103065
H	 1.8383700439	-2.3354229481	 1.8536794252	 0.110704
H	 0.0815304919	-0.4763598772	 2.147314682	 0.081117
116.2177	134.7705	215.8376	226.0997	334.3987	376.2733	405.3899	446.8214	472.2961	541.1387	685.1705	737.442	777.441	805.7903	822.1091	886.7142	891.3659	920.6346	960.6504	994.5716	999.2443	1035.7488	1064.8194	1072.588	1086.9624	1128.2451	1138.0676	1161.3616	1182.5452	1219.0531	1252.0488	1268.1216	1278.4607	1298.3071	1345.9622	1351.389	1364.9808	1379.9193	1418.7995	1483.1893	1494.9408	1497.083	1503.0204	1513.6233	1882.6939	3013.4815	3033.7457	3034.8989	3049.6001	3067.0908	3072.3993	3086.8856	3089.7176	3098.9811	3101.1408	3108.5364	3128.9416
CC1CCC2CC1C2=O	C[C@H]1CC[C@@H]2C[C@H]1C2=O	
InChI=1S/C8H12O/c1-5-2-3-6-4-7(5)8(6)9/h5-7H,2-4H2,1H3	InChI=1S/C8H12O/c1-5-2-3-6-4-7(5)8(6)9/h5-7H,2-4H2,1H3/t5-,6+,7+/m0/s1
