18
gdb 91488	2.54544	1.61938	1.21645	3.1274	72.18	-0.2296	-0.0272	0.2024	1043.1357	0.148323	-439.048523	-439.040527	-439.039583	-439.081189	30.556	
O	-0.1013875287	 1.3920695252	-0.0358903607	-0.439583
C	-0.0168534765	-0.0218662526	 0.0155003135	 0.056852
C	 0.4188931643	-0.6040015337	 1.4116120908	-0.207243
N	-0.8043231903	-1.3141363074	 1.8747328541	-0.127704
C	-1.1753470794	-2.0286286564	 0.5837633785	-0.229006
C	-1.4363534195	-0.6214539999	 0.0044751654	 0.240515
C	-1.8597233081	-0.3058179281	 1.4812062163	-0.221809
C	-2.3121031818	-0.343823635	-1.17050766	 0.026354
O	-2.8670256492	-1.2025825951	-1.8149264621	-0.256229
H	 0.7891156201	 1.750340173	-0.0972423214	 0.290586
H	 0.5911306647	-0.4046181279	-0.8151236282	 0.080246
H	 1.2535568987	-1.3065944149	 1.3454047333	 0.10808
H	 0.679469893	 0.2025274016	 2.102189	 0.109919
H	-0.3814203217	-2.6435733556	 0.1510101562	 0.106482
H	-2.0842647391	-2.6174914732	 0.712127661	 0.127272
H	-2.853683797	-0.6808188747	 1.7310508222	 0.120679
H	-1.711127901	 0.7076398887	 1.8565372449	 0.124893
H	-2.4407326987	 0.733746466	-1.4117040338	 0.089695
76.6284	151.6649	191.9323	227.6643	272.9526	335.0071	444.2785	480.0823	494.1521	566.4034	694.4959	718.5441	823.8719	841.119	869.998	872.8291	932.6986	988.3375	992.7698	1012.0261	1033.4493	1063.5459	1077.9771	1142.5593	1187.0553	1217.8183	1229.8558	1230.3358	1235.2689	1252.7394	1276.9831	1312.7716	1342.1392	1420.8518	1424.9957	1488.4815	1497.19	1530.8758	1807.9528	2897.8662	3011.6669	3059.2246	3065.6543	3079.2888	3115.8014	3138.0782	3148.5623	3829.9045
OC1CN2CC1(C2)C=O	O[C@H]1CN2C[C@]1(C2)C=O	
InChI=1S/C6H9NO2/c8-4-6-2-7(3-6)1-5(6)9/h4-5,9H,1-3H2	InChI=1S/C6H9NO2/c8-4-6-2-7(3-6)1-5(6)9/h4-5,9H,1-3H2/t5-/m0/s1
