16
gdb 45288	2.88263	1.75001	1.31471	4.7324	69.07	-0.2424	0.0086	0.251	960.2526	0.12581	-437.855686	-437.848749	-437.847805	-437.886994	27.308	
O	-0.0534265335	 0.0192611526	 0.1338551561	-0.354146
C	 0.0150487461	 1.208656934	 0.0021728049	 0.351825
N	-0.9564895521	 2.2089961482	-0.0532783567	-0.338128
C	-0.0592792333	 3.3475562999	-0.2299145588	-0.047999
C	 0.4134703824	 4.085781049	 1.0609205067	-0.266068
C	 1.5425058976	 3.0403808823	 1.2298229197	-0.127772
C	 2.8388285239	 3.2292525185	 0.3967364547	-0.111405
O	 2.3604867235	 2.3420181886	-0.6600126421	-0.321476
C	 1.0994316333	 2.2885662593	-0.059388851	 0.312874
H	-1.8945614312	 2.182500879	 0.3212462793	 0.251041
H	-0.2227477693	 3.9193933552	-1.1438102687	 0.097002
H	 0.7593702936	 5.1083517584	 0.8862967738	 0.112068
H	-0.3220668388	 4.1000951662	 1.8688332001	 0.10978
H	 1.6674064549	 2.5337365294	 2.1854093869	 0.097288
H	 3.0139292844	 4.2440250558	 0.0204668529	 0.11033
H	 3.7550949986	 2.8379756335	 0.8473192622	 0.124785
143.1153	153.4516	269.2083	300.6719	397.2703	455.2995	475.9533	594.246	678.0016	714.3215	750.8785	796.5411	846.7539	877.0197	930.9994	964.4193	967.8026	998.7255	1033.8764	1063.7455	1092.652	1101.4264	1153.7002	1179.8267	1181.6266	1206.114	1248.5346	1281.478	1313.6385	1340.1021	1343.6125	1358.8329	1470.4807	1515.5489	1893.1935	3031.5369	3060.0107	3093.5942	3104.7888	3114.4581	3128.2331	3598.5803
O=C1NC2CC3COC123	O=C1N[C@H]2C[C@@H]3CO[C@]123	
InChI=1S/C6H7NO2/c8-5-6-3(2-9-6)1-4(6)7-5/h3-4H,1-2H2,(H,7,8)	InChI=1S/C6H7NO2/c8-5-6-3(2-9-6)1-4(6)7-5/h3-4H,1-2H2,(H,7,8)/t3-,4+,6+/m1/s1
