20
gdb 80623	2.41613	1.8266	1.385	1.3996	78.02	-0.2351	0.0693	0.3044	1007.2992	0.173564	-403.105577	-403.098063	-403.097119	-403.137122	31.034	
O	 0.1546705301	 1.3852743471	-0.1066050401	-0.43772
C	 0.0283382157	-0.0172035664	 0.0241898742	 0.068738
C	 0.5313763389	-0.6228338766	 1.3526852002	-0.060109
C	-0.6626606034	-0.3505078872	 2.3192605985	-0.247501
C	-1.3939139627	-1.3525518563	 1.3788118083	-0.068384
C	-0.0196140765	-2.0764361987	 1.2553068285	-0.235481
C	-1.422329241	-0.5640765708	 0.0769537398	 0.350597
C	-2.579017951	 0.1810145291	-0.4619252274	-0.326317
N	-2.1348791393	-1.0861925871	-1.0883149861	-0.38947
H	-0.3339811481	 1.7967705312	 0.6143720131	 0.278471
H	 0.5799250938	-0.4259806343	-0.8297604063	 0.087939
H	 1.5642018138	-0.4037463419	 1.6227812757	 0.068027
H	-0.4890564266	-0.7551053577	 3.3185632433	 0.103556
H	-1.0606278891	 0.6674027899	 2.4022806997	 0.077733
H	-2.3090220378	-1.8699303034	 1.6640869215	 0.068623
H	 0.1750031595	-2.6457842524	 0.3416611708	 0.099339
H	 0.2266860886	-2.6758171242	 2.1344975607	 0.099613
H	-3.5449853349	 0.1284332648	 0.0341744052	 0.114313
H	-2.377921458	 1.113947767	-0.981679748	 0.119141
H	-1.6129189922	-0.8765857522	-1.9370660315	 0.228893
125.0576	241.6601	251.9136	288.5755	292.8896	387.8481	460.5356	491.6775	562.7105	582.1447	738.9449	814.1089	848.0492	852.4151	875.8583	891.0862	921.8675	937.284	961.4925	978.8848	1017.882	1026.5441	1033.7316	1065.9801	1079.5277	1089.3784	1106.4705	1129.4362	1138.3755	1221.9395	1233.8483	1247.5366	1249.796	1262.7954	1273.5565	1289.4828	1307.4343	1328.8683	1420.4081	1433.8744	1490.0693	1510.5823	1522.8122	3036.5145	3049.8134	3056.1205	3103.6986	3109.8146	3116.3522	3120.5493	3126.8074	3191.6008	3480.9777	3808.0572
OC1C2CC(C2)C11CN1	O[C@H]1[C@H]2C[C@H](C2)[C@]21CN2	
InChI=1S/C7H11NO/c9-6-4-1-5(2-4)7(6)3-8-7/h4-6,8-9H,1-3H2	InChI=1S/C7H11NO/c9-6-4-1-5(2-4)7(6)3-8-7/h4-6,8-9H,1-3H2/t4-,5+,6-,7-/m0/s1
