15
gdb 35006	2.82058	1.33363	1.08828	5.0817	78.65	-0.238	0.004	0.2419	1109.5756	0.112406	-379.597989	-379.589945	-379.589001	-379.630611	30.347	
C	-0.0199282693	-1.224233726	 0.0760283357	-0.383581
C	-0.0006576745	-0.0214265611	 0.0348844704	 0.153985
C	 0.018970394	 1.395394352	-0.0324748605	 0.140846
C	-0.6481294925	 2.2685397792	-1.1128290932	-0.235126
N	 0.439675733	 3.2974936325	-0.9887688478	-0.316988
C	 1.1552076291	 2.4289803824	-0.0555152321	-0.067217
C	 0.3396790348	 2.2624829594	 1.1984930457	-0.237373
C	-0.5667082303	 3.2696838377	 1.6811826734	 0.320444
N	-1.3083185477	 4.0630644907	 2.078296382	-0.342452
H	-0.0404235123	-2.2852338109	 0.1161973415	 0.195334
H	-0.6440193613	 1.7586240939	-2.0788100122	 0.127425
H	-1.6491208425	 2.6499817371	-0.8936725984	 0.137771
H	 0.9449695511	 3.401465053	-1.8610638792	 0.237443
H	 2.2309843363	 2.300351766	-0.0605631731	 0.122238
H	 0.834741692	 1.6925024341	 1.9782548478	 0.147252
103.5438	132.8615	165.4573	191.7061	318.9994	381.0801	462.7738	485.8057	526.7324	584.3872	601.5377	625.2761	666.1547	757.5769	788.9459	830.8146	894.4695	953.5167	986.533	1010.0761	1031.4293	1043.5733	1090.4022	1147.3445	1195.8838	1252.5504	1266.9463	1349.0163	1359.7393	1447.1511	1503.5664	2233.4097	2356.6002	3061.1577	3119.3018	3171.9529	3192.9599	3501.2199	3548.1986
C#CC12CNC1C2C#N	C#C[C@]12CN[C@H]1[C@H]2C#N	
InChI=1S/C7H6N2/c1-2-7-4-9-6(7)5(7)3-8/h1,5-6,9H,4H2	InChI=1S/C7H6N2/c1-2-7-4-9-6(7)5(7)3-8/h1,5-6,9H,4H2/t5-,6+,7-/m1/s1
