17
gdb 47881	2.29971	1.66226	1.13698	5.0462	70.15	-0.2213	-0.045	0.1763	1078.6218	0.137967	-455.174282	-455.166015	-455.165071	-455.207494	30.655	
O	-0.0677975606	-0.055699757	 0.076272401	-0.290272
C	-0.0395785488	 1.1506545881	 0.0597556317	 0.290582
C	-1.3025017681	 2.0131460128	 0.0800860263	-0.256239
N	-1.6879972687	 2.445148292	-1.2655603042	-0.279382
C	-0.7842003269	 3.3678270825	-1.9408789304	-0.150683
C	 0.6412586712	 2.8641141285	-2.2347765955	-0.17836
N	 1.4898957328	 2.7460907306	-1.0513266031	-0.308597
C	 1.3080642248	 1.9033878637	 0.0035218853	 0.311687
O	 2.1137108202	 1.7648628752	 0.902115238	-0.351078
H	-2.1124163077	 1.4142424751	 0.5057047871	 0.130869
H	-1.1508225762	 2.9033315968	 0.7021261544	 0.124045
H	-1.8670010646	 1.6313697063	-1.8458863505	 0.230334
H	-1.2489639273	 3.6389702569	-2.8959345549	 0.113665
H	-0.7163441612	 4.2834014134	-1.3400230819	 0.117897
H	 0.5875443099	 1.9073274732	-2.7743474296	 0.121082
H	 1.1353763321	 3.575276102	-2.9029217472	 0.121083
H	 2.3903410791	 3.2038481999	-1.0593563465	 0.253366
63.5221	109.1275	194.6592	226.5179	313.7952	341.1354	363.116	399.607	491.4099	539.1321	576.8168	666.0377	717.9061	755.8316	811.7829	836.4156	931.7164	971.6653	993.0791	1045.764	1113.0556	1149.4007	1160.6967	1236.1299	1288.3752	1324.171	1344.1928	1366.9037	1390.5106	1404.1381	1452.0751	1460.003	1471.19	1491.5605	1504.2895	1782.1864	1811.177	3003.7217	3027.6663	3037.3336	3076.4414	3090.1897	3104.2693	3518.4323	3603.2028
O=C1CNCCNC1=O	O=C1CNCCNC1=O	
InChI=1S/C5H8N2O2/c8-4-3-6-1-2-7-5(4)9/h6H,1-3H2,(H,7,9)	InChI=1S/C5H8N2O2/c8-4-3-6-1-2-7-5(4)9/h6H,1-3H2,(H,7,9)
