17
gdb 113023	5.32277	0.85778	0.77892	2.6334	73.29	-0.2511	-0.0327	0.2185	1413.5054	0.137186	-455.176272	-455.167785	-455.166841	-455.210316	30.286	
O	 0.0421538409	 1.4290076294	 0.0161705895	-0.419507
C	 0.0700417744	 0.0255835638	-0.0745894458	-0.053446
C	-1.3433691697	-0.5619473594	-0.0006644772	 0.015214
C	-1.38836576	-2.1183137725	-0.0166935027	-0.233739
N	-2.1135173867	-2.4034413498	 1.2304042303	-0.083111
C	-2.4720694832	-3.6391084471	 1.7128746054	 0.153601
O	-3.0555344028	-3.8228095436	 2.755777899	-0.30701
C	-2.350307074	-1.1913423593	 1.8793033297	 0.090639
N	-1.9638916374	-0.1418686983	 1.2740989936	-0.285989
H	-0.5210299694	 1.6351870204	 0.7733706198	 0.298022
H	 0.5345864319	-0.2294060021	-1.034031132	 0.108815
H	 0.6822589733	-0.4284887003	 0.7242538156	 0.086386
H	-1.9307725094	-0.133692792	-0.8203772537	 0.106205
H	-1.9215520407	-2.5184378993	-0.8823946825	 0.13418
H	-0.3850366806	-2.5592912508	 0.0092725895	 0.127825
H	-2.1649552922	-4.4543746106	 1.0310204666	 0.089858
H	-2.8402181542	-1.2181494985	 2.8446530749	 0.172057
40.9669	118.564	154.4814	193.6094	240.4992	258.8035	341.5147	400.2231	472.8154	560.1242	601.037	742.9134	800.5968	836.8514	912.7915	940.9384	974.8942	1029.9613	1037.5579	1045.9546	1098.4677	1131.1877	1208.3812	1225.4078	1237.5884	1285.8402	1304.1008	1322.018	1336.6003	1386.3064	1411.6961	1440.2063	1442.9242	1506.2339	1518.2409	1696.0283	1802.7855	2953.3373	2958.1533	3033.4913	3045.9768	3064.9503	3094.9361	3233.5969	3774.1123
OCC1CN(C=O)C=N1	OC[C@H]1CN(C=O)C=N1	
InChI=1S/C5H8N2O2/c8-2-5-1-7(4-9)3-6-5/h3-5,8H,1-2H2	InChI=1S/C5H8N2O2/c8-2-5-1-7(4-9)3-6-5/h3-5,8H,1-2H2/t5-/m1/s1
