18
gdb 10922	3.18602	1.89116	1.49496	2.6872	67.61	-0.2338	0.068	0.3018	903.1592	0.1525	-384.904736	-384.89645	-384.895505	-384.936815	31.72	
C	-0.0992719686	 1.5991975242	-0.0624249821	-0.403689
C	 0.0305286621	 0.0810909177	-0.063872845	-0.016653
C	 0.692092203	-0.6175414436	-1.2580637428	-0.159451
C	 2.1521598151	-0.2259309085	-1.3603280669	-0.312062
C	 1.762800908	-1.2289797161	-0.3319873512	 0.411589
O	 2.3769803931	-2.4670390243	-0.3309880432	-0.459978
C	 1.125696755	-0.5662918437	 0.8797984076	 0.011253
O	 1.9973910476	 0.2787071389	 1.5975580511	-0.424302
H	 0.8603331782	 2.0911978204	-0.237922297	 0.12849
H	-0.7970855308	 1.9290455174	-0.8392660192	 0.114858
H	-0.4830929403	 1.9600229232	 0.899215375	 0.100992
H	-0.9453205369	-0.368021151	 0.1505868961	 0.065076
H	 0.1699866557	-1.0713019939	-2.0917470702	 0.085389
H	 2.6698086745	-0.668753352	-2.2050583664	 0.118083
H	 2.5044430459	 0.7621085127	-1.081108639	 0.120545
H	 1.7672002265	-3.1074293625	 0.0519746336	 0.28086
H	 0.669101607	-1.3161317412	 1.5439792925	 0.055559
H	 1.515465165	 0.6513192825	 2.3429093474	 0.283441
117.9733	173.0491	214.9401	244.5489	264.858	266.6395	339.798	384.9307	464.1301	509.903	585.1518	660.7781	713.4172	796.6583	848.5762	878.5383	942.7373	962.2636	994.1761	1001.73	1050.1303	1085.21	1101.3189	1140.507	1143.3701	1174.7302	1204.4112	1241.2838	1280.5884	1295.4363	1332.5058	1369.3175	1402.3884	1420.6954	1440.9936	1492.0286	1495.908	1509.3115	2977.7592	3029.6282	3042.3952	3088.5945	3120.5866	3128.2893	3185.5411	3214.1588	3793.9226	3814.1161
CC1C2CC2(O)C1O	C[C@H]1[C@H]2C[C@@]2(O)[C@H]1O	
InChI=1S/C6H10O2/c1-3-4-2-6(4,8)5(3)7/h3-5,7-8H,2H2,1H3	InChI=1S/C6H10O2/c1-3-4-2-6(4,8)5(3)7/h3-5,7-8H,2H2,1H3/t3-,4+,5-,6-/m0/s1
