24
gdb 113818	3.82936	0.84081	0.7478	1.2123	91.8	-0.2208	0.0887	0.3094	1647.3399	0.216219	-368.374259	-368.364029	-368.363085	-368.410022	38.065	
C	 0.4973179024	-2.4137365779	-0.1339247541	-0.381642
C	-0.0527071568	-1.2493990379	 0.6987633856	-0.196177
C	-1.5681800225	-1.2494049462	 0.7289443183	 0.030063
C	-2.3251067155	-1.9348977225	 1.8185371787	-0.256938
N	-2.358447434	-0.4813962679	 1.6935590326	-0.092895
C	-1.7077481855	 0.3047760995	 2.7033724937	 0.059138
C	-1.6293472763	 1.7935329888	 2.4740123611	-0.312052
C	-2.5600965813	 1.2428346481	 3.5304432921	-0.015537
C	-4.0596039068	 1.3159370675	 3.3505707783	-0.399983
H	 1.5904077854	-2.3885589476	-0.175264709	 0.112996
H	 0.1969141259	-3.3777685782	 0.2896150908	 0.119106
H	 0.1242666452	-2.3740234584	-1.1632262689	 0.117284
H	 0.3490068042	-1.3056033808	 1.7155253622	 0.097884
H	 0.2994943478	-0.2986180965	 0.2782223979	 0.105149
H	-2.017459376	-1.2508388026	-0.2651545653	 0.083457
H	-3.257836737	-2.4573204245	 1.6203959805	 0.109699
H	-1.7353837715	-2.3578234983	 2.632371679	 0.102646
H	-0.8663390041	-0.1546769421	 3.2250810247	 0.069318
H	-0.731798981	 2.3220875629	 2.7761799374	 0.104624
H	-2.0867636082	 2.1598369284	 1.5608787284	 0.115102
H	-2.22195861	 1.3672861424	 4.5563295418	 0.078619
H	-4.3343960989	 1.0956536266	 2.3169221262	 0.132514
H	-4.5712161616	 0.5902276679	 3.9929439618	 0.10928
H	-4.4362676538	 2.3122225195	 3.6074383663	 0.108346
43.6986	75.0537	109.5669	177.8837	193.024	211.1122	233.8478	291.0774	338.4721	396.5623	450.1807	468.5678	608.6906	725.9108	773.7674	785.0414	816.3638	849.8809	891.6678	913.3484	947.6753	962.9389	988.269	1026.3334	1054.3683	1064.0509	1077.3969	1099.8838	1115.6898	1120.5892	1148.6159	1153.7259	1188.6999	1195.4844	1203.8947	1231.1903	1289.9178	1332.4005	1345.7419	1382.7414	1407.0753	1410.588	1419.5446	1428.8926	1482.7603	1484.5324	1496.2025	1498.0908	1504.9923	1507.0853	1510.6852	3026.1602	3030.7306	3032.7423	3062.9031	3075.6293	3080.825	3085.3683	3090.8225	3104.9134	3106.8915	3122.5953	3131.0418	3139.9073	3166.6055	3218.241
CCC1CN1C1CC1C	CC[C@H]1CN1[C@H]1C[C@H]1C	
InChI=1S/C8H15N/c1-3-7-5-9(7)8-4-6(8)2/h6-8H,3-5H2,1-2H3	InChI=1S/C8H15N/c1-3-7-5-9(7)8-4-6(8)2/h6-8H,3-5H2,1-2H3/t6-,7+,8+,9?/m1/s1
