21
gdb 62050	3.908	0.6611	0.59026	4.8388	83.85	-0.2606	0.0249	0.2855	1870.5629	0.182696	-383.264563	-383.254569	-383.253625	-383.300393	36.332	
N	 0.0676103456	 1.5477905792	 0.2296630767	-0.502535
C	 0.0233544654	 0.1021770928	-0.0097995301	-0.136608
C	 0.6735806458	-0.4108111471	-1.3191214389	-0.17592
C	-0.0025472838	 0.1347574666	-2.5827368543	-0.225958
C	 0.6168224443	-0.4055056421	-3.8547741443	 0.030117
C	 0.1717590342	-1.7332564126	-4.4163089227	-0.254696
C	-0.1766839695	-0.4518474335	-5.1347349258	-0.27747
C	 0.6371152601	-0.584288317	 1.1403475275	 0.297429
N	 1.1458143301	-1.1398273282	 2.0162982867	-0.32012
H	 1.0272142937	 1.8794973429	 0.185199651	 0.238509
H	-0.4499063198	 2.0289234407	-0.4983104459	 0.240858
H	-1.0369575393	-0.184734917	-0.0179558579	 0.131371
H	 1.7366969722	-0.1380473234	-1.3113685809	 0.107905
H	 0.6335426817	-1.5062260568	-1.3272183128	 0.12253
H	-1.0711825953	-0.1217788224	-2.5649099036	 0.095437
H	 0.051977809	 1.2315030418	-2.5906951982	 0.092096
H	 1.6750222359	-0.1790419646	-3.9633661807	 0.084826
H	 0.9154032152	-2.387418033	-4.8573432008	 0.115799
H	-0.6289528041	-2.256711872	-3.9032199489	 0.110853
H	-1.2092113934	-0.119096401	-5.1032933868	 0.110913
H	 0.331370362	-0.2279988634	-6.0660947693	 0.114662
52.699	74.2192	100.5795	141.9942	192.3905	220.5835	265.116	304.0534	374.6601	401.386	424.892	570.9126	588.7535	761.2079	773.83	823.4818	829.7008	845.109	857.48	922.2761	958.6895	986.4607	1036.221	1059.479	1066.7511	1080.5063	1114.8687	1139.779	1142.2389	1198.2663	1208.6964	1230.2274	1250.6504	1276.5614	1319.07	1339.3571	1376.0187	1411.6749	1420.0468	1469.5158	1478.6974	1495.7754	1508.5616	1655.9425	2361.8418	3005.048	3021.2972	3032.2332	3039.3519	3077.7212	3128.7867	3131.7402	3135.1695	3207.4482	3222.4338	3495.9427	3585.9422
NC(CCC1CC1)C#N	N[C@@H](CCC1CC1)C#N	
InChI=1S/C7H12N2/c8-5-7(9)4-3-6-1-2-6/h6-7H,1-4,9H2	InChI=1S/C7H12N2/c8-5-7(9)4-3-6-1-2-6/h6-7H,1-4,9H2/t7-/m0/s1
