21
gdb 76553	2.24067	1.41541	1.22588	1.6477	78.91	-0.2236	0.0503	0.2739	1161.0741	0.181155	-424.18883	-424.179329	-424.178385	-424.222988	36.202	
C	-0.6673423086	 1.2009344942	 0.0324562334	-0.412902
C	 0.0850479453	-0.119783207	-0.0632316982	-0.018111
C	 1.4773593599	-0.1139457346	-0.7657681061	-0.223242
C	 2.0301692561	-1.0609918042	 0.3359937281	-0.304746
C	 0.7819213643	-0.7412479488	 1.1678461926	 0.268497
C	 0.7927612017	-0.2452528115	 2.5966857043	 0.030424
O	-0.0570077277	 0.7722515987	 3.0322287071	-0.432044
C	 0.175587173	-1.583464893	 2.2517328938	-0.054791
O	-1.2344006246	-1.6090418446	 2.2575330229	-0.431802
H	-0.082119273	 1.9584614079	 0.5602404285	 0.128679
H	-0.8889105009	 1.5746782131	-0.9741323854	 0.105473
H	-1.6212827475	 1.0875353128	 0.5571558756	 0.109913
H	-0.5634373133	-0.8747356834	-0.5236000496	 0.078616
H	 1.5144549658	-0.4715455093	-1.7973285559	 0.094617
H	 1.9409589537	 0.8759820956	-0.7224355	 0.102061
H	 2.0673208049	-2.1080083666	 0.0168562881	 0.099071
H	 2.9962052047	-0.7976510799	 0.7762838151	 0.098329
H	 1.7465999356	-0.2145459133	 3.1175847981	 0.098227
H	-0.9550679053	 0.4596752799	 2.8549121147	 0.283133
H	 0.6567913016	-2.5186203423	 2.5369231808	 0.085441
H	-1.5192700557	-1.8774537737	 3.138641962	 0.295157
57.4051	116.5984	168.2045	230.4194	238.5945	253.2511	280.5967	309.1331	361.6319	415.2893	507.092	547.2268	627.7139	653.8642	688.6386	780.0277	827.1372	844.1444	889.2656	939.02	953.2194	976.6806	1045.9643	1077.1452	1089.09	1115.3549	1151.9464	1153.5162	1163.455	1177.2704	1218.9168	1253.4363	1258.9715	1269.2035	1281.8606	1303.8435	1324.1933	1373.5678	1406.3206	1411.4245	1470.089	1480.5693	1487.1525	1496.6202	1500.2315	3027.7109	3031.6417	3040.278	3056.2256	3086.8635	3090.2827	3100.7958	3112.2561	3119.913	3139.6535	3743.7824	3793.1121
CC1CCC11C(O)C1O	C[C@H]1CC[C@]21[C@@H](O)[C@H]2O	
InChI=1S/C7H12O2/c1-4-2-3-7(4)5(8)6(7)9/h4-6,8-9H,2-3H2,1H3	InChI=1S/C7H12O2/c1-4-2-3-7(4)5(8)6(7)9/h4-6,8-9H,2-3H2,1H3/t4-,5-,6+,7-/m0/s1
