16
gdb 57038	2.51619	1.31162	0.91166	5.2178	69.96	-0.258	-0.0389	0.2191	1225.7927	0.122565	-437.893975	-437.884984	-437.884039	-437.928704	31.847	
O	 0.0106598508	 1.4722143515	-0.0360504444	-0.408085
C	 0.0354178639	 0.0563861894	-0.021195919	-0.024639
C	 0.6452551942	-0.4779593154	-1.2550366913	 0.273263
N	 1.1639643598	-0.8480671754	-2.2186446552	-0.314346
C	 0.7370539601	-0.5056275871	 1.2219229179	-0.127486
C	 0.183084759	-0.0876096888	 2.6185393611	-0.258462
C	 0.1829015644	-1.5776472938	 3.0796219244	-0.336764
C	 0.4293379053	-1.9712748987	 1.6166220541	 0.388809
O	 0.303135103	-2.9764866018	 0.9839720607	-0.275714
H	 0.9140446915	 1.7914104707	-0.1469836419	 0.296162
H	-1.0173168672	-0.2474092596	-0.004669053	 0.143895
H	 1.8195255288	-0.3501469299	 1.1425427344	 0.115024
H	 0.8093613142	 0.5957643505	 3.1911614612	 0.119298
H	-0.8221967399	 0.3331985318	 2.5490660528	 0.129006
H	 1.0362689074	-1.8382368406	 3.7141433126	 0.141142
H	-0.7239409953	-1.9799589627	 3.5370475655	 0.138897
47.6323	76.9842	110.1538	178.8367	216.8228	291.3294	316.5522	377.6107	433.9385	519.6641	550.2715	610.4424	688.1597	742.6705	788.7472	904.1669	920.3638	950.355	999.5784	1052.7659	1076.6644	1086.3712	1128.1643	1190.7841	1205.0124	1231.1424	1258.1118	1270.6609	1293.7604	1359.1896	1418.999	1442.1987	1492.3336	1893.3832	2358.9556	3044.1081	3061.3113	3063.24	3085.9583	3117.9344	3145.4681	3798.9109
OC(C#N)C1CCC1=O	O[C@@H](C#N)[C@H]1CCC1=O	
InChI=1S/C6H7NO2/c7-3-6(9)4-1-2-5(4)8/h4,6,9H,1-2H2	InChI=1S/C6H7NO2/c7-3-6(9)4-1-2-5(4)8/h4,6,9H,1-2H2/t4-,6-/m0/s1
