17
gdb 131777	3.08233	0.99092	0.79392	3.1629	71.18	-0.2109	0.0202	0.2311	1394.6836	0.136332	-455.149609	-455.140374	-455.13943	-455.184753	32.776	
O	 0.0560390067	 1.4575658972	-0.2724285077	-0.408598
C	 0.0582067918	 0.049555287	-0.1325813662	-0.051352
C	-1.3571637195	-0.5267824945	 0.0735404689	-0.356373
C	-1.3898561169	-2.0187186959	 0.1258130896	 0.232458
C	-1.4134940321	-2.9082302897	 1.1877107742	 0.169316
O	-1.4510163299	-2.6597103594	 2.5278060248	-0.443359
C	-1.3887779136	-4.1954646333	 0.6126561476	-0.065074
N	-1.3497842477	-4.1275687596	-0.7163123932	-0.223575
N	-1.3464424099	-2.8143615268	-0.9865571602	-0.248685
H	-0.1752750723	 1.8444776168	 0.5778531867	 0.284193
H	 0.4808002772	-0.3442721802	-1.0626802409	 0.11761
H	 0.716059701	-0.2838068873	 0.6840397278	 0.100691
H	-1.7732275429	-0.122258888	 1.007386724	 0.088271
H	-2.0030705798	-0.1480743565	-0.727893602	 0.124439
H	-1.5661446262	-1.7154126477	 2.6718938838	 0.292904
H	-1.4001329383	-5.149308991	 1.1172365557	 0.115992
H	-1.3497864376	-2.5148447012	-1.9468107528	 0.271143
35.908	91.106	104.8739	175.1084	249.6178	284.5303	290.4133	351.1792	378.2522	445.878	471.185	666.6767	690.947	704.2798	773.6881	783.5045	863.0041	947.6414	1003.2426	1029.439	1076.8054	1114.4646	1138.8163	1156.9385	1238.1683	1273.7677	1284.9932	1306.8103	1335.8394	1392.7099	1412.4196	1427.0097	1451.2275	1484.0451	1508.3847	1552.7246	1639.574	2994.9659	3004.3935	3053.9315	3083.1601	3257.4428	3669.8412	3817.6702	3826.2162
OCCC1=C(O)C=NN1	OCCc1c(O)cn[nH]1	
InChI=1S/C5H8N2O2/c8-2-1-4-5(9)3-6-7-4/h3,8-9H,1-2H2,(H,6,7)	InChI=1S/C5H8N2O2/c8-2-1-4-5(9)3-6-7-4/h3,8-9H,1-2H2,(H,6,7)
