20
gdb 32897	4.21271	0.85281	0.71904	0.9889	84.44	-0.1965	0.0495	0.246	1603.1973	0.170521	-403.169177	-403.159412	-403.158468	-403.205447	34.146	
C	-0.3522531338	 1.3515295295	 0.4001930657	-0.220244
O	-0.3670562864	-0.0435870434	 0.5645347096	-0.230004
C	 0.928830313	-0.6059649479	 0.5824148041	-0.168057
C	 0.8254978181	-2.0859402324	 0.7769463682	 0.231577
C	-0.3326550506	-2.7945471112	 1.0006896167	-0.173463
N	-0.0093140261	-4.1215013832	 1.1537570534	 0.018512
C	-0.9600949205	-5.201448258	 1.303269465	-0.334241
C	 1.3483965341	-4.2667445306	 1.0200549107	-0.082598
C	 1.8958936506	-3.0262909907	 0.7883329451	-0.283451
H	 0.1177657765	 1.6477406206	-0.5517689813	 0.101492
H	-1.3901465418	 1.694017174	 0.4015887362	 0.12325
H	 0.1891573777	 1.8555036862	 1.2173883631	 0.101435
H	 1.4561543056	-0.3731739115	-0.3608002994	 0.090234
H	 1.5273562666	-0.144536227	 1.3895048676	 0.090609
H	-1.3534576935	-2.4563577422	 1.0606034724	 0.124042
H	-1.3276622632	-5.5617289168	 0.3348231488	 0.135708
H	-0.4882540797	-6.0353919026	 1.8284700297	 0.137165
H	-1.8143575147	-4.8626644471	 1.8948799046	 0.139847
H	 1.8069227858	-5.239939946	 1.1007574979	 0.111077
H	 2.9467364023	-2.8130078399	 0.6597056519	 0.087111
28.7223	73.321	83.5663	120.9605	162.0245	232.3805	269.2789	316.8943	362.5754	435.1821	613.2961	631.8286	652.7609	682.9291	764.9371	774.3682	796.1008	991.8149	999.7526	1019.5869	1047.873	1077.5099	1106.828	1148.435	1159.1992	1185.2654	1192.702	1219.8702	1250.4546	1259.1793	1349.691	1402.4898	1417.912	1440.6922	1455.2589	1482.1557	1484.8389	1488.5381	1502.911	1514.9119	1527.7402	1542.9552	1611.1137	2926.7113	2939.4921	2965.0987	3005.5699	3025.8624	3094.6826	3110.2948	3127.8669	3235.7796	3259.9058	3278.0236
COCC1=CN(C)C=C1	COCc1cn(C)cc1	
InChI=1S/C7H11NO/c1-8-4-3-7(5-8)6-9-2/h3-5H,6H2,1-2H3	InChI=1S/C7H11NO/c1-8-4-3-7(5-8)6-9-2/h3-5H,6H2,1-2H3
