23
gdb 100751	2.88249	0.88911	0.80375	1.54	78.17	-0.2603	0.0595	0.3197	1549.1342	0.202631	-462.558836	-462.54736	-462.546416	-462.595524	41.795	
C	-0.1323460849	 1.5531322782	-0.1229173794	-0.416655
C	 0.0356144827	 0.0290386097	-0.0279126895	 0.031411
C	 0.7354650071	-0.5270249285	-1.2750616846	-0.397042
C	 0.7888018649	-0.4146514437	 1.2438430135	 0.111268
O	 2.1242255432	 0.0869610419	 1.3027195058	-0.442238
C	 0.0507914556	-0.0820039292	 2.5481644532	 0.111455
O	-1.2773724089	-0.5652622585	 2.4525925492	-0.448277
C	 0.7375889183	-0.6981460933	 3.7638419057	-0.104368
O	-0.0936948668	-0.3878238111	 4.8825655898	-0.437124
H	 0.8358186693	 2.0675332794	-0.1761084565	 0.100715
H	-0.6768334897	 1.8183057019	-1.0343176254	 0.117653
H	-0.6932009659	 1.9594119261	 0.7237275455	 0.125579
H	-0.9628531619	-0.4150074032	 0.0460597106	 0.102597
H	 1.7635413893	-0.1571574511	-1.3399742863	 0.121064
H	 0.7773961426	-1.6212439913	-1.2512927124	 0.108884
H	 0.206752175	-0.2314322736	-2.1868778513	 0.104947
H	 0.9058064137	-1.5046483731	 1.1963575602	 0.084861
H	 2.0758355888	 1.0491332711	 1.3182108463	 0.28171
H	 0.0492472598	 1.0141701747	 2.690415027	 0.060139
H	-1.6125378167	-0.5737157077	 3.3584673881	 0.291278
H	 0.8142634823	-1.78642016	 3.6217250112	 0.092975
H	 1.7478088772	-0.287740829	 3.8792188877	 0.105152
H	 0.1864870151	-0.92100172	 5.6312181916	 0.294016
46.205	75.4144	122.8765	142.3216	218.5677	235.2145	247.4995	262.9245	270.9878	288.1956	311.5671	327.8995	412.5526	430.5553	482.1066	486.9852	590.06	619.8688	805.936	897.2911	924.3283	936.6436	965.6058	1022.7293	1042.4968	1073.4447	1077.3794	1108.2679	1125.292	1156.124	1201.5012	1210.4383	1240.492	1254.0678	1298.0927	1321.7574	1364.874	1370.9999	1376.2822	1399.7842	1411.2016	1421.8056	1434.514	1456.1072	1488.5974	1493.9371	1508.1408	1511.6016	1512.2871	2935.919	2994.2171	3020.5139	3031.2071	3035.3531	3057.9884	3059.1982	3087.9785	3098.293	3110.1753	3110.7897	3770.6083	3803.8897	3844.6436
CC(C)C(O)C(O)CO	CC(C)[C@@H](O)[C@@H](O)CO	
InChI=1S/C6H14O3/c1-4(2)6(9)5(8)3-7/h4-9H,3H2,1-2H3	InChI=1S/C6H14O3/c1-4(2)6(9)5(8)3-7/h4-9H,3H2,1-2H3/t5-,6+/m0/s1
