19
gdb 97179	2.56429	1.34375	0.9168	1.5191	80.75	-0.2465	-0.0124	0.2342	1274.984	0.160941	-419.272042	-419.263378	-419.262434	-419.305745	32.22	
C	 0.0375310121	 1.4386891167	-0.1022185952	-0.347634
N	-0.0031295091	-0.0139748163	-0.0704216676	-0.283069
C	 0.4922169541	-0.6280278655	 0.9271682431	 0.397073
C	 0.4945571944	-2.1375030011	 0.9742380909	-0.274321
C	 0.3283563991	-2.6635449383	 2.4034187278	-0.231799
C	 1.4319488733	-2.0906154322	 3.2980504201	-0.306678
C	 1.5456616731	-0.5786543852	 3.2095744619	 0.399415
O	 2.0147122508	 0.1141534602	 4.0857990907	-0.350098
N	 1.079363546	-0.002066774	 2.0335158084	-0.375452
H	 1.0657607932	 1.833150906	-0.0965415682	 0.117523
H	-0.4400833394	 1.7900965618	-1.0196601486	 0.130938
H	-0.4994579443	 1.8957858777	 0.7435346917	 0.117605
H	-0.2900999527	-2.4879895861	 0.3025314304	 0.133106
H	 1.4514605817	-2.4940211151	 0.5677775804	 0.121268
H	-0.6548514102	-2.3746479642	 2.7935621397	 0.116155
H	 0.3647423143	-3.7566692523	 2.412199169	 0.110744
H	 1.2960310013	-2.3392728442	 4.3528304482	 0.136152
H	 2.406716947	-2.5016875376	 3.0020884819	 0.134493
H	 1.1522231351	 1.0062732995	 2.0301770352	 0.254578
75.3526	107.6246	139.325	203.6793	218.7524	296.4896	399.1629	439.9318	477.0856	532.1422	567.153	628.5075	657.3823	712.3318	757.4846	867.9986	908.9447	922.1635	977.973	1027.7896	1061.6687	1076.1189	1103.092	1154.6631	1169.7194	1195.9085	1272.4216	1282.4679	1340.1103	1356.7747	1370.8091	1375.722	1422.4786	1437.7774	1460.9923	1475.9799	1497.3631	1500.6815	1509.7102	1745.6758	1806.4959	2969.7944	3017.2998	3018.4903	3028.8177	3042.4072	3089.6378	3104.9047	3111.7636	3125.3643	3602.556
CN=C1CCCC(=O)N1	CN=C1CCCC(=O)N1	
InChI=1S/C6H10N2O/c1-7-5-3-2-4-6(9)8-5/h2-4H2,1H3,(H,7,8,9)	InChI=1S/C6H10N2O/c1-7-5-3-2-4-6(9)8-5/h2-4H2,1H3,(H,7,8,9)
