25
gdb 118230	2.45835	0.75145	0.67393	1.7225	86.64	-0.2566	0.0708	0.3274	1860.9125	0.225662	-426.622195	-426.610311	-426.609366	-426.660157	42.237	
C	-0.5148537651	 1.2436734063	-0.7393951954	-0.223245
O	-0.6573349185	-0.1558583362	-0.7071242822	-0.231118
C	-0.8801228742	-0.6592718312	 0.5902828833	-0.073259
C	-1.0101051297	-2.1835457347	 0.5219489742	 0.078919
O	-1.0643371557	-2.712380981	 1.8444516148	-0.43043
C	-2.1996630729	-2.6264793903	-0.3330771443	-0.191071
C	-2.3553108625	-4.1493050129	-0.4945388213	 0.048887
C	-3.7227005964	-4.4857669024	-1.1044073814	-0.392643
C	-1.2259138855	-4.7625766825	-1.3347427442	-0.385766
H	-0.3401616786	 1.532182088	-1.7787929786	 0.127061
H	-1.4203707705	 1.7550257506	-0.3754925417	 0.103337
H	 0.3368932349	 1.5813602842	-0.128107957	 0.105542
H	-0.0477800155	-0.401064425	 1.2642404032	 0.094183
H	-1.801128244	-0.2248742754	 1.0238267555	 0.068866
H	-0.0787148137	-2.5750800657	 0.0991430405	 0.100215
H	-1.9204129758	-2.4747998347	 2.2187163967	 0.277455
H	-3.113542096	-2.2179482294	 0.1275318818	 0.070177
H	-2.1150529828	-2.1468627179	-1.3154831006	 0.113654
H	-2.3086829997	-4.5913360024	 0.5090380601	 0.079234
H	-3.8238432645	-4.0507576622	-2.106282243	 0.110708
H	-3.8589338706	-5.5682923281	-1.1987605995	 0.108351
H	-4.5427413345	-4.0970005362	-0.490835555	 0.103963
H	-0.2413478487	-4.5931702093	-0.8892218694	 0.11794
H	-1.3583963656	-5.8451197343	-1.433672277	 0.108481
H	-1.2145836537	-4.3355443876	-2.3449767094	 0.110558
37.2152	76.1834	82.5353	111.7326	171.7955	193.081	216.605	235.8827	237.3096	297.2376	310.5199	348.5076	394.1117	407.1861	446.5623	488.2663	552.8416	818.3154	843.7016	908.7113	930.232	961.821	969.1424	998.8709	1023.6169	1074.2869	1100.8682	1135.4045	1164.8367	1172.9391	1186.9425	1192.6055	1222.7398	1238.0368	1243.6491	1302.4462	1326.1127	1355.6956	1378.5867	1392.6049	1400.3106	1411.986	1421.3555	1423.235	1478.226	1481.2112	1485.749	1487.6713	1495.2798	1503.0504	1504.6109	1510.3959	1525.635	2926.0532	2970.1778	2981.6127	2992.392	3014.3353	3021.085	3023.2478	3028.4721	3060.3471	3071.4457	3085.2933	3092.574	3096.3512	3105.4499	3113.448	3793.2996
COCC(O)CC(C)C	COC[C@@H](O)CC(C)C	
InChI=1S/C7H16O2/c1-6(2)4-7(8)5-9-3/h6-8H,4-5H2,1-3H3	InChI=1S/C7H16O2/c1-6(2)4-7(8)5-9-3/h6-8H,4-5H2,1-3H3/t7-/m0/s1
