17
gdb 17547	4.56098	1.74508	1.6141	2.0196	66.7	-0.2337	0.0771	0.3108	840.4561	0.143778	-363.820129	-363.813598	-363.812654	-363.850679	26.064	
C	-0.6370906957	 1.2612915798	 0.0073448497	-0.252114
O	 0.7878892657	 1.1169355075	-0.0086206321	-0.283875
C	-0.0042172566	-0.0642160733	-0.000243076	 0.433331
C	 0.0565461754	-0.9853668721	 1.2177908018	-0.315377
C	-0.4422004052	-2.3116327235	 0.6746556964	-0.012782
C	-1.6983071944	-2.3020852559	-0.1186819018	-0.245897
N	-0.3997724617	-2.3156456245	-0.8095009638	-0.099531
C	 0.0467566176	-0.9792620517	-1.2296468754	-0.243452
H	-1.054773227	 1.6589562543	 0.9321755357	 0.11339
H	-1.0755699898	 1.6589399508	-0.9078332186	 0.11413
H	 1.0973400577	-1.0755246436	 1.5493832781	 0.122687
H	-0.5300146784	-0.6115868638	 2.0617839737	 0.112193
H	-0.1203198331	-3.2265544198	 1.162914355	 0.094438
H	-2.2773324637	-3.2142143398	-0.2287966256	 0.117763
H	-2.2897092004	-1.3883996478	-0.1355375291	 0.111825
H	-0.5586646257	-0.6115713753	-2.0636266987	 0.111414
H	 1.0843793853	-1.0553747611	-1.5747933092	 0.121858
100.6204	269.9022	335.306	366.9718	392.6199	399.3412	532.6629	647.61	760.5572	781.1	821.2228	868.1534	903.2954	918.4358	936.5079	946.0169	1002.2032	1034.5629	1088.9247	1112.0654	1116.7518	1130.1228	1161.6583	1170.8925	1192.6631	1225.2419	1232.6095	1273.2221	1300.2325	1322.2843	1386.6467	1426.8651	1484.0508	1493.141	1508.8169	1530.3831	3039.4176	3045.4284	3072.6108	3087.994	3091.612	3100.902	3151.9356	3159.3768	3188.3573
C1OC11CC2CN2C1	C1O[C@]21C[C@H]1CN1C2	
InChI=1S/C6H9NO/c1-5-2-7(5)3-6(1)4-8-6/h5H,1-4H2	InChI=1S/C6H9NO/c1-5-2-7(5)3-6(1)4-8-6/h5H,1-4H2/t5-,6+,7?/m0/s1
