19
gdb 35569	2.77218	1.50766	1.27756	1.7673	80.	-0.2494	0.0226	0.272	1060.9278	0.160345	-385.856023	-385.848192	-385.847248	-385.888362	30.966	
C	 0.0789772172	-1.1903432444	 0.4073762406	-0.454383
C	 0.0715064973	 0.0006883195	 0.2410681429	 0.346788
C	 0.0677628117	 1.4357735721	 0.0145956305	-0.054866
O	-0.3093611787	 2.2160823475	 1.1759148328	-0.310319
C	 0.845457813	 3.0850757249	 1.0324001307	 0.137386
C	 1.7987617404	 2.98972755	 2.2182459019	-0.215483
C	 2.5036249351	 1.6329816384	 2.0239860624	-0.214276
C	 2.6648419629	 1.5096021591	 0.4925240134	-0.222508
C	 1.4245376546	 2.1936004803	-0.1004759127	-0.092
H	 0.0760880852	-2.2416267492	 0.5591742714	 0.201685
H	-0.6012312727	 1.6638076637	-0.8273106587	 0.10066
H	 0.5378926151	 4.1057840988	 0.7812775268	 0.070237
H	 2.5204873218	 3.8146756536	 2.1588251177	 0.09503
H	 1.2688284356	 3.0775431097	 3.1710033022	 0.110451
H	 3.4577978736	 1.5685213129	 2.5534888587	 0.093648
H	 1.8640159209	 0.8276005486	 2.3966541194	 0.122843
H	 3.5579533243	 2.0525762483	 0.1619602741	 0.096079
H	 2.7691784285	 0.4732220075	 0.1597730822	 0.111449
H	 1.5976690541	 2.6437231987	-1.0780696864	 0.077575
81.5079	137.0504	221.6086	227.2882	339.5558	367.5666	514.8893	529.9638	581.0218	620.6009	641.5611	669.1186	768.2572	828.6202	855.2097	866.6906	890.3975	906.6829	941.706	968.0573	986.8689	1024.6045	1053.4819	1084.2688	1107.211	1137.3841	1189.0949	1200.839	1250.1287	1269.0082	1285.8209	1314.8451	1324.4382	1335.1755	1345.8865	1361.0773	1386.0862	1469.117	1483.542	1502.5555	2230.4114	2996.619	3027.8186	3038.9453	3051.0944	3060.9168	3093.5596	3094.5533	3107.7	3111.0285	3501.7057
C#CC1OC2CCCC12	C#C[C@H]1O[C@H]2CCC[C@@H]12	
InChI=1S/C8H10O/c1-2-7-6-4-3-5-8(6)9-7/h1,6-8H,3-5H2	InChI=1S/C8H10O/c1-2-7-6-4-3-5-8(6)9-7/h1,6-8H,3-5H2/t6-,7+,8-/m0/s1
