23
gdb 63980	2.83464	1.41356	1.2517	1.4195	84.52	-0.2475	0.0795	0.3271	1142.791	0.207009	-388.295973	-388.287391	-388.286447	-388.328848	34.453	
C	 0.2814447389	 1.4751342327	-0.0912751275	-0.459609
C	 0.0350562899	-0.0303666392	-0.0231087469	 0.360543
C	-1.4546748042	-0.3442055657	-0.1694610254	-0.441112
C	 0.9261277076	-0.8776284382	-0.9893606837	-0.280694
C	 1.494055795	-1.6866343267	 0.2065959826	-0.020419
C	 2.9484249655	-1.3878610372	 0.579008715	-0.094257
O	 2.9300880205	-0.1069610576	 1.202072757	-0.248815
C	 1.7569135287	-0.0830761797	 2.0106636332	-0.109434
C	 0.6711274524	-0.7930367228	 1.1978360006	-0.077095
H	 1.3457680677	 1.7096348856	-0.0003860118	 0.132395
H	-0.0682883109	 1.8728485934	-1.0512031289	 0.107426
H	-0.2571430718	 2.008993969	 0.7008997121	 0.1061
H	-1.8411225883	 0.0253032131	-1.1265033943	 0.110026
H	-1.6420636266	-1.4230433291	-0.1293646075	 0.107995
H	-2.03832711	 0.1251941058	 0.6314336078	 0.109021
H	 0.3683558491	-1.4661356842	-1.7230125849	 0.091109
H	 1.6838699021	-0.293814302	-1.5208155456	 0.096318
H	 1.2743400983	-2.7552750361	 0.1977311909	 0.067592
H	 3.3326633464	-2.1489021261	 1.2787702071	 0.083375
H	 3.6247268129	-1.3313067202	-0.2791018849	 0.105669
H	 1.9316926409	-0.6255054656	 2.9548499861	 0.084318
H	 1.5401473947	 0.9609236836	 2.2503717571	 0.108426
H	-0.0577786889	-1.2935143329	 1.839318112	 0.061122
60.4777	193.491	246.6413	260.6449	291.4261	308.6857	336.2867	372.1874	393.3668	457.3237	565.4391	696.9971	704.2897	779.1281	837.3904	872.7452	877.2024	909.7726	940.0361	953.6209	971.453	996.7726	999.9526	1009.9996	1047.7511	1071.6758	1110.1275	1149.1689	1168.2133	1205.2309	1212.309	1227.4225	1251.8446	1261.8474	1280.2791	1296.741	1328.5513	1336.8276	1351.1562	1395.0202	1401.3149	1418.807	1479.5527	1486.1813	1489.0628	1499.3809	1501.9531	1511.5951	1520.0555	2960.8389	2967.4112	3016.0548	3021.8122	3046.5342	3077.8495	3079.1389	3082.8901	3085.2851	3088.0956	3091.6531	3097.4315	3104.2788	3109.8801
CC1(C)CC2COCC12	CC1(C)C[C@H]2COC[C@@H]12	
InChI=1S/C8H14O/c1-8(2)3-6-4-9-5-7(6)8/h6-7H,3-5H2,1-2H3	InChI=1S/C8H14O/c1-8(2)3-6-4-9-5-7(6)8/h6-7H,3-5H2,1-2H3/t6-,7+/m0/s1
