23
gdb 105684	2.50235	0.86202	0.7152	2.7724	86.99	-0.2476	-0.0191	0.2286	1653.4717	0.203487	-388.295395	-388.284917	-388.283973	-388.332057	37.909	
C	-1.4867415917	-0.2423494067	-0.0775575584	-0.383605
C	 0.0381630291	-0.233819899	 0.0862373948	-0.255654
C	 0.8028613731	-0.6938204272	-1.1493870185	 0.406277
C	 0.6335585027	 0.1423477368	-2.4112285286	-0.287648
C	 1.138310872	 1.5926224789	-2.2669328793	-0.273177
C	 1.1440622723	 2.3118727247	-3.5947906076	 0.157902
O	 0.5510679504	 3.3314085053	-3.8362793131	-0.237006
C	 2.1560928666	-1.3296194511	-0.9309092995	-0.313974
C	 0.9760279546	-2.1832066426	-1.3346011725	-0.3158
H	-1.8193947433	 0.4671264573	-0.8420035865	 0.120853
H	-1.8460285179	-1.2354772051	-0.3671873335	 0.118403
H	-1.9797303324	 0.033695692	 0.8595446088	 0.114159
H	 0.3698256834	 0.7720094354	 0.3748196119	 0.099234
H	 0.3120567301	-0.8881650814	 0.922639599	 0.09381
H	 1.1796613378	-0.3431158292	-3.2301902793	 0.096612
H	-0.4197229395	 0.1576188522	-2.7167530413	 0.113637
H	 0.5340093371	 2.1713587024	-1.5637097685	 0.123435
H	 2.1730106212	 1.5697221044	-1.89511323	 0.119474
H	 1.7567770117	 1.8084798165	-4.381386429	 0.066801
H	 2.9325534586	-1.1558834224	-1.6694284855	 0.10596
H	 2.5263059775	-1.4156045902	 0.0853214479	 0.110496
H	 0.5459319311	-2.8434833744	-0.5885136874	 0.110859
H	 0.9580849254	-2.5854995567	-2.3421913639	 0.108951
45.6387	64.0228	79.7899	125.4229	161.6062	219.7732	235.0287	299.3873	349.3111	359.4107	401.567	502.0538	537.4437	702.9746	764.6621	786.4197	795.4607	844.4251	911.0786	916.5613	937.2424	945.1714	1012.9199	1017.5026	1050.4114	1058.3212	1080.4528	1086.0162	1112.9341	1122.1806	1187.2316	1199.651	1258.4278	1271.8372	1295.6869	1339.039	1343.2132	1371.4259	1403.4758	1410.8361	1429.9293	1464.2097	1469.703	1485.6125	1490.4302	1502.1215	1505.9442	1511.5652	1835.7232	2840.7168	3012.4365	3020.0125	3021.8677	3035.202	3051.372	3057.5667	3103.1293	3105.2209	3106.684	3122.8666	3127.8188	3200.0025	3214.3872
CCC1(CCC=O)CC1	CCC1(CCC=O)CC1	
InChI=1S/C8H14O/c1-2-8(5-6-8)4-3-7-9/h7H,2-6H2,1H3	InChI=1S/C8H14O/c1-2-8(5-6-8)4-3-7-9/h7H,2-6H2,1H3
