14
gdb 125134	3.33033	1.14994	0.86974	5.7428	66.61	-0.2519	-0.0198	0.2321	1240.7839	0.100738	-470.025232	-470.01696	-470.016016	-470.059187	28.351	
C	 0.0344630595	 1.5148852858	 0.0162969422	-0.513393
C	-0.0392920011	 0.0288466408	-0.0276937037	 0.230836
C	-0.2184475028	-0.8625503319	-1.0623359382	 0.327128
O	-0.4178786832	-0.5295094176	-2.3689850474	-0.227264
C	 0.0829196099	-1.3691945082	-3.3322450675	 0.15787
O	-0.1100642497	-1.1593548235	-4.4869247245	-0.255626
N	-0.2204783336	-2.1349207285	-0.6008163662	-0.261616
N	-0.0406478271	-2.1025670339	 0.692219257	-0.115619
N	 0.0616254531	-0.8079819774	 1.0382136791	-0.2223
H	 0.9923926995	 1.8636920322	 0.4169917291	 0.146676
H	-0.0723382265	 1.9083316765	-0.996495316	 0.167679
H	-0.7638501745	 1.9447730911	 0.630960234	 0.14847
H	 0.6511811276	-2.2072578318	-2.9032037158	 0.130482
H	 0.1893159589	-0.5720824437	 2.0101014679	 0.286677
64.9702	97.132	118.5216	159.7177	244.2136	258.962	383.5716	487.0018	504.7216	582.8389	681.8133	702.3369	743.6959	866.4591	988.8859	1026.7502	1037.2495	1066.6588	1096.893	1103.0287	1210.8577	1274.8439	1337.1797	1372.9686	1410.8047	1423.6667	1479.5762	1485.6626	1516.1927	1651.1985	1878.1146	3036.6675	3048.499	3090.615	3137.0641	3649.4233
CC1=C(OC=O)N=NN1	Cc1c(OC=O)nn[nH]1	
InChI=1S/C4H5N3O2/c1-3-4(9-2-8)6-7-5-3/h2H,1H3,(H,5,6,7)	InChI=1S/C4H5N3O2/c1-3-4(9-2-8)6-7-5-3/h2H,1H3,(H,5,6,7)
