18
gdb 18129	3.72005	2.10238	1.59088	1.645	65.79	-0.2496	0.0759	0.3254	835.7134	0.157178	-384.957923	-384.951392	-384.950448	-384.98885	25.567	
C	 0.0458551761	 1.508784208	 0.0995147231	-0.207909
C	 1.5000383417	 1.9787714912	-0.084889304	-0.236183
C	 2.1368189395	 0.9037559571	-0.9907872801	 0.094097
O	 3.4557428101	 0.5104698011	-0.6242590756	-0.254522
C	 3.308086453	-0.6352341705	 0.1807454896	 0.006818
O	 2.2181781452	-1.361617403	-0.3359175118	-0.254523
C	 1.28134979	-0.3903313107	-0.7914773051	 0.094098
C	 0.1788430018	-0.0198190421	 0.2229184328	-0.236183
H	-0.4476423196	 1.9676178939	 0.9604881553	 0.102487
H	-0.5487313847	 1.7654283889	-0.7862289053	 0.101794
H	 1.5861205846	 2.9856425487	-0.5005150001	 0.100719
H	 2.0230044227	 1.9775158578	 0.8783512571	 0.108803
H	 2.1772478874	 1.2262178919	-2.0343455791	 0.087367
H	 4.2137406066	-1.2444352911	 0.1125187255	 0.119707
H	 3.125335444	-0.3521104577	 1.2345879141	 0.07654
H	 0.8602562951	-0.7660394401	-1.727508204	 0.087367
H	 0.5243050019	-0.2895823189	 1.2275134573	 0.108804
H	-0.7558550954	-0.5570963642	 0.0451071804	 0.100719
80.6809	179.796	256.5844	400.9935	442.9502	543.2756	560.2545	724.9282	737.779	795.8779	856.6889	903.4488	910.4064	915.1575	971.5191	976.5093	1020.0196	1049.3937	1078.4142	1094.7318	1114.8423	1176.77	1188.2854	1196.2796	1225.4722	1233.3064	1288.5807	1301.1249	1312.3092	1337.2089	1340.1142	1367.4492	1377.8084	1430.1191	1484.1095	1491.1611	1505.4957	1543.0006	2919.0862	3031.6199	3045.5662	3048.6949	3064.5153	3076.7375	3088.8559	3093.3719	3102.9562	3109.121
C1CC2OCOC2C1	C1C[C@H]2OCO[C@H]2C1	
InChI=1S/C6H10O2/c1-2-5-6(3-1)8-4-7-5/h5-6H,1-4H2	InChI=1S/C6H10O2/c1-2-5-6(3-1)8-4-7-5/h5-6H,1-4H2/t5-,6+
