16
gdb 27309	3.22034	1.35269	0.95813	3.5459	76.78	-0.2128	-0.0124	0.2005	1172.8996	0.124994	-437.925829	-437.917748	-437.916803	-437.958245	30.855	
C	-0.032290926	 1.4804962476	 0.0231794639	-0.470378
C	-0.0063818955	-0.0187583516	 0.0255043634	 0.200275
C	-0.0312728958	-0.7207870279	-1.1132198957	-0.043581
O	-0.0097707903	-2.0952700675	-1.1758630215	-0.246839
C	 0.0396706836	-2.7705384087	-0.008324832	 0.469534
O	 0.0561896851	-4.0969690828	-0.1986777131	-0.407236
C	 0.0687303029	-2.1789492543	 1.1991450243	-0.357974
C	 0.0477298361	-0.7296965056	 1.3177520865	 0.244688
N	 0.0711156417	-0.0370767648	 2.4046472061	-0.545697
H	 0.85128396	 1.8750348244	 0.5338913503	 0.147255
H	-0.07015123	 1.8820088342	-0.9931206645	 0.106925
H	-0.8963200548	 1.8450635491	 0.5869252483	 0.147139
H	-0.070720543	-0.2991399393	-2.1084244447	 0.132635
H	 0.0282724019	-4.2653694252	-1.1489957466	 0.310134
H	 0.1080992715	-2.8047397314	 2.0817778428	 0.109989
H	 0.1081283027	-0.6562220861	 3.2171609325	 0.203131
113.7033	172.3397	179.6717	292.4896	319.5266	334.294	358.3607	416.0849	442.1008	523.3866	578.0174	671.3445	738.3046	740.5156	776.9778	815.7525	863.3059	893.857	931.567	1025.0857	1067.0012	1109.7304	1157.5638	1203.3304	1239.0208	1283.2783	1336.0405	1414.0365	1424.3833	1452.0757	1463.3261	1485.1454	1650.4052	1684.2023	1751.7551	3042.9133	3105.7507	3121.9742	3212.0064	3231.06	3442.389	3801.8779
CC1=COC(O)=CC1=N	CC1=CO[C@H](O)C=C1[NH]	
InChI=1S/C6H7NO2/c1-4-3-9-6(8)2-5(4)7/h2-3,7-8H,1H3	InChI=1S/C6H8NO2/c1-4-3-9-6(8)2-5(4)7/h2-3,6-8H,1H3/t6-/m0/s1
