20
gdb 96261	2.49254	1.47036	1.03766	1.9921	75.73	-0.2542	0.0045	0.2587	1170.4514	0.172477	-440.278932	-440.270448	-440.269504	-440.311752	32.842	
O	-0.1375932948	 1.4991575726	-0.2310536209	-0.430459
C	 0.0229574594	 0.0939789193	-0.041285356	 0.109247
C	-1.3858508713	-0.4812744037	 0.1690081471	-0.195274
C	-1.4987558298	-1.7177630343	 1.0772879333	-0.204353
C	-0.589644703	-2.9116768666	 0.7245302424	-0.159375
N	-0.7352405063	-3.2858461582	-0.6805531824	-0.201815
C	 0.0221978843	-2.714608139	-1.5072383024	 0.094383
O	 1.051209109	-1.8574470934	-1.1888002618	-0.232161
C	 0.753845433	-0.4643832533	-1.27641757	-0.106787
H	 0.7365337736	 1.8994118536	-0.2881192981	 0.284086
H	 0.6384169132	-0.104770184	 0.8508220129	 0.073592
H	-1.9812896799	 0.3217179623	 0.6144974933	 0.115121
H	-1.8398574426	-0.6907485713	-0.8062270157	 0.107201
H	-1.2774302156	-1.4337470524	 2.1136186915	 0.101168
H	-2.5430531705	-2.0486702806	 1.0609994084	 0.110172
H	 0.4514997834	-2.6695190427	 0.9673389328	 0.108623
H	-0.8857424148	-3.769855606	 1.3353068315	 0.102676
H	-0.0682395455	-2.9162144243	-2.5771644537	 0.112497
H	 0.1546998634	-0.2450838124	-2.1713225992	 0.110595
H	 1.7227237048	 0.0358485744	-1.3862234629	 0.100865
102.8735	179.2391	193.1995	240.4805	287.7031	307.0261	324.4017	373.409	425.2925	495.5532	505.6821	606.8675	690.5291	781.1363	843.2374	885.948	912.5844	947.3338	996.1287	1011.8683	1020.7487	1060.9887	1095.9312	1103.3843	1111.7663	1145.5947	1217.4368	1235.7194	1264.9096	1295.6665	1302.1129	1350.6212	1356.0239	1377.2797	1384.3302	1395.1219	1408.1051	1442.5608	1478.9874	1486.3634	1498.9054	1512.7453	1735.2084	2972.9965	3009.7649	3027.8805	3033.9078	3042.926	3069.4534	3070.0714	3083.9824	3088.8819	3109.3139	3808.4365
OC1CCCN=COC1	O[C@H]1CCCN=COC1	
InChI=1S/C6H11NO2/c8-6-2-1-3-7-5-9-4-6/h5-6,8H,1-4H2/b7-5-	InChI=1S/C6H11NO2/c8-6-2-1-3-7-5-9-4-6/h5-6,8H,1-4H2/b7-5-/t6-/m0/s1
