15
gdb 64632	2.30095	1.61119	1.38403	5.8369	71.03	-0.2429	-0.0309	0.212	996.3269	0.112773	-416.863938	-416.855651	-416.854707	-416.896777	30.569	
C	-0.0481441191	 1.5575582413	 0.031432003	-0.417208
C	-0.0127712638	 0.0131390804	-0.0383045775	-0.04089
C	 0.8260024341	-0.5426055084	-1.1763217221	-0.174134
C	 1.8413636914	-1.2384734673	-0.66071541	-0.020717
N	 1.8060128333	-1.2467595064	 0.740554548	-0.335404
C	 0.7352583339	-0.5309318686	 1.2301718954	 0.41688
O	 0.4553444954	-0.3300992195	 2.38319414	-0.353758
C	-1.3759433982	-0.5242666751	-0.0709464044	 0.277892
N	-2.4529645311	-0.9404632241	-0.1227548473	-0.336894
H	 0.9721699743	 1.9487130629	 0.0135308086	 0.134018
H	-0.5979537704	 1.966421872	-0.8191755948	 0.139007
H	-0.5336033708	 1.8699268974	 0.9588574418	 0.160604
H	 0.6074823885	-0.3902142653	-2.2212158256	 0.129916
H	 2.6371411119	-1.7608392777	-1.1717157314	 0.146956
H	 2.4789077504	-1.6904559016	 1.3436703263	 0.273731
84.1599	139.7359	186.6798	233.1355	235.3888	274.1736	417.3592	450.5757	500.8642	555.6102	577.0849	626.7303	703.9064	719.8856	764.2352	798.0433	916.0379	933.2742	964.1678	1068.8495	1091.0485	1122.7505	1163.558	1212.161	1216.655	1367.545	1401.6953	1415.5042	1489.1015	1490.0742	1671.1154	1853.2106	2354.8887	3051.9116	3134.3445	3141.531	3242.1216	3269.451	3662.9896
CC1(C=CNC1=O)C#N	C[C@]1(C=CNC1=O)C#N	
InChI=1S/C6H6N2O/c1-6(4-7)2-3-8-5(6)9/h2-3H,1H3,(H,8,9)	InChI=1S/C6H6N2O/c1-6(4-7)2-3-8-5(6)9/h2-3H,1H3,(H,8,9)/t6-/m0/s1
