20
gdb 14174	3.74315	1.64827	1.62872	1.4121	74.61	-0.2295	0.0858	0.3153	930.5108	0.177404	-348.999571	-348.991534	-348.99059	-349.031482	30.906	
C	-0.0403441027	 1.5588439557	 0.0152009139	-0.457998
C	 0.0205434602	 0.0463646841	-0.0159047918	 0.299748
C	-1.1957597409	-0.6446672105	 0.5739055499	-0.455903
C	 0.6863926113	-0.6967369813	-1.1743594488	-0.118426
C	 1.6306698732	 0.0529008046	-2.1140113002	-0.266958
C	 2.917303812	 0.1842004058	-1.2698581417	-0.062628
O	 2.5079891497	 0.1232306654	 0.1010183228	-0.259464
C	 1.3442514019	-0.6596281235	 0.1813153397	 0.048658
H	 0.9231542102	 2.011616318	-0.2248048091	 0.127575
H	-0.7912397406	 1.9417947894	-0.6858376838	 0.109521
H	-0.319301439	 1.903648666	 1.0173845934	 0.114008
H	-2.1010329243	-0.4042328452	 0.0038128178	 0.115696
H	-1.082697224	-1.733823918	 0.569447274	 0.111166
H	-1.3609407703	-0.3301703656	 1.6108431154	 0.11647
H	 0.2017942388	-1.5954638307	-1.5393071345	 0.082813
H	 1.8083955089	-0.5136306744	-3.0320580869	 0.103178
H	 1.2404272274	 1.0332333984	-2.4046972314	 0.107714
H	 3.6114980647	-0.6412441337	-1.4896256522	 0.093571
H	 3.4492435863	 1.1288798104	-1.4158637182	 0.105998
H	 1.4256592073	-1.5225274148	 0.8377450313	 0.08526
125.6294	158.6277	202.4902	212.3166	274.0559	284.7717	345.111	451.7594	492.4224	636.1104	705.7329	737.6643	807.3842	857.2196	869.6915	938.1223	967.6354	972.3098	989.4748	1020.1487	1023.1679	1062.3413	1093.7229	1128.1693	1139.642	1156.396	1204.3578	1237.9689	1248.5862	1298.9941	1315.7623	1322.6427	1386.7571	1406.595	1411.0173	1429.1102	1481.52	1489.4755	1493.6546	1505.5751	1510.3643	1519.7707	2986.3123	3020.1908	3028.6881	3051.6513	3080.4038	3081.9521	3083.4806	3094.1945	3098.3243	3130.6686	3132.9754	3168.2781
CC1(C)C2CCOC12	CC1(C)[C@H]2CCO[C@@H]12	
InChI=1S/C7H12O/c1-7(2)5-3-4-8-6(5)7/h5-6H,3-4H2,1-2H3	InChI=1S/C7H12O/c1-7(2)5-3-4-8-6(5)7/h5-6H,3-4H2,1-2H3/t5-,6+/m0/s1
