21
gdb 72541	2.56014	1.64511	1.62934	2.2747	76.38	-0.2461	0.069	0.315	992.0096	0.18505	-424.248021	-424.240084	-424.23914	-424.280625	31.496	
C	-0.0312770655	 1.5354408433	 0.0287145731	-0.465253
C	 0.0116965794	 0.0109453756	-0.0096479768	 0.197243
C	 0.7294539166	-0.5285550879	-1.2646886195	-0.230744
C	 0.718650525	-2.079559385	-1.2021898281	-0.245359
C	-0.0070244767	-2.4831335287	 0.0847535606	 0.201407
O	 0.6853263529	-1.9907691743	 1.2136926144	-0.272624
C	 0.7382375559	-0.5594922669	 1.2199605676	-0.070157
O	-1.3414350487	-2.0192469734	 0.0615141842	-0.272688
C	-1.4041097771	-0.589376974	 0.0076313302	-0.06996
H	 0.9800432592	 1.9562509893	 0.0272513849	 0.1185
H	-0.5578056613	 1.9348660379	-0.8448227796	 0.118506
H	-0.5449003799	 1.898942054	 0.9255870126	 0.117481
H	 0.2211442392	-0.1638783784	-2.1636097548	 0.098008
H	 1.7527034425	-0.1396559053	-1.2983348253	 0.097969
H	 0.1964724366	-2.5163871677	-2.0577732835	 0.107163
H	 1.7311815403	-2.4919036252	-1.1844067165	 0.107139
H	-0.0654097449	-3.5654591094	 0.2142619399	 0.084607
H	 1.7901157619	-0.2393403457	 1.2309626554	 0.092312
H	 0.2674954792	-0.2010329557	 2.1459807654	 0.097068
H	-1.9617702839	-0.2347568256	 0.8856854596	 0.096944
H	-1.9629484106	-0.288845167	-0.8903211739	 0.09244
42.0303	212.4116	253.2357	260.6588	327.7633	346.0245	398.5289	428.3974	528.1883	547.3304	599.3651	729.9602	815.9162	842.2088	896.0183	899.993	941.5864	948.7407	961.7214	1000.8107	1032.7111	1040.0886	1051.4038	1062.5675	1148.2576	1160.6091	1186.3628	1205.0822	1223.0723	1262.0531	1290.0806	1310.2391	1321.638	1351.7181	1360.1091	1370.9215	1406.0541	1407.2362	1425.98	1476.7446	1494.4162	1495.4384	1501.0846	1514.6968	1529.8889	2986.655	2991.5691	3021.0994	3024.8897	3027.0555	3035.8279	3059.1019	3071.8059	3094.1779	3096.0992	3103.4045	3106.6402
CC12CCC(OC1)OC2	C[C@@]12CC[C@@H](OC1)OC2	
InChI=1S/C7H12O2/c1-7-3-2-6(8-4-7)9-5-7/h6H,2-5H2,1H3	InChI=1S/C7H12O2/c1-7-3-2-6(8-4-7)9-5-7/h6H,2-5H2,1H3/t6-,7+
