14
gdb 32506	2.23467	1.58913	0.93425	4.9883	70.84	-0.2388	-0.0291	0.2097	1169.8798	0.101532	-436.711613	-436.703717	-436.702773	-436.744479	28.432	
C	-0.0432586495	 1.3312160633	 0.062634529	-0.258409
O	 0.0008749077	-0.0876420608	 0.0050015239	-0.250257
C	 0.6147023401	-0.6011374204	-1.0704577713	 0.234079
C	 1.2140557248	 0.0019062868	-2.1359690287	-0.150689
O	 1.7050127011	-0.9571236887	-2.9881510642	-0.13689
C	 1.4183429722	-2.1566617957	-2.4656252507	-0.066206
C	 0.7456390257	-2.0240756839	-1.2821129321	 0.029348
C	 0.2767583554	-3.060426533	-0.4413259918	 0.212319
N	-0.1075988054	-3.907367291	 0.2480897811	-0.346568
H	 0.9696615791	 1.7532136971	 0.0847664	 0.130473
H	-0.5870740118	 1.7406381107	-0.7983027247	 0.130474
H	-0.567499862	 1.5877779046	 0.9831842952	 0.150349
H	 1.3730358903	 1.0227683637	-2.4303772189	 0.151267
H	 1.7400567721	-3.0220323826	-3.0205969668	 0.170711
99.8664	120.2873	170.6501	220.5888	242.4169	342.6153	420.1932	534.8805	539.6846	607.9421	630.0569	661.4633	720.0261	728.0309	807.0862	893.2111	1058.3184	1076.8988	1180.5131	1197.0278	1205.8473	1239.2882	1257.263	1338.7153	1398.8791	1474.1986	1487.8198	1504.6197	1581.9635	1650.3346	2353.7586	3008.7858	3070.0201	3151.6723	3284.6251	3307.6799
COC1=COC=C1C#N	COc1cocc1C#N	
InChI=1S/C6H5NO2/c1-8-6-4-9-3-5(6)2-7/h3-4H,1H3	InChI=1S/C6H5NO2/c1-8-6-4-9-3-5(6)2-7/h3-4H,1H3
