16
gdb 50755	3.37678	1.22739	0.9382	2.1557	66.85	-0.2514	-0.0324	0.219	1179.3956	0.124405	-475.023872	-475.01587	-475.014926	-475.057321	28.774	
O	-0.7597760346	 0.914489633	 0.8081556412	-0.251902
C	 0.1791905874	 0.8315540644	 0.0599202817	 0.155803
C	 1.276365709	 1.8901109894	-0.0589972775	-0.072257
C	 1.4198176233	 2.6678823883	 1.2516790968	-0.107304
O	 2.2831337254	 3.7842593924	 1.1039714985	-0.215966
C	 3.622775041	 3.4489900183	 1.0999713185	 0.016439
O	 4.1199297185	 2.9021147161	-0.1249862139	-0.224869
C	 3.6110985848	 1.7521269757	-0.6368832682	 0.127572
N	 2.4525920361	 1.2530316054	-0.6148531956	-0.273969
H	 0.327687677	-0.0317849316	-0.622821084	 0.101772
H	 0.9089855782	 2.6075549651	-0.8140136998	 0.135004
H	 0.4428915119	 3.0502102631	 1.5499982065	 0.140828
H	 1.7906358512	 2.0039240063	 2.0468076566	 0.106202
H	 4.1941617031	 4.3679637576	 1.2347195028	 0.132528
H	 3.8465807002	 2.7269132863	 1.9015175712	 0.100544
H	 4.3925589075	 1.2366116001	-1.1955233849	 0.129573
51.2234	112.3182	157.7184	200.9449	294.053	361.7577	405.9104	446.3031	534.4592	561.4637	640.9826	790.8303	794.3889	889.0206	922.1862	971.4258	996.1233	1072.3459	1081.5536	1090.0028	1136.4038	1165.1699	1221.9672	1252.6582	1273.6133	1321.8226	1344.784	1389.9919	1400.306	1430.9584	1453.6329	1484.7099	1506.3664	1753.7081	1832.4905	2918.0297	2962.8926	2977.9576	3002.58	3130.2476	3132.9537	3139.2104
O=CC1COCOC=N1	O=C[C@H]1COCOC=N1	
InChI=1S/C5H7NO3/c7-1-5-2-8-4-9-3-6-5/h1,3,5H,2,4H2	InChI=1S/C5H7NO3/c7-1-5-2-8-4-9-3-6-5/h1,3,5H,2,4H2/t5-/m0/s1
