16
gdb 129872	3.01632	1.42757	1.10429	2.1378	72.3	-0.2071	-0.0427	0.1644	1085.1298	0.125347	-434.088526	-434.080361	-434.079417	-434.121588	30.013	
N	 0.3402209457	 1.3895320893	-0.0882115719	-0.621456
C	 0.0701256037	 0.0208369025	-0.0615955608	 0.386295
C	-1.1034239142	-0.7032011569	 0.0458539283	-0.309408
C	-0.6844671178	-2.0495176958	 0.0904279585	 0.009441
N	 0.6326500327	-2.1737677882	 0.015203281	-0.282013
N	 1.085516397	-0.887392806	-0.0680316062	 0.002455
C	 2.5014219289	-0.649327316	-0.0454755122	-0.246011
C	 3.0727502558	 0.0496084968	-1.2634146757	 0.164616
O	 2.4272650893	 0.6285727676	-2.0995494087	-0.23888
H	 0.8666087286	 1.6469092024	-0.918214865	 0.268869
H	-0.5106192318	 1.9338374089	-0.039487514	 0.251342
H	-2.1071168469	-0.3102482958	 0.0613231828	 0.093225
H	-1.2975026494	-2.9364508814	 0.1646591537	 0.108588
H	 2.7889829357	-0.0349029786	 0.8236848665	 0.153966
H	 2.9872927603	-1.6214291703	 0.0763695307	 0.162147
H	 4.1840423925	 0.0211625716	-1.3091588769	 0.096823
68.9319	139.2467	146.9992	243.4362	258.4565	308.4704	340.1014	443.0632	603.6351	647.1154	672.375	683.5511	730.9331	755.0847	829.4244	833.626	887.6583	940.3788	944.739	1042.1513	1067.4897	1112.8417	1177.1	1246.7781	1269.003	1321.3875	1374.5498	1383.3439	1412.3603	1430.0936	1457.0957	1549.9962	1595.7679	1654.0621	1832.2458	2893.326	2989.3501	3105.7859	3237.2451	3265.0441	3506.8502	3619.8121
NC1=CC=NN1CC=O	Nc1ccnn1CC=O	
InChI=1S/C5H7N3O/c6-5-1-2-7-8(5)3-4-9/h1-2,4H,3,6H2	InChI=1S/C5H7N3O/c6-5-1-2-7-8(5)3-4-9/h1-2,4H,3,6H2
