16
gdb 36160	4.29425	1.18466	1.14857	5.112	71.52	-0.2466	0.0238	0.2704	1080.9494	0.124502	-400.693228	-400.685941	-400.684997	-400.725467	28.099	
N	 0.0626111453	-1.1792206997	-0.1354779824	-0.305439
C	 0.0217968004	-0.0249357825	-0.1384204171	 0.275673
C	-0.0278839503	 1.43756142	-0.1225937933	-0.468896
C	 1.3412562118	 2.055972185	 0.0278867518	 0.434586
C	 2.3093474782	 1.7706456312	 1.2080771968	-0.263409
C	 2.9887963853	 3.0734022476	 0.7879228903	-0.121245
C	 2.8277919582	 3.1114099943	-0.7408837857	 0.105323
O	 2.1897790547	 1.8999104048	-1.1453305087	-0.320474
C	 1.7143564278	 3.5898978498	 0.1230502457	-0.214855
H	-0.4890271319	 1.7925407754	-1.0502634612	 0.166478
H	-0.6656106981	 1.7587818382	 0.7085706442	 0.159016
H	 1.8123058792	 1.8744934699	 2.1759901664	 0.108935
H	 2.8660239506	 0.83097914	 1.1545274388	 0.120817
H	 3.7432451653	 3.6450438185	 1.3119884934	 0.100666
H	 3.4892066308	 3.6150586234	-1.4321522031	 0.117165
H	 1.150225623	 4.5089771142	 0.1986749241	 0.105658
60.2946	109.5991	277.9032	291.0596	386.6749	446.6135	457.6817	550.6773	702.1155	756.9659	768.7354	786.7478	813.1082	856.032	898.4327	935.204	951.0675	967.4219	995.9347	1024.0838	1034.514	1048.3828	1060.8458	1087.9675	1143.6651	1177.9475	1232.3328	1235.6286	1291.1828	1305.621	1350.3058	1376.8911	1450.9544	1488.0153	2367.397	3049.7565	3058.538	3093.1626	3120.6096	3204.6525	3209.3763	3225.862
N#CCC12CC3C(O1)C23	N#CC[C@@]12C[C@H]3[C@@H](O1)[C@@H]23	
InChI=1S/C7H7NO/c8-2-1-7-3-4-5(7)6(4)9-7/h4-6H,1,3H2	InChI=1S/C7H7NO/c8-2-1-7-3-4-5(7)6(4)9-7/h4-6H,1,3H2/t4-,5+,6-,7+/m1/s1
