20
gdb 68116	4.41922	1.06036	1.04413	0.3595	79.95	-0.2303	0.0776	0.3079	1221.7473	0.171014	-403.06582	-403.057674	-403.05673	-403.098465	32.568	
O	-0.0254775886	 1.3412025934	 0.0862024661	-0.472613
C	 0.0334801817	-0.0356507881	 0.0015027906	 0.407331
C	 0.501031471	-1.0569817775	 1.0856826086	-0.335423
C	 0.0034903951	-1.8920021237	-0.1264316787	 0.404356
C	-1.2251820992	-0.9029829556	-0.2147854108	-0.31506
C	 0.7706083164	-0.9135645251	-1.0582465049	-0.335486
N	 0.0703851914	-3.3115551473	-0.2129551711	-0.176796
C	-1.0408072282	-4.075404812	 0.3495829126	-0.234324
C	-0.8573472387	-3.9770777578	-1.1245623942	-0.234327
H	 0.8678422288	 1.6754764197	 0.2202780717	 0.282983
H	 1.5735471962	-1.1064530676	 1.2941724847	 0.088194
H	-0.0976509898	-1.1099458684	 1.9989931835	 0.090533
H	-1.9428932178	-0.9243437307	 0.6094358514	 0.092685
H	-1.7170860617	-0.8042826227	-1.1859681733	 0.092688
H	 0.4164538013	-0.8364408534	-2.0897443994	 0.090543
H	 1.8620881092	-0.952946295	-1.0005805774	 0.088192
H	-0.7623186529	-4.9800116114	 0.8820806961	 0.117593
H	-1.8725525113	-3.5244183827	 0.7829794114	 0.115657
H	-1.5670241736	-3.3606530167	-1.6719176925	 0.115676
H	-0.4426590992	-4.8086837875	-1.6866022945	 0.117598
68.2779	166.6975	174.6438	265.4678	324.4681	360.2317	435.4849	478.4073	538.4274	562.9895	569.9677	647.9736	752.6871	780.484	811.8533	896.2587	898.0453	940.8874	956.9338	973.7241	1026.9896	1033.6319	1071.3065	1088.7178	1108.234	1115.7147	1118.6747	1124.0052	1129.9335	1149.4985	1154.6337	1171.5801	1192.3166	1195.975	1253.1057	1303.1344	1361.671	1400.8221	1489.1573	1491.7287	1493.4164	1514.7098	1565.6283	3044.6839	3046.8486	3057.3177	3103.4314	3107.7702	3113.3578	3119.1355	3121.7904	3184.8632	3199.4038	3809.4999
OC12CC(C1)(C2)N1CC1	O[C@@]12C[C@@](C1)(C2)N1CC1	
InChI=1S/C7H11NO/c9-7-3-6(4-7,5-7)8-1-2-8/h9H,1-5H2	InChI=1S/C7H11NO/c9-7-3-6(4-7,5-7)8-1-2-8/h9H,1-5H2/t6-,7+
