23
gdb 109241	2.47961	1.41239	1.07532	0.2497	91.65	-0.2153	0.028	0.2433	1251.5535	0.206035	-351.168615	-351.159375	-351.158431	-351.202262	36.067	
C	-0.0440319391	 1.551593908	 0.099569576	-0.371246
C	 0.0147017282	 0.0170372075	-0.0247050568	-0.298085
C	 0.7268640028	-0.4706957189	-1.2578926133	 0.272107
C	 1.9979183307	-0.8853226446	-1.3215316665	-0.185831
C	 2.4156846495	-1.3027248239	-2.714183041	-0.272304
C	 1.1162297602	-1.2034571678	-3.5084131239	-0.077751
C	-0.0529050904	-2.0476375414	-3.0636747971	-0.318145
C	 0.052394378	-0.6031971169	-2.6012772365	 0.27183
C	-0.9633560594	 0.4119985413	-3.0726437506	-0.489642
H	 0.964978973	 1.9748400892	 0.114627853	 0.11915
H	-0.5836128057	 2.0075824908	-0.735023028	 0.120887
H	-0.5507215425	 1.8446349811	 1.0248403918	 0.109577
H	 0.5222147591	-0.3849490222	 0.8594999489	 0.102381
H	-1.0069340184	-0.3845272503	-0.0058419038	 0.100074
H	 2.6651241512	-0.9554644568	-0.468260106	 0.080302
H	 3.1886936439	-0.6358541909	-3.1214326006	 0.101531
H	 2.8434939731	-2.3140911035	-2.7340193839	 0.103558
H	 1.1616078736	-0.922900482	-4.554918291	 0.078423
H	-0.8034923098	-2.2765082697	-3.8146399711	 0.101326
H	 0.1128064588	-2.8353959541	-2.3353956153	 0.105628
H	-1.8368227698	 0.447324957	-2.4109130773	 0.11661
H	-0.5374477181	 1.4207321389	-3.117675681	 0.117925
H	-1.3255216189	 0.1600307891	-4.0744535859	 0.111695
70.3211	130.2023	196.8314	224.5252	243.5721	258.4449	288.9867	321.6155	383.6817	422.8687	577.0928	614.045	665.7489	731.6737	790.8786	816.0449	818.2045	829.0816	880.2294	944.9513	959.5891	968.2063	972.4183	1033.8658	1051.5654	1066.663	1081.3716	1091.8365	1103.8869	1119.3187	1158.6525	1192.286	1245.5319	1273.6964	1284.6932	1318.8449	1350.3032	1361.6698	1393.4975	1405.0969	1417.765	1474.1905	1479.9511	1486.1418	1491.7947	1494.9844	1505.4592	1508.4846	1697.1007	3004.7109	3018.9844	3021.3539	3031.6011	3038.7538	3060.1584	3080.6906	3094.7142	3106.5755	3114.535	3119.4379	3167.2667	3179.657	3202.7401
CCC1=CCC2CC12C	CCC1=CC[C@H]2C[C@@]12C	
InChI=1S/C9H14/c1-3-7-4-5-8-6-9(7,8)2/h4,8H,3,5-6H2,1-2H3	InChI=1S/C9H14/c1-3-7-4-5-8-6-9(7,8)2/h4,8H,3,5-6H2,1-2H3/t8-,9-/m0/s1
