16
gdb 8264	7.48767	0.85768	0.83082	2.9341	75.15	-0.2387	-0.0214	0.2173	1376.9084	0.128077	-346.591479	-346.582802	-346.581858	-346.626976	29.948	
C	 0.2712706354	 1.5937365467	-0.321811748	-0.497608
C	 0.1467574225	 0.1556333968	-0.1316433747	 0.074591
C	 0.0493567273	-1.0356252469	 0.0202864101	 0.064386
C	-0.0858809655	-2.4639051852	 0.2200877776	-0.171339
C	 0.008248445	-3.00483372	 1.6930612119	-0.343599
C	-1.2755731788	-3.8050233262	 1.4265374201	 0.396048
O	-1.8323389911	-4.6917476249	 2.0038660846	-0.28506
C	-1.5251269289	-3.0833548579	 0.0937013135	-0.343596
H	 1.0505262024	 1.8318961854	-1.0541985219	 0.149534
H	-0.6663800151	 2.0308790749	-0.6826717876	 0.148749
H	 0.5324042058	 2.0986819382	 0.6148503622	 0.148727
H	 0.6132755071	-3.0063737166	-0.4235867231	 0.10886
H	 0.8959737991	-3.5797769161	 1.966264317	 0.133595
H	-0.1510348605	-2.2207881376	 2.4395230126	 0.141558
H	-2.3152849064	-2.3316013239	 0.1821358523	 0.141561
H	-1.7311448683	-3.7143004168	-0.7738929067	 0.133593
14.2974	46.8108	104.8083	148.0111	285.3856	302.0761	402.3838	441.4254	463.0561	528.1978	598.2083	671.9689	716.2844	861.3574	909.6016	950.2386	990.9458	1043.9491	1053.2091	1055.8994	1101.1202	1175.1087	1190.7413	1194.6309	1230.5142	1240.6681	1356.8066	1415.2494	1425.3236	1444.1639	1478.3003	1478.4148	1897.8037	2369.3224	3026.1379	3055.4777	3061.9422	3066.8039	3086.4157	3087.317	3124.2794	3124.6588
CC#CC1CC(=O)C1	CC#CC1CC(=O)C1	
InChI=1S/C7H8O/c1-2-3-6-4-7(8)5-6/h6H,4-5H2,1H3	InChI=1S/C7H8O/c1-2-3-6-4-7(8)5-6/h6H,4-5H2,1H3
