25
gdb 111868	2.46256	1.20066	1.11225	0.125	91.93	-0.2532	0.0779	0.3311	1314.1361	0.231991	-352.366382	-352.357343	-352.356398	-352.40005	35.763	
C	 0.0218730058	 1.6857756713	-0.1447331597	-0.372284
C	-0.2874416649	 0.1853767173	-0.2288617068	-0.206689
C	 0.5558494599	-0.5157425545	-1.2741001999	 0.003252
C	 1.9319786301	-1.1039610015	-1.0080910545	-0.049388
C	 2.5335004565	-1.1834598522	 0.3952232035	-0.220144
C	 2.2973518434	-2.5477563399	 1.0625021664	-0.179983
C	 0.8067456698	-2.900574922	 1.0731305923	-0.197828
C	 0.243496581	-3.0311857823	-0.3568213372	-0.213103
C	 0.7636580892	-2.0095042891	-1.3635777664	-0.061168
H	 1.0662132602	 1.8580350893	 0.1363670859	 0.11873
H	-0.1421171046	 2.1753717815	-1.1112109009	 0.112097
H	-0.6137663733	 2.1846110263	 0.5938096015	 0.107039
H	-0.1504896665	-0.2670508682	 0.7573490788	 0.09845
H	-1.3488516253	 0.0468210373	-0.4744536014	 0.094262
H	 0.4713723056	-0.0326277037	-2.2467677765	 0.071715
H	 2.6624464585	-0.9426808716	-1.7952431488	 0.075261
H	 3.608081557	-0.9835529005	 0.3329576236	 0.092428
H	 2.122400619	-0.399297765	 1.0440728305	 0.097802
H	 2.8508242626	-3.3230453716	 0.5153000695	 0.090891
H	 2.6938666368	-2.5381056464	 2.0841820672	 0.086268
H	 0.6395588833	-3.8430173564	 1.6066419591	 0.089031
H	 0.2607300569	-2.1347136951	 1.6374316799	 0.099298
H	 0.5276344492	-4.0216981551	-0.7347555554	 0.096067
H	-0.8536272347	-3.0245327982	-0.3310352	 0.092978
H	 0.7649068446	-2.3947424495	-2.3800751007	 0.075016
76.9871	126.2583	134.3885	205.3902	259.664	274.1337	327.3862	430.8366	447.2626	500.7461	521.9727	656.0676	724.9813	755.3666	781.815	805.1056	820.3015	869.3714	917.9861	940.7773	954.8625	981.6034	998.2889	1026.3951	1054.5348	1079.2967	1095.9635	1121.1304	1139.3784	1143.1387	1156.1932	1199.9793	1202.2274	1268.0393	1284.2236	1293.74	1302.2486	1337.7868	1348.2686	1368.9109	1369.0734	1383.8318	1389.5501	1401.7184	1411.7289	1454.1926	1479.8709	1487.2913	1490.6235	1497.9667	1498.3671	1504.2542	1510.7325	3012.8372	3013.5794	3019.9782	3022.0106	3025.6892	3029.8576	3043.3095	3061.7733	3064.5355	3069.1256	3079.4203	3097.1582	3102.3862	3108.4375	3125.973	3144.1716
CCC1C2CCCCC12	CC[C@H]1[C@H]2CCCC[C@@H]12	
InChI=1S/C9H16/c1-2-7-8-5-3-4-6-9(7)8/h7-9H,2-6H2,1H3	InChI=1S/C9H16/c1-2-7-8-5-3-4-6-9(7)8/h7-9H,2-6H2,1H3/t7-,8+,9-
