18
gdb 79681	2.54426	1.56493	1.20833	3.3549	78.4	-0.2251	-0.0256	0.1995	1076.3707	0.146176	-401.860116	-401.85189	-401.850946	-401.892752	31.539	
C	-0.1101651763	 1.524804072	 0.0028214934	-0.333632
N	 0.1758022222	 0.0926436864	 0.0871753113	-0.114438
C	 1.2916252598	-0.6617718211	-0.3502781917	-0.105121
C	 2.7157433573	-0.2054227362	 0.0930422904	-0.066039
C	 2.7621316249	 1.0586387539	 0.9098958696	-0.319628
C	 2.270432646	-0.2048665393	 1.5484778933	-0.104792
C	 0.8369740397	-0.6541062202	 1.1237166985	 0.179239
C	 0.1165020645	-1.7374310155	 1.8050382951	 0.09792
O	 0.5207022284	-2.3021206464	 2.7960382585	-0.277787
H	 0.545465307	 2.0267685294	-0.7146089976	 0.135084
H	-1.1435903294	 1.6537457657	-0.3370606248	 0.126122
H	-0.0131895156	 2.0122995624	 0.9770756546	 0.137246
H	 1.1444956747	-1.4563936462	-1.0758194565	 0.113006
H	 3.6034654283	-0.6625387237	-0.3228487756	 0.099667
H	 3.7686865311	 1.3319507827	 1.2146242847	 0.123179
H	 2.1302209664	 1.9122016204	 0.7165772295	 0.116262
H	 2.7542950359	-0.6798194412	 2.3897085122	 0.118442
H	-0.840758085	-2.0100162931	 1.309803815	 0.075269
109.1784	136.9317	187.1563	242.7383	248.512	278.309	364.7601	438.4132	555.2986	621.272	646.1588	676.9037	703.8827	764.2865	835.8185	916.7772	922.3258	951.0761	967.29	980.5387	1031.0033	1053.7614	1066.3948	1086.4868	1092.5611	1143.0351	1168.3031	1175.644	1211.4394	1276.3525	1300.8996	1324.8622	1385.6373	1427.0941	1463.9891	1490.6177	1506.5236	1517.1872	1791.3022	2901.0457	3025.3562	3083.9577	3114.4179	3143.0904	3155.2423	3204.2001	3226.1035	3249.6068
CN1C2C3CC3C12C=O	CN1[C@H]2[C@H]3C[C@H]3[C@@]12C=O	
InChI=1S/C7H9NO/c1-8-6-4-2-5(4)7(6,8)3-9/h3-6H,2H2,1H3	InChI=1S/C7H9NO/c1-8-6-4-2-5(4)7(6,8)3-9/h3-6H,2H2,1H3/t4-,5+,6-,7+,8?/m0/s1
