21
gdb 65040	2.81078	1.36823	1.18276	0.1104	78.34	-0.2312	0.0672	0.2984	1148.914	0.179909	-424.193947	-424.184069	-424.183125	-424.229496	37.031	
O	-0.1058428575	 1.3279451959	 0.2595635924	-0.48543
C	 0.0268434984	-0.0574092909	 0.0465947223	 0.389449
C	 1.0938178605	-0.5726232343	-0.8788067528	-0.329263
C	 1.203677236	-0.7931940978	 0.6244650103	-0.329254
C	-1.3504040567	-0.6858453527	 0.0550339038	 0.37728
O	-1.1645674477	-2.0763170403	-0.1625518321	-0.498752
C	-2.2675056689	-0.3585592241	 1.2764686997	-0.266685
C	-3.4407118675	-0.0687992895	 0.2983133687	-0.228737
C	-2.4249742404	-0.0423980445	-0.8784369851	-0.266684
H	 0.7699821959	 1.7240369082	 0.253547251	 0.28203
H	 0.8657183891	-1.4305086273	-1.499185932	 0.131323
H	 1.754089053	 0.1596815794	-1.3343520545	 0.097728
H	 1.9372096055	-0.2079844276	 1.1714643174	 0.09773
H	 1.0483379723	-1.7971612122	 0.9996802768	 0.131322
H	-2.0288484591	-2.4980051189	-0.1612623633	 0.281034
H	-2.3903299031	-1.175104479	 1.9933401664	 0.091004
H	-1.9299498445	 0.5345593618	 1.8045225334	 0.120656
H	-4.1559680952	-0.8941492431	 0.2294875298	 0.090873
H	-4.0052359865	 0.8488960015	 0.4742071104	 0.102719
H	-2.1474330175	 0.971220141	-1.1716854068	 0.120652
H	-2.6656014161	-0.6224219954	-1.7736506258	 0.091004
28.9611	73.673	81.1507	208.3796	221.7669	252.4246	319.8022	334.7791	393.7533	421.8875	442.6485	540.7937	563.6708	705.6846	761.2265	768.6609	826.3238	866.0033	880.34	926.9505	937.8388	956.9501	959.3954	986.2077	1025.6887	1052.5646	1066.265	1067.8278	1083.742	1147.8861	1188.1851	1191.0667	1201.6178	1246.1511	1252.7561	1269.6578	1276.6608	1310.0602	1350.2877	1449.0373	1462.057	1467.1122	1476.8007	1497.0822	1505.0593	3051.7888	3060.6285	3067.1224	3103.5469	3124.8005	3129.2486	3129.8766	3135.394	3219.2765	3231.5539	3831.0316	3839.8468	28.9471	73.6722	81.1491	208.3799	221.7708	252.4247	319.8022	334.7792	393.7534	421.8876	442.6485	540.7938	563.6708	705.6845	761.2265	768.661	826.3239	866.0033	880.3399	926.9506	937.8387	956.9501	959.3955	986.2076	1025.6888	1052.5646	1066.2648	1067.8278	1083.7421	1147.8862	1188.1852	1191.0662	1201.6179	1246.1513	1252.7563	1269.6579	1276.6609	1310.0599	1350.2877	1449.0367	1462.0572	1467.112	1476.8009	1497.0821	1505.0594	3051.7888	3060.6285	3067.1224	3103.5469	3124.8005	3129.2486	3129.8767	3135.3941	3219.2765	3231.5539	3831.0322	3839.8464
OC1(CC1)C1(O)CCC1	OC1(CC1)C1(O)CCC1	
InChI=1S/C7H12O2/c8-6(2-1-3-6)7(9)4-5-7/h8-9H,1-5H2	InChI=1S/C7H12O2/c8-6(2-1-3-6)7(9)4-5-7/h8-9H,1-5H2
