23
gdb 59546	2.4854	1.29411	1.01468	1.1654	85.3	-0.2423	0.0674	0.3097	1291.9063	0.204165	-388.266852	-388.256996	-388.256051	-388.301229	37.912	
C	 0.0446905998	 1.5410627557	-0.0880862072	-0.389921
C	 0.07296699	 0.0169017558	 0.093778564	 0.014067
C	 0.7343327666	-0.3637965141	 1.4262242417	-0.384485
C	-1.3344699535	-0.5746927857	-0.0100791041	-0.017003
C	-2.1060288053	-0.5320203334	-1.378590087	-0.266315
C	-2.3406824949	-2.0439893415	-1.2804404375	-0.105208
C	-1.007527922	-2.7590641214	-1.2418092097	-0.345696
C	-1.5321608681	-2.1009174823	 0.0050833568	 0.381356
O	-1.8332109267	-2.8245599128	 1.1488448813	-0.466593
H	 1.0550302798	 1.9626073644	-0.0557399578	 0.107835
H	-0.4053409136	 1.8239524252	-1.045132922	 0.114609
H	-0.5395749382	 2.0179890069	 0.7081147405	 0.11112
H	 0.6814018293	-0.4064168127	-0.7182062905	 0.066524
H	 0.1569968393	 0.0219292078	 2.2747725046	 0.115786
H	 0.8101349643	-1.4500314442	 1.543011599	 0.096727
H	 1.74684991	 0.0472413354	 1.4981000511	 0.109161
H	-1.9673651808	-0.1416993675	 0.7739781067	 0.073559
H	-3.0187523811	 0.0656410814	-1.3369655224	 0.103379
H	-1.5162965751	-0.2106677046	-2.244421547	 0.092315
H	-3.254839798	-2.5651657874	-1.5350298978	 0.091472
H	-1.0802492346	-3.8420480841	-1.2225784956	 0.110369
H	-0.1513270703	-2.3717917794	-1.7902197837	 0.102626
H	-1.016216247	-3.1942874414	 1.4998595266	 0.284315
61.8765	130.8291	148.8019	211.3448	230.1909	249.4598	287.7641	315.8729	338.5205	398.3854	422.5445	465.8046	511.5583	643.1693	710.8984	787.5164	849.3595	883.1349	900.1881	924.7281	934.6792	957.9779	981.0761	994.0533	1016.8572	1028.1745	1061.0286	1085.4037	1129.8998	1151.4007	1174.4238	1196.2374	1220.2341	1227.9875	1242.5742	1291.6485	1309.9927	1318.0753	1346.8451	1380.4693	1397.451	1408.7817	1420.0629	1478.919	1483.8192	1491.6464	1502.2424	1506.0005	1507.5168	2998.182	3022.5135	3026.2468	3037.8402	3040.5773	3087.507	3092.7113	3095.1723	3099.7926	3101.8727	3106.6624	3190.6932	3200.8083	3800.1113
CC(C)C1CC2CC12O	CC(C)[C@H]1C[C@H]2C[C@@]12O	
InChI=1S/C8H14O/c1-5(2)7-3-6-4-8(6,7)9/h5-7,9H,3-4H2,1-2H3	InChI=1S/C8H14O/c1-5(2)7-3-6-4-8(6,7)9/h5-7,9H,3-4H2,1-2H3/t6-,7+,8-/m0/s1
