20
gdb 7275	2.7045	1.42147	1.18355	4.5315	75.61	-0.2177	0.0391	0.2568	1125.375	0.175482	-345.188664	-345.178949	-345.178005	-345.223191	34.727	
C	-0.0377963018	 1.6136564706	-0.1465432939	-0.411399
C	 0.0665965049	 0.0837802956	 0.0004836943	 0.050358
C	 0.6968545683	-0.527252682	-1.2750853665	-0.358789
C	 0.686160988	-1.9879217967	-1.269877886	 0.275389
N	 0.6614664733	-3.1428954136	-1.2869759272	-0.312115
N	 0.7613162797	-0.3950164955	 1.1952732174	-0.032464
C	 2.0769376046	 0.1749593477	 1.4369926491	-0.329348
C	-0.0603730405	-0.3859390361	 2.3934317162	-0.325592
H	 0.9401782279	 2.071132868	-0.3274740547	 0.121815
H	-0.6909943366	 1.8795277107	-0.9835783994	 0.11982
H	-0.4573891128	 2.061935524	 0.7585342297	 0.126888
H	-0.9505573134	-0.3179879399	 0.0689561737	 0.097619
H	 0.1477683888	-0.1772280782	-2.1563715856	 0.147392
H	 1.7291865672	-0.1815028971	-1.3981722207	 0.146949
H	 2.056074895	 1.2315736495	 1.7597832278	 0.096637
H	 2.5757053958	-0.4008824774	 2.2229792833	 0.128
H	 2.7008036806	 0.1084319119	 0.5411548812	 0.116898
H	-1.0009767338	-0.9120462345	 2.2047771188	 0.125053
H	 0.4643969646	-0.9151298475	 3.195443621	 0.124069
H	-0.30070515	 0.6269363906	 2.7684606516	 0.09282
50.4185	88.2552	150.8673	212.689	237.3279	244.1623	262.1413	297.0301	323.3675	395.0886	415.2438	429.7195	524.6287	578.8867	747.8056	875.4988	899.9521	950.6062	995.8657	1060.9293	1074.7338	1092.4907	1121.1063	1144.793	1187.0501	1198.1994	1275.6538	1302.4742	1320.9191	1365.4088	1399.8316	1411.5358	1444.17	1462.6349	1477.5119	1480.7001	1490.2231	1495.2863	1501.0807	1510.03	1520.4067	2365.0097	2926.6746	2943.1314	3038.755	3041.0872	3050.6643	3059.4399	3065.1729	3085.2821	3104.3551	3107.5365	3108.7758	3115.2817
CC(CC#N)N(C)C	C[C@@H](CC#N)N(C)C	
InChI=1S/C6H12N2/c1-6(4-5-7)8(2)3/h6H,4H2,1-3H3	InChI=1S/C6H12N2/c1-6(4-5-7)8(2)3/h6H,4H2,1-3H3/t6-/m0/s1
