17
gdb 110045	2.04865	1.77892	1.08146	2.2125	64.47	-0.2578	-0.0106	0.2472	1108.5926	0.135654	-496.123303	-496.114595	-496.11365	-496.157025	31.425	
C	 0.153087062	 1.1452124958	 0.2310554918	-0.249506
O	-0.036929276	-0.2408651432	-0.0247750253	-0.273992
C	-1.3933624722	-0.6313449149	-0.1647707134	-0.070568
C	-1.3809976318	-2.0878653721	-0.6458975646	 0.099445
O	-0.3629914103	-2.3916300698	-1.5568951038	-0.437851
C	-1.2852445328	-2.8476256195	 0.6963210142	-0.111236
O	-1.9708775754	-2.0210873052	 1.6556436892	-0.220029
C	-2.0460468587	-0.7372573482	 1.2240242425	 0.439629
O	-2.5196644067	 0.1446724453	 1.8816339113	-0.340956
H	 1.2305877505	 1.3028986964	 0.3077714992	 0.135479
H	-0.2459591411	 1.7525689542	-0.5933269425	 0.119586
H	-0.3323173612	 1.4504689456	 1.1641092484	 0.150624
H	-1.9412891684	 0.0646295974	-0.8099681981	 0.098434
H	-2.3392576368	-2.3160799433	-1.1246798575	 0.108718
H	 0.3787964399	-1.8157412357	-1.3244759814	 0.295921
H	-1.7698647271	-3.8249340845	 0.6858517512	 0.130067
H	-0.238591424	-2.9617169482	 0.9966377088	 0.126235
74.2035	114.078	170.2059	187.8702	218.6858	255.3299	328.9509	394.0202	443.6368	473.8501	551.5418	661.2375	675.0149	736.1903	892.6333	894.0714	944.3147	1052.9636	1060.4184	1083.4839	1120.1894	1147.9998	1187.0471	1191.1379	1213.2419	1216.0869	1265.3524	1300.6497	1356.0945	1361.6578	1388.0206	1447.6396	1479.966	1486.6481	1511.6705	1513.5171	1873.1419	3006.4538	3046.7214	3056.6865	3063.6949	3083.1006	3129.8188	3135.012	3750.9266
COC1C(O)COC1=O	CO[C@H]1[C@@H](O)COC1=O	
InChI=1S/C5H8O4/c1-8-4-3(6)2-9-5(4)7/h3-4,6H,2H2,1H3	InChI=1S/C5H8O4/c1-8-4-3(6)2-9-5(4)7/h3-4,6H,2H2,1H3/t3-,4-/m0/s1
