21
gdb 76299	2.12213	1.5355	1.0251	4.3312	84.33	-0.2301	0.0305	0.2606	1238.1572	0.18103	-383.276619	-383.266598	-383.265654	-383.311322	36.509	
C	 0.0194072572	 1.6062123751	 0.1789864903	-0.411804
C	 0.0748870352	 0.1061566543	-0.0360839105	 0.069292
C	 0.8662755704	-0.4978538736	-1.247274947	-0.238563
C	 1.899950443	 0.3612455968	-1.798474848	 0.307085
N	 2.720435887	 1.0438622112	-2.2442553924	-0.345633
C	 1.3689352816	-1.5659548455	-0.2154735402	 0.069292
C	 2.818617314	-2.0107913983	-0.2090559212	-0.411801
N	 0.9562877547	-0.6550153323	 0.8669612431	-0.074436
C	 0.3946895498	-1.2191514232	 2.074120143	-0.335488
H	 1.021187048	 2.0413582381	 0.1487568218	 0.145953
H	-0.5962523242	 2.08651015	-0.5886482691	 0.122276
H	-0.4262892475	 1.8317201867	 1.153509485	 0.120032
H	-0.9477500919	-0.3120220116	-0.0578991512	 0.063567
H	 0.2518777747	-0.8860534296	-2.0608817083	 0.121318
H	 0.702776382	-2.4447556392	-0.286721309	 0.063569
H	 3.4903766656	-1.1492058435	-0.1936149978	 0.145956
H	 3.0216725492	-2.6234757601	 0.6755796513	 0.120031
H	 3.043337202	-2.6164875119	-1.0931485296	 0.122275
H	 1.1532352522	-1.8089684014	 2.5986509298	 0.127149
H	 0.0763092264	-0.4173240709	 2.7480008357	 0.127148
H	-0.4772953392	-1.8731524712	 1.8804324742	 0.09278
66.0603	134.5529	164.6062	193.4056	197.2116	205.6592	219.0209	238.3218	315.6208	397.9825	428.0778	454.4947	499.14	639.9207	708.2299	757.8785	798.8753	853.472	918.9091	965.5272	1010.5572	1071.7303	1080.5449	1127.7475	1135.9245	1147.373	1161.0323	1178.896	1236.2613	1253.3462	1285.6701	1305.3619	1355.9487	1367.6447	1398.6221	1408.9773	1426.0329	1454.3152	1484.5795	1486.6907	1489.1277	1490.6807	1495.5196	1497.0414	2350.7988	2921.3983	2929.9577	2940.3596	3038.3175	3038.6186	3063.2737	3102.3291	3103.9858	3104.2957	3105.0313	3128.7312	3129.0885
CC1C(C#N)C(C)N1C	C[C@H]1[C@@H](C#N)[C@@H](C)N1C	
InChI=1S/C7H12N2/c1-5-7(4-8)6(2)9(5)3/h5-7H,1-3H3	InChI=1S/C7H12N2/c1-5-7(4-8)6(2)9(5)3/h5-7H,1-3H3/t5-,6+,7+
