18
gdb 32212	2.7097	1.43495	1.01247	2.9645	81.19	-0.244	-0.0054	0.2386	1183.2688	0.149466	-402.018953	-402.010763	-402.009819	-402.05174	31.27	
C	 0.0310763953	 1.5921599265	 0.0811078093	-0.375176
C	 0.0021235856	 0.0553748212	-0.0265899205	-0.339885
C	 0.7210574384	-0.4792551576	-1.2429615097	 0.151525
C	 0.0211944241	-0.9083649273	-2.3714464585	-0.053227
N	 0.5693609455	-1.3694692414	-3.4965875469	-0.288369
C	 1.9048993931	-1.4219259302	-3.5269085887	 0.005194
C	 2.7206941146	-1.03504756	-2.4732716837	-0.199684
C	 2.1208134883	-0.5543316468	-1.311252431	 0.320135
O	 2.9342765796	-0.1812983411	-0.2902627237	-0.429912
H	 1.0556534271	 1.9774640913	 0.1192433894	 0.119694
H	-0.4527755494	 2.0459846905	-0.7884804484	 0.134019
H	-0.4912715309	 1.9315881913	 0.980766438	 0.120318
H	 0.4193713341	-0.3869804712	 0.8907723913	 0.100451
H	-1.0385658404	-0.2834403972	-0.0588331332	 0.119764
H	-1.0677016767	-0.8739313868	-2.3512800204	 0.09903
H	 2.3508522984	-1.7972649647	-4.4449703882	 0.107449
H	 3.8005046587	-1.0995459497	-2.5354817055	 0.106237
H	 2.4015296647	 0.0902248832	 0.4642520303	 0.302437
85.1842	129.4598	209.8067	226.9987	317.2383	340.0129	382.9904	428.5038	483.094	538.3797	591.4768	623.887	758.4488	780.1978	793.9771	861.6922	868.4106	956.3141	969.856	992.6391	1062.9227	1068.0378	1083.4615	1163.323	1216.6504	1240.4182	1272.9793	1313.9719	1338.4613	1352.4402	1368.3315	1412.9548	1451.762	1490.5167	1496.9641	1510.8538	1526.5564	1614.2371	1649.8423	2992.111	3036.8403	3066.5308	3105.2839	3117.1074	3130.5008	3155.8888	3205.3369	3825.0631
CCC1=CN=CC=C1O	CCc1cnccc1O	
InChI=1S/C7H9NO/c1-2-6-5-8-4-3-7(6)9/h3-5H,2H2,1H3,(H,8,9)	InChI=1S/C7H9NO/c1-2-6-5-8-4-3-7(6)9/h3-5H,2H2,1H3,(H,8,9)
