17
gdb 123873	5.11646	1.08622	0.92494	4.0012	76.08	-0.1964	0.0074	0.2037	1231.9923	0.138866	-414.161481	-414.153932	-414.152988	-414.194216	28.011	
C	-0.1149371421	 1.5611229573	-0.0005602894	-0.235251
C	 1.4227801071	 1.5116386527	-0.2080975259	-0.158745
N	 1.4171084339	 0.1530188535	 0.3657509268	-0.150773
C	-0.0461616568	 0.0358590793	 0.2744436704	-0.171658
C	 2.2906574003	-0.8303996739	-0.0357083858	 0.375027
C	 2.1611617041	-2.2060029415	 0.0051067485	-0.202223
N	 3.3521267779	-2.6424393583	-0.4902843488	-0.146613
N	 4.1601438272	-1.6322383887	-0.8184574051	-0.114662
N	 3.5199157009	-0.5243848389	-0.5468077035	-0.272774
H	-0.4166084511	 2.142951264	 0.8716857285	 0.116402
H	-0.7089030669	 1.8686805227	-0.8609867346	 0.112455
H	 1.7314778186	 1.5298126731	-1.2607725918	 0.114052
H	 2.0300280138	 2.2319182275	 0.3469412367	 0.116129
H	-0.5318612266	-0.3328343657	 1.1845163015	 0.106635
H	-0.3759663286	-0.5796643672	-0.5762015255	 0.096123
H	 1.380676573	-2.8696914315	 0.3317987563	 0.135908
H	 3.6668150954	-3.5891521945	-0.6280144283	 0.279968
74.0621	100.6797	161.5953	190.6063	362.2229	457.1569	491.1844	542.2821	674.9815	699.9341	742.6188	755.8323	848.6305	882.8338	940.9739	946.002	987.1683	1009.9735	1063.7912	1112.7594	1120.4431	1138.8747	1142.7133	1158.7824	1203.1384	1223.922	1268.9907	1280.4295	1293.9261	1346.3593	1351.0229	1365.865	1491.0049	1504.9247	1512.526	1536.7508	1627.5851	2986.3206	3026.9811	3053.7962	3082.0673	3091.5996	3145.9551	3294.2392	3661.4827
C1CN(C1)C1=CNN=N1	C1CN(C1)c1c[nH]nn1	
InChI=1S/C5H8N4/c1-2-9(3-1)5-4-6-8-7-5/h4H,1-3H2,(H,6,7,8)	InChI=1S/C5H8N4/c1-2-9(3-1)5-4-6-8-7-5/h4H,1-3H2,(H,6,7,8)
