20
gdb 82400	2.37459	1.78273	1.21604	3.1113	79.65	-0.252	0.0315	0.2835	1078.4991	0.172835	-403.159519	-403.151389	-403.150445	-403.192083	31.986	
C	-0.4331589636	 1.3991302524	 0.0032031718	-0.38461
C	 0.127202821	-0.0260479223	 0.0084444517	-0.085826
C	 0.8943882395	-0.3576283108	-1.2668397986	-0.021505
C	 2.3961617199	-0.1952811293	-1.3362018437	-0.300879
C	 1.7802977169	-1.5672051061	-1.2138779673	-0.054375
C	 1.7948339224	-2.2856324601	 0.1154862014	-0.101464
O	 1.7881434863	-1.3917782248	 1.2324684062	-0.255016
C	 0.9632728702	-0.3001892662	 1.2476279577	 0.384962
N	 0.9176721961	 0.4518197628	 2.2657448357	-0.519126
H	 0.3772303743	 2.1310119179	-0.0531871861	 0.125837
H	-1.087936961	 1.5393647029	-0.8630401528	 0.099878
H	-0.9984129306	 1.5988949433	 0.9141097881	 0.13956
H	-0.7227576082	-0.7264044906	 0.0557724019	 0.099506
H	 0.3360142241	-0.1700297793	-2.1790317063	 0.087581
H	 2.8303280424	 0.0753922802	-2.291868078	 0.113265
H	 2.915438563	 0.2176139871	-0.4780899094	 0.134825
H	 1.82279964	-2.2281750455	-2.0744227989	 0.091267
H	 0.9318500506	-2.9642696389	 0.1853893288	 0.108572
H	 2.7005722988	-2.8857438131	 0.2449093381	 0.120998
H	 1.5363850877	 0.0884800404	 2.9938698896	 0.216549
77.4926	151.1252	219.9832	254.1337	303.0634	313.1593	413.2562	448.9712	506.2828	531.0218	641.0666	715.0539	753.6522	784.6966	837.9625	871.7511	912.3622	925.8185	956.5798	999.3634	1032.4921	1067.9655	1076.6995	1090.6283	1096.0873	1122.2386	1129.3741	1160.0102	1173.3219	1214.3076	1276.0041	1291.928	1324.5856	1334.2648	1376.9461	1410.0823	1423.996	1427.8985	1487.6062	1495.5723	1497.9968	1515.2999	1741.1675	2973.959	2997.8162	3045.0978	3077.7254	3113.9752	3138.127	3146.5434	3146.9211	3156.8134	3223.4185	3461.9388
CC1C2CC2COC1=N	C[C@H]1[C@H]2C[C@H]2CO[C]1[NH]	
InChI=1S/C7H11NO/c1-4-6-2-5(6)3-9-7(4)8/h4-6,8H,2-3H2,1H3	InChI=1S/C7H11NO/c1-4-6-2-5(6)3-9-7(4)8/h4-6,8H,2-3H2,1H3/t4-,5-,6+/m0/s1
