20
gdb 60853	2.72988	1.1323	1.01738	2.4343	76.25	-0.2344	-0.0359	0.1985	1271.6371	0.167653	-440.262698	-440.252679	-440.251735	-440.2976	36.585	
C	-0.3587068834	 1.4084097649	 0.2088567898	-0.317282
N	-0.0511904827	-0.0142676939	 0.23292899	-0.114437
C	 1.2273454333	-0.4516274762	-0.3186015592	-0.294699
C	 0.9678942898	-0.5373981265	 1.1485070083	 0.289223
C	 1.7351102717	 0.3442032796	 2.1139952179	-0.482618
C	 0.5579351729	-1.900143013	 1.7267668215	 0.013115
O	 1.6487421733	-2.5958088782	 2.2638435286	-0.436166
C	-0.5176806544	-1.7146888664	 2.7794161921	 0.130806
O	-0.3894245955	-2.1468592008	 3.9009155104	-0.269799
H	 0.5173581392	 2.0683000683	 0.2932982337	 0.105302
H	-0.8628249788	 1.6383776652	-0.7350405113	 0.129272
H	-1.047921645	 1.6472575647	 1.0253911406	 0.122619
H	 1.2050184489	-1.3413730876	-0.9435725635	 0.116907
H	 1.9260847628	 0.3172024873	-0.6469230045	 0.108472
H	 2.139255743	 1.2350119626	 1.6301505027	 0.12177
H	 1.1056778902	 0.6674341372	 2.9518393414	 0.122706
H	 2.5689018111	-0.2288683671	 2.5265976339	 0.148988
H	 0.0883859465	-2.4682072359	 0.9056781034	 0.098033
H	 1.3981538247	-2.8025997666	 3.1790302043	 0.294208
H	-1.4216322477	-1.1630891776	 2.4583538302	 0.113578
61.9551	100.1428	160.512	165.0447	195.8557	255.1129	267.9993	296.1431	314.1349	362.7446	441.8042	468.8562	489.9523	537.3224	707.641	773.0162	775.3282	839.9929	915.5568	947.4007	998.0567	1022.2989	1067.2288	1085.1839	1119.1672	1146.4873	1157.6653	1174.3223	1212.1452	1245.5878	1302.8713	1312.734	1377.813	1388.7131	1412.5968	1436.4817	1449.3366	1484.0098	1487.8822	1499.1883	1510.0062	1514.0411	1806.4892	2956.8621	2971.9299	2989.5815	3035.5328	3069.764	3085.4612	3101.6376	3108.393	3136.8176	3170.605	3677.9124
CN1CC1(C)C(O)C=O	CN1C[C@]1(C)[C@@H](O)C=O	
InChI=1S/C6H11NO2/c1-6(4-7(6)2)5(9)3-8/h3,5,9H,4H2,1-2H3	InChI=1S/C6H11NO2/c1-6(4-7(6)2)5(9)3-8/h3,5,9H,4H2,1-2H3/t5-,6+,7?/m0/s1
