19
gdb 31261	2.10639	1.55319	0.94622	0.8635	80.14	-0.1634	0.0557	0.2191	1263.619	0.159511	-419.213242	-419.203664	-419.20272	-419.248225	34.639	
C	-0.2802734115	 1.081127609	 0.0314211384	-0.316617
N	-0.1144843239	-0.3583075597	-0.0824105259	-0.402123
C	 0.686723693	-0.8246050944	-1.1426727257	 0.207252
C	 1.1613985615	-2.1148612724	-1.2597145379	 0.250655
N	 1.859377757	-2.2160948805	-2.4436714823	-0.293972
C	 1.8467875989	-1.0044978239	-3.0823299552	-0.095329
C	 1.1250924297	-0.1228191146	-2.3063529227	-0.235307
O	 1.0559672373	-3.1759975029	-0.4157914069	-0.277629
C	-0.2388444295	-3.7878509118	-0.4087623271	-0.253728
H	 0.6686382729	 1.6401097286	 0.0906895102	 0.104768
H	-0.8355024999	 1.4585184681	-0.8338566322	 0.128673
H	-0.8698913736	 1.302926438	 0.9248952281	 0.115477
H	 0.1798227563	-0.7695886382	 0.7945063905	 0.230908
H	 2.355085651	-3.0409829244	-2.7318319654	 0.26007
H	 2.3572758689	-0.8616594053	-4.0201997167	 0.113408
H	 0.9332282524	 0.9110850181	-2.5453678323	 0.088697
H	-0.4776609161	-4.2132080737	-1.3914353099	 0.113965
H	-0.2027579646	-4.5870505433	 0.3352199173	 0.123766
H	-1.0122599799	-3.0614506766	-0.1360169941	 0.137067
40.9447	96.451	148.8383	166.6324	198.2556	219.9058	296.4232	318.4585	398.5928	425.8323	509.9629	612.5581	632.4431	643.5966	661.6261	737.7523	776.1104	794.312	910.901	1010.8978	1053.8433	1099.999	1106.8976	1146.453	1156.0699	1176.9434	1201.535	1232.6995	1263.6256	1342.108	1419.374	1457.5454	1459.4908	1476.924	1486.0119	1488.9513	1505.9342	1507.2176	1519.6822	1532.2478	1657.5307	2962.8089	3013.7375	3062.8925	3083.9438	3110.4949	3125.3287	3252.8542	3275.1402	3549.7678	3688.6042
CNC1=C(NC=C1)OC	CNc1c([nH]cc1)OC	
InChI=1S/C6H10N2O/c1-7-5-3-4-8-6(5)9-2/h3-4,7-8H,1-2H3	InChI=1S/C6H10N2O/c1-7-5-3-4-8-6(5)9-2/h3-4,7-8H,1-2H3
