21
gdb 113729	2.53664	1.12739	0.88581	1.7572	84.59	-0.2584	0.0522	0.3106	1409.5859	0.17931	-387.040191	-387.029766	-387.028822	-387.076354	37.831	
C	-0.2825815536	 1.5431885098	 0.4060991655	-0.373737
C	 0.285609481	 0.2398536845	-0.1697573782	-0.229223
C	 1.0862102792	-0.5188522856	 0.8608065926	 0.061534
O	 0.3822363616	-1.166913769	 1.9355317703	-0.253079
C	 1.1348449096	-1.9787857004	 1.0399952937	 0.070768
C	 0.418199002	-3.0550142016	 0.2161521733	-0.207763
C	 0.5477959427	-4.4224426907	 0.9289401554	-0.389348
C	-0.9904818187	-2.782538155	-0.0617656454	 0.330809
C	-2.1634254805	-2.650878003	-0.2895159899	-0.453985
H	 0.5141278283	 2.1973958192	 0.7777640573	 0.111726
H	-0.8427722398	 2.0964778545	-0.3532978773	 0.111687
H	-0.9570943499	 1.3296333294	 1.2404384052	 0.135223
H	-0.523550279	-0.3837342956	-0.5528772507	 0.126559
H	 0.9522326335	 0.4639081872	-1.0134017512	 0.095221
H	 1.9694666949	 0.0243457065	 1.2111797166	 0.083538
H	 2.0564491397	-2.3738886841	 1.4766810791	 0.084662
H	 0.9523058339	-3.1264615058	-0.7428839708	 0.114012
H	 1.6020448484	-4.6786695318	 1.0721530061	 0.115025
H	 0.0614542295	-4.3875140171	 1.9075755017	 0.141439
H	 0.075447085	-5.2102948988	 0.3378993113	 0.127972
H	-3.1969399878	-2.5058512924	-0.4855874147	 0.196963
32.2443	63.1452	140.4785	161.3794	194.3339	217.3898	230.4765	271.2397	300.1503	353.0362	453.376	515.322	577.6725	627.9872	641.0911	660.6007	736.7549	760.1145	840.0109	862.0348	946.5016	964.5694	1011.4299	1043.2055	1048.9002	1080.3517	1111.3747	1147.2788	1170.3373	1194.4635	1291.5661	1299.845	1308.0699	1346.2255	1351.299	1400.7294	1407.893	1419.7573	1479.6976	1490.5912	1493.1085	1498.3574	1500.9933	1509.2051	2235.0464	2998.8516	3025.2298	3034.5334	3043.2057	3052.9624	3068.6301	3096.3943	3115.8	3118.8871	3128.1786	3131.5782	3504.0504
CCC1OC1C(C)C#C	CC[C@H]1O[C@H]1[C@@H](C)C#C	
InChI=1S/C8H12O/c1-4-6(3)8-7(5-2)9-8/h1,6-8H,5H2,2-3H3	InChI=1S/C8H12O/c1-4-6(3)8-7(5-2)9-8/h1,6-8H,5H2,2-3H3/t6-,7+,8-/m0/s1
