21
gdb 77469	1.8972	1.50643	1.41371	1.9119	79.43	-0.221	0.074	0.295	1147.1104	0.179578	-424.193851	-424.183874	-424.18293	-424.227755	37.638	
C	 0.1193209508	 1.6538838111	-0.3728654582	-0.427099
C	 0.2059348482	 0.1533063212	-0.1879911457	-0.136879
C	 1.460001277	-0.6630949321	-0.39270849	 0.390822
C	 1.6999938171	-1.7250012894	-1.4144065436	-0.489915
O	 2.5986638268	 0.0794624085	 0.0836974585	-0.343098
C	 2.1350139661	-0.0384828732	 1.4648717685	 0.10395
C	 2.2384082822	 1.2291582886	 2.2887088136	-0.429486
C	 0.8118057786	-0.6249613308	 0.9745763779	 0.208991
O	 0.133034507	-1.6289904531	 1.6434708194	-0.457958
H	 1.108693865	 2.1085547548	-0.2952288765	 0.139911
H	-0.2760679228	 1.888066863	-1.3672325851	 0.113949
H	-0.5412659981	 2.1259290478	 0.362910519	 0.108629
H	-0.6640983796	-0.3982187042	-0.5451259587	 0.088017
H	 2.0064295231	-1.2860362222	-2.3706898993	 0.128367
H	 2.4886487868	-2.4096467945	-1.0870643305	 0.129381
H	 0.7857894362	-2.3013819319	-1.5826335749	 0.127756
H	 2.7055434244	-0.8421071686	 1.9523042188	 0.086915
H	 1.6428288656	 2.0454994582	 1.8773706951	 0.124176
H	 1.8960291133	 1.0291396428	 3.3102371693	 0.117635
H	 3.2815490348	 1.557098862	 2.3465629081	 0.128081
H	-0.6378681525	-1.2422443278	 2.0723699042	 0.287854
154.8202	159.8152	177.1015	190.2596	201.2616	216.7656	238.4204	275.24	289.7337	351.4249	359.3082	474.2362	553.9051	602.1654	624.9417	704.9405	755.265	770.8026	861.5967	907.6008	939.1781	994.2028	1065.4224	1083.0515	1094.1291	1114.0301	1126.6924	1131.1938	1182.7898	1215.9019	1238.847	1305.0813	1322.0049	1350.8462	1393.4252	1405.2427	1408.4734	1413.4724	1472.8949	1483.2209	1491.0859	1495.6362	1497.3705	1511.6077	1530.2804	3003.0136	3031.2528	3032.6155	3040.1915	3085.3306	3095.2948	3100.2802	3111.1085	3117.8022	3132.8239	3143.165	3796.8619
CC1C2(C)OC(C)C12O	C[C@H]1[C@@]2(C)O[C@@H](C)[C@@]12O	
InChI=1S/C7H12O2/c1-4-6(3)7(4,8)5(2)9-6/h4-5,8H,1-3H3	InChI=1S/C7H12O2/c1-4-6(3)7(4,8)5(2)9-6/h4-5,8H,1-3H3/t4-,5-,6+,7-/m0/s1
