21
gdb 118729	2.64243	1.09974	0.91584	2.1489	78.18	-0.2324	0.0744	0.3068	1350.0778	0.181473	-424.180788	-424.171256	-424.170312	-424.215317	35.923	
O	-0.0032929415	 1.4628751322	 0.2322225692	-0.422035
C	-0.0717923748	 0.0487466247	 0.3484473277	-0.060549
C	-1.3772484993	-0.5223708253	-0.2167947047	-0.272614
C	-1.4650712064	-2.0236054256	-0.0729442963	 0.462401
O	-0.4614050326	-2.6118242069	-0.8756823348	-0.492204
C	-1.7504117929	-2.7569274305	 1.2113082612	-0.142315
C	-2.8216885426	-2.0632517226	 2.0604052592	-0.241687
C	-3.8183135379	-2.1413447637	 0.8561740757	-0.239889
C	-2.7375264378	-2.8245870036	 0.0142022	-0.147933
H	 0.0424159118	 1.6758411099	-0.7052009928	 0.279693
H	 0.7858644089	-0.4405713282	-0.1320565324	 0.106019
H	-0.0085836636	-0.1635847387	 1.4212468244	 0.110011
H	-2.2188742535	-0.0339975044	 0.2808562728	 0.110299
H	-1.4497962139	-0.2767333704	-1.2850493337	 0.09402
H	-0.4574685633	-3.5618886128	-0.7185369185	 0.2805
H	-1.052873727	-3.5043764052	 1.5767610532	 0.078125
H	-3.1503020254	-2.675728082	 2.9027178176	 0.106797
H	-2.572263534	-1.0668192997	 2.4385665733	 0.104629
H	-4.6613611191	-2.8023410573	 1.0689190912	 0.105824
H	-4.2140066576	-1.1965379397	 0.4701114128	 0.101302
H	-2.9085288776	-3.6287771401	-0.694318525	 0.079605
74.3581	80.7569	138.1282	215.8068	232.2804	246.4293	300.8521	317.1744	371.6518	404.658	484.6125	501.2599	690.0371	741.5409	782.1638	787.2713	853.7309	891.3758	927.9234	977.1382	979.9499	993.5478	1028.3813	1035.9308	1043.6437	1072.7243	1098.203	1115.2354	1141.2524	1167.9941	1221.5167	1224.9201	1257.2035	1259.4852	1288.2536	1299.6375	1316.6828	1359.5964	1396.5827	1416.2163	1462.2697	1478.7032	1488.3275	1508.3257	1515.6847	3017.98	3021.3533	3047.3955	3055.0068	3072.3818	3094.7706	3103.5213	3113.8777	3149.8022	3162.9657	3812.579	3816.2902
OCCC1(O)C2CCC12	OCC[C@@]1(O)[C@H]2CC[C@@H]12	
InChI=1S/C7H12O2/c8-4-3-7(9)5-1-2-6(5)7/h5-6,8-9H,1-4H2	InChI=1S/C7H12O2/c8-4-3-7(9)5-1-2-6(5)7/h5-6,8-9H,1-4H2/t5-,6+,7+
