14
gdb 133302	2.3126	1.89987	1.04519	4.7386	72.58	-0.2002	-0.0303	0.1699	1043.8472	0.102474	-474.146965	-474.139219	-474.138275	-474.179033	29.415	
N	 0.0904345119	 1.3852037989	 0.1439282408	-0.589232
C	-0.0041300945	-0.0003792217	 0.0506655666	 0.282202
C	-1.1722769387	-0.6943009274	 0.0282138245	 0.17436
F	-2.3173092732	 0.000452502	 0.0196539642	-0.074363
C	-1.2063812505	-2.1356235414	 0.0019550367	 0.178633
N	-2.3108684114	-2.8005096164	-0.0206927176	-0.565173
C	 0.1534991207	-2.6973250989	-0.0133533228	-0.052731
N	 1.2670962275	-2.0391399313	 0.0070598441	-0.192207
N	 1.1809905291	-0.6962009188	 0.022354245	-0.295182
H	 0.7022976687	 1.7997320879	-0.5496344006	 0.258334
H	-0.8246344533	 1.8154830647	 0.1059162652	 0.27122
H	-2.1118901409	-3.8023863486	-0.0541001721	 0.204639
H	 0.2558348043	-3.779473618	-0.0372111315	 0.124259
H	 2.0486501403	-0.2169986809	 0.2001791077	 0.275241
117.1016	184.2174	262.5243	291.8419	304.0128	310.0737	395.5897	491.352	510.3846	567.9043	580.1517	594.6789	684.3088	732.7425	773.5992	824.8254	867.6744	926.6496	1044.8133	1090.136	1164.7589	1219.5657	1280.5173	1361.9856	1376.7925	1425.5913	1526.4875	1616.7929	1642.402	1677.5326	1714.6598	3165.4118	3445.8776	3529.9434	3629.5467	3648.2531
NC1=C(F)C(=N)C=NN1	N[C@@H]1C(=C([NH])C=NN1)F	
InChI=1S/C4H5FN4/c5-3-2(6)1-8-9-4(3)7/h1H,(H4,6,7,9)	InChI=1S/C4H6FN4/c5-3-2(6)1-8-9-4(3)7/h1,4,6,9H,7H2/t4-/m0/s1
