23
gdb 108871	2.93092	1.05701	0.84877	1.2867	89.64	-0.2329	0.0248	0.2577	1466.991	0.20591	-388.312844	-388.303255	-388.302311	-388.347386	36.286	
C	-0.2753665252	 1.565989252	-0.0158588048	-0.371871
C	 0.0572557298	 0.0644689658	 0.0431973411	-0.273415
C	 0.7782826782	-0.449309834	-1.1794446532	 0.301025
C	 2.0687644026	-0.7883456725	-1.1631415752	-0.170608
C	 2.8062472955	-1.3431173291	-2.3572914494	 0.100223
C	 3.5954488606	-2.6048859981	-2.0131912007	-0.393321
O	 1.9291335052	-1.6859577375	-3.4209828857	-0.261514
C	 0.939839211	-0.703007857	-3.6591810611	-0.081843
C	-0.0075410413	-0.5769735331	-2.4658891623	-0.299466
H	 0.6381584323	 2.1628443932	-0.1009377971	 0.119339
H	-0.9135261177	 1.8086314921	-0.871407888	 0.117935
H	-0.8044808918	 1.8812572377	 0.8888923308	 0.113635
H	 0.6675762175	-0.1331716646	 0.9313814291	 0.099236
H	-0.8768888625	-0.499801345	 0.1752446283	 0.099264
H	 2.6537015643	-0.6821997087	-0.2513194673	 0.077555
H	 3.520705956	-0.576304182	-2.7166420731	 0.067664
H	 2.9236839195	-3.3795036754	-1.6325068152	 0.123242
H	 4.0982112236	-2.9865512351	-2.9059389608	 0.122326
H	 4.3508900801	-2.3899445102	-1.251422282	 0.110827
H	 1.4104236437	 0.273372085	-3.8639083661	 0.085916
H	 0.407419931	-1.0150983135	-4.5624903796	 0.102073
H	-0.6673176458	-1.4543984657	-2.4137723767	 0.112161
H	-0.6635539366	 0.2911102956	-2.6081154311	 0.099617
65.5025	96.0707	131.9847	203.4555	232.4476	261.66	289.8274	308.0736	382.1964	444.8589	469.6238	532.8151	578.8644	654.5782	779.6451	797.8088	834.776	873.8867	902.1794	935.2165	966.7643	1006.5711	1029.122	1062.4799	1082.4793	1102.6872	1107.6983	1129.175	1177.0651	1192.4114	1236.9962	1276.3253	1294.1742	1327.9012	1350.0696	1351.1881	1368.1576	1384.5912	1402.9131	1407.903	1419.8349	1467.8634	1481.7866	1484.6391	1496.609	1499.2835	1502.1296	1507.4737	1736.1237	2901.5292	2965.2534	3006.6292	3012.036	3036.0429	3042.597	3050.5201	3060.6931	3081.0807	3105.5144	3109.4639	3118.6654	3123.477	3142.6149
CCC1=CC(C)OCC1	CCC1=C[C@@H](C)OCC1	
InChI=1S/C8H14O/c1-3-8-4-5-9-7(2)6-8/h6-7H,3-5H2,1-2H3	InChI=1S/C8H14O/c1-3-8-4-5-9-7(2)6-8/h6-7H,3-5H2,1-2H3/t7-/m1/s1
