15
gdb 51937	5.2078	0.52856	0.50817	0.6192	76.21	-0.2627	0.0038	0.2665	2051.3854	0.111463	-416.810819	-416.801096	-416.800151	-416.848904	32.085	
O	-0.3291689457	 1.3397335952	-0.891983284	-0.316427
C	 0.0876328264	 1.6423598043	 0.2049482092	 0.162347
N	 1.3742176047	 1.484418038	 0.6229160108	-0.269564
C	 2.4152197879	 0.982477804	-0.2639860909	-0.294807
C	 3.5396561553	 1.9058888695	-0.3920547163	 0.086725
C	 4.4687689651	 2.6643235533	-0.4715652796	 0.074391
C	 5.596653181	 3.5862320588	-0.5813596533	-0.470986
C	 6.2659647607	 3.8264648576	 0.7043613217	 0.277596
N	 6.7946340778	 4.0216840908	 1.7119271908	-0.297697
H	-0.5492946482	 2.0781872648	 0.99839033	 0.086561
H	 1.6364933342	 1.8134303652	 1.5384305533	 0.259423
H	 2.7778318595	 0.0063217612	 0.0837248699	 0.146909
H	 1.9295621499	 0.8212963211	-1.2318375747	 0.182389
H	 6.3399456724	 3.1972332575	-1.2890537965	 0.186856
H	 5.267750399	 4.5527654888	-0.9840415603	 0.186284
11.3249	28.5316	74.2723	119.1159	217.7935	260.8033	266.1421	321.9106	373.908	383.4406	477.9238	525.5728	597.8048	741.4249	823.53	928.0648	935.5966	968.2194	1032.7278	1042.5337	1162.5098	1203.0663	1234.1764	1263.9802	1337.5207	1374.0408	1425.9075	1446.6268	1477.676	1521.8026	1805.7715	2371.1414	2384.0792	2952.2123	3020.7116	3027.9482	3058.6519	3087.6749	3640.4454
O=CNCC#CCC#N	O=CNCC#CCC#N	
InChI=1S/C6H6N2O/c7-4-2-1-3-5-8-6-9/h6H,2,5H2,(H,8,9)	InChI=1S/C6H6N2O/c7-4-2-1-3-5-8-6-9/h6H,2,5H2,(H,8,9)
