23
gdb 104085	2.3116	1.40101	1.13725	1.2768	86.	-0.2328	0.0295	0.2623	1215.4022	0.205303	-388.30326	-388.293537	-388.292593	-388.337106	37.75	
C	 0.465286005	 1.6110171958	-0.3522951097	-0.404096
C	 0.0220944379	 0.2117833802	 0.1116310084	-0.067215
C	 0.2387856815	-0.815333903	-0.9796424028	-0.066353
C	 1.2226379729	-1.6642197228	-0.6917969338	-0.072769
C	 1.8245674927	-1.390553526	 0.6626017543	-0.289284
C	 0.8182299186	-0.3995665953	 1.3238588081	 0.298753
C	 1.5137515198	 0.6228574864	 2.2289420915	-0.452144
C	-0.195102332	-1.2034765714	 2.158013554	-0.10513
O	 0.4888760534	-1.8928392901	 3.1970142262	-0.426732
H	 1.5245717897	 1.6243411606	-0.6277904105	 0.117873
H	-0.1070827212	 1.9124673737	-1.2361023194	 0.10872
H	 0.3030281203	 2.3668559316	 0.4219770318	 0.113442
H	-1.0436878721	 0.2839793038	 0.3746457135	 0.062477
H	-0.3265880744	-0.7965315592	-1.9060148262	 0.08428
H	 1.5795613908	-2.4545792513	-1.3438238527	 0.086808
H	 1.9521650662	-2.2884228441	 1.2755080529	 0.117024
H	 2.8234015636	-0.9430269052	 0.5635620403	 0.095267
H	 2.2665181982	 1.1988868856	 1.6839200188	 0.108028
H	 0.795593041	 1.3295058944	 2.6610413016	 0.10347
H	 2.0096173368	 0.1099269164	 3.0569119081	 0.131515
H	-0.9406435328	-0.5086773949	 2.5778764511	 0.080632
H	-0.7262785018	-1.9092546965	 1.5015943293	 0.088729
H	-0.1489926042	-2.4362055886	 3.6675316452	 0.286704
82.2388	141.2406	202.3342	226.0193	251.0041	262.0439	275.7349	301.0781	332.5218	366.707	384.568	504.0807	510.1311	626.1175	734.1794	747.3267	775.0742	850.9348	910.1349	941.2984	960.4881	970.9682	977.9395	994.0357	1029.5644	1055.3911	1085.5977	1105.3946	1135.4191	1141.3797	1165.1867	1197.5371	1241.0923	1265.8248	1288.0591	1303.0606	1341.0247	1363.0604	1370.3676	1401.7158	1411.2954	1450.1746	1486.0365	1492.2069	1495.9253	1503.1772	1511.3214	1516.7815	1690.4866	2962.2709	2987.4614	3006.2379	3009.6239	3030.6491	3034.819	3075.5229	3097.0265	3099.2998	3109.6372	3121.9053	3171.0509	3197.6097	3839.4013
CC1C=CCC1(C)CO	C[C@H]1C=CC[C@]1(C)CO	
InChI=1S/C8H14O/c1-7-4-3-5-8(7,2)6-9/h3-4,7,9H,5-6H2,1-2H3	InChI=1S/C8H14O/c1-7-4-3-5-8(7,2)6-9/h3-4,7,9H,5-6H2,1-2H3/t7-,8+/m0/s1
