16
gdb 47003	2.79595	1.83294	1.45366	2.5951	63.78	-0.2438	0.0188	0.2626	910.5895	0.127685	-475.061126	-475.05426	-475.053316	-475.09255	26.612	
O	-0.0060317425	-0.0554903745	-0.0286136097	-0.376766
C	-0.0346128225	 1.1585524939	 0.0090468114	 0.406241
N	-1.1855727941	 1.891055746	 0.0499953912	-0.322695
C	-1.256264718	 3.3452459898	 0.1143670653	-0.172997
C	 0.149247228	 3.9289274605	-0.0653953072	 0.189184
O	 0.5930183074	 3.7764844125	-1.4065908504	-0.273851
C	 1.4255085607	 2.6126308938	-1.4440063724	-0.096015
C	 1.23178763	 2.0200020269	-0.037837448	-0.07397
O	 1.0529605881	 3.2086771362	 0.7400836898	-0.243527
H	-2.0388661823	 1.3535257221	 0.0975658177	 0.253026
H	-1.9056001993	 3.7365096451	-0.676894742	 0.125087
H	-1.6577739468	 3.671489967	 1.0832223222	 0.117146
H	 0.1801410684	 4.9857982962	 0.2122910275	 0.102879
H	 1.0969901566	 1.942836761	-2.2436458981	 0.131221
H	 2.4685128032	 2.9034037709	-1.6136067202	 0.114711
H	 2.0777456429	 1.4533807527	 0.3461240729	 0.120327
101.8777	172.3966	234.1819	355.2509	427.4842	444.3298	516.3019	557.5631	689.5005	710.0805	761.4702	832.6019	852.2786	892.2005	932.9007	960.1939	1008.8468	1037.8027	1041.427	1056.9489	1111.9361	1150.2706	1197.8232	1242.2908	1266.889	1296.4729	1327.856	1329.5081	1361.9595	1384.75	1403.8351	1477.4585	1517.3614	1522.4465	1807.2447	3013.6382	3036.1037	3065.0457	3088.5462	3096.5941	3151.9794	3611.529
O=C1NCC2OCC1O2	O=C1NC[C@@H]2OC[C@H]1O2	
InChI=1S/C5H7NO3/c7-5-3-2-8-4(9-3)1-6-5/h3-4H,1-2H2,(H,6,7)	InChI=1S/C5H7NO3/c7-5-3-2-8-4(9-3)1-6-5/h3-4H,1-2H2,(H,6,7)/t3-,4-/m1/s1
