19
gdb 85541	2.4494	1.69521	1.09052	3.2105	78.19	-0.219	0.0303	0.2494	1123.106	0.160255	-419.188579	-419.180458	-419.179514	-419.221225	31.431	
C	 0.1208553184	 1.3474828943	-0.1975425808	-0.323795
N	-0.0495215941	-0.0670774572	 0.0721229931	-0.071027
C	-1.4322586528	-0.5280591293	 0.0472353536	-0.243571
C	-1.4680678638	-2.04116169	 0.0276505779	 0.407058
N	-2.3500806668	-2.6721556844	-0.6204845778	-0.519826
O	-0.4783809815	-2.6889188195	 0.717192509	-0.243696
C	 0.3360608443	-1.9496297072	 1.5966394585	 0.080371
C	 1.7117663182	-1.5358433618	 1.1505492397	-0.322552
C	 0.5985627292	-0.5116475074	 1.2727122684	-0.011828
H	 1.1883218988	 1.5835748451	-0.2426228137	 0.12774
H	-0.3247412634	 1.5951901978	-1.1656726572	 0.125991
H	-0.3412291207	 1.9981159435	 0.5689212518	 0.095947
H	-2.0211182657	-0.1566882076	 0.9087256553	 0.100265
H	-1.9302514635	-0.1840772368	-0.8605439535	 0.138812
H	-2.2239593023	-3.6793697538	-0.4987178509	 0.219653
H	 0.1861285619	-2.2472502295	 2.6295764879	 0.10917
H	 2.5071364793	-1.5463290466	 1.8875955292	 0.115965
H	 1.9948975512	-1.8024744946	 0.1393348116	 0.134051
H	 0.6252745933	 0.1928727449	 2.1082131981	 0.081273
90.4743	131.765	212.0954	232.421	315.9815	323.9232	420.1133	455.0555	483.9718	499.5954	604.783	704.2536	749.4238	820.957	840.1473	901.2107	913.4681	975.8935	1023.0354	1030.155	1043.0925	1066.0057	1085.1188	1104.4301	1131.86	1155.9165	1170.0782	1183.642	1245.8321	1274.734	1302.7211	1308.1059	1367.8281	1388.7791	1414.6773	1455.89	1470.3686	1484.3574	1499.097	1507.7389	1763.095	2912.3033	2930.4328	3057.0092	3065.1206	3110.1614	3119.4599	3139.7074	3155.7619	3239.5503	3462.1752
CN1CC(=N)OC2CC12	CN1C[C]([NH])O[C@H]2C[C@@H]12	
InChI=1S/C6H10N2O/c1-8-3-6(7)9-5-2-4(5)8/h4-5,7H,2-3H2,1H3	InChI=1S/C6H10N2O/c1-8-3-6(7)9-5-2-4(5)8/h4-5,7H,2-3H2,1H3/t4-,5+/m1/s1
