16
gdb 46647	2.4336	1.55811	1.41283	2.2104	74.54	-0.2424	-0.0308	0.2116	995.9984	0.123992	-400.710649	-400.702892	-400.701948	-400.742997	29.847	
O	 0.077321735	 0.0190625271	 0.1853440058	-0.314536
C	-0.025964179	 1.1981058666	-0.0302013034	 0.426929
C	-1.2994422416	 1.9544832099	-0.4275939576	-0.352811
C	-0.8025686298	 3.3207201496	-0.937860206	-0.16619
N	 0.6479219242	 3.4649391457	-0.6118471818	-0.119581
C	 0.9510023343	 3.417438962	 0.8279892551	-0.197877
C	-0.0493788045	 3.551077641	 1.8496175644	 0.352336
C	-0.8612754281	 3.7238870702	 2.7203985049	-0.454533
C	 1.1040275529	 2.1908055573	-0.0385523605	-0.172535
H	-1.8342795245	 1.3812514276	-1.1883594373	 0.137048
H	-1.9492691984	 2.0282130695	 0.4486570596	 0.149497
H	-0.876898959	 3.3859017306	-2.0260950206	 0.122678
H	-1.3492806223	 4.164100745	-0.5104905114	 0.127954
H	 1.8834338665	 3.9252668022	 1.0657702348	 0.132587
H	-1.5754297196	 3.8633773089	 3.4944439727	 0.209245
H	 2.1009220239	 1.8320071069	-0.2728198088	 0.11979
82.6947	148.6395	159.1585	257.1887	339.7645	445.2013	463.5919	560.5329	603.8413	620.7857	628.1143	672.6784	702.1954	727.025	774.4102	821.3891	873.7378	933.0876	966.3103	1004.2193	1052.693	1077.0277	1106.0687	1181.3364	1191.5439	1250.0941	1250.8063	1284.9961	1315.1758	1353.4522	1378.2178	1447.4184	1500.3428	1844.5955	2231.4948	3068.6036	3074.3928	3109.3526	3125.2246	3127.9207	3172.208	3498.8369
O=C1CCN2C(C#C)C12	O=C1CCN2[C@@H](C#C)[C@@H]12	
InChI=1S/C7H7NO/c1-2-5-7-6(9)3-4-8(5)7/h1,5,7H,3-4H2	InChI=1S/C7H7NO/c1-2-5-7-6(9)3-4-8(5)7/h1,5,7H,3-4H2/t5-,7-,8?/m0/s1
