16
gdb 44771	2.50691	2.19801	1.61022	3.247	70.03	-0.2543	0.0126	0.2669	864.8104	0.12579	-437.774023	-437.767607	-437.766663	-437.804533	26.596	
N	-0.1622921258	 1.1583859502	 0.1779346456	-0.577602
C	-0.0880733682	-0.0884521182	 0.0475978142	 0.454718
O	 1.0563785671	-0.859531193	 0.0033712336	-0.241537
C	 0.4979778324	-2.1679724363	-0.1484410158	 0.006107
C	-0.6568520804	-2.1781991186	 0.9665785578	-0.33268
C	-1.2290716582	-1.0925884109	-0.0483046134	 0.0844
C	-2.2138575767	-0.6191797789	-1.1493439056	-0.18147
O	-1.2249407884	-1.0955245737	-2.1556257324	-0.310937
C	-0.7262485198	-1.9999045037	-1.1244472858	 0.141139
H	 0.7648849047	 1.5805603728	 0.2437949376	 0.229713
H	 1.2881216588	-2.9126640217	-0.221494411	 0.104545
H	-1.2341785072	-3.0999031708	 1.0157261552	 0.128848
H	-0.3429448679	-1.8458021952	 1.9574860228	 0.133591
H	-3.1455320193	-1.1864684016	-1.2332308988	 0.116022
H	-2.3741650253	 0.4567789635	-1.2204863931	 0.152981
H	-1.2536573158	-2.956519934	-1.207899791	 0.09216
170.7522	250.0416	308.2867	385.2282	461.8534	496.6388	616.8112	635.6251	680.3252	750.7949	788.0492	826.4393	836.578	877.7774	890.4005	918.5379	963.1337	984.964	995.6235	1007.7326	1027.0509	1082.3759	1118.2143	1128.0384	1181.4256	1189.3811	1194.8936	1209.5907	1274.863	1283.604	1354.9159	1392.8132	1485.1113	1495.8449	1809.784	3041.5905	3059.2809	3089.3319	3149.4963	3150.2223	3169.3361	3482.6657
N=C1OC2CC11COC21	[NH][C]1O[C@H]2C[C@]31CO[C@@H]23	
InChI=1S/C6H7NO2/c7-5-6-1-3(9-5)4(6)8-2-6/h3-4,7H,1-2H2	InChI=1S/C6H7NO2/c7-5-6-1-3(9-5)4(6)8-2-6/h3-4,7H,1-2H2/t3-,4-,6-/m0/s1
