19
gdb 114260	4.23982	0.9246	0.89216	1.7995	71.35	-0.2537	0.0541	0.3078	1348.8913	0.15864	-460.116823	-460.10815	-460.107206	-460.151199	31.86	
O	 0.0932821127	 1.1712730824	 0.6703673444	-0.418903
C	 0.0716759611	-0.1556932057	 0.1878730331	-0.064074
C	-1.3074531557	-0.5130172721	-0.3362167037	 0.118879
C	-1.6609177083	-2.0052440592	-0.4785211555	-0.391995
C	-2.6649464804	-1.7393518694	 0.6577320343	 0.378587
C	-4.1616533329	-2.0867240252	 0.5638866066	-0.128181
O	-4.0662332887	-2.9641437713	 1.7050544641	-0.272833
C	-2.7094010549	-2.5513404803	 1.9647513771	-0.125588
O	-2.2942155118	-0.3531056352	 0.7239527724	-0.334577
H	-0.6407783621	 1.2391020107	 1.2935705663	 0.29381
H	 0.8124456581	-0.2216325012	-0.6172632979	 0.1106
H	 0.3596119242	-0.8776311164	 0.9709113598	 0.080662
H	-1.5636636779	 0.1231157078	-1.1910764408	 0.089673
H	-2.1080263176	-2.2965654717	-1.4301077522	 0.119091
H	-0.8541160502	-2.6996250718	-0.2311748309	 0.115718
H	-4.8121610529	-1.222389205	 0.7506099956	 0.112347
H	-4.4948781289	-2.612994052	-0.3388113919	 0.10386
H	-2.022872952	-3.4030032945	 2.0455561624	 0.10377
H	-2.6251461619	-1.9220919199	 2.8606558166	 0.109156
44.7265	79.1924	117.8499	179.2185	289.3763	328.7394	361.9007	419.3806	454.3461	509.929	523.5325	797.7779	821.1451	865.0272	898.5746	911.8302	931.5135	956.8116	990.5411	1027.4533	1030.624	1048.8988	1093.7511	1146.8966	1147.7076	1153.4139	1190.654	1203.7262	1217.1707	1238.4837	1280.0214	1297.2019	1310.2874	1347.7408	1378.3669	1401.4873	1436.9003	1485.8508	1493.989	1496.9735	1521.0437	2962.422	3004.567	3017.1704	3044.2293	3060.1765	3063.4151	3069.1753	3071.4893	3128.6768	3783.6572
OCC1CC2(COC2)O1	OC[C@H]1CC2(COC2)O1	
InChI=1S/C6H10O3/c7-2-5-1-6(9-5)3-8-4-6/h5,7H,1-4H2	InChI=1S/C6H10O3/c7-2-5-1-6(9-5)3-8-4-6/h5,7H,1-4H2/t5-/m1/s1
