15
gdb 34234	3.45045	1.60657	1.38943	0.402	71.26	-0.2511	0.0091	0.2602	931.87	0.11257	-420.5329	-420.526269	-420.525325	-420.563783	27.094	
C	-0.0483841805	-1.1814400884	 0.1162820742	-0.337701
C	-0.0760028759	 0.01879068	 0.0578111999	 0.089041
C	-0.0837851472	 1.4451636145	-0.0254627374	 0.34346
O	-1.0309795822	 2.1710969579	 0.7653831833	-0.328136
C	-0.6726457548	 3.3272218039	-0.0491395461	 0.011183
C	 0.7484472482	 3.6286986722	 0.4618153423	-0.213911
C	 1.2917505822	 2.3004744639	-0.0850765864	-0.011232
O	 1.108590389	 2.4786417265	-1.5188127905	-0.289156
C	-0.2825313172	 2.3567632882	-1.2561823716	 0.006468
H	-0.0314813041	-2.2423000335	 0.168758269	 0.191161
H	-1.4403454953	 4.0956057015	-0.0859857304	 0.094701
H	 1.2461850583	 4.4744271882	-0.0161695634	 0.116901
H	 0.7576548383	 3.7255656722	 1.5485029372	 0.11909
H	 2.2659932649	 1.9100833756	 0.1976181228	 0.099098
H	-0.9333815836	 2.1956271372	-2.1124799828	 0.109034
141.9743	151.5127	384.7247	427.9687	489.0335	527.4036	533.7307	588.1836	621.6645	685.515	720.42	770.4958	797.8331	850.275	893.713	924.2809	934.6584	950.0577	982.2592	995.4266	1011.9978	1067.5191	1095.5276	1121.3841	1163.3289	1221.6315	1238.6633	1258.5397	1279.9647	1317.0877	1348.9551	1459.5349	2242.3702	3083.3413	3147.6661	3153.9505	3163.3674	3166.762	3499.6031
C#CC12OC3CC1OC23	C#C[C@@]12O[C@H]3C[C@@H]1O[C@@H]23	
InChI=1S/C7H6O2/c1-2-7-5-3-4(9-7)6(7)8-5/h1,4-6H,3H2	InChI=1S/C7H6O2/c1-2-7-5-3-4(9-7)6(7)8-5/h1,4-6H,3H2/t4-,5-,6+,7+/m0/s1
