23
gdb 69322	2.78674	1.34711	1.26757	1.4773	85.17	-0.2434	0.0846	0.3281	1171.8474	0.204689	-388.304103	-388.294713	-388.293769	-388.337235	37.171	
C	 0.1769494741	 1.5534392355	 0.2361922469	-0.490402
C	 0.104619999	 0.0633910304	 0.0155495274	 0.335269
C	-1.0103263393	-0.7685386692	 0.599822267	-0.352789
C	 0.4080617263	-0.9696079289	 1.0761817065	-0.10385
C	 1.2066387424	-2.0821302508	 0.4002891807	 0.368552
C	 2.7094435379	-1.9023306433	 0.6640262807	-0.421254
C	 0.7556469725	-3.4969978897	 0.756519188	-0.419285
O	 0.9238457235	-1.8988269931	-1.0033329556	-0.29724
C	 0.7010231278	-0.5181188732	-1.2591334605	-0.149107
H	 1.207729318	 1.9194527106	 0.159325848	 0.115694
H	-0.4229062424	 2.0965981111	-0.5039035649	 0.119511
H	-0.200880907	 1.8255050045	 1.2265746406	 0.11767
H	-1.6952038536	-0.2724126799	 1.2795045426	 0.104684
H	-1.4626785012	-1.5383276479	-0.0177714819	 0.11806
H	 0.6794068705	-0.6798746441	 2.0855636918	 0.078379
H	 2.9405846479	-2.0456043287	 1.7249006871	 0.109948
H	 3.283843812	-2.6313439351	 0.08508625	 0.119137
H	 3.0419143624	-0.8992025761	 0.3807665614	 0.113326
H	-0.3167177023	-3.6172695502	 0.5855653121	 0.117974
H	 1.2863377657	-4.2297901184	 0.1413100212	 0.119992
H	 0.9665125169	-3.7148603071	 1.8081028009	 0.10957
H	 0.040333371	-0.4501474192	-2.1313993739	 0.101792
H	 1.639924548	 0.005886683	-1.5053439261	 0.08437
131.9492	184.8324	199.2656	199.6818	227.9503	254.0967	326.8931	334.1724	379.973	392.3479	396.6017	510.1069	553.0872	629.3566	734.3761	769.0515	845.6544	874.0233	924.1707	930.0596	941.0659	956.4994	971.8568	1016.2746	1038.3149	1053.9239	1068.5646	1076.3892	1100.007	1146.3694	1188.8008	1209.1078	1225.6733	1255.0076	1288.8741	1311.6248	1360.6421	1393.5457	1408.0568	1415.3211	1426.5706	1474.4951	1481.0315	1483.8442	1489.1977	1496.321	1500.168	1505.2068	1522.4301	2959.7074	3020.9463	3034.2732	3043.3071	3050.6759	3077.408	3098.9668	3103.437	3111.1716	3115.9014	3123.63	3125.5998	3168.9688	3211.0712
CC12CC1C(C)(C)OC2	C[C@]12C[C@H]1C(C)(C)OC2	
InChI=1S/C8H14O/c1-7(2)6-4-8(6,3)5-9-7/h6H,4-5H2,1-3H3	InChI=1S/C8H14O/c1-7(2)6-4-8(6,3)5-9-7/h6H,4-5H2,1-3H3/t6-,8+/m0/s1
