16
gdb 8057	3.53861	1.69683	1.43003	2.9536	66.09	-0.2342	-0.0289	0.2052	907.6161	0.128622	-383.684576	-383.677094	-383.67615	-383.716406	27.933	
C	-0.0206051942	 1.4616788117	 0.0736201236	-0.50973
C	-0.0272462559	-0.0282068558	-0.0579830073	 0.388655
C	 0.6450793944	-0.9429012211	-1.1163744146	-0.255248
C	 0.0983922691	-1.8156387332	 0.0305098431	 0.03206
O	 0.636061759	-0.8407144842	 1.00284685	-0.339928
C	-1.2430305532	-1.0254274587	-0.0087662765	-0.117922
C	-2.0930429859	-1.0278554476	 1.2272556064	 0.134252
O	-3.3001025671	-1.0654392605	 1.1992234125	-0.262508
H	 1.0077341799	 1.8351904445	 0.0833755669	 0.140378
H	-0.5478102708	 1.9164988995	-0.7705157935	 0.136189
H	-0.5136695488	 1.7738003185	 0.9987502983	 0.141647
H	 0.1765445075	-1.0236262351	-2.1000332015	 0.103193
H	 1.7326506263	-0.8693384419	-1.1586591018	 0.112069
H	 0.255028014	-2.8729914606	 0.2407446336	 0.107536
H	-1.8540112605	-1.1092025999	-0.9105045052	 0.089719
H	-1.5324653239	-0.9908343955	 2.1818942261	 0.099638
81.4188	175.7031	213.6161	228.2618	311.0228	351.8412	433.6568	529.5428	623.1985	639.1039	689.1265	767.4788	879.3519	903.9151	927.7756	988.5815	1019.9419	1032.5336	1040.9534	1110.2656	1131.5307	1141.1414	1165.6493	1200.2635	1221.8756	1238.7023	1304.9791	1342.9932	1409.6751	1421.5123	1475.7442	1485.9631	1492.7503	1813.7445	2943.7727	3042.6351	3065.7903	3095.7618	3118.4183	3119.986	3129.5074	3149.0188
CC12CC(O1)C2C=O	C[C@@]12C[C@@H](O1)[C@H]2C=O	
InChI=1S/C6H8O2/c1-6-2-5(8-6)4(6)3-7/h3-5H,2H2,1H3	InChI=1S/C6H8O2/c1-6-2-5(8-6)4(6)3-7/h3-5H,2H2,1H3/t4-,5-,6+/m1/s1
