13
gdb 33565	2.20536	1.67906	1.23768	5.6189	68.52	-0.2974	-0.0401	0.2573	1012.755	0.088827	-415.612552	-415.604693	-415.603749	-415.645477	27.962	
N	 0.0402531511	-1.0792342809	 0.1987308511	-0.315841
C	-0.0223823685	 0.0660807677	 0.0677528527	 0.291967
C	-0.0540608032	 1.5429546367	-0.0801951325	 0.077695
O	-0.6940911052	 2.1269422831	 1.0412237252	-0.275241
C	 0.2042376719	 3.0215136116	 1.7170167468	-0.137975
C	 1.4773500529	 2.9600602064	 0.9312491607	-0.080653
C	 1.353590385	 2.1280069217	-0.0922170133	-0.111884
C	-0.7918671965	 1.8894092851	-1.3210259968	 0.291936
N	-1.339429148	 2.1898522358	-2.2919753867	-0.315832
H	-0.2356332068	 4.0273056882	 1.7344712864	 0.140649
H	 0.3298215609	 2.68802455	 2.7554759913	 0.140655
H	 2.360507226	 3.5295758087	 1.1894562008	 0.141285
H	 2.0772424603	 1.8582314959	-0.8471858157	 0.153238
72.2632	127.6849	157.9093	179.1617	261.574	381.5831	503.172	517.4956	521.3651	576.1701	588.531	745.2619	775.3154	835.0403	950.1473	958.3708	974.3356	1042.1674	1082.2581	1089.4783	1112.6122	1143.6792	1201.0827	1329.808	1379.4799	1512.453	1691.3463	2361.5032	2366.0923	3017.8725	3049.3071	3226.4381	3259.633
N#CC1(OCC=C1)C#N	N#CC1(OCC=C1)C#N	
InChI=1S/C6H4N2O/c7-4-6(5-8)2-1-3-9-6/h1-2H,3H2	InChI=1S/C6H4N2O/c7-4-6(5-8)2-1-3-9-6/h1-2H,3H2
