17
gdb 10123	2.20397	1.58393	1.01595	3.6283	67.22	-0.2488	-0.0361	0.2127	1150.8678	0.139844	-401.03136	-401.022223	-401.021279	-401.066417	30.942	
C	 0.3332469579	 1.410446423	 0.1834213306	-0.375605
C	 0.0284137938	-0.0617209942	-0.1093655188	-0.169592
N	 0.562905568	-0.5341402247	-1.3824678761	-0.049026
C	 1.9867586748	-0.7789283052	-1.5121818944	-0.263854
C	 2.4230950178	-2.0404619695	-0.7797219374	 0.155336
O	 3.480756776	-2.1657673932	-0.2230816446	-0.230329
C	-0.2434173386	-0.7041598608	-2.4734243302	 0.15307
O	 0.1298898006	-1.0535255044	-3.5728322629	-0.335922
H	 1.4095459182	 1.5990946055	 0.2316100156	 0.133442
H	-0.0921312249	 2.0561829611	-0.5903968704	 0.130893
H	-0.097356516	 1.6969367634	 1.1476842521	 0.127735
H	 0.4210634827	-0.6940787718	 0.6966022951	 0.122765
H	-1.0547683776	-0.2201263694	-0.1303871773	 0.124612
H	 2.1803181193	-0.9287899682	-2.5818604097	 0.174557
H	 2.5874372819	 0.0658596684	-1.1622365068	 0.132817
H	 1.6710882524	-2.8623368084	-0.814027107	 0.08851
H	-1.3027774764	-0.4864280216	-2.2372982179	 0.080589
50.0721	73.7951	78.8752	140.8276	226.0982	246.1503	294.7257	336.3699	403.4327	450.4614	525.0846	647.909	734.1614	793.2824	906.4189	971.8607	1026.4939	1050.587	1069.7695	1099.1945	1121.5536	1198.3557	1281.5988	1306.3919	1333.8329	1396.0097	1410.3619	1414.5497	1431.4677	1441.9037	1451.7799	1485.9008	1494.6468	1506.1269	1792.2596	1840.4463	2873.6138	2948.2719	3028.8419	3039.654	3045.3444	3076.7594	3098.0482	3117.8477	3123.3442
CCN(CC=O)C=O	CCN(CC=O)C=O	
InChI=1S/C5H9NO2/c1-2-6(5-8)3-4-7/h4-5H,2-3H2,1H3	InChI=1S/C5H9NO2/c1-2-6(5-8)3-4-7/h4-5H,2-3H2,1H3
