20
gdb 46383	3.22774	1.0208	0.89145	3.5717	80.89	-0.2384	0.0391	0.2774	1376.7796	0.171598	-403.15835	-403.149435	-403.14849	-403.193531	32.433	
O	 0.2951927813	-0.060579461	-0.2928834303	-0.380371
C	 0.1105330718	 1.1142148112	-0.1010086111	 0.411352
C	-1.1032169099	 2.0420840328	 0.1437894962	-0.369282
C	-0.0520703238	 3.1827479949	 0.2642328784	-0.173179
N	 0.9773163307	 2.1759926923	-0.0131045899	-0.057691
C	 2.4218409246	 2.2298836125	-0.0652065728	-0.207808
C	 3.0832677574	 2.3301070772	 1.2952087887	 0.015275
C	 3.218065257	 1.0896272043	 2.1400076675	-0.254694
C	 4.4399223968	 1.706019653	 1.5047390219	-0.267407
H	-1.7894298269	 2.1212724717	-0.7010713545	 0.132049
H	-1.6641494298	 1.8181455855	 1.0527141212	 0.131911
H	-0.1179818233	 3.9707635071	-0.4942654514	 0.109632
H	 0.0226604467	 3.6405813028	 1.2567146689	 0.111631
H	 2.7409735551	 1.307546701	-0.562792459	 0.132206
H	 2.7267260637	 3.0693676117	-0.7040838761	 0.107785
H	 2.8953070856	 3.2609671601	 1.8240348043	 0.082487
H	 3.0956899425	 1.1812728348	 3.2134340824	 0.111055
H	 2.8387150126	 0.161739973	 1.7248357914	 0.137068
H	 4.8932352489	 1.1864108108	 0.6666418662	 0.115016
H	 5.1502882692	 2.2216769043	 2.141157238	 0.112963
37.9492	55.4221	90.3614	187.1217	224.752	268.8252	325.2453	408.5626	521.4498	565.7508	733.9013	774.3418	780.1536	808.6443	822.9235	845.4135	900.9951	939.5015	962.1653	993.1446	1040.8007	1046.4871	1060.6872	1083.8157	1106.4973	1136.5598	1152.2163	1185.38	1193.7032	1197.8771	1222.2196	1238.9426	1271.3256	1339.6973	1361.4495	1418.1917	1426.4836	1462.5516	1468.1071	1475.506	1509.4346	1532.1505	1869.8881	3016.9316	3030.4004	3071.9041	3079.1311	3088.4987	3131.2214	3135.6429	3140.7	3146.0609	3210.2738	3225.592
O=C1CCN1CC1CC1	O=C1CCN1CC1CC1	
InChI=1S/C7H11NO/c9-7-3-4-8(7)5-6-1-2-6/h6H,1-5H2	InChI=1S/C7H11NO/c9-7-3-4-8(7)5-6-1-2-6/h6H,1-5H2
