23
gdb 83536	2.60881	1.57358	1.2681	1.3872	84.9	-0.2513	0.0721	0.3234	1120.2813	0.206675	-388.288845	-388.280007	-388.279062	-388.321303	36.081	
C	-0.2144350784	 1.5881604642	 0.8253940455	-0.435671
C	-0.0499391589	 0.1074750505	 0.5104626315	 0.044464
C	 0.9617988651	-0.3950782927	-0.5697537888	-0.109293
C	 2.3009220704	 0.1840310456	-0.0720043126	-0.209722
C	 2.1652252889	-0.148356439	 1.453466209	-0.216399
C	 0.7855594841	-0.8399397599	 1.4327751907	-0.081788
C	 0.9270637757	-1.7717719221	 0.1913586634	 0.466158
C	-0.2335614529	-2.7115427117	-0.1236530827	-0.48467
O	 2.1264820037	-2.5300356988	 0.2143610342	-0.486737
H	 0.7319908372	 2.0993973723	 1.0144559291	 0.119695
H	-0.7062264192	 2.1042101284	-0.0069616667	 0.112321
H	-0.8448804048	 1.7243023547	 1.7114850094	 0.112979
H	-1.0410020045	-0.3120108057	 0.3307590018	 0.064871
H	 0.7428460469	-0.3242734463	-1.6377871096	 0.043254
H	 3.1544493817	-0.3238769428	-0.5235371848	 0.097356
H	 2.3923697106	 1.2543268555	-0.2743309757	 0.087374
H	 2.9513848589	-0.8197633124	 1.7996533449	 0.111594
H	 2.1695120077	 0.741129911	 2.0886948055	 0.087226
H	 0.3941103434	-1.215589009	 2.3801986654	 0.050079
H	-1.2114716153	-2.2280058483	-0.1258375241	 0.12463
H	-0.0935598693	-3.1582377795	-1.1171079589	 0.103967
H	-0.2545368018	-3.5258324665	 0.6074860312	 0.125097
H	 2.1444220909	-3.0847384375	-0.5721782475	 0.273215
169.0106	192.5834	226.1741	235.9171	259.3808	272.2523	312.5514	341.3102	406.6418	474.1651	523.7855	543.4704	658.7533	709.2814	744.0341	784.2079	847.3292	866.5303	905.084	939.1291	950.6132	973.3918	995.2616	999.5299	1041.7137	1059.7086	1095.8813	1098.7206	1126.6016	1152.1027	1185.5923	1193.8222	1206.9835	1240.951	1253.4316	1269.649	1274.3829	1314.5396	1328.4123	1381.4973	1400.3016	1409.7329	1426.5818	1479.8321	1493.1069	1494.8423	1497.7309	1508.2756	1514.4528	3020.4912	3031.9762	3064.5493	3071.8353	3079.377	3086.2528	3086.8205	3088.4544	3098.6636	3112.581	3121.8737	3130.8194	3135.3472	3811.6757
CC1C2CCC1C2(C)O	C[C@H]1[C@H]2CC[C@@H]1[C@]2(C)O	
InChI=1S/C8H14O/c1-5-6-3-4-7(5)8(6,2)9/h5-7,9H,3-4H2,1-2H3	InChI=1S/C8H14O/c1-5-6-3-4-7(5)8(6,2)9/h5-7,9H,3-4H2,1-2H3/t5-,6+,7-,8+
