22
gdb 122285	4.88667	0.74599	0.72837	1.9282	83.73	-0.2414	0.0805	0.3219	1674.876	0.194174	-404.269372	-404.26021	-404.259265	-404.304372	34.08	
C	 0.0658924756	 1.4885649325	 0.0241135203	-0.383243
C	-0.0351568745	-0.0383595489	-0.0082423765	-0.183848
C	-1.4767287122	-0.5243922754	 0.0253828657	-0.070753
O	-1.4768389555	-1.946301984	-0.0075886117	-0.293038
C	-2.7272512165	-2.5194376613	 0.0177117968	 0.394035
C	-3.9060281902	-2.4202618799	-0.9915802729	-0.235345
N	-4.4181753696	-3.4268807209	 0.0488255186	-0.139293
C	-3.000878976	-4.0268385264	-0.009216264	-0.222894
C	-3.8411269582	-2.4694377061	 1.1016011859	-0.235342
H	 1.1099379291	 1.8131012561	-0.0009153271	 0.119151
H	-0.4428206229	 1.9413902263	-0.83415294	 0.117047
H	-0.3876979388	 1.9002998304	 0.9325135993	 0.117049
H	 0.4439293252	-0.433276104	-0.911383903	 0.108627
H	 0.4986324189	-0.4740837909	 0.8440259029	 0.108631
H	-1.9817396424	-0.1673652819	 0.9370343539	 0.092486
H	-2.036947199	-0.1262609871	-0.8355780669	 0.09249
H	-4.4943632933	-1.4999283769	-1.0266967427	 0.100257
H	-3.7704221373	-2.85306187	-1.9860571754	 0.103037
H	-2.7957016417	-4.5713808331	-0.9341437051	 0.103828
H	-2.7396180088	-4.6138720839	 0.8746665714	 0.10383
H	-3.6448241649	-2.9482221961	 2.0643673816	 0.103037
H	-4.424819867	-1.5526232983	 1.2162261756	 0.100255
55.2433	61.5042	106.5517	137.3575	234.1544	274.2149	328.9889	376.7146	455.2918	588.8984	593.407	673.1651	766.1309	787.9657	796.8152	890.1529	902.4694	909.9056	946.9055	958.5174	992.6843	1022.9642	1025.6695	1044.0332	1079.1519	1134.2992	1150.8237	1169.2055	1172.8089	1187.3304	1190.7881	1190.8071	1204.867	1257.05	1268.8745	1312.7593	1318.2694	1338.6002	1415.6127	1435.7451	1492.3672	1501.7467	1505.9052	1507.0996	1509.484	1525.0151	1564.4939	2969.2075	3000.1373	3032.5001	3040.376	3050.8766	3054.0121	3063.5726	3073.2509	3100.7532	3109.7512	3120.4707	3126.3258	3128.5192
CCCOC12CN(C1)C2	CCCO[C@@]12CN(C1)C2	
InChI=1S/C7H13NO/c1-2-3-9-7-4-8(5-7)6-7/h2-6H2,1H3	InChI=1S/C7H13NO/c1-2-3-9-7-4-8(5-7)6-7/h2-6H2,1H3
