21
gdb 64488	2.47547	1.54087	1.22726	2.5367	73.85	-0.2557	0.0694	0.3251	1108.8318	0.183112	-461.363747	-461.35488	-461.353936	-461.396738	34.599	
C	 0.0260702003	 1.5697565151	 0.0431942367	-0.410971
C	-0.0218678969	 0.0415785688	 0.0038705709	 0.343564
O	-1.3942086238	-0.3230300007	 0.0643416214	-0.472688
C	 0.6334941303	-0.4727129428	-1.3046913179	-0.271444
C	 0.2411820208	-1.9046908032	-1.7001499699	-0.086115
O	 0.027085741	-2.8071407823	-0.6119614236	-0.248551
C	 0.9378600418	-2.7577013061	 0.4537751702	 0.008319
O	 0.512943418	-1.8959008278	 1.4745067542	-0.242267
C	 0.7221759854	-0.510987443	 1.2420729923	-0.104467
H	 1.0542116237	 1.9371861584	-0.0342394565	 0.11158
H	-0.5508948788	 1.978252492	-0.790855909	 0.126561
H	-0.4118950082	 1.9426429597	 0.9731390083	 0.123251
H	-1.4159659343	-1.2725083565	 0.2454064026	 0.292054
H	 0.3392941643	 0.1797318557	-2.1346688797	 0.106017
H	 1.7220411616	-0.379401694	-1.2150339734	 0.098975
H	-0.714686679	-1.893232472	-2.2288626361	 0.126033
H	 0.9953918347	-2.3201411352	-2.3841324891	 0.098944
H	 0.9535811221	-3.7564192523	 0.8969784207	 0.118899
H	 1.9477205498	-2.485688515	 0.1031052414	 0.08264
H	 1.7991896969	-0.2953989472	 1.1556697506	 0.086057
H	 0.3418986705	-0.0151556016	 2.1390626958	 0.113608
108.7039	159.2634	192.7557	211.4652	274.5441	296.6181	361.6342	391.3556	414.5055	447.2612	462.2977	506.3113	599.6629	651.9038	758.9699	826.9939	869.8624	915.1821	939.7643	971.4485	1008.7401	1018.4773	1056.1991	1072.479	1113.0856	1119.8655	1196.1319	1204.4458	1229.5642	1273.965	1293.4866	1307.0592	1341.6829	1362.099	1375.4112	1407.3071	1416.103	1430.7123	1440.7633	1475.0756	1487.1855	1487.4277	1500.1078	1502.913	1513.7125	2962.2986	2980.4471	3000.5873	3034.5609	3042.811	3067.6	3095.0384	3100.2753	3103.5798	3116.1883	3121.4729	3757.6022
CC1(O)CCOCOC1	C[C@@]1(O)CCOCOC1	
InChI=1S/C6H12O3/c1-6(7)2-3-8-5-9-4-6/h7H,2-5H2,1H3	InChI=1S/C6H12O3/c1-6(7)2-3-8-5-9-4-6/h7H,2-5H2,1H3/t6-/m1/s1
