23
gdb 63039	2.50439	1.92496	1.50574	0.0501	88.31	-0.269	0.0949	0.3639	1012.5677	0.208166	-351.124696	-351.117051	-351.116107	-351.155936	32.948	
C	-0.0141643104	 1.500580233	 0.0479033577	-0.457583
C	 0.0355222881	-0.0357797459	 0.0103767839	 0.375835
C	-1.4013931018	-0.5412641787	-0.1995236339	-0.457633
C	 1.0267565694	-0.6569012004	-1.0179181721	-0.076124
C	 2.3735029563	 0.0366354895	-0.69498362	-0.258384
C	 2.2559474384	-0.7526110782	 0.6161687096	-0.021887
C	 1.5470107086	-1.9058049335	-0.1629834665	-0.021895
C	 0.6511359405	-2.1556329545	 1.0580004281	-0.258399
C	 0.7880978625	-0.6236777387	 1.2407634665	-0.076146
H	 0.9017193657	 1.950062109	 0.4372222076	 0.115836
H	-0.2012043446	 1.9186664815	-0.9480173401	 0.108818
H	-0.8328477265	 1.8275559045	 0.6989961178	 0.107574
H	-1.8809679817	 0.0322194486	-1.0008995048	 0.107589
H	-1.4482355684	-1.5932951995	-0.4884282728	 0.115818
H	-2.0071808735	-0.4097945281	 0.7045640492	 0.108816
H	 0.6728775133	-0.769146406	-2.0441663409	 0.052011
H	 3.1911455332	-0.3735204632	-1.2966756195	 0.091278
H	 2.4359720775	 1.1265621567	-0.706984809	 0.089121
H	 3.0800212945	-0.922952656	 1.309189494	 0.061463
H	 2.0918939045	-2.6841955723	-0.6974008733	 0.061464
H	-0.3409022626	-2.601369187	 0.9623606664	 0.089112
H	 1.2155826899	-2.7032584468	 1.8197798982	 0.091307
H	 0.6131511671	-0.1449322739	 2.2057554938	 0.05201
198.1957	212.1895	249.6164	267.4849	377.409	385.5007	461.0127	473.0493	507.8927	571.2586	714.7686	739.1064	772.2498	793.0582	838.411	853.7067	923.7056	926.1197	942.5459	959.4227	962.3578	1002.2463	1003.445	1014.8804	1021.0072	1044.8595	1049.5738	1069.6697	1127.3457	1142.6865	1186.1346	1199.8401	1209.1052	1209.7892	1211.4945	1248.3707	1250.1117	1271.4319	1281.2422	1302.2245	1340.1273	1400.949	1419.8268	1485.3786	1488.2999	1500.4232	1500.8495	1527.5318	1532.455	3025.8986	3030.8037	3052.3403	3052.519	3083.575	3087.1596	3094.8154	3096.6263	3102.6599	3103.4222	3108.3137	3118.7051	3123.5574	3123.7708
CC1(C)C2CC3C2CC13	CC1(C)[C@H]2C[C@@H]3[C@H]2C[C@H]13	
InChI=1S/C9H14/c1-9(2)7-3-5-6(7)4-8(5)9/h5-8H,3-4H2,1-2H3	InChI=1S/C9H14/c1-9(2)7-3-5-6(7)4-8(5)9/h5-8H,3-4H2,1-2H3/t5-,6-,7+,8+/m1/s1
