19
gdb 30197	2.53627	1.67532	1.07854	1.806	84.27	-0.1732	0.0638	0.237	1137.8469	0.160819	-382.074362	-382.065714	-382.06477	-382.108298	32.486	
C	-0.1628720193	 1.6647320913	-0.512937125	-0.395792
C	 0.0472782258	 0.2204062157	-0.0942242005	 0.050901
C	 1.1170712855	-0.634795813	-0.8899413429	-0.406356
C	 1.8440667381	-0.7368658782	 0.4397446998	 0.334129
C	 2.799471114	-1.136698487	 1.3412061667	-0.333213
C	 2.3753697102	-0.5866849715	 2.5989658939	-0.190696
C	 1.1939817781	 0.1246635794	 2.4230195037	 0.194613
N	 0.4066666472	 0.90487937	 3.2962007772	-0.607071
N	 0.9136679696	 0.0234514269	 1.0876339398	 0.001766
H	 0.7970137785	 2.1712903018	-0.6509392218	 0.129643
H	-0.7205123719	 1.7081866761	-1.4543249448	 0.119407
H	-0.7302685038	 2.209738729	 0.2474896564	 0.135024
H	-0.9134561883	-0.296441122	 0.0115458778	 0.090789
H	 0.7314461769	-1.568203608	-1.3106097276	 0.114926
H	 1.6271228912	-0.0761562282	-1.6809230987	 0.114607
H	 3.6793954707	-1.735906011	 1.1673858542	 0.088875
H	 2.8899668038	-0.6959788738	 3.5431616983	 0.076495
H	 0.9127838935	 1.0879425695	 4.1543081758	 0.243258
H	-0.4613110997	 0.4404261129	 3.5502367875	 0.238694
32.5755	133.6338	142.4649	202.5814	257.9227	288.1228	357.2146	422.4629	541.0132	615.7692	641.7741	654.1093	705.7829	733.5434	756.1276	780.3915	832.4658	845.7906	915.8399	1007.4444	1035.1922	1060.0665	1069.7742	1096.6742	1118.3106	1180.1815	1206.5158	1229.4834	1245.1823	1263.4641	1305.8557	1367.3537	1405.755	1413.7771	1463.0318	1485.4604	1491.6263	1497.3353	1549.4833	1592.4985	1652.421	3036.7304	3038.1559	3047.7021	3090.856	3110.8085	3117.5367	3227.9926	3254.8498	3480.4496	3589.7792
CC1CC2=CC=C(N)N12	C[C@H]1Cc2ccc(N)n12	
InChI=1S/C7H10N2/c1-5-4-6-2-3-7(8)9(5)6/h2-3,5H,4,8H2,1H3	InChI=1S/C7H10N2/c1-5-4-6-2-3-7(8)9(5)6/h2-3,5H,4,8H2,1H3/t5-/m0/s1
