19
gdb 77864	2.13768	1.54723	1.48134	3.4924	80.02	-0.2153	0.0282	0.2435	1050.456	0.159082	-382.037175	-382.028358	-382.027414	-382.070277	33.165	
C	-0.1473232594	 1.6002481493	-0.1221550243	-0.431598
C	 0.0819429175	 0.0964133756	-0.0852952321	 0.045389
C	 0.639456255	-0.6516284174	-1.307582883	-0.140216
C	 2.0903578533	-0.3139055582	-1.6177313591	-0.18538
C	 2.6924973075	 0.9900252083	-1.5797376654	 0.307995
N	 3.2106503489	 2.025790912	-1.5789283087	-0.366204
C	 1.7355289451	-1.1762201698	-0.4024078233	-0.025914
N	 1.1999463713	-0.4752182296	 0.7356169983	-0.086383
C	 2.0452888081	 0.3196267617	 1.610267666	-0.348673
H	 0.7275047857	 2.159883242	-0.4549862502	 0.158107
H	-0.9750127843	 1.8224869253	-0.8038148045	 0.123315
H	-0.4331607513	 1.9655592458	 0.8698477638	 0.122799
H	-0.8511062255	-0.3907345144	 0.2275888448	 0.09273
H	 0.0425141261	-1.184971043	-2.0357812933	 0.106956
H	 2.4729081985	-0.914817472	-2.4398936146	 0.135236
H	 2.1668170431	-2.1680381746	-0.3076594975	 0.109069
H	 2.5702869279	 1.1506599269	 1.1199578662	 0.134719
H	 1.4397896709	 0.7253613966	 2.4268533314	 0.123289
H	 2.7964830714	-0.3406318543	 2.0567056055	 0.124763
118.0154	142.9497	175.8153	203.3263	226.0398	240.121	253.2363	394.0062	433.2849	503.646	588.1556	646.3996	679.0832	751.5978	776.6427	788.5374	890.7161	931.976	952.9718	978.4096	1030.8252	1062.5526	1085.5674	1092.1157	1142.6969	1155.2701	1184.018	1223.9257	1253.2037	1286.3055	1305.1379	1348.3043	1377.6324	1406.9643	1417.3892	1454.6666	1487.6957	1498.6711	1502.9643	1515.8049	2337.9888	3006.0402	3009.2624	3043.9549	3073.7938	3099.4898	3103.4915	3139.0911	3150.7604	3157.07	3201.1323
CC1C2C(C#N)C2N1C	C[C@H]1[C@H]2[C@@H](C#N)[C@H]2N1C	
InChI=1S/C7H10N2/c1-4-6-5(3-8)7(6)9(4)2/h4-7H,1-2H3	InChI=1S/C7H10N2/c1-4-6-5(3-8)7(6)9(4)2/h4-7H,1-2H3/t4-,5+,6-,7+/m0/s1
