22
gdb 58282	2.51566	1.05561	0.79285	6.8673	79.15	-0.2363	0.0371	0.2734	1474.775	0.193959	-441.530626	-441.520467	-441.519523	-441.565942	37.813	
C	 0.4982811212	 0.9569277266	 1.2248275683	-0.409945
C	-0.3020074545	 0.3756981329	 0.0522545252	 0.034784
N	 0.1232570439	-1.0130085921	-0.2521936123	-0.519925
H	 0.2206221947	-1.5331548	 0.6182292166	 0.245384
H	-1.1897116216	-1.944919946	-0.9246832635	 0.315048
H	 1.0428934648	-1.0141119437	-0.6835149003	 0.244771
C	-1.8371334315	 0.4067829279	 0.2514961397	 0.032704
C	-2.3280161438	 1.794484638	 0.6941928954	-0.411984
C	-2.5986120847	-0.0237586143	-1.0384814127	-0.336974
C	-3.0396884937	-1.4887753869	-1.1225856139	 0.381417
O	-2.0634702542	-2.4007248562	-1.0634526627	-0.38104
O	-4.1955184676	-1.8057313684	-1.2496222514	-0.335665
H	 1.5715409216	 0.8246119295	 1.0516225571	 0.111549
H	 0.3161727484	 2.0252941294	 1.3624689112	 0.131237
H	 0.244614999	 0.447424846	 2.1626381425	 0.120188
H	-0.0791151248	 0.9654587215	-0.8467258814	 0.091471
H	-2.0778517053	-0.3029442612	 1.0562456244	 0.08537
H	-1.9029937703	 2.0979942441	 1.6540250385	 0.118141
H	-2.0703574575	 2.5594309182	-0.0484034864	 0.117205
H	-3.4160818586	 1.7925157068	 0.8018823266	 0.130351
H	-3.5160106716	 0.5583483735	-1.1354964527	 0.123881
H	-1.982240894	 0.2004711643	-1.9190540384	 0.112035
60.8811	77.8884	114.2893	216.2635	231.5354	241.236	282.827	319.0824	364.5306	373.0708	384.9503	450.1056	484.9406	495.0239	628.2573	716.7322	793.7056	874.8004	915.4105	931.787	952.3698	964.4353	979.8567	1003.4325	1055.8616	1071.7641	1105.3018	1137.5781	1170.656	1193.1488	1254.5266	1296.9852	1312.6616	1340.1104	1359.2891	1374.8465	1403.5324	1411.0019	1420.4318	1473.9274	1492.1097	1496.4855	1498.9785	1501.5043	1517.8619	1650.8114	1850.7394	2999.6403	3022.9091	3028.2455	3030.7975	3035.7839	3093.2978	3102.8596	3114.2404	3120.2819	3126.3047	3184.3646	3474.4437	3557.3717
CC([NH3+])C(C)CC([O-])=O	C[C@@H](N)[C@@H](C)CC(=O)O	
InChI=1S/C6H13NO2/c1-4(5(2)7)3-6(8)9/h4-5H,3,7H2,1-2H3,(H,8,9)	InChI=1S/C6H13NO2/c1-4(5(2)7)3-6(8)9/h4-5H,3,7H2,1-2H3,(H,8,9)/t4-,5+/m0/s1
