18
gdb 125957	2.91372	1.63015	1.09963	0.8993	77.27	-0.2454	-0.0032	0.2422	1091.0515	0.151458	-398.148785	-398.14129	-398.140346	-398.180737	28.985	
C	-0.0516525896	 1.5951776797	-0.0098131284	-0.394205
C	 0.0222960168	 0.0676694527	 0.0472969389	-0.112865
C	 0.7705354743	-0.5787924496	-1.1740779098	-0.214986
C	 1.5176294778	-1.8622644566	-0.6740793837	-0.352738
C	 1.6386855276	-1.5656495289	 0.7878256139	 0.30169
N	 2.2948314313	-2.0372239669	 1.8417241259	-0.315728
N	 1.8386199128	-1.2479795992	 2.8227613693	-0.099911
N	 0.947897584	-0.3058280881	 2.4889432695	-0.325279
C	 0.8163587209	-0.5074609428	 1.1825699511	 0.317336
H	 0.9517461205	 2.032313047	-0.0426040858	 0.118722
H	-0.596753224	 1.9260530488	-0.8998655469	 0.11267
H	-0.5634538146	 1.9953667553	 0.8702238587	 0.12958
H	-1.0026663938	-0.3272977084	 0.0907682327	 0.092689
H	 0.0928033341	-0.7893818494	-2.005144685	 0.102348
H	 1.513010791	 0.1406977166	-1.5370115521	 0.110287
H	 0.9199766621	-2.7659657491	-0.8456470433	 0.120396
H	 2.4737653082	-2.0096323702	-1.1834678183	 0.121755
H	 2.1787426705	-1.336500031	 3.7662550332	 0.28824
107.2184	167.8945	222.3712	250.3644	293.2433	435.4201	462.6514	500.7515	560.304	650.2194	702.8974	723.6214	757.8887	823.5242	901.8709	945.9925	971.9201	998.181	1038.3487	1102.3185	1107.1299	1140.5522	1157.8562	1184.0139	1198.0772	1223.5731	1296.8912	1307.9807	1322.5736	1358.5824	1410.583	1429.5752	1445.5696	1481.0379	1494.3657	1496.2942	1500.7877	1525.6158	1588.8291	3000.0619	3033.4252	3034.5093	3046.4687	3087.6026	3102.4384	3105.501	3112.3877	3673.3081
CC1CCC2=NNN=C12	C[C@H]1CCc2n[nH]nc12	
InChI=1S/C6H9N3/c1-4-2-3-5-6(4)8-9-7-5/h4H,2-3H2,1H3,(H,7,8,9)	InChI=1S/C6H9N3/c1-4-2-3-5-6(4)8-9-7-5/h4H,2-3H2,1H3,(H,7,8,9)/t4-/m0/s1
