19
gdb 107718	4.03353	1.12383	1.06996	2.3598	75.13	-0.2276	0.0638	0.2913	1196.2152	0.157799	-422.958497	-422.949938	-422.948994	-422.99164	32.859	
C	-0.0791124449	 1.5283359858	 0.1736997299	-0.505217
C	-0.128810296	 0.0468286905	-0.0250417221	 0.423439
C	 0.4151520513	-0.6870570532	-1.2825972816	-0.32915
C	-0.4658307214	-1.8583943266	-0.8332460831	 0.261133
C	-0.8258483401	-3.1033627396	-1.5839805256	-0.188702
O	 0.240643089	-4.0413528325	-1.6652005971	-0.411178
C	-0.4230399575	-1.7765966127	 0.7038363709	 0.064477
O	 0.463675219	-0.7244407171	 1.0715877461	-0.330489
C	-1.3827774573	-0.9202483008	-0.043771944	-0.259367
H	 0.9622445416	 1.8630659631	 0.233878284	 0.134454
H	-0.5595267906	 2.0457914233	-0.6621273698	 0.122683
H	-0.5846239884	 1.812167866	 1.1009546274	 0.133401
H	 0.0403957777	-0.2401088812	-2.2084157717	 0.09849
H	 1.5025236117	-0.8153245493	-1.3271754223	 0.094234
H	-1.6393898344	-3.6260908309	-1.0674371122	 0.108644
H	-1.2002277127	-2.8437668268	-2.5879339756	 0.088143
H	 0.9853567724	-3.6011703725	-2.0872367245	 0.284542
H	-0.5519536837	-2.6215639651	 1.3671132271	 0.112245
H	-2.4551380558	-0.7800567504	-0.021345936	 0.098217
72.0389	127.2699	196.6087	220.0567	262.9562	288.1592	337.3902	412.9412	461.1169	534.8811	616.3259	676.379	761.2787	777.3695	817.6119	829.5837	875.1855	909.7369	964.1085	974.3626	993.1772	1028.2682	1036.5987	1053.2151	1089.8279	1115.0923	1145.6567	1156.5392	1192.2289	1199.5235	1268.6578	1311.5625	1344.4473	1372.9682	1389.6914	1417.1873	1430.5602	1477.59	1488.1865	1489.1863	1499.4414	2967.0556	3032.9743	3038.3221	3056.7192	3097.074	3108.1727	3119.233	3199.0486	3215.0267	3817.2854
CC12CC3(CO)C(O1)C23	C[C@@]12C[C@@]3(CO)[C@@H](O1)[C@@H]23	
InChI=1S/C7H10O2/c1-6-2-7(3-8)4(6)5(7)9-6/h4-5,8H,2-3H2,1H3	InChI=1S/C7H10O2/c1-6-2-7(3-8)4(6)5(7)9-6/h4-5,8H,2-3H2,1H3/t4-,5-,6-,7-/m0/s1
