17
gdb 30285	3.109	1.60746	1.12931	3.7054	74.64	-0.2146	0.0249	0.2395	1057.842	0.138672	-418.036575	-418.029021	-418.028077	-418.068784	28.647	
C	 0.1086374807	 1.5585639019	-0.0884716826	-0.38389
C	-0.044582447	 0.0535567399	 0.0998458008	 0.027531
O	 0.5139168586	-0.641661888	-1.0505353086	-0.298858
C	 1.4796933066	-1.6439893244	-0.6965288984	-0.176246
C	 1.5798554291	-1.4844156334	 0.779958279	 0.254805
C	 0.7237603296	-0.5384421629	 1.2395253136	 0.246175
N	 0.8002219543	-0.39764997	 2.6009302439	-0.345835
C	 1.7172660817	-1.2734640656	 2.9578780827	-0.014747
N	 2.2297122885	-1.9699098113	 1.8848562936	-0.376148
H	 1.1659366678	 1.8296542146	-0.1570258741	 0.115517
H	-0.3980144575	 1.882473257	-1.0018923829	 0.119734
H	-0.3326190984	 2.0859873139	 0.7632091411	 0.126699
H	-1.1151462457	-0.1962862666	 0.154607668	 0.088309
H	 1.1181910244	-2.6363243236	-1.0094710525	 0.107742
H	 2.4176449918	-1.4492923921	-1.2373656667	 0.110311
H	 2.0599729086	-1.4556118057	 3.9656974402	 0.130608
H	 2.9386145568	-2.6825782537	 1.9253333428	 0.268293
85.4107	150.5618	209.9535	231.4113	296.8275	445.0981	462.3237	499.7826	603.1303	653.5849	682.9899	739.1062	786.0967	790.5572	852.4734	956.3304	1006.0934	1038.2366	1048.1307	1076.0037	1089.3398	1111.5541	1146.957	1183.9283	1255.0589	1291.5255	1331.3809	1371.9665	1381.8059	1400.932	1416.1703	1466.2263	1485.7225	1493.9982	1525.5343	1529.3203	1625.4345	2971.7546	2982.4911	2996.4279	3040.2277	3117.2548	3122.3821	3251.0747	3667.4939
CC1OCC2=C1N=CN2	C[C@H]1OCc2c1nc[nH]2	
InChI=1S/C6H8N2O/c1-4-6-5(2-9-4)7-3-8-6/h3-4H,2H2,1H3,(H,7,8)	InChI=1S/C6H8N2O/c1-4-6-5(2-9-4)7-3-8-6/h3-4H,2H2,1H3,(H,7,8)/t4-/m1/s1
