19
gdb 115068	3.22121	1.30562	1.03002	2.6215	76.64	-0.2414	-0.0024	0.239	1186.7676	0.159546	-423.00524	-422.996982	-422.996038	-423.03831	31.302	
C	 0.0256037687	 1.3008686628	 0.1749832112	-0.237392
O	-0.0824221008	-0.0856257724	-0.0545808037	-0.251151
C	 0.6111878511	-0.5526123126	-1.1989498269	 0.111684
C	 2.1378823368	-0.6102094539	-0.9840018672	-0.292919
C	 2.8450917825	-1.3958318546	-2.058980623	-0.089683
C	 2.2633516397	-2.421991542	-2.6813238207	-0.04101
C	 0.8808027202	-2.8354696422	-2.3301528439	-0.007867
O	 0.6091144432	-3.0523817442	-0.924780683	-0.252551
C	 0.0420004401	-1.9081193626	-1.552546716	 0.029246
H	 1.0438358988	 1.6070208869	 0.4548856394	 0.108639
H	-0.2788439931	 1.8829556819	-0.7094484202	 0.102772
H	-0.6465404317	 1.5416274896	 1.0022682565	 0.130046
H	 0.3948517878	 0.1147348905	-2.053446957	 0.068064
H	 2.5452464368	 0.4037822464	-0.9278147896	 0.102109
H	 2.3114095804	-1.0789432123	-0.0073259383	 0.141454
H	 3.8683307478	-1.1199240442	-2.2974532064	 0.097489
H	 2.7858779664	-2.990543802	-3.4439766137	 0.092971
H	 0.3941668194	-3.5573581985	-2.9826681665	 0.092779
H	-1.041865784	-1.9339106564	-1.663578621	 0.095319
76.9605	108.7154	201.2229	206.9895	274.283	336.9421	363.3944	447.8934	513.7522	519.0127	669.6603	719.337	727.3633	822.9142	865.4108	917.0284	954.2287	967.6451	983.6417	1017.4827	1032.0677	1053.4774	1120.3955	1141.5464	1155.6534	1181.5245	1193.6982	1212.6149	1225.8116	1277.7729	1323.1282	1346.7441	1365.4433	1400.425	1416.7673	1457.7378	1471.5962	1478.9059	1494.5482	1510.3076	1708.4744	2936.5853	2975.6759	3027.076	3036.4966	3081.7428	3113.2252	3115.3376	3134.3554	3162.2152	3187.5541
COC1CC=CC2OC12	CO[C@H]1CC=C[C@H]2O[C@@H]12	
InChI=1S/C7H10O2/c1-8-5-3-2-4-6-7(5)9-6/h2,4-7H,3H2,1H3	InChI=1S/C7H10O2/c1-8-5-3-2-4-6-7(5)9-6/h2,4-7H,3H2,1H3/t5-,6+,7-/m0/s1
