15
gdb 80204	2.22473	1.60839	1.21122	5.21	72.45	-0.2683	-0.0512	0.2172	1056.6426	0.111745	-416.7886	-416.780487	-416.779543	-416.82136	29.853	
C	-0.0521287909	 1.5815237619	 0.0368119388	-0.436579
C	 0.0636229441	 0.074822147	 0.1005434589	-0.014799
N	 1.2249746209	-0.7207800919	-0.2839835931	-0.153892
C	 2.4591221607	 0.0577501461	 0.0921577634	-0.28963
C	 2.05195785	 0.0207949479	 1.5728695174	 0.355497
O	 2.5911571668	 0.2545824393	 2.6089399442	-0.272946
C	 0.7635509696	-0.6920799002	 1.1960937305	 0.049426
C	 0.1671918588	-1.7848142311	 1.8935664669	 0.211141
N	-0.3123312906	-2.6552555168	 2.485696536	-0.329418
H	 0.7874044246	 2.1105120224	 0.4895602325	 0.142737
H	-0.1443445696	 1.9025205884	-1.005978105	 0.144974
H	-0.9598905069	 1.8911293696	 0.5625136892	 0.150425
H	-0.8441898787	-0.4350856755	-0.2177610053	 0.136955
H	 3.3485045505	-0.5550312557	-0.0764824558	 0.162207
H	 2.5776134007	 1.0212025488	-0.4069325787	 0.1439
111.1175	132.9764	155.4696	179.5774	307.4879	343.8999	390.3204	475.4662	514.1138	538.121	595.2264	651.7397	681.3563	734.6462	840.3191	885.6401	946.773	1010.4407	1028.1433	1070.8921	1111.1331	1142.3376	1181.5318	1238.2392	1263.2299	1305.7699	1412.1736	1432.5854	1466.0015	1495.1861	1501.4788	1907.7726	2350.472	3049.3026	3076.837	3113.7709	3126.6471	3134.735	3147.4932
CC1N2CC(=O)C12C#N	C[C@H]1N2CC(=O)[C@@]12C#N	
InChI=1S/C6H6N2O/c1-4-6(3-7)5(9)2-8(4)6/h4H,2H2,1H3	InChI=1S/C6H6N2O/c1-4-6(3-7)5(9)2-8(4)6/h4H,2H2,1H3/t4-,6-,8?/m1/s1
