15
gdb 9936	3.20202	1.55576	1.42409	2.5665	63.13	-0.2593	-0.0024	0.257	932.0289	0.116875	-399.786947	-399.778379	-399.777435	-399.81979	30.793	
C	-0.0407112611	 1.5594826071	 0.0384355689	-0.405289
C	 0.044836468	 0.0510922636	-0.0126990936	-0.111466
C	 1.3334903323	-0.6761765458	-0.3070505374	 0.072269
O	 2.5310203223	 0.0062635303	-0.4456739124	-0.42253
C	 0.7344034255	-0.7277849023	 1.1044008884	 0.187201
O	 1.408947509	 0.0620107596	 2.0522572708	-0.460944
C	 0.1452466764	-1.9366835454	 1.614219265	 0.239777
N	-0.3036757298	-2.923424741	 2.0203360783	-0.339314
H	 0.9015911802	 2.0113957377	 0.3501428612	 0.129165
H	-0.285355566	 1.9465085936	-0.9553060173	 0.133051
H	-0.8194901976	 1.8850818252	 0.7337199133	 0.134241
H	-0.8455406121	-0.4460978762	-0.3871718934	 0.117279
H	 1.3007959138	-1.5714126396	-0.9189294822	 0.127522
H	 2.6968707983	 0.4571556922	 0.3941323378	 0.292266
H	 2.0138553609	-0.5092558089	 2.5416594226	 0.306772
106.9394	132.3039	158.917	184.949	229.0627	271.5787	303.0093	434.0102	466.893	497.1893	573.957	593.3787	632.4875	704.7832	799.9778	854.5084	991.1837	1018.6064	1067.9229	1087.1777	1136.4123	1150.0513	1218.7321	1258.9259	1319.8618	1338.1521	1397.8382	1421.9518	1454.1245	1488.1847	1501.1939	2340.5301	3051.8104	3113.7057	3140.9172	3156.525	3174.309	3742.4244	3787.6212
CC1C(O)C1(O)C#N	C[C@H]1[C@@H](O)[C@]1(O)C#N	
InChI=1S/C5H7NO2/c1-3-4(7)5(3,8)2-6/h3-4,7-8H,1H3	InChI=1S/C5H7NO2/c1-3-4(7)5(3,8)2-6/h3-4,7-8H,1H3/t3-,4+,5-/m0/s1
