15
gdb 68726	2.51712	1.66315	1.30751	0.5663	71.88	-0.2465	0.0089	0.2554	999.3132	0.109261	-420.519019	-420.511016	-420.510072	-420.551335	30.641	
C	 0.0088252099	 1.5264959211	 0.0303444591	-0.501972
C	-0.0714785894	 0.0387993723	 0.0923728514	 0.295135
O	 1.0706400997	-0.7484958331	-0.264640649	-0.309727
C	 0.5200396567	-0.9325607017	 1.0636880635	 0.211763
C	 1.3466525027	-0.7231005638	 2.1992555548	 0.236839
C	 2.0268789221	-0.572607154	 3.179259448	-0.421363
C	-0.7141107614	-1.8242640078	 0.9168191477	-0.094023
O	-1.8638988459	-1.0406806876	 1.2611778269	-0.230185
C	-1.2938173068	-0.874646346	-0.0451776545	-0.054985
H	 0.9519105873	 1.872067384	 0.4602726674	 0.147348
H	-0.0470439594	 1.8752099864	-1.0064592806	 0.136464
H	-0.821293464	 1.9695744025	 0.588073562	 0.144428
H	 2.6300274489	-0.4350532031	 4.042596674	 0.198005
H	-0.7916067432	-2.902256614	 0.9710307343	 0.122117
H	-1.9224289073	-1.0640819352	-0.906090905	 0.120156
119.2607	136.0221	190.8085	214.3982	293.4711	361.2296	446.2842	526.7042	556.8769	594.3089	613.4962	630.3446	671.0451	704.2622	759.7487	839.7067	848.1824	877.6948	901.9347	974.119	1025.4104	1053.1896	1102.7769	1166.6674	1197.023	1241.6132	1291.9924	1352.0423	1404.2821	1452.1919	1482.4451	1488.5806	2242.8413	3041.4192	3108.2953	3132.3816	3200.4124	3216.1859	3500.4765
CC12OC1(C#C)C1OC21	C[C@@]12O[C@]1(C#C)[C@H]1O[C@@H]21	
InChI=1S/C7H6O2/c1-3-7-5-4(8-5)6(7,2)9-7/h1,4-5H,2H3	InChI=1S/C7H6O2/c1-3-7-5-4(8-5)6(7,2)9-7/h1,4-5H,2H3/t4-,5+,6+,7-/m1/s1
