19
gdb 73026	2.89993	1.1948	1.02003	3.1079	75.91	-0.2361	0.071	0.3071	1233.8848	0.158208	-422.954335	-422.945851	-422.944906	-422.987858	31.776	
C	 0.30748106	 1.465581692	 0.172854973	-0.499424
C	 0.0283689743	-0.0036466113	 0.0541658508	 0.240055
C	-0.7887520298	-0.6576190504	-1.0610590089	-0.13608
O	-1.3437938289	-1.6373134002	-0.1427819769	-0.287425
C	-0.6803032824	-0.9967934466	 0.9520266836	 0.03503
C	 0.8121613267	-1.0839424624	 0.7955752502	-0.116117
C	 1.4906877154	-2.2522592438	 0.1631730213	 0.067983
C	 2.9517883503	-2.323656126	 0.0298962675	-0.188219
O	 2.276697279	-3.0683519864	 1.0437709445	-0.238532
H	 1.0902414937	 1.7813666348	-0.5273503961	 0.1249
H	-0.5893909468	 2.0584685017	-0.0397394022	 0.122926
H	 0.6473315471	 1.7232835127	 1.1808156675	 0.125664
H	-1.5819711894	-0.0030251896	-1.4420548746	 0.108848
H	-0.2575875456	-1.1183842378	-1.9019741836	 0.106064
H	-1.2183859782	-0.9069963578	 1.8892777644	 0.106216
H	 1.357875956	-0.6773612087	 1.6448056909	 0.096946
H	 0.8799825092	-2.8222741728	-0.5342451379	 0.110625
H	 3.3977135094	-2.9140122134	-0.7700479666	 0.112768
H	 3.5638811399	-1.4956275941	 0.3872995731	 0.107771
61.2923	132.6985	165.7968	192.3802	248.9156	296.5758	349.3734	365.7294	481.4553	592.4364	629.0228	786.8259	817.8069	854.6012	862.7434	917.3869	936.6204	956.599	988.2653	1004.6563	1009.1259	1059.2042	1079.4599	1100.7447	1133.3003	1152.2555	1160.5237	1169.8918	1183.5838	1240.65	1259.2619	1292.0366	1296.3448	1325.0111	1412.9321	1422.3655	1486.394	1492.7167	1498.9561	1518.8564	1532.3324	3019.0796	3023.8895	3068.5557	3075.3628	3080.9308	3100.4971	3132.0888	3140.3784	3161.0994	3176.2315
CC12COC1C2C1CO1	C[C@]12CO[C@H]1[C@H]2[C@H]1CO1	
InChI=1S/C7H10O2/c1-7-3-9-6(7)5(7)4-2-8-4/h4-6H,2-3H2,1H3	InChI=1S/C7H10O2/c1-7-3-9-6(7)5(7)4-2-8-4/h4-6H,2-3H2,1H3/t4-,5-,6+,7-/m1/s1
