18
gdb 99550	2.1845	1.26598	0.85381	5.8386	77.23	-0.2672	0.0071	0.2743	1344.9008	0.146616	-398.145556	-398.135351	-398.134407	-398.181228	35.41	
C	 0.0263475782	 1.4869845432	-0.1753467057	-0.335814
N	-0.0237498423	 0.0528823493	 0.1130482743	-0.275866
C	-1.3594160124	-0.5224301368	 0.0648864449	-0.107799
C	-1.9201623847	-0.5237983987	-1.3071506206	 0.275968
N	-2.2714572178	-0.4906671429	-2.408059179	-0.31768
C	-1.345678989	-1.9606298669	 0.6659503341	-0.16138
C	-0.8427211577	-1.9634821643	 2.1215020198	-0.396217
C	-2.679178083	-2.5638249586	 0.5840500648	 0.279422
N	-3.7335540658	-3.0352500065	 0.5555571472	-0.311767
H	 1.0674153312	 1.816279598	-0.1369996996	 0.135344
H	-0.3923458561	 1.7607861688	-1.1555250846	 0.132934
H	-0.5262052961	 2.0300249977	 0.5983163092	 0.134719
H	 0.5799323699	-0.4466760702	-0.5333569584	 0.234741
H	-2.014301501	 0.0970128908	 0.6894879728	 0.145128
H	-0.6729683933	-2.5697186122	 0.048622658	 0.139392
H	-1.5257347735	-1.4019090633	 2.7652344465	 0.138611
H	-0.7833943981	-2.9868353176	 2.4981291331	 0.141519
H	 0.1424147513	-1.4990643098	 2.1666857833	 0.148745
51.7924	94.3943	114.4863	160.9094	188.3783	208.7796	222.7775	270.3317	298.7329	331.6175	409.8162	483.4919	543.6742	581.0829	623.0542	767.8882	846.6672	895.4952	967.317	999.9786	1059.2935	1091.8075	1129.6174	1152.6959	1161.2382	1194.0892	1278.1978	1324.0086	1338.5292	1354.5243	1405.9299	1460.3185	1488.3983	1490.2683	1496.5121	1500.4135	1520.8611	2346.0837	2362.4337	2993.4991	3032.7427	3052.4342	3058.5592	3077.3909	3122.1765	3131.0338	3159.4869	3513.6486
CNC(C#N)C(C)C#N	CN[C@@H](C#N)[C@@H](C)C#N	
InChI=1S/C6H9N3/c1-5(3-7)6(4-8)9-2/h5-6,9H,1-2H3	InChI=1S/C6H9N3/c1-5(3-7)6(4-8)9-2/h5-6,9H,1-2H3/t5-,6-/m0/s1
