18
gdb 93322	2.04529	1.7138	1.14754	2.8177	78.12	-0.2294	-0.0259	0.2035	1118.4737	0.14623	-401.927397	-401.918443	-401.917499	-401.961149	33.244	
C	-0.3555553944	 1.3870862852	-0.0605142398	-0.32465
N	 0.0730148519	 0.0030617431	-0.0024365699	-0.057284
C	 0.8937896363	-0.4464965423	-1.1305527542	-0.163076
C	 1.3076583705	-1.8618372914	-0.7187570187	-0.331132
C	 1.3062338951	-1.8152506304	 0.8093646622	 0.417648
O	 1.6496280568	-2.67904787	 1.5645257391	-0.30089
C	 0.7550673922	-0.4195253751	 1.2208080222	-0.283172
C	 1.8765832013	 0.4332926702	 1.6414313283	 0.352477
C	 2.8035124424	 1.1418507841	 1.9348752755	-0.482537
H	 0.4812716673	 2.1046635141	-0.0294410463	 0.112327
H	-0.9153783542	 1.5478413671	-0.9873425529	 0.120317
H	-1.0224980927	 1.6043360008	 0.7798524281	 0.123464
H	 0.302274749	-0.418129163	-2.050257428	 0.11
H	 1.7828789801	 0.1912530746	-1.2823970262	 0.097826
H	 0.570462921	-2.6085154212	-1.0323180727	 0.143824
H	 2.283570641	-2.1803590622	-1.0917487397	 0.13774
H	 0.0443240431	-0.5325187594	 2.0469544983	 0.123626
H	 3.6182334432	 1.7623857057	 2.2170386348	 0.203493
64.0866	125.8907	152.6211	173.5609	232.5272	298.9859	324.025	390.4257	456.0437	522.8409	568.2183	599.2812	632.0844	633.868	662.602	806.1855	827.725	892.4736	942.3047	991.0737	1051.4155	1056.0222	1126.408	1139.6316	1176.0571	1198.3212	1206.1969	1264.5275	1277.4274	1291.0481	1334.9012	1380.1387	1445.5727	1455.7969	1484.343	1506.9195	1520.9081	1868.6511	2216.9301	2946.0471	2970.68	3047.4996	3060.5095	3064.4684	3077.6036	3104.09	3118.1508	3500.3103
CN1CCC(=O)C1C#C	CN1CCC(=O)[C@H]1C#C	
InChI=1S/C7H9NO/c1-3-6-7(9)4-5-8(6)2/h1,6H,4-5H2,2H3	InChI=1S/C7H9NO/c1-3-6-7(9)4-5-8(6)2/h1,6H,4-5H2,2H3/t6-/m1/s1
