16
gdb 76363	2.04862	1.42914	1.19064	4.3447	78.34	-0.236	0.0059	0.2419	1122.1686	0.12295	-396.87678	-396.867006	-396.866062	-396.911129	35.456	
N	 0.1686144631	 1.4073304204	 0.0554324792	-0.521081
C	 0.0590348022	-0.0196797029	 0.0760388528	-0.036299
C	-0.4289171871	-0.7058761879	 1.2982830474	-0.01692
N	-0.7373457246	 0.0552100882	 2.4453062149	-0.509846
C	-1.3490500734	-0.7029693956	-0.0132572219	-0.074748
C	-2.4925909729	 0.1508481604	-0.0081569908	 0.241078
C	-3.4177593915	 0.9205376062	 0.0347888695	-0.418402
C	-1.4365504171	-1.9364815911	-0.7379680208	 0.220995
N	-1.4591419434	-2.9460784306	-1.3051402431	-0.348336
H	 0.6319875292	 1.7101139342	-0.793385569	 0.250146
H	-0.7503770011	 1.8434202584	 0.0607249949	 0.247455
H	 0.8316660555	-0.5268807206	-0.4907225078	 0.131534
H	-0.0341416421	-1.7002880867	 1.4893062058	 0.130497
H	-0.6513386137	 1.0500524706	 2.2762574679	 0.24802
H	-1.6434776444	-0.1526079735	 2.8461841521	 0.248655
H	-4.2598448387	 1.5677461802	 0.0571689189	 0.207252
112.3392	121.1938	132.7612	152.711	159.4927	189.2726	266.5094	346.9459	389.0852	473.5245	492.5938	573.1731	583.9781	596.052	633.6713	652.851	688.191	719.6277	764.2307	866.2446	889.3426	981.7972	1072.8757	1086.5787	1147.8248	1201.5885	1282.5111	1293.4013	1308.4289	1396.2816	1474.2987	1644.5326	1665.8816	2225.5524	2338.3036	3144.2184	3182.7057	3488.6499	3498.5351	3528.7943	3584.8975	3617.4654
NC1C(N)C1(C#C)C#N	N[C@H]1[C@@H](N)[C@]1(C#C)C#N	
InChI=1S/C6H7N3/c1-2-6(3-7)4(8)5(6)9/h1,4-5H,8-9H2	InChI=1S/C6H7N3/c1-2-6(3-7)4(8)5(6)9/h1,4-5H,8-9H2/t4-,5+,6+
