14
gdb 10245	3.22644	1.73432	1.15692	6.0345	62.14	-0.255	-0.0411	0.214	975.0861	0.105308	-415.896473	-415.888126	-415.887182	-415.9299	28.515	
C	-0.190163035	 1.479432442	 0.0126800824	-0.490683
C	 0.0734797182	-0.0109509767	 0.0251484733	 0.366703
N	 0.2925634149	-0.710841345	 1.0633290853	-0.475628
N	 0.0425479406	-0.6891329625	-1.2268149892	-0.169931
C	 0.2596831721	 0.0032119964	-2.4360893348	 0.167515
O	 0.1378617755	-0.4556943333	-3.5355098524	-0.254859
C	-0.2185068825	-2.0980014482	-1.2078120513	 0.176257
O	-0.0893467557	-2.8257112786	-2.1466854932	-0.251218
H	 0.6723292172	 2.0395428099	-0.36339058	 0.163108
H	-1.0511702901	 1.7375322758	-0.6102494669	 0.156303
H	-0.3804222739	 1.8147237281	 1.0338624953	 0.141764
H	 0.2261562263	-0.1407205367	 1.9045131627	 0.231947
H	 0.5711411452	 1.04567104	-2.2579010609	 0.098139
H	-0.5538895329	-2.4075531511	-0.2090689303	 0.140583
53.4114	122.6606	127.2498	206.1276	252.9302	258.8025	308.4766	416.0473	489.6646	539.9802	579.6348	628.3982	872.8446	919.6209	956.4775	1018.3555	1028.5399	1057.3572	1068.5989	1159.428	1249.6912	1378.2328	1408.9311	1433.5631	1467.808	1483.1039	1490.8478	1713.2138	1805.4116	1880.4967	2995.3502	3045.9672	3056.4633	3110.3092	3137.667	3503.2768
CC(=N)N(C=O)C=O	CC(=N)N(C=O)C=O	
InChI=1S/C4H6N2O2/c1-4(5)6(2-7)3-8/h2-3,5H,1H3	InChI=1S/C4H6N2O2/c1-4(5)6(2-7)3-8/h2-3,5H,1H3
