19
gdb 40539	4.499	1.04173	0.97117	1.7584	82.73	-0.2224	0.0079	0.2302	1261.0641	0.160465	-385.865745	-385.858068	-385.857124	-385.89838	30.046	
C	 0.3285188642	 1.3926890308	-0.0171960077	-0.188853
O	 1.1662947567	 0.2667132573	-0.2531810281	-0.236888
C	-0.2265113637	 0.0265650174	 0.0342842571	-0.024315
C	-0.544974455	-0.6680542011	 1.2942555348	 0.339622
C	-1.4799372018	-1.6166148491	 1.4423670308	-0.202154
C	-1.4873547729	-2.1905191318	 2.8155353757	-0.067133
C	-0.2078163266	-2.9095018761	 3.2078938407	-0.275202
C	-0.3778865367	-1.45452778	 3.5533953481	-0.042984
C	 0.1931924398	-0.4071826967	 2.5977154626	-0.334159
H	 0.5202312357	 1.9350827294	 0.9071178879	 0.114002
H	 0.121121786	 2.0174363375	-0.8856607448	 0.114715
H	-0.7985642203	-0.3063482008	-0.8322219959	 0.08792
H	-2.1305738696	-1.9714444113	 0.6499818673	 0.090914
H	-2.4199846094	-2.4778908284	 3.2882049061	 0.085658
H	-0.2639376394	-3.6169314088	 4.0290331587	 0.108891
H	 0.4773597896	-3.1887303428	 2.4136452374	 0.115188
H	-0.4876046337	-1.1948724634	 4.5994938467	 0.084999
H	 1.2782309212	-0.4907057582	 2.4673243946	 0.126767
H	 0.0001866459	 0.6097567762	 2.9656993579	 0.103013
59.4869	127.2554	181.396	275.0471	342.6459	401.9849	486.1606	532.4409	612.6073	694.1536	789.0754	808.2043	816.8073	842.7938	871.2922	899.4514	910.3155	941.7578	979.1614	992.9032	1022.3061	1051.4795	1070.4093	1093.1171	1097.4101	1104.8928	1147.2351	1167.2354	1180.9539	1193.9272	1222.468	1269.8235	1288.4132	1329.132	1361.1715	1378.7123	1418.8548	1474.6111	1486.6622	1520.8679	1693.2818	3012.8299	3061.3625	3080.7943	3106.7873	3122.1539	3166.8869	3167.7837	3179.0472	3188.2682	3211.969
C1OC1C1=CC2CC2C1	C1O[C@H]1C1=C[C@H]2C[C@H]2C1	
InChI=1S/C8H10O/c1-5-2-7(3-6(1)5)8-4-9-8/h2,5-6,8H,1,3-4H2	InChI=1S/C8H10O/c1-5-2-7(3-6(1)5)8-4-9-8/h2,5-6,8H,1,3-4H2/t5-,6+,8-/m1/s1
