19
gdb 126908	3.17743	1.02604	0.81392	2.5384	79.01	-0.1997	0.0398	0.2394	1426.7604	0.161377	-415.394617	-415.385285	-415.38434	-415.4296	34.061	
C	-0.1627424838	 1.5536734981	-0.1093189651	-0.390468
C	-0.300883355	 0.0602636217	-0.387444071	-0.11138
N	-1.2901718135	-0.5470373612	 0.5126064885	-0.417684
C	-1.5256198616	-1.9343465124	 0.3183791989	 0.104384
C	-2.7538749529	-2.4495535402	-0.0693885818	 0.345441
N	-3.9702262911	-1.7948833823	-0.2461144415	-0.606994
N	-2.5915624955	-3.7889873177	-0.1699972148	-0.252514
N	-1.3252417273	-4.1979330945	 0.1251584228	-0.242744
C	-0.6873795053	-3.074533612	 0.4236477789	-0.059419
H	 0.5524012315	 2.0127808181	-0.7982228816	 0.116958
H	-1.1271652024	 2.0588952457	-0.2175266927	 0.120666
H	 0.1982191137	 1.7338057255	 0.910272588	 0.112421
H	-0.6483412196	-0.1025689812	-1.4140568319	 0.104733
H	 0.6877396745	-0.424199477	-0.3147584585	 0.087082
H	-1.0344296363	-0.3498603414	 1.4754532859	 0.221933
H	-3.8128423905	-0.79674153	-0.1465385153	 0.254631
H	-4.4086714649	-1.9815704163	-1.1408526359	 0.246076
H	-3.2939256503	-4.4789382817	-0.3726600475	 0.266691
H	 0.3574261304	-3.1137561613	 0.6996210346	 0.100188
45.2763	62.7467	121.261	233.776	252.3939	270.9566	288.8696	329.292	374.3686	444.6571	501.7983	661.039	677.7907	697.8691	744.5492	795.7594	819.5854	845.7809	887.2431	922.7992	952.7458	1065.7992	1092.3884	1121.1001	1138.1668	1171.0663	1208.3761	1256.3417	1288.874	1352.3475	1371.7274	1387.3275	1408.6629	1456.3646	1466.0511	1492.9769	1497.4792	1521.5315	1561.9127	1625.696	1663.934	2956.57	3031.1042	3052.8879	3098.2997	3116.928	3229.7546	3496.905	3504.1479	3591.9532	3679.0699
CCNC1=C(N)NN=C1	CCNc1c(N)[nH]nc1	
InChI=1S/C5H10N4/c1-2-7-4-3-8-9-5(4)6/h3,7H,2H2,1H3,(H3,6,8,9)	InChI=1S/C5H10N4/c1-2-7-4-3-8-9-5(4)6/h3,7H,2H2,1H3,(H3,6,8,9)
