18
gdb 69729	3.72607	1.57493	1.39029	3.1334	74.12	-0.2285	0.0767	0.3052	963.9994	0.148941	-401.852328	-401.845569	-401.844625	-401.88307	28.32	
C	-0.0405184318	 1.530741237	 0.0802974965	-0.496902
C	 0.0550907415	 0.0328195389	-0.0008675789	 0.315905
N	-0.6039840238	-0.8400368923	 1.0101750599	-0.374028
C	 0.881824101	-0.8302524834	 0.8796452971	-0.130094
C	 1.3908490214	-1.8891693516	-0.0764224316	-0.040432
C	 0.2519446992	-2.2151875431	-1.0864318537	 0.058423
O	 1.2228532125	-2.4035740872	-2.1799463071	-0.322612
C	 1.6762272554	-1.2126286042	-1.4664173052	 0.047827
C	 0.2015027494	-0.6821152395	-1.3373288799	-0.091438
H	 0.7360286277	 2.0082454649	-0.5277189679	 0.127227
H	-1.0105929685	 1.8881921901	-0.2842995779	 0.128737
H	 0.0801541071	 1.8800210415	 1.1114353467	 0.115321
H	-0.8576630026	-0.2643916928	 1.8128732667	 0.222998
H	 1.4896425637	-0.436862303	 1.6870689135	 0.09045
H	 2.0395584013	-2.6975155731	 0.256253802	 0.08079
H	-0.5652848525	-2.9270702665	-0.9977645579	 0.101842
H	 2.5743364622	-0.7119765228	-1.8323055305	 0.089286
H	-0.3021390433	-0.3147398929	-2.2305464618	 0.0767
193.1452	213.9025	251.9578	342.439	422.1002	514.4721	545.488	563.3559	703.8592	757.5775	761.1064	837.9799	846.3146	870.8824	892.0103	906.8641	931.7608	946.8376	964.6616	989.1757	1001.2968	1049.955	1068.4613	1116.9033	1124.2115	1132.2999	1151.9597	1163.3382	1180.5932	1224.3993	1229.3627	1261.1538	1306.1025	1340.2057	1362.0899	1415.2549	1438.4125	1485.7136	1499.7156	3022.9271	3084.9287	3094.9324	3101.1205	3132.1763	3138.9988	3152.0741	3174.0509	3468.9105
CC12NC1C1C3OC1C23	C[C@]12N[C@H]1[C@H]1[C@@H]3O[C@H]1[C@H]23	
InChI=1S/C7H9NO/c1-7-3-4-2(5(3)9-4)6(7)8-7/h2-6,8H,1H3	InChI=1S/C7H9NO/c1-7-3-4-2(5(3)9-4)6(7)8-7/h2-6,8H,1H3/t2-,3+,4-,5+,6-,7+/m0/s1
