17
gdb 71557	2.47695	1.60427	1.49729	1.4939	74.31	-0.2424	-0.0323	0.21	975.6485	0.134881	-421.759893	-421.752069	-421.751125	-421.79233	30.095	
O	 0.1254305012	 1.2593439622	-0.113884459	-0.462853
C	 0.0293913844	-0.1073603475	-0.0648502436	 0.379109
C	 0.3599964893	-1.1612285122	-1.1336927519	-0.33263
C	-0.0768609119	-1.9677519166	 0.1085412468	-0.077942
C	 0.5862241077	-0.9557105064	 1.1114399367	-0.083311
C	-0.6977643357	-0.8152085945	 1.9528889041	-0.336059
C	-1.2192525148	-0.97788335	 0.5102578225	 0.200715
C	-2.594725365	-0.9335998023	-0.0316747841	 0.006701
O	-2.9157642327	-1.3594171992	-1.1190168605	-0.263603
H	-0.2915677884	 1.5715795189	-0.925072818	 0.294856
H	-0.2994288494	-1.2176160193	-2.00219759	 0.122712
H	 1.4142856815	-1.2362546436	-1.4194326975	 0.098129
H	-0.13051783	-3.0466796267	 0.2321645577	 0.091399
H	 1.6273385255	-0.9744161678	 1.4357477849	 0.080833
H	-0.9229332189	-1.6322901134	 2.6449414472	 0.098588
H	-0.8612838042	 0.154653083	 2.4301292646	 0.110588
H	-3.3429839484	-0.4369963647	 0.62909865	 0.072769
65.6996	172.825	181.5083	263.9292	341.6275	353.725	442.6478	463.7484	482.397	617.1876	681.1908	720.4855	780.6905	855.8012	902.8001	926.661	941.5045	980.4371	1004.4433	1018.6968	1048.973	1075.093	1105.4547	1118.3515	1129.6867	1158.7464	1202.3051	1211.293	1221.0006	1261.2064	1294.6535	1317.6488	1380.0091	1426.5713	1504.3371	1507.1871	1789.2373	2858.9749	3048.5705	3050.4486	3110.6094	3111.1226	3124.2709	3151.5629	3800.4101
OC12CC3C1CC23C=O	O[C@@]12C[C@H]3[C@@H]1C[C@@]23C=O	
InChI=1S/C7H8O2/c8-3-6-1-5-4(6)2-7(5,6)9/h3-5,9H,1-2H2	InChI=1S/C7H8O2/c8-3-6-1-5-4(6)2-7(5,6)9/h3-5,9H,1-2H2/t4-,5-,6-,7-/m0/s1
