17
gdb 55559	5.21139	0.76366	0.67244	4.8741	77.53	-0.2495	-0.0163	0.2333	1621.7988	0.133328	-418.014374	-418.004321	-418.003377	-418.051794	35.135	
C	-0.0778598204	 1.5900601346	 0.0040064439	-0.467201
C	 0.2040265413	 0.1085274925	 0.0062583392	 0.3777
N	 1.3882561979	-0.3394080788	-0.0248719547	-0.485211
N	-0.9848171668	-0.6667609944	 0.046676278	-0.388429
C	-1.0778944257	-2.0430738237	 0.0510808164	 0.450696
O	-0.1236908431	-2.7869135383	 0.0345278029	-0.329319
C	-2.5396126227	-2.5353255026	 0.0618104395	-0.517264
C	-2.6721148205	-3.9714485113	 0.2260879455	 0.338663
C	-2.8036688743	-5.1563470738	 0.3621283632	-0.425752
H	 0.8691849502	 2.1265973639	-0.0268000919	 0.161304
H	-0.6808305547	 1.8765666728	-0.8658198733	 0.131551
H	-0.6300378755	 1.8886604705	 0.903002456	 0.131869
H	 1.3888025117	-1.3600159422	-0.0166990475	 0.252093
H	-1.8511209826	-0.1505251202	 0.0687424932	 0.253142
H	-3.0822764844	-2.0088123929	 0.858524113	 0.151392
H	-3.0053090969	-2.2161421464	-0.8811625412	 0.161
H	-2.9056610337	-6.2063251498	 0.4836393179	 0.203765
6.8267	87.3266	103.3554	110.4338	165.5615	216.8052	315.516	327.9368	381.9746	405.3062	520.0904	541.5272	545.7348	608.1359	631.099	657.566	743.841	871.8013	932.2631	952.3148	970.71	1001.8208	1037.2318	1082.671	1122.8317	1189.4289	1223.1988	1328.1504	1356.2114	1408.8471	1450.0065	1471.2626	1485.1974	1511.9701	1745.6021	1811.5291	2254.8404	3011.6933	3030.4533	3043.1923	3084.6444	3167.1653	3486.7183	3506.8827	3616.502
CC(=N)NC(=O)CC#C	CC(=N)NC(=O)CC#C	
InChI=1S/C6H8N2O/c1-3-4-6(9)8-5(2)7/h1H,4H2,2H3,(H2,7,8,9)	InChI=1S/C6H8N2O/c1-3-4-6(9)8-5(2)7/h1H,4H2,2H3,(H2,7,8,9)
