19
gdb 75572	2.45661	1.67052	1.09923	2.5511	78.37	-0.2386	-0.0002	0.2385	1128.3787	0.159675	-423.003733	-422.995522	-422.994578	-423.036782	31.259	
C	 0.4740201799	 1.4877093643	 0.144103623	-0.48341
C	 0.0076052024	 0.0620210008	-0.0304459765	 0.317438
C	 0.0444124223	-0.5341344593	-1.2252075945	-0.155007
C	-0.3419983369	-1.9485235483	-1.5738351595	-0.148432
O	 0.0045878259	-2.9254284444	-0.6101968232	-0.220637
C	-0.906233864	-3.0657466066	 0.4456494351	-0.134318
C	-0.8988614006	-1.9513939293	 1.4688755744	 0.04858
O	 0.3591346765	-1.4932004481	 1.9454333077	-0.24922
C	-0.4866991976	-0.5575007811	 1.2354036191	-0.03688
H	 1.3056039973	 1.541991711	 0.8576240968	 0.139403
H	 0.8074896141	 1.9218858144	-0.8012324474	 0.122045
H	-0.3266122075	 2.1204363399	 0.5480753201	 0.123863
H	 0.4102395603	 0.0502901843	-2.0681670845	 0.085815
H	-1.4220714604	-2.0091033288	-1.8002147365	 0.098361
H	 0.185563244	-2.2377284128	-2.4891261021	 0.115932
H	-1.9393951435	-3.1812138574	 0.0711214004	 0.088521
H	-0.6357473312	-3.998370881	 0.9550193073	 0.120424
H	-1.6454236702	-2.1130079809	 2.2542604822	 0.083469
H	-0.9266323008	 0.1797965732	 1.9116192379	 0.084054
50.1417	175.943	220.6966	228.8704	269.3623	314.8795	359.0835	415.73	454.7956	568.1353	655.9125	713.6147	737.7596	830.6805	855.1332	871.4975	926.7942	937.6523	1012.3071	1033.056	1054.0913	1071.3744	1093.7547	1123.7005	1155.4219	1179.3475	1203.7586	1274.4741	1305.5171	1338.5874	1365.2839	1398.4988	1410.4612	1413.813	1426.2844	1472.9059	1478.5004	1485.1387	1492.3553	1500.6945	1741.0103	2939.075	2948.7872	3018.7796	3046.3639	3058.9586	3062.7564	3067.2551	3075.3164	3118.7508	3135.9892
CC1=CCOCC2OC12	CC1=CCOC[C@H]2O[C@@H]12	
InChI=1S/C7H10O2/c1-5-2-3-8-4-6-7(5)9-6/h2,6-7H,3-4H2,1H3	InChI=1S/C7H10O2/c1-5-2-3-8-4-6-7(5)9-6/h2,6-7H,3-4H2,1H3/t6-,7+/m1/s1
