23
gdb 103897	3.36126	0.75483	0.69726	2.9883	88.06	-0.2422	-0.0177	0.2245	1713.5605	0.202943	-388.297011	-388.286307	-388.285363	-388.333541	38.694	
C	 0.377509144	 1.5014055912	 0.2736897978	-0.383122
C	-0.131838552	 0.1063835719	-0.1135238567	-0.243992
C	 0.5509122551	-0.4809969321	-1.3421091261	 0.350482
C	 0.3118959887	 0.2895144579	-2.6302170824	-0.459726
C	 1.9032258411	-1.136044575	-1.1694726294	-0.327968
C	 0.6910012685	-1.9864315849	-1.4929099644	-0.061141
C	 0.1489963007	-3.0059113477	-0.505845805	-0.310958
C	 0.9242175295	-4.3054063072	-0.5845586108	 0.166753
O	 0.4339531214	-5.3937849156	-0.7417885703	-0.241052
H	 1.4585731313	 1.4900706	 0.4484560675	 0.117898
H	 0.1743676589	 2.2410253251	-0.5062870569	 0.119937
H	-0.1078966852	 1.8496745779	 1.1905020039	 0.11297
H	 0.0067498635	-0.5611726948	 0.7430849591	 0.092672
H	-1.2149329683	 0.1510032875	-0.2919281548	 0.096861
H	 0.7071359232	 1.309029659	-2.571048741	 0.120368
H	 0.7979000401	-0.1995420915	-3.479960463	 0.113894
H	-0.759370388	 0.3597413619	-2.8536286261	 0.115962
H	 2.6603059186	-0.9929256278	-1.9334396317	 0.110825
H	 2.3033848505	-1.2034157243	-0.1616701826	 0.106794
H	 0.6327079017	-2.3321724534	-2.5227809255	 0.091164
H	 0.2534501464	-2.6354381932	 0.5223233094	 0.116838
H	-0.9094673601	-3.2257552377	-0.6777899269	 0.120298
H	 2.0280894303	-4.1807459071	-0.4905163244	 0.074241
55.4667	57.744	87.6215	145.9014	176.656	217.9769	227.3907	275.2223	292.288	369.6467	374.7601	434.0014	506.5789	551.7058	679.6368	783.4225	789.313	830.925	887.6087	910.1314	931.4873	965.5757	1020.0057	1030.5199	1041.1506	1066.0789	1080.5837	1098.6213	1126.9122	1142.5468	1173.3829	1225.439	1266.1974	1293.4977	1312.9999	1333.191	1376.8733	1409.725	1418.8156	1425.9003	1426.5984	1456.8252	1478.0213	1488.6522	1497.3491	1501.2308	1507.845	1511.8007	1833.7674	2863.8709	3015.4428	3026.1016	3029.8177	3037.9917	3066.3244	3088.5462	3089.6319	3100.1192	3105.3165	3112.2017	3120.6339	3126.6814	3203.525
CCC1(C)CC1CC=O	CC[C@@]1(C)C[C@H]1CC=O	
InChI=1S/C8H14O/c1-3-8(2)6-7(8)4-5-9/h5,7H,3-4,6H2,1-2H3	InChI=1S/C8H14O/c1-3-8(2)6-7(8)4-5-9/h5,7H,3-4,6H2,1-2H3/t7-,8+/m1/s1
