19
gdb 88137	2.5148	1.55254	1.14613	4.555	77.01	-0.2242	0.0257	0.25	1120.8302	0.160579	-419.220742	-419.212275	-419.211331	-419.253837	32.06	
C	-0.1695807267	 1.4078346878	-0.111761676	-0.315608
N	 0.0592368081	-0.0196211095	 0.0430166442	-0.102189
C	 1.4214371507	-0.4952717809	-0.1451536866	-0.295531
C	 0.8204853956	-0.4884723995	 1.2145807045	 0.21137
C	 1.2728436808	 0.3779675215	 2.3829893026	-0.320159
C	 0.5259485807	-0.2234295936	 3.5999552354	-0.165724
N	 0.2429190613	-1.5817133448	 3.1689710302	-0.327739
C	 0.3009141847	-1.7843793303	 1.8152487218	 0.39146
O	 0.00631329	-2.7982548785	 1.2235707535	-0.382038
H	 0.6910931034	 2.0436553526	 0.1552841319	 0.098447
H	-0.415154639	 1.6033127538	-1.1602467764	 0.131555
H	-1.0270370946	 1.7122863556	 0.4973983497	 0.122812
H	 1.520775059	-1.4428975192	-0.6675760716	 0.136236
H	 2.1982045973	 0.2434713485	-0.3451958694	 0.102517
H	 2.3530345292	 0.2795926826	 2.52719172	 0.122091
H	 1.0526375561	 1.4394371919	 2.2578088632	 0.115062
H	 1.1427126823	-0.2127697399	 4.503910809	 0.114995
H	-0.3964324706	 0.3328643481	 3.818601689	 0.110586
H	-0.1906111884	-2.2700158463	 3.763412935	 0.251856
79.3514	154.4655	157.6056	212.1328	239.5317	294.4452	387.7393	438.7182	484.5811	510.4301	583.2403	697.0976	706.1865	713.7084	796.312	857.0667	911.0817	922.6954	961.1839	1053.483	1074.5683	1089.0829	1120.047	1132.0331	1153.5226	1193.3791	1208.7384	1222.5492	1234.7148	1298.2268	1308.8213	1350.4867	1409.0472	1446.8619	1447.6542	1483.7665	1489.4166	1500.0217	1503.0965	1537.6052	1836.8969	2962.8112	3000.9405	3055.7227	3065.6992	3071.1089	3081.7042	3102.4768	3116.7274	3183.7779	3643.5649
CN1CC11CCNC1=O	CN1C[C@]21CCNC2=O	
InChI=1S/C6H10N2O/c1-8-4-6(8)2-3-7-5(6)9/h2-4H2,1H3,(H,7,9)	InChI=1S/C6H10N2O/c1-8-4-6(8)2-3-7-5(6)9/h2-4H2,1H3,(H,7,9)/t6-,8?/m1/s1
