21
gdb 82751	2.17547	2.13783	1.50794	1.5186	80.87	-0.2326	0.0836	0.3162	991.587	0.183459	-387.059761	-387.051952	-387.051008	-387.091424	32.124	
C	-0.1064692715	 1.5396076034	-0.035928331	-0.435559
C	 0.0866460334	 0.0256148758	 0.0096258616	 0.026279
C	 1.0577607591	-0.6154088334	-1.0118683476	-0.109717
C	 2.4216551027	 0.0451236852	-0.6805629132	-0.260927
C	 2.3008531465	-0.7302867527	 0.6399588859	-0.113502
C	 1.5173922793	-1.8424108711	-0.0795750173	 0.111159
O	 0.5868785312	-2.0100386118	 0.988298698	-0.328232
C	 0.8309468503	-0.5795468007	 1.2334591076	 0.405406
C	 0.5280947462	-0.1347705	 2.634271868	-0.51193
H	 0.8155228539	 2.0963803411	 0.1519196707	 0.117978
H	-0.4909887786	 1.8554887945	-1.0116740996	 0.117337
H	-0.8345093752	 1.8540505931	 0.7193380745	 0.116592
H	-0.892206468	-0.4617148572	-0.0415817686	 0.078415
H	 0.715853857	-0.7460120634	-2.0378202177	 0.061939
H	 3.2326407949	-0.3696631721	-1.2875587939	 0.099339
H	 2.4984881394	 1.1337615877	-0.6815179461	 0.096548
H	 3.1133807227	-0.9123344959	 1.3421479584	 0.069005
H	 1.9162600367	-2.7563891577	-0.5171866541	 0.080633
H	 1.116568892	-0.7040905978	 3.3591920928	 0.127205
H	 0.7597433979	 0.9279001324	 2.7583078754	 0.123438
H	-0.5328298798	-0.2831939196	 2.8632753362	 0.128594
161.9141	201.4121	210.8406	227.5493	308.644	338.3856	463.0462	519.2853	529.4677	606.6337	680.4975	712.554	781.619	810.1928	823.0152	837.5419	861.7841	918.5893	953.5064	982.5078	1008.6186	1015.4326	1026.1622	1059.9209	1076.4544	1104.8637	1122.3879	1151.1062	1159.9695	1181.3866	1200.3576	1230.1439	1247.5539	1277.5738	1299.1294	1302.5079	1353.6848	1373.7589	1413.1231	1414.5838	1477.6722	1491.8605	1494.0733	1498.9001	1518.9642	3033.7645	3036.3082	3054.9639	3058.1648	3094.3598	3103.0165	3105.0781	3114.7031	3119.0014	3120.5212	3123.6653	3136.2636
CC1C2CC3C2OC13C	C[C@H]1[C@H]2C[C@@H]3[C@H]2O[C@]13C	
InChI=1S/C8H12O/c1-4-5-3-6-7(5)9-8(4,6)2/h4-7H,3H2,1-2H3	InChI=1S/C8H12O/c1-4-5-3-6-7(5)9-8(4,6)2/h4-7H,3H2,1-2H3/t4-,5+,6+,7-,8+/m0/s1
