18
gdb 102252	1.86998	1.28324	0.89715	2.3152	74.91	-0.2663	0.0317	0.298	1356.8791	0.144761	-439.100163	-439.089818	-439.088874	-439.136771	36.753	
C	 0.5388330562	 1.4881128294	 0.0462909438	-0.395891
C	 0.2352195655	-0.010464009	 0.0083602716	-0.181097
C	-1.2686591496	-0.3144063575	-0.016219166	-0.063894
O	-1.815063367	 0.2382544306	-1.2359651051	-0.268751
C	-2.9866408663	 0.9238618962	-1.1168538545	 0.505213
N	-3.3779946937	 1.3631705117	-2.3486110545	-0.56356
O	-3.5660314371	 1.1441680648	-0.0801983719	-0.392949
C	-1.5435982529	-1.7490981268	 0.0317475195	 0.332928
C	-1.7427967877	-2.9327056315	 0.0834651749	-0.452987
H	 1.6184451202	 1.6619681209	 0.0699914817	 0.115512
H	 0.1344295502	 1.992841572	-0.8351038064	 0.130887
H	 0.1031341735	 1.9594243672	 0.9337960882	 0.123704
H	 0.6962583874	-0.476838367	-0.8690842596	 0.1145
H	 0.6544577861	-0.5104341676	 0.888133588	 0.114707
H	-1.7726917452	 0.1811912526	 0.8196979071	 0.144838
H	-2.9681307435	 0.941145244	-3.1644888769	 0.26628
H	-4.3190146508	 1.7105749519	-2.4165083242	 0.270433
H	-1.9323207754	-3.9764843317	 0.1343367243	 0.200127
24.6017	68.8048	100.3754	135.7028	173.2185	244.5716	259.6932	305.6816	352.6885	413.2919	449.5378	511.4079	520.8985	578.0731	620.8995	656.4275	672.4583	769.1674	781.0628	886.9925	912.2985	992.5219	1036.4578	1069.4809	1112.7808	1117.1061	1155.8392	1285.1548	1312.335	1339.5684	1377.8658	1393.9193	1409.9378	1478.5025	1495.1977	1508.1575	1610.8002	1836.8892	2240.0137	3040.5332	3045.7401	3066.8325	3085.9931	3109.7011	3122.3494	3503.0011	3614.0852	3743.9715
CCC(OC(N)=O)C#C	CC[C@@H](OC(=O)N)C#C	
InChI=1S/C6H9NO2/c1-3-5(4-2)9-6(7)8/h1,5H,4H2,2H3,(H2,7,8)	InChI=1S/C6H9NO2/c1-3-5(4-2)9-6(7)8/h1,5H,4H2,2H3,(H2,7,8)/t5-/m0/s1
