21
gdb 104463	3.02953	1.20436	1.06801	3.0953	74.4	-0.2341	0.0587	0.2928	1212.8415	0.183014	-461.365282	-461.356224	-461.35528	-461.398537	35.171	
O	-0.1035452834	 1.4507094354	-0.1526363728	-0.437098
C	-0.0051205097	 0.0404008468	 0.0375366417	-0.132418
C	-1.4343887802	-0.5069873308	 0.0248522974	 0.3626
O	-2.0611419216	-0.1238984825	-1.1935893078	-0.477021
C	-1.4439263393	-2.0403940502	 0.0640229483	-0.233774
C	-2.8787132751	-2.5633654715	 0.2210182025	-0.212605
C	-3.552416503	-1.8946064474	 1.4190352555	-0.064227
O	-3.5370175706	-0.4824239906	 1.3036871745	-0.241082
C	-2.2270832327	 0.0369243545	 1.2360607711	-0.097874
H	 0.7649241765	 1.7956118262	-0.375824166	 0.295838
H	 0.5590890457	-0.4293253627	-0.7804546326	 0.096121
H	 0.495720735	-0.1975649613	 0.9878952467	 0.089736
H	-1.8731341843	 0.8168043712	-1.3024357241	 0.283906
H	-0.9846224127	-2.4243325446	-0.8526910583	 0.101294
H	-0.8294698259	-2.3785484669	 0.9090850005	 0.089203
H	-3.4492858978	-2.3303992836	-0.6830017989	 0.12628
H	-2.8815463401	-3.6514967555	 0.3504376859	 0.088079
H	-4.6049592598	-2.1822263398	 1.496324331	 0.103667
H	-3.0484971152	-2.201408892	 2.3542189226	 0.075787
H	-1.6721438508	-0.1946043918	 2.1639164823	 0.071188
H	-2.3227713651	 1.1229349871	 1.1617188801	 0.112399
113.3331	136.7413	194.0237	231.5907	234.839	308.4756	335.8243	367.6382	411.2735	430.3692	433.7003	503.7324	542.7369	639.4305	759.9297	855.0528	867.539	909.2386	925.9982	958.0867	999.4984	1036.1874	1060.1709	1066.4703	1110.3404	1130.5793	1150.9524	1192.4644	1215.4554	1227.0423	1258.4954	1282.6	1324.623	1331.311	1349.7446	1379.2622	1383.4302	1414.2731	1431.8178	1447.5432	1472.4046	1481.5084	1485.6336	1500.372	1508.038	2933.6867	2940.1474	2985.6506	3021.8344	3028.4605	3043.287	3074.993	3082.195	3098.9239	3100.3022	3778.3262	3846.1045
OCC1(O)CCCOC1	OC[C@@]1(O)CCCOC1	
InChI=1S/C6H12O3/c7-4-6(8)2-1-3-9-5-6/h7-8H,1-5H2	InChI=1S/C6H12O3/c7-4-6(8)2-1-3-9-5-6/h7-8H,1-5H2/t6-/m0/s1
