20
gdb 107115	3.39808	1.14803	1.1166	1.7289	78.93	-0.2159	0.0695	0.2854	1204.1603	0.169903	-403.060977	-403.052197	-403.051253	-403.094187	34.231	
C	 0.183155693	 1.4662048068	-0.3053751297	-0.478958
C	-0.0755853368	 0.0039582082	-0.0965856447	 0.342788
C	-0.9971762892	-0.544413602	 0.9187589464	-0.300532
N	 0.461082719	-0.7351791883	 1.1087964201	-0.225857
C	 0.9943101409	-1.7878832244	 0.1496701016	 0.343885
C	 2.3485592537	-2.3311870968	 0.5234367232	-0.164968
O	 2.8787547981	-3.2351477012	-0.4313567459	-0.410035
C	 0.0152108936	-2.455765595	-0.7708784661	-0.370369
C	 0.490261518	-1.0532504615	-1.069156254	-0.171623
H	 1.2242689813	 1.6407832167	-0.5990385147	 0.1246
H	-0.4612108008	 1.8652562853	-1.0979210421	 0.120891
H	-0.0103032882	 2.0294299053	 0.6117373878	 0.12706
H	-1.3993371207	 0.1606595534	 1.6415506651	 0.118945
H	-1.6506936615	-1.3877102979	 0.7277244089	 0.116459
H	 3.064828389	-1.5061704426	 0.5986172858	 0.121343
H	 2.2799057816	-2.7831079382	 1.5263007792	 0.098035
H	 2.3945935024	-4.0625290944	-0.350306679	 0.286528
H	 0.4894535283	-3.1919675265	-1.4130509351	 0.115044
H	-1.0096585614	-2.7019945435	-0.5155041391	 0.109737
H	 1.0139942199	-0.7963973936	-1.9809228675	 0.097025
68.3383	152.142	188.8422	212.8351	297.8729	313.9348	337.9141	358.7111	453.8774	477.7405	527.8682	604.4317	651.5773	731.1665	790.8459	807.7059	881.8274	914.252	944.1708	959.5654	996.8462	1008.5909	1035.8428	1043.969	1071.5685	1082.6589	1098.8308	1113.2955	1127.0264	1171.7076	1202.779	1220.2826	1312.0873	1372.7356	1383.8145	1393.4448	1410.8106	1418.9972	1476.8016	1484.6112	1495.0194	1500.6438	1525.4656	2976.6538	3025.8976	3070.1814	3086.3551	3113.987	3119.0034	3132.0493	3194.3429	3201.6868	3209.6818	3825.3926
CC12CN1C1(CO)CC21	C[C@]12CN1[C@@]1(CO)C[C@@H]21	
InChI=1S/C7H11NO/c1-6-3-8(6)7(4-9)2-5(6)7/h5,9H,2-4H2,1H3	InChI=1S/C7H11NO/c1-6-3-8(6)7(4-9)2-5(6)7/h5,9H,2-4H2,1H3/t5-,6+,7+,8?/m0/s1
