18
gdb 51488	3.72529	1.14095	0.96583	3.4097	77.56	-0.2301	-0.018	0.2121	1212.2784	0.147519	-401.931303	-401.9233	-401.922355	-401.964695	30.1	
O	-0.0118267164	-0.2225468288	 0.0463637427	-0.243918
C	-0.0029398408	 0.9614747569	-0.1658423912	 0.180335
C	 1.2002493339	 1.861981792	 0.0267128336	-0.292893
C	 1.3690678553	 2.8363789253	-1.1481540299	-0.020613
C	 2.5588939394	 3.7724862766	-1.0666070532	-0.105749
C	 3.2667898095	 3.728339418	-2.1949662711	-0.082964
C	 2.6894788881	 2.7161781319	-3.1255996563	-0.06771
C	 2.7184359514	 1.3156754719	-2.6140994983	-0.23877
N	 1.5073271918	 2.1320828463	-2.4494394861	-0.099771
H	-0.9191106434	 1.4913995335	-0.5162484633	 0.07562
H	 1.0295249374	 2.4491780703	 0.9404601858	 0.124139
H	 2.0846059315	 1.2414974635	 0.191085557	 0.123174
H	 0.4404584043	 3.4257503623	-1.2102419051	 0.095471
H	 2.7781395228	 4.3767742419	-0.1939265074	 0.103178
H	 4.1482596272	 4.3139340974	-2.4250706623	 0.10862
H	 2.615946681	 2.9219530691	-4.1899500064	 0.099502
H	 2.589792621	 0.4784693576	-3.2942529814	 0.123591
H	 3.358250946	 1.1213650444	-1.7575451271	 0.118757
50.1266	90.9113	151.0412	225.1756	314.7699	385.36	449.0356	471.3384	600.6301	699.9859	712.0403	755.1963	779.3642	806.3399	856.7013	899.6726	934.8999	963.7805	993.1551	1036.7438	1061.2707	1070.6209	1096.0915	1107.707	1109.0356	1136.1987	1160.6212	1203.387	1255.3352	1270.0988	1314.5241	1344.2823	1360.8734	1375.1155	1428.4892	1455.9796	1491.2785	1667.2849	1837.6668	2863.2671	2969.7383	3021.1066	3105.4202	3111.0458	3146.367	3194.4499	3198.5143	3221.181
O=CCC1C=CC2CN12	O=CC[C@H]1C=C[C@H]2CN12	
InChI=1S/C7H9NO/c9-4-3-6-1-2-7-5-8(6)7/h1-2,4,6-7H,3,5H2	InChI=1S/C7H9NO/c9-4-3-6-1-2-7-5-8(6)7/h1-2,4,6-7H,3,5H2/t6-,7+,8?/m1/s1
