18
gdb 37122	3.76451	1.56836	1.48496	2.2876	73.77	-0.2049	0.0625	0.2674	933.7441	0.150001	-401.850307	-401.843666	-401.842722	-401.880877	27.933	
C	 0.0141477652	 1.4707600783	-0.110935822	-0.37392
C	 1.3392745989	 0.7692646593	 0.0134860615	 0.205447
C	 1.9352970657	 0.5493238293	 1.3817257068	-0.151784
O	 0.8535087524	 0.1037737305	 2.210741272	-0.254786
C	-0.0527667454	-0.6500039729	 1.3943210494	-0.151786
C	 0.0178808728	-0.0278658183	 0.0218593566	 0.205453
C	 0.5021508044	-0.7831582197	-1.2506909371	-0.120245
N	 0.7550373772	 0.2195988253	-2.3124376464	-0.329301
C	 1.769730167	-0.0185773455	-1.2586693686	-0.120235
H	-0.3057712118	 2.0103504977	 0.7745367061	 0.124728
H	-0.2587088066	 1.9131014033	-1.0591879345	 0.146254
H	 2.7328560984	-0.2105190944	 1.3237916177	 0.087055
H	 2.3478532973	 1.441130099	 1.8643434446	 0.111194
H	 0.2469069613	-1.7101987272	 1.3395386871	 0.087057
H	-1.0295235129	-0.5963121326	 1.8857507501	 0.111194
H	 0.2808199581	-1.8139916697	-1.4970230883	 0.095524
H	 1.059689891	-0.2940248664	-3.1389531523	 0.232628
H	 2.7824801171	-0.305032896	-1.5127648624	 0.095523
209.4573	227.0564	301.9227	318.3569	423.7702	493.4402	536.7775	628.3403	678.1777	746.8012	768.3651	836.2005	856.9076	859.0416	897.2191	915.3978	924.4315	941.2973	979.8727	1006.6659	1012.552	1047.9828	1084.5235	1103.848	1112.0166	1160.6196	1204.7026	1226.8519	1245.9729	1247.526	1280.8922	1311.8817	1341.0033	1359.9282	1373.2305	1390.4973	1449.9156	1506.6176	1518.1232	2961.063	2967.0538	3067.9838	3070.1784	3145.7837	3183.4152	3196.8926	3247.4805	3474.9713
C1C23COCC12C1NC31	C1[C@@]23COC[C@@]12[C@H]1N[C@@H]31	
InChI=1S/C7H9NO/c1-6-2-9-3-7(1,6)5-4(6)8-5/h4-5,8H,1-3H2	InChI=1S/C7H9NO/c1-6-2-9-3-7(1,6)5-4(6)8-5/h4-5,8H,1-3H2/t4-,5+,6+,7-
