19
gdb 74481	3.18319	1.23414	0.96801	3.3965	86.03	-0.2329	-0.037	0.1959	1250.7043	0.158862	-385.92788	-385.919267	-385.918322	-385.961364	32.614	
C	 0.0036936722	 1.5148612416	-0.0078988985	-0.492008
C	-0.0318502661	 0.0217774053	 0.0057827583	 0.188693
C	-1.0842799956	-0.8117291258	-0.0617493293	-0.215908
C	-0.7107499958	-2.2440084086	-0.0192430025	 0.335721
C	-1.603610177	-3.2533505918	 0.6790689117	-0.30777
C	-1.4945222823	-3.2693029641	-0.8180643596	-0.307755
C	 0.8097536741	-2.2682024902	 0.0917981059	-0.436224
C	 1.2121130497	-0.7833324708	 0.104869216	 0.316904
O	 2.3403724198	-0.3507427979	 0.1820812543	-0.331233
H	 0.6087116643	 1.8786971923	-0.8456898683	 0.141925
H	-0.9977413246	 1.9455040092	-0.0864959519	 0.11799
H	 0.4798514477	 1.89773287	 0.9014638089	 0.141899
H	-2.1222831273	-0.4998298876	-0.140497204	 0.107015
H	-1.113275028	-4.0427113608	 1.2388310718	 0.121074
H	-2.5249739648	-2.8945527441	 1.1257843448	 0.117004
H	-2.3408500672	-2.9214689624	-1.4011093069	 0.117008
H	-0.9294478565	-4.0695869911	-1.2839916309	 0.12108
H	 1.1689310147	-2.7498666945	 1.0067210716	 0.132296
H	 1.2970537428	-2.7691597689	-0.7506149313	 0.132288
72.333	98.8287	146.5242	228.9254	282.6894	301.2903	339.2097	444.3816	461.0788	512.1792	609.0837	634.1623	754.4152	780.4002	830.8406	836.904	890.1147	944.2807	959.3558	985.9333	988.3752	1005.0067	1059.8737	1069.617	1076.1209	1080.4712	1174.2232	1192.9538	1193.3872	1231.4411	1312.871	1331.9628	1377.8556	1414.0845	1451.7058	1466.6241	1473.083	1485.7567	1497.9231	1685.3208	1803.2797	3034.7785	3054.3114	3087.9442	3094.9077	3119.16	3127.0371	3130.6126	3169.0894	3207.115	3222.4637
CC1=CC2(CC2)CC1=O	CC1=CC2(CC2)CC1=O	
InChI=1S/C8H10O/c1-6-4-8(2-3-8)5-7(6)9/h4H,2-3,5H2,1H3	InChI=1S/C8H10O/c1-6-4-8(2-3-8)5-7(6)9/h4H,2-3,5H2,1H3
