22
gdb 59970	2.2921	1.07693	0.90615	3.7674	78.78	-0.2355	0.0361	0.2716	1419.1505	0.19264	-441.532607	-441.521833	-441.520889	-441.568253	39.83	
C	-1.7037064254	 1.5068835583	-1.5165161011	-0.402049
C	-1.948752702	 0.0103842139	-1.3392599559	 0.115035
O	-1.337281567	-0.7381756417	-2.4014092323	-0.428936
C	-1.5089791439	-0.4917377159	 0.0450403726	-0.206666
C	-1.5082394492	-2.0270673526	 0.2227036993	-0.07426
C	-1.0749210553	-2.4143561273	 1.6396961237	-0.396255
C	-2.89810184	-2.6070962312	-0.0810509071	 0.380813
N	-3.0782249623	-2.9878666297	-1.3825697993	-0.51563
O	-3.7595153568	-2.7307278964	 0.7698560762	-0.375617
H	-2.0342262793	 1.8337965954	-2.5059340057	 0.125925
H	-2.2445948908	 2.0841102148	-0.7599716281	 0.12467
H	-0.6369792357	 1.7425702303	-1.4143992873	 0.10824
H	-3.0177634684	-0.1909223594	-1.4658843562	 0.103326
H	-0.3851400833	-0.5941092651	-2.3578194741	 0.281792
H	-0.4936923505	-0.1249141423	 0.2538393463	 0.086599
H	-2.1628150034	-0.040133463	 0.8011469186	 0.118188
H	-0.8013315287	-2.4435720004	-0.5025115525	 0.074035
H	-0.9596524714	-3.4980003026	 1.7340554118	 0.118456
H	-0.1192619381	-1.9456502993	 1.8958818993	 0.099992
H	-1.8307937004	-2.0990078822	 2.3627968289	 0.140736
H	-2.4549012198	-2.622987927	-2.0894363974	 0.270769
H	-4.0175351582	-3.2325187668	-1.6565069095	 0.250839
65.3196	102.4028	119.0307	159.2334	200.4232	233.67	241.4941	281.4809	292.8504	328.7217	368.6471	451.2774	483.223	505.7331	525.5086	609.4999	647.7453	754.5284	774.1191	831.3238	902.4976	913.5055	966.0732	1009.6221	1058.0395	1077.6167	1097.917	1145.9898	1148.6415	1164.4373	1201.6725	1284.1762	1302.1638	1314.9744	1352.3885	1381.4287	1403.1776	1406.4733	1416.162	1427.1719	1475.6704	1487.5385	1493.109	1493.9966	1502.1199	1628.4065	1794.8105	3003.7175	3026.2869	3040.2814	3046.4876	3057.3948	3069.093	3098.6327	3107.2878	3121.0558	3129.5556	3549.8773	3686.5786	3797.0784
CC(O)CC(C)C(N)=O	C[C@@H](O)C[C@@H](C)C(=O)N	
InChI=1S/C6H13NO2/c1-4(6(7)9)3-5(2)8/h4-5,8H,3H2,1-2H3,(H2,7,9)	InChI=1S/C6H13NO2/c1-4(6(7)9)3-5(2)8/h4-5,8H,3H2,1-2H3,(H2,7,9)/t4-,5-/m1/s1
