17
gdb 87319	2.16509	1.31955	0.94125	4.9263	74.48	-0.2762	-0.0513	0.2249	1256.1292	0.134236	-418.011174	-418.001774	-418.00083	-418.046117	33.06	
C	-0.0324353838	 1.4030902301	-0.1491140072	-0.409894
C	 0.1249034104	-0.0827723204	 0.0606622304	-0.025178
N	 1.4666324061	-0.6458913455	 0.0375355272	-0.346632
C	 0.7254851568	-0.7021551966	 1.3033721412	 0.204797
C	 1.2457121515	 0.1390520026	 2.4615198819	-0.429518
C	 2.3293891704	-0.5277348114	 3.1866294757	 0.267649
N	 3.1715694445	-1.0730494668	 3.759359952	-0.297207
C	 0.1438607651	-2.0341995771	 1.6639848626	 0.110176
O	-0.0203297089	-2.9164462001	 0.8560617912	-0.265967
H	 0.822757662	 1.9620731173	 0.2360718252	 0.133722
H	-0.1026035814	 1.6130676851	-1.2214344868	 0.139525
H	-0.9465591795	 1.7749502378	 0.3247742682	 0.127619
H	-0.6615702226	-0.692823159	-0.3813483588	 0.115228
H	 1.4466461631	-1.5799049853	-0.3734882394	 0.254274
H	 1.6134513861	 1.0979659706	 2.0911989282	 0.167455
H	 0.4354117009	 0.3532157498	 3.1691916878	 0.156125
H	-0.1365039607	-2.166006821	 2.7302120507	 0.097826
43.3531	100.4794	136.3571	171.2756	210.7876	225.1026	265.3941	350.08	376.4501	407.0893	465.8034	521.8879	673.2255	763.9089	791.0304	872.8609	906.9271	946.5896	989.9539	1028.9302	1050.6046	1074.8653	1128.9451	1137.1903	1210.4779	1260.9071	1300.9145	1309.2692	1359.486	1406.0801	1428.7691	1450.555	1454.9459	1485.7987	1499.4706	1806.0947	2364.2386	2914.9651	3042.116	3046.758	3104.7016	3115.7023	3120.3474	3137.356	3464.7545
CC1NC1(CC#N)C=O	C[C@H]1N[C@]1(CC#N)C=O	
InChI=1S/C6H8N2O/c1-5-6(4-9,8-5)2-3-7/h4-5,8H,2H2,1H3	InChI=1S/C6H8N2O/c1-5-6(4-9,8-5)2-3-7/h4-5,8H,2H2,1H3/t5-,6-/m1/s1
