20
gdb 103198	3.35975	1.35827	1.27365	3.1686	77.48	-0.2341	0.0629	0.297	1088.1862	0.170853	-403.08093	-403.072701	-403.071757	-403.11332	32.742	
C	-0.0046015697	 1.5927905671	-0.090647796	-0.413465
C	-0.0546961508	 0.0610218158	-0.0290504627	-0.229223
C	-1.4710054618	-0.5184999776	 0.0840509964	 0.443234
O	-2.2935138852	-0.113245168	-0.9908792119	-0.490675
C	-1.458185428	-2.0252223165	 0.3062534369	-0.094189
C	-1.4531861558	-1.8571676632	 1.7803234157	-0.048586
C	-2.0674853271	-0.4305984533	 1.5360751725	-0.172113
C	-3.4030458118	-1.1695773398	 1.3830638862	-0.153092
N	-2.6483668733	-2.4458692277	 1.1208837216	-0.160301
H	 1.0312078579	 1.9427130915	-0.1217102205	 0.124363
H	-0.492854467	 1.9844469341	-0.9909978129	 0.113406
H	-0.4827251025	 2.051862464	 0.7813289028	 0.121498
H	 0.4147829479	-0.3519799269	-0.9303316335	 0.1044
H	 0.5372831135	-0.2882522074	 0.8237446926	 0.106404
H	-2.2367483327	 0.8440779569	-1.0779619623	 0.277026
H	-0.9970551526	-2.7881507732	-0.3079954135	 0.094341
H	-0.8846084466	-2.3248121065	 2.5720870742	 0.09669
H	-1.9435805546	 0.467012412	 2.1405259995	 0.066017
H	-3.9460997897	-1.2856603256	 2.324144295	 0.101707
H	-4.0743025201	-0.8503447756	 0.5814039799	 0.112559
99.481	166.4816	204.3068	255.9639	280.5792	308.207	371.8463	415.3907	499.1097	571.1155	639.1647	758.1914	775.6773	791.2374	810.2749	836.3189	909.7229	919.2562	952.1537	966.2712	989.0548	1002.4058	1019.795	1042.519	1055.8667	1097.0334	1139.4956	1160.6891	1172.1575	1190.4615	1199.2491	1222.2933	1239.2478	1294.8317	1308.9468	1318.0026	1356.9794	1396.7318	1413.6447	1478.148	1499.6445	1500.9598	1511.7099	3027.3041	3031.9058	3059.3381	3069.7964	3094.6927	3107.8677	3118.8537	3122.095	3196.5036	3215.0964	3811.5796
CCC1(O)C2C3C1CN23	CC[C@@]1(O)[C@H]2[C@H]3[C@@H]1CN23	
InChI=1S/C7H11NO/c1-2-7(9)4-3-8-5(4)6(7)8/h4-6,9H,2-3H2,1H3	InChI=1S/C7H11NO/c1-2-7(9)4-3-8-5(4)6(7)8/h4-6,9H,2-3H2,1H3/t4-,5+,6+,7-,8?/m0/s1
