16
gdb 73915	2.92254	1.40711	1.02863	4.0067	77.61	-0.2569	-0.0508	0.2061	1127.0517	0.124422	-400.764278	-400.756335	-400.755391	-400.796807	29.616	
C	-0.0401479251	 1.5169705209	 0.1125091981	-0.522171
C	-0.0256729555	 0.0292899699	 0.0218089479	 0.239567
C	-0.0105409851	-0.737869651	-1.0883238758	 0.091529
C	-0.0253211485	-2.229796857	-0.7796837424	-0.345534
C	 0.0351446693	-2.2530507974	 0.7403461842	 0.033323
O	 1.2137043342	-1.6620148282	 1.2852883747	-0.246718
C	 0.0127368319	-0.8612573819	 1.2246029956	-0.052128
C	 0.0419393505	-0.2442125775	-2.4182400653	 0.208222
N	 0.0714174555	 0.1405809483	-3.5114574842	-0.345869
H	 0.85689246	 1.8797903882	 0.6289256305	 0.150714
H	-0.0860266803	 1.981756757	-0.8745918882	 0.156236
H	-0.900982423	 1.8609553855	 0.6991358675	 0.140243
H	-0.9390922862	-2.7070462798	-1.1522680914	 0.131448
H	 0.8247572918	-2.7524699063	-1.2310771234	 0.145517
H	-0.3771224567	-3.0857143275	 1.3026280917	 0.108957
H	-0.3867363129	-0.5454264231	 2.1836224204	 0.106666
121.6612	142.9337	165.4609	194.0856	299.6351	327.496	382.4618	513.8765	535.8089	599.9585	625.9607	643.9879	769.8143	842.982	858.0644	900.9683	939.2639	1004.7269	1021.0604	1055.8935	1099.4207	1102.2321	1176.6335	1190.4107	1240.2811	1259.3351	1311.2446	1354.1579	1407.1301	1414.5959	1463.297	1477.1582	1479.7826	1677.4782	2329.6949	3025.5272	3044.1632	3074.965	3084.8041	3130.5218	3157.0414	3168.9055
CC1=C(CC2OC12)C#N	CC1=C(C[C@H]2O[C@@H]12)C#N	
InChI=1S/C7H7NO/c1-4-5(3-8)2-6-7(4)9-6/h6-7H,2H2,1H3	InChI=1S/C7H7NO/c1-4-5(3-8)2-6-7(4)9-6/h6-7H,2H2,1H3/t6-,7+/m1/s1
