17
gdb 45167	3.03849	1.80704	1.57327	4.3508	71.2	-0.2369	0.021	0.2579	891.5347	0.140447	-418.041099	-418.034632	-418.033688	-418.071904	26.684	
O	 0.0237608885	-0.074336745	 0.0155087535	-0.392025
C	-0.0113152845	 1.1416498062	 0.0197893989	 0.420175
N	-1.1578846853	 1.8871359724	 0.0216260328	-0.311675
C	-1.0368505486	 3.3365782799	 0.0139006246	-0.045108
C	-0.1875057449	 3.7634017166	 1.2334325929	-0.232429
C	 1.1892990984	 3.3094956363	 0.7774078823	-0.039096
C	 1.2197186979	 2.0064416223	 0.0309873754	-0.144409
N	 1.2495514942	 3.3109556288	-0.6933755288	-0.11995
C	-0.0921061855	 3.7194558412	-1.1490288338	-0.15643
H	-2.0454027491	 1.4116099788	-0.0087020374	 0.252026
H	-2.0239074336	 3.795398914	-0.0298777067	 0.087361
H	-0.2068316563	 4.850062171	 1.3681255084	 0.113027
H	-0.5238305132	 3.2876251773	 2.1576893139	 0.118563
H	 2.0769221206	 3.635477066	 1.3093394272	 0.102912
H	 2.144211165	 1.4443133869	-0.0279221267	 0.114027
H	-0.3563157519	 3.218713656	-2.0833457878	 0.119516
H	-0.0765167917	 4.8016233111	-1.3137992086	 0.113517
88.8052	347.0646	380.2042	388.8563	437.1209	491.4823	500.9808	597.9027	661.5634	749.8127	791.9845	804.7166	859.0893	869.927	882.3206	918.2545	943.8014	991.058	1046.9408	1062.9382	1066.7539	1094.6536	1114.4088	1179.1062	1209.1379	1227.5859	1244.6193	1285.6246	1298.2781	1311.5197	1342.9022	1383.5562	1384.7218	1449.739	1479.3338	1498.8245	1801.6101	3051.7258	3057.1003	3111.048	3115.0267	3124.4259	3168.5396	3190.72	3643.4158
O=C1NC2CC3C1N3C2	O=C1N[C@H]2C[C@H]3[C@@H]1N3C2	
InChI=1S/C6H8N2O/c9-6-5-4-1-3(7-6)2-8(4)5/h3-5H,1-2H2,(H,7,9)	InChI=1S/C6H8N2O/c9-6-5-4-1-3(7-6)2-8(4)5/h3-5H,1-2H2,(H,7,9)/t3-,4-,5-,8?/m0/s1
