19
gdb 88241	3.11017	0.77307	0.66561	0.6491	90.67	-0.2314	0.0374	0.2689	1711.4397	0.15666	-348.682286	-348.672195	-348.671251	-348.719191	36.259	
C	-0.8315826383	 0.9672338206	 0.7718702226	-0.4088
C	 0.051585452	-0.0571182979	 0.0994983788	 0.017114
C	 1.4256725472	 0.3018730839	-0.3854386282	-0.287381
C	 1.2752693265	-0.6334618072	 0.8086078533	-0.187845
C	 1.6455536224	-0.1958467524	 2.1231112002	 0.097193
C	 1.9545040362	 0.1638076276	 3.230524232	 0.071287
C	 2.3325346287	 0.6058694374	 4.5744769369	-0.492264
C	 1.6800313336	 1.8526336015	 4.9815829438	 0.319098
C	 1.1518803141	 2.8752354659	 5.3235294714	-0.447914
H	-0.2477690041	 1.6329764424	 1.4133091897	 0.135765
H	-1.3515792472	 1.5795808189	 0.0270973356	 0.114675
H	-1.5887466936	 0.4853034295	 1.3994921677	 0.120423
H	-0.4816952058	-0.7844425906	-0.5071721728	 0.088736
H	 1.7896255281	-0.125658421	-1.3131630864	 0.114137
H	 1.7884641962	 1.3016869057	-0.1739245092	 0.123863
H	 1.4772669071	-1.6825450588	 0.6111304488	 0.106692
H	 2.0916714364	-0.1801557449	 5.3040325768	 0.15855
H	 3.4224642509	 0.7363279417	 4.6323184195	 0.15793
H	 0.6824465593	 3.7790694678	 5.6234431195	 0.19874
15.3201	51.8032	114.6608	146.8147	200.6028	262.6055	286.5997	322.6004	357.5535	378.5483	439.3923	546.4958	608.7353	619.2528	645.5096	726.8085	765.2479	851.1313	880.3239	927.8105	936.0301	944.9505	993.0101	1066.1936	1067.3512	1102.9246	1143.0912	1178.611	1199.9338	1228.5082	1241.301	1334.1483	1379.6331	1404.9264	1425.9744	1456.1665	1483.9599	1494.1008	1502.1374	2246.0304	2368.1378	3003.1129	3025.7902	3033.7464	3093.9346	3113.7259	3134.9124	3136.827	3146.5183	3224.8947	3507.3326
CC1CC1C#CCC#C	C[C@H]1C[C@H]1C#CCC#C	
InChI=1S/C9H10/c1-3-4-5-6-9-7-8(9)2/h1,8-9H,4,7H2,2H3	InChI=1S/C9H10/c1-3-4-5-6-9-7-8(9)2/h1,8-9H,4,7H2,2H3/t8-,9+/m0/s1
