20
gdb 101203	3.47186	0.88777	0.76192	1.4748	77.12	-0.2623	0.0267	0.2889	1503.9476	0.16991	-440.285675	-440.276057	-440.275113	-440.320569	35.225	
C	-0.0821843529	 1.6947832399	 0.4085099944	-0.399935
C	 0.0729880152	 0.2006747803	 0.0989464275	-0.019057
C	 0.7731093142	-0.5397254583	 1.2513400581	-0.075192
O	 2.0677930015	-0.0269512435	 1.526681979	-0.41761
C	-1.2745960791	-0.4341195884	-0.2007180888	 0.125409
C	-1.9626825622	-0.1111842263	-1.5455868211	-0.382562
C	-1.7724293692	-1.5873382367	-1.821454378	 0.434769
N	-2.0575368521	-2.354433129	-2.7703642659	-0.538841
O	-1.1510144985	-1.8437012701	-0.6155498726	-0.267865
H	 0.8860931524	 2.1155533032	 0.6876406633	 0.13834
H	-0.4700885626	 2.2513182311	-0.4500656938	 0.115122
H	-0.7680834891	 1.8507937556	 1.2497250696	 0.116807
H	 0.6969525045	 0.0834775339	-0.8003073636	 0.069848
H	 0.1992680422	-0.4058327419	 2.1764654107	 0.108587
H	 0.8036285538	-1.6156185125	 1.0342060722	 0.111724
H	 2.6436066538	-0.2732357576	 0.7957923664	 0.284237
H	-1.9388888957	-0.3759983409	 0.6689576876	 0.093426
H	-3.0018855567	 0.2162916555	-1.4953851193	 0.139024
H	-1.4041272209	 0.5503083608	-2.2109062549	 0.136334
H	-1.7635774087	-3.3126890152	-2.5733372108	 0.227434
68.4502	86.2777	124.8181	155.0575	219.7164	259.3789	289.0679	330.1633	379.8691	394.3802	491.8409	494.6273	533.0309	743.9228	817.2268	868.06	884.8627	912.7861	932.5842	953.6176	971.1092	1021.5783	1039.0416	1066.4333	1098.4498	1116.8328	1126.0239	1188.3905	1225.1225	1235.1141	1243.3436	1295.3308	1327.4159	1358.9414	1382.4707	1403.9841	1414.7959	1421.7286	1465.5456	1493.1522	1505.2985	1508.5887	1826.5719	2991.9532	3015.4288	3033.2075	3048.9618	3066.455	3086.1455	3098.6438	3130.9806	3141.5546	3475.9693	3817.619
CC(CO)C1CC(=N)O1	C[C@@H](CO)[C@H]1C[C]([NH])O1	
InChI=1S/C6H11NO2/c1-4(3-8)5-2-6(7)9-5/h4-5,7-8H,2-3H2,1H3	InChI=1S/C6H11NO2/c1-4(3-8)5-2-6(7)9-5/h4-5,7-8H,2-3H2,1H3/t4-,5+/m0/s1
