21
gdb 79874	2.43016	1.66942	1.39171	1.2976	82.23	-0.2234	0.0703	0.2936	1058.3067	0.182784	-387.031971	-387.023631	-387.022687	-387.064131	33.678	
C	-0.0136032333	 1.53672862	-0.003883048	-0.495963
C	-0.0043652111	 0.0322888357	-0.0204478187	 0.304558
C	-0.9046018736	-0.7765436908	 0.8428925148	 0.040337
O	-1.8433048257	-1.6909904061	 0.3403588943	-0.421711
C	 0.5680891114	-1.008045248	 1.0215352131	-0.184652
C	 1.2635434788	-1.7689762446	-0.1254598006	-0.009613
C	 0.5655573963	-2.9497812735	-0.8741569744	-0.230295
C	-0.0175587512	-1.934558106	-1.9147723232	-0.233838
C	 0.6888479518	-0.7672890253	-1.1559894286	-0.06933
H	 0.9805562588	 1.9459382561	-0.2174364438	 0.115608
H	-0.7020220887	 1.9313977209	-0.7620944964	 0.12338
H	-0.3342709495	 1.9255799705	 0.9681950719	 0.114474
H	-1.3082986185	-0.1736826889	 1.6612959822	 0.084027
H	-1.9703844694	-2.3748865614	 1.0065124396	 0.284282
H	 1.0318211178	-0.8248153797	 1.9865607425	 0.074877
H	 2.3416953819	-1.8515391859	 0.017336823	 0.064404
H	 1.2840140169	-3.6496939556	-1.3095573303	 0.089381
H	-0.1686329688	-3.5192445546	-0.3044884885	 0.084677
H	 0.384278687	-2.0762855872	-2.9216805105	 0.0863
H	-1.1032231568	-1.8852138994	-1.9683783355	 0.118431
H	 1.3615704059	-0.1387339262	-1.7421271728	 0.060667
163.5078	190.5124	226.8374	234.1659	252.6073	308.436	317.6844	343.6824	504.568	577.836	634.3845	683.0812	715.9607	741.6836	802.034	861.5926	879.6593	897.7994	921.679	954.2598	970.6097	990.9829	1007.1038	1042.221	1086.9158	1096.5049	1117.6104	1152.0647	1170.2602	1202.5841	1231.5594	1235.8973	1251.2697	1260.062	1281.1517	1293.9865	1313.3477	1336.2787	1361.3651	1414.3304	1465.336	1479.5322	1485.1886	1489.5649	1501.9389	3016.044	3058.3946	3058.6435	3068.0495	3074.362	3085.2114	3094.0059	3098.3467	3127.299	3146.2392	3153.0546	3803.5019
CC12C(O)C1C1CCC21	C[C@]12[C@@H](O)[C@H]1[C@H]1CC[C@@H]21	
InChI=1S/C8H12O/c1-8-5-3-2-4(5)6(8)7(8)9/h4-7,9H,2-3H2,1H3	InChI=1S/C8H12O/c1-8-5-3-2-4(5)6(8)7(8)9/h4-7,9H,2-3H2,1H3/t4-,5+,6+,7-,8+/m0/s1
