16
gdb 15572	3.47289	1.79113	1.2671	2.9567	69.64	-0.247	-0.0653	0.1817	941.3952	0.129615	-383.760532	-383.752754	-383.75181	-383.792996	27.825	
C	 0.1402111761	 1.5775433158	-0.162287601	-0.4006
C	-0.0309374533	 0.0765147314	 0.0541682685	 0.044878
O	 0.4792643073	-0.6497338492	-1.078201803	-0.281888
C	 1.4347963025	-1.6178864961	-0.672582753	-0.111823
C	 1.5712758197	-1.4437144894	 0.8076937732	-0.193848
C	 0.7375468936	-0.4876109632	 1.2289481848	 0.224926
C	 0.5623045065	-0.074374587	 2.6227534956	 0.070709
O	-0.2183891902	 0.7753187252	 2.9925269469	-0.265833
H	 1.2000733879	 1.8355372066	-0.2495891058	 0.112809
H	-0.3668014322	 1.8784755846	-1.0829584094	 0.12522
H	-0.2919325143	 2.1243140424	 0.6792978925	 0.144187
H	-1.1037808886	-0.1461953346	 0.1619711111	 0.096277
H	 1.093296153	-2.6346945901	-0.9298593842	 0.116422
H	 2.3877714516	-1.4599460865	-1.2020982205	 0.118659
H	 2.2440549991	-2.0279441027	 1.4249312953	 0.12351
H	 1.2102637713	-0.6146066973	 3.347836279	 0.076395
74.3883	118.4324	177.795	236.5073	268.0153	294.4889	379.9766	476.0529	571.6803	703.3723	768.0344	806.6314	828.9088	872.0618	951.836	1029.4529	1037.4558	1048.1172	1083.4501	1111.4801	1121.5678	1197.4432	1216.2551	1285.9779	1363.2589	1373.2394	1379.8358	1398.4199	1422.8802	1490.9204	1495.557	1509.3566	1688.7231	1781.9944	2887.0853	2964.7355	2983.4516	2986.8283	3044.7419	3119.6274	3136.5372	3207.9157
CC1OCC=C1C=O	C[C@H]1OCC=C1C=O	
InChI=1S/C6H8O2/c1-5-6(4-7)2-3-8-5/h2,4-5H,3H2,1H3	InChI=1S/C6H8O2/c1-5-6(4-7)2-3-8-5/h2,4-5H,3H2,1H3/t5-/m1/s1
