21
gdb 93209	2.64558	1.31009	0.92422	3.2799	87.11	-0.2346	-0.0428	0.1918	1310.8165	0.182577	-387.147199	-387.138033	-387.137089	-387.180957	34.776	
C	-0.0358140428	 1.5942768458	-0.0155546946	-0.404236
C	 0.026385857	 0.0596411104	-0.017425951	-0.017188
C	 0.6602046112	-0.4881091584	-1.3047027549	-0.219439
C	 0.8928803301	-1.9976721931	-1.2076108754	-0.325463
C	 1.7312382602	-2.3726265042	 0.0066749644	 0.331374
O	 2.4815149709	-3.3295266399	-0.0010369059	-0.325039
C	 1.5519633654	-1.5392793199	 1.2277516147	 0.19183
C	 2.2876520058	-1.9946171398	 2.4575931881	-0.475608
C	 0.7526389439	-0.4600300775	 1.1976235475	-0.126506
H	 0.9700742653	 2.0264678665	-0.0512027726	 0.12213
H	-0.5915564584	 1.9608229878	-0.8843908517	 0.117067
H	-0.5315963924	 1.9711679592	 0.8848762443	 0.116039
H	-1.0115103561	-0.3109205352	 0.0367786701	 0.091198
H	 0.0291427936	-0.2504815143	-2.1680603748	 0.098817
H	 1.6211046933	 0.0184261156	-1.4664162936	 0.104821
H	-0.072733418	-2.5150169449	-1.1061501503	 0.120363
H	 1.3795264908	-2.4061412259	-2.0969478427	 0.119975
H	 3.3669230799	-2.0178781994	 2.2754199875	 0.140476
H	 2.0869243165	-1.3367345107	 3.3069214449	 0.111297
H	 2.004169829	-3.0176261635	 2.7260361326	 0.137436
H	 0.605126625	 0.1054624513	 2.1180627935	 0.090655
71.458	138.934	172.3906	199.7195	244.6879	268.9056	323.2028	341.4575	398.4758	421.9811	525.2538	532.9569	590.415	699.453	729.2738	802.2729	884.4686	901.6397	936.7459	967.8067	1006.5016	1028.0929	1062.7851	1074.4297	1096.2059	1135.2776	1144.4318	1193.1143	1231.4855	1266.3288	1317.3248	1336.9262	1350.5051	1380.9607	1387.5408	1411.7475	1414.0063	1461.6111	1470.3215	1485.1242	1492.0969	1496.9694	1500.7634	1698.1258	1770.2097	2958.2252	3008.5376	3022.5969	3031.5235	3039.5885	3068.8182	3096.1263	3099.1166	3101.6166	3105.1997	3120.7981	3125.4061
CC1CCC(=O)C(C)=C1	C[C@H]1CCC(=O)C(=C1)C	
InChI=1S/C8H12O/c1-6-3-4-8(9)7(2)5-6/h5-6H,3-4H2,1-2H3	InChI=1S/C8H12O/c1-6-3-4-8(9)7(2)5-6/h5-6H,3-4H2,1-2H3/t6-/m0/s1
