17
gdb 17685	4.32864	1.39482	1.33648	3.302	64.83	-0.229	0.0562	0.2852	975.1186	0.141565	-400.943118	-400.935122	-400.934178	-400.97533	30.504	
O	-0.1371337517	 1.3836567051	-0.0577030727	-0.430558
C	 0.0040864412	-0.010905168	 0.0174818961	 0.013948
C	-0.4352309165	-0.7355944	 1.2727118125	-0.388435
C	-1.3080558518	-0.7527751919	 0.0299630266	 0.407161
O	-2.453504323	 0.0480093831	 0.0279302834	-0.480118
C	-1.4798600373	-2.0145813905	-0.7558173406	-0.038012
C	-2.8078962989	-2.669282355	-0.8329704585	-0.244428
N	-2.23807548	-1.9892466383	-2.0133888307	-0.32851
H	 0.3812660362	 1.7873685459	 0.6457924702	 0.297937
H	 0.8364821652	-0.4140508275	-0.5565339408	 0.102425
H	 0.1022153348	-1.6330537109	 1.5609865825	 0.119075
H	-0.8000569983	-0.1278401899	 2.0943716528	 0.117163
H	-2.1394848137	 0.959136953	-0.0689765799	 0.295284
H	-0.5868256415	-2.6362714422	-0.7855230871	 0.083111
H	-2.8756408605	-3.7505076723	-0.9128982223	 0.111997
H	-3.6312491642	-2.1880609249	-0.3146900971	 0.127245
H	-2.6778712999	-1.0732518958	-2.0881326045	 0.234715
76.0513	157.9549	206.2401	282.3828	296.9245	314.6734	371.6046	466.5627	490.5894	521.727	617.0043	731.6919	799.8584	847.8028	874.517	884.9119	933.8058	974.2429	1008.0768	1017.4808	1037.7785	1083.4807	1108.6924	1144.1744	1156.5019	1181.9646	1228.613	1272.698	1285.6107	1306.4287	1317.5108	1377.1158	1389.2217	1445.5967	1487.1312	1508.8203	3115.0231	3117.8771	3122.2441	3128.0742	3207.34	3221.0196	3486.397	3723.4883	3813.1149
OC1CC1(O)C1CN1	O[C@H]1C[C@]1(O)[C@H]1CN1	
InChI=1S/C5H9NO2/c7-4-1-5(4,8)3-2-6-3/h3-4,6-8H,1-2H2	InChI=1S/C5H9NO2/c7-4-1-5(4,8)3-2-6-3/h3-4,6-8H,1-2H2/t3-,4+,5+/m1/s1
