20
gdb 103162	1.94475	1.6229	1.2719	1.7386	76.72	-0.2503	0.022	0.2723	1139.2846	0.168497	-440.283071	-440.273113	-440.272169	-440.317669	36.183	
C	-0.0597353869	 1.4365339214	-0.0019498714	-0.263579
O	 0.2401463289	 0.0476501513	 0.052352211	-0.285648
C	 0.785344946	-0.5090956326	-1.1202075218	 0.254094
C	 2.1650325421	 0.0383457244	-1.4674281854	-0.461795
C	 0.6550655071	-2.0623245864	-1.1050357563	 0.095066
C	-0.009806833	-2.7268882122	 0.0759073824	-0.398326
O	-0.2384329099	-1.9869095805	-2.2768972793	-0.272363
C	-0.1842540876	-0.6159889218	-2.2997324494	 0.398898
N	-0.7536857653	 0.2173224735	-3.0472966353	-0.557913
H	 0.8496441227	 2.0520098203	-0.0157956854	 0.109861
H	-0.671141845	 1.6801821726	-0.87752541	 0.151608
H	-0.6184010838	 1.6621863309	 0.9091608987	 0.126965
H	 2.8322782118	-0.0587839971	-0.6051120375	 0.125804
H	 2.5956312864	-0.5096332877	-2.3103716194	 0.128216
H	 2.1082694788	 1.0913247107	-1.7541324471	 0.140768
H	 1.575491583	-2.5777478647	-1.396075603	 0.089429
H	-0.9169645377	-2.1931346499	 0.3627092615	 0.139166
H	-0.2608962025	-3.7624655407	-0.1718016411	 0.125222
H	 0.6708049792	-2.7310840927	 0.9328372457	 0.128282
H	-1.3579447541	-0.2458703388	-3.7296872267	 0.226245
83.1578	106.3267	153.3588	186.0994	197.9467	222.5828	224.7079	290.3677	303.2122	345.9252	419.1089	483.5476	556.1929	684.8196	693.4451	737.7688	851.3592	871.9251	875.6944	933.0774	1014.0659	1028.0774	1064.1557	1091.1647	1129.05	1165.0504	1184.6034	1186.6305	1228.4983	1249.9812	1259.1997	1355.9662	1382.4174	1403.5802	1411.1392	1476.207	1480.9264	1483.4015	1486.4467	1489.7274	1504.7902	1514.1288	1812.3598	3009.3436	3042.4788	3048.6948	3063.6711	3081.2114	3116.5481	3117.183	3124.8497	3126.7534	3148.1179	3460.6502
COC1(C)C(C)OC1=N	CO[C@@]1(C)[C@@H](C)O[C]1[NH]	
InChI=1S/C6H11NO2/c1-4-6(2,8-3)5(7)9-4/h4,7H,1-3H3	InChI=1S/C6H11NO2/c1-4-6(2,8-3)5(7)9-4/h4,7H,1-3H3/t4-,6+/m1/s1
