15
gdb 26546	2.35296	1.86969	1.05052	7.6504	71.21	-0.2292	-0.0208	0.2084	1062.9925	0.112873	-454.006477	-453.998058	-453.997114	-454.039579	30.576	
C	-0.0517463415	 1.5165302687	 0.0419165009	-0.48029
C	-0.0631557794	 0.0179386064	 0.0473933418	 0.048706
C	-1.1929865527	-0.7192885188	-0.0075827641	 0.343136
O	-2.4465655805	-0.1922891146	-0.0036864774	-0.41849
N	-1.1203743768	-2.1015707368	-0.0278810007	-0.371564
C	 0.1051283434	-2.7122576993	 0.0306802648	 0.092094
N	 1.2287278092	-2.1008565388	 0.0810004781	-0.30459
C	 1.2354449011	-0.6818769844	 0.1081775571	 0.331054
O	 2.284792893	-0.070066961	 0.1650655709	-0.353964
H	 0.6158271716	 1.8804534878	-0.7450722005	 0.144695
H	-1.0518065251	 1.9271446172	-0.1042590139	 0.122389
H	 0.3542989798	 1.8977866365	 0.9849680482	 0.143997
H	-2.9795054173	-0.5953642801	-0.7000557968	 0.305112
H	-1.9627880645	-2.6415585167	 0.0967487529	 0.262844
H	 0.0676781096	-3.8007170361	 0.0263690188	 0.134871
98.0843	110.4565	176.9275	198.5348	269.822	283.7156	363.9475	426.1539	504.1456	525.4057	539.9603	577.4382	649.6895	700.8562	808.5421	882.3081	927.0224	954.8599	1057.2068	1062.7754	1108.9297	1197.644	1238.2189	1264.3012	1332.4563	1410.6634	1422.8902	1474.8407	1483.4817	1508.3728	1653.8141	1733.7963	1763.6831	3044.0051	3095.7398	3141.9192	3143.2014	3629.2488	3780.6265
CC1=C(O)NC=NC1=O	Cc1c(O)[nH]cnc1=O	
InChI=1S/C5H6N2O2/c1-3-4(8)6-2-7-5(3)9/h2H,1H3,(H2,6,7,8,9)	InChI=1S/C5H6N2O2/c1-3-4(8)6-2-7-5(3)9/h2H,1H3,(H2,6,7,8,9)
