19
gdb 80951	2.37272	1.38645	1.24796	4.5106	80.9	-0.2483	0.0067	0.255	1132.6531	0.159024	-382.012912	-382.004172	-382.003228	-382.045999	33.148	
C	-0.0632740186	 1.5758649535	-0.088141837	-0.452359
C	 0.0973483345	 0.0727245217	 0.0179580738	 0.036948
N	 1.2963591808	-0.5953928058	-0.7125336337	-0.159743
C	 2.1334146047	-0.1430618971	 0.4997482545	-0.222774
C	 0.8405860932	-0.6413138682	 1.1895286696	 0.284787
C	 0.486140578	-0.7140612665	 2.6517640617	-0.524484
C	 0.9844417425	-1.8203682744	 0.1759634521	-0.143652
C	-0.1734043908	-2.628058607	-0.1828571538	 0.287285
N	-1.0807530181	-3.3004142696	-0.4315191609	-0.335731
H	-0.2268416268	 1.8531961445	-1.1345017173	 0.142097
H	-0.9477429706	 1.8865328846	 0.4778293449	 0.129402
H	 0.7873076905	 2.1509096872	 0.2834852564	 0.12279
H	-0.8410819562	-0.404216773	-0.2816153804	 0.102497
H	 3.0461747203	-0.7292133842	 0.6392097234	 0.106161
H	 2.3577856616	 0.9217838203	 0.5078368235	 0.112623
H	 0.4440984446	 0.2883769213	 3.0906326056	 0.129653
H	-0.4914375601	-1.1867346669	 2.7924787029	 0.139442
H	 1.2276786107	-1.2949601895	 3.2101877178	 0.127944
H	 1.8541417898	-2.4706733608	 0.3032170968	 0.117114
126.4466	147.2746	159.8349	187.0312	197.8246	299.6718	351.5564	359.5287	471.8635	518.901	542.024	625.7668	633.1665	770.5928	779.1298	793.6573	888.3902	907.2197	912.1813	1004.8277	1029.8704	1056.2225	1079.4198	1127.1599	1135.4521	1146.0088	1175.6809	1203.859	1208.4404	1250.5968	1322.8799	1384.9178	1408.5885	1410.9145	1442.415	1486.8281	1488.1065	1494.0887	1497.0463	1548.6002	2350.3175	3032.1555	3043.7665	3059.8294	3067.2247	3080.1595	3102.3656	3105.3786	3105.5238	3126.1706	3156.6191
CC1N2CC1(C)C2C#N	C[C@H]1N2C[C@]1(C)[C@H]2C#N	
InChI=1S/C7H10N2/c1-5-7(2)4-9(5)6(7)3-8/h5-6H,4H2,1-2H3	InChI=1S/C7H10N2/c1-5-7(2)4-9(5)6(7)3-8/h5-6H,4H2,1-2H3/t5-,6-,7+/m1/s1
