21
gdb 15084	2.48084	1.73277	1.09289	1.2036	74.93	-0.2351	0.0817	0.3168	1130.0317	0.187823	-366.227117	-366.217778	-366.216834	-366.261232	34.221	
C	-0.6308768439	 1.7889484298	-0.648798339	-0.39417
C	-0.2728808521	 0.3340267335	-0.3308511767	-0.167241
C	-1.4560553383	-0.5911611583	-0.0059661764	 0.035694
C	-0.9439685636	-2.0357066085	 0.1066846411	-0.06707
O	-1.9550819472	-2.992754757	 0.3718128769	-0.426635
N	-2.0861518444	-0.2079924265	 1.2603568367	-0.080666
C	-3.1332231086	 0.809566646	 1.2097753585	-0.223259
C	-3.4833813556	-0.6114707983	 1.4525778757	-0.244443
H	 0.2625151763	 2.3453387281	-0.9495541949	 0.112314
H	-1.3517088224	 1.8533813313	-1.471735447	 0.110735
H	-1.0598430147	 2.3001592745	 0.216689	 0.128945
H	 0.2591662176	-0.0962109122	-1.1890514645	 0.094529
H	 0.4245550309	 0.3059670513	 0.515130173	 0.105331
H	-2.1873987944	-0.5531756248	-0.8361532979	 0.05752
H	-0.4964707469	-2.326673182	-0.8494804	 0.105282
H	-0.1530565696	-2.0723948054	 0.8710531926	 0.092773
H	-2.2356228507	-2.8657538136	 1.2828256882	 0.291598
H	-3.133229903	 1.5288091002	 2.0239519213	 0.115348
H	-3.3990207157	 1.2219156673	 0.2386150124	 0.114003
H	-3.9724274048	-1.1510451138	 0.6453766223	 0.127502
H	-3.7431797389	-0.9490006016	 2.4528711079	 0.111911
69.2706	86.5505	137.25	205.0461	209.3236	249.53	303.4632	333.3021	370.3079	396.3258	459.4131	560.8811	698.0062	789.6785	833.5339	886.75	918.8634	947.2259	1004.8307	1014.6048	1035.3935	1076.056	1089.8828	1114.7335	1120.1379	1131.8108	1150.8098	1175.6105	1190.6763	1238.167	1286.0202	1305.472	1320.7987	1384.7132	1388.8528	1405.1647	1409.8444	1422.7474	1473.8574	1491.6501	1494.5649	1500.537	1507.9574	1522.3181	2916.6655	2992.4487	3022.3396	3034.9535	3060.1789	3077.1092	3097.2506	3100.3542	3103.961	3119.0176	3179.3718	3193.7932	3835.537
CCC(CO)N1CC1	CC[C@@H](CO)N1CC1	
InChI=1S/C6H13NO/c1-2-6(5-8)7-3-4-7/h6,8H,2-5H2,1H3	InChI=1S/C6H13NO/c1-2-6(5-8)7-3-4-7/h6,8H,2-5H2,1H3/t6-/m0/s1
