23
gdb 58932	3.24544	1.242	1.14835	0.2897	88.85	-0.2386	0.0876	0.3262	1217.8123	0.206173	-351.114929	-351.106232	-351.105288	-351.148045	34.7	
C	-0.3052202684	 1.4106569884	 0.0844510091	-0.386306
C	 0.0980694927	-0.0701681611	-0.0092121172	-0.092389
C	 0.9190774571	-0.3401846667	-1.2799832197	-0.390524
C	 0.8246502468	-0.51405971	 1.2365815809	 0.405743
C	 2.2310661078	-0.1193696374	 1.703875626	-0.291687
C	 2.1160337487	-1.2932847527	 2.7132845301	-0.063577
C	 1.0013870674	-0.8363923743	 3.6937819098	-0.233148
C	 0.0576095136	-0.9540168536	 2.4998152881	-0.117574
C	 0.9887424682	-1.9126694835	 1.7888374884	-0.148888
H	 0.5801831286	 2.0521926799	 0.1613177073	 0.114627
H	-0.8650415102	 1.7238094189	-0.8030138118	 0.106188
H	-0.9286260825	 1.596251719	 0.9644584936	 0.113529
H	-0.8235414166	-0.6667723999	-0.0755931941	 0.068106
H	 1.8424391884	 0.2498538865	-1.2860607111	 0.1142
H	 1.1965059138	-1.396220338	-1.3561110889	 0.111268
H	 0.35083007	-0.0719349522	-2.1767279974	 0.106934
H	 2.9763335761	-0.3250769689	 0.9300355865	 0.094616
H	 2.3978530269	 0.8840256575	 2.1154176564	 0.082745
H	 3.0055608952	-1.804880206	 3.0753114348	 0.066061
H	 0.7846794929	-1.6002806646	 4.4463212575	 0.095796
H	 1.1272608056	 0.1368645309	 4.1840061763	 0.083612
H	-1.025704426	-0.9697916982	 2.5007530595	 0.077653
H	 0.8263320041	-2.8900507339	 1.3567784058	 0.083013
67.6655	141.7985	188.7127	228.8496	258.6683	302.1427	344.4114	429.598	449.5091	502.2372	604.0416	727.9781	743.627	801.6111	822.4468	853.614	903.7786	918.8915	927.5543	930.7195	958.828	963.5906	992.6776	1002.6278	1006.0577	1062.8969	1075.4119	1097.6059	1125.9841	1135.2258	1156.9835	1178.4898	1185.0367	1203.5293	1233.526	1260.0568	1282.0795	1308.4528	1340.4499	1352.556	1395.696	1413.1244	1422.2836	1486.8911	1492.0635	1495.0099	1501.5852	1510.8549	1512.2722	2995.178	3018.7088	3025.9455	3026.7015	3031.3766	3085.8792	3088.1214	3092.543	3097.817	3102.7852	3105.1296	3132.7771	3183.6499	3213.2625
CC(C)C12CC3CC1C23	CC(C)[C@@]12C[C@H]3C[C@@H]1[C@@H]23	
InChI=1S/C9H14/c1-5(2)9-4-6-3-7(9)8(6)9/h5-8H,3-4H2,1-2H3	InChI=1S/C9H14/c1-5(2)9-4-6-3-7(9)8(6)9/h5-8H,3-4H2,1-2H3/t6-,7-,8+,9+/m1/s1
