23
gdb 120774	3.3786	0.72079	0.64173	1.3225	87.37	-0.2449	0.0804	0.3252	1810.3994	0.205095	-388.256587	-388.246496	-388.245552	-388.292792	37.098	
O	 0.0726622186	 1.4096762525	 0.0872290233	-0.423169
C	 0.043383825	-0.0034251934	 0.2275152435	-0.067669
C	-1.310513226	-0.4963848147	-0.2722162176	-0.19451
C	-1.4458933072	-2.0009234107	-0.1730388584	-0.010739
C	-1.9147668797	-2.6605720732	 1.1058417356	-0.309906
C	-2.7882823887	-2.6999574549	-0.1265778091	-0.020687
C	-4.0909765509	-1.9648022597	-0.1825290771	 0.029457
C	-4.919800276	-1.9830590162	-1.44466592	-0.268193
C	-5.3886217704	-2.7356959304	-0.2237464101	-0.277024
H	 0.9224627243	 1.7257799765	 0.4070243273	 0.284093
H	 0.8497273111	-0.478525912	-0.3557260613	 0.08066
H	 0.1816475605	-0.305599022	 1.2779267658	 0.087261
H	-2.0904319073	 0.0052062241	 0.3101754369	 0.103337
H	-1.4374406804	-0.1670188114	-1.3109551648	 0.106323
H	-0.6743056559	-2.5421701642	-0.7173942852	 0.07689
H	-1.4332458774	-3.5728157248	 1.4413083262	 0.10552
H	-2.2311483195	-2.0054721838	 1.9128012399	 0.107767
H	-2.8197127914	-3.6557709366	-0.6458741135	 0.074348
H	-4.1186128754	-1.0392162097	 0.3844393409	 0.080234
H	-5.4481221863	-1.0802868037	-1.7309372822	 0.109907
H	-4.5458898822	-2.5617766933	-2.2831645576	 0.10869
H	-5.3302679514	-3.8193042788	-0.2423939493	 0.108864
H	-6.2382955734	-2.3484838494	 0.327871807	 0.108545
46.9244	70.7145	88.5114	111.242	186.3097	251.8834	264.7971	289.8178	332.2635	415.8851	461.1828	562.157	736.3345	788.5702	798.6938	821.8254	831.3424	856.3269	912.4591	929.2297	956.8019	983.6412	1020.2799	1040.1966	1057.7037	1064.7438	1074.9054	1076.3109	1094.3966	1128.2161	1144.5796	1183.0449	1198.9946	1210.2575	1221.5248	1239.168	1245.8342	1257.3285	1310.9993	1317.6975	1330.9339	1414.7169	1450.8843	1460.6126	1470.559	1487.6237	1496.0055	1509.8158	1527.2359	2959.7788	2988.7628	3033.7313	3078.7224	3114.8544	3120.4864	3125.5686	3127.4029	3132.5341	3150.6854	3204.9772	3205.3389	3220.723	3831.2276
OCCC1CC1C1CC1	OCC[C@H]1C[C@H]1C1CC1	
InChI=1S/C8H14O/c9-4-3-7-5-8(7)6-1-2-6/h6-9H,1-5H2	InChI=1S/C8H14O/c9-4-3-7-5-8(7)6-1-2-6/h6-9H,1-5H2/t7-,8-/m0/s1
