16
gdb 71560	2.43072	1.73925	1.53156	1.0011	69.46	-0.2596	-0.0509	0.2088	937.8558	0.123087	-437.791353	-437.783598	-437.782654	-437.823987	29.304	
O	-0.1312742188	 1.3553570299	 0.2978784482	-0.465745
C	-0.0497969494	-0.0010830008	 0.0777582582	 0.325247
C	 0.4388950356	-0.8036137268	-1.1284044763	-0.254673
N	 0.1016013443	-1.9171126301	-0.1368575085	-0.186938
C	 0.6105606264	-1.0315717991	 1.0349892601	-0.035569
C	-0.6646677808	-1.2912678277	 1.8434814695	-0.321865
C	-1.120775864	-1.0974744761	 0.3878927603	 0.212571
C	-2.4651034113	-1.2351108891	-0.2419644795	 0.032573
O	-2.914917801	-0.4063334116	-0.9983235664	-0.256347
H	-0.8388365354	 1.7033204717	-0.2584969721	 0.296644
H	-0.1752218136	-0.8178252474	-2.0325838641	 0.117779
H	 1.5045892084	-0.7630750614	-1.3728076324	 0.10971
H	 1.6571556915	-1.0817712982	 1.3367215514	 0.09513
H	-0.7767331902	-2.2973892449	 2.2541964983	 0.116189
H	-0.9646718578	-0.5175945523	 2.5520190913	 0.121246
H	-3.0375507139	-2.1502347959	 0.0229812121	 0.094047
54.4181	117.0808	226.2984	277.9977	329.162	391.2455	432.9736	455.6957	490.4427	630.6739	701.5727	768.3123	798.3164	856.2527	884.0814	910.6496	939.8734	989.5976	1011.3208	1055.9875	1087.7852	1103.0234	1110.5168	1150.7751	1159.0897	1212.5391	1237.7273	1253.4786	1284.2886	1316.5954	1375.6844	1416.2482	1485.3425	1517.0105	1798.7065	2901.6754	3053.4504	3071.0218	3117.248	3119.9066	3142.4253	3792.6627
OC12CN3C1CC23C=O	O[C@@]12CN3[C@@H]1C[C@@]23C=O	
InChI=1S/C6H7NO2/c8-3-5-1-4-6(5,9)2-7(4)5/h3-4,9H,1-2H2	InChI=1S/C6H7NO2/c8-3-5-1-4-6(5,9)2-7(4)5/h3-4,9H,1-2H2/t4-,5-,6+/m1/s1
