16
gdb 70404	2.515	1.5329	1.34836	3.723	69.1	-0.273	0.0141	0.2871	1008.272	0.122783	-437.856995	-437.848526	-437.847582	-437.889637	32.342	
O	-0.0424446908	 1.4170770617	-0.0242105317	-0.451376
C	-0.017885641	 0.0431886287	 0.0227312657	 0.391518
C	-0.2714203332	-0.8344603555	-1.171732749	-0.35263
C	-1.1963858345	-0.918541177	 0.0196698635	-0.088874
C	-0.5361616415	-1.7790090543	 1.0996914841	-0.295175
C	 0.6782941821	-0.7645178544	 1.1325223338	 0.159981
O	 1.956950972	-1.2284732371	 0.7593080746	-0.467067
C	 0.7445447931	-0.0366377269	 2.4073984882	 0.247045
N	 0.831363478	 0.4918707655	 3.4315445031	-0.338909
H	 0.7254208718	 1.7234537173	-0.5205488781	 0.297482
H	-0.6695979497	-0.2843026918	-2.0179805694	 0.124298
H	 0.3914616597	-1.6572681387	-1.4226528466	 0.126316
H	-2.2512611157	-0.6897908944	-0.045637343	 0.107888
H	-1.0786809537	-1.8147493138	 2.0451179423	 0.132739
H	-0.246445035	-2.7895512559	 0.797542174	 0.111881
H	 2.3431782582	-1.7092421534	 1.5004796184	 0.294884
112.9406	132.3581	208.267	258.1513	300.9547	305.7485	349.1275	389.9172	433.3658	475.125	539.2922	558.765	665.3205	680.5528	799.8992	864.2637	889.6124	910.966	961.7846	975.345	1022.9626	1039.0008	1078.0821	1103.7809	1150.9506	1204.4714	1217.7321	1249.1778	1274.2863	1311.5849	1362.2403	1409.1019	1470.3225	1501.9737	2353.2006	3060.8592	3122.0164	3132.683	3210.4733	3218.2689	3790.1738	3800.3802
OC12CC1CC2(O)C#N	O[C@]12C[C@H]1C[C@]2(O)C#N	
InChI=1S/C6H7NO2/c7-3-5(8)1-4-2-6(4,5)9/h4,8-9H,1-2H2	InChI=1S/C6H7NO2/c7-3-5(8)1-4-2-6(4,5)9/h4,8-9H,1-2H2/t4-,5+,6-/m1/s1
