15
gdb 29469	3.33063	1.66881	1.12021	3.0935	73.39	-0.2074	0.0127	0.2201	1011.2532	0.117287	-413.035093	-413.028216	-413.027272	-413.066095	27.297	
N	 0.0132996025	 1.3418709485	 0.1265004889	-0.576032
C	 0.0171863425	-0.0225565496	 0.0407473812	 0.293555
N	-1.0572342166	-0.7514699437	 0.0182252812	-0.338881
C	-0.6615982194	-2.1728701577	-0.0072599277	-0.274395
C	 0.8373156485	-2.127594964	-0.0119797846	 0.278814
C	 1.242037365	-0.8252112922	 0.0186061579	 0.212777
N	 2.6087774138	-0.6999198758	 0.0116457819	-0.358919
C	 3.0286218248	-1.9468222868	-0.0211903917	-0.016668
N	 1.9902965994	-2.8613874915	-0.035723908	-0.389037
H	 0.8418351639	 1.8168558446	-0.1934307167	 0.263916
H	-0.8617511792	 1.7920732495	-0.0936173693	 0.255719
H	-1.0753266617	-2.6933168083	 0.8664890217	 0.125027
H	-1.0836956241	-2.6612663896	-0.8951816247	 0.123673
H	 4.0602882528	-2.2666814677	-0.0367173039	 0.13131
H	 2.088739818	-3.8626375957	-0.0593035862	 0.269143
187.1204	211.6961	259.4673	297.9958	422.0161	487.8009	515.6954	524.8692	628.336	640.7023	646.0944	674.5237	779.0948	792.9519	801.6714	955.6783	962.4277	965.0417	1070.4895	1109.8924	1148.4842	1169.2827	1230.8048	1277.698	1306.3185	1371.8531	1447.5101	1457.5058	1476.8035	1527.8514	1570.4849	1615.8158	1678.6595	3021.3013	3045.732	3248.2909	3586.4309	3663.7856	3704.7889
NC1=NCC2=C1N=CN2	NC1=NCc2c1nc[nH]2	
InChI=1S/C5H6N4/c6-5-4-3(1-7-5)8-2-9-4/h2H,1H2,(H2,6,7)(H,8,9)	InChI=1S/C5H6N4/c6-5-4-3(1-7-5)8-2-9-4/h2H,1H2,(H2,6,7)(H,8,9)
