23
gdb 76300	2.44361	1.30866	1.07578	0.7748	90.98	-0.2503	0.0523	0.3026	1261.1977	0.203618	-351.122243	-351.111902	-351.110958	-351.156827	39.387	
C	-1.1654539838	 0.7919024709	-0.201085854	-0.415335
C	-0.0779751154	-0.2573185428	-0.0100404958	 0.026075
C	 1.2094897097	-0.2249541665	-0.8993671289	-0.013499
C	 1.5795035028	 1.1039132285	-1.5492230732	-0.405207
C	 2.0408691871	-0.6234237538	 0.3776906384	-0.195675
C	 3.3189728053	 0.0118682788	 0.6194792585	 0.342092
C	 4.3770917583	 0.5496161652	 0.8197558496	-0.476569
C	 0.8070739623	-0.2450846399	 1.2807163639	-0.013499
C	 0.9163398564	 1.0707387191	 2.0434622658	-0.405207
H	-0.7808669204	 1.8124112062	-0.1206808165	 0.117522
H	-1.6342486718	 0.6917736459	-1.1863149322	 0.113282
H	-1.9547264742	 0.6757507049	 0.5499323142	 0.113282
H	-0.5371964944	-1.2479400445	-0.1039542097	 0.069386
H	 1.2266551291	-1.0027691634	-1.669224975	 0.069322
H	 1.6077902094	 1.9311840168	-0.8351208375	 0.124024
H	 2.5716070543	 1.0400051652	-2.0065707857	 0.123164
H	 0.861343336	 1.3623628469	-2.3345398532	 0.110613
H	 2.1778914403	-1.7099414908	 0.3929506831	 0.098522
H	 5.3137645198	 1.0169085517	 0.9969690481	 0.190582
H	 0.550848054	-1.0365761002	 1.9919557704	 0.069322
H	 1.1949384389	 1.9105358931	 1.401401014	 0.124024
H	-0.0356873628	 1.3174799835	 2.5251631195	 0.110613
H	 1.680029009	 0.9954089651	 2.8236063563	 0.123164
70.0185	129.317	173.234	208.209	218.0844	220.0681	234.7806	253.6309	320.6004	344.7667	415.5275	458.9359	552.2129	558.7918	614.8595	625.4537	733.7075	753.6688	764.9069	804.3091	880.8321	981.2809	993.9766	1008.0895	1028.492	1039.719	1043.746	1117.2272	1151.7423	1171.0112	1178.8965	1198.4285	1256.4623	1283.4487	1287.0834	1321.2986	1365.484	1375.5608	1381.7555	1408.6071	1411.1114	1421.497	1482.1322	1488.3488	1489.1221	1498.8737	1504.6308	1507.2571	2225.0949	3024.9152	3030.9831	3037.5664	3037.6476	3040.9864	3044.9847	3059.5341	3089.4202	3103.13	3103.722	3109.7541	3112.0697	3122.402	3504.6818
CC1C(C)C(C#C)C1C	C[C@H]1[C@@H](C)[C@@H](C#C)[C@H]1C	
InChI=1S/C9H14/c1-5-9-7(3)6(2)8(9)4/h1,6-9H,2-4H3	InChI=1S/C9H14/c1-5-9-7(3)6(2)8(9)4/h1,6-9H,2-4H3/t6-,7+,8-,9+
