17
gdb 37157	4.01371	1.909	1.66296	1.3798	74.57	-0.2242	0.0731	0.2972	833.8898	0.138785	-380.709402	-380.703761	-380.702816	-380.738953	25.028	
C	 0.0251681556	 1.5015445545	 0.0664764408	-0.251926
C	 1.3015834591	 0.7378640258	-0.0054795322	-0.045735
C	 2.0150947231	 0.312159336	 1.3124617692	-0.111451
C	 1.5582991236	-1.1598386816	 1.4644209652	-0.002295
N	 1.0933746313	-1.1107468782	 2.9375407638	-0.192233
C	-0.3331470662	-1.4807565842	 2.4774222758	-0.263309
C	 0.1441033282	-0.5728725436	 1.332876736	 0.298994
C	 0.901792162	 0.3109730558	 2.3642329068	-0.045111
N	-0.0285702897	 0.0275490882	 0.0063035471	-0.20351
H	-0.2433988784	 1.9905200343	 0.9988541966	 0.118456
H	-0.3479285162	 2.0000006788	-0.8237262485	 0.120537
H	 1.8603800957	 0.6943028722	-0.9352331649	 0.102941
H	 3.030939533	 0.6696647064	 1.4804597755	 0.077338
H	 1.9449109779	-2.07589537	 1.0179737469	 0.088176
H	-0.4626674647	-2.5477510632	 2.2748238835	 0.113407
H	-1.1146251142	-1.1052335443	 3.1439126039	 0.109797
H	 0.5153820599	 1.1087756633	 2.9969171345	 0.085925
291.181	354.3815	411.3095	469.5613	546.5014	660.7837	686.5309	775.1141	788.1545	791.3512	818.8923	853.4438	855.5571	882.2248	923.8354	932.4433	952.6836	997.4774	1013.3872	1037.7867	1072.5555	1094.0793	1109.0089	1121.9687	1124.3509	1146.4308	1171.081	1181.8455	1197.6069	1230.141	1239.662	1243.7468	1281.279	1295.3471	1353.1826	1502.0462	1513.7189	3051.2054	3110.9204	3113.2279	3118.3051	3118.9082	3127.8403	3160.3388	3198.0946
C1C2C3C4N5CC4(C35)N12	C1[C@H]2[C@@H]3[C@H]4N5C[C@]4([C@H]35)N12	
InChI=1S/C7H8N2/c1-3-4-5-7(9(1)3)2-8(5)6(4)7/h3-6H,1-2H2	InChI=1S/C7H8N2/c1-3-4-5-7(9(1)3)2-8(5)6(4)7/h3-6H,1-2H2/t3-,4-,5-,6+,7+,9?/m0/s1
