15
gdb 80111	2.87337	1.51599	1.27515	4.1249	71.12	-0.2326	-0.0003	0.2324	996.0506	0.114647	-412.982849	-412.975003	-412.974059	-413.01503	29.581	
N	-0.1625485217	 1.4604644656	 0.0071303651	-0.509004
C	-0.0707176937	 0.0367171442	 0.0572935027	-0.095583
C	-0.4934394688	-0.7011000451	 1.3023150058	-0.057579
N	-1.2436411785	 0.010463271	 2.296867805	-0.252971
C	-2.3282488002	 0.3884108465	 1.7255399661	 0.079778
N	-2.5701311172	-0.0999365591	 0.4584853716	-0.342349
C	-1.3803552239	-0.7732909593	 0.0193032454	 0.181804
C	-1.5222343174	-1.9033212257	-0.8461650721	 0.224815
N	-1.6069544423	-2.8057175065	-1.5663923788	-0.347566
H	 0.4352721404	 1.8907784816	 0.7044625683	 0.248716
H	 0.1006074729	 1.8134539168	-0.9050526176	 0.241772
H	 0.7374033073	-0.4671269262	-0.4728649532	 0.105958
H	 0.1021551471	-1.5425044136	 1.6352954916	 0.121934
H	-3.071924308	 1.0211799119	 2.1976271407	 0.138951
H	-3.1338243261	 0.4198599978	-0.1969008505	 0.261325
132.0506	161.5142	168.8416	224.0459	259.8994	391.3276	463.2705	487.2227	505.092	564.7575	605.5118	698.6807	704.8947	754.7195	837.9507	901.1827	937.6498	950.8097	998.2834	1049.295	1102.8999	1125.3632	1151.2056	1225.0061	1253.5482	1264.9949	1325.3252	1351.6624	1406.2946	1432.9745	1645.0022	1656.6035	2344.3271	3101.1075	3189.7366	3207.3421	3514.962	3601.0092	3627.9142
NC1C2N=CNC12C#N	N[C@H]1[C@H]2N=CN[C@@]12C#N	
InChI=1S/C5H6N4/c6-1-5-3(7)4(5)8-2-9-5/h2-4H,7H2,(H,8,9)	InChI=1S/C5H6N4/c6-1-5-3(7)4(5)8-2-9-5/h2-4H,7H2,(H,8,9)/t3-,4+,5-/m0/s1
