21
gdb 115376	3.24523	1.06644	0.94728	1.7691	74.58	-0.2407	0.0765	0.3172	1317.1156	0.183094	-461.358102	-461.349079	-461.348135	-461.391734	34.428	
C	-0.1476781335	 1.5360706533	-0.0584515054	-0.405356
C	 0.0718527995	 0.0208403446	-0.0318213892	 0.12104
C	 0.8712094792	-0.4853609552	-1.2368544407	-0.090202
O	 2.2243731932	-0.0620419371	-1.1515515328	-0.282706
C	 2.8514916723	-0.5572825923	 0.0349904597	 0.088287
C	 4.2952557528	-0.075491133	-0.0251359334	-0.072337
O	 4.9347968365	-0.5180916264	-1.2038087565	-0.424275
C	 2.0810833276	-0.0690777382	 1.2581253494	-0.100149
O	 0.7072590474	-0.4195297007	 1.172288134	-0.271168
H	 0.7887479601	 2.0767674587	-0.2175724659	 0.128999
H	-0.8281464538	 1.8021647804	-0.8737414971	 0.115855
H	-0.5925285222	 1.867957905	 0.8833743062	 0.125251
H	-0.9014337683	-0.4827287274	-0.0231446686	 0.085582
H	 0.8242830813	-1.5847513483	-1.2738049078	 0.097646
H	 0.4719485692	-0.0843607396	-2.1733481627	 0.107589
H	 2.832822092	-1.6593768077	 0.0100329926	 0.079665
H	 4.3089863805	 1.0241197075	 0.0528206932	 0.089202
H	 4.8586630708	-0.4799331673	 0.8224072882	 0.109105
H	 4.3232715048	-0.31517408	-1.9221460864	 0.29062
H	 2.4582868142	-0.5457872199	 2.1682515775	 0.112248
H	 2.2065313565	 1.0191957836	 1.3644792256	 0.095101
85.5335	121.6857	185.8404	217.2594	229.2841	271.1696	362.8382	378.26	433.144	452.6354	468.7277	491.7716	562.4484	728.9626	790.365	824.8121	900.1393	928.5029	947.0577	1000.1244	1040.2787	1080.7511	1099.9266	1116.9751	1124.2252	1133.7962	1154.3726	1175.9434	1233.1105	1276.7737	1288.7125	1310.8028	1352.3867	1371.5144	1376.0829	1392.2888	1399.9924	1416.813	1421.0875	1444.2892	1482.4012	1488.9107	1493.7655	1500.5882	1511.0284	2967.5917	2977.3264	2988.2309	2997.2443	3044.4229	3049.6164	3073.0429	3083.9996	3086.2699	3114.3305	3130.1519	3789.2163
CC1COC(CO)CO1	C[C@H]1CO[C@@H](CO)CO1	
InChI=1S/C6H12O3/c1-5-3-9-6(2-7)4-8-5/h5-7H,2-4H2,1H3	InChI=1S/C6H12O3/c1-5-3-9-6(2-7)4-8-5/h5-7H,2-4H2,1H3/t5-,6-/m0/s1
