18
gdb 63610	2.91161	1.0595	0.94423	4.1157	82.31	-0.2514	-0.0605	0.1908	1318.7913	0.144374	-401.906923	-401.8972	-401.896256	-401.941608	35.622	
C	 0.0594334561	 1.5395330542	-0.5154692668	-0.447302
C	-0.0469785055	 0.0947198854	-0.0767874398	 0.31903
C	-1.2625168619	-0.6476324222	-0.5974052687	-0.452736
N	 1.2235645333	-0.6174085412	 0.0170411413	-0.342531
C	 0.4930548325	-0.3477797543	 1.2696415422	-0.196928
C	 1.1108484988	 0.6065696869	 2.2437800539	 0.287008
O	 1.9556198627	 1.4288256298	 1.9593581891	-0.300574
C	 0.5822661885	 0.4998516419	 3.5971485841	 0.241016
C	 0.1468777527	 0.3961641054	 4.7149279749	-0.419298
H	 0.9625828253	 2.0005498889	-0.116407425	 0.167381
H	 0.097886211	 1.58788013	-1.6094086264	 0.117721
H	-0.8133068104	 2.1125750731	-0.184291105	 0.113766
H	-1.24562576	-0.678665289	-1.6930624435	 0.129001
H	-1.2963184128	-1.6774611084	-0.2274567209	 0.113745
H	-2.1893731601	-0.1482703008	-0.296537264	 0.130813
H	 1.1109656791	-1.5989445616	-0.228042644	 0.232573
H	-0.0461605798	-1.1663615511	 1.7405973115	 0.092887
H	-0.2266329694	 0.3233001231	 5.707517377	 0.214427
48.3032	115.7818	161.4385	189.287	219.686	235.5024	262.2523	321.1663	362.5634	404.6314	447.9631	488.178	609.188	647.0551	664.231	700.696	763.1724	829.4033	870.2522	927.605	962.3364	975.5382	1025.564	1060.5466	1088.1227	1131.9706	1154.887	1195.3054	1303.3959	1349.597	1412.2445	1422.576	1444.1259	1480.2331	1485.8651	1503.5049	1508.1592	1760.5654	2208.9962	3026.5978	3037.0319	3091.7198	3096.247	3103.8601	3135.5932	3157.8327	3488.7073	3493.4223
CC1(C)NC1C(=O)C#C	CC1(C)N[C@H]1C(=O)C#C	
InChI=1S/C7H9NO/c1-4-5(9)6-7(2,3)8-6/h1,6,8H,2-3H3	InChI=1S/C7H9NO/c1-4-5(9)6-7(2,3)8-6/h1,6,8H,2-3H3/t6-/m0/s1
