18
gdb 34308	3.2695	1.45197	1.29981	5.1166	75.23	-0.2631	0.0207	0.2838	1020.7322	0.150549	-401.976352	-401.969148	-401.968204	-402.007841	28.831	
N	 0.0838421924	-1.0977131077	-0.0015155911	-0.340066
C	 0.0464400079	 0.0566280704	 0.0011454206	 0.215036
C	-0.0594430041	 1.5112235722	 0.0130585969	 0.305145
C	-0.838052945	 2.109165799	 1.2128041312	-0.246181
C	-1.0975569355	 3.5683651367	 0.7171391523	-0.226165
C	-0.4182980354	 3.5882293731	-0.6736370983	-0.064162
C	 1.0960344375	 3.4426652813	-0.4651499445	-0.073498
O	 1.2559443931	 2.0864472128	 0.0084981935	-0.311277
C	-0.7427644428	 2.1762146814	-1.2002713937	-0.257958
H	-1.7643602395	 1.5603383963	 1.4009234652	 0.119117
H	-0.2206075704	 2.059450016	 2.1110265419	 0.126888
H	-2.1684833746	 3.7692314302	 0.6270647223	 0.108415
H	-0.6764331882	 4.3191881187	 1.390610524	 0.109185
H	-0.7001429956	 4.4253032624	-1.3127425651	 0.079733
H	 1.6643797986	 3.5672646396	-1.3951467821	 0.107845
H	 1.4937396877	 4.1358959545	 0.2847188671	 0.107812
H	-0.2529560921	 1.9195621846	-2.1416625635	 0.123071
H	-1.811396714	 1.9604609285	-1.2621249668	 0.117059
139.6159	157.3108	201.1758	348.9418	402.745	448.3031	508.3121	544.4038	555.9619	589.1179	774.3186	788.2287	827.5922	852.2336	922.6035	930.439	950.593	958.3668	975.8704	980.5988	1029.661	1093.42	1119.2079	1141.3031	1166.693	1185.3635	1202.3823	1248.5764	1259.9311	1276.1696	1302.5017	1328.717	1342.6286	1376.4975	1479.4945	1487.5051	1504.4626	1531.2432	2368.1136	3020.8206	3059.0075	3064.033	3072.731	3078.553	3101.1789	3118.0701	3130.8319	3137.455
N#CC12CCC(CO1)C2	N#C[C@@]12CC[C@@H](CO1)C2	
InChI=1S/C7H9NO/c8-5-7-2-1-6(3-7)4-9-7/h6H,1-4H2	InChI=1S/C7H9NO/c8-5-7-2-1-6(3-7)4-9-7/h6H,1-4H2/t6-,7+/m1/s1
