14
gdb 29021	3.30883	1.53661	1.04931	4.0617	74.79	-0.2511	-0.0809	0.1703	1047.4664	0.103358	-436.775147	-436.768409	-436.767465	-436.806317	25.939	
O	 0.0667437854	 1.3166617856	-0.0966409716	-0.381971
C	 0.0479953683	-0.0076284105	-0.0454893059	 0.383091
N	 0.0352001844	-0.6449041757	-1.2145661908	-0.311876
C	 0.0162799258	-1.9756134574	-1.1893882257	 0.014936
C	 0.0088357135	-2.7546308034	-0.0279854653	-0.140443
C	 0.022160964	-2.0899601062	 1.1853228187	-0.148054
C	 0.0421740712	-0.6924802202	 1.2047489051	 0.035014
C	 0.0566998385	 0.0480353039	 2.4542864907	 0.099201
O	 0.0743510204	 1.2710945517	 2.5324772986	-0.331842
H	 0.0743854245	 1.6454721168	 0.8337609146	 0.325332
H	 0.0062746157	-2.4608839166	-2.1632573755	 0.125177
H	-0.0067870457	-3.8354443864	-0.0896184816	 0.1106
H	 0.0173738121	-2.6337432486	 2.1263135547	 0.117883
H	 0.050821672	-0.5649139729	 3.3771258141	 0.102953
144.7822	204.7133	270.6505	316.1494	441.4725	441.5055	481.2118	558.2909	586.3156	685.7457	783.5466	802.5892	814.9098	842.5708	918.1476	975.0972	999.933	1034.9496	1074.6456	1131.9993	1223.8899	1260.0618	1323.1918	1377.6703	1416.8143	1421.7836	1486.3542	1510.2705	1610.4119	1651.665	1735.146	2940.3876	3153.1593	3169.3525	3214.0826	3365.563
OC1=NC=CC=C1C=O	Oc1ncccc1C=O	
InChI=1S/C6H5NO2/c8-4-5-2-1-3-7-6(5)9/h1-4H,(H,7,9)	InChI=1S/C6H5NO2/c8-4-5-2-1-3-7-6(5)9/h1-4H,(H,7,9)
