19
gdb 47536	2.69239	1.54282	1.0804	3.2374	76.73	-0.251	0.0181	0.2691	1118.8505	0.162307	-419.191748	-419.183994	-419.18305	-419.224152	30.393	
N	-0.0302283338	 1.3808003323	-0.2048964505	-0.474535
C	-0.0326969223	 0.1338804378	 0.0174187027	 0.354725
C	-1.331970178	-0.6377297782	 0.0938957046	-0.266575
C	-1.632337141	-1.1856766883	 1.4787018918	-0.034643
N	-2.0570782523	-2.5972280052	 1.5511743534	-0.339978
C	-0.7406073788	-2.2057253531	 2.0818329429	-0.017071
C	 0.4959696032	-2.6542235328	 1.3269066064	-0.233062
C	 1.4733466518	-1.4976354289	 1.104585545	-0.068641
O	 1.1421276817	-0.5797590449	 0.0519359846	-0.260935
H	 0.9351454167	 1.7167026344	-0.2478282212	 0.216619
H	-2.1278282486	 0.0338227532	-0.2331282835	 0.128877
H	-1.2856815442	-1.4758817647	-0.6077921558	 0.129062
H	-2.1051949967	-0.4805817663	 2.1584144254	 0.095598
H	-2.7187903874	-2.7278714664	 2.3119327223	 0.233451
H	-0.6279410923	-2.1715880883	 3.1642522666	 0.086138
H	 1.0184925385	-3.4368422506	 1.8903157933	 0.103809
H	 0.2132080662	-3.0926168516	 0.3658385702	 0.126062
H	 1.6076143278	-0.9337380423	 2.0391972581	 0.102714
H	 2.4516547994	-1.8843505259	 0.8076966535	 0.118385
82.8463	127.816	237.5354	301.8566	311.971	366.639	452.2389	470.2665	541.2648	567.7241	671.7509	759.1361	818.1254	836.9411	899.8797	919.7754	945.3684	957.7521	981.0656	982.5298	1029.9786	1054.2528	1068.6498	1132.8703	1140.7338	1167.7783	1180.904	1253.7541	1260.2103	1267.2439	1305.3538	1314.564	1339.0264	1357.1488	1405.4774	1429.2961	1467.8045	1474.285	1489.493	1502.6899	1736.9654	3002.2409	3038.1346	3066.4592	3093.3017	3098.5766	3117.747	3121.7445	3138.436	3452.8029	3503.942
N=C1CC2NC2CCO1	[NH][C]1C[C@H]2N[C@H]2CCO1	
InChI=1S/C6H10N2O/c7-6-3-5-4(8-5)1-2-9-6/h4-5,7-8H,1-3H2	InChI=1S/C6H10N2O/c7-6-3-5-4(8-5)1-2-9-6/h4-5,7-8H,1-3H2/t4-,5+/m0/s1
