15
gdb 12604	3.23325	2.25767	1.35351	3.2649	64.29	-0.2415	0.0062	0.2477	865.2209	0.12092	-396.048438	-396.040831	-396.039887	-396.080421	27.296	
C	-0.0565736214	 1.4491178799	 0.0322398657	-0.337093
N	-0.0218280561	 0.0026557496	 0.011236791	-0.123827
C	-1.1417485338	-0.8010483861	 0.0396726374	 0.363482
N	-2.3259938314	-0.3425397626	 0.093605385	-0.538054
C	-0.6267600113	-2.240316052	-0.0133132936	-0.271833
N	 0.8082857978	-2.0601903283	 0.0795672314	-0.364571
C	 1.1711078212	-0.7332682825	-0.0189744484	 0.469546
O	 2.2868295376	-0.2771415573	-0.100392147	-0.403287
H	 0.9748912782	 1.7993231076	-0.0167360814	 0.160673
H	-0.6256380681	 1.8276155283	-0.821276201	 0.144013
H	-0.5353280434	 1.8076005442	 0.9481006332	 0.143376
H	-3.0083447363	-1.0992278247	 0.1042331914	 0.219365
H	-1.0314524544	-2.8276269221	 0.818635399	 0.13855
H	-0.9385884803	-2.7172589635	-0.9519552215	 0.136892
H	 1.4726710518	-2.7605969806	-0.2027793311	 0.262768
117.2907	128.6156	171.7334	186.5145	277.7773	369.6238	413.4284	571.9654	578.3661	604.314	722.7964	751.1982	767.9116	831.9654	961.0163	1023.6524	1052.4959	1089.2877	1162.8325	1191.9644	1205.243	1235.7736	1307.9731	1339.4929	1422.8283	1430.7625	1484.9279	1486.7974	1509.983	1517.1014	1743.821	1858.8488	3017.9938	3048.9799	3058.9765	3109.9594	3160.2216	3494.2236	3669.0048
CN1C(=N)CNC1=O	CN1[C]([NH])CNC1=O	
InChI=1S/C4H7N3O/c1-7-3(5)2-6-4(7)8/h5H,2H2,1H3,(H,6,8)	InChI=1S/C4H7N3O/c1-7-3(5)2-6-4(7)8/h5H,2H2,1H3,(H,6,8)
