17
gdb 109629	2.80081	1.11251	1.00977	3.145	71.16	-0.2225	-0.008	0.2145	1239.5481	0.133884	-455.107878	-455.098028	-455.097083	-455.142602	35.216	
C	 0.1932633607	 1.1582630057	-0.5120123368	-0.318723
N	-0.1627895317	 0.1388521142	 0.4753080832	-0.293896
C	-1.4415266007	-0.4562379352	 0.2550040329	-0.083638
C	-1.74906376	-1.4154082819	-0.8833017456	 0.073116
O	-0.7620737262	-1.81112882	-1.7731847368	-0.427101
C	-1.6210114698	-1.9366904012	 0.5596395037	 0.150625
O	-0.4177081528	-2.6170151016	 0.8197975932	-0.46411
C	-2.767510913	-2.4032536957	 1.2919394807	 0.246968
N	-3.6990857689	-2.7997674149	 1.8528328286	-0.336869
H	 1.1848119944	 1.5517690334	-0.2721300918	 0.123394
H	 0.195462193	 0.7927135311	-1.5489140112	 0.122853
H	-0.5169200489	 1.9898763338	-0.4454353073	 0.125512
H	 0.5576234142	-0.5661777032	 0.5594373817	 0.237023
H	-2.2795637429	 0.1664058214	 0.5642901605	 0.119834
H	-2.7330650578	-1.395289915	-1.3401345234	 0.127604
H	-0.0509740734	-2.2075701257	-1.2518143022	 0.287573
H	-0.5767694463	-3.5637619453	 0.7197794306	 0.309834
77.8081	121.4988	140.5002	150.3657	194.43	212.9608	240.6893	302.4597	319.7797	440.2144	449.2929	467.8155	577.7084	639.148	678.0734	705.3522	721.2473	842.3614	869.776	1012.5223	1039.0709	1081.5738	1111.9322	1148.6173	1159.0702	1182.8818	1246.5317	1265.0131	1308.0078	1332.8207	1390.4964	1436.3186	1457.9761	1485.7565	1502.3491	1525.4379	2342.544	2999.5813	3069.4151	3110.6265	3119.5898	3172.0247	3573.3199	3754.5545	3788.7675
CNC1C(O)C1(O)C#N	CN[C@H]1[C@@H](O)[C@]1(O)C#N	
InChI=1S/C5H8N2O2/c1-7-3-4(8)5(3,9)2-6/h3-4,7-9H,1H3	InChI=1S/C5H8N2O2/c1-7-3-4(8)5(3,9)2-6/h3-4,7-9H,1H3/t3-,4+,5-/m0/s1
