20
gdb 108003	3.58501	1.46881	1.31631	1.9137	80.35	-0.2253	0.0741	0.2994	1047.2852	0.172332	-365.93307	-365.925699	-365.924754	-365.964821	29.941	
C	 0.0383577939	 1.533272699	-0.1481034039	-0.387419
C	-0.0254123957	 0.022732836	 0.1036972775	-0.304776
C	 0.7257320039	-0.4389270568	 1.3310318629	 0.347
C	 0.5433029479	 0.155875944	 2.7583364014	-0.297901
C	 1.9320697552	-0.4658912098	 3.0459705458	-0.077168
C	 1.8119791654	-1.9742658675	 2.7504922329	-0.041114
C	 0.9503308238	-1.9568708686	 1.5385939275	-0.104636
N	 2.4463171887	-1.9181624374	 1.3880730759	-0.184313
C	 2.2855977255	-0.3986568823	 1.5256109148	-0.029793
H	 1.0738718152	 1.8755281305	-0.2505776731	 0.11719
H	-0.4907920336	 1.7974197406	-1.068510454	 0.11472
H	-0.4191955739	 2.0971407053	 0.6709564767	 0.119009
H	-1.0756523902	-0.2890529428	 0.1939632622	 0.097949
H	 0.372735285	-0.5109924152	-0.7693709198	 0.107685
H	 0.5875577074	 1.2497346475	 2.7528133093	 0.099819
H	-0.3112351324	-0.1791964751	 3.3549740395	 0.0929
H	 2.5836689992	-0.1279502766	 3.8486937299	 0.073498
H	 1.9455936613	-2.8237523122	 3.4092773215	 0.093046
H	 0.3596051414	-2.78976361	 1.1743960278	 0.088
H	 2.9881313819	 0.2810149115	 1.0470717952	 0.076304
88.6086	171.1352	199.8099	288.261	353.1752	432.3654	551.4988	592.0481	734.6748	758.3978	769.8656	794.0254	814.8544	853.0069	856.6829	894.0872	898.2749	940.4498	953.4939	976.7047	984.441	1006.9988	1035.049	1043.7378	1083.8624	1112.09	1139.097	1156.2797	1175.9067	1203.3329	1207.3715	1224.4508	1243.45	1277.1443	1312.3802	1320.6155	1359.2913	1385.7913	1411.3816	1480.7995	1484.8565	1498.7698	1506.9697	3007.2348	3035.3487	3040.4011	3041.6659	3098.7129	3102.4615	3108.2833	3129.5552	3142.5017	3173.9645	3189.5657
CCC12CC3C4C1N4C23	CC[C@@]12C[C@H]3[C@H]4[C@@H]1N4[C@@H]23	
InChI=1S/C8H11N/c1-2-8-3-4-5-7(8)9(5)6(4)8/h4-7H,2-3H2,1H3	InChI=1S/C8H11N/c1-2-8-3-4-5-7(8)9(5)6(4)8/h4-7H,2-3H2,1H3/t4-,5-,6+,7-,8-,9?/m0/s1
