12
gdb 20530	5.1065	1.73855	1.30739	3.2453	56.53	-0.3003	-0.0796	0.2207	851.9087	0.083785	-410.84593	-410.839094	-410.83815	-410.877538	23.534	
C	-0.0235517961	 1.5081283326	-0.0420941239	-0.490008
C	-0.02751582	 0.0118974046	 0.0813368305	 0.43642
O	-0.0495334889	-0.623885009	 1.0989256793	-0.283499
N	-0.0015377232	-0.6968078129	-1.1660953972	-0.050619
C	 0.002293163	-2.0375632102	-1.3787638623	 0.094463
N	 0.0292281239	-2.2647500529	-2.6643898438	-0.220957
N	 0.042645735	-1.0250450947	-3.2592140228	-0.076308
N	 0.0249294984	-0.0892547943	-2.3853668274	-0.115651
H	 0.8671698012	 1.8425739726	-0.5809962115	 0.175768
H	-0.8868495072	 1.8442299763	-0.6228600612	 0.175784
H	-0.0468054182	 1.935184186	 0.9595826423	 0.159171
H	-0.0150089977	-2.763548608	-0.5840100919	 0.195437
88.6399	131.0431	166.104	209.8428	383.957	503.3592	577.2191	644.0208	670.4497	726.942	904.1379	949.0887	964.4159	1023.0372	1061.7671	1094.3373	1109.8804	1208.7202	1228.4257	1364.3738	1391.5121	1418.706	1456.8168	1467.4163	1512.6882	1848.4518	3062.3729	3128.4976	3175.2922	3305.854
CC(=O)N1C=NN=N1	CC(=O)n1cnnn1	
InChI=1S/C3H4N4O/c1-3(8)7-2-4-5-6-7/h2H,1H3	InChI=1S/C3H4N4O/c1-3(8)7-2-4-5-6-7/h2H,1H3
