21
gdb 114364	3.0677	1.12289	1.10317	2.4992	79.13	-0.2371	0.0706	0.3077	1259.2276	0.181592	-424.180848	-424.171801	-424.170856	-424.215195	33.694	
C	 0.1987439884	 1.0888591142	-0.3429100771	-0.235512
O	 0.0291316164	-0.1981584704	 0.2061663666	-0.23369
C	-1.2960693922	-0.6318645944	 0.198482144	 0.16269
C	-1.9510988031	-1.1134004301	-1.1410712615	-0.296697
C	-2.3758379406	-2.4345959242	-0.4361300197	-0.113517
C	-1.3708991532	-3.6010086013	-0.5398043794	 0.168007
C	-0.6338763527	-3.9318967694	-1.8194807067	-0.410899
O	-0.5211622094	-2.9923608484	 0.471233196	-0.306131
C	-1.5309270418	-2.0256483682	 0.8090828228	 0.071172
H	 1.261172389	 1.3338606539	-0.2734097841	 0.129243
H	-0.1046882493	 1.130411138	-1.4000486178	 0.106435
H	-0.3788695532	 1.846995209	 0.2100259921	 0.102342
H	-1.9524314666	 0.1036602124	 0.6956222531	 0.059602
H	-2.7794430064	-0.4962701699	-1.4948143818	 0.100836
H	-1.2395329376	-1.2430332372	-1.9590701736	 0.108881
H	-3.4377247905	-2.6732149326	-0.4123874702	 0.073175
H	-1.8182313796	-4.5212874491	-0.1320936428	 0.070272
H	-0.1548501664	-3.0510518385	-2.2536613756	 0.127522
H	 0.1478217605	-4.6699917077	-1.6133630086	 0.130188
H	-1.3211502548	-4.3622769488	-2.5560815471	 0.114967
H	-1.8413464169	-2.0946454374	 1.8558046015	 0.071114
43.4232	98.4645	156.9497	193.2278	213.1358	270.3149	314.9283	360.0091	423.3466	513.848	521.6254	653.8342	752.1323	778.4778	824.9618	888.4866	903.4538	928.2983	965.2753	1014.6387	1038.1666	1072.1109	1090.6362	1104.7113	1128.359	1155.1876	1161.244	1179.4774	1185.0084	1210.4722	1238.2898	1253.2543	1298.6439	1308.9215	1311.7633	1347.3763	1383.8505	1395.322	1412.8799	1470.7595	1481.1524	1484.3289	1488.3266	1503.9885	1508.3497	2946.1958	2971.2556	2972.1751	3018.6448	3039.3657	3062.6076	3071.9784	3105.8435	3115.8361	3118.73	3124.7141	3130.8878
COC1CC2C(C)OC12	CO[C@H]1C[C@H]2[C@@H](C)O[C@@H]12	
InChI=1S/C7H12O2/c1-4-5-3-6(8-2)7(5)9-4/h4-7H,3H2,1-2H3	InChI=1S/C7H12O2/c1-4-5-3-6(8-2)7(5)9-4/h4-7H,3H2,1-2H3/t4-,5+,6+,7-/m1/s1
