15
gdb 54874	3.34466	0.66275	0.64074	2.843	66.75	-0.2	0.008	0.208	1725.5663	0.111921	-454.014104	-454.004573	-454.003629	-454.054696	30.234	
O	 0.0705440745	-0.1937777373	-1.4764930725	-0.306346
C	 1.0810972443	 0.0391314557	-0.9445144201	 0.591961
O	 2.0917769956	 0.2659902681	-0.4219988478	-0.27683
C	-2.1802034359	 2.7934790391	 0.3509076164	 0.00184
N	-1.8140797505	 1.4399899639	 0.4151726972	-0.326801
H	-1.7248808239	 0.9290020345	-0.4487105139	 0.260645
C	-2.2545181947	 0.7287963077	 1.5264639358	 0.083847
N	-2.6726430853	 1.2221547682	 2.617833989	-0.244945
C	-2.6631605826	 2.6864206436	 2.7618438433	-0.200339
C	-2.6053958125	 3.4236675595	 1.4442562742	-0.114382
H	-2.1063759208	 3.2530351227	-0.6272747379	 0.110195
H	-2.2246337073	-0.3541371305	 1.4014010947	 0.111015
H	-3.5568074131	 2.9772366535	 3.3295150991	 0.109141
H	-1.8117647059	 2.9609134028	 3.4072534695	 0.108908
H	-2.9138993818	 4.4613086185	 1.393445883	 0.092091
11.6241	13.1995	25.9943	53.5368	97.9665	128.2088	438.7187	478.9142	561.9931	574.5751	647.3627	685.6258	686.6203	736.1914	882.0482	936.8948	945.3273	963.6811	985.0364	1010.9381	1074.3084	1145.6745	1216.819	1257.2931	1342.6976	1378.6175	1391.7069	1426.7374	1488.3532	1500.2373	1711.4727	1764.2442	2434.292	2952.6503	3018.1611	3124.8556	3188.7208	3212.1337	3634.3091
[O-]C(=O)C1[NH+]=CN2CC12	O=C=O.C1=CCN=CN1	
InChI=1S/C5H6N2O2/c8-5(9)4-3-1-7(3)2-6-4/h2-4H,1H2,(H,8,9)	InChI=1S/C4H6N2.CO2/c1-2-5-4-6-3-1;2-1-3/h1-2,4H,3H2,(H,5,6);
