21
gdb 95522	2.50355	1.55234	1.25239	1.3709	84.84	-0.2293	0.0216	0.2509	1106.7719	0.183994	-387.096102	-387.087678	-387.086734	-387.128743	33.666	
O	 0.0829330855	 1.3874015913	-0.1272625721	-0.444287
C	 0.0247834611	-0.0343614259	 0.0017307634	 0.029657
C	 0.750414477	-0.5041902463	 1.2708267144	-0.219375
C	 0.0520152468	 0.0228287594	 2.5337067853	-0.269938
C	-1.4438359335	-0.1456324501	 2.4579140579	-0.084361
C	-2.0899541185	-0.4154361173	 1.3202977225	-0.124382
C	-1.4129409666	-0.538420553	 0.0042981944	 0.342474
C	-2.2269311917	-0.3246768488	-1.2549436322	-0.31752
C	-1.7829777895	-1.7112446106	-0.8910932828	-0.314666
H	-0.5868476053	 1.7575949244	 0.4576849513	 0.284242
H	 0.5454497664	-0.4158059176	-0.8835411143	 0.072488
H	 0.7544689359	-1.6010559619	 1.2828350713	 0.099201
H	 1.7911079384	-0.1682864424	 1.2401434716	 0.097846
H	 0.4405032872	-0.4908662724	 3.4210858549	 0.104997
H	 0.3014366431	 1.0837850632	 2.6827174463	 0.110163
H	-2.0068814588	-0.0393716825	 3.3817907888	 0.085053
H	-3.1705186819	-0.5459186953	 1.3272297518	 0.082734
H	-3.2771964095	-0.0757107208	-1.1433014278	 0.110906
H	-1.7328482896	 0.1805025014	-2.0774463387	 0.12608
H	-0.9889946905	-2.1695017949	-1.4718658232	 0.115813
H	-2.524362586	-2.4114392499	-0.5213225628	 0.112878
82.4277	175.9834	219.1363	253.8251	279.0955	285.3828	381.1652	420.5489	434.4309	550.3374	599.7388	669.4717	731.9912	777.143	788.2285	856.5231	890.1952	920.9093	944.1196	947.2842	964.7367	997.2171	999.2929	1003.0156	1056.2204	1077.8303	1082.0706	1089.1793	1163.1157	1189.6856	1193.9341	1235.1543	1269.172	1289.7398	1328.6401	1349.3356	1373.1179	1377.7377	1420.8608	1443.126	1469.9114	1472.836	1485.0886	1499.7943	1708.2364	3000.745	3030.7699	3046.6289	3052.7568	3088.2147	3127.1514	3131.1699	3136.478	3163.6777	3206.9199	3222.3126	3810.1275
OC1CCC=CC11CC1	O[C@H]1CCC=CC21CC2	
InChI=1S/C8H12O/c9-7-3-1-2-4-8(7)5-6-8/h2,4,7,9H,1,3,5-6H2	InChI=1S/C8H12O/c9-7-3-1-2-4-8(7)5-6-8/h2,4,7,9H,1,3,5-6H2/t7-/m0/s1
