20
gdb 118536	3.16687	0.8326	0.69668	5.0418	77.37	-0.2601	0.0358	0.2959	1623.021	0.167974	-440.275813	-440.264909	-440.263965	-440.312991	36.729	
C	-0.1612795102	 1.1406609743	-0.1026216122	-0.233316
O	-0.0100410977	-0.260100343	-0.0517311964	-0.235172
C	 0.5938788783	-0.7061799671	 1.139436989	-0.057923
C	 0.6373081724	-2.235110151	 1.1252213684	 0.100848
C	 1.4943788196	-2.7535708861	 2.296154097	-0.358866
C	 1.6624226434	-4.2035554608	 2.2495069308	 0.270566
N	 1.8139076828	-5.3477163079	 2.2023031762	-0.306827
O	-0.6426298746	-2.8037651072	 1.2873878723	-0.249797
C	-1.360943461	-3.047888253	 0.0885221654	-0.242286
H	 0.809966884	 1.6556238568	-0.0384522475	 0.108272
H	-0.627827861	 1.3833739119	-1.0598667904	 0.133368
H	-0.8022944021	 1.5108088506	 0.7121265574	 0.111272
H	 1.6162891491	-0.2981370983	 1.2285001586	 0.08309
H	 0.0204500851	-0.3721614255	 2.0203113698	 0.097955
H	 1.0865565177	-2.5586015375	 0.1745859534	 0.096321
H	 2.483228895	-2.2833594412	 2.2877034799	 0.149343
H	 1.0062429398	-2.4849097429	 3.2396400993	 0.160722
H	-2.281793652	-3.5590635678	 0.3785488218	 0.128443
H	-1.6031336092	-2.1183864688	-0.4359351622	 0.12969
H	-0.7923757494	-3.7028600253	-0.5873452606	 0.114297
53.1152	73.404	94.5255	98.267	119.9659	180.1106	206.0705	232.2932	287.7785	330.7236	370.146	391.8827	425.7217	511.2775	625.7356	828.2933	907.2474	932.9341	999.4181	1061.8453	1069.168	1103.2406	1149.714	1171.8668	1183.3325	1185.4217	1206.3924	1222.8468	1248.3651	1284.7904	1290.5742	1362.6262	1394.2354	1426.1166	1455.1222	1477.1131	1481.2777	1484.9848	1486.2917	1497.7162	1515.0912	1522.4311	2368.1665	2944.9307	2976.6639	2984.3399	2999.8601	3009.0407	3023.491	3050.1925	3082.2976	3095.244	3121.4381	3126.9315
COCC(CC#N)OC	COC[C@@H](CC#N)OC	
InChI=1S/C6H11NO2/c1-8-5-6(9-2)3-4-7/h6H,3,5H2,1-2H3	InChI=1S/C6H11NO2/c1-8-5-6(9-2)3-4-7/h6H,3,5H2,1-2H3/t6-/m1/s1
