19
gdb 64770	2.96445	1.17802	1.0893	1.3627	76.6	-0.2504	0.0496	0.3	1199.2473	0.15734	-422.995305	-422.986042	-422.985098	-423.02966	34.222	
C	-0.0053463658	 1.6806434344	-0.0874192996	-0.436339
C	 0.0477629934	 0.1586913465	-0.0526007305	 0.367364
C	-1.3664426159	-0.4796509272	-0.0193504958	-0.392667
C	-2.1455534914	-0.1301392002	 1.1600457688	 0.317779
C	-2.7966714158	 0.1668459406	 2.12554869	-0.444145
C	 0.8762782969	-0.4649688833	-1.1942158989	-0.150646
O	 1.4304476639	-1.6239886733	-0.5936040218	-0.241201
C	 1.7455975646	-1.2182505848	 0.7154043035	 0.019881
O	 0.7746552856	-0.2669556239	 1.11108544	-0.295035
H	 1.0053908349	 2.095528454	-0.0525064148	 0.120015
H	-0.4955109902	 2.0301341289	-1.0026553982	 0.114636
H	-0.5683392168	 2.0598298916	 0.768455227	 0.145967
H	-1.9116143337	-0.1750773953	-0.9226066513	 0.124209
H	-1.241406179	-1.5673773128	-0.0748441173	 0.138894
H	-3.3670938024	 0.4207600422	 2.9841699196	 0.194008
H	 0.2839289514	-0.7731387095	-2.0583623428	 0.118151
H	 1.6655525008	 0.228333795	-1.5240226451	 0.093036
H	 1.7121355451	-2.0948697499	 1.3710916932	 0.118194
H	 2.7485618944	-0.756870683	 0.7546683242	 0.087899
53.3005	89.0871	133.711	213.6042	224.9084	310.0221	316.7241	353.4058	373.9734	405.2427	515.5575	615.3321	637.1229	671.5443	734.7097	790.7166	886.9474	895.825	932.7988	981.2034	985.1215	1012.1404	1050.8829	1118.5214	1126.1503	1160.9063	1194.117	1209.9428	1225.395	1280.3191	1283.6629	1340.3859	1369.4225	1410.3526	1433.5926	1464.3025	1485.703	1496.5975	1509.5023	1549.0492	2239.675	2942.3099	2985.8486	3019.9184	3041.8	3064.2689	3066.3257	3108.4573	3113.212	3133.3264	3507.5217
CC1(CC#C)COCO1	C[C@@]1(CC#C)COCO1	
InChI=1S/C7H10O2/c1-3-4-7(2)5-8-6-9-7/h1H,4-6H2,2H3	InChI=1S/C7H10O2/c1-3-4-7(2)5-8-6-9-7/h1H,4-6H2,2H3/t7-/m1/s1
