15
gdb 133839	4.03697	1.85557	1.74599	0.9114	74.24	-0.2021	-0.0497	0.1523	800.6664	0.112512	-383.282668	-383.276594	-383.27565	-383.31254	25.939	
O	 0.4802267004	-2.8273744849	 0.8020271254	-0.454107
C	 1.6843041753	-3.2466442911	 0.3073313399	 0.353942
C	 2.1634753115	-4.6552938794	-0.0100973011	-0.134121
C	 2.1325719449	-3.5291638341	-1.0762832298	-0.194386
C	 3.5526433901	-2.9884126965	-1.0778422721	 0.011521
C	 4.5785761608	-3.8233237804	-0.3621522039	-0.091526
C	 3.5634687029	-4.4313368774	 0.6356446585	-0.076816
C	 3.1551260343	-2.9615101227	 0.8081156882	-0.018534
C	 4.2474684852	-2.337942693	 0.0237422828	-0.141735
H	 0.2466932822	-1.9915164902	 0.3821717425	 0.292726
H	 1.5516580762	-5.5483233711	-0.0717118934	 0.094215
H	 1.5183739124	-3.61295531	-1.963952808	 0.097629
H	 5.4885407747	-4.2141487947	-0.8099530347	 0.083672
H	 3.8357190556	-5.0325084673	 1.5062892344	 0.07234
H	 4.7612753535	-1.3873150472	 0.0969389013	 0.105179
228.2852	288.7271	330.8415	494.4346	518.1419	554.5769	577.4019	643.1151	713.7013	773.2008	797.0603	819.1523	853.0901	889.6865	897.9784	934.8408	948.4454	971.6831	973.4424	1011.6889	1034.9469	1044.9987	1099.6199	1129.9073	1145.2307	1161.803	1175.5572	1195.7671	1238.296	1243.5322	1306.948	1376.7954	1459.4906	3078.9335	3137.9938	3175.6951	3179.9941	3190.9045	3791.1905
OC12C3C1C1=CC3C2=C1	O[C@@]12[C@H]3[C@@H]1[C@]14[C@@H]5[C@H]3[C@]21[C@H]45	
InChI=1S/C8H6O/c9-8-5-2-3-1-4(5)7(8)6(3)8/h1-2,4,6-7,9H	InChI=1S/C8H6O/c9-8-3-1-2-4-6(2,5(3)8)7(1,4)8/h1-5,9H/t1-,2-,3-,4+,5-,6-,7-,8+/m1/s1
