21
gdb 109962	1.93177	1.46866	0.92085	2.4439	82.89	-0.2258	0.0298	0.2556	1351.1888	0.181366	-420.393747	-420.383463	-420.382519	-420.429411	36.343	
C	 0.3564341865	 1.4495237663	-0.1513734117	-0.324186
N	-0.1481569739	 0.1207898122	 0.197677799	-0.287173
C	 0.5720882302	-0.4827866853	 1.3018790536	-0.170729
C	 0.2625144524	-1.9793593889	 1.5974609904	 0.12189
C	-0.731037337	-2.7093255248	 0.7221908826	-0.407884
O	 1.649241767	-2.3288434029	 1.2592941978	-0.2807
C	 1.9522403525	-1.014236259	 0.9554398138	 0.501385
N	 3.013918266	-0.4970158516	 0.5416262385	-0.337121
C	 4.1690756054	-1.3507032176	 0.2966889995	-0.34052
H	 1.4017682048	 1.3630338838	-0.4563373958	 0.163181
H	-0.223060892	 1.8448165736	-0.9903175698	 0.114881
H	 0.3076834892	 2.1752879001	 0.67961112	 0.092887
H	-1.130027327	 0.1895946184	 0.4484452599	 0.218759
H	 0.589838234	 0.1371105246	 2.2153564327	 0.076877
H	 0.0933156418	-2.1881528243	 2.6585651667	 0.088764
H	-0.5807055711	-2.4555195582	-0.3284806021	 0.146607
H	-0.6200888916	-3.7896197279	 0.8542407573	 0.129714
H	-1.7551683137	-2.4396114403	 1.003632882	 0.115183
H	 3.9860164037	-2.4159360308	 0.479035339	 0.126033
H	 4.4945189047	-1.2221247783	-0.741392755	 0.126466
H	 4.9982635383	-1.0231343292	 0.9337933818	 0.125689
75.7431	86.2675	106.1965	141.5934	170.1125	196.3594	230.0502	238.2294	290.0618	376.261	403.2024	471.9151	560.8204	681.3501	733.7276	792.2965	853.6041	894.863	899.1281	1009.2393	1037.6394	1064.4719	1071.1732	1125.8158	1129.686	1135.2332	1152.1448	1176.8974	1184.1695	1215.3706	1276.1607	1320.6182	1368.3094	1380.9854	1411.3901	1438.2965	1455.9527	1477.1233	1485.2916	1492.2619	1494.8396	1496.1549	1497.7426	1521.6854	1841.7336	2942.075	2950.9017	3017.3461	3040.7523	3059.8505	3079.7734	3081.7525	3088.1184	3106.6984	3133.0735	3145.5987	3502.1481
CNC1C(C)OC1=NC	CN[C@H]1[C@@H](C)OC1=NC	
InChI=1S/C6H12N2O/c1-4-5(7-2)6(8-3)9-4/h4-5,7H,1-3H3	InChI=1S/C6H12N2O/c1-4-5(7-2)6(8-3)9-4/h4-5,7H,1-3H3/t4-,5+/m1/s1
