20
gdb 88623	3.70603	1.17945	1.10649	1.4929	79.1	-0.2082	0.0746	0.2828	1186.5202	0.170635	-403.060211	-403.051895	-403.050951	-403.093608	32.018	
C	 0.1885904857	 1.5078147915	-0.2273496421	-0.414767
C	 0.0490556629	 0.0270830947	 0.0426231665	 0.023665
C	 1.2219774312	-0.8782758469	-0.0374740961	-0.235711
N	 0.5905676851	-0.603259435	 1.2594433202	-0.110737
C	 1.2921630656	 0.2229133287	 2.209752769	 0.030402
C	 1.9156219517	-0.3567290532	 3.4593587999	-0.180989
C	 2.6575688328	-1.6373582911	 3.0920511923	-0.086139
O	 3.4028552071	-0.9580076265	 2.042098332	-0.284585
C	 2.7860505241	 0.2831442957	 2.3865835162	 0.05413
H	 1.1979029907	 1.8685933069	-0.0111514874	 0.124051
H	-0.0247768752	 1.716875595	-1.2809208773	 0.122575
H	-0.5187600933	 2.0927872638	 0.3722201598	 0.120572
H	-0.9244404309	-0.3796656298	-0.2288659537	 0.087114
H	 1.1204770037	-1.8991629338	-0.3961139019	 0.110523
H	 2.1901353783	-0.4253201788	-0.2310796045	 0.124452
H	 0.8043610731	 1.1743053904	 2.4130427268	 0.094286
H	 1.6595114296	-0.0361241391	 4.4604213446	 0.096411
H	 3.3417890957	-1.9938323505	 3.8688662571	 0.108114
H	 2.0535831185	-2.4648038958	 2.7054664586	 0.119261
H	 3.4064407337	 1.1734934938	 2.3605792501	 0.097372
40.0204	147.3127	182.0267	210.2915	249.6124	317.46	390.0709	451.3486	516.8024	625.3138	733.0007	767.2489	783.8491	808.0537	848.5992	900.6806	921.1784	955.5887	972.0704	983.5425	1024.1519	1032.301	1053.0179	1057.0122	1073.3738	1117.6983	1118.2545	1138.5735	1160.7726	1168.3805	1178.5028	1199.2587	1256.4684	1315.235	1328.2069	1351.925	1401.861	1417.3415	1434.6892	1490.0687	1500.0883	1507.7671	1512.2481	3030.1882	3037.5665	3089.2491	3090.6409	3100.828	3108.8763	3121.4809	3129.305	3157.9467	3194.3907	3198.3624
CC1CN1C1C2COC12	C[C@H]1CN1[C@H]1[C@H]2CO[C@@H]12	
InChI=1S/C7H11NO/c1-4-2-8(4)6-5-3-9-7(5)6/h4-7H,2-3H2,1H3	InChI=1S/C7H11NO/c1-4-2-8(4)6-5-3-9-7(5)6/h4-7H,2-3H2,1H3/t4-,5+,6-,7+,8?/m0/s1
