18
gdb 105958	3.12784	1.4788	1.18649	2.5781	74.52	-0.2045	0.0611	0.2656	1081.3214	0.146318	-401.823158	-401.815079	-401.814135	-401.855667	31.446	
C	 0.0030316995	 1.4920698604	 0.0147139408	-0.384275
C	-0.0399655883	-0.0393611003	-0.0432305567	-0.329176
C	-1.4260917968	-0.5859874167	 0.0840098263	 0.267062
C	-2.6438757641	-0.1523617093	 0.8308394604	-0.106455
C	-3.2654060413	-1.5657690018	 0.7548651727	-0.22023
C	-3.1883568225	-1.4400385778	-0.7586028415	-0.059672
N	-2.6105624368	-0.0306432517	-0.6743435044	-0.212634
C	-2.0261620252	-2.0333882844	-0.0282009646	 0.316459
O	-1.4735889722	-3.2744790645	-0.1754626836	-0.444925
H	 1.0209637174	 1.8569691131	-0.1477458941	 0.113052
H	-0.6466446553	 1.9215908337	-0.7524190056	 0.145447
H	-0.3339115597	 1.8614180886	 0.9888212556	 0.114914
H	 0.3868149521	-0.3883624013	-0.9927088214	 0.11351
H	 0.5871990745	-0.4656729276	 0.7512598403	 0.098722
H	-2.8274758639	 0.7008849282	 1.4747756079	 0.093033
H	-3.942623371	-2.1274789784	 1.3823490433	 0.097186
H	-3.8234639098	-1.8076135165	-1.5544526491	 0.105083
H	-1.1715411467	-3.5853145439	 0.6860124036	 0.292896
86.201	143.6832	199.1632	256.2679	267.6842	324.4696	373.8588	468.9643	583.4944	647.6873	658.5705	740.8923	775.8496	799.5506	832.6651	860.7271	879.044	911.4995	923.8158	937.5533	985.2293	1000.7128	1023.8117	1050.0677	1096.0119	1126.5532	1170.0617	1176.3029	1230.3139	1258.4342	1288.7526	1297.5166	1359.7245	1405.3768	1421.9592	1475.3902	1484.1935	1497.1712	1512.3137	3014.426	3041.1487	3045.5879	3108.9031	3125.8247	3165.5282	3194.4421	3219.9261	3778.8313
CCC12C3C4C(N13)C24O	CC[C@@]12[C@@H]3[C@H]4[C@@H](N13)[C@@]24O	
InChI=1S/C7H9NO/c1-2-6-4-3-5(8(4)6)7(3,6)9/h3-5,9H,2H2,1H3	InChI=1S/C7H9NO/c1-2-6-4-3-5(8(4)6)7(3,6)9/h3-5,9H,2H2,1H3/t3-,4-,5+,6-,7+,8?/m0/s1
