14
gdb 11158	5.7014	1.3045	1.07563	3.6356	76.83	-0.241	-0.07	0.1711	1029.6762	0.106805	-345.416484	-345.40924	-345.408296	-345.448222	26.809	
O	-0.0779124567	-0.0467529078	 0.0052124581	-0.333822
C	-0.0374136475	 1.1617710408	 0.0097081196	 0.401984
C	-1.2520127748	 2.1064374442	 0.03162475	-0.340089
C	-0.6684026159	 3.5293129106	 0.0302065773	-0.329919
C	 0.8400272146	 3.3169699391	 0.0074629423	 0.193425
C	 1.1714827932	 2.0099695203	-0.0033253739	-0.295855
C	 1.7311327483	 4.4122146121	 0.0003653412	 0.22178
C	 2.4533323551	 5.3770757635	-0.0056409675	-0.384377
H	-1.8814766868	 1.9015455147	-0.838936398	 0.138102
H	-1.8566705351	 1.8930007085	 0.9175694788	 0.138127
H	-0.9782112726	 4.1195023304	-0.8388199663	 0.131676
H	-0.9529637325	 4.1108187608	 0.9136193074	 0.131704
H	 2.1740157122	 1.6043487075	-0.0193120968	 0.120797
H	 3.1052739385	 6.2156003552	-0.0122746122	 0.206467
97.5918	119.9665	148.4793	307.412	433.8959	508.3865	537.3205	555.7922	579.4086	628.2208	637.5772	647.8786	825.6301	832.7071	886.6583	910.7764	1005.9391	1014.1016	1132.4112	1155.4902	1182.3667	1230.9737	1253.9002	1286.881	1323.5264	1451.9499	1482.836	1636.777	1808.6553	2219.4118	3047.3748	3068.8743	3077.3213	3110.5234	3233.7552	3501.335
O=C1CCC(=C1)C#C	O=C1CCC(=C1)C#C	
InChI=1S/C7H6O/c1-2-6-3-4-7(8)5-6/h1,5H,3-4H2	InChI=1S/C7H6O/c1-2-6-3-4-7(8)5-6/h1,5H,3-4H2
