18
gdb 62063	4.5111	0.78839	0.73195	3.2941	73.67	-0.2607	0.0075	0.2683	1535.5672	0.145592	-439.058651	-439.049026	-439.048082	-439.094587	34.063	
O	-0.605612148	 0.9336155207	-0.592975005	-0.398572
C	 0.0713860207	-0.2493096856	-0.2165510259	-0.018173
C	 1.0216960779	-0.7815024765	-1.3051782228	-0.085413
O	 0.2456304857	-1.2201570646	-2.3972207605	-0.245823
C	 0.6138362888	-0.700837324	-3.6423486292	 0.129199
C	-0.4948561474	-0.5245086981	-4.6260542504	-0.278943
C	 0.1686588632	 0.6915976068	-4.0098736501	-0.295815
C	 0.8058305717	-0.0676538686	 1.0514599401	 0.241321
N	 1.409174234	 0.1054030492	 2.0216786958	-0.310536
H	 0.0382440399	 1.650209026	-0.6394820896	 0.296592
H	-0.710960627	-1.0000116424	-0.0631586461	 0.153943
H	 1.7181693556	 0.0160610808	-1.5958340287	 0.10739
H	 1.6094292196	-1.6156735902	-0.897334645	 0.122546
H	 1.579915233	-1.0499178811	-4.0059785816	 0.089778
H	-0.3038754498	-0.7585376288	-5.6669426051	 0.118085
H	-1.4898521011	-0.7719131306	-4.2752365535	 0.131726
H	-0.3997348333	 1.2235841054	-3.2558885085	 0.12864
H	 0.8191285566	 1.3030787317	-4.6255425039	 0.114054
33.0994	61.7744	81.1623	148.6546	219.5768	249.4728	305.3925	337.3837	381.8048	437.6474	477.6769	569.771	589.923	758.1429	819.0685	824.4231	874.8175	935.3875	967.761	986.3388	1049.9006	1075.1644	1079.7274	1101.9104	1108.6521	1130.9827	1191.011	1197.7462	1237.0073	1265.3409	1277.1726	1334.9496	1372.5914	1415.498	1429.7152	1453.5673	1485.6701	1500.0271	2355.395	3003.7296	3049.8406	3077.526	3103.9621	3137.9179	3145.7801	3227.2617	3240.4327	3799.881
OC(COC1CC1)C#N	O[C@@H](COC1CC1)C#N	
InChI=1S/C6H9NO2/c7-3-5(8)4-9-6-1-2-6/h5-6,8H,1-2,4H2	InChI=1S/C6H9NO2/c7-3-5(8)4-9-6-1-2-6/h5-6,8H,1-2,4H2/t5-/m1/s1
