21
gdb 105093	2.42416	1.3327	1.1121	2.9584	79.12	-0.2192	0.0714	0.2906	1213.5602	0.180694	-424.17355	-424.164044	-424.163099	-424.208323	36.164	
C	 0.1532062441	 1.3317982109	-0.0926868655	-0.257697
O	-0.0346414587	-0.0412468216	 0.1717734493	-0.30602
C	-1.3393930606	-0.586673236	 0.1035130453	 0.430598
C	-2.4626289371	 0.0091991603	 0.9108339203	-0.319299
C	-2.4642478681	 0.1213189873	-0.6061836221	-0.332715
C	-1.2559964546	-2.083821786	 0.0041006633	-0.113433
C	-0.1257510052	-2.7600485597	-0.7589553228	-0.349439
C	-0.2026030015	-2.8763377916	 0.7438251177	 0.139536
O	 0.7315104157	-2.2847517519	 1.5905518129	-0.435667
H	 1.2108586275	 1.5362609688	 0.0876125516	 0.136286
H	-0.0808201159	 1.5807085591	-1.1351832474	 0.122874
H	-0.4415339369	 1.9740047338	 0.5710360899	 0.11774
H	-3.1556559957	-0.670161909	 1.3947106084	 0.120823
H	-2.2704534557	 0.9179804613	 1.4705897672	 0.117193
H	-2.2949596571	 1.1062011942	-1.0244022112	 0.115869
H	-3.155745718	-0.4853513448	-1.1807112495	 0.119646
H	-2.2381060932	-2.5430979344	-0.0658811784	 0.082736
H	-0.3523373166	-3.6219948356	-1.3778640947	 0.104109
H	 0.6442745529	-2.1046971415	-1.1504799648	 0.118656
H	-0.5119657015	-3.8349297608	 1.150022716	 0.097204
H	 0.813283496	-1.3609927228	 1.3168729145	 0.291
41.6511	65.524	179.6438	191.4749	232.5892	294.2337	304.7418	346.2557	426.5377	445.9318	481.9394	515.1346	615.7891	687.569	751.7594	784.5144	805.5199	849.6892	894.5899	937.9053	957.8149	988.4047	1028.2858	1038.9263	1063.9654	1070.2142	1073.4395	1122.2356	1127.5799	1149.6806	1176.3056	1184.1726	1212.3045	1233.4536	1266.6063	1299.6573	1363.3239	1418.3877	1453.2243	1455.8998	1484.8255	1488.7968	1495.6889	1504.6747	1510.2307	3002.0467	3060.961	3121.8698	3129.5762	3136.0601	3138.0225	3142.29	3154.4969	3215.3475	3223.3107	3228.7803	3741.5951
COC1(CC1)C1CC1O	COC1(CC1)[C@H]1C[C@H]1O	
InChI=1S/C7H12O2/c1-9-7(2-3-7)5-4-6(5)8/h5-6,8H,2-4H2,1H3	InChI=1S/C7H12O2/c1-9-7(2-3-7)5-4-6(5)8/h5-6,8H,2-4H2,1H3/t5-,6+/m0/s1
