21
gdb 61070	2.4281	1.26687	1.07561	2.1065	78.34	-0.2403	-0.0209	0.2194	1246.2927	0.181717	-424.247824	-424.238204	-424.23726	-424.283678	34.285	
C	-0.0252250595	 1.5885077931	-0.1245535667	-0.423162
C	 0.0228841591	 0.0620582197	 0.0099214118	-0.082236
C	 0.766652012	-0.3454385505	 1.2753915298	 0.171578
O	 1.3374476859	-1.3972562905	 1.4216494239	-0.261683
C	-1.3943228625	-0.5477417082	 0.0414872746	 0.146034
C	-1.4790511554	-2.0749876947	-0.0651990418	-0.255932
C	-2.7879781015	-2.3692594121	 0.6815199905	-0.23249
C	-2.7579691016	-1.3189739996	 1.7992230327	-0.062081
O	-2.0119491048	-0.2076851003	 1.2912573905	-0.287787
H	 0.9791948713	 2.0239254111	-0.1197394529	 0.11818
H	-0.5114133517	 1.8788142844	-1.060595127	 0.120824
H	-0.5942706428	 2.027173603	 0.7006658442	 0.142394
H	 0.555261896	-0.3844992791	-0.8382178176	 0.097335
H	 0.7460575799	 0.4093543436	 2.0924927071	 0.084283
H	-1.9746884852	-0.0871911002	-0.7754281651	 0.066801
H	-1.4853532226	-2.4143408728	-1.1039619775	 0.101236
H	-0.6261283651	-2.5367366946	 0.4402856083	 0.136511
H	-3.6494267738	-2.2045768564	 0.0254890224	 0.106101
H	-2.8483656088	-3.3898566538	 1.0664474792	 0.108145
H	-3.7558499263	-0.9724176228	 2.0898065983	 0.103189
H	-2.2572624525	-1.7063694191	 2.6973076352	 0.10276
29.0237	70.5352	92.6493	167.7117	189.4386	215.9326	247.9894	302.9043	388.792	521.1015	554.0518	584.0081	662.0397	817.4812	874.5521	888.647	909.6907	929.0553	934.2999	965.3058	1000.06	1038.3441	1062.826	1067.3985	1124.8797	1150.0152	1166.3439	1196.2054	1212.6352	1256.9414	1280.1196	1303.4855	1324.795	1340.8277	1362.3705	1387.0926	1398.8564	1408.5938	1433.6216	1490.2567	1497.086	1501.0753	1501.9985	1530.8123	1822.4285	2885.6461	2953.7816	3006.7101	3038.6162	3045.9713	3047.3923	3063.3713	3066.911	3106.7523	3107.115	3117.834	3120.0528
CC(C=O)C1CCCO1	C[C@@H](C=O)[C@H]1CCCO1	
InChI=1S/C7H12O2/c1-6(5-8)7-3-2-4-9-7/h5-7H,2-4H2,1H3	InChI=1S/C7H12O2/c1-6(5-8)7-3-2-4-9-7/h5-7H,2-4H2,1H3/t6-,7+/m0/s1
