25
gdb 121225	2.85713	0.83421	0.70445	0.9942	90.21	-0.2495	0.0821	0.3317	1735.9719	0.227971	-389.47481	-389.464143	-389.463198	-389.511082	38.668	
C	 0.1549470921	 1.7402124428	-0.0746009575	-0.383054
C	-0.3203404811	 0.3162124243	-0.3848849898	-0.199047
C	 0.7110100456	-0.4853785287	-1.1731535272	 0.046772
C	 2.0497423828	-0.8958371518	-0.4931489607	-0.228117
C	 1.9789618857	-2.2499057343	-1.2491920398	-0.217901
C	 0.4703896877	-1.9916651194	-1.5266204838	-0.038035
C	-0.451192985	-2.745324284	-0.5815950245	-0.062539
O	-0.4019773683	-4.1158037767	-0.9238422838	-0.232183
C	-1.2123261158	-4.9162872673	-0.1001806855	-0.226542
H	 1.078461515	 1.7297496045	 0.5142351628	 0.118967
H	 0.3575363948	 2.2979584308	-0.9958421236	 0.113291
H	-0.5960381078	 2.2971484819	 0.49426942	 0.110108
H	-0.5544966779	-0.1983905186	 0.5558540162	 0.0926
H	-1.2597990587	 0.3613527897	-0.9519208723	 0.093576
H	 0.9340541975	 0.051644851	-2.1034980062	 0.068318
H	 2.9225251561	-0.2620705389	-0.6682524296	 0.092694
H	 1.9318078649	-1.0212404711	 0.5885147314	 0.095221
H	 2.5722606871	-2.240818051	-2.1672251327	 0.097047
H	 2.2182543388	-3.1583768728	-0.6921740934	 0.102812
H	 0.135260538	-2.1864480346	-2.5496374959	 0.068969
H	-0.1408523193	-2.6090141424	 0.4694462962	 0.079348
H	-1.4859181785	-2.3696802525	-0.6615156848	 0.08227
H	-0.9079088773	-4.8578955892	 0.9575656295	 0.100199
H	-2.2742996319	-4.6283294501	-0.1637768475	 0.100592
H	-1.1075397746	-5.9499559514	-0.4396399075	 0.124634
72.0833	90.732	103.7179	121.4837	128.279	199.4507	229.5501	241.7555	288.024	338.8743	390.1017	470.974	502.5389	672.4388	748.1935	795.2852	853.3818	893.0678	918.8383	942.5178	950.3125	978.9801	992.6053	1004.7907	1045.8789	1100.8961	1139.5533	1150.7754	1158.1121	1178.3079	1192.4751	1209.9066	1229.8213	1243.774	1259.0789	1262.3432	1276.7672	1295.2445	1307.9759	1344.738	1358.2728	1395.0329	1410.9401	1426.6338	1480.3396	1482.7687	1485.0223	1487.1417	1498.2532	1499.6279	1505.0178	1507.817	1527.4482	2940.7868	2964.9109	2969.1389	3005.0325	3012.8401	3019.1557	3029.7007	3044.5838	3048.4457	3057.4377	3067.2243	3095.5538	3096.8214	3101.8279	3109.0886	3117.2718
CCC1CCC1COC	CC[C@H]1CC[C@H]1COC	
InChI=1S/C8H16O/c1-3-7-4-5-8(7)6-9-2/h7-8H,3-6H2,1-2H3	InChI=1S/C8H16O/c1-3-7-4-5-8(7)6-9-2/h7-8H,3-6H2,1-2H3/t7-,8-/m0/s1
