20
gdb 123125	7.05007	0.46347	0.4397	3.759	73.28	-0.2646	0.0589	0.3235	2382.2952	0.169266	-477.463921	-477.452974	-477.45203	-477.501925	37.379	
N	-0.1804103885	 1.2997756473	-0.0988870943	-0.563376
C	 0.0573582061	-0.0464073638	-0.0370224416	 0.490645
O	 1.1498906671	-0.5630677721	-0.0309945951	-0.396487
O	-1.1182134932	-0.7207634248	-0.0195594677	-0.262668
C	-0.9992231584	-2.1526067609	-0.0111801327	-0.052393
C	-2.4054850845	-2.7299972449	-0.0032382479	-0.210577
C	-2.3947700969	-4.2611489807	 0.0076119691	-0.168471
C	-3.7961883703	-4.8575542662	 0.014154546	-0.074212
O	-3.6680135934	-6.2706187879	 0.0258511474	-0.420526
H	 0.6043373521	 1.8949172563	 0.1030435179	 0.267401
H	-1.0991044489	 1.6382581025	 0.1315608793	 0.26233
H	-0.4353846869	-2.473266189	-0.8934923617	 0.121493
H	-0.4294934192	-2.4632047936	 0.8711269509	 0.119687
H	-2.940751535	-2.348352574	 0.8751371651	 0.104334
H	-2.9451880369	-2.3604364292	-0.8839321251	 0.106357
H	-1.8595752912	-4.64488945	-0.8694352747	 0.110766
H	-1.8566876344	-4.6325366544	 0.8882385605	 0.11024
H	-4.3481321585	-4.4988112725	 0.8987517875	 0.084446
H	-4.3500339524	-4.5135584249	-0.8750248582	 0.085
H	-4.5499475667	-6.6534768871	 0.0273581355	 0.286013
30.534	53.3666	80.0691	101.3647	127.3498	183.6462	207.0161	261.3184	263.08	352.641	372.3784	469.6288	500.2502	541.403	672.9155	753.1302	784.1832	809.2192	924.255	940.9803	1008.3542	1052.3026	1067.0682	1089.8564	1111.6787	1122.8657	1181.8519	1222.7328	1233.5091	1284.0272	1296.5627	1312.4731	1318.5796	1345.7304	1381.2136	1432.6152	1464.8119	1491.8953	1501.0001	1522.1031	1530.429	1612.0468	1834.0304	2956.8223	2981.9659	3023.865	3032.5318	3045.4907	3053.4705	3075.2048	3095.3064	3613.6578	3742.9526	3831.478
NC(=O)OCCCCO	NC(=O)OCCCCO	
InChI=1S/C5H11NO3/c6-5(8)9-4-2-1-3-7/h7H,1-4H2,(H2,6,8)	InChI=1S/C5H11NO3/c6-5(8)9-4-2-1-3-7/h7H,1-4H2,(H2,6,8)
