23
gdb 109937	2.22449	1.34585	1.00475	1.1996	85.7	-0.2595	0.0728	0.3323	1295.4008	0.205056	-388.262266	-388.25255	-388.251606	-388.296845	37.148	
C	-0.377890979	 1.4465868266	-0.0023095597	-0.403805
C	 0.0043146095	-0.0300242331	 0.0012299835	 0.026662
C	 1.2376465555	-0.3813562285	-0.891370733	-0.321381
C	 2.0714929873	-0.5617250837	 0.3834777472	 0.364587
C	 3.3159837314	-1.3761831842	 0.5628053911	-0.328559
C	 3.3759029577	 0.1306319343	 0.6750715971	-0.323589
C	 0.8032093121	-0.5385901117	 1.253217848	-0.046616
C	 0.7997016897	 0.2835775471	 2.526352226	-0.105265
O	-0.5073626936	 0.2118877936	 3.0855503549	-0.422777
H	 0.4984428281	 2.0916694546	 0.1279764497	 0.110733
H	-0.8435092482	 1.7194626034	-0.9555521437	 0.106849
H	-1.0849345048	 1.6681323687	 0.8028205928	 0.12585
H	-0.8836800887	-0.6314802998	-0.2092993028	 0.068377
H	 1.1117995683	-1.3102175286	-1.456765624	 0.095338
H	 1.564581288	 0.4030590012	-1.5816545563	 0.09217
H	 3.4232360414	-1.9579868446	 1.4735674694	 0.107638
H	 3.7506725193	-1.8432024503	-0.3156944615	 0.10864
H	 3.844820788	 0.6872023568	-0.1307013174	 0.108171
H	 3.5349187916	 0.5607245918	 1.6589293697	 0.108326
H	 0.4873200437	-1.5561237811	 1.5107328828	 0.075623
H	 1.5512168678	-0.119983076	 3.226012809	 0.080779
H	 1.0829143622	 1.3247541541	 2.3126710518	 0.08715
H	-0.5250659774	 0.7565083694	 3.8779484652	 0.2851
50.313	104.7106	156.1169	226.9128	238.5905	269.3663	287.526	295.5531	332.3775	374.3624	463.5882	483.4134	592.846	763.4114	777.2792	798.4551	825.0547	890.4825	898.5129	932.617	940.1393	989.2712	1000.6516	1030.927	1053.675	1068.4914	1074.8336	1100.77	1115.2317	1141.0834	1183.8602	1188.2875	1220.5829	1237.2358	1251.0143	1259.0801	1280.4208	1294.7259	1354.4549	1367.1392	1382.3349	1406.2193	1458.1516	1464.5118	1485.7584	1495.5525	1502.576	1504.2451	1524.392	2956.0071	3000.5129	3027.2148	3036.2573	3037.9219	3062.7409	3085.0057	3093.1042	3107.9075	3116.2152	3120.9624	3192.8218	3208.1412	3827.1701
CC1CC2(CC2)C1CO	C[C@H]1CC2(CC2)[C@H]1CO	
InChI=1S/C8H14O/c1-6-4-8(2-3-8)7(6)5-9/h6-7,9H,2-5H2,1H3	InChI=1S/C8H14O/c1-6-4-8(2-3-8)7(6)5-9/h6-7,9H,2-5H2,1H3/t6-,7-/m0/s1
