18
gdb 41027	3.31537	1.84945	1.52507	0.7424	76.56	-0.2241	0.0369	0.261	906.9861	0.148379	-401.765948	-401.759311	-401.758366	-401.796496	28.14	
C	 0.0742119229	 1.4886880335	 0.3096314734	-0.205204
C	 1.5395807716	 1.5530161671	-0.227858793	-0.331283
C	 1.423704285	 0.106088294	-0.6870888783	 0.27017
C	-0.0907460199	 0.0228850151	-0.1099096215	-0.018511
O	 0.3624623753	-0.8943508035	 0.9632609408	-0.362677
C	 1.5819730696	-1.0519360635	 0.2157999599	 0.339775
C	 3.1277789594	-0.918915814	 0.0305910484	-0.250835
N	 2.531852378	-0.7566107066	-1.4139514986	-0.219651
C	 1.6276407383	-1.9373527246	-1.0414362813	-0.211943
H	-0.0458509937	 1.6393003369	 1.3834227286	 0.121932
H	-0.605424772	 2.1521866226	-0.2307816877	 0.110578
H	 1.6430807418	 2.2534579659	-1.0607081397	 0.117792
H	 2.3204660988	 1.7805704944	 0.5052238528	 0.103322
H	-1.0186142538	-0.32606228	-0.5646114867	 0.091074
H	 3.6188373953	-0.0217462468	 0.4064829848	 0.120446
H	 3.7639333918	-1.8036828917	 0.1179352829	 0.114167
H	 2.1556792754	-2.8914609575	-0.9893439312	 0.102075
H	 0.7266130863	-1.9973615011	-1.6548286733	 0.108772
163.914	261.7895	326.439	362.5033	452.178	472.5468	534.0474	582.1174	679.0363	728.3122	755.5881	796.3308	830.9583	864.1563	896.8559	912.9427	941.962	962.1145	986.5758	996.1038	1041.3177	1061.6576	1087.9062	1095.0839	1143.4357	1146.0641	1159.774	1175.3569	1189.8986	1216.861	1237.9166	1250.0532	1285.9563	1307.2121	1345.9053	1462.5776	1488.5343	1502.7625	1537.9038	3045.8371	3066.4485	3069.4284	3071.399	3094.3799	3109.3487	3135.6215	3140.6141	3155.
C1CC23C1OC21CN3C1	C1C[C@]23[C@H]1O[C@@]12CN3C1	
InChI=1S/C7H9NO/c1-2-7-5(1)9-6(7)3-8(7)4-6/h5H,1-4H2	InChI=1S/C7H9NO/c1-2-7-5(1)9-6(7)3-8(7)4-6/h5H,1-4H2/t5-,7-/m0/s1
