21
gdb 13820	4.07649	1.17652	1.07391	1.602	75.92	-0.2171	0.0717	0.2888	1215.0337	0.187196	-366.231761	-366.2223	-366.221356	-366.26588	34.876	
C	-0.2227526832	 1.6093527166	 0.2894368216	-0.374798
C	 0.2162468355	 0.2124916786	-0.1424560762	-0.129237
N	 0.8080009593	-0.4978568287	 0.9942900005	-0.092374
C	-0.0811226379	-1.2804389218	 1.8457604192	-0.263618
C	 0.9162752555	-1.9547440651	 0.9625543258	-0.000293
C	 0.4983186573	-2.8195684554	-0.2283448471	 0.095891
C	 0.8993282013	-4.2796824088	 0.0001766314	-0.409404
O	-0.8840833472	-2.7167204382	-0.5608973061	-0.415527
H	 0.6174959991	 2.1635681984	 0.7174550937	 0.12209
H	-0.6154486643	 2.1714550283	-0.5636509094	 0.108762
H	-1.0111207535	 1.5544263244	 1.0477961755	 0.113868
H	-0.627558007	-0.3316779756	-0.5880536038	 0.115746
H	 0.9929321818	 0.2937110555	-0.9133248188	 0.096022
H	 0.0856936325	-1.2067766821	 2.9177409335	 0.109268
H	-1.1270333838	-1.3453588424	 1.5500438643	 0.102315
H	 1.8371414009	-2.3101459156	 1.4253609937	 0.085796
H	 1.0136524041	-2.4508518114	-1.1244077496	 0.098992
H	 1.9828928267	-4.3822025156	 0.1141514432	 0.122079
H	 0.4300495635	-4.6727446985	 0.9107437851	 0.112352
H	 0.5781981788	-4.8918536571	-0.8463673888	 0.125158
H	-1.3844391895	-3.1203939253	 0.1573821025	 0.276912
61.3552	89.4118	143.1366	217.2891	237.9889	272.9985	278.6081	315.4729	334.2642	397.7304	437.6749	572.9369	603.9069	728.6738	783.1016	816.1884	895.5623	925.3381	963.723	985.112	1038.7682	1056.9413	1080.7479	1096.6317	1113.7687	1121.8018	1140.1427	1191.459	1203.7914	1292.8847	1314.646	1339.4421	1342.4935	1389.3781	1394.4708	1405.8549	1410.394	1429.2979	1488.6265	1491.6499	1493.2018	1494.7227	1501.2179	1521.3849	3009.8141	3025.7938	3034.0692	3036.3139	3048.3811	3090.2046	3094.9037	3101.5127	3104.3241	3116.8608	3123.6211	3172.9479	3796.4389
CCN1CC1C(C)O	CCN1C[C@H]1[C@@H](C)O	
InChI=1S/C6H13NO/c1-3-7-4-6(7)5(2)8/h5-6,8H,3-4H2,1-2H3	InChI=1S/C6H13NO/c1-3-7-4-6(7)5(2)8/h5-6,8H,3-4H2,1-2H3/t5-,6+,7?/m1/s1
