17
gdb 23364	2.68984	1.29092	0.93415	6.869	79.81	-0.1808	-0.049	0.1318	1228.9012	0.136242	-451.249106	-451.240078	-451.239134	-451.282846	34.001	
N	 0.1989357429	 1.2721363828	 0.1342749424	-0.53172
C	 0.164094063	-0.0890314659	 0.0688213182	 0.370789
N	 1.340856474	-0.6914508118	-0.2419533897	-0.564257
H	 1.4021409251	-1.6933374266	-0.201026909	 0.279778
H	 2.1960622403	-0.1907042916	-0.0634889166	 0.267851
C	-1.0262311338	-0.7901486009	 0.3238889423	 0.255104
N	-2.1020790498	 0.0493597125	 0.3888299398	-0.099264
O	-3.2233453515	-0.4474622363	 0.615374963	-0.381625
C	-1.0719911994	-2.2706399383	 0.4721245464	-0.100307
C	-1.9712656566	-2.9716930361	 1.4340188071	-0.244041
N	-2.2075052959	-3.0835071972	-0.0137852126	-0.329085
H	 0.8197830404	 1.7426472239	-0.5079754601	 0.255508
H	-0.7355080863	 1.662056873	 0.2155863916	 0.275186
H	-0.1230354227	-2.7715403514	 0.282824194	 0.052254
H	-1.6140618001	-3.8774380841	 1.9171807616	 0.105855
H	-2.6602990087	-2.3662236652	 2.0105100283	 0.136212
H	-2.965686541	-2.4382360668	-0.2302952066	 0.251762
69.1728	96.7165	214.3894	225.4632	273.0214	315.4535	352.4761	378.4872	415.1526	463.5811	475.4948	484.4265	543.5166	628.2817	692.5617	759.0903	780.9695	839.1376	899.937	970.0459	1009.6746	1046.2969	1094.3803	1118.3096	1124.1276	1180.3891	1206.2976	1297.0305	1321.5865	1337.0432	1424.5855	1467.5455	1489.1619	1510.8325	1586.0966	1640.26	1676.496	3086.7585	3117.143	3223.2113	3492.1415	3495.4159	3611.3125	3641.1311	3728.9133
NC(=[NH2+])C(=N[O-])C1CN1	NC(=[NH2])C(=N[O])[C@H]1CN1	
InChI=1S/C4H8N4O/c5-4(6)3(8-9)2-1-7-2/h2,7,9H,1H2,(H3,5,6)	InChI=1S/C4H8N4O/c5-4(6)3(8-9)2-1-7-2/h2,7H,1,5-6H2/t2-/m1/s1
