16
gdb 48578	3.28649	1.41023	1.16206	3.69	71.52	-0.2651	-0.0448	0.2203	1049.0067	0.124864	-437.879764	-437.872486	-437.871542	-437.911734	28.099	
N	-0.0484943433	 1.2108061605	-0.0234151332	-0.571935
C	-0.0572794905	-0.0452202061	-0.0081408256	 0.459667
O	 1.0429250499	-0.8884473918	-0.0299808659	-0.280805
C	 0.4161946431	-2.1920882808	 0.0038293747	 0.33001
C	-0.7364685797	-2.0399011513	-1.0347441553	-0.278255
C	-1.2225218356	-1.0040741386	 0.0370835862	-0.13775
C	-0.6744875842	-2.0143590017	 1.1033683776	-0.278309
C	 1.3918401636	-3.3258714466	-0.0113689631	 0.069441
O	 2.5874847234	-3.2162847437	-0.0491916602	-0.234579
H	 0.9085801245	 1.5674894994	-0.0554441679	 0.231472
H	-0.4545332682	-1.6741731696	-2.0235887792	 0.131607
H	-1.3810431255	-2.9174928741	-1.1001797002	 0.119719
H	-2.2198684437	-0.5757829941	 0.0608700411	 0.108077
H	-1.3135876685	-2.889699176	 1.2269102278	 0.119712
H	-0.3361450347	-1.6253174086	 2.0652602194	 0.131576
H	 0.8891252997	-4.319969737	 0.016482834	 0.080353
89.6413	167.7819	173.6002	288.026	418.9961	460.0875	482.9381	508.8813	603.9927	713.0666	769.133	802.3798	836.7275	855.7262	890.1701	898.2848	944.2436	990.5938	991.6087	1016.8076	1045.2573	1081.2744	1094.394	1146.0788	1161.3908	1223.7852	1226.4561	1265.9538	1287.3943	1324.1195	1428.4776	1473.9986	1509.1403	1818.4326	1838.9915	2870.6444	3078.0289	3083.2898	3149.4348	3153.8017	3174.3514	3471.3979
N=C1OC2(CC1C2)C=O	[NH][C]1O[C@@]2(C[C@H]1C2)C=O	
InChI=1S/C6H7NO2/c7-5-4-1-6(2-4,3-8)9-5/h3-4,7H,1-2H2	InChI=1S/C6H7NO2/c7-5-4-1-6(2-4,3-8)9-5/h3-4,7H,1-2H2/t4-,6+
