18
gdb 110400	4.25691	1.0681	0.98198	1.768	71.91	-0.2493	0.0595	0.3088	1217.9014	0.148089	-438.971206	-438.963459	-438.962514	-439.003622	30.36	
O	-0.0240617648	 1.4540665452	 0.1831668743	-0.42039
C	 0.0906773151	 0.0726583902	-0.1125515804	-0.0883
C	-1.2762652432	-0.582536175	-0.0995107332	 0.031598
C	-1.4832698374	-2.0836577963	 0.1184893395	-0.104933
C	-1.2004141107	-1.9090553147	 1.6403625769	-0.070805
C	-2.5247924726	-2.5608794495	 2.0634945424	 0.160041
O	-3.1099445761	-2.1796029901	 3.2719159401	-0.446986
C	-2.8484263323	-1.760484524	 0.7954723201	-0.05678
N	-1.9478919567	-0.5814409334	 1.2785968543	-0.220954
H	-0.5701412181	 1.5184572521	 0.9760557747	 0.293624
H	 0.5377820237	-0.0008669161	-1.1101452949	 0.110095
H	 0.7722113274	-0.4340177239	 0.5891281078	 0.085698
H	-1.9204251997	-0.10886319	-0.8507317088	 0.082941
H	-1.2368012093	-2.939102244	-0.5176044648	 0.074081
H	-0.2412265965	-1.8880935449	 2.1580250538	 0.093282
H	-2.5835392221	-3.649348865	 1.9860863883	 0.092467
H	-3.0552226938	-1.215909857	 3.3143133895	 0.29492
H	-3.8017871728	-1.5509776736	 0.3067232402	 0.090401
80.5172	157.6795	202.927	230.7718	363.3332	409.1609	432.0326	477.688	544.5187	594.0544	715.573	743.7125	824.5704	842.4719	864.3093	906.1712	915.6709	942.009	1016.9316	1036.5803	1071.9843	1085.9824	1101.6254	1102.6722	1128.9431	1137.7596	1169.834	1176.0117	1210.9928	1212.4303	1250.5272	1265.0938	1295.1929	1319.8733	1349.0733	1406.7191	1442.7598	1452.256	1508.1651	2979.6932	3036.7297	3059.9816	3068.5296	3089.8875	3104.5966	3118.1486	3771.5256	3786.0672
OCC1C2C3C(O)C2N13	OC[C@H]1[C@H]2[C@@H]3[C@@H](O)[C@H]2N13	
InChI=1S/C6H9NO2/c8-1-2-3-4-6(9)5(3)7(2)4/h2-6,8-9H,1H2	InChI=1S/C6H9NO2/c8-1-2-3-4-6(9)5(3)7(2)4/h2-6,8-9H,1H2/t2-,3-,4+,5-,6+/m0/s1
