16
gdb 112405	2.26875	1.50515	0.95168	1.3015	69.64	-0.2541	-0.001	0.2531	1182.5085	0.125639	-471.234087	-471.225764	-471.22482	-471.267564	30.796	
O	 0.0603285882	 1.3952410922	-0.0733418395	-0.417034
C	 0.0531528155	-0.0080132806	 0.0590006398	-0.063785
C	-1.3691511105	-0.5621494998	 0.0671587158	 0.004079
O	-2.0125034331	-0.2426814423	-1.1894430765	-0.268746
C	-2.4174263006	-1.3835840298	-1.8176173018	 0.469357
N	-3.0038482276	-1.4861711815	-2.9284152899	-0.579772
N	-2.0691680531	-2.4571991037	-1.0093352861	-0.37824
C	-1.4312623985	-2.0766492775	 0.154091397	 0.385082
N	-0.9544934295	-2.7451043897	 1.1201385025	-0.548501
H	-0.3763408743	 1.604771378	-0.9065629351	 0.293832
H	 0.6263484541	-0.5030151226	-0.7404068559	 0.097691
H	 0.5240801616	-0.2546417062	 1.0140419312	 0.144825
H	-1.944698801	-0.0912244004	 0.8700162672	 0.133434
H	-3.1599170797	-0.5693625055	-3.3407094674	 0.232803
H	-2.2729582364	-3.402225548	-1.2896452142	 0.276784
H	-1.079033985	-3.7503908725	 0.9966781429	 0.218192
74.9094	118.2416	127.905	176.1233	310.177	380.4769	417.1333	429.7717	490.238	568.1833	625.2676	648.0031	701.8857	716.1738	803.8243	857.4164	859.3916	967.3571	979.5903	1043.1757	1079.2979	1088.0756	1101.862	1120.2476	1220.5286	1254.4046	1305.295	1357.505	1362.4244	1394.3918	1413.416	1427.384	1493.4527	1773.8875	1807.7359	2988.9201	3073.6921	3109.3207	3474.1431	3534.1767	3667.3256	3806.4676
OCC1OC(=N)NC1=N	OC[C@H]1O[C]([NH])N[C]1[NH]	
InChI=1S/C4H7N3O2/c5-3-2(1-8)9-4(6)7-3/h2,8H,1H2,(H3,5,6,7)	InChI=1S/C4H7N3O2/c5-3-2(1-8)9-4(6)7-3/h2,8H,1H2,(H3,5,6,7)/t2-/m1/s1
