21
gdb 7541	3.69351	1.26575	1.11414	2.0071	75.37	-0.2279	0.0689	0.2968	1167.7861	0.187301	-366.241547	-366.231842	-366.230898	-366.275808	35.435	
C	 0.0260650035	 1.1332912012	-0.4620191568	-0.402145
C	-0.0484274855	-0.209781199	 0.2258875452	-0.035126
N	 1.1676947	-1.0381968416	 0.2338839733	-0.375734
C	 0.6180624828	-0.5557499552	 1.5179571267	 0.335856
C	 1.4820167801	 0.4485285902	 2.2570728007	-0.450868
C	-0.0837523793	-1.5670098616	 2.421269356	-0.27549
C	 0.8016286508	-2.7257933295	 2.8800929338	-0.066386
O	 0.9737208843	-3.6068868267	 1.7716881062	-0.413865
H	 0.9946585589	 1.6123404914	-0.3063108617	 0.123374
H	-0.1117280116	 1.0133040842	-1.54235601	 0.117867
H	-0.7583873192	 1.8061134836	-0.0973351539	 0.109579
H	-0.9906344804	-0.7314058559	 0.052163539	 0.072071
H	 0.9509539222	-2.0252911265	 0.1253583939	 0.237682
H	 2.0524383601	 1.067163161	 1.5630060179	 0.127938
H	 0.8716189401	 1.1028309082	 2.8905592498	 0.109039
H	 2.204697353	-0.0600078501	 2.9059550773	 0.11083
H	-0.4745785862	-1.0521209711	 3.3076543157	 0.097076
H	-0.9454856519	-2.0065402332	 1.9053586155	 0.106308
H	 1.7714527092	-2.3529694263	 3.2404328506	 0.094886
H	 0.3187745268	-3.2523677774	 3.7178172514	 0.087271
H	 1.6926050721	-4.2133854057	 1.9702105794	 0.289838
55.9055	142.2465	160.1522	166.0457	182.8804	242.5423	263.5484	273.9938	362.9467	395.6467	435.6579	478.7959	550.8164	683.8126	781.8344	861.3054	875.6715	930.99	972.9544	989.715	1022.744	1033.2793	1079.1327	1091.9379	1098.3894	1126.9019	1155.6494	1195.6986	1251.0724	1266.0321	1286.0187	1298.9527	1372.2104	1383.5526	1410.1155	1420.6822	1446.3905	1459.862	1469.0521	1481.9656	1488.1596	1501.1139	1511.929	1519.0753	2976.8203	3010.1936	3027.4148	3031.4508	3033.5811	3071.5559	3081.725	3089.5867	3091.4554	3130.2827	3140.3993	3516.1216	3837.4505
CC1NC1(C)CCO	C[C@H]1N[C@]1(C)CCO	
InChI=1S/C6H13NO/c1-5-6(2,7-5)3-4-8/h5,7-8H,3-4H2,1-2H3	InChI=1S/C6H13NO/c1-5-6(2,7-5)3-4-8/h5,7-8H,3-4H2,1-2H3/t5-,6-/m1/s1
