18
gdb 115423	4.46188	0.92783	0.86463	3.7833	73.08	-0.2772	0.0295	0.3067	1352.1861	0.148134	-439.103254	-439.094354	-439.09341	-439.137701	31.51	
C	-0.9158156575	 0.8720213602	-0.0264890572	-0.246179
O	-0.2585415067	-0.3661236277	-0.2407271487	-0.248473
C	 0.9492208854	-0.2498905307	-0.9430033198	 0.213129
C	 1.5307387049	-1.6516211615	-1.0926093127	-0.254702
C	 0.7208632032	-2.1661921779	-2.3053286737	-0.177701
C	 0.5477212405	-0.8741604744	-3.1539243563	-0.084688
O	 0.7626844246	 0.2208267079	-2.2638439643	-0.260577
C	 1.3518175928	-3.2563156305	-3.0363016459	 0.261929
N	 1.8550631492	-4.1161868238	-3.6223435124	-0.321218
H	-0.2872818748	 1.5583584974	 0.5602225893	 0.110478
H	-1.1753486865	 1.3572785673	-0.9740889937	 0.128849
H	-1.8266597975	 0.6561216289	 0.5351968537	 0.130986
H	 1.6116203966	 0.4734608649	-0.4479420012	 0.083563
H	 2.5942923864	-1.592518726	-1.3351146042	 0.131591
H	 1.3939888148	-2.2584473892	-0.1980896889	 0.136773
H	-0.2575209999	-2.5039176331	-1.9528154128	 0.144728
H	 1.2882792805	-0.8220074781	-3.958880576	 0.12801
H	-0.4523053359	-0.8167215037	-3.5945161052	 0.123501
60.7314	83.3868	125.8985	163.8334	194.15	241.936	294.1134	399.6421	511.2147	532.9783	558.7225	598.9212	776.7831	859.6185	873.1254	932.8914	958.5538	999.1076	1039.8382	1072.1426	1080.6489	1095.6482	1139.5612	1179.1517	1183.2479	1219.8117	1246.3701	1290.9219	1310.6939	1336.3275	1357.2252	1391.7114	1402.636	1477.5998	1482.1107	1484.9483	1513.2262	1526.3982	2359.9156	2996.1554	3020.8991	3043.6984	3070.0811	3073.1306	3086.2995	3093.456	3130.9297	3152.7375
COC1CC(CO1)C#N	CO[C@H]1C[C@@H](CO1)C#N	
InChI=1S/C6H9NO2/c1-8-6-2-5(3-7)4-9-6/h5-6H,2,4H2,1H3	InChI=1S/C6H9NO2/c1-8-6-2-5(3-7)4-9-6/h5-6H,2,4H2,1H3/t5-,6-/m1/s1
