22
gdb 81804	2.01292	1.78675	1.30983	1.4448	86.24	-0.2209	0.0859	0.3068	1122.3457	0.193308	-367.165126	-367.156091	-367.155147	-367.198154	35.625	
C	 0.0822123738	 1.5346793389	-0.0364275955	-0.397069
C	 0.0405615773	 0.0193319055	 0.0170685382	-0.02041
N	 1.0703542832	-0.5874732275	-0.9134370864	-0.178345
C	 0.9395487206	-2.0514253849	-0.7555844538	-0.288541
C	 1.686080256	-1.3061537701	 0.2814262298	 0.272053
C	 3.1670012775	-1.4183870996	 0.4923327463	-0.496595
C	 0.7012629838	-0.656209493	 1.231348425	 0.319814
C	 1.0144639616	-0.0317853668	 2.5571614862	-0.335891
C	 0.0876696312	-1.224767964	 2.4774250046	-0.335376
H	 1.0905745256	 1.9040161858	 0.1719320248	 0.120894
H	-0.2104027313	 1.8845062474	-1.0311851998	 0.12235
H	-0.6049532302	 1.9716110615	 0.6962690562	 0.108677
H	-0.9712826281	-0.3405633876	-0.2117884329	 0.068828
H	-0.0389229765	-2.4719479219	-0.5301622208	 0.106318
H	 1.5140492341	-2.6085054462	-1.4904297155	 0.112791
H	 3.6689745828	-1.6671194515	-0.4470804176	 0.12919
H	 3.5875326262	-0.4782505661	 0.8644613437	 0.123479
H	 3.402912366	-2.2058677278	 1.2183960088	 0.118405
H	 2.0052720649	-0.1844033113	 2.9736279424	 0.11333
H	 0.5862940768	 0.9392084373	 2.7841438394	 0.11448
H	-0.9721064985	-1.0578383625	 2.6435732966	 0.111171
H	 0.4497653732	-2.1817189058	 2.8402497702	 0.110448
108.382	174.4432	207.6748	213.6213	224.5365	233.36	298.3195	375.0111	404.9096	498.3455	516.1028	559.5545	641.4358	735.9108	771.6117	805.4964	839.444	885.0705	917.839	938.8267	961.4933	986.5262	1021.6044	1049.1047	1052.1271	1075.7921	1079.4041	1094.3802	1114.6532	1134.8902	1171.5904	1189.6355	1195.6975	1263.5061	1296.1173	1354.3743	1368.0447	1402.6606	1407.7966	1419.4745	1463.7834	1481.222	1485.8081	1491.2143	1494.79	1502.3519	1508.4502	3012.091	3026.5743	3034.8289	3088.0802	3095.0437	3104.1879	3111.9369	3116.2161	3120.9715	3127.3096	3186.431	3198.569	3213.6785
CC1N2CC2(C)C11CC1	C[C@H]1N2C[C@]2(C)C21CC2	
InChI=1S/C8H13N/c1-6-8(3-4-8)7(2)5-9(6)7/h6H,3-5H2,1-2H3	InChI=1S/C8H13N/c1-6-8(3-4-8)7(2)5-9(6)7/h6H,3-5H2,1-2H3/t6-,7-,9?/m1/s1
