19
gdb 96896	2.68479	1.31545	1.05777	1.3878	80.31	-0.2337	0.0268	0.2605	1223.7635	0.15783	-419.178906	-419.169318	-419.168374	-419.213171	35.161	
C	 0.0103266008	 1.4164615052	-0.1351651956	-0.339446
N	-0.0989822298	-0.0359945871	-0.1441159268	-0.354817
C	 0.5688015408	-0.6922136471	-0.9724360879	 0.424059
O	 1.4356205755	-0.2636118397	-1.9891907453	-0.323334
C	 1.500094942	-1.6230823728	-2.5204780654	 0.431713
C	 1.4281693528	-1.797942086	-3.997053063	-0.489363
C	 2.1520139196	-2.4837167009	-1.4942913761	-0.364353
C	 0.6642441826	-2.138466176	-1.3525950581	 0.090307
N	-0.3180053958	-3.1563040196	-1.28775726	-0.597681
H	 0.5908186787	 1.8243256013	-0.9708034027	 0.127841
H	-0.9949599697	 1.8506641147	-0.1555223976	 0.123432
H	 0.4768929143	 1.7368675851	 0.803392781	 0.127348
H	 2.3467119497	-1.450525153	-4.4823590497	 0.135086
H	 1.294386697	-2.8566805204	-4.2360089137	 0.139471
H	 0.586313337	-1.2365144099	-4.4133535211	 0.133313
H	 2.309968676	-3.5181072699	-1.7848563802	 0.128611
H	 2.8876437007	-2.0656059706	-0.8142418416	 0.122574
H	-0.3153200557	-3.6045121805	-0.3764758098	 0.242718
H	-1.2454819564	-2.7667242127	-1.4253177166	 0.242522
92.086	102.3297	160.2183	167.8963	186.4691	232.9171	270.0142	304.4156	358.0252	424.5266	478.4696	567.3847	601.1161	678.263	736.7034	763.1247	800.8573	868.8034	899.5872	958.3685	974.9937	1013.2956	1036.9473	1081.2263	1109.642	1128.6391	1132.9013	1182.9538	1218.9784	1276.9765	1357.8252	1410.1387	1427.9156	1439.4096	1473.4851	1491.5116	1493.1814	1498.2008	1515.4348	1666.0879	1847.5576	3017.0982	3036.6318	3080.9119	3088.8182	3101.3112	3120.6076	3122.496	3216.6137	3496.3451	3569.5566
CN=C1OC2(C)CC12N	CN=C1O[C@@]2(C)C[C@@]12N	
InChI=1S/C6H10N2O/c1-5-3-6(5,7)4(8-2)9-5/h3,7H2,1-2H3	InChI=1S/C6H10N2O/c1-5-3-6(5,7)4(8-2)9-5/h3,7H2,1-2H3/t5-,6+/m0/s1
