18
gdb 79718	2.52559	1.80809	1.4655	3.5556	74.6	-0.2379	-0.0037	0.2343	968.5625	0.148341	-401.910279	-401.902662	-401.901718	-401.942222	29.683	
C	-0.4313674077	 1.5648080573	 0.1756284585	-0.413335
C	-0.0566564887	 0.0974840635	 0.0230345411	-0.14218
C	 0.6299919153	-0.4661396538	-1.2542994044	-0.004925
C	 1.7365930899	 0.2537056044	-2.05184605	-0.082066
C	 2.7595969907	 0.9580238569	-1.1873042667	-0.298811
C	 2.768436483	-0.5364883779	-1.2371531023	-0.015837
N	 1.6782142417	-1.1257827398	-0.4086087368	-0.149273
C	 1.2208340875	-0.411738523	 0.7456467285	 0.364045
O	 1.7263741773	-0.2285716156	 1.8135053433	-0.319893
H	 0.3649237305	 2.2291124644	-0.1685657828	 0.130173
H	-1.3327094289	 1.7961451118	-0.4002380061	 0.122809
H	-0.6316286802	 1.7930584174	 1.2267424718	 0.140096
H	-0.9131425207	-0.5343838097	 0.2860123982	 0.111124
H	 0.037881732	-1.1462167313	-1.8709156901	 0.087905
H	 1.7037351706	 0.410887987	-3.1222626104	 0.099506
H	 3.5512259424	 1.429624516	-1.76177781	 0.122003
H	 2.5092975916	 1.4855565276	-0.2735100762	 0.138
H	 3.6137621037	-1.1385415352	-1.5443362857	 0.110657
131.3226	161.6806	179.8134	211.1633	268.0131	385.0936	516.6085	551.7522	637.2689	652.8333	748.3695	768.9371	802.3382	811.5876	891.3187	909.2117	962.3336	967.0206	1015.7205	1023.5403	1041.9864	1061.6301	1076.6719	1091.9037	1098.3542	1137.2787	1163.3973	1191.8854	1211.6198	1233.4903	1274.0462	1321.9876	1338.7588	1354.7901	1409.5658	1487.9846	1492.9174	1502.8024	1885.6451	3043.2599	3046.2814	3082.2116	3111.3589	3124.9595	3131.2577	3190.4811	3198.7396	3213.1502
CC1C2C3CC3N2C1=O	C[C@H]1[C@H]2[C@H]3C[C@H]3N2C1=O	
InChI=1S/C7H9NO/c1-3-6-4-2-5(4)8(6)7(3)9/h3-6H,2H2,1H3	InChI=1S/C7H9NO/c1-3-6-4-2-5(4)8(6)7(3)9/h3-6H,2H2,1H3/t3-,4-,5+,6-/m0/s1
