16
gdb 53747	5.18941	0.63569	0.59444	5.5635	77.34	-0.2498	-0.0386	0.2112	1811.1896	0.124339	-437.857734	-437.848897	-437.847952	-437.893434	30.87	
O	-0.2451820966	-0.0973367599	-0.4257440657	-0.295617
C	-0.1979815556	 1.094174646	-0.2943723713	 0.335206
O	 0.9854762309	 1.7564902751	-0.3144257017	-0.35837
C	-1.3503498799	 1.949909122	-0.1048128088	-0.02716
C	-2.311274792	 2.6619208624	 0.0571734108	 0.113229
C	-3.4805411018	 3.4990193791	 0.2599493024	-0.181456
C	-4.2277079242	 3.4249949681	 1.6289520872	-0.228173
C	-4.30840258	 4.9669762004	 1.5380875672	-0.160807
N	-3.2195270957	 4.9375400144	 0.5298318702	-0.299504
H	 0.824820467	 2.7002273788	-0.1844849306	 0.31179
H	-3.341063208	 5.5488254257	-0.2708024309	 0.223322
H	-4.1852684231	 3.3258244223	-0.5676841672	 0.103032
H	-5.1597386256	 2.8614679695	 1.6430429944	 0.120318
H	-3.5726174726	 3.0803271168	 2.4293098226	 0.131878
H	-5.2777130954	 5.3079216965	 1.1487982925	 0.098543
H	-4.0694035274	 5.5399858328	 2.4385293488	 0.113769
25.6242	68.1014	81.5715	156.2909	203.2708	266.1061	382.8352	500.1177	517.3217	582.1546	607.4882	632.2384	758.9104	766.0082	778.9007	863.671	935.0183	963.7723	1006.7687	1025.5576	1086.9031	1105.6756	1137.0621	1200.6574	1205.7846	1244.6647	1260.0692	1317.5955	1321.9664	1359.5325	1390.2971	1485.8159	1525.3158	1847.0896	2335.3862	2981.1117	3005.5081	3077.5993	3098.5838	3159.7968	3523.2132	3786.9652
[O-]C(=O)C#CC1CC[NH2+]1	O=C(O)C#C[C@H]1CCN1	
InChI=1S/C6H7NO2/c8-6(9)2-1-5-3-4-7-5/h5,7H,3-4H2,(H,8,9)	InChI=1S/C6H7NO2/c8-6(9)2-1-5-3-4-7-5/h5,7H,3-4H2,(H,8,9)/t5-/m0/s1
