19
gdb 99041	4.10465	0.72696	0.67418	2.2296	78.5	-0.2624	-0.0317	0.2307	1670.6041	0.15517	-423.011996	-423.001509	-423.000565	-423.048511	37.282	
C	-0.1227971236	 1.6518968042	 0.1341425396	-0.396423
C	-0.0125486796	 0.1165136151	 0.041058755	-0.159883
C	 0.8054407857	-0.4733409318	 1.2104053917	-0.308249
C	 2.2828015381	-0.1419215509	 1.1512224885	 0.352526
O	 2.8386633269	 0.2399008552	 0.1416799196	-0.323177
C	 3.1034545181	-0.3229663764	 2.4215899492	-0.127578
O	 4.4604053935	-0.096084948	 2.1920017505	-0.418668
C	-1.3338491373	-0.5055268271	-0.0127413447	 0.304415
C	-2.4244795162	-1.0109006806	-0.0337260176	-0.443615
H	 0.8719282249	 2.1034782088	 0.1175231052	 0.134376
H	-0.6943932085	 2.0456940435	-0.709545898	 0.13208
H	-0.6342446036	 1.9479914898	 1.0554543102	 0.121924
H	 0.5288974697	-0.126527066	-0.8810772628	 0.130609
H	 0.3927444611	-0.1573066492	 2.1761019937	 0.128733
H	 0.7294305098	-1.5690085864	 1.2017854958	 0.148437
H	 2.696645633	 0.3708751942	 3.1785600515	 0.116198
H	 2.9290568521	-1.3378963835	 2.8140980132	 0.11758
H	 4.5141108448	 0.1930707495	 1.266864396	 0.29491
H	-3.3866451788	-1.4586524103	-0.0700932366	 0.195806
35.9939	61.254	100.4772	131.2019	182.6224	223.088	261.6803	297.5299	347.0913	378.8089	400.919	483.356	520.1499	541.2142	629.965	643.3698	700.3486	793.5176	827.2231	892.5124	941.3093	974.6569	1036.8664	1100.6741	1104.3596	1138.4017	1149.632	1224.6915	1263.6944	1288.2657	1315.663	1341.2734	1379.6525	1406.6363	1445.4152	1451.4782	1490.6337	1496.0562	1502.7036	1789.9509	2236.3045	2959.0241	2991.0694	3029.7058	3039.883	3047.4724	3069.7211	3120.5711	3133.9804	3504.6032	3685.1591
CC(CC(=O)CO)C#C	C[C@@H](CC(=O)CO)C#C	
InChI=1S/C7H10O2/c1-3-6(2)4-7(9)5-8/h1,6,8H,4-5H2,2H3	InChI=1S/C7H10O2/c1-3-6(2)4-7(9)5-8/h1,6,8H,4-5H2,2H3/t6-/m1/s1
