20
gdb 74754	2.80977	1.50966	1.31106	0.6925	80.44	-0.204	0.0173	0.2213	1079.4263	0.170368	-403.10688	-403.098138	-403.097194	-403.13954	34.432	
C	 0.0520446282	 1.4492379667	 0.0458311661	-0.51715
C	-0.0415694056	-0.0340034837	-0.0195365597	 0.349571
C	-0.0732230481	-0.8908869403	-1.0480386139	-0.198352
C	-0.0390149164	-2.2568502551	-0.3530366074	-0.130174
N	-0.9814426127	-2.0785990664	 0.8072132804	-0.309819
C	-0.0106495307	-0.9971936479	 1.1900128765	-0.160684
C	 1.1049963498	-2.0091746589	 0.733664044	 0.477236
C	 1.3922998386	-3.1736020394	 1.6702009048	-0.48016
O	 2.2984470289	-1.398120237	 0.320326758	-0.476723
H	 1.0052608778	 1.7569241786	 0.4948297718	 0.137593
H	-0.0109710811	 1.8988331959	-0.9492580475	 0.124606
H	-0.7420169554	 1.882045343	 0.6678263144	 0.12103
H	-0.0337731204	-0.6956091322	-2.1104995498	 0.095584
H	-0.1189409272	-3.1728492088	-0.9407561744	 0.056435
H	-1.8603810094	-1.6702724899	 0.4881186776	 0.200266
H	-0.0613882674	-0.58887353	 2.2016073522	 0.057627
H	 0.4696773358	-3.6343530819	 2.0200006931	 0.152167
H	 1.985600906	-3.9384151051	 1.1508289099	 0.103891
H	 1.9735335383	-2.8276478129	 2.5320955684	 0.118185
H	 2.9864224009	-2.0697982449	 0.2981786255	 0.27887
132.7018	171.7877	178.727	223.2379	238.7345	306.8351	312.9683	391.7488	409.7294	537.9521	560.8694	591.3058	643.4924	668.1329	786.0081	817.1378	827.8592	862.4523	905.9522	943.8774	965.9404	1003.9472	1032.611	1057.616	1071.2676	1103.8931	1122.3124	1154.4266	1182.0354	1213.14	1236.3938	1266.8179	1276.3879	1285.8513	1323.2942	1389.4912	1397.268	1410.1507	1477.9246	1484.8255	1487.064	1504.9474	1682.6635	3013.8148	3016.6198	3059.8381	3080.0201	3096.0828	3104.1302	3105.6168	3160.9683	3228.5947	3448.5207	3826.7318
CC1=CC2NC1C2(C)O	CC1=C[C@@H]2N[C@H]1[C@]2(C)O	
InChI=1S/C7H11NO/c1-4-3-5-7(2,9)6(4)8-5/h3,5-6,8-9H,1-2H3	InChI=1S/C7H11NO/c1-4-3-5-7(2,9)6(4)8-5/h3,5-6,8-9H,1-2H3/t5-,6+,7+/m0/s1
