18
gdb 86715	3.29411	1.23365	1.04612	4.016	72.42	-0.2389	-0.0228	0.2161	1171.9512	0.14708	-439.071354	-439.062972	-439.062028	-439.104895	31.054	
C	 0.2495636954	 1.6141463056	 0.173592943	-0.402997
C	 0.0437123425	 0.1084073642	 0.1418163109	 0.143665
O	 0.5676950602	-0.394832549	-1.0976928584	-0.291552
C	 1.1040733833	-1.697276629	-0.9334115527	 0.040577
C	 2.3395283816	-1.8269935494	-1.8151454269	 0.151954
O	 2.7476146854	-2.8793443877	-2.2309995271	-0.251828
C	 1.437189413	-1.818525626	 0.548213939	-0.082598
N	 2.2342549239	-0.6686035576	 1.028824714	-0.334499
C	 0.7708189146	-0.6818898816	 1.2162540043	-0.067681
H	 1.3180451224	 1.8411817003	 0.1851292564	 0.141413
H	-0.2020466855	 2.0761539155	-0.7081697719	 0.128248
H	-0.2181034601	 2.045311455	 1.0645625918	 0.111048
H	-1.0304256031	-0.1298719499	 0.2097127058	 0.073572
H	 0.386886651	-2.4835730443	-1.2130192342	 0.093591
H	 2.8435293532	-0.8592180015	-2.0174706367	 0.099948
H	 1.5545780895	-2.798084117	 0.9962439423	 0.109247
H	 2.6905317706	-0.9224354633	 1.9014696819	 0.238753
H	 0.347446032	-0.7611372444	 2.2118187685	 0.099137
62.7738	88.6011	177.7587	219.4214	230.9516	311.7302	368.4983	438.1409	494.6453	547.9393	656.6207	769.108	805.2073	838.4092	870.8959	890.931	911.3708	934.0557	1024.815	1037.9615	1066.3024	1091.3952	1097.725	1112.885	1135.4427	1156.8569	1172.7676	1250.3036	1296.6135	1303.7201	1341.2196	1356.3173	1384.7911	1394.5124	1406.9847	1427.7072	1486.3106	1498.5654	1836.0672	2926.492	2970.1044	2999.475	3045.8107	3116.7908	3137.1941	3171.27	3189.7226	3507.3663
CC1OC(C=O)C2NC12	C[C@H]1O[C@@H](C=O)[C@H]2N[C@@H]12	
InChI=1S/C6H9NO2/c1-3-5-6(7-5)4(2-8)9-3/h2-7H,1H3	InChI=1S/C6H9NO2/c1-3-5-6(7-5)4(2-8)9-3/h2-7H,1H3/t3-,4+,5+,6-/m1/s1
