18
gdb 107571	3.33269	1.30249	1.0772	2.9157	71.94	-0.2432	0.0293	0.2725	1125.8193	0.148642	-439.070992	-439.062792	-439.061848	-439.10398	30.888	
O	-0.1038464974	 1.3626745177	 0.6283413373	-0.419205
C	 0.0239228777	 0.0555743095	 0.0848650068	-0.164259
C	-1.3616247302	-0.5072570344	-0.1002646151	 0.279652
C	-2.0336526665	-1.1680486522	 1.0897944242	-0.346609
C	-1.5267767428	-1.9987220123	-0.0556185427	 0.057791
O	-2.4463374988	-2.6302468187	-0.9153088186	-0.22555
C	-3.2311428393	-1.8275830087	-1.6820144292	 0.122356
N	-3.2299083887	-0.5730173968	-1.8072723901	-0.267958
C	-2.2475164555	 0.2340619075	-1.0958152033	-0.222291
H	 0.7662153688	 1.7725239031	 0.6367857967	 0.289982
H	 0.5429508804	 0.0809691239	-0.8873402716	 0.091864
H	 0.6075280259	-0.5988722019	 0.7532926719	 0.081832
H	-1.4993102612	-1.2099520292	 2.0326558585	 0.120767
H	-3.1095260571	-1.0586622437	 1.1795616077	 0.129849
H	-0.6637266799	-2.6396720234	 0.0859301532	 0.106475
H	-3.9389156384	-2.442749342	-2.2338669441	 0.123943
H	-2.7746591232	 1.0584705589	-0.6021324839	 0.125802
H	-1.6072075037	 0.7051061026	-1.8530749476	 0.115558
86.1742	103.9218	162.4839	255.3145	284.2292	356.7782	367.057	409.2	502.0113	537.8713	609.6701	706.0295	795.5069	888.3435	911.198	931.9779	947.3977	968.7235	994.3318	1005.1431	1057.5507	1060.8839	1077.3975	1088.0616	1128.7884	1196.4621	1229.7533	1242.7492	1256.0749	1302.1255	1347.3139	1364.0886	1405.0816	1429.8204	1463.9555	1478.5017	1493.4558	1517.8517	1746.417	2955.3171	2986.293	3022.8249	3053.1812	3132.9869	3162.9357	3171.7449	3222.6278	3828.7557
OCC12CC1OC=NC2	OC[C@]12C[C@H]1OC=NC2	
InChI=1S/C6H9NO2/c8-3-6-1-5(6)9-4-7-2-6/h4-5,8H,1-3H2	InChI=1S/C6H9NO2/c8-3-6-1-5(6)9-4-7-2-6/h4-5,8H,1-3H2/t5-,6-/m1/s1
