18
gdb 109132	4.07225	1.01441	0.87706	1.9415	74.22	-0.2346	-0.032	0.2026	1337.8086	0.146805	-439.120354	-439.111304	-439.110359	-439.155816	31.976	
C	-0.7863898724	 0.8770895879	-0.0827350623	-0.379278
C	 0.6803876542	 0.4179676086	-0.1137700609	-0.24785
C	 1.1382439788	-0.1564139573	 1.1997137453	 0.396112
N	 2.0656656312	 0.3757721661	 1.8792715763	-0.307819
C	 2.3917548069	-0.1464843467	 3.1937719844	-0.272387
C	 1.7949553571	-1.4899135499	 3.5723908516	 0.337986
O	 2.0063664583	-2.0402985937	 4.6249776496	-0.296442
C	 0.9404648823	-2.1519358829	 2.5023691324	-0.184338
O	 0.4031693505	-1.2619376272	 1.5271018306	-0.259541
H	-0.9348232953	 1.6611363973	 0.6662234897	 0.125562
H	-1.0782260283	 1.2803542838	-1.0563610822	 0.119554
H	-1.4529531412	 0.0450864517	 0.1572850388	 0.133435
H	 0.8040797958	-0.3476370363	-0.8892593263	 0.11477
H	 1.3434630123	 1.2517995297	-0.3505570908	 0.127834
H	 3.4818334002	-0.2212052423	 3.3017148721	 0.147807
H	 2.0810744785	 0.579768753	 3.9578747954	 0.151199
H	 1.5667617794	-2.9046955345	 1.99984977	 0.142054
H	 0.1026098415	-2.6722808676	 2.9714135262	 0.151341
28.5913	55.9828	92.5031	163.3725	212.9006	295.2744	359.9243	416.9775	448.6111	496.2118	534.8294	666.4288	730.7376	753.4673	797.4197	801.4404	903.1043	975.5334	1007.1513	1039.5521	1085.4471	1118.2258	1142.5428	1203.6883	1228.8673	1242.8244	1266.8128	1293.8453	1331.6822	1360.9222	1372.2869	1408.0006	1437.5037	1469.2203	1474.5783	1498.0374	1509.4688	1758.4494	1830.225	3002.0321	3018.9348	3039.8327	3045.0158	3045.81	3111.1847	3112.8408	3117.3804	3134.4459
CCC1=NCC(=O)CO1	CCC1=NCC(=O)CO1	
InChI=1S/C6H9NO2/c1-2-6-7-3-5(8)4-9-6/h2-4H2,1H3	InChI=1S/C6H9NO2/c1-2-6-7-3-5(8)4-9-6/h2-4H2,1H3
