18
gdb 32284	2.83414	1.41951	1.01772	3.5596	83.25	-0.2107	-0.0324	0.1783	1181.4845	0.149934	-402.033385	-402.025264	-402.02432	-402.066188	31.033	
C	-0.1499545241	 1.5560616306	 0.0057394622	-0.375809
C	 0.0833614566	 0.034685541	 0.0361734938	-0.271384
C	 0.7805101864	-0.4800795305	-1.1947046483	 0.140592
C	 2.0794855452	-0.9019819779	-1.2062871568	-0.158054
C	 2.7217265996	-1.3775843611	-2.3855610431	-0.164191
C	 2.0021610847	-1.4139983499	-3.5368443159	 0.027277
N	 0.7034294539	-1.0017409579	-3.538471132	-0.35532
C	-0.0035339527	-0.5172699993	-2.4263928549	 0.379966
O	-1.1733577166	-0.1781655229	-2.5489556102	-0.40285
H	 0.7990388576	 2.0986285754	-0.0568464509	 0.108146
H	-0.762373032	 1.8256235023	-0.8574371963	 0.147789
H	-0.6691058814	 1.8831602578	 0.9120182327	 0.109546
H	 0.66960555	-0.2357101302	 0.9213593934	 0.091478
H	-0.8890410601	-0.4638386505	 0.1198743837	 0.122029
H	 2.6470725842	-0.8761881828	-0.2793507716	 0.101993
H	 3.7523819265	-1.7043453549	-2.372231133	 0.105733
H	 2.3962005242	-1.7586189455	-4.4850045184	 0.132855
H	 0.1586140381	-1.0283611236	-4.3893614242	 0.260205
84.2089	122.3071	191.951	218.2128	304.5786	332.439	444.878	483.0923	536.4785	564.5056	591.6826	707.1021	720.1813	764.8951	781.9408	813.578	884.0109	921.3146	954.4816	975.9573	1038.7743	1077.1201	1092.868	1128.4335	1163.9932	1218.1843	1253.123	1282.5394	1352.6714	1379.8276	1397.1988	1443.3819	1473.0007	1488.5428	1494.9619	1513.0061	1600.01	1670.9989	1756.7635	3033.537	3038.7855	3075.2703	3104.9751	3135.3098	3159.3497	3206.2342	3230.9853	3605.6367
CCC1=CC=CNC1=O	CCc1ccc[nH]c1=O	
InChI=1S/C7H9NO/c1-2-6-4-3-5-8-7(6)9/h3-5H,2H2,1H3,(H,8,9)	InChI=1S/C7H9NO/c1-2-6-4-3-5-8-7(6)9/h3-5H,2H2,1H3,(H,8,9)
