20
gdb 40294	2.62125	1.57919	1.21223	1.0878	75.18	-0.2415	0.0801	0.3216	1082.7929	0.173163	-440.245446	-440.237491	-440.236547	-440.277803	31.286	
C	 0.0153009327	 1.5322986973	-0.0940878088	-0.299387
N	 1.2567456586	 0.7492723633	-0.1671883747	-0.332844
C	-0.0270146214	 0.0545071947	 0.0584176028	 0.291551
C	-0.2019698327	-0.5357323477	 1.449499613	-0.128884
O	-0.1184407148	-1.9500837689	 1.490153812	-0.254307
C	 0.9711270221	-2.5193930553	 0.7781725808	-0.100423
C	 0.5797148146	-2.8612849606	-0.6606204258	-0.066703
O	 0.4240945166	-1.7460035993	-1.5199272937	-0.243363
C	-0.5400684273	-0.7937073941	-1.0955924665	-0.175535
H	-0.072754307	 2.1678058544	 0.7838402668	 0.118087
H	-0.3952581693	 1.9646608511	-1.0032892833	 0.113319
H	 1.5434276657	 0.616168126	-1.134996384	 0.236592
H	 0.5436870393	-0.0740481269	 2.1137165432	 0.103285
H	-1.2005529336	-0.3022608601	 1.8361294917	 0.107306
H	 1.8498666912	-1.8611685191	 0.7949469443	 0.121725
H	 1.2296500325	-3.4516213667	 1.2948750877	 0.104152
H	 1.3610070427	-3.4786447272	-1.1173508594	 0.105184
H	-0.3519617015	-3.4491544952	-0.6276318153	 0.095639
H	-1.4827912911	-1.2897392261	-0.8197767365	 0.103577
H	-0.7262166873	-0.1622647897	-1.9705308544	 0.10103
89.4063	156.4811	245.0587	283.9674	331.1759	355.3254	378.506	392.6417	480.5756	528.7145	574.1163	770.1852	821.9502	855.7943	889.7349	912.5208	939.4827	960.3263	990.5058	1006.2886	1016.1478	1080.9042	1095.9173	1120.7388	1142.3561	1147.9931	1159.8475	1255.7973	1261.5653	1269.1205	1311.1491	1330.2225	1349.5324	1368.7991	1387.9081	1400.6387	1413.5709	1430.4851	1475.5382	1485.3086	1486.5616	1496.5902	1513.2121	2978.7565	2995.7646	2997.179	3016.5994	3064.0752	3069.7766	3072.9099	3075.7868	3101.3412	3183.9569	3490.9441
C1NC11COCCOC1	C1NC21COCCOC2	
InChI=1S/C6H11NO2/c1-2-9-5-6(3-7-6)4-8-1/h7H,1-5H2	InChI=1S/C6H11NO2/c1-2-9-5-6(3-7-6)4-8-1/h7H,1-5H2
