18
gdb 36041	3.90915	1.01695	0.90712	3.4671	75.46	-0.2812	0.0289	0.3101	1280.8189	0.146868	-401.926177	-401.91743	-401.916486	-401.960159	32.128	
N	 0.0036687116	-1.3030296036	-0.2148971763	-0.313422
C	-0.0356025236	-0.1481736794	-0.2251128784	 0.263073
C	-0.0719058992	 1.3118039226	-0.2327606291	-0.409842
C	 1.2842993524	 1.9752238739	 0.0186129759	 0.300228
C	 2.2686407092	 1.3659194615	 0.9807499147	-0.308609
C	 2.5498746247	 1.3387702422	-0.5027369134	-0.30303
C	 1.1787152071	 3.4736012884	-0.0493900843	 0.00288
C	 0.9941039793	 4.3109813361	 1.1455770012	-0.180455
O	 2.2609185163	 4.2273605409	 0.4835519744	-0.233346
H	-0.4726689128	 1.6350159891	-1.2026537737	 0.153726
H	-0.7942472277	 1.6383666281	 0.5263179609	 0.154885
H	 2.8529131786	 2.0504590068	 1.5839980857	 0.134475
H	 1.9993851782	 0.4323011585	 1.4617324384	 0.13324
H	 2.4724891009	 0.3878753085	-1.0180616903	 0.13654
H	 3.3181123867	 2.0048083083	-0.8789092302	 0.130301
H	 0.7979273075	 3.8601485865	-0.9983796068	 0.095551
H	 0.491009527	 5.2727528569	 1.064193886	 0.122785
H	 0.9536630535	 3.8380061348	 2.1251849653	 0.12102
59.3507	86.9441	135.5123	211.2395	241.7704	298.0217	331.3275	391.555	440.2163	487.1274	595.647	694.7478	794.091	834.3708	857.9418	884.9533	924.3092	937.2669	975.7286	1005.0215	1023.5617	1065.0438	1072.6476	1102.053	1103.3757	1155.0361	1173.3817	1196.6349	1235.307	1251.5264	1286.248	1326.2303	1377.5993	1434.7184	1453.7878	1468.1652	1497.9683	1524.5174	2362.9476	3022.6409	3056.0945	3073.8475	3090.5404	3139.0207	3143.3337	3180.9141	3224.9986	3238.3803
N#CCC1(CC1)C1CO1	N#CCC1(CC1)[C@H]1CO1	
InChI=1S/C7H9NO/c8-4-3-7(1-2-7)6-5-9-6/h6H,1-3,5H2	InChI=1S/C7H9NO/c8-4-3-7(1-2-7)6-5-9-6/h6H,1-3,5H2/t6-/m1/s1
