16
gdb 48823	2.6211	1.61846	1.15716	4.406	69.77	-0.249	-0.0324	0.2166	1041.0848	0.12535	-437.930916	-437.923101	-437.922156	-437.963421	29.083	
O	-0.92985687	 1.2027944036	-0.3481996474	-0.279686
C	 0.155867291	 0.9048240561	 0.0928036685	 0.068987
C	 1.3502162018	 1.775256449	-0.0162214363	 0.119827
C	 1.1575661967	 3.2940905578	 0.0214317761	-0.307477
C	 1.6251478403	 2.662143077	-1.2344443466	-0.08201
C	 3.1317870495	 2.6069130923	-1.4785849418	-0.186005
N	 3.6405415672	 1.9149440419	-0.3031568055	-0.329152
C	 2.6907802278	 1.2823433044	 0.4616512629	 0.355037
O	 2.8959459811	 0.4735409605	 1.3409409849	-0.379263
H	 0.3343560437	-0.0531401901	 0.6208196231	 0.108567
H	 0.1188051569	 3.6029783454	 0.0578165826	 0.151191
H	 1.8505565395	 3.8662331689	 0.6294041835	 0.135108
H	 0.9508581382	 2.6136305204	-2.0801496669	 0.125029
H	 3.3525359247	 2.0528501229	-2.400452434	 0.120538
H	 3.5682859157	 3.608430308	-1.574598165	 0.122639
H	 4.6139161659	 1.6831099318	-0.1846659179	 0.25667
101.65	141.0074	173.6109	217.6107	263.2946	370.9886	399.6806	498.1138	566.6968	619.5194	711.4671	742.1094	775.9955	817.8805	872.8318	908.5676	961.1049	1029.7256	1047.7189	1061.506	1092.1822	1097.1768	1118.2122	1177.7997	1220.6139	1266.5446	1318.8831	1338.9075	1396.3145	1423.5435	1446.2613	1476.0365	1529.3003	1802.7064	1823.0498	2941.0694	3013.078	3048.9084	3133.6652	3199.0911	3232.8234	3644.9249
O=CC12CC1CNC2=O	O=C[C@]12C[C@H]1CNC2=O	
InChI=1S/C6H7NO2/c8-3-6-1-4(6)2-7-5(6)9/h3-4H,1-2H2,(H,7,9)	InChI=1S/C6H7NO2/c8-3-6-1-4(6)2-7-5(6)9/h3-4H,1-2H2,(H,7,9)/t4-,6+/m0/s1
