17
gdb 12986	2.73869	2.53954	1.56662	3.1996	68.	-0.2283	-0.0136	0.2147	845.6073	0.143019	-363.877794	-363.870427	-363.869483	-363.909189	28.185	
C	-0.2426733877	 1.5164163542	 0.060037392	-0.495615
C	 0.1109477717	 0.0583071607	-0.0025853608	 0.20749
N	-0.6951469883	-0.9727451152	 0.7296159626	-0.368123
C	 0.7121394943	-0.7568262595	 1.093699105	-0.078639
C	 1.6247555715	-1.8312599696	 0.5157904516	-0.217821
C	 1.2427914823	-1.8968778957	-0.9805766381	-0.33185
C	 0.6199697994	-0.5312527051	-1.2952506136	 0.403303
O	 0.6005219408	 0.021820142	-2.3663110141	-0.326001
H	 0.5959318987	 2.1340799161	-0.2750296277	 0.137699
H	-1.0908936679	 1.7362360599	-0.5958291076	 0.141936
H	-0.5043754599	 1.8162559073	 1.0799405533	 0.111271
H	-1.291968269	-0.4744236821	 1.3879349009	 0.23374
H	 0.9445273082	-0.303031493	 2.0524262203	 0.092199
H	 2.669370806	-1.5229769456	 0.6334341866	 0.108303
H	 1.4994879519	-2.7894397362	 1.0284050734	 0.111657
H	 2.0815741281	-2.0959219506	-1.6495327663	 0.124467
H	 0.4813124297	-2.6622343876	-1.1616339476	 0.145984
110.2013	166.517	214.118	262.886	297.2422	427.4297	475.431	511.8465	612.8545	657.3528	679.1075	806.4803	814.5046	843.9288	894.6584	959.2854	984.7776	1020.203	1041.0587	1074.8287	1091.6413	1126.8143	1159.7184	1180.0035	1237.7936	1284.7698	1302.0847	1342.0115	1363.4091	1412.7899	1440.8958	1451.8096	1478.9803	1491.0134	1496.6344	1838.5718	3036.9914	3047.142	3065.721	3091.5096	3107.0306	3110.0094	3126.8035	3157.0332	3481.9941
CC12NC1CCC2=O	C[C@]12N[C@H]1CCC2=O	
InChI=1S/C6H9NO/c1-6-4(7-6)2-3-5(6)8/h4,7H,2-3H2,1H3	InChI=1S/C6H9NO/c1-6-4(7-6)2-3-5(6)8/h4,7H,2-3H2,1H3/t4-,6-/m0/s1
