22
gdb 99287	5.67776	0.60537	0.57283	2.0037	83.99	-0.2322	-0.0081	0.2241	1998.3848	0.191769	-404.341759	-404.331262	-404.330318	-404.379175	36.832	
C	 0.1799285867	 1.4701768566	 0.1223960769	-0.37464
C	-0.0754351128	-0.0337212604	 0.1827935336	-0.274142
C	-1.536610968	-0.4139629437	-0.0259550199	 0.373654
O	-2.3925943967	 0.4198684248	-0.2243136736	-0.300353
C	-1.8607720554	-1.8999537936	 0.0248795114	-0.297946
C	-3.3388754825	-2.207018708	-0.1995193622	-0.142128
N	-3.5576792087	-3.6497597966	-0.210304654	-0.064865
C	-3.862199498	-4.2650213807	 1.0789673536	-0.222399
C	-4.9223406669	-4.0919617206	 0.0480293097	-0.219719
H	 1.2408995769	 1.6887729519	 0.272205331	 0.108916
H	-0.1255087275	 1.8786365044	-0.8441474912	 0.13144
H	-0.3939137499	 1.9947135562	 0.8906011301	 0.13022
H	 0.5198760883	-0.5682599831	-0.5704976743	 0.121174
H	 0.247251408	-0.4536611389	 1.1456013911	 0.118986
H	-1.2527290326	-2.423045505	-0.7246330187	 0.130984
H	-1.5258596295	-2.2972800105	 0.9930412803	 0.118941
H	-3.9454146541	-1.6943234329	 0.5665270406	 0.092976
H	-3.6536262764	-1.803627994	-1.1671266166	 0.11788
H	-3.4178401626	-5.2397497824	 1.2588877278	 0.115361
H	-3.9141648837	-3.6180285042	 1.9540387431	 0.107393
H	-5.6776582988	-3.3307005095	 0.2376209313	 0.111846
H	-5.2655178657	-4.9380217496	-0.5404985899	 0.116421
32.2205	50.0116	74.7736	101.1087	130.3206	189.7671	236.2813	275.2321	329.415	396.4028	473.692	482.3244	641.7745	714.1297	762.5589	809.5931	826.5399	858.9304	910.0741	980.17	986.8412	1008.1613	1029.649	1043.3595	1095.6237	1111.5597	1117.3564	1124.0951	1131.7911	1169.5171	1182.3765	1232.8189	1283.6699	1310.7071	1318.1955	1325.2013	1373.3582	1405.1631	1414.3131	1447.2177	1460.496	1486.9771	1492.0883	1497.159	1498.2474	1521.1768	1801.3735	2959.6029	3015.0555	3025.9911	3041.9914	3051.6337	3056.2871	3080.1708	3090.0967	3097.1332	3122.4212	3127.6769	3175.1634	3189.6862
CCC(=O)CCN1CC1	CCC(=O)CCN1CC1	
InChI=1S/C7H13NO/c1-2-7(9)3-4-8-5-6-8/h2-6H2,1H3	InChI=1S/C7H13NO/c1-2-7(9)3-4-8-5-6-8/h2-6H2,1H3
