14
gdb 128575	6.96943	0.87479	0.78109	5.0527	68.15	-0.2462	-0.0688	0.1774	1371.4883	0.099469	-473.810615	-473.802326	-473.801382	-473.844334	28.505	
C	 0.0098170098	 1.416322597	-0.0367503168	-0.254732
O	 0.0038713918	-0.0192921268	-0.0058143497	-0.264626
C	 0.5796053173	-0.6535968521	-1.0122609545	 0.57837
C	 0.7253303065	-1.9903355858	-1.2497146307	-0.508508
C	 1.4250866641	-2.0123486498	-2.4843888844	 0.314991
C	 1.8546508384	-3.227239538	-3.224747379	 0.103837
O	 2.4463405245	-3.227568232	-4.2722620756	-0.235872
N	 1.6810367344	-0.8046407236	-2.9533422708	-0.195264
O	 1.1345917759	 0.0634249614	-2.0019966319	-0.213962
H	 1.0339470667	 1.7991968692	-0.0393122546	 0.15234
H	-0.518812867	 1.7866622258	-0.9192715065	 0.152343
H	-0.5069582589	 1.7260749379	 0.870723819	 0.150766
H	 0.3881377349	-2.8118567859	-0.6427083562	 0.135741
H	 1.5740115516	-4.1733759673	-2.7114119285	 0.084574
64.3736	93.392	156.8233	160.5555	218.5941	265.1285	365.7228	395.1043	561.7991	658.8783	682.0613	710.2873	774.3231	783.5736	941.7606	988.1468	1032.8184	1037.7425	1049.5665	1172.44	1175.1231	1203.0173	1323.9048	1405.5061	1460.9601	1473.7309	1486.3635	1497.6692	1521.1749	1655.4474	1825.2246	2889.727	3048.1873	3124.1627	3166.9708	3291.5112
COC1=CC(C=O)=NO1	COc1cc(C=O)no1	
InChI=1S/C5H5NO3/c1-8-5-2-4(3-7)6-9-5/h2-3H,1H3	InChI=1S/C5H5NO3/c1-8-5-2-4(3-7)6-9-5/h2-3H,1H3
