23
gdb 116145	3.14801	0.98193	0.79164	1.9354	82.58	-0.2421	0.0762	0.3183	1491.8516	0.206275	-425.44117	-425.431615	-425.430671	-425.475299	36.426	
C	-0.0145638601	 1.5243547134	 0.0699006027	-0.400704
C	 0.0289035814	 0.005222364	-0.0068666634	 0.137454
C	 0.7220348709	-0.5136563077	-1.2745088002	-0.21009
C	 0.8388099998	-2.0452724119	-1.2535288374	 0.023301
C	 1.589540808	-2.568089548	-2.4730344775	-0.096955
O	 1.5638475282	-3.9884237287	-2.4395739124	-0.424865
C	 1.485299358	-2.489936703	 0.066463214	-0.193708
C	 0.7510227272	-1.8651026477	 1.2525736495	-0.085639
O	 0.7022816912	-0.4507109777	 1.160684358	-0.258945
H	 1.0000981514	 1.9349076981	 0.0670392986	 0.120848
H	-0.5601307165	 1.9387462089	-0.7832959666	 0.110188
H	-0.5096099114	 1.8447457526	 0.990495662	 0.121745
H	-1.0048530378	-0.3883054684	 0.005033292	 0.057624
H	 0.1652907223	-0.1792602261	-2.1587338207	 0.089338
H	 1.7232424353	-0.0644065852	-1.3309555842	 0.094807
H	-0.1754079794	-2.4694835123	-1.2957764313	 0.077326
H	 1.1138151514	-2.1846900276	-3.3907409999	 0.081251
H	 2.6251086434	-2.188583153	-2.457526178	 0.082943
H	 2.0846076565	-4.3175296682	-3.1775018761	 0.286904
H	 1.4787015945	-3.5808784151	 0.1454163352	 0.110521
H	 2.5342120541	-2.1646395855	 0.0868353479	 0.093129
H	-0.2734819675	-2.2732419775	 1.3147830682	 0.081613
H	 1.2564245389	-2.0905232835	 2.1964810598	 0.101917
91.7166	136.2756	154.0249	201.6973	225.2261	252.5016	293.0905	304.6131	357.3065	426.8671	449.8826	482.2803	527.7075	600.2323	805.1551	833.6329	860.265	905.1376	941.5692	971.6933	985.7921	1023.279	1039.4895	1074.1805	1107.7638	1117.492	1143.6377	1154.7045	1184.7004	1207.6211	1237.9589	1252.7666	1278.7209	1296.8543	1303.8311	1341.0593	1364.9912	1375.965	1390.1264	1402.0896	1411.0111	1417.7691	1458.0212	1471.2323	1481.9746	1486.0875	1496.9509	1503.1649	1519.5177	2925.7555	2950.588	2954.243	2980.2149	3002.3539	3012.5257	3025.0329	3041.1758	3059.8491	3079.5387	3094.2514	3114.2058	3120.6574	3834.4533
CC1CC(CO)CCO1	C[C@H]1C[C@@H](CO)CCO1	
InChI=1S/C7H14O2/c1-6-4-7(5-8)2-3-9-6/h6-8H,2-5H2,1H3	InChI=1S/C7H14O2/c1-6-4-7(5-8)2-3-9-6/h6-8H,2-5H2,1H3/t6-,7-/m0/s1
