12
gdb 49964	2.46329	1.2787	0.99732	0.701	62.34	-0.2861	-0.1017	0.1845	1138.1649	0.073499	-472.606332	-472.597713	-472.596768	-472.640619	28.909	
O	-0.3660566235	 0.5500091932	 0.5744138196	-0.223113
C	 0.3055256843	 0.8317139462	-0.3826773165	 0.128305
C	 1.4500521792	 1.8079154329	-0.2629022036	-0.091499
O	 2.43551167	 1.7815242737	-1.2796659683	-0.23034
C	 1.6334029313	 2.9499389373	-1.2296323884	 0.1599
C	 0.6605874361	 3.1664891376	-2.3819669198	 0.108685
O	 0.2125203992	 2.2630705864	-3.0296726829	-0.229561
C	 2.2796780575	 4.1550191874	-0.7455319375	 0.250498
N	 2.7562549327	 5.1458025813	-0.3902452806	-0.297697
H	 0.1599208353	 0.4008096028	-1.3881795098	 0.141653
H	 1.8079356632	 1.9731095391	 0.7528952367	 0.152924
H	 0.4047207547	 4.2282863921	-2.5664495289	 0.130244
58.9211	101.1473	117.247	155.8097	227.9645	256.1965	324.5867	381.1106	467.1108	533.4379	562.1641	581.4871	754.2875	844.5602	946.3698	980.2482	1036.7366	1071.8467	1094.7011	1178.1096	1281.4367	1347.5972	1415.0498	1434.079	1822.7166	1838.9299	2360.2824	2950.0542	3000.619	3137.4115
O=CC1OC1(C=O)C#N	O=C[C@H]1O[C@]1(C=O)C#N	
InChI=1S/C5H3NO3/c6-2-5(3-8)4(1-7)9-5/h1,3-4H	InChI=1S/C5H3NO3/c6-2-5(3-8)4(1-7)9-5/h1,3-4H/t4-,5+/m1/s1
