22
gdb 63916	2.86312	1.53375	1.51523	1.7848	83.84	-0.2221	0.0805	0.3026	1036.3186	0.19584	-367.181061	-367.173099	-367.172155	-367.212773	32.992	
C	-0.2426179968	 1.5915636435	 0.0616616668	-0.433757
C	-0.0226823246	 0.0719411659	-0.0265810943	 0.294013
C	-1.3876286479	-0.6355401231	 0.0632911769	-0.432546
C	 0.7418465535	-0.3803686861	-1.3189593329	-0.266279
C	 2.1168241331	-0.8513781686	-0.8280810577	-0.057113
C	 2.8480570255	 0.3031247754	-0.111317346	-0.155323
N	 2.3193436592	-0.1166304309	 1.2326568328	-0.171245
C	 1.878328753	-1.4169096812	 0.5993138866	-0.061544
C	 0.8715015382	-0.4668807575	 1.0977014104	-0.02995
H	 0.6936184022	 2.1516335863	 0.0062854573	 0.121975
H	-0.8900976934	 1.9366152292	-0.7522357339	 0.109989
H	-0.7288227878	 1.857059063	 1.0069517664	 0.113375
H	-2.0177822681	-0.3659450694	-0.7914042333	 0.112189
H	-1.2694920161	-1.7241815282	 0.0637198853	 0.113274
H	-1.9240028259	-0.3527503909	 0.9758218841	 0.111568
H	 0.2049152625	-1.2012035977	-1.8072713279	 0.093147
H	 0.8320869864	 0.430228955	-2.0504326858	 0.094812
H	 2.6877354346	-1.4377732648	-1.5481030394	 0.066907
H	 3.9335691955	 0.1749093751	-0.0893318528	 0.107279
H	 2.6206334947	 1.3300442484	-0.4171059661	 0.093971
H	 2.1376108082	-2.3880511087	 1.0044300418	 0.089202
H	 0.4218628739	-0.6110771648	 2.0761323117	 0.086058
151.593	203.3595	228.1613	265.0475	328.2046	354.1602	375.0626	400.5741	512.4416	577.1187	623.7559	761.3088	771.4561	804.423	843.9422	869.9168	885.4257	916.2005	933.5599	951.0784	964.3789	983.3798	1007.3462	1031.4009	1043.9386	1057.7259	1071.1229	1141.3565	1168.8019	1199.9985	1206.4908	1232.7931	1248.2236	1276.1198	1284.7074	1295.6667	1311.3973	1346.2622	1387.0676	1397.6507	1424.5515	1483.933	1484.9882	1490.7718	1500.6632	1507.9896	1517.495	3022.8622	3030.0081	3034.245	3040.3594	3074.2679	3090.0875	3091.8019	3095.5352	3097.89	3110.2327	3124.0223	3149.6522	3179.7375
CC1(C)CC2CN3C2C13	CC1(C)C[C@H]2CN3[C@H]2[C@H]13	
InChI=1S/C8H13N/c1-8(2)3-5-4-9-6(5)7(8)9/h5-7H,3-4H2,1-2H3	InChI=1S/C8H13N/c1-8(2)3-5-4-9-6(5)7(8)9/h5-7H,3-4H2,1-2H3/t5-,6+,7+,9?/m0/s1
