17
gdb 9514	2.77087	1.93739	1.58244	2.5733	65.06	-0.2655	0.0193	0.2849	885.302	0.142009	-400.99821	-400.990115	-400.989171	-401.030465	29.968	
C	-0.1101039781	 1.6049305582	-0.0056705995	-0.447645
C	-0.0379298796	 0.081100581	-0.0520333162	 0.130837
C	-1.4202383361	-0.5705179278	 0.1303162944	-0.102931
O	-1.9566615942	-0.2698854965	 1.3986950193	-0.420643
C	 0.8755844121	-0.5349641094	-1.1413910926	-0.138063
O	 1.7635968024	-1.073031191	-0.1030000099	-0.257069
C	 0.9641316851	-0.5618094903	 0.8879024835	 0.433049
N	 1.0126042732	-0.6728360223	 2.1394532363	-0.565018
H	 0.8858988402	 2.0570904037	-0.013972239	 0.121158
H	-0.6679566261	 1.9839196289	-0.869100155	 0.118702
H	-0.6298107638	 1.9202198739	 0.9013698734	 0.152842
H	-2.1241209499	-0.1807569458	-0.6143237957	 0.107519
H	-1.3352655049	-1.6583302153	-0.0296362064	 0.088015
H	-1.2870861045	-0.5147604102	 2.0553547867	 0.301348
H	 0.4495019789	-1.3459088201	-1.7377918461	 0.122983
H	 1.4082054268	 0.1738310442	-1.7792285571	 0.123371
H	 1.8047394386	-1.2369990913	 2.4501056337	 0.231545
115.7605	136.4774	186.2606	220.9258	249.2488	299.8518	345.1053	427.2138	506.9123	536.3763	688.0154	728.9901	764.3225	861.5922	895.5667	915.9645	955.9965	985.4259	992.1275	1031.472	1086.558	1152.0213	1155.9134	1201.5818	1243.2169	1249.6721	1285.8952	1375.9096	1385.2054	1409.4743	1452.2417	1487.6888	1499.4646	1509.6421	1511.5713	1808.1093	2963.4679	3037.5865	3057.6463	3061.3213	3105.3383	3123.1309	3136.4242	3480.6903	3711.5034
CC1(CO)COC1=N	C[C@@]1(CO)CO[C]1[NH]	
InChI=1S/C5H9NO2/c1-5(2-7)3-8-4(5)6/h6-7H,2-3H2,1H3	InChI=1S/C5H9NO2/c1-5(2-7)3-8-4(5)6/h6-7H,2-3H2,1H3/t5-/m1/s1
