17
gdb 30759	3.16082	1.16465	0.89301	3.2111	73.05	-0.1863	0.0333	0.2197	1269.7773	0.136902	-455.161745	-455.152498	-455.151553	-455.196004	34.029	
N	 0.1681327787	 1.3656894613	-0.301297582	-0.626168
C	 0.0437379295	-0.0347844857	-0.0510047081	 0.073086
C	-1.0385383142	-0.8364080602	 0.2593770776	-0.148415
N	-0.5746786168	-2.1109323008	 0.4173549788	-0.294719
C	 0.7929962038	-2.1713638005	 0.1888993363	 0.163824
C	 1.5446599579	-3.4514137273	 0.2802035229	-0.186548
O	 0.9618411889	-4.4931356607	-0.512101807	-0.423178
C	 1.1867747103	-0.8823788854	-0.0974396912	 0.242748
O	 2.4435980425	-0.4481414078	-0.3705876862	-0.457434
H	-0.0942237758	 1.9240813593	 0.5044238174	 0.241912
H	-0.4091878446	 1.6695579233	-1.0783240688	 0.240933
H	-2.0845095177	-0.5983950784	 0.3721741989	 0.113099
H	-1.1430942513	-2.9316346365	 0.5337886751	 0.264598
H	 2.5919434526	-3.2627882288	 0.0083069633	 0.115138
H	 1.5414142029	-3.8564303488	 1.3000524129	 0.11115
H	 0.9262332912	-4.1646606933	-1.4173365994	 0.278199
H	 2.3456890223	 0.5036786503	-0.5280306706	 0.291775
54.0387	114.2214	133.1819	214.47	246.8787	267.6319	312.3668	365.4763	395.7904	452.3013	543.0439	547.4594	604.6759	656.8998	707.7488	718.6697	756.9719	774.6962	838.9214	960.7439	988.8871	1047.682	1116.0769	1191.6946	1202.3719	1237.5913	1250.5306	1318.6676	1344.9013	1379.9199	1418.6859	1450.4152	1497.1376	1502.5931	1574.619	1648.572	1683.4375	3012.6931	3047.8657	3256.0359	3497.8602	3564.9798	3681.7182	3711.8334	3800.0046
NC1=CNC(CO)=C1O	Nc1c[nH]c(CO)c1O	
InChI=1S/C5H8N2O2/c6-3-1-7-4(2-8)5(3)9/h1,7-9H,2,6H2	InChI=1S/C5H8N2O2/c6-3-1-7-4(2-8)5(3)9/h1,7-9H,2,6H2
