20
gdb 92245	2.70722	1.62546	1.31656	2.376	78.12	-0.2171	0.0675	0.2846	1050.6747	0.171708	-403.077229	-403.06941	-403.068465	-403.10947	30.803	
C	 0.1575741791	 1.6043511899	-0.1924366619	-0.414935
C	 0.0323720665	 0.103371053	 0.0217983587	-0.098869
C	 0.9030119136	-0.8705629745	-0.8264879549	-0.196571
N	 1.2519609804	-1.6740414071	 0.3937225671	-0.152209
C	 2.6347339727	-1.4113100891	 0.9217618621	-0.201269
C	 2.1017453524	-0.2958574305	 1.8500865492	 0.040989
O	 1.6280611827	-0.7785827712	 3.1257245254	-0.293675
C	 0.2576576782	-0.8772611738	 2.6531243472	-0.157719
C	 0.6994378865	-0.5444551067	 1.2340523964	 0.326329
H	 1.2032454395	 1.9266897423	-0.1429506452	 0.116313
H	-0.2355720507	 1.8944803664	-1.1725204555	 0.12131
H	-0.4005101913	 2.1625949981	 0.5670976098	 0.121456
H	-1.0211286414	-0.1958462894	-0.0198706527	 0.08584
H	 0.3874118554	-1.4543045207	-1.5940238224	 0.106461
H	 1.7705811084	-0.3778991692	-1.2858218894	 0.093784
H	 3.0622862349	-2.2685234997	 1.4493622334	 0.115216
H	 3.3373689829	-1.0720283933	 0.151251022	 0.098947
H	 2.6428472483	 0.6506290012	 1.9390371471	 0.077087
H	-0.1699358287	-1.8755038254	 2.7986779487	 0.112468
H	-0.3816860691	-0.1225978505	 3.1317727848	 0.099049
95.0012	145.6974	211.4898	236.4759	318.8752	374.7988	428.2429	475.9201	506.8212	650.2517	703.8453	784.9615	823.9822	873.2539	881.2119	894.6913	917.3313	970.6572	984.1086	1007.8508	1028.8736	1086.0708	1100.7117	1119.694	1130.1032	1157.5409	1161.4166	1170.1246	1201.7906	1211.5018	1256.8508	1286.5115	1296.9619	1301.7118	1313.4741	1358.9595	1393.2267	1411.9282	1476.177	1495.5878	1496.229	1504.405	1509.0524	3003.7929	3009.7679	3027.8299	3029.0833	3040.1866	3063.1861	3069.7463	3081.2769	3095.0705	3097.3061	3099.694
CC1CN2CC3OCC123	C[C@H]1CN2C[C@@H]3OC[C@]123	
InChI=1S/C7H11NO/c1-5-2-8-3-6-7(5,8)4-9-6/h5-6H,2-4H2,1H3	InChI=1S/C7H11NO/c1-5-2-8-3-6-7(5,8)4-9-6/h5-6H,2-4H2,1H3/t5-,6-,7+/m0/s1
