20
gdb 73851	2.59998	1.372	0.95806	3.4991	84.07	-0.2374	0.0135	0.2508	1263.8986	0.170557	-403.1808	-403.171443	-403.170499	-403.21517	34.412	
C	 0.1618191927	 1.587777607	-0.0441104457	-0.494312
C	-0.0143866106	 0.0987901445	 0.0630123532	 0.194342
C	-1.1639818273	-0.5841236821	 0.0675428485	 0.208885
C	-2.5478038263	-0.0156900168	-0.063806748	-0.492428
C	-1.0817408283	-2.0869343026	 0.2498199589	-0.385486
C	 0.1134970285	-2.6961589509	-0.4404466747	 0.395545
N	 0.0457224421	-3.8293067784	-1.0034559534	-0.521322
O	 1.2589231165	-1.9654464972	-0.4335224523	-0.240817
C	 1.2671535209	-0.6872715591	 0.2149849771	-0.161004
H	 0.759853251	 1.9710921646	 0.7932950038	 0.127467
H	 0.7042585169	 1.8542374885	-0.9604513718	 0.131912
H	-0.785279606	 2.1287819899	-0.0447038978	 0.128762
H	-3.053362839	-0.4340005825	-0.943328146	 0.135483
H	-3.1615523806	-0.2893769573	 0.8042438505	 0.129482
H	-2.5608341064	 1.0714858292	-0.153856957	 0.124234
H	-1.0194026997	-2.3223576341	 1.3244145938	 0.131066
H	-1.9709375477	-2.5976088967	-0.1233278585	 0.137591
H	 0.9539260613	-4.0727570581	-1.404998791	 0.214648
H	 2.1084091824	-0.1503425768	-0.2334652106	 0.121004
H	 1.5097992197	-0.8326578911	 1.2801429809	 0.114947
61.3737	117.0418	137.7682	158.762	178.4415	284.6203	326.9604	336.2314	422.7841	447.4589	511.6989	524.1074	566.8532	724.9753	738.683	836.9943	901.2176	929.2439	935.2232	970.1697	1003.5109	1035.2502	1058.3399	1075.9571	1139.7366	1152.7924	1174.282	1209.9933	1258.7017	1266.0162	1319.7171	1345.2595	1406.8781	1420.2347	1433.0896	1463.3489	1479.4428	1483.4754	1485.1717	1496.6178	1504.5107	1748.5386	1757.2975	2973.4791	2985.7572	3016.0024	3020.841	3057.8895	3063.7813	3078.291	3115.7144	3127.5518	3138.9643	3458.664
CC1=C(C)CC(=N)OC1	CC1=C(C)C[C]([NH])OC1	
InChI=1S/C7H11NO/c1-5-3-7(8)9-4-6(5)2/h8H,3-4H2,1-2H3	InChI=1S/C7H11NO/c1-5-3-7(8)9-4-6(5)2/h8H,3-4H2,1-2H3
