12
gdb 5152	6.43649	1.33109	1.11049	2.7651	58.63	-0.2619	-0.0129	0.249	964.9434	0.085446	-377.565209	-377.558622	-377.557677	-377.596865	23.085	
N	-0.5892751267	-0.4889362365	-1.2177983976	-0.306917
C	-0.2042385643	 0.1987116564	-0.3735720213	 0.271305
C	 0.2986315908	 1.0745513165	 0.6831395727	-0.448563
C	 1.5495383344	 1.8017940973	 0.2860879824	 0.248167
C	 2.2597491515	 1.7681058161	-0.8663974913	-0.085668
O	 3.3230209053	 2.6156496094	-0.7267747503	-0.138136
C	 3.1900985329	 3.1185692409	 0.5189329932	 0.076892
N	 2.1647686672	 2.6800573025	 1.1719225131	-0.306762
H	-0.4835875683	 1.7948773363	 0.9515843431	 0.176646
H	 0.4833103873	 0.476724091	 1.5838730376	 0.176638
H	 2.165640498	 1.2478628284	-1.8032619199	 0.17562
H	 3.9389757519	 3.8241458716	 0.8424026684	 0.160777
53.3474	117.5745	256.1771	332.2746	381.4147	487.0254	635.6667	673.6288	733.058	785.4387	854.7013	934.7762	955.7423	960.4961	1002.0273	1097.7028	1140.8134	1217.8864	1223.9569	1247.2809	1336.0261	1367.4311	1458.3546	1556.6328	1632.9841	2370.7334	3039.3488	3069.2445	3280.4013	3304.1456
N#CCC1=COC=N1	N#CCc1cocn1	
InChI=1S/C5H4N2O/c6-2-1-5-3-8-4-7-5/h3-4H,1H2	InChI=1S/C5H4N2O/c6-2-1-5-3-8-4-7-5/h3-4H,1H2
