17
gdb 120430	3.983	0.93833	0.81714	4.0459	71.93	-0.2713	-0.0518	0.2195	1410.4939	0.135249	-459.008047	-458.999512	-458.998567	-459.042228	30.642	
C	-0.0129996154	 1.4874106021	-0.0539522183	-0.387559
C	-0.0943382889	-0.0273325804	-0.0809322954	-0.046174
O	 0.6745738678	-0.4925335664	-1.1942295572	-0.242174
C	 0.7417500025	-1.8684299136	-1.3041530398	 0.173605
O	-0.5260483732	-2.4435570796	-1.657460914	-0.240467
C	-0.4261451476	-3.1011927434	-2.8605686093	 0.427665
O	-1.3503879183	-3.6642601233	-3.3698800012	-0.335558
C	 0.9809660824	-2.9672010901	-3.326671521	-0.222148
C	 1.6603815476	-2.2530305559	-2.4366107665	-0.101676
H	 1.0238928925	 1.8190093029	 0.0509900104	 0.127041
H	-0.4176413131	 1.909474976	-0.9779102908	 0.135021
H	-0.5908066675	 1.879770218	 0.7880155163	 0.122213
H	 0.3102229191	-0.4620325668	 0.8466816519	 0.094437
H	-1.1322395143	-0.3659635021	-0.1851302683	 0.124515
H	 1.0320419092	-2.326221586	-0.3437854989	 0.091954
H	 1.3168901163	-3.3985383781	-4.2579696848	 0.140862
H	 2.696256761	-1.9441451435	-2.4617426232	 0.138443
54.2551	91.708	124.4906	169.5096	246.3307	293.3592	349.0645	417.9876	508.4146	585.5965	695.7534	711.9919	800.744	821.1503	838.9309	895.2472	907.2107	957.9435	978.6854	1028.5469	1056.9725	1095.7081	1143.3137	1150.6642	1178.7978	1189.1986	1296.3514	1335.8319	1362.9528	1369.5998	1405.7911	1442.8041	1483.641	1500.3729	1526.158	1674.8564	1879.9107	2970.3267	2985.5106	3047.0708	3053.2019	3122.1426	3125.2863	3233.0172	3261.1614
CCOC1OC(=O)C=C1	CCO[C@H]1OC(=O)C=C1	
InChI=1S/C6H8O3/c1-2-8-6-4-3-5(7)9-6/h3-4,6H,2H2,1H3	InChI=1S/C6H8O3/c1-2-8-6-4-3-5(7)9-6/h3-4,6H,2H2,1H3/t6-/m0/s1
