22
gdb 81854	2.68516	1.42547	1.05661	1.4272	88.67	-0.2202	0.0235	0.2437	1236.433	0.193835	-367.213602	-367.204331	-367.203386	-367.246853	36.151	
C	-0.0727791089	 1.5694412959	-0.0157744179	-0.395692
C	 0.0205931774	 0.0364053522	 0.0017173019	-0.081896
C	 0.8146285066	-0.5392543856	-1.1712181293	-0.110481
N	 2.2290270151	-0.0929625687	-1.2176097566	-0.370627
C	 1.8800371859	-1.4307406591	-0.6436380813	 0.316858
C	 2.3685296685	-2.687512915	-1.3146514693	-0.495773
C	 1.7461286401	-1.3551327741	 0.8451125921	-0.226518
C	 0.7529363567	-0.5400055904	 1.2147832251	 0.318615
C	 0.3621665152	-0.1784266433	 2.6128585641	-0.491847
H	 0.9295138429	 2.004600887	-0.0415148858	 0.139329
H	-0.6180007704	 1.912745471	-0.9011994115	 0.107904
H	-0.6000115413	 1.9503756201	 0.8644735777	 0.108094
H	-1.0022459045	-0.3706470219	-0.02363541	 0.071761
H	 0.3098754527	-0.7455273246	-2.1102626546	 0.076789
H	 2.5661999429	-0.2297663087	-2.1705963993	 0.217206
H	 2.2800708919	-2.6147316389	-2.4038835783	 0.111443
H	 3.4213988207	-2.8796852302	-1.0764792034	 0.123883
H	 1.7907563941	-3.5587359315	-0.9873411197	 0.125106
H	 2.4063054244	-1.8846709935	 1.5242944651	 0.083171
H	 0.9442454937	-0.7406511126	 3.3481460688	 0.121515
H	 0.5158293215	 0.8897716947	 2.8096599922	 0.131576
H	-0.7022879253	-0.3780348626	 2.7934715702	 0.119582
126.0837	164.4205	190.6448	205.6868	225.9588	251.4499	262.1079	315.7211	391.8531	464.6468	497.9806	547.435	574.119	668.5678	727.9935	792.9908	825.2882	863.7849	890.3771	936.9727	965.2241	994.9839	1018.632	1034.0675	1048.2011	1076.9522	1103.2299	1117.9536	1122.4196	1157.0901	1173.8599	1266.2777	1302.7893	1331.642	1340.7084	1361.9718	1397.839	1410.4047	1413.766	1434.3677	1476.7796	1484.1699	1486.8819	1499.4835	1500.9054	1505.8829	1706.0352	2981.9978	3015.9562	3023.5444	3037.0532	3063.1245	3085.1308	3097.0748	3099.1729	3108.8169	3125.8954	3151.0976	3181.7894	3456.3006
CC1C2NC2(C)C=C1C	C[C@H]1[C@H]2N[C@@]2(C)C=C1C	
InChI=1S/C8H13N/c1-5-4-8(3)7(9-8)6(5)2/h4,6-7,9H,1-3H3	InChI=1S/C8H13N/c1-5-4-8(3)7(9-8)6(5)2/h4,6-7,9H,1-3H3/t6-,7-,8+/m1/s1
