18
gdb 55030	3.1614	1.17182	0.99632	4.5717	72.79	-0.2337	0.0308	0.2645	1209.8782	0.147875	-439.081446	-439.072822	-439.071878	-439.115201	32.372	
N	 0.5477062234	 0.1552764372	-0.8909470511	-0.540848
C	-0.2777231061	 0.28372344	 0.1888722804	 0.370246
O	-0.2177976229	 1.2392260258	 0.9432721365	-0.374565
C	-1.3292634912	-0.774227339	 0.409315121	-0.099122
C	-1.9563655853	-1.6033189695	-0.6946543469	-0.320655
C	-1.1245378487	-2.2858675358	 0.3474961411	-0.045188
C	 0.1728883472	-2.9536382575	 0.0112128926	 0.045415
C	 0.2410344255	-4.0025582618	-1.0194358306	-0.173997
O	 0.7603876605	-2.6931839472	-1.2697870613	-0.234738
H	 1.2984113208	 0.8249584584	-0.9451927596	 0.253878
H	 0.6576174937	-0.7190122726	-1.3815663452	 0.280542
H	-1.9939303832	-0.4467995749	 1.1998612466	 0.113968
H	-3.0321845079	-1.7358305379	-0.6829349031	 0.122553
H	-1.5232764626	-1.5096367698	-1.6844344722	 0.1343
H	-1.6608680546	-2.8257347292	 1.1246931792	 0.105939
H	 0.9037386305	-2.9953747028	 0.8193522049	 0.109921
H	 0.9921615199	-4.7868074502	-0.9510012707	 0.126045
H	-0.660155289	-4.2552987033	-1.5744062713	 0.126307
61.5175	89.1432	171.0996	187.1816	255.3325	292.2217	392.2128	459.723	506.9097	560.1428	580.7159	606.4069	726.9227	754.6364	791.0587	849.0149	862.3955	907.4099	949.167	983.3918	1036.002	1068.393	1075.4369	1101.5654	1130.5554	1142.1799	1152.5342	1168.8546	1173.3968	1222.9348	1288.6835	1349.9045	1395.8138	1402.5703	1433.6406	1491.0345	1520.2769	1637.3749	1780.2081	3095.3925	3108.9103	3134.3218	3140.2336	3186.9953	3188.8632	3227.7148	3567.9273	3701.1318
NC(=O)C1CC1C1CO1	NC(=O)[C@H]1C[C@H]1[C@H]1CO1	
InChI=1S/C6H9NO2/c7-6(8)4-1-3(4)5-2-9-5/h3-5H,1-2H2,(H2,7,8)	InChI=1S/C6H9NO2/c7-6(8)4-1-3(4)5-2-9-5/h3-5H,1-2H2,(H2,7,8)/t3-,4+,5-/m1/s1
