15
gdb 47995	3.06863	0.82692	0.68505	4.1462	85.91	-0.2583	-0.0595	0.1987	1571.8555	0.109747	-383.419447	-383.410231	-383.409286	-383.45475	32.194	
O	-0.114874966	-0.0308856573	 0.417187755	-0.234898
C	 0.0140032422	 1.0724447576	-0.0648661858	 0.018027
C	 1.2317321748	 1.8342019562	-0.0545452894	 0.021569
C	 2.2350632715	 2.5097089826	-0.0678373606	 0.138945
C	 3.4301134253	 3.2841896371	-0.0624260863	-0.205105
C	 3.8045772953	 4.1213759517	-1.2723526303	-0.288091
C	 3.361450879	 4.8290295445	-0.0188343378	-0.189607
C	 2.1012542817	 5.505040761	 0.0379930106	 0.337893
C	 1.0505504214	 6.0861021122	 0.0959895001	-0.448675
H	-0.8322944835	 1.5868925334	-0.564936104	 0.097079
H	 4.2569386518	 2.8578665409	 0.4971318657	 0.133144
H	 4.8543806561	 4.1637226903	-1.5378461814	 0.135484
H	 3.1130285941	 4.1136537777	-2.1052047061	 0.149033
H	 4.149635633	 5.2764292294	 0.5794607333	 0.130772
H	 0.1207422334	 6.5965956028	 0.146224477	 0.204429
48.3882	65.9541	110.6644	148.3161	202.2761	228.1563	276.6087	427.1928	485.5997	526.9636	578.3237	606.7998	658.6594	663.1183	757.53	768.6392	839.9167	896.8655	957.5123	1019.7154	1037.1076	1082.4113	1115.1779	1135.9568	1173.7702	1236.864	1378.6181	1391.6677	1421.8422	1478.2678	1762.021	2243.4771	2319.3465	2913.9187	3150.3678	3151.2907	3160.7924	3249.4445	3504.0035
O=CC#CC1CC1C#C	O=CC#C[C@H]1C[C@H]1C#C	
InChI=1S/C8H6O/c1-2-7-6-8(7)4-3-5-9/h1,5,7-8H,6H2	InChI=1S/C8H6O/c1-2-7-6-8(7)4-3-5-9/h1,5,7-8H,6H2/t7-,8+/m1/s1
