21
gdb 40100	3.20619	1.34805	1.13523	1.8901	81.37	-0.2525	0.0662	0.3187	1147.0092	0.184461	-387.074296	-387.06657	-387.065625	-387.106797	31.046	
C	-0.5172918673	 1.3236118798	 0.3139393456	-0.266293
O	 0.8366823282	 1.0455324749	-0.067674899	-0.273573
C	-0.0581754769	-0.0450861628	 0.0641929349	 0.456429
C	 0.1479603484	-1.1977712912	 1.0528842531	-0.34694
C	-0.4745391014	-2.1537575222	-0.0073415141	 0.000828
C	-1.9733425686	-2.4835485853	 0.1204678586	-0.219754
C	-2.5342399466	-2.2180473243	-1.2885076975	-0.188581
C	-1.8137915706	-0.9287133458	-1.7477502238	-0.233856
C	-0.4233553422	-1.0082935879	-1.0793462579	-0.093469
H	-0.6530664065	 1.6690826081	 1.3387305604	 0.110972
H	-1.1125852358	 1.8476257652	-0.4332455415	 0.113764
H	 1.2113257622	-1.3838714016	 1.2279159369	 0.113292
H	-0.3604856313	-1.1293029565	 2.0189680401	 0.100485
H	 0.1148935322	-3.0452536187	-0.230838381	 0.068563
H	-2.1584210369	-3.5026986877	 0.4719584614	 0.095935
H	-2.4492672624	-1.8043552935	 0.8396442398	 0.094885
H	-2.2646551003	-3.048230894	-1.9530585324	 0.098692
H	-3.6247072168	-2.1294833509	-1.3094713845	 0.093589
H	-1.7557199251	-0.850512523	-2.8367165024	 0.098339
H	-2.3604774683	-0.0472404306	-1.3941848724	 0.096348
H	 0.3966127657	-1.0925757219	-1.7966682144	 0.080344
51.3039	184.1283	220.2621	271.1171	330.2599	365.7926	470.7079	520.8737	555.0961	671.7818	755.4069	802.1859	826.2267	856.13	862.9808	884.9785	905.7148	919.7448	956.8707	978.091	995.8041	1038.7308	1051.5855	1071.2343	1120.467	1134.0386	1153.4422	1164.9903	1184.2889	1191.6518	1207.8629	1242.6692	1264.7847	1272.2362	1306.247	1321.8827	1329.8346	1343.76	1355.5596	1423.453	1476.5189	1489.3386	1490.4785	1505.1045	1531.3795	3023.6017	3031.8815	3041.3587	3052.2326	3070.7752	3074.2982	3076.7208	3086.4382	3090.4652	3098.42	3106.8583	3159.0637
C1OC11CC2CCCC12	C1O[C@]21C[C@H]1CCC[C@@H]21	
InChI=1S/C8H12O/c1-2-6-4-8(5-9-8)7(6)3-1/h6-7H,1-5H2	InChI=1S/C8H12O/c1-2-6-4-8(5-9-8)7(6)3-1/h6-7H,1-5H2/t6-,7-,8+/m1/s1
