16
gdb 18916	4.04786	2.34398	2.10213	1.405	65.92	-0.2258	0.0924	0.3182	719.5694	0.131719	-346.548709	-346.542761	-346.541817	-346.578378	24.606	
C	-0.0601132982	 1.5194983046	 0.0203292058	-0.518067
C	 0.0334568418	 0.0252577987	 0.0206165664	 0.310459
C	 0.0059307728	-0.8834169025	-1.1948891346	 0.022336
O	 0.9943915932	-1.8740536009	-1.1515797643	-0.228974
C	 1.0712036241	-2.1093653673	 0.2257880571	 0.078544
C	-0.2717565063	-1.936798387	 0.9114307227	-0.126271
C	 0.8010174063	-0.8569108931	 1.0343700302	-0.195421
C	-1.0353101919	-1.0649718711	-0.1015483026	-0.183523
H	 0.9249477381	 1.9776607007	-0.1301520186	 0.123682
H	-0.7149977745	 1.8704211269	-0.7843041738	 0.119462
H	-0.4651453224	 1.9003517109	 0.9648520236	 0.121578
H	-0.2344544515	-0.5303014649	-2.1890463646	 0.103982
H	 1.7931753972	-2.8608647726	 0.5150084766	 0.106973
H	-0.686574225	-2.6100238253	 1.6480576631	 0.090438
H	 1.3787898268	-0.5216091839	 1.884897771	 0.0879
H	-2.1051989805	-0.9980493833	-0.2436749779	 0.086902
203.0079	225.1254	275.9724	538.2262	588.5882	624.0873	709.0355	749.3081	761.1113	771.1823	830.6352	850.324	866.3453	898.2272	919.7812	968.5181	985.9649	996.0412	1023.6937	1035.6066	1046.0187	1079.3135	1111.3057	1123.8072	1177.69	1214.8093	1233.1364	1261.466	1287.7146	1375.348	1414.6536	1438.9677	1484.8614	1499.5794	3019.645	3078.4531	3092.3319	3201.7136	3204.5591	3212.5246	3214.2482	3225.0294
CC12C3OC4C(C14)C23	C[C@@]12[C@H]3O[C@@H]4[C@@H]([C@H]14)[C@@H]23	
InChI=1S/C7H8O/c1-7-3-2-4(7)6(7)8-5(2)3/h2-6H,1H3	InChI=1S/C7H8O/c1-7-3-2-4(7)6(7)8-5(2)3/h2-6H,1H3/t2-,3-,4+,5+,6-,7+/m0/s1
