21
gdb 40969	3.32812	1.21907	1.1027	0.6917	77.49	-0.247	0.0692	0.3162	1172.8773	0.184768	-424.212202	-424.204196	-424.203252	-424.245233	31.096	
C	 0.0365412926	 1.5519478706	-0.0638479076	-0.137043
O	 1.3905425263	 1.5997387298	 0.4283594229	-0.271737
C	 1.4750837522	 0.1634022207	 0.4819528387	-0.115612
C	 0.021003048	 0.0060699831	-0.0449796318	 0.30479
C	-0.9640846553	-0.6376898303	 0.9363039345	-0.27909
C	-0.8063633361	-2.160908983	 0.937551113	-0.079935
O	-0.9649042688	-2.7047546493	-0.3609700693	-0.241921
C	-0.0032201032	-2.1958816974	-1.2683141882	-0.079936
C	-0.1092930647	-0.6749108105	-1.4113747619	-0.279087
H	-0.668144631	 2.039526019	 0.6230642696	 0.095256
H	-0.0567121511	 2.0128770309	-1.0563254997	 0.095257
H	 2.2651650343	-0.2258692213	-0.173995161	 0.095296
H	 1.6546110265	-0.1992364096	 1.5028801569	 0.095295
H	-0.8147122412	-0.2450354535	 1.9492242249	 0.099089
H	-1.9902140766	-0.3889145009	 0.6367699052	 0.104314
H	 0.1840909149	-2.4355830933	 1.3424311843	 0.086564
H	-1.5650952372	-2.6355049189	 1.5660157091	 0.109265
H	 1.0128850862	-2.4716805544	-0.9338940228	 0.086564
H	-0.1852335202	-2.6955823649	-2.2238525905	 0.109266
H	-1.0852590042	-0.4283024701	-1.848667512	 0.104314
H	 0.6602573286	-0.3092666666	-2.1017337443	 0.09909
49.5475	126.9046	195.6163	289.366	303.0181	381.6657	402.9882	442.4435	483.1714	583.5335	660.7592	820.9395	847.7846	864.3121	876.6353	950.8122	962.4609	982.7888	984.4422	1014.6503	1019.8171	1043.9674	1062.3605	1135.587	1149.9267	1157.1418	1166.3653	1180.6583	1201.863	1252.1837	1297.9157	1303.2019	1314.111	1327.0631	1353.2148	1380.7438	1385.8175	1390.421	1424.3345	1469.0349	1481.8222	1492.4041	1504.8088	1514.2352	1537.8273	2945.9157	2951.7933	2993.1737	3004.061	3020.0874	3025.9121	3039.2503	3042.124	3067.1285	3069.1507	3086.059	3088.6029
C1OCC11CCOCC1	C1OCC21CCOCC2	
InChI=1S/C7H12O2/c1-3-8-4-2-7(1)5-9-6-7/h1-6H2	InChI=1S/C7H12O2/c1-3-8-4-2-7(1)5-9-6-7/h1-6H2
