16
gdb 22140	4.90935	0.53846	0.51231	2.2249	83.88	-0.2341	-0.041	0.1931	2068.2348	0.119761	-437.827991	-437.817541	-437.816597	-437.867374	34.667	
C	-0.3558778466	 1.4444273089	-0.0307306599	-0.477196
C	 0.0936301697	 0.0070077922	 0.0710749184	 0.198585
N	 0.3965040748	-0.576653303	 1.1796161618	-0.154628
O	 0.2495094231	 0.2971358494	 2.2557519082	-0.390275
C	 0.196512194	-0.7789397868	-1.1113673196	-0.003581
C	 0.2719308307	-1.3820492462	-2.1539876992	 0.137079
C	 0.3193570776	-2.1696329894	-3.3743747488	-0.424378
C	-0.6283479237	-3.3745263062	-3.3262263823	 0.171014
O	-1.2613222128	-3.7551441715	-4.2717871981	-0.227059
H	 0.4149637823	 2.1082338179	 0.3730501077	 0.151722
H	-0.5627028196	 1.7161052521	-1.0655366524	 0.132383
H	-1.254915628	 1.6000104642	 0.5736647341	 0.152318
H	 0.5001078793	-0.2557395088	 3.0039245892	 0.313202
H	 0.0765262123	-1.5786289674	-4.2632134627	 0.15764
H	 1.3329363612	-2.573730608	-3.5234687587	 0.160883
H	-0.6714242143	-3.8826539174	-2.3393855778	 0.10229
5.2796	46.3382	76.8236	83.6675	115.0759	185.5243	285.5781	298.9571	379.5027	409.014	440.1048	493.2507	543.3074	564.6579	581.4043	727.6307	776.3488	950.9689	1027.6669	1039.5826	1045.0278	1046.4507	1061.3681	1209.3966	1271.1125	1310.0025	1397.0394	1406.6722	1414.5559	1439.9649	1475.8158	1483.3844	1666.3261	1841.3982	2348.0592	2911.5211	2999.2591	3048.7816	3083.1298	3107.2163	3155.9272	3816.013
CC(=NO)C#CCC=O	CC(=NO)C#CCC=O	
InChI=1S/C6H7NO2/c1-6(7-9)4-2-3-5-8/h5,9H,3H2,1H3	InChI=1S/C6H7NO2/c1-6(7-9)4-2-3-5-8/h5,9H,3H2,1H3
