17
gdb 13401	5.84004	1.03096	0.94047	1.7098	64.72	-0.2498	0.018	0.2678	1206.6723	0.143231	-401.005453	-400.997408	-400.996464	-401.038873	28.296	
O	 0.0774042952	 1.4265764519	 0.07432171	-0.419953
C	 0.0596101958	 0.0063999006	 0.0603261937	-0.065926
C	-1.3614921719	-0.5582400805	 0.0007206004	-0.206084
C	-1.4049392602	-2.0880574818	 0.0478544626	 0.009843
C	-2.8427911184	-2.6783181196	 0.0225169098	-0.124609
O	-2.8457227307	-3.565709798	-1.1232624949	-0.219997
C	-1.6150843268	-3.4418010664	-1.6722251758	 0.124291
N	-0.751148538	-2.6857633238	-1.138695812	-0.271791
H	-0.2157901814	 1.7309396053	-0.7901683997	 0.280749
H	 0.656668974	-0.4019485495	-0.7655623304	 0.116213
H	 0.5426057486	-0.3041270884	 0.9939988267	 0.107702
H	-1.9388047571	-0.1499032814	 0.8394810199	 0.105036
H	-1.8530681994	-0.2207197836	-0.9225671028	 0.090227
H	-0.8622563353	-2.4278188824	 0.9392053782	 0.091444
H	-3.0950871086	-3.2660547479	 0.9081835322	 0.122602
H	-3.6143660933	-1.9177522021	-0.1345232304	 0.117671
H	-1.4666227023	-4.0343660923	-2.5685174575	 0.142583
59.8281	95.9839	113.0422	168.6992	293.4043	321.635	367.5109	425.7363	596.4653	729.0285	784.4543	858.4439	883.2643	950.8372	963.7192	966.2301	991.9292	1062.7416	1075.5641	1093.1538	1110.9844	1138.1295	1183.165	1229.6687	1281.1866	1308.3104	1316.4616	1329.105	1368.3131	1383.587	1404.6422	1422.0652	1480.212	1514.4101	1518.7971	1707.7544	3007.9439	3018.0686	3024.5965	3051.2096	3054.4889	3078.5859	3105.2509	3213.5991	3819.0327
OCCC1COC=N1	OCC[C@H]1COC=N1	
InChI=1S/C5H9NO2/c7-2-1-5-3-8-4-6-5/h4-5,7H,1-3H2	InChI=1S/C5H9NO2/c7-2-1-5-3-8-4-6-5/h4-5,7H,1-3H2/t5-/m0/s1
