16
gdb 25694	6.27879	0.74543	0.6719	1.0299	85.61	-0.2175	-0.0064	0.211	1661.8546	0.123234	-400.773276	-400.764107	-400.763163	-400.809411	31.396	
C	-0.0275304519	 1.4629013109	 0.0574485208	-0.511449
C	 0.0049688031	 0.0096406078	 0.0338334627	 0.255487
C	 0.0248637837	-1.1958114984	 0.0142309944	-0.146157
C	 0.0518617722	-2.6086156152	-0.0087182722	 0.103817
C	 1.1318105591	-3.4368153402	-0.0165148788	-0.13633
O	 0.6845390322	-4.7236449629	-0.0399234724	-0.166706
C	-0.6742846901	-4.6189427965	-0.0454334358	 0.380609
C	-1.4602556928	-5.879302428	-0.0702153244	-0.497685
N	-1.1059986187	-3.4005217249	-0.0278135207	-0.342414
H	 0.4797923673	 1.8880415294	-0.8159638775	 0.150618
H	-1.0590771224	 1.8313439358	 0.0545802472	 0.155482
H	 0.4644775513	 1.8589665542	 0.9530137653	 0.150624
H	 2.1969164942	-3.2864417635	-0.0083952605	 0.149273
H	-1.23702766	-6.4991424088	 0.8041884696	 0.147342
H	-2.5219646742	-5.6327659065	-0.0718128489	 0.160145
H	-1.2276632129	-6.4702488932	-0.9620098287	 0.147342
14.1598	85.9544	88.7929	109.1406	223.1736	280.0132	315.4613	364.8323	452.0256	478.3652	545.5165	658.217	708.4399	715.6565	772.3602	933.4491	942.1688	1032.0539	1051.6092	1052.1017	1063.3012	1066.8831	1146.3505	1219.9792	1298.5997	1335.31	1412.1741	1412.7759	1474.6837	1475.9428	1476.4192	1480.563	1604.8324	1632.1155	2366.3303	3025.1358	3045.3542	3083.5558	3090.7074	3100.3685	3159.7562	3298.7639
CC#CC1=COC(C)=N1	CC#Cc1coc(C)n1	
InChI=1S/C7H7NO/c1-3-4-7-5-9-6(2)8-7/h5H,1-2H3	InChI=1S/C7H7NO/c1-3-4-7-5-9-6(2)8-7/h5H,1-2H3
