19
gdb 126368	3.84354	0.92848	0.83588	1.6863	78.22	-0.2739	-0.0134	0.2605	1471.7584	0.159174	-419.236029	-419.226753	-419.225809	-419.271337	32.766	
C	 0.6235102084	 0.4554274768	-0.7234970569	-0.382442
C	-0.3280150311	 0.4988861245	 0.4851654519	-0.297321
C	 0.3165856886	 0.0231413772	 1.7421479883	 0.41597
N	 0.0520564865	-1.0418608722	 2.437767493	-0.350432
C	 0.9697167253	-0.9606303194	 3.46719975	 0.354349
C	 1.0698328936	-1.9813675511	 4.5529615442	-0.291401
C	 1.4204485182	-3.3769521841	 4.0138509355	-0.378859
N	 1.7519548883	 0.0848065342	 3.4096717057	-0.180224
O	 1.3185624331	 0.7526379699	 2.2523451934	-0.202984
H	 0.9636795577	-0.5660075473	-0.9162112132	 0.134133
H	 0.1119812176	 0.8197900848	-1.618261566	 0.125081
H	 1.5029241939	 1.0813324357	-0.5515077147	 0.141466
H	-0.6811283884	 1.524869692	 0.6391582795	 0.134284
H	-1.2035196889	-0.1310522838	 0.3134393029	 0.140019
H	 1.817981583	-1.6431199167	 5.2749179171	 0.128368
H	 0.1058638212	-2.0225677028	 5.0735199972	 0.12539
H	 0.6802424263	-3.7039073725	 3.2789805812	 0.14037
H	 2.4020504166	-3.3744540889	 3.5305011838	 0.126181
H	 1.4439861301	-4.1058420063	 4.8287431872	 0.118053
38.9458	63.8235	116.7164	169.2084	203.8054	222.095	303.7997	318.9962	435.8776	442.0992	602.4173	692.4387	744.8066	772.9113	794.9431	811.9638	923.0136	971.0797	976.1981	1017.1642	1042.206	1078.0704	1083.6583	1103.6411	1106.2488	1258.6547	1277.7645	1325.7633	1344.5244	1354.3489	1391.7126	1410.4421	1417.6336	1475.2461	1475.4326	1496.9239	1499.0271	1505.4658	1508.3469	1563.7555	1628.1381	3043.1324	3046.0335	3048.1531	3051.4143	3098.0146	3110.1783	3117.0907	3123.5712	3129.0546	3133.5736
CCC1=NC(CC)=NO1	CCc1nc(CC)no1	
InChI=1S/C6H10N2O/c1-3-5-7-6(4-2)9-8-5/h3-4H2,1-2H3	InChI=1S/C6H10N2O/c1-3-5-7-6(4-2)9-8-5/h3-4H2,1-2H3
