24
gdb 98189	2.92372	0.98367	0.89012	3.2073	86.63	-0.2377	0.0379	0.2756	1483.2448	0.214598	-405.593552	-405.581705	-405.580761	-405.631424	42.114	
C	-0.1114150457	 1.5704217125	 0.0996852118	-0.415205
C	-0.0257588833	 0.047105145	-0.0425581498	-0.160251
C	 0.7371117054	-0.4855106092	-1.2809662635	 0.120173
C	 0.0549583317	-0.0161851815	-2.5843530266	-0.414433
C	 2.2087342085	-0.0184610847	-1.2566856725	-0.414405
C	 0.6910792605	-2.0367285273	-1.2090759306	 0.410518
O	 0.133143108	-2.6362922334	-0.3056679666	-0.385696
N	 1.3203574454	-2.6925369458	-2.2300741134	-0.309861
C	 1.3721819463	-4.138350884	-2.3178919461	-0.334453
H	 0.873854523	 2.0389721717	 0.1876774314	 0.11337
H	-0.6311948094	 2.0410658648	-0.7407702857	 0.11336
H	-0.6700286618	 1.8253775898	 1.0057910182	 0.116239
H	 0.4440401125	-0.3764498737	 0.850403663	 0.107161
H	-1.0354114596	-0.3744713928	-0.0617985348	 0.107155
H	 0.0712408408	 1.0749718458	-2.658881812	 0.120937
H	 0.5550758085	-0.4048790276	-3.4770356582	 0.098541
H	-0.9894145944	-0.3425002886	-2.6215155279	 0.125377
H	 2.7105760331	-0.3461892839	-0.3405383327	 0.125368
H	 2.781008015	-0.4074828774	-2.1047608089	 0.098547
H	 2.2696766518	 1.0726371817	-1.3039527326	 0.120921
H	 1.7661380255	-2.1554424868	-2.9533295089	 0.241369
H	 2.4054872641	-4.5038141368	-2.3026803673	 0.12203
H	 0.8416244089	-4.5343666994	-1.4516042313	 0.171186
H	 0.8875429751	-4.5022532884	-3.2313004551	 0.12205
31.343	53.9313	79.84	113.4361	173.0596	191.9739	236.2534	241.3536	289.3209	300.0196	328.3657	359.9644	374.7767	375.0796	484.9555	486.254	621.8887	763.4857	771.1903	778.8432	859.6492	932.7304	943.3561	1002.4385	1021.6188	1043.6901	1059.3424	1084.6249	1154.0699	1166.8786	1199.0727	1209.6739	1248.6266	1270.4073	1317.8199	1367.3	1399.9703	1409.3959	1424.7455	1437.0549	1472.5733	1481.1773	1487.6065	1490.3734	1501.8037	1506.1131	1508.0135	1510.0133	1510.8472	1558.6456	1765.1794	3023.3033	3033.7983	3035.665	3040.5976	3054.8074	3072.7957	3083.12	3097.4024	3100.2828	3102.4191	3107.9142	3112.5394	3113.0534	3155.654	3664.1681
CCC(C)(C)C(=O)NC	CCC(C)(C)C(=O)NC	
InChI=1S/C7H15NO/c1-5-7(2,3)6(9)8-4/h5H2,1-4H3,(H,8,9)	InChI=1S/C7H15NO/c1-5-7(2,3)6(9)8-4/h5H2,1-4H3,(H,8,9)
