18
gdb 35789	3.67425	1.19736	0.99748	4.9434	76.03	-0.2638	0.0185	0.2822	1183.7591	0.149308	-401.948696	-401.940929	-401.939985	-401.981093	30.04	
N	 0.0321433926	-1.1485217511	-0.0748811827	-0.315539
C	 0.0324014678	 0.0051859302	-0.0282121632	 0.280249
C	-0.0274216227	 1.4717286884	 0.0396963953	-0.010815
C	-0.8470297251	 1.9505464188	 1.2488767855	-0.220126
C	-0.9704867199	 3.4819324916	 1.1962412724	-0.24993
C	 0.3280735434	 4.1622276367	 0.7937861328	-0.039667
C	 1.6300950785	 3.9521009861	 1.5356760248	-0.304166
C	 1.4317232182	 3.3411167866	 0.1742620234	 0.095418
O	 1.3099731708	 1.9409156517	 0.1150763936	-0.2621
H	-0.5086992436	 1.8269584769	-0.8869636947	 0.114556
H	-1.8372078754	 1.485912132	 1.2405297199	 0.123043
H	-0.3340156949	 1.6143172461	 2.1557084448	 0.127751
H	-1.7345662281	 3.7401103153	 0.4521893381	 0.109252
H	-1.3305710136	 3.864793282	 2.1575160039	 0.11287
H	 0.1944413788	 5.1524097705	 0.3683661088	 0.096071
H	 2.3040156291	 4.7950310275	 1.6399785504	 0.117406
H	 1.6429703761	 3.2548294316	 2.3662984114	 0.124769
H	 1.981647008	 3.7380350992	-0.6748951844	 0.100957
88.3403	152.3896	168.0727	283.2662	331.5286	378.9219	448.2731	483.1133	548.7296	557.0427	646.3144	747.7699	817.6888	823.6631	861.3813	916.5951	950.4081	973.8448	1034.7409	1043.2533	1048.6681	1087.6589	1098.8193	1121.3656	1128.4385	1184.5442	1216.1559	1247.3837	1249.0861	1319.378	1345.4785	1366.5901	1372.9981	1391.2303	1409.7941	1478.4055	1482.3259	1497.0741	2369.699	2968.0046	3025.409	3053.3645	3067.2881	3103.6125	3135.491	3138.0762	3150.8698	3226.031
N#CC1CCC2CC2O1	N#C[C@H]1CC[C@H]2C[C@H]2O1	
InChI=1S/C7H9NO/c8-4-6-2-1-5-3-7(5)9-6/h5-7H,1-3H2	InChI=1S/C7H9NO/c8-4-6-2-1-5-3-7(5)9-6/h5-7H,1-3H2/t5-,6+,7+/m0/s1
