24
gdb 121937	2.8647	0.80467	0.6834	2.5289	86.56	-0.235	0.0819	0.3169	1768.19	0.216019	-405.522581	-405.51168	-405.510736	-405.559733	38.856	
C	-0.0334462989	 1.4820364869	 0.0770523948	-0.383011
C	-0.3160968334	 0.0503237453	 0.5386821928	-0.183837
C	-1.5516020589	-0.5406696624	-0.1276792074	-0.039585
O	-1.7241154367	-1.8660232854	 0.3368070633	-0.267678
C	-2.9268088416	-2.5078260643	-0.063243745	 0.103194
C	-2.8830878695	-2.9722230212	-1.5223509871	-0.398903
C	-3.1553043401	-3.6783037858	 0.8794253037	 0.009592
C	-2.0160622519	-4.4627290088	 1.4108611512	-0.233365
N	-2.7945058683	-3.5709699757	 2.2963745563	-0.334089
H	 0.8559202379	 1.8846475083	 0.569899024	 0.119568
H	 0.1374869624	 1.5264626268	-1.0041779759	 0.117372
H	-0.8711469326	 2.1494365085	 0.3077243272	 0.117667
H	 0.5406206345	-0.5964610194	 0.3172844037	 0.107996
H	-0.4568345856	 0.0217963965	 1.6253980728	 0.105247
H	-2.4435745504	 0.0628973828	 0.1118378728	 0.08711
H	-1.432301678	-0.5211047009	-1.2224028367	 0.090634
H	-3.7632853236	-1.797775477	 0.0616360111	 0.069638
H	-2.0388703169	-3.6503942176	-1.677305751	 0.127024
H	-3.8054261526	-3.5036039323	-1.7782686084	 0.118994
H	-2.7854037233	-2.1293950119	-2.2124269744	 0.116121
H	-4.0997922941	-4.188896357	 0.7004077576	 0.086812
H	-2.1315938009	-5.5243777137	 1.6099559651	 0.110196
H	-1.0168264084	-4.1484197566	 1.1271038197	 0.120798
H	-2.2607614691	-2.7101809551	 2.4066007098	 0.232505
43.5221	62.9053	93.1298	114.9509	147.3183	208.7961	217.5807	231.3618	257.7865	340.6874	393.2479	429.5469	496.4125	615.5814	764.3982	771.8919	854.0662	884.3636	902.218	912.2078	929.0857	970.912	982.6059	1044.3882	1064.8572	1079.1715	1112.0016	1121.5319	1147.277	1152.0069	1165.9338	1192.7235	1221.4809	1270.0194	1285.1716	1314.118	1317.0192	1333.4885	1355.4596	1375.0692	1399.5612	1413.0864	1421.2966	1440.9835	1489.1875	1492.0809	1495.1251	1499.7183	1500.5587	1507.9772	1528.9591	2945.8183	2960.824	2993.3597	3032.697	3038.2031	3040.4595	3071.5753	3100.6612	3109.0182	3110.045	3115.4199	3119.5838	3125.2712	3206.7	3487.0176
CCCOC(C)C1CN1	CCCO[C@@H](C)[C@H]1CN1	
InChI=1S/C7H15NO/c1-3-4-9-6(2)7-5-8-7/h6-8H,3-5H2,1-2H3	InChI=1S/C7H15NO/c1-3-4-9-6(2)7-5-8-7/h6-8H,3-5H2,1-2H3/t6-,7+/m0/s1
