17
gdb 30514	2.47192	1.64951	1.00154	0.3727	81.65	-0.2249	-0.0474	0.1775	1162.1	0.135948	-418.046012	-418.037339	-418.036395	-418.079889	31.045	
C	-0.0008821326	 1.4508140566	-0.0144975632	-0.322843
N	-0.0072321003	-0.0006239528	 0.0172062736	-0.316622
C	 0.5326341719	-0.645276795	-0.9261970412	 0.358706
O	 1.1364463198	 0.0357976371	-2.0011778285	-0.228306
C	 1.7101231114	-0.6595613877	-3.0031580611	 0.128936
N	 1.7807900909	-1.926399629	-3.1098097858	-0.281147
C	 1.2001088329	-2.6551804483	-2.0751773869	-0.087634
C	 0.5897567498	-2.0985432941	-1.0062987509	 0.19021
C	-0.033323562	-2.8855562825	 0.1045253541	-0.476022
H	 1.0189977451	 1.8584613525	-0.0334267642	 0.122282
H	-0.5183141826	 1.8459060231	-0.8993077076	 0.122334
H	-0.506100643	 1.8294655336	 0.8767282143	 0.121937
H	 2.1289195441	 0.0070425987	-3.7513034487	 0.142431
H	 1.2672512734	-3.7338244033	-2.1784242046	 0.115425
H	 0.0721849646	-3.959032269	-0.0710135176	 0.119127
H	 0.4283225761	-2.6319931276	 1.0642985107	 0.145555
H	-1.0957684495	-2.6406994124	 0.2031667976	 0.145632
52.8564	115.1912	168.6898	194.9565	196.5074	254.3352	299.484	441.1318	492.8889	532.5137	577.5984	599.5484	726.115	758.4124	874.7558	923.6258	960.0357	1002.3065	1046.2998	1059.6866	1070.4118	1090.8429	1109.212	1167.3053	1214.7623	1277.5314	1406.9893	1407.9104	1418.3666	1439.2362	1466.4993	1481.6311	1487.4575	1499.0548	1629.0967	1681.8204	1755.3485	3000.5174	3040.5124	3049.4821	3097.4491	3109.9224	3125.4353	3179.58	3191.0316
CN=C1OC=NC=C1C	CN=c1ocncc1C	
InChI=1S/C6H8N2O/c1-5-3-8-4-9-6(5)7-2/h3-4H,1-2H3	InChI=1S/C6H8N2O/c1-5-3-8-4-9-6(5)7-2/h3-4H,1-2H3
