22
gdb 64466	2.5379	1.41168	1.16222	2.0516	83.91	-0.2356	0.0258	0.2614	1181.5298	0.194715	-404.364731	-404.355627	-404.354683	-404.398304	35.421	
C	 0.2643792963	 1.4968653904	 0.0643083526	-0.390576
C	-0.1530171253	 0.0155287308	-0.01910266	 0.255685
C	-1.6956955839	-0.0636987331	-0.0326818522	-0.390975
C	 0.4397603404	-0.5731375585	-1.3195323581	-0.207358
C	 0.2297819406	-2.0700048205	-1.5443552668	-0.232462
C	 1.0562294364	-2.9275512663	-0.5993486125	-0.058342
O	 0.624909458	-2.9419814767	 0.7634624472	-0.230337
C	 0.5384879315	-1.800126177	 1.5018956164	 0.111192
N	 0.27865731	-0.5981034448	 1.2365362338	-0.265173
H	 1.3541322762	 1.5859228535	 0.1131160167	 0.110466
H	-0.0885178392	 2.0551450288	-0.8090264107	 0.101453
H	-0.1496935271	 1.9544681949	 0.9661577646	 0.11867
H	-2.1001786134	 0.4749919015	-0.8960459501	 0.107729
H	-2.0481302486	-1.0978500972	-0.0736354201	 0.116454
H	-2.0974030797	 0.388142337	 0.877773858	 0.125063
H	 0.0127654167	-0.0142879248	-2.1608996191	 0.09429
H	 1.5188307367	-0.3675306595	-1.3320947917	 0.092024
H	-0.8271383392	-2.3478656549	-1.4650202031	 0.110657
H	 0.5418538314	-2.3258170102	-2.5648034417	 0.101435
H	 1.0215178928	-3.9785276026	-0.8985554115	 0.113764
H	 2.1063736031	-2.6018897294	-0.6287493544	 0.103381
H	 0.7049387559	-2.0739116317	 2.5460640427	 0.112961
52.8213	147.4138	221.7335	258.3231	277.2971	303.6346	309.265	345.1549	393.3155	408.9415	438.2527	533.9052	577.2364	682.0978	779.0131	818.3364	850.73	877.2844	934.0066	941.4466	962.5666	984.9202	990.8807	1024.3954	1076.4564	1085.1006	1155.0667	1182.8569	1188.8535	1233.0091	1259.6345	1299.7836	1326.2707	1376.5295	1392.0422	1392.504	1414.8677	1422.3905	1443.7495	1470.4188	1475.6981	1485.1809	1490.0165	1494.7223	1501.7083	1510.9587	1759.3055	3002.5102	3012.4459	3031.0462	3034.6715	3040.6681	3056.4558	3077.0976	3092.9992	3105.4846	3110.3289	3112.0278	3119.8804	3124.1
CC1(C)CCCOC=N1	CC1(C)CCCOC=N1	
InChI=1S/C7H13NO/c1-7(2)4-3-5-9-6-8-7/h6H,3-5H2,1-2H3	InChI=1S/C7H13NO/c1-7(2)4-3-5-9-6-8-7/h6H,3-5H2,1-2H3
