18
gdb 78899	3.02942	2.03903	1.62711	1.7271	72.76	-0.2224	0.0603	0.2827	876.8678	0.149825	-401.887746	-401.881318	-401.880374	-401.918225	27.039	
C	-0.0540589875	 1.5190873828	 0.0206634145	-0.403381
C	 0.013946707	-0.002212133	-0.058239426	 0.047085
C	 0.8108487412	-0.5252310183	-1.2526807408	 0.063612
O	 0.5580407019	-1.9566873722	-1.3688757795	-0.307941
C	 1.6686059297	-2.1863678571	-0.4857214564	 0.100398
C	 1.3978981859	-1.8268640678	 1.0000187428	-0.076102
C	 2.1643412077	-0.5372678997	 0.8546214701	-0.086209
C	 2.248912181	-0.772454596	-0.677691685	-0.117313
N	 0.7375096102	-0.5178604758	 1.1310382232	-0.113686
H	 0.9483238676	 1.9605191051	-0.0130741737	 0.116885
H	-0.6318499936	 1.9249672933	-0.815378814	 0.116065
H	-0.5263457266	 1.8303433086	 0.9559963146	 0.13095
H	-0.9901156548	-0.4366514575	-0.0758730456	 0.094724
H	 0.6651355991	-0.0046047943	-2.2021173139	 0.07872
H	 2.2077862939	-3.1170826685	-0.6708483413	 0.083791
H	 1.3074187948	-2.5139844881	 1.8339288774	 0.094528
H	 2.8729275314	-0.0433035113	 1.5075383108	 0.09552
H	 3.134861481	-0.5539106703	-1.2656438874	 0.082353
173.7056	214.0407	284.2363	386.9352	461.9052	569.0639	678.7771	703.0022	736.5811	761.2651	807.0722	849.3366	857.4472	883.6903	906.0953	917.8976	930.8042	967.3965	982.6122	1011.0415	1023.7756	1035.7507	1058.4104	1108.2408	1128.3528	1145.1982	1188.4621	1207.3213	1211.0077	1243.3624	1265.4524	1288.3014	1293.8276	1326.8809	1348.0352	1368.4098	1407.1377	1489.424	1497.9792	3035.9204	3070.3274	3084.1494	3099.5088	3104.9997	3121.9289	3166.0482	3170.6854	3193.5875
CC1C2OC3C4C(C23)N14	C[C@H]1[C@@H]2O[C@@H]3[C@H]4[C@@H]([C@H]23)N14	
InChI=1S/C7H9NO/c1-2-6-3-4-5(8(2)4)7(3)9-6/h2-7H,1H3	InChI=1S/C7H9NO/c1-2-6-3-4-5(8(2)4)7(3)9-6/h2-7H,1H3/t2-,3+,4+,5+,6-,7-,8?/m0/s1
