16
gdb 61752	2.94542	1.00195	0.85065	2.8556	67.8	-0.2596	-0.1131	0.1465	1335.3237	0.121277	-475.065704	-475.056043	-475.055099	-475.101187	32.984	
C	 0.0592764857	 1.449703062	-0.3181755305	-0.41701
C	-0.1067566673	-0.0443981486	 0.0466351384	-0.053198
N	 0.6339428158	-0.411756145	 1.2343659112	-0.287133
C	 1.9791023869	-0.5892988332	 1.2218552892	 0.156577
O	 2.6875478542	-0.4133815588	 0.2517059955	-0.327612
C	-1.5664135713	-0.3782271224	 0.2787218641	 0.287483
O	-2.0243021049	-0.6769930693	 1.3591858423	-0.292725
C	-2.5202748256	-0.3479411358	-0.9226585737	 0.096869
O	-2.1661959379	-0.1483664918	-2.05350493	-0.211579
H	 1.1235955601	 1.6422475583	-0.4630609555	 0.167407
H	-0.4719236924	 1.6834359585	-1.2427516327	 0.147088
H	-0.3122176303	 2.088189375	 0.48873134	 0.124037
H	 0.2529814008	-0.6330457646	-0.8062436867	 0.141833
H	 0.092348182	-0.6254635269	 2.0595692856	 0.261822
H	 2.3659041079	-0.9130448481	 2.2076845867	 0.085531
H	-3.5704381839	-0.5589413194	-0.6328586238	 0.12061
52.9043	71.1334	131.0864	140.582	206.8538	225.1869	243.7656	281.6339	299.6496	433.1261	510.6225	550.9181	611.2325	646.7503	718.0707	862.4091	901.6176	976.2575	1033.6049	1074.0778	1086.8386	1114.4511	1174.4829	1227.4563	1312.6683	1355.9316	1367.1147	1395.0797	1424.3181	1483.0823	1506.2603	1520.7627	1786.2606	1802.6081	1825.8085	2935.943	2947.0763	3045.2791	3054.7336	3135.9472	3153.2778	3607.6239
CC(NC=O)C(=O)C=O	C[C@@H](NC=O)C(=O)C=O	
InChI=1S/C5H7NO3/c1-4(6-3-8)5(9)2-7/h2-4H,1H3,(H,6,8)	InChI=1S/C5H7NO3/c1-4(6-3-8)5(9)2-7/h2-4H,1H3,(H,6,8)/t4-/m1/s1
