15
gdb 133643	3.39432	0.78272	0.73375	4.062	55.32	-0.2627	0.0182	0.2809	1471.9585	0.108513	-585.484878	-585.475697	-585.474753	-585.520766	31.397	
F	 0.4839344678	 0.1140740462	 0.117384241	-0.081509
C	-0.1540637682	 1.29542619	 0.0997062923	 0.288034
F	 0.7292362083	 2.2144970668	-0.3367489144	-0.09086
F	-1.1300990835	 1.2147472272	-0.8150943921	-0.075388
C	-0.7014281806	 1.6584151768	 1.4625900711	-0.326141
C	 0.4067649521	 1.7413419914	 2.5241319769	-0.174398
N	-0.0960690297	 2.1592404025	 3.8224231142	-0.27334
C	-0.7866544917	 1.3121282293	 4.6302728694	 0.150433
O	-1.0518526676	 0.1621622103	 4.3490121224	-0.320733
H	-1.2205602745	 2.6164270638	 1.3667196213	 0.125804
H	-1.4295158131	 0.8982012921	 1.7537545963	 0.162555
H	 0.8710262079	 0.757723891	 2.6323278144	 0.154175
H	 1.1773412025	 2.448998744	 2.2100349979	 0.125407
H	 0.0509735088	 3.1073928742	 4.1272454028	 0.254185
H	-1.0807027585	 1.7902609244	 5.5853514465	 0.081777
36.9221	55.6607	100.1988	142.8818	199.3296	264.79	357.4984	367.097	393.0426	496.0512	539.0819	557.7726	660.6666	733.1958	825.9462	860.8756	973.3118	1026.5702	1032.5363	1053.2526	1170.3563	1184.6108	1226.8448	1266.0242	1285.6455	1344.551	1355.145	1415.4745	1427.2551	1475.0766	1487.8264	1525.2118	1802.3719	2942.4232	3067.4145	3077.0341	3116.7698	3138.6622	3646.3717
FC(F)(F)CCNC=O	FC(F)(F)CCNC=O	
InChI=1S/C4H6F3NO/c5-4(6,7)1-2-8-3-9/h3H,1-2H2,(H,8,9)	InChI=1S/C4H6F3NO/c5-4(6,7)1-2-8-3-9/h3H,1-2H2,(H,8,9)
