22
gdb 58936	3.3379	1.24618	1.14871	1.8489	84.9	-0.2188	0.0789	0.2976	1196.0699	0.194505	-367.141849	-367.133254	-367.13231	-367.174985	33.848	
C	 0.0718602103	 1.4267293292	-0.293138759	-0.385754
C	-0.0312687837	-0.0609468966	 0.0820354084	-0.099774
C	 0.6545067428	-0.3416882006	 1.4289346558	-0.391131
C	-1.468093589	-0.520046884	 0.0799369979	 0.375262
C	-2.5958861395	-0.2142490592	 1.0591216694	-0.235886
N	-3.3800311187	-1.3817250156	 0.49024557	-0.171555
C	-3.6806041066	-0.8785609195	-0.9095893651	-0.179393
C	-2.1965535889	-0.9460930341	-1.2191335457	-0.144701
C	-2.0357436264	-1.9030193726	-0.0713584854	-0.102105
H	 1.1166672075	 1.7520127064	-0.3261625358	 0.109718
H	-0.3772809719	 1.6213572488	-1.2718068133	 0.115013
H	-0.4468514339	 2.0518847709	 0.4427885359	 0.115659
H	 0.4977086947	-0.6404189908	-0.6883233398	 0.071885
H	 0.5942121963	-1.4021046326	 1.6927213814	 0.114705
H	 1.7117033461	-0.0595291066	 1.3935497394	 0.110309
H	 0.1871411498	 0.2317720718	 2.2372724958	 0.11639
H	-2.3265224054	-0.4359653112	 2.0952476614	 0.105897
H	-3.1180771478	 0.7491652775	 1.0138696273	 0.092883
H	-4.2600447825	-1.6338088915	-1.4476793741	 0.107564
H	-4.2067656729	 0.08280147	-0.9448777244	 0.094668
H	-1.6793378875	-0.9492073755	-2.1713589113	 0.085799
H	-1.6509116528	-2.9077463042	 0.0350235013	 0.094548
63.5585	141.337	184.8392	227.6552	258.704	302.2963	342.9822	448.856	473.0647	501.371	606.5316	729.0994	777.2518	832.3427	835.7882	848.0766	902.9565	909.5664	927.5108	935.8374	964.0427	974.5055	1011.0379	1017.3588	1071.7677	1088.2853	1101.4425	1117.0629	1140.6877	1159.331	1178.5015	1192.3353	1217.3527	1250.7537	1284.1257	1313.2843	1339.5947	1350.6965	1397.0003	1415.1106	1426.9226	1487.049	1491.9188	1501.632	1503.8783	1511.9822	1522.216	2998.0188	3022.4521	3027.841	3031.389	3034.7466	3090.5231	3093.2735	3095.5029	3099.6495	3104.7498	3106.8865	3181.3414	3212.0052
CC(C)C12CN3CC1C23	CC(C)[C@@]12CN3C[C@@H]1[C@@H]23	
InChI=1S/C8H13N/c1-5(2)8-4-9-3-6(8)7(8)9/h5-7H,3-4H2,1-2H3	InChI=1S/C8H13N/c1-5(2)8-4-9-3-6(8)7(8)9/h5-7H,3-4H2,1-2H3/t6-,7+,8+/m1/s1
