21
gdb 109876	2.20776	1.55762	1.07228	2.5945	79.31	-0.2383	0.0798	0.3181	1216.2032	0.179716	-424.185776	-424.175929	-424.174985	-424.220271	36.027	
C	-0.0388296967	 1.4227642306	-0.0836607714	-0.238983
O	-0.0647773643	 0.0606262423	 0.2851291472	-0.24031
C	-1.2938678919	-0.566839432	 0.0589585131	 0.070714
C	-1.5918493278	-1.2487151647	-1.3475377524	-0.066685
C	-0.4905107074	-1.2373608709	-2.3982420549	-0.400639
C	-1.7793138436	-2.5602560054	-0.5678632284	-0.055387
O	-0.5307161095	-2.8343271991	 0.0785399508	-0.282761
C	-1.4442998135	-1.9373105981	 0.7291144738	 0.393075
C	-1.8352781065	-2.2315694569	 2.1405987031	-0.511849
H	 0.9553207675	 1.8047021864	 0.1604090337	 0.129535
H	-0.2176886317	 1.5676562298	-1.1585220584	 0.11023
H	-0.7901422812	 2.0058446232	 0.4720951996	 0.103644
H	-2.1268685828	 0.0945593983	 0.3441440005	 0.063853
H	-2.5388083908	-0.8817246191	-1.7563302925	 0.068587
H	 0.4485455851	-1.5860412278	-1.9646805934	 0.145529
H	-0.7498175522	-1.8916441571	-3.2379194138	 0.110158
H	-0.3321151444	-0.231766401	-2.8003028565	 0.110592
H	-2.4230238182	-3.4053861936	-0.786894711	 0.097685
H	-1.0314506224	-1.9460416058	 2.8279031914	 0.139406
H	-2.7336525193	-1.6722802804	 2.4215483801	 0.120514
H	-2.0304853685	-3.2994897586	 2.2685483895	 0.133093
97.8681	112.1279	153.8684	183.2734	188.2986	208.4515	224.3762	241.1746	333.0008	347.4344	494.0406	544.1918	582.2271	700.4879	734.2522	803.8403	859.8991	890.7817	906.26	984.3289	993.7742	1031.1862	1064.7422	1076.0113	1109.8306	1139.2645	1161.1611	1181.2172	1198.9177	1214.5857	1232.5542	1265.2173	1296.577	1352.9446	1378.2997	1404.815	1406.7241	1466.1345	1480.6735	1484.0465	1487.9384	1492.9669	1496.4493	1500.9041	1508.9997	2974.6969	2983.2079	3030.6425	3036.0266	3038.1364	3057.5728	3096.9133	3098.8739	3116.2115	3121.2454	3139.2784	3177.411
COC1C(C)C2OC12C	CO[C@H]1[C@@H](C)[C@H]2O[C@@]12C	
InChI=1S/C7H12O2/c1-4-5(8-3)7(2)6(4)9-7/h4-6H,1-3H3	InChI=1S/C7H12O2/c1-4-5(8-3)7(2)6(4)9-7/h4-6H,1-3H3/t4-,5+,6-,7+/m1/s1
