23
gdb 122171	3.22308	0.79557	0.71039	2.3509	84.16	-0.252	0.0848	0.3368	1724.0184	0.201996	-425.411513	-425.400412	-425.399468	-425.448391	39.407	
C	-0.3036213975	 1.5022401951	 0.2417343372	-0.386124
C	 0.0558183882	 0.0462953188	-0.0005069203	-0.022174
O	 0.6660332403	-0.4668584035	 1.1655869487	-0.246167
C	 1.0391204568	-1.8227107856	 1.0499214078	-0.119238
C	 1.6828735246	-2.2628692643	 2.3480000623	 0.376539
C	 2.7613991077	-1.3389092696	 2.8721587736	-0.459496
O	 0.779638423	-2.7657175543	 3.3495875914	-0.295338
C	 1.6926606915	-3.6852533113	 2.7416736786	 0.025646
C	 1.1157890217	-4.8383333969	 1.9569465311	-0.427988
H	 0.5926374127	 2.0864720337	 0.4691253869	 0.125814
H	-0.7814268327	 1.9296254795	-0.6448719924	 0.1143
H	-0.993264556	 1.5905104538	 1.0858091296	 0.130525
H	-0.8463026751	-0.5396076501	-0.2459450675	 0.08712
H	 0.7415811124	-0.0468786024	-0.8605389961	 0.083277
H	 0.1595384674	-2.4435640035	 0.8315237577	 0.09226
H	 1.7572332732	-1.952190647	 0.2196539027	 0.083249
H	 2.3505790685	-0.3414471174	 3.0428216988	 0.144802
H	 3.1668219136	-1.7219463108	 3.8115679147	 0.120121
H	 3.5790183864	-1.2464619259	 2.1485079768	 0.113512
H	 2.5124836327	-3.9786177808	 3.4030735659	 0.080218
H	 0.2947779894	-4.5299893461	 1.3078037685	 0.127488
H	 1.8918490935	-5.3078019814	 1.3423815877	 0.121189
H	 0.7317738875	-5.5993077797	 2.644638946	 0.130467
46.4638	72.7972	107.5537	134.6815	169.9486	189.6429	219.8693	238.1259	245.0554	298.1227	366.5993	416.0927	456.8383	489.7374	540.5437	733.5031	780.9269	821.777	897.5055	907.5482	953.3128	968.8285	1003.107	1043.4029	1091.1607	1115.8493	1131.6865	1146.2437	1165.1685	1175.8692	1192.0639	1262.3038	1293.28	1298.4353	1342.8907	1391.5587	1406.2402	1407.9905	1412.0178	1449.3272	1464.4362	1478.9876	1483.0856	1488.1107	1497.8114	1498.7582	1503.6292	1520.3781	1534.4533	2939.6638	2952.9825	2975.2419	3023.6004	3039.0896	3041.756	3045.1947	3067.8539	3097.4958	3112.2454	3119.2252	3122.4266	3136.8667	3138.577
CCOCC1(C)OC1C	CCOC[C@@]1(C)O[C@H]1C	
InChI=1S/C7H14O2/c1-4-8-5-7(3)6(2)9-7/h6H,4-5H2,1-3H3	InChI=1S/C7H14O2/c1-4-8-5-7(3)6(2)9-7/h6H,4-5H2,1-3H3/t6-,7+/m0/s1
