19
gdb 67783	2.68348	2.33007	1.62704	0.2971	81.63	-0.2313	0.0164	0.2477	886.0277	0.161342	-348.710648	-348.704088	-348.703144	-348.740922	28.621	
C	-0.0112942919	 1.4778490753	 0.0308742871	-0.49729
C	-0.0077204857	-0.0357413489	-0.0517490117	 0.320327
C	 0.3605713506	-0.6773627723	-1.3694548828	-0.140001
C	-0.1327489807	-1.9216719791	-1.4068011269	-0.096578
C	-0.8470001599	-2.1882618148	-0.1077328786	-0.085593
C	 0.0932693088	-2.1755155792	 1.1436376851	-0.082482
C	-0.6715195758	-1.0691312947	 1.8223745789	-0.113961
C	 0.6527488491	-0.7575917206	 1.1763343274	-0.102546
C	-1.3027145888	-0.7892501132	 0.4119336518	-0.097133
H	 0.9917576014	 1.8880748259	-0.1344473877	 0.112066
H	-0.6774092917	 1.9126560703	-0.7225444396	 0.113932
H	-0.3476786952	 1.814257993	 1.0176252262	 0.11641
H	 0.9979358818	-0.2123746702	-2.1137917407	 0.088402
H	 0.0317543019	-2.6573175318	-2.1855725728	 0.092318
H	-1.5892947253	-2.9866242224	-0.0873385974	 0.061925
H	 0.6204303221	-3.0105284894	 1.5867426995	 0.083204
H	-1.0337264613	-0.9536971484	 2.8328425825	 0.086438
H	 1.6013530125	-0.5233632138	 1.6433967525	 0.078606
H	-2.2917169718	-0.3892115155	 0.1878142071	 0.061956
233.2295	263.2457	268.0271	377.2477	432.8858	533.3189	613.2659	672.821	721.9536	732.3818	804.8594	810.3526	816.4499	830.5247	852.8412	875.4088	911.0508	934.2722	944.9977	958.0822	980.4451	1011.4765	1021.1724	1030.0282	1040.5379	1086.2505	1127.1449	1151.9662	1161.7337	1192.0652	1205.5605	1223.3892	1244.3114	1276.6147	1293.2681	1355.6507	1370.1012	1411.5535	1492.4389	1495.6324	1637.1567	3022.6747	3085.9255	3094.3927	3106.3141	3116.3128	3179.6758	3187.1109	3197.4135	3206.9292	3228.2911
CC12C=CC3C4C(C14)C23	C[C@@]12C=C[C@H]3[C@@H]4[C@@H]([C@H]14)[C@@H]23	
InChI=1S/C9H10/c1-9-3-2-4-5-6(7(4)9)8(5)9/h2-8H,1H3	InChI=1S/C9H10/c1-9-3-2-4-5-6(7(4)9)8(5)9/h2-8H,1H3/t4-,5+,6+,7-,8+,9-/m0/s1
