16
gdb 69798	2.67475	1.9011	1.30404	3.8346	68.22	-0.2331	-0.042	0.1911	963.8813	0.123974	-437.852739	-437.845181	-437.844237	-437.884621	29.09	
C	-0.034705712	 1.5572167288	 0.0224361112	-0.486533
C	 0.1493919407	 0.0694461006	 0.0347585972	 0.26069
O	-0.7368839418	-0.7114477061	 0.8624011569	-0.257984
C	 0.6572599221	-0.7766490085	 1.1358709395	-0.021407
C	 1.3347328517	-2.0200151981	 0.5612678852	-0.084233
N	 0.389533907	-2.9264756789	-0.1045468408	-0.30712
C	 1.185282995	-1.9690631496	-0.9195941032	-0.171772
C	 0.5075050799	-0.6561938762	-1.2653151098	 0.410185
O	 0.4224657663	-0.1761672907	-2.3670562216	-0.311943
H	 0.8767852499	 2.0594851566	-0.315368662	 0.131927
H	-0.8386086836	 1.8312567938	-0.6671426624	 0.148028
H	-0.2904101064	 1.9139075326	 1.0228632345	 0.130794
H	 0.9814500104	-0.3657302759	 2.0883113767	 0.104732
H	 2.2261543024	-2.4088067921	 1.0400854849	 0.100812
H	 0.827403305	-3.8414377335	-0.2034789375	 0.241815
H	 1.9208449432	-2.3473351928	-1.6203710888	 0.112009
120.5284	161.7362	211.0887	246.5937	287.6721	369.5175	460.8704	544.7848	585.625	636.5696	691.3984	767.7187	809.4532	827.5639	858.6102	879.7238	917.2961	944.2973	1001.3246	1023.6952	1053.2149	1087.3435	1111.1288	1147.5845	1168.7708	1231.183	1278.6712	1297.5816	1356.255	1396.9818	1407.0334	1443.33	1477.6607	1490.4757	1838.8387	3046.6603	3114.4657	3132.5288	3149.8403	3177.3816	3186.0349	3479.0864
CC12OC1C1NC1C2=O	C[C@]12O[C@H]1[C@H]1N[C@H]1C2=O	
InChI=1S/C6H7NO2/c1-6-4(8)2-3(7-2)5(6)9-6/h2-3,5,7H,1H3	InChI=1S/C6H7NO2/c1-6-4(8)2-3(7-2)5(6)9-6/h2-3,5,7H,1H3/t2-,3+,5+,6-/m1/s1
