20
gdb 72606	2.11648	1.90917	1.63371	1.6963	78.16	-0.2329	0.0677	0.3005	981.7768	0.170258	-403.096447	-403.087916	-403.086972	-403.128946	33.595	
C	-0.0225394444	 1.5846227657	-0.0814048249	-0.489086
C	 0.0153375088	 0.0835835626	 0.0533373447	 0.300143
C	 0.8575046902	-0.7249113392	-0.9704140434	-0.258154
C	 1.5855352208	-1.472200817	 0.1868268855	-0.297846
C	 0.6849658476	-0.7460382433	 1.2147814862	 0.346013
O	 1.2907383605	-0.1195894222	 2.3115075612	-0.481746
C	-0.674538508	-1.4072872891	 1.3970205951	-0.095579
C	-1.7068143811	-0.3825704168	 1.6405427562	-0.26018
N	-1.300182106	-0.6216029403	 0.2453053368	-0.151019
H	 0.992747225	 1.9921177506	-0.1104413871	 0.123721
H	-0.5288259947	 1.8633205008	-1.0129806735	 0.124934
H	-0.549471155	 2.0640035469	 0.7480582177	 0.12191
H	 0.2428425145	-1.3493154807	-1.6209904656	 0.112901
H	 1.5188564679	-0.110450506	-1.5851165783	 0.10097
H	 1.5403353563	-2.5650407399	 0.1805081417	 0.093936
H	 2.6276980202	-1.1613618719	 0.2947464008	 0.103324
H	 1.7054721889	-0.794318451	 2.8614766475	 0.276675
H	-0.8559553212	-2.4718710073	 1.516449135	 0.085489
H	-2.7154133297	-0.7272383322	 1.8449574499	 0.118722
H	-1.4303920107	 0.5427811505	 2.1388085943	 0.124872
139.2686	158.6322	177.3151	187.4689	282.5774	292.2984	345.8474	396.5588	484.4864	535.2088	587.168	655.7597	691.4266	755.7329	777.6877	792.0643	885.3699	910.0446	945.8832	952.4907	962.0467	1027.789	1044.9469	1059.6092	1107.198	1116.9009	1147.4136	1177.8219	1200.5888	1212.8343	1221.5906	1236.8652	1256.6498	1269.1009	1303.6404	1338.7453	1386.2296	1410.7206	1471.2699	1481.3856	1490.6659	1491.6001	1500.3514	3032.5838	3052.9164	3071.1228	3099.7224	3104.8539	3111.8326	3118.3311	3132.2015	3148.082	3206.1787	3787.4795
CC12CCC1(O)C1CN21	C[C@@]12CC[C@]1(O)[C@H]1CN21	
InChI=1S/C7H11NO/c1-6-2-3-7(6,9)5-4-8(5)6/h5,9H,2-4H2,1H3	InChI=1S/C7H11NO/c1-6-2-3-7(6,9)5-4-8(5)6/h5,9H,2-4H2,1H3/t5-,6-,7+,8?/m1/s1
