19
gdb 72772	2.76091	1.71126	1.46124	1.2627	81.01	-0.2289	0.0088	0.2377	980.5249	0.160681	-385.856022	-385.84866	-385.847716	-385.887239	30.755	
O	-0.2558421049	 1.4194769685	-0.1634988858	-0.492343
C	-0.0232033062	 0.0186380456	-0.0692028053	 0.40471
C	-1.2274027383	-0.5997939844	 0.7203342654	-0.267203
C	-0.357209499	-0.5433785979	 2.0345735166	-0.318739
C	 0.8271170276	-0.4261439654	 1.0978687069	 0.199783
C	 1.9587949754	-1.0277995426	 0.7233116158	-0.234713
C	 2.0452655034	-1.0606261436	-0.7757796016	-0.070899
C	 1.0238819383	-1.9928842645	-1.4026312433	-0.286931
C	 0.6959461642	-0.529263103	-1.2909925955	-0.14597
H	 0.6050437866	 1.8451833883	-0.2488640379	 0.27452
H	-2.1354857801	 0.0053379403	 0.7059542104	 0.112603
H	-1.4474660345	-1.6248711629	 0.4175853209	 0.108488
H	-0.5609352125	 0.3686491791	 2.6017297233	 0.120313
H	-0.3882964043	-1.4027344148	 2.7075261485	 0.107118
H	 2.6407421321	-1.5884816757	 1.3540618346	 0.095961
H	 2.979166773	-0.8851811035	-1.2994790798	 0.085649
H	 1.2308368441	-2.3653834461	-2.4011775341	 0.110777
H	 0.5205860945	-2.7034118101	-0.7546483641	 0.110408
H	 0.6424726706	 0.0519335727	-2.2043971049	 0.086468
164.113	204.5805	242.9486	339.6796	362.9587	407.6527	449.3783	501.8674	595.3093	652.9187	695.4422	749.8579	790.2264	799.9865	845.7935	856.9368	897.9552	909.2751	941.271	978.4722	1000.616	1011.182	1049.4858	1073.3925	1075.4885	1099.4182	1118.3751	1161.7287	1169.5456	1186.6466	1211.9084	1231.5201	1253.0171	1301.7914	1329.7985	1348.4548	1357.5338	1460.9245	1476.3117	1480.1869	1698.9122	3063.6782	3076.7988	3115.9127	3121.6671	3145.0086	3160.6361	3178.5975	3184.2398	3208.2394	3793.2744
OC12CCC1=CC1CC21	O[C@]12CC[C]1[CH][C@H]1C[C@@H]21	
InChI=1S/C8H10O/c9-8-2-1-6(8)3-5-4-7(5)8/h3,5,7,9H,1-2,4H2	InChI=1S/C8H10O/c9-8-2-1-6(8)3-5-4-7(5)8/h3,5,7,9H,1-2,4H2/t5-,7+,8+/m0/s1
