21
gdb 98077	3.21348	0.95508	0.82121	0.8374	82.01	-0.2259	-0.0544	0.1715	1499.9905	0.180454	-420.439888	-420.428776	-420.427832	-420.477007	38.806	
C	-0.0296630055	 1.3899854637	 0.0914340857	-0.308189
N	-0.0151562748	-0.0376622334	-0.1224801425	-0.281942
C	 0.591159451	-0.6023932861	-1.1928829004	 0.255391
N	 1.2280133327	 0.10429476	-2.0589399596	-0.542616
C	 0.4080227216	-2.126096157	-1.2073700717	 0.353067
O	-0.2943697501	-2.6419726956	-0.3633725979	-0.330952
C	 1.1422055891	-2.9474633626	-2.2594365499	-0.088294
C	 2.6247558474	-3.0797492044	-1.841288388	-0.395058
C	 0.4829876918	-4.3164848852	-2.4456201604	-0.390793
H	 0.9909605693	 1.7827140143	 0.1557233989	 0.140901
H	-0.5278808076	 1.9139987523	-0.7333918815	 0.135381
H	-0.55572204	 1.6057157036	 1.0233639065	 0.120469
H	-0.5417818565	-0.6626873991	 0.4653304814	 0.261098
H	 1.6231054626	-0.4793848622	-2.7903663256	 0.216437
H	 1.1035637907	-2.3987694401	-3.2081275405	 0.094203
H	 2.7068583006	-3.6306932498	-0.8987843479	 0.13223
H	 3.1798300362	-3.6309537699	-2.6058720368	 0.125615
H	 3.0984781028	-2.1037213801	-1.7085530838	 0.133921
H	-0.5543938072	-4.2169837834	-2.7769041398	 0.122379
H	 1.0283594975	-4.8996729364	-3.1933732359	 0.111102
H	 0.4765661785	-4.8726986286	-1.5049358603	 0.135651
38.9629	65.4278	82.0829	117.1327	165.0833	203.5803	223.0082	244.2572	292.9429	303.4541	360.1211	414.0982	456.8032	505.201	514.4818	677.4868	786.1685	800.5502	825.9872	882.5624	934.2155	969.7331	976.732	1092.6103	1101.9526	1138.5973	1161.2531	1182.9719	1193.6938	1207.5461	1306.3845	1317.3522	1377.533	1397.8318	1418.5465	1455.374	1471.9271	1485.9155	1488.4657	1499.4402	1512.4237	1513.8898	1557.2903	1691.5074	1780.478	3024.3677	3033.5275	3040.119	3046.713	3074.9065	3112.2369	3116.403	3122.4636	3127.7274	3131.4843	3536.9737	3650.3736
CNC(=N)C(=O)C(C)C	CNC(=N)C(=O)C(C)C	
InChI=1S/C6H12N2O/c1-4(2)5(9)6(7)8-3/h4H,1-3H3,(H2,7,8)	InChI=1S/C6H12N2O/c1-4(2)5(9)6(7)8-3/h4H,1-3H3,(H2,7,8)
