24
gdb 122533	4.94766	0.57254	0.54862	1.2682	88.47	-0.244	0.0801	0.3241	2154.8389	0.215784	-405.521153	-405.510119	-405.509175	-405.558696	38.908	
C	-0.2057852208	 1.5220253744	-0.4780971216	-0.384386
C	-0.0464365541	 0.0726061269	-0.0507212599	-0.023511
O	-1.3274582185	-0.5145188639	 0.03529267	-0.247285
C	-1.2942976107	-1.8708318306	 0.4287066091	-0.056165
C	-2.7130704004	-2.372770167	 0.4814731084	-0.040179
N	-3.2543036769	-3.0054347944	-0.7330590882	-0.334583
C	-3.0953616895	-3.8105106107	 0.4904737467	-0.001081
C	-2.1262547669	-4.9721380843	 0.4319064162	-0.183146
C	-2.7495770372	-6.2006989471	-0.2401770921	-0.375864
H	 0.7713946756	 2.0085105832	-0.5531058102	 0.112499
H	-0.6999019293	 1.5812572436	-1.4519594201	 0.12789
H	-0.8128856182	 2.0711390451	 0.2473744214	 0.124141
H	 0.5773678934	-0.4777949947	-0.775699176	 0.085422
H	 0.4677807427	 0.0106272066	 0.9244241689	 0.081104
H	-0.7054037921	-2.4668023467	-0.2839700252	 0.094276
H	-0.8194873381	-1.9679996256	 1.4216197666	 0.079957
H	-3.3704785958	-1.6980903208	 1.028265576	 0.086538
H	-4.2246037082	-2.7394365464	-0.87359543	 0.229888
H	-4.0067652541	-4.0368327881	 1.0462814445	 0.076304
H	-1.2286299923	-4.6728758021	-0.1174442026	 0.104251
H	-1.8076871984	-5.2242718245	 1.4518681609	 0.094274
H	-2.0419780275	-7.0343390586	-0.2805709289	 0.110344
H	-3.6374223098	-6.5433044972	 0.3035294773	 0.109134
H	-3.0540882931	-5.9614882971	-1.2636829213	 0.130178
40.1184	69.0898	85.4019	89.0236	135.6359	175.9341	219.9337	246.6192	263.5177	311.7538	402.2183	450.4859	478.0701	573.0333	756.4685	816.101	821.7392	840.4844	887.0309	915.0052	948.2428	994.3251	1013.0201	1038.8378	1056.8577	1078.6106	1112.6021	1141.0957	1158.6041	1163.4519	1188.1282	1215.8263	1252.7451	1274.2733	1283.2141	1296.4845	1306.3556	1342.4331	1369.001	1400.0476	1404.6983	1419.4509	1448.9921	1476.3099	1483.6352	1494.07	1497.9481	1499.5132	1506.1494	1508.8857	1535.1945	2941.4277	2952.3201	2972.4916	3010.5771	3026.472	3031.9512	3044.4723	3075.6569	3090.0496	3103.7813	3112.5019	3118.4614	3119.942	3121.3329	3510.1346
CCOCC1NC1CC	CCOC[C@H]1N[C@H]1CC	
InChI=1S/C7H15NO/c1-3-6-7(8-6)5-9-4-2/h6-8H,3-5H2,1-2H3	InChI=1S/C7H15NO/c1-3-6-7(8-6)5-9-4-2/h6-8H,3-5H2,1-2H3/t6-,7+/m0/s1
