15
gdb 81107	2.69147	1.75657	1.33851	3.607	66.76	-0.2575	-0.0429	0.2145	946.9659	0.111311	-457.713575	-457.706184	-457.705239	-457.745591	28.59	
O	-0.0027505195	 1.3430494563	-0.1786888421	-0.426798
C	 0.019605275	-0.0267068668	-0.0761249277	 0.153413
C	-0.0007153122	-0.6334804946	 1.3809207718	-0.046296
O	-1.4238739	-0.2725129329	 1.4295234611	-0.324472
C	-1.4280376283	-0.7378584725	 0.0439341929	 0.239328
C	-2.560098817	-0.2888903068	-0.8129207248	 0.036842
O	-3.2929615955	 0.6245284115	-0.5334813751	-0.242512
C	-1.0009944552	-2.1948091713	 0.156461532	-0.140008
C	-0.0360416646	-2.12404838	 1.0818635677	-0.085167
H	-0.6795468553	 1.6559958573	 0.4407533255	 0.302078
H	 0.7266045831	-0.4325230214	-0.8015481434	 0.104858
H	 0.5943566006	-0.2285027471	 2.1977730249	 0.094948
H	-2.6470134215	-0.8416582202	-1.7757690426	 0.084273
H	-1.382832256	-3.0299094021	-0.4118565524	 0.125419
H	 0.6030470364	-2.8909873292	 1.4930289222	 0.124095
69.1926	184.1036	222.7975	271.0639	371.3555	454.179	492.2078	532.807	584.3396	645.0963	708.4483	713.5688	726.332	824.5593	851.837	903.0266	908.6278	923.6741	987.5916	1034.3411	1071.2851	1077.5882	1138.9128	1170.7443	1185.9781	1264.6055	1270.6989	1307.7952	1322.5605	1423.0544	1429.6185	1599.5774	1823.6145	2876.4587	3116.6224	3144.1856	3235.3232	3260.4981	3731.5824
OC1C2OC1(C=O)C=C2	O[C@H]1[C@H]2O[C@]1(C=O)C=C2	
InChI=1S/C6H6O3/c7-3-6-2-1-4(9-6)5(6)8/h1-5,8H	InChI=1S/C6H6O3/c7-3-6-2-1-4(9-6)5(6)8/h1-5,8H/t4-,5-,6-/m0/s1
