17
gdb 15048	3.09147	1.56693	1.16786	4.0173	68.2	-0.2814	0.0302	0.3116	1051.495	0.141188	-363.857344	-363.848789	-363.847845	-363.890849	30.124	
C	 0.051048728	 1.4393860918	 0.2510251966	-0.402082
C	 0.074275345	-0.0663523064	-0.0131529448	-0.172503
C	 0.7043736057	-0.4529505151	-1.3743652153	-0.177899
C	 2.0951630376	 0.0027707437	-1.4612555689	 0.300467
N	 3.1877169369	 0.3726684193	-1.5324442795	-0.341983
C	 0.5840965763	-1.9545163122	-1.6147169369	 0.082114
C	 1.623615827	-2.7813867466	-2.2363108912	-0.190237
O	 1.4042363905	-2.7989801256	-0.8195456814	-0.226584
H	 1.062492421	 1.8563125362	 0.2633746718	 0.146633
H	-0.5220105791	 1.9702486023	-0.5172567034	 0.117765
H	-0.4119163365	 1.6519193094	 1.218702154	 0.124281
H	 0.625120139	-0.5885220948	 0.7755170843	 0.136444
H	-0.9466164859	-0.4658474029	-0.0041647111	 0.106476
H	 0.1487650856	 0.0555822872	-2.1750220067	 0.127615
H	-0.4541979952	-2.281442343	-1.6977279378	 0.102928
H	 1.3363845839	-3.6901591157	-2.7623021291	 0.121687
H	 2.5586714504	-2.3247215376	-2.5519946207	 0.144877
69.3261	103.5228	141.2704	186.7252	190.3075	259.059	330.6283	396.9837	435.5649	569.7098	655.161	755.0614	797.84	869.4056	896.2903	936.7453	974.2465	1039.5103	1059.1953	1089.516	1128.1429	1143.2739	1169.0084	1176.8653	1264.4955	1290.465	1302.4438	1357.6994	1367.7855	1417.3606	1429.0204	1488.8631	1499.0469	1506.4934	1528.1868	2358.2141	3017.7279	3037.2817	3040.1866	3085.0634	3091.972	3098.9325	3109.4857	3118.9949	3191.1602
CCC(C#N)C1CO1	CC[C@@H](C#N)[C@H]1CO1	
InChI=1S/C6H9NO/c1-2-5(3-7)6-4-8-6/h5-6H,2,4H2,1H3	InChI=1S/C6H9NO/c1-2-5(3-7)6-4-8-6/h5-6H,2,4H2,1H3/t5-,6+/m0/s1
