16
gdb 124119	3.62845	0.96069	0.76418	3.3956	85.18	-0.195	0.0252	0.2203	1451.5767	0.125496	-396.93268	-396.92357	-396.922626	-396.967763	32.271	
C	 0.0023304436	 1.4852022927	 0.0057309385	-0.510689
C	 0.0126202561	 0.0303594558	-0.0209246931	 0.230452
C	 0.0042236436	-1.1777061962	-0.048707698	-0.189984
C	 0.0213341333	-2.58786214	-0.0767090244	 0.098842
C	 1.1577120567	-3.3940601981	-0.0079477642	 0.255415
N	 2.5012077624	-3.0482997172	 0.0189649299	-0.618549
N	 0.7212275874	-4.6727726481	-0.0512260441	-0.244427
N	-0.636151824	-4.7757937939	-0.1419767318	-0.229436
C	-1.0503281836	-3.5218540203	-0.1624311751	-0.127281
H	 0.6404142226	 1.9084565605	-0.7788387055	 0.145196
H	-1.010982488	 1.8707270902	-0.1534854308	 0.151483
H	 0.3546139896	 1.877343104	 0.9671377521	 0.14357
H	 2.6125096161	-2.0493193433	 0.1430992076	 0.262181
H	 3.0474613785	-3.5478383816	 0.7100402925	 0.251892
H	 1.2784744021	-5.5093082754	-0.0767336232	 0.270401
H	-2.1051646565	-3.2995950192	-0.2279373103	 0.110933
28.8885	80.4963	108.2355	229.0197	252.464	261.2395	300.9676	375.9173	450.963	468.9022	496.3832	559.0261	659.6273	697.0785	725.6195	775.4642	889.243	935.5671	999.3504	1050.87	1053.6609	1088.0156	1115.468	1206.5757	1264.8887	1351.8746	1383.2616	1414.3845	1466.705	1475.3504	1480.1183	1568.368	1613.8752	1657.4252	2349.4091	3019.8307	3074.5995	3084.0156	3248.7428	3528.0589	3619.1867	3677.2638
CC#CC1=C(N)NN=C1	CC#Cc1c(N)[nH]nc1	
InChI=1S/C6H7N3/c1-2-3-5-4-8-9-6(5)7/h4H,1H3,(H3,7,8,9)	InChI=1S/C6H7N3/c1-2-3-5-4-8-9-6(5)7/h4H,1H3,(H3,7,8,9)
