20
gdb 114556	2.66348	1.50704	1.17247	0.6383	74.8	-0.2188	0.0664	0.2852	1117.5482	0.171576	-440.231832	-440.223468	-440.222523	-440.264576	32.641	
C	 0.0241221145	 1.2966855877	-0.1014198865	-0.239133
O	-0.0114516993	-0.0690131768	 0.239839484	-0.248811
C	-1.3000660297	-0.6355761928	 0.1658009522	 0.116947
C	-1.741613351	-1.0577887513	-1.2749267163	-0.206722
N	-1.8435358398	-2.5480252725	-1.1647507952	-0.126379
C	-0.5894625716	-2.843738992	-0.3672438848	-0.242418
C	-1.2865791396	-2.0438682718	 0.774272794	 0.350758
O	-0.9520942251	-2.0663509383	 2.1192510165	-0.480854
C	-2.5818698061	-2.6428643781	 0.1542260102	-0.245135
H	 1.0558139436	 1.6350861614	 0.0209946885	 0.128262
H	-0.2831837402	 1.4765069429	-1.143449846	 0.103857
H	-0.6262021117	 1.8952091552	 0.5556875115	 0.106751
H	-2.0256341196	 0.0163206832	 0.6744981544	 0.066961
H	-2.7066594657	-0.6479871607	-1.5834588487	 0.104079
H	-0.985178488	-0.786651983	-2.0158991934	 0.113023
H	-0.5188747611	-3.9167911582	-0.169004768	 0.096386
H	 0.341039501	-2.4602875344	-0.7890050779	 0.118727
H	-0.9091662036	-2.983273484	 2.4090061707	 0.282611
H	-3.5202014706	-2.082374007	 0.2080431427	 0.101133
H	-2.7482892764	-3.6897619496	 0.423327582	 0.099958
96.3194	147.0957	185.0518	249.8021	285.6425	311.2645	376.9005	426.3751	475.6901	492.3187	573.2923	630.4923	688.32	834.8888	851.7721	866.5436	895.6662	958.6995	973.4701	1009.9871	1021.2787	1046.6328	1069.7308	1117.6478	1132.0624	1166.366	1184.781	1206.6547	1210.8303	1214.1005	1229.5037	1251.5199	1260.4403	1312.3942	1329.1122	1374.7797	1422.7006	1482.8664	1487.1283	1490.1844	1492.8521	1509.4199	1530.3375	2971.2336	2994.137	3017.0884	3045.2215	3059.6487	3064.8667	3107.4469	3114.299	3115.6772	3134.7344	3815.9087
COC1CN2CC1(O)C2	CO[C@H]1CN2C[C@]1(O)C2	
InChI=1S/C6H11NO2/c1-9-5-2-7-3-6(5,8)4-7/h5,8H,2-4H2,1H3	InChI=1S/C6H11NO2/c1-9-5-2-7-3-6(5,8)4-7/h5,8H,2-4H2,1H3/t5-/m0/s1
