23
gdb 112716	2.722	1.18723	1.08905	2.5369	81.7	-0.247	0.0702	0.3172	1278.4198	0.206059	-425.436627	-425.427037	-425.426093	-425.47099	36.671	
C	-0.7227088082	 0.7636175204	-0.021839442	-0.243958
O	-0.1260496986	-0.4966366716	-0.2466185937	-0.255111
C	 0.9029760624	-0.4940775654	-1.2494221876	 0.112551
C	 1.6808179921	-1.822399049	-1.1024127407	-0.249786
C	 1.2147474069	-2.7462006058	-2.2647054483	 0.02298
C	 1.0112786428	-4.2070028568	-1.8708046779	-0.401339
C	-0.0537868495	-2.0468425238	-2.8195628834	 0.13409
O	-1.2351490284	-2.3831710869	-2.1063599249	-0.448477
C	 0.2969500043	-0.5581675979	-2.6654006739	-0.265378
H	 0.0271722114	 1.5057558693	 0.2902368686	 0.111533
H	-1.243190969	 1.1497557743	-0.9093420956	 0.114279
H	-1.4509784526	 0.6359996098	 0.782591832	 0.131593
H	 1.5360788806	 0.3895967159	-1.0936731784	 0.063796
H	 2.7602106922	-1.6521197471	-1.1331030918	 0.099848
H	 1.4497140875	-2.2499595432	-0.1226357684	 0.11467
H	 1.9680642528	-2.6993674839	-3.0623943503	 0.065
H	 0.2118680097	-4.2958775188	-1.1304657779	 0.124744
H	 0.728526709	-4.8155322292	-2.7363199317	 0.11028
H	 1.9269662126	-4.6322623004	-1.446640751	 0.104286
H	-0.2439767893	-2.3315386754	-3.8592147163	 0.06903
H	-1.1799378998	-1.9404552636	-1.2475738436	 0.284939
H	-0.5681857125	 0.0961102008	-2.8011925394	 0.102508
H	 1.0566789637	-0.2704841118	-3.4018883738	 0.097921
55.3221	105.7475	167.979	216.642	231.1474	253.6874	297.502	332.2972	371.3525	406.7033	450.6086	519.6227	564.7894	667.6162	768.0417	806.5964	819.0317	846.3106	903.7934	942.7026	961.4256	989.4717	1005.2651	1035.0609	1079.8105	1112.9541	1122.5112	1162.034	1184.6055	1198.1302	1200.9993	1225.0323	1253.2028	1274.5093	1311.6318	1323.9668	1336.2539	1363.8905	1371.0929	1388.5732	1409.8286	1460.8877	1468.9707	1482.4569	1484.7446	1492.6167	1493.5718	1501.3668	1510.1307	2986.5576	3008.535	3010.367	3034.7259	3038.4894	3043.481	3059.9959	3066.1165	3096.2556	3102.0352	3104.6828	3117.324	3119.8234	3728.6304
COC1CC(C)C(O)C1	CO[C@H]1C[C@@H](C)[C@@H](O)C1	
InChI=1S/C7H14O2/c1-5-3-6(9-2)4-7(5)8/h5-8H,3-4H2,1-2H3	InChI=1S/C7H14O2/c1-5-3-6(9-2)4-7(5)8/h5-8H,3-4H2,1-2H3/t5-,6+,7+/m1/s1
