19
gdb 17570	3.44246	2.30308	1.89627	1.5718	74.31	-0.2261	0.092	0.3181	799.8894	0.16785	-327.875144	-327.868666	-327.867722	-327.905153	27.447	
C	-0.0350734913	 1.5291007835	 0.0594343876	-0.503844
C	 0.0421249869	 0.020465791	 0.0800774786	 0.326948
C	 0.854161571	-0.8213581496	-0.9812912805	-0.238256
C	 0.6762903097	-1.9224599467	 0.1045886046	 0.006322
C	 0.8640620944	-0.7762422039	 1.1339889812	-0.28543
N	-0.7938268208	-2.185356083	-0.0470548423	-0.109931
C	-1.6469115708	-1.7429939371	 1.071243189	-0.258778
C	-1.2751114649	-0.776851994	 0.0057390705	-0.055459
H	 0.962942063	 1.9778218699	 0.0294126081	 0.114841
H	-0.5870948596	 1.8841226767	-0.8186661624	 0.117246
H	-0.5486820505	 1.911059068	 0.9489088802	 0.11941
H	 0.3824504966	-1.0113567544	-1.9487123277	 0.10001
H	 1.8850010671	-0.480562264	-1.1056691995	 0.091324
H	 1.2641848459	-2.8390290102	 0.1276647553	 0.070794
H	 1.9025320437	-0.4402805278	 1.1615460499	 0.097339
H	 0.497214142	-0.8733511425	 2.1566424069	 0.092442
H	-2.6420989327	-2.1786231311	 1.0362532939	 0.114177
H	-1.2462768627	-1.6552237458	 2.0744294527	 0.114105
H	-2.008519477	-0.4720860289	-0.7381074061	 0.08674
215.0244	242.153	289.9544	384.242	434.5651	554.3	564.7688	587.5125	651.1531	747.5545	787.7976	826.4094	841.2543	867.2773	910.682	952.003	973.7434	984.121	1016.0742	1036.5886	1042.2502	1078.6295	1107.6487	1112.0527	1131.1775	1153.9364	1190.6886	1217.1735	1231.5504	1244.2776	1256.3745	1274.3641	1289.3346	1381.9763	1414.0291	1475.7069	1492.6035	1493.4912	1501.881	1543.2399	3025.015	3058.5024	3077.6724	3087.1528	3098.0771	3118.6914	3123.6937	3124.4578	3127.8789	3130.5276	3206.4227
CC12CC(C1)N1CC21	C[C@@]12C[C@@H](C1)N1C[C@@H]21	
InChI=1S/C7H11N/c1-7-2-5(3-7)8-4-6(7)8/h5-6H,2-4H2,1H3	InChI=1S/C7H11N/c1-7-2-5(3-7)8-4-6(7)8/h5-6H,2-4H2,1H3/t5-,6-,7+,8?/m0/s1
