19
gdb 22108	2.47865	1.03028	0.81884	3.156	75.29	-0.2376	-0.005	0.2326	1429.1042	0.157097	-456.346674	-456.336014	-456.33507	-456.384257	37.398	
C	-1.2619714685	 0.8196904884	-0.311251332	-0.378725
C	 0.1091082369	 0.1618384199	-0.0649028032	-0.267473
C	 0.4997471932	-0.7608761456	-1.1924855242	 0.344662
C	 0.2383075844	-2.2379855078	-1.0504780989	-0.366378
C	 1.2412832745	-2.9325720578	-0.1104804445	 0.377964
N	 2.5433550633	-2.716036398	-0.4452197084	-0.501777
O	 0.8953759132	-3.6237449187	 0.8256019006	-0.357107
N	 1.0597872512	-0.3952870489	-2.2847005116	-0.190251
O	 1.2902246086	 0.9916233417	-2.3217251344	-0.396358
H	-1.2364515188	 1.4236280363	-1.2213733423	 0.138922
H	-2.0511820891	 0.068935536	-0.4191011753	 0.121585
H	-1.5291006043	 1.4690686977	 0.5273822405	 0.119991
H	 0.8696987731	 0.9401915889	 0.038101598	 0.129155
H	 0.0836132353	-0.4116606236	 0.8673326563	 0.119189
H	-0.7536550554	-2.4203264281	-0.6311249329	 0.134081
H	 0.2997621185	-2.7111053194	-2.0350320764	 0.135568
H	 2.7940627849	-2.1094830733	-1.2076625381	 0.268414
H	 3.264808654	-3.1420985557	 0.111704584	 0.261762
H	 1.6863875448	 1.1073306179	-3.191646667	 0.306775
21.2966	48.0369	65.4756	118.4004	218.3896	225.3438	239.0512	314.0827	319.798	367.7255	407.3166	425.3638	513.8721	568.5863	612.1953	657.1376	737.7451	799.7448	808.014	875.6794	929.9004	987.9453	1002.364	1064.8301	1096.6055	1108.1765	1183.1111	1249.3709	1290.7865	1299.6007	1348.7004	1355.8318	1403.6967	1408.35	1464.4416	1485.3781	1499.2875	1509.0463	1614.5863	1718.7008	1808.9704	3042.7363	3052.4256	3064.1863	3098.5188	3114.0429	3123.7312	3131.0318	3598.7487	3736.2949	3822.8816
CCC(CC(N)=O)=NO	CCC(=NO)CC(=O)N	
InChI=1S/C5H10N2O2/c1-2-4(7-9)3-5(6)8/h9H,2-3H2,1H3,(H2,6,8)	InChI=1S/C5H10N2O2/c1-2-4(7-9)3-5(6)8/h9H,2-3H2,1H3,(H2,6,8)
