18
gdb 56849	3.04987	1.17261	1.0097	4.92	75.62	-0.2538	0.0378	0.2916	1213.4548	0.14745	-401.915952	-401.907448	-401.906504	-401.949633	31.417	
C	-0.210744672	 1.6695321831	-0.0617328641	-0.392609
C	 0.0398550141	 0.1493269585	-0.0182368612	-0.171169
C	-1.2295860823	-0.579815819	 0.0920373658	 0.269731
N	-2.2360614627	-1.1439206256	 0.1612893768	-0.325043
C	 0.8122854043	-0.3536766111	-1.2336790223	-0.024557
C	 2.2824967467	-0.0647812403	-1.4869547985	-0.171257
C	 3.079468829	-0.1943484876	-0.1938642222	-0.096429
O	 2.4817898908	-1.4875073753	 0.094954093	-0.278603
C	 1.8056357447	-1.4696703677	-1.16506488	 0.079898
H	 0.7448310199	 2.1980603485	-0.1130260009	 0.126844
H	-0.8022866044	 1.942007489	-0.9402585166	 0.135553
H	-0.7484450929	 2.00402684	 0.8288862885	 0.137797
H	 0.6222293606	-0.0992882843	 0.8761117154	 0.144228
H	 0.2382654134	-0.354750344	-2.1576494635	 0.111964
H	 2.6422645467	 0.3667504438	-2.4109086809	 0.107942
H	 4.1557242417	-0.3039939502	-0.3635442895	 0.119819
H	 2.9067657628	 0.5367483336	 0.6048018599	 0.109377
H	 1.7665788397	-2.3924545513	-1.7316600596	 0.116511
52.664	126.3636	158.6337	208.1568	219.1121	276.381	316.7762	476.9129	508.884	548.6218	620.8167	757.9082	787.0511	813.3687	853.2419	904.3426	961.7117	967.1675	985.3545	1020.5771	1048.4066	1054.8752	1071.5824	1091.438	1117.447	1137.8487	1165.6587	1200.9135	1260.8853	1276.7462	1317.4242	1334.2604	1363.7764	1409.395	1441.7283	1491.2715	1498.5731	1518.6431	2356.2059	3027.3412	3047.5869	3057.2874	3077.5638	3124.0719	3128.6294	3144.1118	3186.5309	3208.638
CC(C#N)C1C2COC12	C[C@@H](C#N)[C@H]1[C@H]2CO[C@@H]12	
InChI=1S/C7H9NO/c1-4(2-8)6-5-3-9-7(5)6/h4-7H,3H2,1H3	InChI=1S/C7H9NO/c1-4(2-8)6-5-3-9-7(5)6/h4-7H,3H2,1H3/t4-,5+,6-,7+/m0/s1
