23
gdb 103758	2.55464	1.20445	0.97384	1.4518	82.71	-0.2429	0.071	0.3139	1330.1853	0.202536	-425.401823	-425.390928	-425.389984	-425.437025	40.509	
C	-0.3936960767	 1.2119074649	 0.3200797674	-0.245873
O	 0.3783095705	 0.0723416191	 0.0001271828	-0.280882
C	 0.825913338	-0.6707082305	 1.1076696548	 0.418729
C	 1.9234535107	 0.0074954187	 1.9003719019	-0.475997
C	-0.2059974038	-1.5360908531	 1.8035409244	-0.405654
C	 0.8288144204	-2.1671898825	 0.8833387271	 0.224883
C	 0.3597626446	-2.6956250547	-0.4610068063	-0.453734
C	 1.9369129039	-3.0419993853	 1.4787215715	-0.149969
O	 2.1136571572	-2.9575055559	 2.8852568404	-0.405845
H	 0.1940738301	 1.9861505479	 0.8321558261	 0.109731
H	-0.7577030189	 1.622168206	-0.6252711885	 0.123628
H	-1.2552542048	 0.9558896502	 0.953544071	 0.104842
H	 1.566884389	 0.9397125717	 2.3515276724	 0.109783
H	 2.2808169186	-0.6417226116	 2.7001353679	 0.150976
H	 2.7647642779	 0.2536335307	 1.2433034825	 0.117383
H	-0.1097217545	-1.6682891091	 2.8765534068	 0.099998
H	-1.2280277293	-1.4922808056	 1.4414205937	 0.109949
H	-0.3420037155	-2.0086134936	-0.9333951951	 0.132571
H	 1.2061569898	-2.8239206993	-1.1466789469	 0.115395
H	-0.1236293092	-3.6726209516	-0.3445039936	 0.106521
H	 1.7426849642	-4.0846527182	 1.1834835783	 0.091455
H	 2.9035490853	-2.7637102219	 1.0435121382	 0.117064
H	 1.3295994224	-3.3316326166	 3.2989631732	 0.285047
95.2857	111.6741	139.9538	183.1394	193.4745	210.0944	230.8034	272.8524	298.325	332.8688	349.2946	371.9689	399.6825	452.4297	510.7797	584.2042	685.2795	722.8492	867.4351	910.7051	926.4358	936.626	988.7537	993.9409	1046.1182	1076.3814	1086.4726	1116.5672	1130.6453	1179.4814	1183.3398	1214.0238	1227.5679	1234.2618	1290.8305	1366.101	1400.0917	1408.516	1416.1682	1419.9894	1471.7275	1477.3383	1487.389	1492.6837	1496.0678	1499.9545	1508.6018	1513.0497	1515.7721	2982.7516	2991.134	3025.5969	3034.7606	3043.8374	3060.8755	3077.9841	3092.101	3111.7101	3122.4853	3148.8365	3150.8101	3210.3908	3821.5596
COC1(C)CC1(C)CO	CO[C@@]1(C)C[C@]1(C)CO	
InChI=1S/C7H14O2/c1-6(5-8)4-7(6,2)9-3/h8H,4-5H2,1-3H3	InChI=1S/C7H14O2/c1-6(5-8)4-7(6,2)9-3/h8H,4-5H2,1-3H3/t6-,7+/m1/s1
