17
gdb 85274	2.61937	1.5324	1.14981	2.0612	68.14	-0.2474	-0.0341	0.2132	1074.7514	0.134669	-458.975249	-458.966894	-458.96595	-459.008178	31.698	
C	-0.3085459205	 1.3726668958	 0.0883279218	-0.493252
C	 0.1384343205	-0.0578105425	 0.003533954	 0.367182
O	-0.6585479274	-1.0363361061	 0.689860738	-0.297184
C	 0.7069873055	-0.8412874044	 1.1197112941	-0.148337
C	 1.6281503403	-1.8806181554	 0.5333617434	 0.414704
O	 2.5196194403	-2.4392824074	 1.1180047458	-0.311477
C	 1.2795174899	-1.9959561722	-0.9526756607	-0.378023
C	 0.6186670584	-0.6454543381	-1.3286546585	 0.086468
O	-0.4309306845	-0.7362479918	-2.2704374027	-0.436295
H	 0.527700606	 2.0504118224	-0.1107693695	 0.131717
H	-1.0824958079	 1.5628336762	-0.661691476	 0.145529
H	-0.7155674567	 1.5936388313	 1.0775299992	 0.136359
H	 0.850670088	-0.4628978239	 2.1269929314	 0.115542
H	 2.1666804688	-2.2337778231	-1.5411228383	 0.136078
H	 0.5622946827	-2.8126583393	-1.0883740678	 0.138232
H	 1.3578546272	 0.0256325727	-1.7788110834	 0.102694
H	-1.1323267006	-1.2554301543	-1.8576430208	 0.290064
83.411	124.2779	196.5153	235.0534	279.3667	331.7806	395.9447	432.1719	495.5681	512.5391	555.6247	571.1095	674.0683	712.5642	826.6472	832.691	872.5032	950.6532	1001.6296	1016.3459	1052.0367	1092.2211	1103.5982	1137.7824	1192.3367	1227.7963	1247.5742	1275.103	1311.5445	1323.8464	1402.0528	1428.3437	1442.8845	1449.3901	1480.4275	1496.7746	1848.066	3043.6116	3059.3882	3064.4017	3110.7125	3131.5648	3132.7237	3175.6005	3782.6424
CC12OC1C(=O)CC2O	C[C@]12O[C@H]1C(=O)C[C@H]2O	
InChI=1S/C6H8O3/c1-6-4(8)2-3(7)5(6)9-6/h4-5,8H,2H2,1H3	InChI=1S/C6H8O3/c1-6-4(8)2-3(7)5(6)9-6/h4-5,8H,2H2,1H3/t4-,5+,6-/m1/s1
