13
gdb 5683	5.43074	2.33211	1.6315	3.4998	64.6	-0.1954	0.0257	0.2211	721.188	0.099662	-357.687729	-357.68206	-357.681116	-357.717151	22.588	
N	-0.0159782006	 1.3386620553	 0.0098084365	-0.409085
C	 1.2907226946	 1.8098867798	-0.0002229395	-0.081052
C	 2.1398518473	 0.7468792788	-0.0144915038	-0.140643
N	 1.3463515725	-0.3959185454	-0.0131881421	 0.004079
C	 1.3543333954	-1.7840166526	-0.0210075575	-0.171324
C	 0.022745288	-2.1334431665	-0.0100827046	-0.084221
N	-0.8223546445	-1.0384013771	 0.0043877328	-0.40524
C	 0.0204343331	-0.0318647019	 0.001790954	 0.495333
H	-0.8526653273	 1.891990452	 0.021390116	 0.278173
H	 1.5092082852	 2.8637320833	 0.0035713861	 0.143333
H	 3.2148087447	 0.7172733878	-0.025164816	 0.142943
H	 2.2623272793	-2.360528269	-0.0330871666	 0.123753
H	-0.3797567578	-3.1356104145	-0.0118271453	 0.103953
205.6679	293.351	354.0026	483.4079	591.3183	609.4586	664.9822	678.1853	728.6209	753.1024	768.5584	769.1232	849.1688	926.545	957.7027	1079.5558	1096.4132	1104.9565	1170.8919	1213.9646	1285.6914	1309.9546	1368.7765	1423.4876	1459.4091	1508.5587	1595.9751	1657.5683	3244.9531	3283.8659	3293.1604	3303.5758	3712.4838
N1C=CN2C=CN=C12	[nH]1ccn2ccnc12	
InChI=1S/C5H5N3/c1-3-8-4-2-7-5(8)6-1/h1-4H,(H,6,7)	InChI=1S/C5H5N3/c1-3-8-4-2-7-5(8)6-1/h1-4H,(H,6,7)
