14
gdb 5170	5.46653	1.51631	1.19553	1.7797	63.78	-0.2179	-0.0413	0.1766	939.4028	0.108417	-378.774228	-378.767257	-378.766313	-378.806777	24.894	
O	-0.3400058687	 2.3267365755	 0.8208489506	-0.257228
C	 0.3523180359	 1.4221288216	 0.4162893033	 0.167506
C	 1.2790494541	 1.4680165451	-0.7712841504	-0.420577
C	 1.368466477	 2.7490060586	-1.5404683198	 0.363935
N	 2.135545029	 2.9315115246	-2.5958122728	-0.316518
C	 1.9141595069	 4.2312487764	-2.9851658076	-0.09255
C	 1.0054334669	 4.835348081	-2.1557331849	-0.11407
N	 0.6639318255	 3.8742193708	-1.234479832	-0.265013
H	 0.3435171645	 0.4383553772	 0.932731261	 0.100491
H	 2.2739035292	 1.1682776742	-0.4086960462	 0.161218
H	 0.9838130467	 0.6417233339	-1.435505835	 0.161218
H	 2.4207911487	 4.6559763245	-3.8382752846	 0.104969
H	 0.5811974595	 5.8250511759	-2.1315700287	 0.126163
H	 0.0210535948	 3.9339788105	-0.458827543	 0.280454
22.0291	159.2841	207.5904	241.2659	331.6597	591.5009	610.1705	658.2321	726.0583	735.187	752.9378	799.7615	858.4362	931.0611	938.1275	997.7954	1046.9957	1106.9794	1136.1508	1182.3617	1217.3552	1280.3617	1331.2606	1396.5097	1418.5667	1440.0574	1477.1678	1499.8429	1582.6315	1813.3893	2906.7781	3010.9594	3026.564	3249.1171	3282.2837	3623.1413
O=CCC1=NC=CN1	O=CCc1ncc[nH]1	
InChI=1S/C5H6N2O/c8-4-1-5-6-2-3-7-5/h2-4H,1H2,(H,6,7)	InChI=1S/C5H6N2O/c8-4-1-5-6-2-3-7-5/h2-4H,1H2,(H,6,7)
