17
gdb 6201	3.85442	1.56195	1.46939	3.6084	65.33	-0.2569	0.0293	0.2863	920.121	0.142022	-401.023415	-401.015562	-401.014618	-401.055303	29.957	
C	 0.385770177	 1.3854158008	 0.0592578244	-0.444737
C	-0.1137198372	-0.0583090807	-0.0153522951	 0.365792
O	-1.5298461707	-0.1101969818	-0.0881548565	-0.474602
C	 0.5561410997	-0.8365831372	-1.175118437	-0.131839
O	 1.7725790535	-1.370515234	-0.6376259065	-0.237518
C	 1.688197003	-1.4508082786	 0.7300774219	 0.417535
N	 2.5975716304	-1.9083104976	 1.4744297893	-0.544441
C	 0.3569659797	-0.8985670749	 1.1806277755	-0.332719
H	 1.4772257783	 1.4212302765	 0.1302843474	 0.139983
H	 0.0942461212	 1.9442613164	-0.8385782264	 0.109621
H	-0.0361761309	 1.8887968939	 0.9335956912	 0.1323
H	-1.8260241671	 0.557443582	-0.7156273702	 0.280242
H	-0.1039841569	-1.6510757545	-1.4964080374	 0.115783
H	 0.8130386476	-0.2160316522	-2.0384527737	 0.107988
H	 3.388822062	-2.2302039132	 0.9136134352	 0.220942
H	 0.446836534	-0.3481903126	 2.1173008998	 0.133782
H	-0.3518321136	-1.7196425222	 1.333602828	 0.141889
93.2229	159.0849	257.3856	269.5547	303.8766	344.8335	369.4647	438.9889	495.8234	522.2362	588.6056	671.6074	798.6104	857.8809	896.5739	930.2443	942.764	980.1191	987.8403	1018.8299	1094.7073	1115.6518	1138.3087	1189.6701	1213.7378	1270.544	1280.2558	1319.6416	1360.3567	1407.0025	1413.8478	1467.1559	1493.1965	1496.3699	1521.3624	1783.9804	3026.1693	3033.1648	3061.1531	3092.9557	3096.6448	3121.0383	3135.3026	3468.3373	3812.3282
CC1(O)COC(=N)C1	C[C@@]1(O)CO[C]([NH])C1	
InChI=1S/C5H9NO2/c1-5(7)2-4(6)8-3-5/h6-7H,2-3H2,1H3	InChI=1S/C5H9NO2/c1-5(7)2-4(6)8-3-5/h6-7H,2-3H2,1H3/t5-/m0/s1
