17
gdb 131515	2.98892	1.57326	1.13073	1.3304	73.83	-0.2346	0.0116	0.2462	1057.2942	0.139912	-418.029065	-418.021688	-418.020743	-418.061081	28.589	
O	-0.2002193229	 1.5070045576	-0.2442943043	-0.427045
C	 0.0749283262	 0.1274670585	-0.006734108	-0.013537
C	-1.1991674866	-0.763882608	 0.1898771953	-0.233844
C	-1.4363120701	-1.5882757424	-1.1211529337	-0.366847
C	-0.1073577271	-1.4678889033	-1.8135987208	 0.212379
C	 0.7048122555	-0.5599886098	-1.1779307632	 0.331771
N	 1.8582418875	-0.4941366753	-1.8804364666	-0.3303
N	 1.8469033763	-1.3252566602	-2.9481677966	-0.220056
C	 0.6507153229	-1.9188901853	-2.9139277353	-0.162688
H	-0.6433684654	 1.5710663699	-1.0981357606	 0.279263
H	 0.6925557183	 0.132961613	 0.8963975877	 0.095657
H	-1.0228186248	-1.451767272	 1.0221199093	 0.113747
H	-2.049041304	-0.133932881	 0.4645736906	 0.110824
H	-1.7181009219	-2.6206601167	-0.8912590085	 0.114641
H	-2.2534773623	-1.1730527521	-1.7238056925	 0.11068
H	 2.6757737852	 0.0667319487	-1.7110213905	 0.2748
H	 0.4017822032	-2.6398513616	-3.6789006324	 0.110556
84.3723	144.2543	237.8224	313.4251	343.2234	421.4684	467.0654	516.9227	613.4394	681.8758	695.9137	716.4107	777.2204	814.3216	881.1294	908.1871	967.6347	984.1214	1015.5258	1064.6951	1107.707	1123.0094	1168.6711	1205.0193	1229.1053	1253.2485	1276.6895	1300.1594	1322.6381	1336.0951	1396.269	1432.3776	1446.3465	1477.9326	1504.9969	1531.8887	1605.8775	3028.7562	3054.812	3067.2598	3073.0792	3111.1248	3243.4138	3674.0106	3794.5487
OC1CCC2=C1NN=C2	O[C@H]1CCc2c1[nH]nc2	
InChI=1S/C6H8N2O/c9-5-2-1-4-3-7-8-6(4)5/h3,5,9H,1-2H2,(H,7,8)	InChI=1S/C6H8N2O/c9-5-2-1-4-3-7-8-6(4)5/h3,5,9H,1-2H2,(H,7,8)/t5-/m0/s1
