18
gdb 89353	2.24794	1.64567	1.15569	2.7481	75.14	-0.224	-0.0249	0.1991	1100.3749	0.145137	-439.043548	-439.034491	-439.033547	-439.077334	33.542	
C	-0.1899878866	 1.5360533201	-0.1119288433	-0.33668
N	 0.055439428	 0.1059908209	-0.005166819	-0.128868
C	 1.1161194976	-0.4842622164	-0.8727218071	-0.223912
C	 1.8203554227	-1.0705697222	 0.3431980025	 0.377181
O	 2.2591455366	-2.363931964	 0.3194714513	-0.442967
C	 2.1677448641	-0.0349096262	 1.3403750726	-0.408748
C	 0.6849777734	-0.3967261036	 1.2086138941	 0.149318
C	-0.0398766183	-1.0786553817	 2.2761747425	 0.089495
O	 0.4976166997	-1.5934543761	 3.2366124416	-0.304722
H	 0.7102600242	 2.161825962	 0.0184837854	 0.097695
H	-0.6157859217	 1.7576241926	-1.0955671507	 0.125502
H	-0.9220018259	 1.832359762	 0.6453488023	 0.128623
H	 0.7174358674	-1.2469756513	-1.5477707958	 0.128055
H	 1.7075631193	 0.2404906665	-1.4473412345	 0.105391
H	 2.6544476119	-2.580417654	 1.1716207814	 0.3051
H	 2.5954412764	-0.4091599799	 2.2664806504	 0.14244
H	 2.5087131695	 0.9535234311	 1.041577374	 0.119088
H	-1.1367178185	-1.1436825699	 2.1100869424	 0.07801
53.9657	151.2873	195.255	215.8225	231.6306	246.1626	270.6037	361.1668	398.5225	460.9238	481.63	592.4254	621.0972	672.8328	742.8361	822.1104	866.2247	950.3121	966.8255	1010.9672	1043.4811	1071.9208	1093.7734	1117.5696	1143.4961	1174.4802	1226.831	1230.4324	1282.3952	1328.4463	1391.3557	1415.0267	1425.3877	1451.3213	1477.0814	1486.4643	1500.7489	1507.0708	1771.2934	2902.9731	2952.4309	3017.5639	3067.0172	3087.783	3106.8445	3109.4148	3201.3417	3811.103
CN1CC2(O)CC12C=O	CN1C[C@@]2(O)C[C@@]12C=O	
InChI=1S/C6H9NO2/c1-7-3-6(9)2-5(6,7)4-8/h4,9H,2-3H2,1H3	InChI=1S/C6H9NO2/c1-7-3-6(9)2-5(6,7)4-8/h4,9H,2-3H2,1H3/t5-,6-/m0/s1
