19
gdb 63092	2.67678	1.53234	1.3176	4.0553	76.93	-0.246	0.0324	0.2784	1061.3459	0.159499	-419.208967	-419.200468	-419.199523	-419.241722	32.486	
C	-0.0038432557	 1.5237733935	 0.0940879286	-0.470814
C	 0.009618907	 0.016776143	-0.0611421641	 0.306893
C	-1.1803364315	-0.6820161765	 0.5629606916	-0.448757
C	 0.6863602505	-0.6500801683	-1.2071117344	-0.094132
C	 1.672469582	 0.1236208777	-2.0648301342	-0.129213
O	 2.6879101998	 0.5569771075	-1.1523412107	-0.246888
C	 2.4560357072	 0.0462257764	 0.1055282379	 0.432874
N	 3.1919415228	 0.2465799154	 1.108779573	-0.54133
N	 1.2850585508	-0.7523309937	 0.1380599304	-0.172534
H	 0.8384535969	 2.0169534506	-0.3934440966	 0.141956
H	-0.9286899743	 1.9275896445	-0.3308443653	 0.122301
H	 0.0208752029	 1.7907510011	 1.1554785913	 0.142707
H	-2.1111601077	-0.3555295818	 0.0862091912	 0.117371
H	-1.0948574334	-1.7661546481	 0.4613741182	 0.131376
H	-1.2443150342	-0.4462111961	 1.6301372362	 0.13307
H	 0.2706289231	-1.5643108159	-1.6217091634	 0.102771
H	 2.1238642036	-0.5232874637	-2.8247792792	 0.124977
H	 1.2470867619	 1.0026988689	-2.5606548864	 0.121712
H	 3.9816900183	 0.8371246956	 0.849229916	 0.225659
117.9229	162.305	182.439	204.7685	220.7017	262.9232	356.2858	424.4371	458.9589	484.4142	643.5815	675.9203	743.2203	783.1604	790.8946	861.6911	875.8721	937.6303	962.4878	985.4623	992.0895	1022.4721	1038.2315	1096.6175	1113.7132	1136.0756	1143.6443	1222.791	1251.9526	1282.3466	1327.3204	1393.4019	1411.5439	1420.4	1433.39	1478.3441	1486.0663	1501.9593	1509.6018	1526.4855	1774.9195	3035.3804	3038.4695	3044.2229	3077.3226	3099.8768	3104.8208	3127.0091	3138.5048	3147.4149	3500.5044
CC1(C)C2COC(=N)N12	CC1(C)[C@H]2CO[C]([NH])N12	
InChI=1S/C6H10N2O/c1-6(2)4-3-9-5(7)8(4)6/h4,7H,3H2,1-2H3	InChI=1S/C6H10N2O/c1-6(2)4-3-9-5(7)8(4)6/h4,7H,3H2,1-2H3/t4-,8?/m1/s1
