21
gdb 102998	1.92208	1.37003	1.14626	4.9792	84.28	-0.2269	0.0297	0.2565	1247.7768	0.181008	-383.263781	-383.253265	-383.252321	-383.298809	38.175	
C	-0.8140918138	 0.0660426744	-3.1062357738	-0.336372
N	-0.4949902795	-0.5287781215	-1.8115694459	-0.342107
C	-1.6183858971	-0.9125823224	-1.0055614922	 0.140255
C	-2.3466221593	 0.2312538096	-0.4939139514	 0.289058
N	-2.9509533529	 1.1356486186	-0.099250893	-0.358254
C	-2.4708423512	-2.1802383042	-1.2502666931	-0.058481
C	-2.220314082	-3.0666523115	-2.4502095439	-0.415151
C	-1.5234857247	-2.1154248787	-0.0747371085	-0.075186
C	-0.2591900977	-2.9432432992	 0.0287114559	-0.427278
H	 0.1177894717	 0.3363973673	-3.6100451372	 0.123795
H	-1.3986989547	-0.5839282716	-3.7757925578	 0.104763
H	-1.3854882941	 0.9859816527	-2.9477446399	 0.149465
H	 0.1774988658	-1.2771550096	-1.8925338224	 0.227903
H	-3.5206519632	-2.0722480414	-0.9929416221	 0.10573
H	-1.1965177381	-2.9824280952	-2.8235921176	 0.11254
H	-2.396315704	-4.1192063896	-2.2023090178	 0.125995
H	-2.8922988541	-2.8019285356	-3.2719275201	 0.131573
H	-2.0019045096	-1.9559707309	 0.88710087	 0.113246
H	 0.1683659715	-3.2030681035	-0.94319049	 0.117392
H	 0.5076789689	-2.4182807963	 0.6071204003	 0.138604
H	-0.475050072	-3.8863247015	 0.5412293803	 0.132508
108.3889	123.7737	145.4747	161.2225	175.8525	181.6414	196.4195	236.8145	287.6792	315.3189	432.3689	442.0699	550.4522	565.5331	592.4421	617.108	691.7276	791.9475	822.1615	940.8149	1007.7815	1017.0211	1031.3291	1047.4493	1092.1685	1128.5449	1138.9826	1157.6074	1175.797	1186.7404	1260.3825	1315.8734	1371.0135	1414.9944	1421.8174	1425.4915	1461.1467	1474.3088	1487.3775	1493.2728	1495.9566	1504.7701	1511.7701	1523.8974	2346.0583	2983.3599	3037.2815	3041.4479	3075.3293	3097.9144	3102.2086	3109.0472	3116.3154	3117.1969	3145.744	3156.7592	3599.9453
CNC1(C#N)C(C)C1C	CN[C@@]1(C#N)[C@@H](C)[C@H]1C	
InChI=1S/C7H12N2/c1-5-6(2)7(5,4-8)9-3/h5-6,9H,1-3H3	InChI=1S/C7H12N2/c1-5-6(2)7(5,4-8)9-3/h5-6,9H,1-3H3/t5-,6+,7-
