20
gdb 109111	2.85028	1.17706	0.94805	3.3084	82.16	-0.2069	0.0029	0.2099	1303.5756	0.170717	-403.208915	-403.199439	-403.198495	-403.243389	34.947	
C	-0.2786571265	 1.4684761961	-0.0570917895	-0.372536
C	 0.1640650533	-0.0024184688	 0.0465015342	-0.293032
C	 0.8305295469	-0.5210149567	-1.1893883295	 0.279925
C	 2.1006560074	-0.9236220419	-1.3169581459	-0.137661
N	 2.3904128111	-1.3319864089	-2.631400582	-0.331748
C	 1.275909601	-1.2423694769	-3.4400301252	 0.427739
O	 1.2034504863	-1.5693823075	-4.6032352992	-0.381758
C	 0.1605487514	-0.6626394936	-2.5450928717	-0.233125
C	-1.0948278466	-1.5463391066	-2.5879624213	-0.394953
H	 0.5791355687	 2.1224480557	-0.2425734678	 0.119635
H	-0.9918060786	 1.6143382199	-0.8748750759	 0.120128
H	-0.7636845705	 1.7948254984	 0.8680913967	 0.11387
H	 0.84843923	-0.1173192092	 0.8954973937	 0.100197
H	-0.7164856774	-0.6172807059	 0.2802022715	 0.105892
H	 2.8788312959	-0.9602383672	-0.5668059929	 0.122395
H	 3.2618514149	-1.723725049	-2.9471144442	 0.258354
H	-0.0946437143	 0.3233621616	-2.9581767505	 0.115527
H	-0.8992847756	-2.5249775139	-2.1387096489	 0.122183
H	-1.9240637365	-1.0821714141	-2.0465724454	 0.116486
H	-1.3970878606	-1.7009132113	-3.6270677661	 0.142484
67.1068	84.4865	156.8585	190.383	223.7033	237.3323	258.1869	321.5944	390.4006	474.6593	505.8133	546.0748	608.5473	704.1254	740.1432	788.3942	816.9056	823.8219	858.5448	958.8046	1028.4928	1047.6371	1072.5335	1088.1653	1095.0595	1113.2299	1191.6959	1216.5069	1276.2683	1294.5353	1305.418	1352.814	1373.8308	1398.2847	1404.4065	1409.9414	1479.0065	1495.6896	1497.7586	1499.6308	1506.6755	1706.3874	1830.572	3006.4276	3015.077	3035.7458	3041.0776	3052.7731	3105.5665	3109.5978	3111.968	3124.7848	3227.955	3664.6055
CCC1=CNC(=O)C1C	CCC1=CNC(=O)[C@H]1C	
InChI=1S/C7H11NO/c1-3-6-4-8-7(9)5(6)2/h4-5H,3H2,1-2H3,(H,8,9)	InChI=1S/C7H11NO/c1-3-6-4-8-7(9)5(6)2/h4-5H,3H2,1-2H3,(H,8,9)/t5-/m0/s1
