15
gdb 43607	2.31642	1.36816	1.00397	2.0082	78.03	-0.2507	-0.0328	0.2179	1174.0278	0.108166	-383.421864	-383.412922	-383.411978	-383.457009	33.305	
O	-0.0104188165	 0.152429285	-0.7130191468	-0.280952
C	-0.0171930485	 1.2283520907	-0.194012665	 0.426603
C	-1.1373854148	 2.158994796	 0.2854359806	-0.387829
C	-0.028028411	 3.1594822651	 0.8253188479	-0.050688
C	 1.0912839984	 2.1892324958	 0.2518410174	-0.387829
C	-0.0554113491	 4.470143834	 0.1884838356	 0.27021
C	-0.0782567209	 5.5338436035	-0.3695913202	-0.438227
C	-0.0075097965	 3.2628670588	 2.279541468	 0.281704
C	 0.009922287	 3.3115393553	 3.4798091759	-0.445652
H	-1.7451602628	 2.5726543767	-0.5226989306	 0.151468
H	-1.7900826499	 1.7413854624	 1.0546520432	 0.151808
H	 1.7779525995	 1.7897950141	 1.0008674058	 0.151808
H	 1.6629853318	 2.618894756	-0.5740733289	 0.151468
H	-0.0983312448	 6.4818983806	-0.8479520685	 0.202703
H	 0.025091148	 3.3715195759	 4.5401115354	 0.203403
10.5407	123.4207	167.1714	183.8707	233.0222	398.5649	433.9439	456.5676	460.2834	494.8222	570.1564	590.9685	628.7741	630.8061	651.1147	653.7283	667.923	726.2472	867.4382	887.1096	928.3873	1026.3441	1090.5958	1100.9584	1125.1348	1207.4676	1229.0763	1272.8766	1416.1349	1429.494	1902.8969	2237.2088	2242.4042	3074.4551	3078.4371	3138.8378	3139.8525	3500.6918	3501.5503
O=C1CC(C1)(C#C)C#C	O=C1CC(C1)(C#C)C#C	
InChI=1S/C8H6O/c1-3-8(4-2)5-7(9)6-8/h1-2H,5-6H2	InChI=1S/C8H6O/c1-3-8(4-2)5-7(9)6-8/h1-2H,5-6H2
