18
gdb 116978	5.44793	0.46444	0.44955	4.6315	81.31	-0.2485	0.0217	0.2701	2405.874	0.145093	-439.060555	-439.049843	-439.048899	-439.099787	35.036	
C	 0.6831014528	 1.2082534219	-0.1594515973	-0.220003
O	 0.6899845488	-0.193325338	-0.0129701479	-0.226363
C	 0.0513000683	-0.6051937483	 1.1783863232	-0.200471
C	 0.0676544832	-2.0579994281	 1.2832638898	 0.019397
C	 0.0607226599	-3.2575284523	 1.3784520122	 0.110332
C	 0.0587621675	-4.7083218415	 1.5170349907	-0.285685
N	 1.3707517729	-5.2292957518	 1.888932607	-0.271393
C	 1.8843195853	-6.3531638391	 1.3231245718	 0.162202
O	 1.3028287679	-7.0566597945	 0.5245680213	-0.321514
H	 1.2160278696	 1.7095394571	 0.6644220778	 0.105227
H	 1.1902990728	 1.4361246847	-1.0992414068	 0.134282
H	-0.3416203449	 1.6107550958	-0.1999127929	 0.106723
H	 0.5514795394	-0.1612370835	 2.0575159121	 0.113948
H	-0.9931288377	-0.2468551155	 1.2017809841	 0.118625
H	-0.6988924699	-5.0059331917	 2.255638929	 0.142202
H	-0.2125943795	-5.1996494146	 0.5768910409	 0.176496
H	 1.9448705001	-4.6814124603	 2.5091047569	 0.255208
H	 2.9107843335	-6.5618648904	 1.6830744183	 0.080787
19.7346	20.5695	68.4022	93.6645	122.3727	231.5155	233.6276	242.2005	285.8174	322.6529	373.9284	461.884	511.9293	562.4316	747.4573	853.6876	973.2144	982.389	1026.1424	1032.0968	1037.7585	1137.8992	1178.6663	1183.3352	1203.8594	1220.8447	1250.866	1256.7879	1373.2042	1411.4415	1425.2456	1478.2045	1485.3114	1489.7312	1494.2477	1515.3671	1515.9773	1804.0847	2375.238	2942.905	2943.4974	2959.7932	2969.8195	3007.0292	3013.0012	3080.4546	3123.5998	3644.6728
COCC#CCNC=O	COCC#CCNC=O	
InChI=1S/C6H9NO2/c1-9-5-3-2-4-7-6-8/h6H,4-5H2,1H3,(H,7,8)	InChI=1S/C6H9NO2/c1-9-5-3-2-4-7-6-8/h6H,4-5H2,1H3,(H,7,8)
