16
gdb 31759	4.47593	0.89914	0.76033	1.9439	67.25	-0.2437	-0.0033	0.2404	1427.451	0.12391	-475.04181	-475.032851	-475.031907	-475.076713	31.142	
O	 0.1436458116	 1.2570559581	 0.0534819676	-0.405915
C	-0.0310637136	-0.1436411938	 0.1719750785	-0.177811
C	-1.4626546819	-0.5538735158	 0.0135816892	 0.213868
C	-2.5088220254	 0.1654811287	-0.4552101362	-0.121608
O	-3.6289776932	-0.6318888095	-0.4091310998	-0.174297
C	-3.1867182394	-1.8030224681	 0.088783372	 0.362435
C	-4.1374339388	-2.9418290885	 0.2788989016	-0.140242
O	-3.4865905282	-4.0475210551	 0.8507840007	-0.420187
N	-1.9214134123	-1.8241750864	 0.3621317579	-0.382566
H	-0.30412231	 1.6695876219	 0.7997098207	 0.28692
H	 0.5804085043	-0.5912981088	-0.6201113532	 0.136896
H	 0.353998922	-0.5363312351	 1.1249462871	 0.11466
H	-2.6363644923	 1.1609176375	-0.8403820838	 0.158508
H	-4.9704215009	-2.6153967234	 0.9198631919	 0.12444
H	-4.5785627251	-3.2068101732	-0.6954315267	 0.122544
H	-2.5502610268	-3.8159690785	 0.9189802326	 0.302354
40.8075	71.5939	139.6224	176.7895	220.7707	231.9479	295.0521	356.2788	443.6465	464.0757	634.2238	685.3386	713.9212	757.7615	765.1438	986.5848	998.7983	1018.0266	1042.8049	1085.1055	1101.3064	1123.4909	1202.2261	1213.7952	1241.1089	1259.4731	1305.1791	1356.9582	1392.4003	1420.952	1477.1887	1497.3229	1511.9234	1614.2501	1635.5734	2980.3349	2998.1264	3002.6239	3060.1608	3309.7202	3747.0095	3810.5773
OCC1=COC(CO)=N1	OCc1coc(CO)n1	
InChI=1S/C5H7NO3/c7-1-4-3-9-5(2-8)6-4/h3,7-8H,1-2H2	InChI=1S/C5H7NO3/c7-1-4-3-9-5(2-8)6-4/h3,7-8H,1-2H2
