20
gdb 62714	3.72613	1.46155	1.21773	2.3649	78.64	-0.2432	0.0899	0.3331	1068.0756	0.172468	-403.096937	-403.089438	-403.088494	-403.128341	31.119	
C	-0.1859369055	 1.6182290505	 0.0087489766	-0.463217
C	-0.0022408735	 0.1157558059	 0.0031045689	 0.485461
O	-1.2594488694	-0.4580378878	-0.2232836427	-0.497035
C	 1.1942231346	-0.5420202708	-0.7450040201	-0.103635
C	 2.1902975116	-0.1004616039	 0.3681540704	-0.017866
C	 3.2263040797	-1.2111010818	 0.5160242368	-0.26616
C	 2.2723801431	-2.4209595676	 0.3254331896	-0.163256
N	 0.9497505374	-1.7896246791	 0.1174629392	-0.16823
C	 0.8876005183	-0.5863544985	 1.0703786878	-0.103625
H	 0.745945065	 2.1587160906	 0.1802993792	 0.11571
H	-0.60465817	 1.9394366912	-0.9497118149	 0.128878
H	-0.9000692544	 1.8966470178	 0.7895379194	 0.128902
H	-1.0996493455	-1.4136462084	-0.2196502746	 0.285681
H	 1.3727028671	-0.6320935369	-1.8198318165	 0.07461
H	 2.5326157438	 0.9312035007	 0.4511229124	 0.070026
H	 4.0085894726	-1.1556590273	-0.2473737097	 0.10226
H	 3.7142511227	-1.1981430613	 1.4955953422	 0.102259
H	 2.5211017213	-3.0344952323	-0.5452691231	 0.10732
H	 2.2264488172	-3.0769879368	 1.1994661039	 0.107319
H	 0.704078784	-0.7286733542	 2.1386951353	 0.074598
175.0263	202.3409	238.9633	263.6762	308.9029	385.4438	487.4239	540.1767	598.1171	599.6378	736.5746	755.1876	764.3096	783.1314	834.049	869.7694	890.7619	935.0984	950.8722	975.4391	995.9665	1036.2609	1040.008	1092.2125	1105.6362	1111.4153	1139.217	1139.4865	1175.7741	1183.1742	1228.4208	1240.3236	1255.2498	1265.4991	1295.7693	1324.7851	1346.9931	1403.9493	1446.3067	1480.0355	1492.9337	1502.9433	1511.699	3047.24	3050.0826	3058.3986	3077.3624	3083.0996	3083.4573	3105.8981	3111.5236	3113.664	3143.3114	3721.488
CC1(O)C2C3CCN2C13	C[C@@]1(O)[C@H]2[C@@H]3CCN2[C@H]13	
InChI=1S/C7H11NO/c1-7(9)5-4-2-3-8(5)6(4)7/h4-6,9H,2-3H2,1H3	InChI=1S/C7H11NO/c1-7(9)5-4-2-3-8(5)6(4)7/h4-6,9H,2-3H2,1H3/t4-,5+,6-,7+
