12
gdb 132304	2.11909	1.82267	0.97993	7.3517	62.05	-0.2423	-0.0437	0.1987	1064.6291	0.076742	-513.984145	-513.976487	-513.975543	-514.016593	27.907	
N	 0.0548439095	 1.3396315047	 0.0592048444	-0.560251
C	-0.0594395488	-0.0006593666	 0.019880303	 0.5293
C	-1.2469217637	-0.7026976426	 0.0123157223	-0.435446
C	-1.0939950282	-2.0929225142	-0.0085492702	 0.373999
F	-2.2066679898	-2.8080485946	-0.0166409751	-0.053691
N	 0.0136169075	-2.7706670083	-0.0218620126	-0.402458
C	 1.1890759406	-2.1033835947	-0.0158016069	 0.448656
O	 2.3024773509	-2.5222975748	-0.0256067075	-0.322741
O	 1.10549745	-0.6247802878	 0.0041011657	-0.262742
H	 0.9683681205	 1.7511592966	-0.0297563207	 0.285939
H	-0.7564175746	 1.9254980092	-0.0261821777	 0.282066
H	-2.2138243538	-0.2247287168	 0.0251142352	 0.117369
118.4577	147.7371	175.1756	218.9235	309.8815	387.2919	479.054	491.6138	525.638	604.0232	624.4954	703.2744	710.5463	760.2007	770.4595	782.6295	972.6194	1045.696	1063.6155	1197.3932	1222.3434	1449.3714	1471.7502	1583.2129	1644.0693	1684.1705	1915.9567	3251.7261	3621.9632	3752.4256
NC1=CC(F)=NC(=O)O1	Nc1cc(F)nc(=O)o1	
InChI=1S/C4H3FN2O2/c5-2-1-3(6)9-4(8)7-2/h1H,6H2	InChI=1S/C4H3FN2O2/c5-2-1-3(6)9-4(8)7-2/h1H,6H2
