15
gdb 69877	2.76175	1.66091	1.19504	3.0884	71.	-0.2471	-0.0044	0.2427	1008.0304	0.111276	-416.722943	-416.715193	-416.714249	-416.75507	29.528	
C	-0.1329614531	 1.5371141023	 0.1097431372	-0.518307
C	 0.0967823754	 0.0660453462	 0.0548489563	 0.386573
O	-0.7921277876	-0.8392782052	 0.687729359	-0.246137
C	 0.6037852252	-0.943963475	 0.985569187	-0.059229
C	 1.3047779148	-1.7239708015	-0.1784798799	-0.163178
N	 0.2849050485	-2.1122045614	-1.1576532488	-0.338569
C	 0.7915453562	-0.7118096551	-1.1531951095	 0.167083
C	 1.4497266263	-0.1178328407	-2.2600688903	 0.174414
N	 1.9757791859	 0.3979205492	-3.1546946937	-0.348062
H	 0.7644608686	 2.080051094	-0.2016899171	 0.145835
H	-0.9502337012	 1.8230472202	-0.5609973236	 0.14849
H	-0.3967250365	 1.8391163827	 1.1262051525	 0.143515
H	 0.9179586319	-0.888703257	 2.0201353285	 0.123948
H	 2.2875753272	-2.1743009236	-0.1430851795	 0.129967
H	 0.7591787684	-2.5979185852	-1.9205475681	 0.253656
128.0258	132.4536	191.3668	246.3685	294.5946	426.6794	438.3485	491.6656	527.2966	575.5525	612.3097	690.82	776.3552	819.7308	845.3066	864.7789	879.8296	961.5865	994.2993	1007.9286	1032.8078	1105.505	1111.7779	1165.3713	1222.9476	1254.9892	1312.5857	1371.4374	1408.4268	1467.1499	1483.2044	1498.0941	2335.2698	3041.7306	3108.1632	3130.5682	3201.7105	3217.5774	3469.7387
CC12OC1C1NC21C#N	C[C@]12O[C@H]1[C@H]1N[C@@]21C#N	
InChI=1S/C6H6N2O/c1-5-4(9-5)3-6(5,2-7)8-3/h3-4,8H,1H3	InChI=1S/C6H6N2O/c1-5-4(9-5)3-6(5,2-7)8-3/h3-4,8H,1H3/t3-,4+,5+,6-/m1/s1
