25
gdb 112709	3.01398	1.0231	0.86405	1.4348	89.26	-0.237	0.081	0.3181	1495.0394	0.228447	-389.519082	-389.508758	-389.507814	-389.554569	38.857	
C	-0.3213376453	 1.7320670805	-0.1764051719	-0.380823
C	-0.0736863094	 0.2639875743	 0.1802373431	-0.183465
C	-1.3249812418	-0.6000540733	 0.0629597103	 0.159243
C	-1.148067681	-2.076069273	 0.4264438291	-0.253081
C	-2.5679493033	-2.4737462812	 0.8549333979	 0.004504
C	-2.6756704424	-3.7748467436	 1.6477824872	-0.417446
C	-3.0547561748	-1.1862153702	 1.5695581876	 0.137476
C	-2.8377816962	-1.1369388045	 3.0813379524	-0.392006
O	-2.3267197453	-0.1100741556	 0.9624973621	-0.294112
H	 0.5910984091	 2.3261030222	-0.0663405052	 0.105908
H	-0.6633348716	 1.8341269788	-1.2125678402	 0.109122
H	-1.0903612086	 2.1580614572	 0.4730853132	 0.134921
H	 0.6981566624	-0.1584831187	-0.4763211925	 0.089448
H	 0.3031495702	 0.1860239459	 1.2077002363	 0.094115
H	-1.7110934416	-0.5246987888	-0.9692286906	 0.057305
H	-0.7676994698	-2.6741525988	-0.4061423484	 0.096995
H	-0.4465633925	-2.181198163	 1.2639606073	 0.095772
H	-3.1699371182	-2.5796925493	-0.0571410267	 0.075834
H	-2.0559474412	-3.7531446937	 2.5495060777	 0.118731
H	-3.7082659998	-3.9734141757	 1.9549057144	 0.115052
H	-2.3452358928	-4.623464101	 1.0400161414	 0.114223
H	-4.1228854423	-1.0254959744	 1.3670726766	 0.069026
H	-1.7983105077	-1.3547798739	 3.3469300231	 0.111929
H	-3.0723513466	-0.1328540989	 3.4454168591	 0.122561
H	-3.4864145194	-1.8494357513	 3.6011342867	 0.108769
47.6192	80.6604	115.6417	198.6909	233.3635	247.8026	253.8499	272.5058	307.626	391.9563	407.7301	451.6708	497.91	571.0091	667.5401	760.6989	779.762	850.5507	903.439	907.5508	940.4481	972.3826	999.8524	1022.852	1042.4886	1056.8271	1089.4641	1105.0258	1140.6012	1146.0339	1175.4412	1195.6329	1207.3337	1274.9031	1295.1066	1328.9533	1340.9733	1347.2885	1372.6188	1384.3464	1389.535	1406.1935	1408.8696	1413.3519	1415.8272	1472.8609	1483.5716	1491.5062	1493.1182	1496.4686	1503.5722	1504.5046	1509.4506	2936.8538	2994.5077	3016.7621	3019.4216	3030.685	3031.6546	3034.8342	3037.6521	3058.6765	3094.2845	3095.3927	3099.16	3104.3196	3108.3703	3116.2056	3123.0405
CCC1CC(C)C(C)O1	CC[C@H]1C[C@@H](C)[C@@H](C)O1	
InChI=1S/C8H16O/c1-4-8-5-6(2)7(3)9-8/h6-8H,4-5H2,1-3H3	InChI=1S/C8H16O/c1-4-8-5-6(2)7(3)9-8/h6-8H,4-5H2,1-3H3/t6-,7-,8+/m1/s1
