13
gdb 21664	3.47047	2.47712	1.44592	3.0886	66.02	-0.2062	-0.0184	0.1878	790.5929	0.099059	-390.982635	-390.975939	-390.974995	-391.01329	25.53	
N	 0.0056979055	 1.3066384214	 0.0842945251	-0.544373
C	-0.0263262258	-0.0407700069	 0.0274470257	 0.409952
N	-1.1633624088	-0.6779072823	 0.0100249876	-0.32339
N	-1.0368800747	-2.043326272	-0.0078925426	-0.219398
C	 0.1390437393	-2.6873296925	-0.0102342598	 0.105316
N	 1.2996696636	-2.1048732157	-0.0081917612	-0.34671
C	 1.300072344	-0.7185564509	-0.000979908	 0.304649
N	 2.3424989068	 0.0289327354	-0.0236790166	-0.557155
H	 0.9141143329	 1.7251802062	-0.0469587099	 0.282227
H	-0.8380443202	 1.8363240074	-0.0483236285	 0.260557
H	-1.9127503794	-2.5389383398	-0.0140238218	 0.27752
H	 0.0739790024	-3.7739606979	-0.0158920401	 0.131453
H	 3.1795583243	-0.5552177023	-0.0489894798	 0.219352
111.189	244.7188	299.7549	348.3855	416.5477	492.2277	503.5062	540.2266	577.1351	601.5501	610.1264	759.5163	818.982	888.0193	950.3399	970.8244	991.0201	1069.5326	1145.2206	1273.9419	1333.04	1403.0383	1442.3158	1529.803	1591.3375	1621.8515	1667.3903	1688.8983	3150.4783	3473.4823	3581.9025	3655.2685	3730.0918
NC1=NNC=NC1=N	NC1=NNCN=C1[NH]	
InChI=1S/C3H5N5/c4-2-3(5)8-7-1-6-2/h1H,(H2,5,8)(H2,4,6,7)	InChI=1S/C3H6N5/c4-2-3(5)8-7-1-6-2/h4,7H,1H2,(H2,5,8)
