19
gdb 31789	3.31054	1.26177	0.92962	3.1615	79.88	-0.1887	0.0483	0.237	1273.503	0.158826	-419.241808	-419.232015	-419.231071	-419.277392	34.03	
C	-0.195874295	 0.5926034414	 0.8292496144	-0.248703
O	 0.2159876716	 0.9884101746	-0.4697061295	-0.268014
C	 0.7496691997	-0.0055113406	-1.2108647087	 0.374514
C	 0.9975386741	-1.3371273348	-1.0114470965	-0.24738
N	 1.5740732168	-1.8693280143	-2.1505230041	-0.302823
C	 1.6702237934	-0.8851615139	-3.0109603165	 0.327709
C	 2.2328151585	-0.9796354222	-4.3880185608	-0.49966
N	 1.1764390494	 0.2928901363	-2.4866763974	-0.124982
C	 1.1083931675	 1.5918208715	-3.1249474337	-0.350939
H	-0.9678744239	-0.1850795442	 0.7747930209	 0.130457
H	 0.6536334341	 0.211937665	 1.4099086485	 0.130457
H	-0.6026254542	 1.4821847611	 1.3116279987	 0.135586
H	 0.8023084123	-1.9372353677	-0.1380266107	 0.10135
H	 1.4966762565	-0.7152890491	-5.1575490952	 0.125076
H	 3.1002343682	-0.3227014416	-4.5293608598	 0.125076
H	 2.5506776502	-2.0095121371	-4.5557939354	 0.153859
H	 0.6619343371	 2.2984404641	-2.425356067	 0.161032
H	 2.106953708	 1.948407185	-3.3972956414	 0.138695
H	 0.4921298356	 1.5534871163	-4.0289449558	 0.138691
35.1802	75.9871	132.5252	150.1301	199.7499	208.2511	230.8897	264.8756	347.6909	364.9651	544.6169	599.1496	667.7856	683.196	733.0559	760.5325	764.1856	966.0758	1002.2235	1060.2584	1081.5163	1152.6072	1153.0156	1184.3826	1204.3599	1218.603	1249.9235	1298.1591	1392.9121	1413.1588	1444.0567	1467.8629	1477.2768	1478.4084	1482.291	1495.8019	1503.1114	1512.2945	1517.4247	1578.4121	1619.6925	3011.5054	3017.9438	3037.907	3061.7641	3071.6408	3093.4526	3142.7259	3145.5523	3156.3675	3260.9653
COC1=CN=C(C)N1C	COc1cnc(C)n1C	
InChI=1S/C6H10N2O/c1-5-7-4-6(9-3)8(5)2/h4H,1-3H3	InChI=1S/C6H10N2O/c1-5-7-4-6(9-3)8(5)2/h4H,1-3H3
