19
gdb 88099	2.45477	1.57458	1.15873	1.2781	79.56	-0.2057	0.0252	0.2309	1115.4954	0.157802	-423.012199	-423.003351	-423.002407	-423.045545	33.67	
C	-0.180499571	 1.4840032069	-0.0052082007	-0.508323
C	-0.0596842383	-0.0057244855	-0.025308264	 0.27434
C	 0.1011458362	-0.80460551	-1.0809567768	-0.218599
C	 0.1952302416	-2.2380910918	-0.6489115835	-0.136553
O	 0.1341743069	-2.1945932026	 0.7786274651	-0.312721
C	-0.0909131918	-0.8648022245	 1.1923591709	 0.358028
C	 0.4692103628	-0.4677607539	 2.5441882885	-0.398604
C	-1.0198353803	-0.6834998726	 2.3630684271	 0.029257
O	-1.8992673316	 0.4043230177	 2.3682432542	-0.420286
H	 0.6381077917	 1.9385549298	 0.5668511039	 0.123735
H	-0.1469285386	 1.8903081411	-1.0192002357	 0.119942
H	-1.1122736913	 1.7915996995	 0.4766105109	 0.15504
H	 0.1567611807	-0.4909260264	-2.1158348453	 0.097377
H	-0.6288396924	-2.8560972786	-1.0411907584	 0.104316
H	 1.1359400153	-2.7202927002	-0.9555943434	 0.10569
H	 1.0324946198	-1.2172297106	 3.0893464351	 0.124286
H	 0.8150580072	 0.554842455	 2.6563466317	 0.114774
H	-1.4256705513	-1.6132008029	 2.7620925529	 0.100434
H	-1.9249217556	 0.7594987896	 3.2635835673	 0.287869
69.249	155.7021	195.4936	202.4598	251.4894	272.4418	321.0034	370.3823	406.6052	453.3937	548.7523	640.2821	645.5872	778.486	796.246	824.5416	865.3455	920.255	951.3381	983.2077	1013.5294	1025.1025	1044.235	1066.5298	1074.8838	1103.8544	1148.1644	1170.7858	1194.1854	1234.292	1285.8054	1294.152	1376.7551	1388.9805	1408.5821	1415.4312	1476.2096	1480.9852	1497.0639	1522.8177	1718.6062	2968.086	2992.0336	3029.3697	3092.9736	3104.421	3128.4442	3129.3798	3212.5079	3225.1105	3791.6433
CC1=CCOC11CC1O	CC1=CCO[C@]21C[C@H]2O	
InChI=1S/C7H10O2/c1-5-2-3-9-7(5)4-6(7)8/h2,6,8H,3-4H2,1H3	InChI=1S/C7H10O2/c1-5-2-3-9-7(5)4-6(7)8/h2,6,8H,3-4H2,1H3/t6-,7+/m1/s1
