18
gdb 63280	2.10778	1.72185	1.29847	3.1855	73.91	-0.2653	0.0049	0.2702	1066.8434	0.145228	-439.070499	-439.061554	-439.06061	-439.103809	33.5	
C	 0.190198721	 1.4580726088	-0.2112101971	-0.432872
C	-0.0354896862	-0.0188115361	 0.0526214065	 0.319348
C	-1.4843726179	-0.4547964749	-0.0576984594	-0.42228
O	 0.8261924892	-0.8353245988	-0.8479493558	-0.317265
C	 1.4855729578	-1.4348633323	 0.2042959144	 0.380958
N	 2.3829968921	-2.3093122761	 0.2363552995	-0.55434
C	 0.7350709571	-0.6405068396	 1.2311518161	 0.254063
C	 1.1510327752	-0.1187512805	 2.5321083653	-0.259882
O	 0.1598323879	-1.1488460486	 2.4101192688	-0.254987
H	 1.2499137677	 1.7132312746	-0.1277949895	 0.129226
H	-0.1506880261	 1.7209865422	-1.2172442074	 0.134164
H	-0.3726362774	 2.0633290359	 0.5067126853	 0.1265
H	-1.8794637885	-0.2152512879	-1.0493842146	 0.128667
H	-1.5819615119	-1.5299371852	 0.109896081	 0.138971
H	-2.0900612707	 0.0628182281	 0.6923042401	 0.131055
H	 2.6410475458	-2.6189639175	-0.7019503808	 0.230997
H	 2.1043667443	-0.4375248248	 2.9483388804	 0.143846
H	 0.7800172107	 0.8489564926	 2.8659945871	 0.123831
86.7244	170.7804	186.5373	207.2893	226.9776	244.5831	299.9919	333.4832	362.382	487.9093	561.28	602.0943	635.2748	698.3603	815.3188	833.0561	862.5465	921.553	943.1258	964.5778	983.6854	1009.6137	1019.8146	1116.4043	1124.0105	1152.6777	1166.803	1248.6785	1275.2565	1303.0332	1403.5125	1416.2831	1447.6169	1471.7332	1480.4307	1495.337	1501.1845	1534.9673	1827.4381	3039.4637	3046.3609	3090.5537	3110.5139	3119.1175	3122.046	3130.6741	3186.1883	3480.6158
CC1(C)OC(=N)C11CO1	CC1(C)O[C]([NH])[C@]21CO2	
InChI=1S/C6H9NO2/c1-5(2)6(3-8-6)4(7)9-5/h7H,3H2,1-2H3	InChI=1S/C6H9NO2/c1-5(2)6(3-8-6)4(7)9-5/h7H,3H2,1-2H3/t6-/m0/s1
