21
gdb 113464	3.86316	1.0142	0.98261	2.0073	84.15	-0.2221	0.0795	0.3016	1330.0393	0.182712	-383.190054	-383.181455	-383.180511	-383.22333	33.428	
C	 0.2686169893	 1.5265045005	 0.0909834406	-0.376612
C	-0.2493757835	 0.1206878618	-0.1996536507	-0.11461
N	 0.5260366661	-0.5038244041	-1.2677649071	-0.12541
C	 1.7198484504	-1.2608558374	-0.8768772764	-0.340783
C	 0.5016216483	-1.9429602153	-1.3785237455	 0.421285
C	-0.3303093663	-3.0080803584	-0.6019045417	-0.320749
C	-0.463513793	-3.7602946525	-1.9346497728	-0.039458
N	-1.164863173	-2.8340461724	-2.8545452282	-0.336531
C	 0.3077768173	-2.7148005098	-2.6650822506	-0.15423
H	 1.3051650864	 1.4968676587	 0.4431833801	 0.115151
H	 0.2376831229	 2.1404249816	-0.8134998968	 0.126921
H	-0.3372393099	 2.0106754587	 0.8631876605	 0.109358
H	-0.2369507538	-0.4804810096	 0.7268927768	 0.079448
H	-1.2913763527	 0.165085534	-0.5366595487	 0.112165
H	 2.595532944	-1.1303907674	-1.5086516387	 0.110683
H	 1.9378738653	-1.3643092448	 0.1868480097	 0.10228
H	 0.2567419531	-3.5399174506	 0.1503494305	 0.105725
H	-1.2779620157	-2.6771746553	-0.169851989	 0.111968
H	-0.4896488056	-4.8315876387	-2.0858107192	 0.094365
H	-1.3039804256	-3.333379417	-3.7336374136	 0.22675
H	 0.9869425563	-2.7933293918	-3.5050202092	 0.092283
79.0188	129.7179	152.1376	197.6907	254.0716	333.5673	372.0846	429.0579	454.1383	502.0853	635.4003	755.4879	794.0693	816.691	822.0404	836.3553	879.8012	902.5619	922.0863	958.0708	975.2402	999.1313	1048.3459	1057.9159	1092.0268	1100.6318	1113.5555	1114.0257	1149.084	1177.6811	1185.3145	1208.492	1225.6045	1293.4151	1308.7742	1315.8965	1357.0482	1385.9886	1411.1756	1435.3359	1471.5428	1489.5578	1491.5288	1507.0175	1521.4454	2944.4525	3038.0029	3055.5246	3063.1516	3075.9197	3106.4046	3118.7953	3119.6088	3163.3638	3188.2279	3203.4148	3462.6905
CCN1CC11CC2NC12	CCN1C[C@]21C[C@H]1N[C@@H]21	
InChI=1S/C7H12N2/c1-2-9-4-7(9)3-5-6(7)8-5/h5-6,8H,2-4H2,1H3	InChI=1S/C7H12N2/c1-2-9-4-7(9)3-5-6(7)8-5/h5-6,8H,2-4H2,1H3/t5-,6-,7-,9?/m1/s1
