20
gdb 6876	2.68826	1.64841	1.40653	0.8957	82.32	-0.235	0.0516	0.2866	1029.0143	0.174009	-311.838125	-311.828549	-311.827605	-311.871483	35.832	
C	-0.1276736867	 1.5445343017	-0.0575435493	-0.419554
C	 0.0295405263	 0.0442603012	 0.0441014818	-0.045328
C	 1.3850894473	-0.637469762	-0.1765450917	-0.272641
C	 2.5685284924	 0.1331389752	-0.4131870112	 0.341234
C	 3.5665458276	 0.7744705841	-0.6200597446	-0.464363
C	 0.7013086701	-0.6576785848	 1.1977361645	 0.308317
C	 1.3085897838	 0.1382469254	 2.3361243806	-0.453776
C	 0.1193387019	-1.9913845103	 1.6292326733	-0.44735
H	 0.7753214599	 2.0744833956	 0.2513328924	 0.132194
H	-0.3374146262	 1.8368834696	-1.0919431483	 0.120844
H	-0.9600686333	 1.8944334967	 0.5629633795	 0.115191
H	-0.8003156206	-0.5082786184	-0.3914372118	 0.083403
H	 1.3543275292	-1.5769749916	-0.7223068365	 0.103716
H	 4.4498373126	 1.3341649143	-0.8028476777	 0.190914
H	 1.8153953447	 1.0410740853	 1.9925023845	 0.130935
H	 0.5365328358	 0.4297397924	 3.057673896	 0.112155
H	 2.0491907429	-0.4675051881	 2.8703446737	 0.117732
H	 0.8822756973	-2.6212785835	 2.1012741956	 0.117937
H	-0.6878699797	-1.8464967673	 2.3572778345	 0.115801
H	-0.2944117554	-2.5446512456	 0.7803011247	 0.112638
123.7674	140.6692	164.4273	166.5706	200.5351	241.8502	264.1231	349.1969	361.9586	384.7384	461.1354	541.7199	568.6332	596.3066	645.2631	696.1674	762.4027	823.7933	944.823	971.8188	978.4439	1002.0091	1033.0312	1060.5513	1126.4207	1140.4911	1152.8268	1163.4476	1253.4629	1329.1894	1359.8002	1409.6556	1414.6476	1425.6868	1440.4447	1478.428	1488.1091	1490.6409	1498.7223	1505.2452	1516.218	2227.3636	3020.1828	3030.6447	3036.6612	3081.1411	3085.6749	3092.2678	3097.2715	3118.632	3131.5718	3135.8404	3141.6157	3504.8827
CC1C(C#C)C1(C)C	C[C@H]1[C@@H](C#C)C1(C)C	
InChI=1S/C8H12/c1-5-7-6(2)8(7,3)4/h1,6-7H,2-4H3	InChI=1S/C8H12/c1-5-7-6(2)8(7,3)4/h1,6-7H,2-4H3/t6-,7+/m0/s1
