13
gdb 133580	2.73481	1.30578	1.09749	2.9159	57.46	-0.2662	0.0209	0.2871	1066.6274	0.084554	-547.04728	-547.039078	-547.038134	-547.080918	29.754	
F	 0.3115585312	 0.1893692652	-0.067479771	-0.05961
C	-0.0538886835	 1.4668621304	-0.0523595464	 0.315213
F	 1.0102151355	 2.2148981115	-0.3866404226	-0.077642
F	-0.9808308441	 1.6442862345	-1.0097221388	-0.081381
C	-0.6011625182	 1.9110489366	 1.282834268	-0.2011
N	-1.3513469413	 0.9222683028	 2.0411357656	-0.312167
C	-0.0707915958	 1.4201564047	 2.5926466774	-0.246749
C	 1.0226568216	 0.4989275725	 2.7343137602	 0.388833
C	 1.9597572618	-0.2312919587	 2.9101220417	-0.425365
H	-0.9465908464	 2.9416864446	 1.2476013551	 0.120845
H	-2.137204794	 1.3538176171	 2.519573923	 0.249831
H	-0.1340646808	 2.1538515654	 3.3945530231	 0.123875
H	 2.782784774	-0.8894392866	 3.0425510948	 0.205416
44.2922	108.9926	181.0764	229.2327	251.7631	349.4676	417.1595	519.2553	526.4794	541.3583	620.5684	637.4037	670.0483	700.3048	783.6935	836.3482	894.9514	943.1963	1015.897	1082.4371	1161.211	1186.8811	1198.5035	1212.5797	1243.8509	1323.0487	1417.3615	1483.0592	2249.11	3120.4278	3145.1876	3503.0192	3516.8534
FC(F)(F)C1NC1C#C	FC(F)(F)[C@H]1N[C@H]1C#C	
InChI=1S/C5H4F3N/c1-2-3-4(9-3)5(6,7)8/h1,3-4,9H	InChI=1S/C5H4F3N/c1-2-3-4(9-3)5(6,7)8/h1,3-4,9H/t3-,4-/m0/s1
