19
gdb 74721	2.46708	1.71568	1.20543	0.4205	87.61	-0.2191	0.0183	0.2374	1080.2854	0.158861	-348.69843	-348.690224	-348.68928	-348.730747	32.851	
C	-0.0653796638	 1.4541827266	 0.0512705401	-0.514354
C	-0.0181441885	-0.0305768648	-0.0149821075	 0.30872
C	-0.0216308523	-0.8925245059	-1.0358269466	-0.206977
C	 0.0455320416	-2.269645981	-0.362215996	-0.10017
C	-0.9935338788	-2.0698607285	 0.7894068055	-0.241728
C	 0.0523252889	-0.9706479622	 1.224003131	 0.1769
C	 1.1395094438	-1.9987806045	 0.7220579093	-0.241744
C	 0.0747282051	-0.3939726855	 2.542795424	 0.034012
C	 0.0936240738	 0.0838887519	 3.6470715775	-0.340627
H	 0.8163426621	 1.8585998907	 0.5636244236	 0.133711
H	-0.1135832139	 1.8920146806	-0.9496073943	 0.12199
H	-0.9355887138	 1.8002077938	 0.62262023	 0.133725
H	-0.0617939933	-0.6948816268	-2.0979230337	 0.097618
H	 0.0555323464	-3.1613956207	-0.9865400355	 0.065144
H	-1.9913413161	-1.7186495905	 0.5188804559	 0.098467
H	-1.0441603214	-2.9046838413	 1.4947612036	 0.100528
H	 1.2899039866	-2.8269102785	 1.4210574836	 0.100529
H	 2.0927159707	-1.5825531031	 0.389931332	 0.098465
H	 0.1104732928	 0.5015221198	 4.6229884174	 0.17579
130.9219	136.0773	174.7816	201.34	301.2573	477.3863	484.901	505.7388	507.8024	564.5736	579.1845	625.5385	627.5901	633.0243	781.1729	793.7483	841.4418	887.9957	910.2743	911.0583	957.1093	1005.8347	1009.4493	1060.0165	1074.7301	1075.9635	1138.5201	1166.3835	1174.403	1224.0355	1225.0696	1252.7506	1270.2558	1311.3707	1413.6395	1472.9547	1477.7461	1482.1137	1515.2873	1695.9149	2232.3032	3020.4155	3049.116	3058.8126	3066.7377	3110.7714	3123.8218	3128.9123	3131.8822	3226.7417	3502.8535
CC1=CC2CC1(C2)C#C	CC1=C[C@@H]2C[C@]1(C2)C#C	
InChI=1S/C9H10/c1-3-9-5-8(6-9)4-7(9)2/h1,4,8H,5-6H2,2H3	InChI=1S/C9H10/c1-3-9-5-8(6-9)4-7(9)2/h1,4,8H,5-6H2,2H3/t8-,9+
