15
gdb 125983	3.70249	1.33685	1.05577	6.488	67.62	-0.2505	-0.0038	0.2467	1100.9461	0.113205	-453.931316	-453.92369	-453.922746	-453.964187	27.697	
C	-0.2873091936	 1.5194942123	 0.1455396132	-0.401949
C	-0.0284404341	 0.0275963422	-0.0116802191	-0.143711
C	 0.7628934882	-0.4484282547	-1.3049325819	-0.185777
N	 1.763518537	-1.026774272	-0.3776688542	-0.15656
C	 1.1576796241	-0.5652793219	 0.7420020301	 0.43067
N	 1.8230416028	-0.7134984479	 1.8324580668	-0.252939
O	 3.0217647171	-1.3613106015	 1.3465860046	-0.252776
C	 3.0192907513	-1.5060915815	-0.0370673611	 0.506409
O	 3.9160089804	-1.9594669782	-0.6840899207	-0.389074
H	 0.6290830512	 2.0987123163	-0.0009323667	 0.138351
H	-1.0302050033	 1.8567678431	-0.583403007	 0.13369
H	-0.6691448309	 1.7386852969	 1.146325584	 0.149288
H	-0.9437663296	-0.5503251259	 0.1383218419	 0.128006
H	 0.2688391686	-1.1908892688	-1.9330770248	 0.147749
H	 1.1617785907	 0.3655694917	-1.914117905	 0.148622
55.5255	108.4089	202.3669	229.1435	297.3225	363.6597	430.7681	596.9846	647.7396	690.9209	702.6289	748.1504	762.0108	835.0662	874.1561	916.7424	981.4692	1035.7216	1091.4843	1120.0741	1144.7225	1179.0645	1235.7757	1260.3441	1297.8542	1354.3727	1414.0233	1441.8241	1492.9143	1494.783	1510.4138	1683.6079	1898.9443	3044.7936	3077.5221	3084.9222	3119.2267	3123.8657	3141.8585
CC1CN2C1=NOC2=O	C[C@H]1Cn2c1noc2=O	
InChI=1S/C5H6N2O2/c1-3-2-7-4(3)6-9-5(7)8/h3H,2H2,1H3	InChI=1S/C5H6N2O2/c1-3-2-7-4(3)6-9-5(7)8/h3H,2H2,1H3/t3-/m0/s1
