16
gdb 46094	4.79533	0.89561	0.81726	3.4035	80.62	-0.2446	-0.0308	0.2137	1376.0914	0.12395	-400.73924	-400.730925	-400.729981	-400.772904	30.732	
N	 0.1355350333	 1.3219094554	 0.3407281992	-0.551468
C	 0.0085371751	 0.0814552498	 0.1233506154	 0.42805
O	 1.028967415	-0.7664192874	-0.2463487824	-0.251402
C	 0.5173930933	-2.0903003499	-0.4023102771	-0.169258
C	-0.9510363957	-1.983577507	-0.0838216899	 0.316795
C	-1.8750221382	-3.1703210056	-0.0971527879	-0.460674
C	-1.8104711689	-3.9338995905	-1.3426365431	 0.302144
C	-1.7405375226	-4.5546413226	-2.3686878188	-0.446765
C	-1.2227421638	-0.7115201011	 0.2135073161	-0.292515
H	 1.1047684082	 1.6120703761	 0.2030524066	 0.222749
H	 0.6976060482	-2.4360725692	-1.4276879869	 0.140527
H	 1.0492476499	-2.7686003798	 0.2794685403	 0.125572
H	-1.617759618	-3.8365292371	 0.7399319842	 0.15116
H	-2.9021014713	-2.8350044088	 0.0848816968	 0.151077
H	-1.6899432915	-5.1064227627	-3.2747953045	 0.206215
H	-2.1730774232	-0.2750539397	 0.4839986219	 0.127794
42.4111	99.7618	181.2661	224.4807	270.4018	334.3924	394.9663	448.756	494.6268	630.9182	651.974	671.4101	697.1977	703.9328	860.2802	886.7655	896.5161	902.7245	949.0847	968.4481	1031.3354	1034.021	1090.3796	1173.3645	1192.3675	1208.1202	1263.5266	1324.3183	1360.0863	1388.9095	1458.1941	1501.0238	1703.6906	1761.0874	2242.2245	3000.9683	3012.8755	3052.4486	3064.1348	3249.5937	3480.9059	3503.9856
N=C1OCC(CC#C)=C1	[NH]C1=C[C](CO1)CC#C	
InChI=1S/C7H7NO/c1-2-3-6-4-7(8)9-5-6/h1,4,8H,3,5H2	InChI=1S/C7H7NO/c1-2-3-6-4-7(8)9-5-6/h1,4,8H,3,5H2
