18
gdb 66072	2.23291	1.34442	1.13791	4.0417	79.89	-0.2449	0.0197	0.2646	1175.0681	0.145454	-401.927081	-401.917651	-401.916707	-401.961763	34.153	
C	-0.2243557594	 1.5752159581	 0.0796051402	-0.431457
C	 0.000255991	 0.0615091575	-0.008642071	 0.104232
C	 0.8358220308	-0.4159654296	-1.2555905147	-0.293088
C	 1.934710305	-0.9182717734	-0.2803471149	-0.163363
N	 1.1244343415	-0.4235531211	 0.8315916862	-0.056442
C	 1.2118047738	-0.7224604896	 2.1493288238	 0.129335
O	 2.1435882593	-1.3152989753	 2.6530477594	-0.329501
C	-1.248519896	-0.6682602994	 0.1967033096	 0.327245
C	-2.2813720386	-1.2608079122	 0.3616858172	-0.466969
H	 0.7217501045	 2.1024880783	-0.0702271222	 0.124226
H	-0.9370438147	 1.8946006472	-0.6864668407	 0.133773
H	-0.6283532985	 1.8511246735	 1.0573996146	 0.135201
H	 0.3492325828	-1.1926807147	-1.8431329817	 0.129052
H	 1.1366965699	 0.4043131017	-1.9084162933	 0.119358
H	 2.0827571337	-2.0020421977	-0.2540124949	 0.132302
H	 2.9111658997	-0.4326095639	-0.3655126815	 0.125114
H	 0.3372807901	-0.352412575	 2.7207861822	 0.075422
H	-3.1890528747	-1.7919334843	 0.5119925715	 0.20556
51.1775	79.7454	148.1562	177.8255	208.3095	252.9183	306.3045	321.3179	380.7035	462.7928	517.6282	615.4994	628.8946	635.7103	661.7023	783.2173	833.7546	886.4437	929.8081	962.2607	983.0777	1033.5139	1096.1291	1145.2643	1157.824	1186.5543	1205.3212	1256.7321	1268.6054	1314.8834	1388.9731	1405.2161	1435.2822	1482.363	1485.4052	1491.9691	1522.7468	1787.5636	2232.0563	2936.9729	3042.4172	3050.8044	3091.6967	3095.9167	3121.91	3124.7014	3159.5029	3499.3373
CC1(CCN1C=O)C#C	C[C@]1(CCN1C=O)C#C	
InChI=1S/C7H9NO/c1-3-7(2)4-5-8(7)6-9/h1,6H,4-5H2,2H3	InChI=1S/C7H9NO/c1-3-7(2)4-5-8(7)6-9/h1,6H,4-5H2,2H3/t7-/m1/s1
