16
gdb 32548	2.68298	1.51878	0.97721	2.8054	77.14	-0.2017	-0.0307	0.171	1157.5611	0.125524	-437.928421	-437.920333	-437.919388	-437.961261	30.047	
C	 0.0141206685	 1.3970246264	 0.1319683147	-0.325123
N	-0.0757543333	-0.0173185593	-0.1223306631	-0.349152
C	 0.5875485827	-0.6364153409	-1.1388875531	 0.140837
C	 1.2128299534	-0.0179993542	-2.174433144	-0.057879
O	 1.8269063793	-0.7047204326	-3.1843905008	-0.179738
C	 1.8296226562	-2.0397442632	-3.1483437818	 0.073898
C	 1.2622358098	-2.7650891178	-2.1604397777	-0.271606
C	 0.5952094948	-2.1165585916	-1.0531879157	 0.34717
O	 0.0735994103	-2.6868726705	-0.0971780893	-0.405549
H	 1.0526946325	 1.7390578268	 0.2675840223	 0.118316
H	-0.4215108982	 1.9737492512	-0.6949640946	 0.128021
H	-0.5485075239	 1.6370515418	 1.0359854094	 0.135028
H	-0.3111637096	-0.6571995525	 0.6240657066	 0.2584
H	 1.2863677071	 1.0487397098	-2.3252617611	 0.126433
H	 2.3448922447	-2.4585923497	-4.0041564493	 0.14106
H	 1.3065618958	-3.8464970737	-2.1853643127	 0.119884
88.384	137.9586	176.8583	192.2385	300.806	351.658	438.1127	473.9747	518.3357	537.3889	570.9199	601.7025	766.5314	773.228	793.0855	857.0018	873.583	950.8059	1008.3519	1082.8178	1117.2512	1158.6329	1196.6774	1231.7554	1293.2907	1358.6953	1383.5278	1438.7302	1465.0228	1480.6202	1518.0269	1537.6367	1628.2736	1674.691	1722.393	2975.8165	3032.0026	3127.2998	3208.0307	3226.5493	3242.7157	3587.3477
CNC1=COC=CC1=O	CNc1coccc1=O	
InChI=1S/C6H7NO2/c1-7-5-4-9-3-2-6(5)8/h2-4,7H,1H3	InChI=1S/C6H7NO2/c1-7-5-4-9-3-2-6(5)8/h2-4,7H,1H3
