21
gdb 85862	2.12711	1.54708	1.22832	2.3653	78.46	-0.2516	0.0687	0.3203	1140.0833	0.180261	-424.200972	-424.19141	-424.190466	-424.234846	37.254	
C	-0.7395529576	 1.357759574	 0.0782751513	-0.453105
C	-0.035806983	 0.0154503372	-0.0543925548	 0.309289
O	-0.9494038177	-0.9966465656	-0.4713989272	-0.482106
C	 1.2996276884	-0.0231742699	-0.8682244565	-0.319444
C	 1.9324120506	-0.9078968875	 0.2457345253	 0.071791
O	 3.2385741232	-0.6269157663	 0.6849950854	-0.431646
C	 0.7451119757	-0.538601849	 1.1482590327	 0.331147
C	 0.8747749708	 0.088347527	 2.5094549534	-0.344763
C	 0.2096484761	-1.256661424	 2.3431174683	-0.318356
H	-0.0592473387	 2.1344129859	 0.4394864562	 0.113951
H	-1.1302542251	 1.6843392832	-0.8938131111	 0.106125
H	-1.5845802534	 1.283082561	 0.7706007349	 0.124012
H	-1.3216617523	-0.7237889938	-1.3174934935	 0.272925
H	 1.2390267812	-0.4465765634	-1.8737979	 0.096342
H	 1.7834160108	 0.9580361775	-0.9189389141	 0.088101
H	 1.9344788988	-1.9680671194	-0.0211830416	 0.099466
H	 3.2650275695	 0.2994740425	 0.9490907439	 0.275549
H	 1.8669439805	 0.1086065235	 2.9505310327	 0.112438
H	 0.2550165485	 0.9451101084	 2.7533170515	 0.111878
H	-0.8684278555	-1.3130115344	 2.4497200953	 0.120584
H	 0.7440081391	-2.137143587	 2.685725928	 0.115819
52.475	188.1317	202.0073	218.2893	243.2628	279.9459	308.0032	326.9174	353.6079	371.133	429.6428	492.6397	556.705	589.956	652.5274	762.181	796.6772	856.8847	890.9489	935.1353	947.5921	956.9509	974.8042	994.2051	1049.093	1061.7164	1077.7333	1091.9495	1115.8695	1189.8566	1198.8909	1203.8575	1222.0054	1250.3835	1274.4416	1309.5968	1342.4591	1399.5135	1404.7396	1430.7784	1459.4485	1464.5603	1487.7381	1492.2148	1501.9534	3022.1734	3045.9786	3076.5078	3087.2513	3108.9995	3113.756	3120.1435	3128.2372	3200.9498	3217.3844	3795.0662	3799.5693
CC1(O)CC(O)C11CC1	C[C@@]1(O)C[C@@H](O)C21CC2	
InChI=1S/C7H12O2/c1-6(9)4-5(8)7(6)2-3-7/h5,8-9H,2-4H2,1H3	InChI=1S/C7H12O2/c1-6(9)4-5(8)7(6)2-3-7/h5,8-9H,2-4H2,1H3/t5-,6-/m1/s1
