16
gdb 108300	2.7933	1.43248	1.0997	2.0495	66.39	-0.2658	-0.003	0.2628	1090.8771	0.12399	-474.979309	-474.971321	-474.970376	-475.012257	29.667	
O	-0.0209631365	 1.4794652648	 0.0256110536	-0.410684
C	 0.1004630019	 0.072998259	 0.1414496408	-0.167782
C	-1.2442928023	-0.5883239909	 0.0223811624	 0.376427
C	-2.330765775	-0.4836603946	 1.1007200193	-0.121581
O	-2.6557564782	-1.8922240723	 0.9533519705	-0.285435
C	-1.6231990742	-2.0861857208	-0.033271968	-0.094996
C	-2.1014085	-1.7625597507	-1.4384050545	 0.441021
N	-2.5802074017	-2.4163891105	-2.3902252781	-0.542114
O	-1.8147593963	-0.403400306	-1.3200124087	-0.313962
H	-0.3946164723	 1.6598958275	-0.8447955142	 0.298577
H	 0.7829227664	-0.3451896388	-0.6136583956	 0.104775
H	 0.5273148677	-0.1261426303	 1.1294429992	 0.124249
H	-1.9552841916	-0.2690571311	 2.107531494	 0.119397
H	-3.1702262107	 0.1749828852	 0.8608502043	 0.126446
H	-0.9956831661	-2.9592458405	 0.1447175244	 0.11192
H	-2.8051650612	-1.8191137	-3.1882230595	 0.233741
73.8268	125.3135	158.0838	241.6253	316.7514	365.0578	398.0105	415.5705	448.3543	640.0782	695.1832	743.9635	832.6009	873.3435	889.3959	918.7042	967.1277	984.2172	1009.0603	1022.7576	1052.1493	1083.2459	1118.5907	1152.0312	1180.1385	1230.314	1271.8869	1281.2992	1298.7006	1370.3925	1387.3138	1431.3908	1492.5949	1504.7646	1829.6324	2997.0361	3038.4701	3085.6212	3101.3299	3124.6292	3473.2378	3801.438
OCC12COC1C(=N)O2	OC[C@]12CO[C@H]1[C]([NH])O2	
InChI=1S/C5H7NO3/c6-4-3-5(1-7,9-4)2-8-3/h3,6-7H,1-2H2	InChI=1S/C5H7NO3/c6-4-3-5(1-7,9-4)2-8-3/h3,6-7H,1-2H2/t3-,5-/m0/s1
