22
gdb 103984	2.55187	1.31741	1.21257	1.9747	81.48	-0.2245	0.0689	0.2934	1177.8589	0.192842	-404.304183	-404.294482	-404.293537	-404.337934	37.176	
C	 0.009627081	 1.5420499919	 0.1035631029	-0.500559
C	-0.0147813854	 0.0445778457	-0.0326711584	 0.29714
C	-0.8436156886	-0.8048291841	 0.8489078426	-0.292772
N	 0.6232286873	-0.8944886327	 0.9869340144	-0.169572
C	 1.0497609526	-1.7768555518	-0.1562676918	-0.20459
C	 0.5333415056	-0.7692632013	-1.2264029639	 0.277355
C	-0.4628695664	-1.2563219638	-2.2774517443	-0.468186
C	 1.7116674084	-0.0614236088	-1.8939996903	-0.135114
O	 2.3775637858	-1.0103119068	-2.7165816839	-0.426373
H	 0.9719432985	 1.9713663875	-0.1922441292	 0.12058
H	-0.7693456272	 2.0023007731	-0.5161780901	 0.121206
H	-0.1761994233	 1.8293529372	 1.1426126549	 0.12934
H	-1.3225720072	-0.3162142034	 1.6927863409	 0.113708
H	-1.3881437654	-1.6641759573	 0.4637721078	 0.10641
H	 2.1328241238	-1.9086451352	-0.1671668204	 0.113758
H	 0.5726749692	-2.7627954213	-0.1432184649	 0.096534
H	-1.2884033297	-1.814944573	-1.8285196174	 0.108563
H	-0.8914744426	-0.4098682856	-2.8276024466	 0.107816
H	 0.037738192	-1.905582185	-3.0005856787	 0.137425
H	 1.3490394848	 0.7926356311	-2.4895716895	 0.083842
H	 2.3905097788	 0.3332427132	-1.1228063635	 0.094587
H	 3.1388744482	-0.5810967895	-3.1168269004	 0.288906
115.7727	160.7026	171.3688	181.4553	206.4966	248.2097	265.2506	309.1041	358.9323	364.5591	447.0386	494.1214	507.455	619.9267	694.3886	745.9727	844.1617	860.1684	905.93	949.0099	965.0956	982.3413	1000.3163	1032.2825	1067.7124	1095.1527	1104.6052	1127.08	1136.9282	1187.4151	1209.8813	1230.1236	1260.0993	1278.1539	1295.0827	1344.1845	1362.7289	1404.1952	1416.4098	1456.9982	1484.5229	1490.2937	1493.1158	1495.4906	1503.0631	1518.2737	1527.7113	2961.7024	3001.2949	3028.5558	3031.0084	3044.4286	3090.8545	3096.8394	3101.8361	3109.9217	3117.454	3122.3326	3187.16	3835.3121
CC12CN1CC2(C)CO	C[C@]12CN1C[C@]2(C)CO	
InChI=1S/C7H13NO/c1-6(5-9)3-8-4-7(6,8)2/h9H,3-5H2,1-2H3	InChI=1S/C7H13NO/c1-6(5-9)3-8-4-7(6,8)2/h9H,3-5H2,1-2H3/t6-,7-,8?/m1/s1
