15
gdb 50609	2.427	1.68795	1.00804	2.925	77.7	-0.2425	-0.0454	0.1971	1112.9946	0.112342	-416.805117	-416.796673	-416.795729	-416.839238	29.66	
O	-0.2230839854	 0.0238578329	 0.0027731745	-0.299934
C	-0.0697629161	 1.2204907791	 0.0105616962	 0.147483
N	 1.1330159551	 1.8876282229	 0.0031921271	-0.143189
C	 1.2473422399	 3.3537679574	 0.0130976736	-0.20268
C	 2.7888447055	 3.5483677345	-0.0023235979	-0.19166
N	 3.3878157092	 2.2114905902	-0.0195686928	-0.299296
C	 2.4410853577	 1.350043493	-0.0155598873	 0.257293
C	 2.6732393264	-0.0534540281	-0.029131079	 0.299591
C	 2.9488306559	-1.2223741311	-0.0413346145	-0.381418
H	-0.9141161129	 1.9381797038	 0.0254701295	 0.083782
H	 0.7594729226	 3.7861943293	-0.8653918744	 0.130891
H	 0.7788870676	 3.7727248225	 0.9085112534	 0.130892
H	 3.1262014916	 4.1079586146	-0.8810263464	 0.129623
H	 3.1455516978	 4.0938691708	 0.8776036379	 0.129629
H	 3.1621708751	-2.2629902617	-0.05202757	 0.208993
32.8457	127.06	149.1963	168.9065	229.3044	234.1621	385.7779	461.4487	516.5644	625.9787	658.3672	665.771	720.1223	780.0483	812.8285	832.7394	962.4666	1017.443	1028.8546	1105.6087	1116.263	1215.8814	1254.1626	1265.3137	1305.5106	1344.0498	1397.9181	1451.95	1495.5297	1526.6556	1667.3568	1815.2183	2249.2446	2934.0017	3042.3102	3050.6389	3068.73	3094.1562	3501.9311
O=CN1CCN=C1C#C	O=CN1CCN=C1C#C	
InChI=1S/C6H6N2O/c1-2-6-7-3-4-8(6)5-9/h1,5H,3-4H2	InChI=1S/C6H6N2O/c1-2-6-7-3-4-8(6)5-9/h1,5H,3-4H2
