17
gdb 66489	3.15447	1.70563	1.3998	1.6613	70.57	-0.2359	0.0712	0.3072	949.0167	0.135211	-421.741687	-421.73451	-421.733566	-421.772744	29.587	
C	 0.0188015049	 1.463083507	-0.0921926398	-0.51815
C	-0.0608030432	-0.0305412574	-0.0168269318	 0.475196
O	 0.3116368809	-0.7354775766	-1.2308015033	-0.328166
C	-0.4132322905	-1.8573459967	-0.684698303	 0.083831
C	 0.2728090845	-2.2626918206	 0.6482276935	-0.200663
C	 0.5455938803	-0.8337819925	 1.1749048301	-0.197439
C	-0.7406246161	-1.5283843677	 1.4992182169	 0.375245
O	-1.280850693	-1.7776493676	 2.7332274223	-0.453379
C	-1.3342871017	-0.9334341207	 0.1752318485	-0.262432
H	 1.0568460215	 1.7824824263	-0.2361220945	 0.131662
H	-0.5769445414	 1.8421652242	-0.9271695351	 0.128807
H	-0.3504692743	 1.9101015529	 0.835827534	 0.129046
H	-0.714858884	-2.5995982824	-1.421908677	 0.078256
H	 0.9239357937	-3.0939176526	 0.8823486	 0.095108
H	 1.3889402724	-0.6042992357	 1.8123006946	 0.094644
H	-1.8275344589	-2.5694442165	 2.6737146974	 0.289975
H	-2.3544704951	-0.6432667834	-0.0650345428	 0.07846
193.9077	213.4613	267.2103	304.3456	316.7293	374.404	556.2562	585.0775	596.7716	611.7446	756.7363	782.25	805.5565	813.9708	838.9174	854.3165	878.7759	911.7391	919.4899	958.8778	1006.211	1027.73	1073.6069	1095.2453	1117.49	1138.5811	1153.7763	1168.2278	1228.1141	1243.6369	1272.6264	1311.6016	1351.9266	1414.9885	1478.7815	1485.3417	1492.1327	3036.5783	3105.5194	3118.5658	3132.2371	3149.3318	3205.1866	3214.0098	3788.5892
CC12OC3C4C1C4(O)C23	C[C@@]12O[C@H]3[C@H]4[C@@H]1[C@@]4(O)[C@@H]23	
InChI=1S/C7H8O2/c1-6-4-2-3(9-6)5(6)7(2,4)8/h2-5,8H,1H3	InChI=1S/C7H8O2/c1-6-4-2-3(9-6)5(6)7(2,4)8/h2-5,8H,1H3/t2-,3-,4-,5+,6+,7+/m0/s1
