18
gdb 34196	3.93559	1.42455	1.25615	1.8874	81.85	-0.228	0.0226	0.2506	1029.761	0.148671	-364.724885	-364.717624	-364.71668	-364.756231	29.705	
C	 0.054286607	-1.1848045917	 0.0599632071	-0.364943
C	 0.020121642	 0.0173455071	 0.0266405953	 0.137321
C	-0.0124927862	 1.4571675858	 0.0072267158	 0.218056
C	-1.1128425455	 2.1762425202	 0.8309090949	-0.293578
C	-1.2931059708	 3.1343831858	-0.3584378771	 0.012718
C	-0.2270372422	 4.2411203247	-0.4675633363	-0.243224
C	 0.7130910304	 3.1704843025	-1.0533740896	 0.012711
C	 1.3377934496	 2.2203347285	-0.0179800719	-0.293612
N	-0.469557531	 2.2128187043	-1.2730535091	-0.188995
H	 0.0802155327	-2.2460872374	 0.0816304134	 0.187647
H	-1.9812055072	 1.5282306547	 0.9653868445	 0.121541
H	-0.8239428546	 2.5937229969	 1.7996401226	 0.102754
H	-2.3141863586	 3.3757987291	-0.6583159842	 0.078488
H	-0.4998615735	 4.9891832448	-1.2163185713	 0.112278
H	 0.0810374972	 4.7544369549	 0.4484782861	 0.098033
H	 1.3216638901	 3.4412294549	-1.9177530663	 0.07849
H	 1.6966025612	 2.6390784942	 0.9265308941	 0.102749
H	 2.1236161194	 1.6020877308	-0.4565130279	 0.121566
139.0268	140.3642	285.6669	302.725	404.0677	455.5749	524.3366	547.3569	615.099	648.2501	656.2852	721.1921	780.3967	832.621	877.4758	905.1553	909.3851	931.0207	933.8673	953.6557	957.0354	1039.0482	1061.0216	1064.3883	1134.3446	1161.4343	1171.611	1230.6167	1237.0282	1240.627	1247.6148	1286.1861	1303.9485	1329.5193	1363.4576	1476.164	1476.4618	1495.0835	2230.1515	3048.386	3056.287	3058.7537	3087.286	3088.661	3106.7388	3119.2243	3121.8985	3502.5938
C#CC12CC3CC(C1)N23	C#C[C@@]12C[C@H]3C[C@@H](C1)N23	
InChI=1S/C8H9N/c1-2-8-4-6-3-7(5-8)9(6)8/h1,6-7H,3-5H2	InChI=1S/C8H9N/c1-2-8-4-6-3-7(5-8)9(6)8/h1,6-7H,3-5H2/t6-,7+,8-
