13
gdb 128703	7.31274	0.88786	0.79572	4.3642	70.02	-0.2752	-0.0686	0.2065	1334.8126	0.089333	-452.739343	-452.731557	-452.730613	-452.772079	27.432	
C	-0.0076411338	 1.4107875094	 0.0013824761	-0.24933
O	 0.0035856527	-0.023718022	-0.0003177219	-0.262666
C	 0.5967152894	-0.5990408495	-1.0403331654	 0.509653
N	 1.1511283655	 0.0736306876	-2.027749015	-0.224345
O	 1.6510226346	-0.8863094577	-2.8988005707	-0.221093
C	 1.3755955678	-2.1094820255	-2.3959984793	 0.37324
C	 0.7067113919	-2.0084237491	-1.2172545378	-0.461299
C	 1.804927354	-3.2366027886	-3.139531771	 0.252449
N	 2.1482167781	-4.1680937362	-3.7337652944	-0.318117
H	 1.0136025245	 1.802421304	 0.0008656713	 0.150331
H	-0.5361443776	 1.7913344226	-0.8773565316	 0.150345
H	-0.5271823499	 1.6990370512	 0.9145569937	 0.143807
H	 0.3486931227	-2.794308736	-0.5755539138	 0.157025
84.9545	141.0176	164.2348	182.523	249.4844	355.0691	431.753	495.1099	550.1281	610.4634	680.7374	719.0697	730.3041	840.3406	959.2485	1006.2305	1028.5502	1064.4606	1165.1271	1179.3483	1225.4428	1273.5906	1449.4345	1466.3118	1481.3352	1498.4924	1559.5009	1636.9331	2357.6051	3045.353	3119.2463	3163.8467	3297.433
COC1=NOC(=C1)C#N	COc1noc(c1)C#N	
InChI=1S/C5H4N2O2/c1-8-5-2-4(3-6)9-7-5/h2H,1H3	InChI=1S/C5H4N2O2/c1-8-5-2-4(3-6)9-7-5/h2H,1H3
