23
gdb 59485	2.36166	1.08772	0.81837	0.5812	91.69	-0.2589	0.0549	0.3139	1487.3694	0.203382	-351.117798	-351.107311	-351.106367	-351.153304	39.467	
C	 0.3177778772	 0.7687976608	 1.7751609147	-0.381478
C	-0.2075429493	-0.6705353092	 1.6613036042	 0.012838
C	-0.5596695816	-1.2424553406	 3.0428468543	-0.395684
C	-1.4037049988	-0.7253768861	 0.72473897	 0.044416
C	-1.2310704417	-0.7093663307	-0.7762764606	-0.332828
C	-1.7929386693	-1.934574204	-0.0969059855	-0.012367
C	-1.0067086919	-3.2403700584	-0.105430673	-0.378506
C	-1.4559168811	-4.1958840581	 0.9040815366	 0.319109
C	-1.8477646742	-4.9806656318	 1.7265276773	-0.457848
H	 1.197309815	 0.8172201133	 2.4257583653	 0.107419
H	 0.5954284257	 1.1704567154	 0.795648277	 0.111978
H	-0.4463835879	 1.4295908529	 2.2016555318	 0.110137
H	 0.5990676425	-1.2814975764	 1.2345785954	 0.065719
H	 0.3064636593	-1.2144087324	 3.7126716008	 0.104524
H	-1.3586190143	-0.6548860672	 3.5112781209	 0.107161
H	-0.9038274402	-2.2775705998	 2.9683993442	 0.133902
H	-2.2515798914	-0.1524911446	 1.0976199396	 0.077731
H	-1.8872499583	-0.0973094808	-1.3854837499	 0.108911
H	-0.214800546	-0.777509795	-1.1558424679	 0.106606
H	-2.8621623616	-2.0915911486	-0.2074538411	 0.092343
H	-1.0991300384	-3.7028865212	-1.0975193846	 0.13159
H	 0.0629150071	-3.0421126427	 0.0290765265	 0.129431
H	-2.1848815009	-5.6765278848	 2.4540959839	 0.194896
55.4284	76.3633	136.0847	165.2957	229.1033	231.6834	253.6078	328.5602	334.6111	349.1775	362.3331	461.8617	499.0633	549.5155	615.2828	635.24	756.8457	803.21	854.7035	885.815	914.6461	931.6832	959.3192	965.5758	1003.3767	1016.8441	1037.7417	1072.9768	1135.3047	1146.2288	1150.7275	1187.8805	1208.8964	1248.0369	1251.8211	1310.6903	1325.4405	1341.4361	1398.4196	1400.2997	1420.953	1434.9855	1470.6591	1488.2575	1491.9836	1496.2946	1505.3456	1512.2099	2235.0683	3010.4459	3018.122	3023.6173	3028.4078	3057.2582	3086.616	3093.3364	3102.8122	3113.2402	3117.0116	3119.9184	3146.4383	3204.0137	3506.3446
CC(C)C1CC1CC#C	CC(C)[C@H]1C[C@H]1CC#C	
InChI=1S/C9H14/c1-4-5-8-6-9(8)7(2)3/h1,7-9H,5-6H2,2-3H3	InChI=1S/C9H14/c1-4-5-8-6-9(8)7(2)3/h1,7-9H,5-6H2,2-3H3/t8-,9-/m1/s1
