12
gdb 20742	3.56784	1.99127	1.2882	4.0314	62.3	-0.281	-0.0471	0.2339	863.0251	0.085889	-373.728697	-373.721739	-373.720795	-373.76065	24.06	
C	-0.0357174144	 1.5062754199	-0.02317704	-0.509419
C	-0.0118915658	 0.0160628057	 0.009755282	 0.237261
N	-0.0321979935	-0.7335992649	-1.091123774	-0.236891
N	 0.0005845935	-1.9795762577	-0.6254921	-0.077024
N	 0.0407972164	-2.1312593298	 0.6803586432	-0.256207
C	 0.0338070943	-0.8643112604	 1.1203813139	 0.171963
C	 0.0685324985	-0.5329907609	 2.499378453	 0.235647
N	 0.0957993072	-0.2067937644	 3.6092835438	-0.334357
H	 0.8550560169	 1.9240364011	 0.4563267015	 0.154208
H	-0.073972451	 1.8543074019	-1.0564623096	 0.154334
H	-0.9063703272	 1.8970924241	 0.5126411035	 0.154201
H	-0.005126655	-2.7746183446	-1.2456446173	 0.306283
51.8331	140.4027	182.5712	282.7634	335.3407	528.0287	559.1886	567.2238	593.6287	714.038	717.1733	757.6444	987.2809	1023.9288	1070.7392	1170.1563	1200.6028	1272.6661	1346.2627	1415.8091	1441.9145	1480.7167	1481.1483	1507.2157	1555.6467	2358.2354	3048.3483	3104.7464	3147.2809	3658.3318
CC1=NNN=C1C#N	Cc1n[nH]nc1C#N	
InChI=1S/C4H4N4/c1-3-4(2-5)7-8-6-3/h1H3,(H,6,7,8)	InChI=1S/C4H4N4/c1-3-4(2-5)7-8-6-3/h1H3,(H,6,7,8)
