16
gdb 33867	4.22396	1.30192	1.15954	6.2273	72.51	-0.2606	0.0179	0.2784	1040.3766	0.127511	-396.89873	-396.891837	-396.890893	-396.92995	27.471	
N	-0.1085331057	-1.1026470549	 0.2791998318	-0.343777
C	-0.0485366769	 0.0453501016	 0.1538765547	 0.257079
C	 0.0118803236	 1.4720853538	-0.0523193362	 0.151049
C	-0.9970758025	 2.09252015	-1.0327815782	-0.302142
C	-0.2917811626	 3.3018320299	-1.6384621604	-0.034313
N	 0.0837059014	 4.3429171573	-0.6645630053	-0.34672
C	 1.1008670316	 3.3714610763	-1.1195983972	-0.049788
C	 1.3090294593	 2.2402808031	-0.1294585078	-0.068111
N	 0.508344985	 2.2648450491	 1.0867454882	-0.347353
H	-1.2275818007	 1.367270432	-1.8190542751	 0.131819
H	-1.9371495823	 2.3572415462	-0.5386312078	 0.132751
H	-0.5455921416	 3.6055062924	-2.6487364012	 0.103364
H	 0.2131450627	 5.2358172189	-1.132407782	 0.243288
H	 1.9357672203	 3.7106479466	-1.7208736101	 0.100654
H	 2.2790054969	 1.7602433053	-0.0637779582	 0.115825
H	 0.0079536915	 3.1550495923	 1.1227573046	 0.256374
134.5262	158.4028	294.4789	313.6076	420.005	465.6451	552.4571	595.3571	619.8811	689.496	722.6169	799.0743	839.1962	857.9324	893.1301	900.6843	968.0298	976.9516	1022.1241	1040.5666	1075.9827	1123.1542	1128.8381	1144.9418	1184.8062	1198.6019	1243.943	1291.9548	1311.3629	1320.7634	1369.6694	1406.477	1424.9155	1476.768	2355.5196	3057.1945	3100.9355	3165.28	3176.5567	3192.3852	3442.5702	3513.8912
N#CC12CC3NC3C1N2	N#C[C@]12C[C@H]3N[C@H]3[C@H]1N2	
InChI=1S/C6H7N3/c7-2-6-1-3-4(8-3)5(6)9-6/h3-5,8-9H,1H2	InChI=1S/C6H7N3/c7-2-6-1-3-4(8-3)5(6)9-6/h3-5,8-9H,1H2/t3-,4-,5-,6-/m1/s1
