25
gdb 118425	1.96459	0.94101	0.738	2.5596	90.12	-0.2373	-0.0071	0.2301	1717.195	0.225816	-389.528883	-389.517048	-389.516104	-389.566973	41.694	
C	 0.3762415949	 1.4903515185	 0.051015763	-0.381192
C	 0.16294672	-0.0262712548	 0.0322514822	-0.178722
C	 0.675840727	-0.6751333193	-1.2593347251	-0.176027
C	 0.5134796126	-2.2163401834	-1.316721532	-0.079481
C	-0.9478193302	-2.6564989579	-1.4944772157	-0.172584
C	-1.1489111104	-4.1684742305	-1.3528914865	-0.394936
C	 1.3845485491	-2.7207559592	-2.4735115772	 0.390829
C	 2.8132544677	-3.1065708435	-2.1332551236	-0.481338
O	 0.960203994	-2.7885031108	-3.6052090651	-0.3181
H	 1.4383754499	 1.7429425026	-0.0425294685	 0.113998
H	-0.1517461232	 1.9744952727	-0.7778578838	 0.117917
H	 0.0095987923	 1.9321754361	 0.9827049486	 0.113208
H	 0.6755907641	-0.4799924509	 0.890858941	 0.094619
H	-0.9033038021	-0.2426745921	 0.1645631834	 0.104939
H	 0.1643795151	-0.2410453696	-2.127887566	 0.111997
H	 1.7371611953	-0.4154116304	-1.3751070827	 0.092262
H	 0.9136495565	-2.6311564942	-0.3805859669	 0.067099
H	-1.5741060384	-2.1375358991	-0.7612854955	 0.091379
H	-1.2777225554	-2.3336553985	-2.4874152623	 0.119299
H	-0.5803069276	-4.7154607671	-2.1113564713	 0.127518
H	-0.8279135541	-4.5236840194	-0.3667438252	 0.107291
H	-2.2026624643	-4.437369643	-1.4740466355	 0.113906
H	 2.8024629719	-4.041189801	-1.5589057987	 0.142695
H	 3.3927775837	-3.2531585575	-3.0456419515	 0.139584
H	 3.2903552816	-2.3529525778	-1.4982282451	 0.133839
45.9019	66.8502	83.7468	102.3189	129.4916	153.2759	196.3525	238.3731	250.7382	271.863	307.0254	321.7663	406.8582	482.5768	593.9561	608.3416	732.1665	741.7986	831.8711	859.498	892.443	917.4087	961.4117	991.5982	1028.906	1042.38	1051.0203	1074.8048	1125.4536	1128.9767	1163.1487	1199.1577	1253.4503	1282.4724	1312.4412	1330.4093	1339.1067	1366.292	1378.008	1385.6361	1399.3206	1411.4899	1413.2233	1462.4594	1474.5395	1477.8619	1485.3617	1493.5366	1499.2194	1500.0806	1508.4938	1510.2099	1806.2044	3005.4868	3009.6035	3020.6436	3030.0713	3031.1772	3033.8267	3043.6889	3048.2506	3067.4983	3081.3123	3095.3319	3098.645	3101.1961	3103.1351	3110.8085	3149.9048
CCCC(CC)C(C)=O	CCC[C@@H](CC)C(=O)C	
InChI=1S/C8H16O/c1-4-6-8(5-2)7(3)9/h8H,4-6H2,1-3H3	InChI=1S/C8H16O/c1-4-6-8(5-2)7(3)9/h8H,4-6H2,1-3H3/t8-/m1/s1
