14
gdb 27459	2.39821	1.67325	0.9856	4.0716	76.88	-0.2442	-0.0972	0.147	1101.9067	0.101909	-436.716107	-436.708644	-436.7077	-436.748667	27.843	
O	-0.0174513499	 1.3592244033	 0.0088056787	-0.418146
C	-0.0123173237	 0.0003563872	 0.0010184	 0.363015
C	-1.2260321675	-0.608849716	 0.0048128976	-0.260966
C	-1.5621403156	-2.0302208537	-0.0014762619	 0.343994
O	-2.7379847541	-2.3791641333	 0.0027068752	-0.372945
C	-0.5056027054	-3.0543534018	-0.0121298654	-0.135748
C	 0.8440256432	-2.9466408263	-0.0193184295	-0.00834
N	 1.6742055001	-1.8504050351	-0.0192229915	-0.248026
C	 1.301898489	-0.6210906033	-0.0106716699	-0.055351
H	 0.8859793658	 1.6951061871	 0.0052909452	 0.306737
H	-2.0945501944	 0.0432947434	 0.0136373035	 0.134038
H	-0.9161355304	-4.0609317455	-0.0145711408	 0.125108
H	 1.4066533091	-3.8779173009	-0.0268629846	 0.122322
H	 2.1260949339	 0.1041237049	-0.0123999265	 0.104307
46.7227	168.9998	259.6921	342.7664	352.4697	366.3263	450.5412	457.4641	508.0447	572.1778	634.4334	729.0426	804.9423	851.8624	881.2062	934.5235	957.9321	988.8462	1035.7488	1037.2087	1214.6397	1241.2697	1273.9939	1316.4819	1402.2349	1451.6304	1476.2761	1585.8281	1643.0523	1684.8226	1713.5057	3035.4639	3146.8551	3176.8208	3184.9755	3803.9639
OC1=CC(=O)C=CN=C1	Oc1cc(=O)ccnc1	
InChI=1S/C6H5NO2/c8-5-1-2-7-4-6(9)3-5/h1-4,9H	InChI=1S/C6H5NO2/c8-5-1-2-7-4-6(9)3-5/h1-4,9H
