21
gdb 119096	2.16869	1.26314	0.94692	2.7511	75.5	-0.2461	0.0675	0.3136	1335.6752	0.17991	-461.309499	-461.299304	-461.29836	-461.345432	35.665	
C	 0.1320416795	 1.2199959565	 0.4240059644	-0.22626
O	 0.0916762541	-0.1702844597	 0.2016120254	-0.233696
C	-1.2171894315	-0.6674827936	 0.0669894197	-0.12981
C	-1.157017765	-2.1824747239	-0.0875960379	 0.347062
C	-0.8427850944	-2.9266995091	 1.2227814291	-0.118478
O	-2.2347339693	-3.2750817124	 1.3989149737	-0.276265
C	-2.5550856223	-2.8459893206	 0.0608429112	-0.132204
O	-0.3413560697	-2.6298216866	-1.1371570989	-0.277449
C	-0.6159274569	-2.0857120584	-2.4116707436	-0.255893
H	 1.1828725424	 1.506805575	 0.5076028641	 0.131318
H	-0.3247925444	 1.7804443964	-0.4071252353	 0.103989
H	-0.389450241	 1.5002475232	 1.3527364648	 0.106891
H	-1.8264938992	-0.4360396452	 0.9565904834	 0.103121
H	-1.7254263602	-0.2058433931	-0.7972412642	 0.085913
H	-0.2108055158	-3.8068617561	 1.0561231423	 0.108848
H	-0.4501829486	-2.3328455761	 2.0536461614	 0.110255
H	-3.440042808	-2.1985305223	 0.0368997545	 0.096929
H	-2.6944961822	-3.6900089331	-0.6275501187	 0.100094
H	-1.675948545	-2.1912364256	-2.6883704273	 0.104148
H	-0.3348030316	-1.0266341814	-2.476549937	 0.120815
H	-0.014232551	-2.6500659438	-3.1278264211	 0.13067
59.4605	77.9448	107.4243	128.7044	160.072	201.5973	228.9246	283.2381	334.4214	366.4104	386.296	449.9165	519.6173	718.5358	843.7845	903.8037	931.8008	961.5955	997.5963	1008.4514	1025.9076	1087.4743	1115.3591	1150.3541	1160.9853	1167.272	1176.1649	1182.0824	1217.6565	1220.9795	1232.2481	1286.9804	1296.9357	1301.9155	1382.747	1415.184	1476.5633	1482.39	1486.6979	1490.032	1498.3008	1501.4539	1508.9877	1527.2301	1529.2902	2952.2721	2972.0492	2983.1944	2986.8443	3006.4862	3015.505	3032.5033	3048.6716	3058.4473	3090.3404	3116.719	3117.4524
COCC1(COC1)OC	COCC1(COC1)OC	
InChI=1S/C6H12O3/c1-7-3-6(8-2)4-9-5-6/h3-5H2,1-2H3	InChI=1S/C6H12O3/c1-7-3-6(8-2)4-9-5-6/h3-5H2,1-2H3
