22
gdb 10763	3.27635	1.38349	1.27389	1.6293	77.63	-0.2607	0.0782	0.3388	1106.356	0.198227	-350.191924	-350.182334	-350.18139	-350.225751	35.842	
C	-0.0098274249	 1.4508015626	 0.2460812925	-0.407443
C	 0.127857959	-0.0448525311	-0.0572808152	-0.175664
C	 0.7340550831	-0.4294117241	-1.4352848945	 0.23745
C	-0.1237751943	 0.1148027603	-2.5931501876	-0.418944
C	 2.1788581338	 0.0801595183	-1.5595110471	-0.436009
C	 0.6773190551	-1.9545989365	-1.5049034684	 0.095648
C	 1.6850868397	-2.8231014933	-2.1265028912	-0.19639
O	 1.5949259187	-2.7021470967	-0.7032417539	-0.24942
H	 0.9574356165	 1.962256734	 0.2536605362	 0.118926
H	-0.6523520595	 1.961211585	-0.4781738181	 0.11585
H	-0.4580568792	 1.5929450957	 1.23454251	 0.114829
H	 0.7409359767	-0.517073602	 0.7196191635	 0.111957
H	-0.8645469775	-0.5096368425	 0.0175058099	 0.088313
H	-0.1087005087	 1.2080726165	-2.6214469846	 0.118016
H	 0.2506993138	-0.2448215163	-3.5575614121	 0.112561
H	-1.1689532445	-0.2018143141	-2.5002782941	 0.109961
H	 2.8267046906	-0.4106628704	-0.8277158769	 0.131168
H	 2.583155267	-0.1087790698	-2.5589742682	 0.108246
H	 2.2277391884	 1.1594547325	-1.3942897697	 0.113407
H	-0.342509878	-2.3473707775	-1.4646927065	 0.083001
H	 1.3843038478	-3.7887487483	-2.5316551284	 0.111008
H	 2.5814451866	-2.3973824023	-2.5709151058	 0.113529
79.4306	90.1812	191.7949	210.8934	235.314	252.7807	277.2091	324.3673	335.7817	366.1832	402.4611	485.497	553.4047	700.8043	786.3447	819.4824	865.9138	915.5918	942.3891	950.6381	1001.3179	1014.6193	1028.9829	1069.1106	1084.4204	1107.5054	1161.4178	1181.1408	1208.8903	1231.7576	1262.8672	1304.1173	1340.7882	1373.5946	1393.6514	1406.8961	1417.171	1440.1937	1482.9971	1486.4195	1490.1984	1506.3411	1507.78	1511.0564	1517.4184	1534.1246	3015.1562	3028.0909	3039.0097	3043.1161	3057.1332	3067.8302	3090.1645	3092.4529	3101.509	3103.6498	3108.6795	3112.1556	3123.1037	3178.3124
CCC(C)(C)C1CO1	CCC(C)(C)[C@H]1CO1	
InChI=1S/C7H14O/c1-4-7(2,3)6-5-8-6/h6H,4-5H2,1-3H3	InChI=1S/C7H14O/c1-4-7(2,3)6-5-8-6/h6H,4-5H2,1-3H3/t6-/m1/s1
