18
gdb 76559	2.68555	1.2574	1.17948	1.4969	67.97	-0.2286	0.0519	0.2805	1128.3906	0.147244	-476.160602	-476.151895	-476.150951	-476.194054	33.145	
O	 0.0343381908	 1.233228764	 0.0759600677	-0.438691
C	 0.0987521316	-0.1599143657	 0.1318728357	-0.019204
C	-0.539091162	-0.7855881578	 1.3578835368	 0.005613
O	-1.053306834	 0.083113945	 2.3183352011	-0.440035
C	-1.244730318	-0.850213108	 0.0285859091	 0.238493
N	-2.3897771603	 0.0101047594	-0.2923744263	-0.382803
C	-2.9126896709	-1.033110896	-1.2337813625	-0.199407
C	-1.7152495055	-1.9748939046	-0.8968147079	 0.019571
O	-0.8634483849	-2.3875550814	-1.9321151254	-0.427853
H	-0.8407345222	 1.4257879895	-0.3140396155	 0.291878
H	 0.9918322818	-0.5966548625	-0.306680424	 0.106722
H	-0.1110123518	-1.6982193869	 1.7668354015	 0.104528
H	-0.7003411976	 0.956998289	 2.0889573645	 0.292551
H	-2.9831822803	 0.1588034872	 0.519131292	 0.237862
H	-3.9026410644	-1.4204570268	-0.9778189125	 0.115018
H	-2.9242283449	-0.6884050691	-2.2731603214	 0.109276
H	-2.0122638115	-2.8881093291	-0.3747260309	 0.102408
H	-0.5027567256	-1.5990401563	-2.353469332	 0.284073
67.5504	134.7412	170.3696	223.4112	237.2029	297.4823	352.0152	426.6923	436.8642	523.4767	591.7983	641.8345	660.5001	674.4123	758.7881	839.4448	847.2075	874.8468	962.083	992.1836	1002.3671	1057.9175	1070.0912	1106.6579	1134.3265	1152.1633	1173.3138	1191.7039	1233.6638	1270.5975	1293.0339	1319.1379	1325.0156	1346.5301	1383.7303	1402.7919	1437.4982	1450.8182	1502.0038	3041.41	3077.7069	3099.9339	3130.6833	3147.1032	3507.8023	3564.4228	3699.9232	3797.5025
OC1C(O)C11NCC1O	O[C@H]1[C@@H](O)[C@]21NC[C@H]2O	
InChI=1S/C5H9NO3/c7-2-1-6-5(2)3(8)4(5)9/h2-4,6-9H,1H2	InChI=1S/C5H9NO3/c7-2-1-6-5(2)3(8)4(5)9/h2-4,6-9H,1H2/t2-,3-,4+,5-/m1/s1
