19
gdb 69667	3.61527	1.40062	1.17456	1.5012	82.26	-0.2318	0.0065	0.2383	1099.6274	0.159524	-385.842509	-385.83481	-385.833866	-385.874342	30.708	
C	 0.0987251796	 1.5791214352	 0.3674318732	-0.502245
C	 0.1273915468	 0.1306263468	 0.0026656443	 0.391377
O	-0.9274345012	-0.7086313312	 0.4782694951	-0.277338
C	 0.4387948185	-1.0939774382	 0.7920420817	-0.187465
C	 0.8812744121	-1.7999823283	-0.4652200457	 0.304225
C	 0.8400190103	-2.8988001011	-1.208723496	-0.215766
C	 0.6580842838	-2.4834015142	-2.6716419011	-0.237597
C	 0.0875150657	-1.0246301261	-2.5682670083	-0.257338
C	 0.7468563869	-0.5265985745	-1.2751683137	-0.10238
H	 1.0762153827	 2.0414602267	 0.1972159845	 0.124333
H	-0.6373889974	 2.1154607997	-0.2423043991	 0.131973
H	-0.1743892271	 1.7066589086	 1.4184137518	 0.133158
H	 0.6784877266	-1.2338137494	 1.8390436426	 0.104712
H	 0.8435929225	-3.9316425781	-0.8811049614	 0.098357
H	 1.6066375803	-2.5012230181	-3.2278658833	 0.104474
H	-0.0231811703	-3.1577546715	-3.2020234632	 0.105792
H	 0.2982836247	-0.4213226829	-3.4556934492	 0.090272
H	-0.9976054744	-1.0785609984	-2.432242813	 0.114581
H	 1.7272312798	-0.063020445	-1.4569991693	 0.076877
139.0762	180.8651	208.1613	228.292	285.5781	345.3093	488.3845	534.8055	574.0047	648.5685	692.5184	717.6488	811.5368	829.8821	847.5312	878.0938	882.0336	908.0916	955.3132	984.9056	999.6502	1032.315	1062.3133	1081.011	1109.7569	1160.3247	1169.3564	1198.0217	1223.3048	1225.3884	1268.7925	1306.6369	1320.5593	1337.4193	1401.0325	1444.8225	1476.0305	1481.076	1488.7135	1492.1923	1733.8904	3002.6261	3004.3234	3033.7946	3048.9624	3065.6381	3096.4175	3103.1188	3119.5934	3194.3548	3200.8835
CC12OC1C1=CCCC21	C[C@]12O[C@H]1[C]1[CH]CC[C@@H]21	
InChI=1S/C8H10O/c1-8-6-4-2-3-5(6)7(8)9-8/h3,6-7H,2,4H2,1H3	InChI=1S/C8H10O/c1-8-6-4-2-3-5(6)7(8)9-8/h3,6-7H,2,4H2,1H3/t6-,7+,8-/m1/s1
