20
gdb 23039	2.94985	1.14422	0.96004	1.1205	77.94	-0.2428	0.0118	0.2546	1289.849	0.170358	-440.255401	-440.245921	-440.244977	-440.290901	34.269	
C	-0.4342874645	 1.3667459935	-0.0046100194	-0.480111
C	-0.1305193294	-0.1057821331	-0.0111977586	 0.357102
N	-0.138202799	-0.8534809006	 1.0233277723	-0.175132
O	-0.4603508327	-0.138314427	 2.1884777992	-0.399123
C	 0.2410009202	-0.7493568313	-1.3402716694	 0.03567
C	 0.2618409152	-2.2833447137	-1.3507872367	-0.235545
C	-1.1833490758	-2.6185972823	-1.7475120933	-0.22695
C	-1.5087422669	-1.490359986	-2.7307220766	-0.057947
O	-0.729473791	-0.360668741	-2.3259354999	-0.27497
H	 0.4173872368	 1.9276239326	 0.3985237844	 0.137801
H	-0.6457864921	 1.7151523226	-1.0154595779	 0.144195
H	-1.2873730838	 1.5773837764	 0.6446026955	 0.146051
H	-0.4498563067	-0.8299174423	 2.8584378929	 0.303911
H	 1.2051341147	-0.3264453443	-1.6565921368	 0.086335
H	 0.9612606214	-2.6319583147	-2.1172935573	 0.096386
H	 0.5546183872	-2.6986761788	-0.3878191308	 0.12748
H	-1.2928353924	-3.6093690335	-2.194625706	 0.100206
H	-1.8329217503	-2.5641388203	-0.8690732432	 0.117666
H	-1.2324453174	-1.7667292106	-3.7589561849	 0.093456
H	-2.5665787034	-1.2058641357	-2.7303846035	 0.103519
45.1278	56.9741	79.736	165.6853	208.3518	266.0478	314.3144	365.2038	405.3539	445.0708	536.3128	592.6856	652.4322	745.5486	796.7047	877.549	886.729	920.6454	932.3537	958.1595	981.8555	1020.3178	1043.1592	1060.3475	1090.5219	1126.1488	1191.3968	1196.439	1236.3319	1259.58	1314.0999	1327.4802	1342.5552	1371.9435	1389.9434	1395.9134	1400.1923	1476.1219	1481.6991	1488.9291	1497.0016	1532.3552	1732.4262	2993.3304	3000.4653	3041.9631	3054.532	3059.8412	3068.2121	3108.6539	3114.1803	3151.0628	3158.2427	3820.4101
CC(=NO)C1CCCO1	CC(=NO)[C@H]1CCCO1	
InChI=1S/C6H11NO2/c1-5(7-8)6-3-2-4-9-6/h6,8H,2-4H2,1H3	InChI=1S/C6H11NO2/c1-5(7-8)6-3-2-4-9-6/h6,8H,2-4H2,1H3/t6-/m1/s1
