17
gdb 97116	1.86228	1.24825	0.95338	1.2817	71.16	-0.1883	0.0458	0.2342	1307.4277	0.13335	-455.164408	-455.153713	-455.152769	-455.203281	34.312	
C	-0.1326961687	 1.267922829	-0.287276949	-0.329209
N	-0.2464122598	-0.187252999	-0.3449707227	-0.382832
H	 0.6333277307	-0.6707439249	-0.2248029226	 0.243931
C	-1.2801853441	-0.8041937578	 0.3223541661	 0.414672
N	-2.5981499653	-0.2677210709	 0.4198496575	-0.358664
C	-2.9731782406	-1.5777300358	 1.0828797268	-0.174686
C	-1.5108602514	-1.962646355	 0.9795337071	-0.322918
C	-1.3597536091	-2.4899035272	-2.3062633584	 0.597643
O	-2.4307289091	-2.04673546	-2.4142993077	-0.309016
O	-0.2930196908	-2.9468686969	-2.2373624938	-0.30373
H	 0.5697581014	 1.6051756225	-1.0537440664	 0.124767
H	-1.1073638107	 1.7131847877	-0.4934049258	 0.148662
H	 0.2058478275	 1.6389145161	 0.6910337242	 0.119824
H	-3.0551603041	-0.1283956118	-0.4809553694	 0.227216
H	-3.3913496944	-1.4284615518	 2.0843192852	 0.108601
H	-3.6799487587	-2.1556032194	 0.4760223439	 0.106471
H	-0.8986209328	-2.735158915	 1.4151465048	 0.089269
28.9041	47.2369	55.6661	76.1831	106.0245	108.521	126.8989	210.1017	288.9247	459.2969	584.9295	625.1332	667.1994	680.5527	687.3356	734.4812	865.6525	935.1707	950.4137	1009.8023	1034.4776	1074.8345	1134.8924	1140.0984	1150.6407	1227.0052	1243.0387	1307.2762	1374.9482	1392.3673	1450.1168	1472.1781	1490.3552	1502.8048	1516.2134	1707.7227	2429.7383	2998.6806	3028.7007	3073.6667	3091.4109	3140.7377	3259.7468	3459.5834	3584.2427
C[NH+]=C1NCC1C([O-])=O	CN[C]1NC[CH]1.C(=O)=O	
InChI=1S/C5H8N2O2/c1-6-4-3(2-7-4)5(8)9/h3H,2H2,1H3,(H,6,7)(H,8,9)	InChI=1S/C4H8N2.CO2/c1-5-4-2-3-6-4;2-1-3/h2,5-6H,3H2,1H3;
