25
gdb 103174	1.83412	1.43898	1.13943	1.4528	88.13	-0.2476	0.0673	0.3148	1294.3659	0.227322	-389.49154	-389.480898	-389.479954	-389.526144	41.038	
C	-0.4017955249	 1.4469775893	-0.0277730128	-0.403853
C	-0.2672899974	-0.0725223223	-0.212521087	-0.232439
C	 0.7025623711	-0.5196199237	-1.3222192712	 0.280432
C	 2.0860359505	 0.1053349244	-1.1564291669	-0.470105
C	 0.6971428482	-2.0820153682	-1.5415507237	 0.011729
C	 0.3730609804	-3.0389532724	-0.4022781049	-0.416304
C	-0.3340534776	-1.9000350235	-2.6863457835	-0.297148
C	 0.0797394483	-0.4145716344	-2.7639563323	 0.129764
O	-0.8868229728	 0.5619327315	-3.0786211609	-0.430159
H	 0.5276278883	 1.89098801	 0.3401411235	 0.118468
H	-0.6572989353	 1.9395759792	-0.96923051	 0.133561
H	-1.1828066222	 1.6753795197	 0.7048137275	 0.10597
H	 0.0590958281	-0.518244244	 0.7356765797	 0.098256
H	-1.2630755181	-0.4975685678	-0.4002957465	 0.077123
H	 2.5127245209	-0.1178411644	-0.1706190055	 0.108318
H	 2.7785314966	-0.2818079072	-1.9116912679	 0.106972
H	 2.056222399	 1.1939827365	-1.2663856618	 0.122654
H	 1.6642347803	-2.3659045876	-1.972927988	 0.067985
H	-0.6041531743	-2.8305185316	 0.0443949418	 0.112701
H	 0.3537340106	-4.0727912812	-0.7650134258	 0.1131
H	 1.1232108162	-2.9857421891	 0.3949689387	 0.114253
H	-0.2305435879	-2.5104918579	-3.5866690751	 0.097741
H	-1.361800356	-2.0045162251	-2.3169037708	 0.087566
H	 0.8801264263	-0.2690020081	-3.4966115299	 0.083956
H	-1.6748105983	 0.3801352378	-2.5565703065	 0.27946
97.9029	146.5258	168.6549	195.5745	221.0756	223.024	242.4451	290.3584	316.2386	319.4705	330.4379	396.3659	452.4283	479.9239	548.6452	582.9319	698.3021	767.6255	809.3234	869.3054	889.7685	919.8142	961.6571	1008.9222	1023.7594	1033.8927	1050.4443	1073.4307	1093.4828	1154.1396	1159.4112	1172.7663	1200.0932	1237.1153	1249.1292	1258.5816	1306.8088	1310.6159	1342.6519	1367.3741	1380.6188	1405.252	1409.7099	1413.4158	1441.1335	1482.4097	1487.343	1492.1561	1495.9075	1496.9043	1503.7992	1508.985	1519.6206	3003.6615	3019.3106	3025.3224	3030.4212	3033.9792	3041.4302	3042.4278	3057.537	3082.4745	3087.6495	3096.7347	3099.0827	3104.4096	3106.1613	3126.2566	3818.3203
CCC1(C)C(C)CC1O	CC[C@@]1(C)[C@@H](C)C[C@H]1O	
InChI=1S/C8H16O/c1-4-8(3)6(2)5-7(8)9/h6-7,9H,4-5H2,1-3H3	InChI=1S/C8H16O/c1-4-8(3)6(2)5-7(8)9/h6-7,9H,4-5H2,1-3H3/t6-,7+,8-/m0/s1
