20
gdb 36843	4.24771	1.05808	1.01246	1.2803	80.05	-0.232	0.0925	0.3246	1256.6253	0.170831	-403.04373	-403.035671	-403.034727	-403.076987	31.248	
C	-0.0453726535	 1.6011191564	-0.2106090906	-0.314843
N	-0.169907438	 0.1534470564	-0.31666057	-0.068842
C	-0.1260057197	-0.5809572619	 0.9451991286	-0.203915
C	-1.406135378	-0.4255045778	 0.2029287889	-0.225241
C	 1.3955017576	 2.0149321731	-0.1461509786	 0.453788
C	 2.6100040716	 1.5433633732	-0.9886838585	-0.244225
C	 3.1131335352	 2.3902662366	 0.2011976486	 0.049073
C	 2.010394311	 3.4382103847	-0.0763078306	-0.266951
O	 2.1682980198	 1.6693974141	 1.0848157398	-0.344834
H	-0.5022975297	 2.0560551508	-1.0983625809	 0.110172
H	-0.5631332396	 2.0126880671	 0.6753835334	 0.092404
H	 0.4156939302	-1.521723629	 0.9208524779	 0.116314
H	 0.0019347545	-0.0073713931	 1.8599949998	 0.12589
H	-2.1492010386	 0.2501737005	 0.6241553401	 0.107796
H	-1.8172665606	-1.2491710986	-0.3736213851	 0.115843
H	 2.8228701226	 0.476812971	-0.9279944604	 0.114864
H	 2.7218814029	 1.9496441823	-1.9973709852	 0.091631
H	 4.1280826937	 2.5366424031	 0.5699350736	 0.093817
H	 2.0674762706	 4.0193913254	-1.0005941717	 0.093167
H	 1.7082181182	 4.0320521057	 0.7875403709	 0.104092
62.3824	83.2518	132.7885	286.9193	322.6914	355.8203	417.7813	518.0807	597.0835	694.3609	717.1216	763.9745	803.7359	834.688	880.9648	899.2024	906.0552	954.1692	981.2733	985.8024	1010.7003	1033.5315	1045.9987	1094.0737	1102.1226	1113.8886	1119.8184	1133.1203	1153.2388	1173.3609	1192.6471	1210.9031	1237.8173	1242.0055	1285.1237	1321.4751	1324.3639	1404.3384	1467.0377	1473.7814	1493.6774	1513.9233	1521.7899	2936.3056	3048.1786	3057.4018	3068.058	3094.25	3111.4352	3122.3413	3143.0466	3159.3911	3179.6427	3199.0566
C(N1CC1)C12CC(C1)O2	C(N1CC1)[C@@]12C[C@@H](C1)O2	
InChI=1S/C7H11NO/c1-2-8(1)5-7-3-6(4-7)9-7/h6H,1-5H2	InChI=1S/C7H11NO/c1-2-8(1)5-7-3-6(4-7)9-7/h6H,1-5H2/t6-,7+
