18
gdb 128135	1.92897	1.82395	0.99517	1.6061	75.89	-0.1888	0.052	0.2407	1186.1396	0.149831	-431.448964	-431.439408	-431.438464	-431.483043	35.106	
C	-0.3184318802	 1.4499266036	 0.0541238579	-0.324047
N	 0.0095984976	 0.0218361228	 0.0382617481	-0.409044
C	 0.6943946468	-0.4409009154	-1.1140601713	 0.043306
C	 0.1154621551	-1.2108853083	-2.1091698985	 0.373917
N	-1.2147820043	-1.5938091002	-2.2549104339	-0.608143
N	 1.0912833758	-1.5083065768	-2.9938316916	-0.28213
N	 2.3041599116	-0.9520983286	-2.6536020656	-0.327493
C	 2.0570521073	-0.3209997754	-1.5162800684	 0.313481
N	 3.085837153	 0.2790248892	-0.7821022493	-0.596895
H	 0.5544581192	 2.1210030958	-0.016616254	 0.091755
H	-0.9758175537	 1.6782285242	-0.7898607821	 0.130225
H	-0.8542696254	 1.6887372938	 0.9785709646	 0.113543
H	 0.5177344814	-0.224317538	 0.8811870718	 0.227363
H	-1.704766003	-1.4051247358	-1.3859415981	 0.256276
H	-1.3283526583	-2.5694819171	-2.5043564025	 0.245538
H	 0.9932306802	-1.9348510342	-3.8974068169	 0.263187
H	 3.9371223708	 0.321479711	-1.3300330302	 0.247104
H	 2.8442133662	 1.2053356296	-0.4527822702	 0.242058
75.4909	145.2784	169.1187	190.5628	239.3263	254.6451	275.5183	284.5048	296.159	417.4436	440.2979	548.386	587.3516	661.0519	693.6021	708.5491	791.4906	799.6983	817.8706	842.1193	1040.2376	1058.7123	1082.9925	1126.0304	1159.2276	1174.7018	1189.7773	1300.3992	1363.4019	1445.913	1456.5741	1474.7946	1491.7426	1512.5308	1540.6135	1582.1037	1625.7125	1644.0008	1675.0003	2955.9666	3062.9839	3109.2371	3506.4953	3514.6099	3526.3128	3597.5325	3619.5351	3692.5724
CNC1=C(N)NN=C1N	CNc1c(N)[nH]nc1N	
InChI=1S/C4H9N5/c1-7-2-3(5)8-9-4(2)6/h7H,1H3,(H5,5,6,8,9)	InChI=1S/C4H9N5/c1-7-2-3(5)8-9-4(2)6/h7H,1H3,(H5,5,6,8,9)
