15
gdb 56394	3.31892	0.7312	0.61572	3.11	78.17	-0.2518	-0.0262	0.2256	1719.5983	0.110217	-416.756612	-416.746205	-416.745261	-416.794433	35.542	
N	-0.1798292337	 1.5454264606	-0.0756054179	-0.485255
C	-0.0424146095	 0.0774441638	-0.0521523979	-0.348799
C	-1.3470420165	-0.5473296952	 0.1954788516	 0.370995
C	-2.4159839412	-1.0572243721	 0.390303104	-0.450974
C	 0.585869021	-0.488621966	-1.2609340528	 0.099175
C	 1.1276532147	-0.889911356	-2.2605417117	 0.021078
C	 1.8100017032	-1.3093629645	-3.478489456	 0.265421
N	 1.5338182227	-2.5928420722	-3.8478689756	-0.519581
O	 2.558323249	-0.5769593458	-4.0961898785	-0.333578
H	 0.7310048232	 1.9496162073	-0.279295221	 0.243786
H	-0.785109932	 1.8034006499	-0.8507658206	 0.242969
H	 0.6119833507	-0.1618744534	 0.7987675322	 0.151613
H	-3.3619278815	-1.5058217479	 0.5696112949	 0.206128
H	 0.8726246805	-3.156129566	-3.3425978905	 0.2695
H	 1.9408515894	-2.9428983625	-4.6996234002	 0.267523
10.5175	62.0549	98.8171	130.4241	155.1409	205.5435	231.3172	276.6129	355.9097	393.5571	484.7709	565.7215	570.4879	572.1153	622.6196	639.9735	662.3144	741.0127	773.3987	878.5138	912.4391	1064.4714	1090.6617	1114.8704	1191.3346	1309.841	1346.1237	1386.162	1608.5022	1656.314	1775.2464	2248.4992	2340.9175	3004.6993	3483.5845	3502.8813	3565.6928	3602.2402	3744.4384
NC(C#C)C#CC(N)=O	N[C@@H](C#C)C#CC(=O)N	
InChI=1S/C6H6N2O/c1-2-5(7)3-4-6(8)9/h1,5H,7H2,(H2,8,9)	InChI=1S/C6H6N2O/c1-2-5(7)3-4-6(8)9/h1,5H,7H2,(H2,8,9)/t5-/m0/s1
