25
gdb 101000	2.45235	1.06247	1.02356	1.4203	88.38	-0.2572	0.0671	0.3243	1404.1112	0.227517	-389.488605	-389.47799	-389.477046	-389.523792	40.366	
C	 0.0409553991	 1.6033618716	 0.0144779778	-0.381842
C	 0.0143465549	 0.0724691578	-0.0080689031	-0.202024
C	 0.6371461776	-0.5476517738	 1.2510714847	 0.093314
O	-0.0972943541	-0.1739833702	 2.4188350016	-0.44282
C	 0.8450335465	-2.077426411	 1.1797010236	 0.342754
C	-0.4511807199	-2.8384746272	 0.9081598929	-0.48319
C	 2.06315794	-2.4506038352	 0.2703775222	-0.261332
C	 2.9544960424	-2.5773249315	 1.5346714609	-0.210593
C	 1.6735344988	-2.5688495329	 2.4107800032	-0.258567
H	 1.0702942617	 1.9788609116	 0.0102751506	 0.113144
H	-0.471359858	 2.0242318717	-0.8559981096	 0.106846
H	-0.4451521849	 1.9810701995	 0.918018365	 0.128008
H	-1.0238373804	-0.2748422563	-0.0994509186	 0.087811
H	 0.5383541301	-0.3003748047	-0.8961565081	 0.099621
H	 1.6225065459	-0.0879464887	 1.4058709557	 0.077698
H	-1.0017077302	-0.4867391229	 2.3086912886	 0.276551
H	-0.8722666087	-2.5985773266	-0.0739463116	 0.116937
H	-0.2728440449	-3.9181853155	 0.9347767297	 0.113489
H	-1.2159784415	-2.6240880071	 1.6655270661	 0.101618
H	 1.9135444816	-3.4090526297	-0.2352908532	 0.093915
H	 2.3652896732	-1.7150759849	-0.4809280192	 0.092231
H	 3.5911421977	-3.4625167609	 1.5991159951	 0.094638
H	 3.5833662502	-1.6979938082	 1.6965587874	 0.102996
H	 1.6576673606	-1.9130785579	 3.2833751205	 0.110994
H	 1.3795010221	-3.574063317	 2.7270727775	 0.087802
83.5035	97.8772	115.2904	181.6456	224.6012	229.6875	259.3522	288.1755	308.1893	319.2147	325.4481	449.2498	485.6351	494.2397	658.7474	739.0302	780.0609	784.4142	836.7127	876.5663	907.8785	948.6752	952.7848	977.817	984.4865	992.0264	1053.6659	1058.0892	1101.9786	1113.222	1153.338	1175.3071	1209.8273	1218.9089	1255.7528	1257.1576	1276.6032	1281.7119	1308.971	1331.3115	1339.5861	1389.283	1407.0462	1411.9666	1423.1748	1475.2731	1482.2289	1484.55	1493.9535	1497.6415	1501.855	1508.3551	1510.0868	3010.3225	3019.7584	3024.4105	3036.421	3046.6659	3056.1013	3061.0615	3063.3188	3081.3742	3090.8911	3098.0664	3100.9506	3108.4084	3120.9745	3122.2996	3805.3087
CCC(O)C1(C)CCC1	CC[C@@H](O)C1(C)CCC1	
InChI=1S/C8H16O/c1-3-7(9)8(2)5-4-6-8/h7,9H,3-6H2,1-2H3	InChI=1S/C8H16O/c1-3-7(9)8(2)5-4-6-8/h7,9H,3-6H2,1-2H3/t7-/m1/s1
