23
gdb 91651	2.44621	1.57732	1.30564	1.6351	84.52	-0.2406	0.0832	0.3238	1126.1797	0.206102	-388.277256	-388.268387	-388.267443	-388.309861	35.811	
C	-0.0938890957	 1.5316156082	 0.0175964879	-0.433297
C	 0.0293952131	 0.0085410823	 0.0059897333	 0.056342
C	 0.8629759647	-0.6656040244	-1.1405094721	-0.263945
C	 1.7100263172	-1.603396281	-0.2520156328	 0.04224
O	 0.7091259813	-2.0781062971	 0.7037167294	-0.304845
C	 0.7519447759	-0.6929169637	 1.1817846466	 0.011142
C	 2.2885547386	-0.6963197524	 0.8767944165	 0.343673
C	 3.0599992229	-1.5002389906	 1.9303291762	-0.446354
C	 3.0710072901	 0.5705058947	 0.5366571957	-0.481664
H	 0.8682574027	 2.0465072969	 0.0490296579	 0.119186
H	-0.6240925217	 1.8780336361	-0.8759760397	 0.117919
H	-0.6729970204	 1.8632895005	 0.8869459625	 0.114079
H	-0.9833971917	-0.4061425645	-0.0105859138	 0.084964
H	 0.2391891548	-1.2352999638	-1.832549925	 0.10378
H	 1.4603175264	 0.0407015616	-1.7237815024	 0.09733
H	 2.2886799333	-2.3995771981	-0.7241941358	 0.070343
H	 0.3571949089	-0.5591207584	 2.1914881981	 0.067119
H	 2.5255017972	-2.4094087484	 2.206949379	 0.136807
H	 4.0499605146	-1.7794199881	 1.5515125718	 0.106909
H	 3.2161559063	-0.8984292732	 2.8332043168	 0.107048
H	 3.0847311753	 1.2588120303	 1.3893768694	 0.117551
H	 4.1134271017	 0.3121342636	 0.3174691394	 0.114224
H	 2.6839486543	 1.1141970995	-0.3245685888	 0.119448
165.8172	170.7419	192.3082	228.8362	263.8281	284.2074	331.1702	368.8749	382.0508	437.3753	536.031	572.0888	625.8285	683.7541	802.2642	826.584	860.4999	891.0558	910.5178	928.7598	940.8895	954.7245	977.9711	1017.7251	1033.7435	1049.1217	1078.3737	1122.5815	1157.6634	1192.6147	1203.966	1218.7988	1243.9315	1253.7975	1263.0656	1303.9414	1308.4178	1356.6172	1375.2733	1399.0113	1414.6325	1422.2276	1481.5986	1489.6441	1497.0813	1501.5837	1504.2396	1513.0535	1521.9175	3027.6144	3034.7653	3036.3754	3050.562	3065.5388	3081.1378	3087.295	3090.4502	3095.6806	3104.1552	3112.6208	3128.5218	3143.7929	3148.959
CC1CC2OC1C2(C)C	C[C@H]1C[C@@H]2O[C@H]1C2(C)C	
InChI=1S/C8H14O/c1-5-4-6-8(2,3)7(5)9-6/h5-7H,4H2,1-3H3	InChI=1S/C8H14O/c1-5-4-6-8(2,3)7(5)9-6/h5-7H,4H2,1-3H3/t5-,6-,7+/m0/s1
