13
gdb 20527	5.00405	1.744	1.30361	1.1199	61.11	-0.2761	-0.0641	0.212	869.3625	0.095934	-394.80756	-394.800634	-394.799689	-394.839182	24.407	
C	-0.0218107546	 1.496619229	-0.0571637992	-0.4863
C	-0.0256201143	-0.0016022255	 0.0714515491	 0.434033
O	-0.0476749307	-0.6216729492	 1.1016037272	-0.296144
N	-0.0020936633	-0.7165860008	-1.1641582703	-0.013384
C	-0.0007651711	-2.0710216233	-1.3342297815	-0.067409
C	 0.0259929603	-2.235565232	-2.6883846655	-0.069576
N	 0.0397019135	-0.9980812797	-3.2857963883	-0.17662
N	 0.0227425623	-0.0850012229	-2.3746229799	-0.133494
H	 0.8657615321	 1.8310609339	-0.6004304935	 0.170914
H	-0.8869676879	 1.8325391923	-0.6346406075	 0.170959
H	-0.0410808412	 1.9243016243	 0.9444943118	 0.151262
H	-0.0184472795	-2.7433347763	-0.4950533578	 0.176046
H	 0.0363225343	-3.1415917798	-3.2715009144	 0.139714
89.2261	126.4163	165.7667	219.2363	391.8006	506.1332	573.4854	647.2616	653.263	714.788	820.8923	888.9681	944.6908	966.6274	1025.6353	1046.7043	1061.1275	1115.7002	1164.0922	1211.7884	1303.8529	1362.8348	1398.5635	1447.7858	1458.4611	1467.5805	1539.4537	1836.6928	3064.3743	3131.2328	3173.4356	3279.1718	3313.2179
CC(=O)N1C=CN=N1	CC(=O)n1ccnn1	
InChI=1S/C4H5N3O/c1-4(8)7-3-2-5-6-7/h2-3H,1H3	InChI=1S/C4H5N3O/c1-4(8)7-3-2-5-6-7/h2-3H,1H3
