17
gdb 13861	4.40447	1.35369	1.2511	3.3477	64.39	-0.2457	0.0258	0.2716	1004.0633	0.143632	-401.038459	-401.030239	-401.029295	-401.072767	28.872	
N	 0.0741394812	 1.287955074	-0.3637285759	-0.526675
C	-0.0020165838	 0.0883092035	 0.2809896767	 0.391382
O	 0.9152151886	-0.3515544668	 0.9492136392	-0.368308
C	-1.3356733577	-0.6387163696	 0.1500897911	-0.08339
C	-1.1745870865	-2.1615858718	-0.0855287088	-0.253039
C	-2.1859580467	-2.8014077393	 0.9008775254	-0.075877
O	-2.9786339544	-1.7380845234	 1.4158302806	-0.241083
C	-2.1336221424	-0.6081529339	 1.4765270111	-0.09593
H	 0.9363679781	 1.80540351	-0.3095621801	 0.261489
H	-0.6569994526	 1.6247131516	-0.96416898	 0.259369
H	-1.9481754901	-0.1930763833	-0.639704611	 0.066353
H	-1.3899476649	-2.4262104239	-1.1229457909	 0.105468
H	-0.1520596812	-2.4651292832	 0.145051821	 0.135058
H	-2.8618153815	-3.5210948338	 0.4316747905	 0.106901
H	-1.6537738191	-3.3096943982	 1.7186366082	 0.099541
H	-1.4323379778	-0.6726010617	 2.3233271677	 0.11062
H	-2.759488309	 0.2797964598	 1.5952842351	 0.108122
27.6908	45.8339	168.3634	201.5572	221.1295	301.6566	375.7276	582.091	586.8053	626.4902	696.3407	758.4532	805.7891	868.7493	942.6292	955.8446	972.4028	1018.4052	1064.84	1072.8058	1110.0593	1138.8836	1228.6285	1241.0737	1266.2815	1283.7717	1302.0529	1311.5495	1358.316	1396.7101	1412.8139	1490.2184	1506.5403	1526.0775	1615.6683	1791.0593	2986.595	2994.6012	3051.8867	3074.7201	3089.4926	3100.0921	3131.6675	3603.0524	3741.7373
NC(=O)C1CCOC1	NC(=O)[C@H]1CCOC1	
InChI=1S/C5H9NO2/c6-5(7)4-1-2-8-3-4/h4H,1-3H2,(H2,6,7)	InChI=1S/C5H9NO2/c6-5(7)4-1-2-8-3-4/h4H,1-3H2,(H2,6,7)/t4-/m0/s1
