18
gdb 67299	3.16752	1.59768	1.33631	2.1108	76.62	-0.234	0.0595	0.2935	998.1173	0.147866	-401.836536	-401.829065	-401.828121	-401.868057	30.168	
O	-0.1502994348	 1.3278605323	 0.0306012347	-0.478564
C	-0.0469929293	-0.0451123463	 0.023594298	 0.296067
C	 0.8285757657	-0.9874723493	-0.9010270873	-0.101627
C	 1.9965036665	-1.0064067156	 0.107347858	-0.296821
C	 0.737801332	-1.0119825894	 1.0005152194	-0.096681
C	-0.0429673262	-1.9366206251	-0.0012579038	-0.141901
C	-1.233472319	-0.9826444945	-0.0395855834	 0.380876
C	-2.5764781546	-0.9356483892	 0.553936239	-0.341513
N	-2.3795529148	-0.9955277483	-0.9254105997	-0.402214
H	 0.732993544	 1.7133423085	 0.0166789992	 0.289794
H	 0.8475913918	-0.9879908445	-1.9912218146	 0.079933
H	 2.6114865392	-1.9111394349	 0.1242668784	 0.098751
H	 2.6393413199	-0.119535264	 0.1508052369	 0.080882
H	 0.6529098105	-1.0375566769	 2.0874782214	 0.074956
H	-0.0182533483	-3.0230258372	-0.0155191168	 0.085791
H	-3.0287391899	-1.8257535604	 0.9830941211	 0.117513
H	-2.9105583316	 0.0015986579	 0.9919862676	 0.119053
H	-2.5219605812	-0.070455423	-1.3262096283	 0.235705
156.5529	197.3907	209.6665	256.7535	286.9602	383.398	494.3001	534.6363	589.2006	664.0594	733.8643	822.413	858.8606	874.3709	882.3403	907.7882	912.5738	927.2692	951.0035	973.2656	1008.43	1036.7954	1042.9365	1059.9539	1073.9805	1117.9271	1141.5879	1161.1897	1169.5322	1184.1562	1232.665	1241.7541	1256.4246	1267.9422	1331.2294	1347.5837	1475.742	1512.7805	1544.2378	3029.4076	3088.7939	3104.57	3108.8356	3113.4647	3159.0312	3189.5113	3486.3166	3802.1293
OC12C3CC1C3C21CN1	O[C@@]12[C@H]3C[C@@H]1[C@H]3[C@]12CN1	
InChI=1S/C7H9NO/c9-7-3-1-4(7)5(3)6(7)2-8-6/h3-5,8-9H,1-2H2	InChI=1S/C7H9NO/c9-7-3-1-4(7)5(3)6(7)2-8-6/h3-5,8-9H,1-2H2/t3-,4+,5-,6-,7-/m0/s1
