17
gdb 129795	3.15237	1.56343	1.07097	2.223	75.78	-0.1833	0.0352	0.2185	1088.26	0.140405	-414.191134	-414.183348	-414.182404	-414.223197	29.915	
N	 0.1061442302	 1.4139414045	 0.1643876307	-0.612524
C	-0.0438524523	 0.0261495588	 0.0583348853	 0.225031
C	-1.143047312	-0.802201449	 0.0566850125	 0.167381
N	-2.5633208943	-0.7304560933	 0.0096395602	-0.431811
C	-2.9512408917	-2.1264831339	-0.3757300938	-0.167169
C	-1.7600422785	-3.0931148798	-0.0464354813	-0.348292
C	-0.6289795717	-2.1063671551	-0.0075466841	 0.334264
N	 0.6911444949	-2.1514248735	-0.0368238111	-0.351173
N	 1.0301299213	-0.8242339607	 0.0220066133	-0.257742
H	 0.7867320356	 1.7850537727	-0.4898509654	 0.247205
H	-0.779710758	 1.87723439	 0.0006764341	 0.258017
H	-2.9458529024	-0.5150489523	 0.9268167729	 0.224608
H	-3.8846122123	-2.4080849186	 0.1173913472	 0.101641
H	-3.1285547029	-2.136563086	-1.4567468131	 0.116775
H	-1.8912194752	-3.5918576741	 0.9225563754	 0.111578
H	-1.6537625768	-3.8727943452	-0.80481853	 0.118975
H	 2.0018504261	-0.5726415144	 0.0735479772	 0.263235
145.9546	169.4569	180.7495	250.9442	272.8813	322.4199	390.3908	531.9556	594.7226	614.9419	648.4531	692.5094	749.3533	791.6854	802.311	823.5854	910.2552	928.7622	982.1331	1055.4701	1076.9936	1085.213	1136.6589	1183.8909	1232.6332	1267.7056	1292.4743	1342.7054	1363.7864	1411.0625	1442.0932	1483.1223	1498.5687	1519.8798	1558.0838	1644.89	1694.035	3023.1987	3042.023	3093.8707	3106.8673	3471.6834	3513.7498	3605.683	3680.9173
NC1=C2NCCC2=NN1	Nc1c2NCCc2n[nH]1	
InChI=1S/C5H8N4/c6-5-4-3(8-9-5)1-2-7-4/h7H,1-2H2,(H3,6,8,9)	InChI=1S/C5H8N4/c6-5-4-3(8-9-5)1-2-7-4/h7H,1-2H2,(H3,6,8,9)
