18
gdb 5846	3.23461	1.50984	1.33791	3.0189	64.75	-0.2638	0.0177	0.2815	1018.3984	0.149875	-422.110392	-422.100476	-422.099532	-422.145093	34.733	
C	-0.0374677793	 1.3417101827	 0.0498982675	-0.240036
O	 0.0270671242	-0.0866448384	-0.0375817744	-0.242339
C	 0.6533648253	-0.5673195875	-1.1364679564	 0.448999
O	 1.1287880163	 0.1292853575	-1.9898197622	-0.351725
C	 0.6552030236	-2.1036318998	-1.1124980389	 0.232122
C	 1.4169349194	-2.5963039324	 0.1308525611	-0.420422
C	-0.7954831715	-2.6178878401	-1.1231840181	-0.420514
O	 1.3307425406	-2.4904423922	-2.2975392397	-0.446598
H	 0.9667761456	 1.772413065	 0.0740623006	 0.141665
H	-0.5748195847	 1.7567340766	-0.8065474397	 0.141854
H	-0.5687968542	 1.5593986922	 0.9765490991	 0.131261
H	 0.9519697012	-2.2392363896	 1.0520770281	 0.133808
H	 1.4208342169	-3.6922944329	 0.1491916451	 0.106626
H	 2.4538248737	-2.2508470436	 0.0979366011	 0.133432
H	-1.3047770002	-2.2875966013	-2.0326276015	 0.133465
H	-0.7971065125	-3.713931229	-1.1077187294	 0.106643
H	-1.3522437532	-2.2615210781	-0.2540642957	 0.13382
H	 1.3476733988	-3.4530108491	-2.3126905866	 0.277941
45.7452	107.2825	129.7844	200.9343	221.9778	226.1462	259.1197	276.9444	316.3138	351.748	362.7783	437.2111	492.8799	603.0682	770.0553	803.0649	889.1993	928.0761	991.8322	1014.5592	1023.0277	1129.8172	1179.3163	1186.6294	1207.4102	1224.6491	1242.4282	1379.4568	1392.3962	1414.9554	1470.9547	1480.2876	1480.47	1484.1744	1495.8325	1499.4768	1514.2252	1843.5587	3032.6116	3036.7328	3051.3109	3105.1288	3108.526	3125.6184	3135.91	3140.0129	3157.6163	3816.4452
COC(=O)C(C)(C)O	COC(=O)C(C)(C)O	
InChI=1S/C5H10O3/c1-5(2,7)4(6)8-3/h7H,1-3H3	InChI=1S/C5H10O3/c1-5(2,7)4(6)8-3/h7H,1-3H3
