19
gdb 83360	2.17415	1.98787	1.56268	1.7261	69.04	-0.2498	0.073	0.3227	954.5455	0.160818	-460.168846	-460.161119	-460.160175	-460.200481	31.053	
C	-0.0038688395	 1.4820877713	 0.0482773653	-0.49924
C	-0.0037052525	-0.03166738	 0.0036485217	 0.202763
C	 0.6042757875	-0.6977190732	-1.2410799254	-0.106782
O	 0.1552820589	-2.0722120077	-1.1463342982	-0.269822
C	-0.6806935204	-2.1231854236	-0.0157493601	 0.163106
O	 0.0802259156	-2.0777915346	 1.1893237054	-0.291837
C	 0.6397613865	-0.7409079909	 1.2189814367	-0.126943
C	-1.3816551301	-0.7600607877	 0.0017050896	 0.103925
O	-2.2050266824	-0.5211606196	 1.1138578146	-0.458293
H	 1.009212768	 1.8854179947	 0.1554306985	 0.118813
H	-0.4350375918	 1.9037610712	-0.8656965731	 0.121767
H	-0.6019015303	 1.8318489982	 0.8953665597	 0.136873
H	 0.2339809023	-0.2531208324	-2.174412999	 0.101085
H	 1.7000399776	-0.6760134949	-1.2529926853	 0.107235
H	-1.2642078431	-3.0421654728	-0.0278809209	 0.097411
H	 1.7316059042	-0.7951494468	 1.1433981017	 0.110156
H	 0.3767602346	-0.261113107	 2.1684111513	 0.103914
H	-1.9630455502	-0.559725423	-0.9018354128	 0.092313
H	-1.8559374652	-1.0553863212	 1.8385104803	 0.293556
194.2913	203.4547	226.1258	233.5401	318.3618	343.7082	413.6583	457.9774	490.2536	570.4493	613.6064	643.5562	786.5184	830.6371	882.8592	930.7814	937.9078	943.2837	952.0733	1001.8355	1018.5486	1049.4374	1067.6145	1133.3844	1173.1613	1187.4712	1202.2968	1240.8254	1251.8121	1257.7683	1305.9022	1308.804	1326.8395	1369.5227	1407.4129	1413.6639	1436.2776	1495.3852	1497.8986	1518.0061	1533.6412	3010.7033	3027.3775	3032.5117	3057.7979	3071.2009	3089.4938	3094.8536	3109.0835	3149.5328	3777.6797
CC12COC(OC1)C2O	C[C@@]12CO[C@@H](OC1)[C@H]2O	
InChI=1S/C6H10O3/c1-6-2-8-5(4(6)7)9-3-6/h4-5,7H,2-3H2,1H3	InChI=1S/C6H10O3/c1-6-2-8-5(4(6)7)9-3-6/h4-5,7H,2-3H2,1H3/t4-,5-,6+/m1/s1
