19
gdb 62803	3.03964	1.30291	1.13213	3.7114	76.29	-0.2444	-0.0276	0.2167	1147.3126	0.156588	-422.98904	-422.980145	-422.979201	-423.022306	33.502	
C	-0.0657462791	 1.5450211101	-0.1614873332	-0.482153
C	 0.0029020065	 0.0385696845	-0.0123177217	 0.301012
C	-1.2179388342	-0.7056394438	-0.5316235074	-0.454853
C	 1.2857841087	-0.7133917084	-0.1934607898	 0.05763
O	 2.426339785	 0.0368987246	 0.2476181348	-0.281122
C	 1.9617453268	-0.0324408774	 1.606913262	 0.023291
C	 1.9505532847	 1.2481145074	 2.4046455071	 0.150109
O	 2.3306215355	 2.3246844451	 2.0283995769	-0.241221
C	 0.6368400594	-0.6806918853	 1.1803957593	-0.21742
H	 0.8992321511	 2.0145629455	 0.0292360939	 0.165909
H	-0.3709383184	 1.8008554571	-1.1824922291	 0.112024
H	-0.8056278434	 1.9770257109	 0.5217432356	 0.112285
H	-1.3954168153	-0.4640774341	-1.5850001665	 0.124002
H	-1.1012034404	-1.7915455282	-0.4501342004	 0.114705
H	-2.1138880386	-0.4234847351	 0.0321247168	 0.124105
H	 1.4635672085	-1.5201630672	-0.8962486973	 0.106264
H	 2.568337954	-0.7547276307	 2.1793043141	 0.107068
H	 1.5551832619	 1.0923995544	 3.4376788371	 0.076429
H	 0.1269730173	-1.4600104493	 1.7310169578	 0.101934
99.2179	142.9805	174.2654	221.0136	251.3451	256.8737	278.6809	338.4599	370.6739	476.1826	543.2795	646.4242	699.3432	727.9775	815.6794	841.9058	889.0089	956.0226	977.4099	998.3177	1007.4869	1036.772	1043.0432	1060.0776	1066.0604	1128.0671	1164.9753	1198.3681	1239.197	1255.4439	1295.1851	1356.6128	1398.1987	1412.3306	1420.6697	1430.1689	1487.5832	1490.5564	1509.0423	1516.8799	1839.7439	2843.0093	2967.3516	3026.6709	3032.5667	3085.9119	3094.0933	3098.1524	3153.5041	3171.2892	3199.9587
CC1(C)C2OC(C=O)C12	CC1(C)[C@H]2O[C@@H](C=O)[C@@H]12	
InChI=1S/C7H10O2/c1-7(2)5-4(3-8)9-6(5)7/h3-6H,1-2H3	InChI=1S/C7H10O2/c1-7(2)5-4(3-8)9-6(5)7/h3-6H,1-2H3/t4-,5+,6-/m0/s1
