16
gdb 17093	4.82961	1.64292	1.57691	3.579	68.29	-0.2476	0.0286	0.2762	841.672	0.134143	-342.763211	-342.756991	-342.756047	-342.793562	24.56	
N	-0.061135558	-1.1444747448	-0.1140674084	-0.329875
C	-0.0165353413	 0.0102451984	-0.0626597662	 0.265573
C	 0.0439842676	 1.4624345814	 0.0213817296	-0.165716
C	-0.3941221771	 2.0546236665	 1.4312598636	-0.188391
N	 0.8149784708	 2.7966686578	 1.8610563163	-0.111614
C	 1.1965633784	 3.4673977571	 0.5549073209	-0.186643
C	 1.4820349905	 2.0384723993	 0.0325917774	-0.033383
C	 1.8911269562	 1.786458115	 1.504904183	-0.185282
H	-0.5506114018	 1.8809780371	-0.7957442583	 0.122732
H	-1.2450194169	 2.7320591837	 1.3381185057	 0.120468
H	-0.6382058505	 1.2719725039	 2.1510421109	 0.134823
H	 0.4055548961	 4.0618065456	 0.0876574002	 0.10573
H	 2.0951968703	 4.0717819471	 0.6906729148	 0.119189
H	 2.1144475267	 1.8129849074	-0.8264478585	 0.087695
H	 2.8755896093	 2.1827452014	 1.7592698956	 0.118851
H	 1.7577195898	 0.7897094732	 1.9330725134	 0.125843
129.863	169.2555	337.6061	455.9002	486.8294	532.4105	576.0662	691.4819	810.3613	823.3289	834.7594	854.651	878.0955	957.0279	974.4919	986.7397	1024.4529	1036.1692	1057.7772	1099.9046	1116.5455	1182.4524	1208.7499	1231.7735	1242.9152	1256.5047	1270.7332	1297.0697	1325.3129	1349.9843	1499.391	1501.3632	1537.2071	2349.7602	3056.209	3069.4205	3069.4771	3082.3697	3116.9235	3126.8367	3135.0029	3138.8184
N#CC1CN2CC1C2	N#C[C@H]1CN2C[C@H]1C2	
InChI=1S/C6H8N2/c7-1-5-2-8-3-6(5)4-8/h5-6H,2-4H2	InChI=1S/C6H8N2/c7-1-5-2-8-3-6(5)4-8/h5-6H,2-4H2/t5-/m0/s1
