23
gdb 96592	2.23816	1.45868	1.01765	1.1427	82.07	-0.237	0.0772	0.3143	1265.7282	0.207092	-425.417512	-425.40838	-425.407435	-425.451209	35.157	
C	 0.1820884625	 1.6638602481	-0.0143307722	-0.412053
C	 0.0072103397	 0.1391079573	 0.0197379021	-0.000714
C	 0.57862998	-0.4589787282	-1.2827759019	-0.07921
O	 0.9471682744	-1.8214926085	-1.2180555609	-0.236695
C	-0.095078799	-2.7749482466	-1.2874863802	-0.075349
C	-0.8862200696	-2.9658302633	 0.0186776258	-0.23124
C	-0.0418001141	-2.8061733239	 1.2992057243	-0.057861
O	-0.1064367394	-1.5154676805	 1.8789885888	-0.249391
C	 0.6509776715	-0.4764903079	 1.2856282942	-0.074094
H	 1.2423467249	 1.939628391	 0.0368240005	 0.117796
H	-0.2239771949	 2.0920083591	-0.9374516834	 0.114338
H	-0.3293398986	 2.1391344616	 0.8280978385	 0.119731
H	-1.0646435928	-0.0767835372	 0.0866674837	 0.083305
H	-0.1226362789	-0.2907562202	-2.1168439448	 0.086551
H	 1.5092356584	 0.0671284734	-1.5294865813	 0.101002
H	-0.7769829985	-2.5377881448	-2.1201072269	 0.087331
H	 0.4109731049	-3.7138096431	-1.5385438169	 0.106455
H	-1.7300940787	-2.2723403224	 0.0883211779	 0.111881
H	-1.3206354465	-3.9728543479	-0.0058451158	 0.095774
H	-0.4345491131	-3.4712450351	 2.0747358397	 0.100896
H	 1.0025461954	-3.0937020068	 1.1083101473	 0.098005
H	 1.6740351673	-0.8162641145	 1.0675272438	 0.097673
H	 0.7135438052	 0.2929983003	 2.0627929178	 0.09587
82.6916	114.289	186.8393	224.5786	244.6673	296.9564	302.3909	371.2175	377.4214	426.0747	488.0956	515.3811	566.7938	765.6545	836.3731	870.3448	884.4169	902.0566	945.9826	965.5253	979.4453	1011.5044	1050.7781	1108.4918	1115.6057	1121.6842	1146.3884	1173.129	1185.8443	1249.686	1270.0469	1308.3503	1312.6298	1332.0154	1352.0044	1361.9422	1373.3086	1397.3245	1403.809	1412.0197	1423.1225	1438.5538	1476.6912	1479.1015	1487.2841	1493.4809	1496.7363	1498.5177	1503.053	2967.649	2976.2162	2998.2411	3001.7618	3024.541	3033.05	3037.8503	3055.0273	3056.0618	3065.2033	3074.9565	3086.7779	3090.2213	3105.0497
CC1COCCCOC1	CC1COCCCOC1	
InChI=1S/C7H14O2/c1-7-5-8-3-2-4-9-6-7/h7H,2-6H2,1H3	InChI=1S/C7H14O2/c1-7-5-8-3-2-4-9-6-7/h7H,2-6H2,1H3
