12
gdb 131332	3.61341	1.79207	1.19795	4.029	60.94	-0.2185	-0.0128	0.2058	910.399	0.080913	-464.9785	-464.972108	-464.971164	-465.009157	24.529	
O	 0.0960409941	 1.3268629033	 0.1866024775	-0.414624
C	 0.0740117588	-0.0029264293	 0.0587155796	 0.446726
N	 0.0722167264	-0.7083101428	-1.0419341366	-0.330673
N	 0.0450151346	-2.0791262005	-0.7151807031	-0.368638
C	 0.0324999222	-2.0869216623	 0.5853712806	 0.521392
N	 0.007313679	-2.9358815248	 1.6738906463	-0.416074
C	 0.0111773457	-2.1249135412	 2.7874876704	 0.071089
N	 0.03566891	-0.847220007	 2.5235176624	-0.24111
N	 0.0489758016	-0.8361869493	 1.1421831071	-0.049888
H	 0.1104857489	 1.68733319	-0.7102057069	 0.320928
H	-0.0094904986	-3.9397842023	 1.6522166893	 0.294987
H	-0.0051420027	-2.5207576239	 3.7909420334	 0.165885
192.4964	228.8434	289.8152	373.6401	379.1833	440.3723	575.669	633.5846	666.4686	670.6769	716.9224	735.83	831.5781	860.6973	958.4405	1019.8677	1102.0451	1139.8524	1189.6911	1275.2341	1296.7568	1373.5136	1427.0613	1492.2503	1576.9159	1630.1211	1672.133	3274.2381	3700.9047	3792.0665
OC1=NN=C2NC=NN12	Oc1nnc2[nH]cnn12	
InChI=1S/C3H3N5O/c9-3-7-6-2-4-1-5-8(2)3/h1H,(H,7,9)(H,4,5,6)	InChI=1S/C3H3N5O/c9-3-7-6-2-4-1-5-8(2)3/h1H,(H,7,9)(H,4,5,6)
