21
gdb 107327	2.4993	1.52975	1.15913	1.5796	82.72	-0.2309	0.0081	0.239	1145.9024	0.182745	-387.088853	-387.080018	-387.079074	-387.121992	34.607	
C	 0.0089069865	 1.4975799189	 0.3387686911	-0.375623
C	-0.040904002	 0.0380811775	-0.1342224895	-0.292746
C	-1.4413380795	-0.5374340628	-0.1366266433	 0.359707
C	-2.0251095184	-1.0573709476	 1.1604220213	-0.333212
C	-1.7318705145	-2.0151593568	 0.0178382241	-0.143812
C	-2.9099497849	-2.2949717406	-0.8583570863	-0.076144
C	-3.3291186256	-1.1917529137	-1.4798597828	-0.129987
C	-2.4489632205	 0.0064599628	-1.1666886114	 0.021229
O	-3.1658841481	 1.1679641296	-0.7601883393	-0.432715
H	 1.025908776	 1.8968379636	 0.2751793889	 0.105218
H	-0.6495437149	 2.1299421644	-0.2631353336	 0.137957
H	-0.3217514291	 1.5808174205	 1.3796632064	 0.111155
H	 0.3760954113	-0.0340979259	-1.1478378726	 0.096534
H	 0.6049674957	-0.5779489026	 0.5042066266	 0.089265
H	-1.3561062674	-1.0692843558	 2.0157590578	 0.11169
H	-3.0679119949	-0.8832275599	 1.4104199602	 0.099267
H	-0.9401911757	-2.7474621893	 0.1334183761	 0.088463
H	-3.3715551534	-3.2742753225	-0.9250158382	 0.099533
H	-4.1983624049	-1.1032620012	-2.1211311345	 0.099431
H	-1.9111550829	 0.3370957386	-2.0658489438	 0.089383
H	-3.6045020728	 0.955827443	 0.0714340528	 0.275407
87.1879	129.5856	204.9173	219.3017	248.5774	310.827	332.8408	348.1577	435.8429	468.107	573.1693	633.2439	713.8617	753.793	783.7679	813.3218	847.5264	897.184	928.3119	964.8674	968.6255	983.4935	1009.4269	1034.2741	1062.6927	1068.1742	1076.4242	1089.2722	1114.9686	1149.6409	1214.5897	1248.8113	1264.6531	1296.8098	1332.9012	1355.1499	1370.1655	1400.6456	1413.8569	1427.2995	1475.1416	1488.2007	1497.6319	1508.8707	1670.2877	3010.1847	3015.8244	3036.4641	3045.1392	3101.7011	3111.6615	3119.658	3166.6424	3184.1704	3198.5701	3211.4462	3797.8709
CCC12CC1C=CC2O	CC[C@]12C[C@H]1C=C[C@H]2O	
InChI=1S/C8H12O/c1-2-8-5-6(8)3-4-7(8)9/h3-4,6-7,9H,2,5H2,1H3	InChI=1S/C8H12O/c1-2-8-5-6(8)3-4-7(8)9/h3-4,6-7,9H,2,5H2,1H3/t6-,7-,8+/m1/s1
