20
gdb 8429	3.5844	1.67141	1.661	1.1932	73.44	-0.2555	0.0769	0.3324	910.6771	0.17775	-349.007726	-348.999977	-348.999032	-349.039086	31.364	
C	 0.5415222244	 1.3343940004	 0.0163407888	-0.445267
C	-0.0500877497	-0.0794928138	-0.0141717959	 0.408027
O	-1.4790206019	 0.026501016	-0.0140183394	-0.473686
C	 0.4545027013	-0.9195731453	-1.2328061508	-0.281468
C	 1.4448917506	-1.9399252433	-0.6979362995	-0.022018
C	 2.6113851325	-1.4497357237	 0.1246915235	-0.292075
C	 1.3612981946	-1.9404928129	 0.8133391172	-0.027459
C	 0.3201734381	-0.9203673325	 1.2404887282	-0.256446
H	 1.6337416138	 1.3264904589	 0.0644353622	 0.121731
H	 0.2608387767	 1.8882233257	-0.8887693585	 0.101912
H	 0.1620043224	 1.8811221163	 0.8847663081	 0.122676
H	-1.7303155572	 0.6157842202	-0.7334695904	 0.270648
H	-0.4119703539	-1.4389318612	-1.6551998529	 0.103604
H	 0.8750044628	-0.2841920606	-2.0218305018	 0.087418
H	 1.5705923283	-2.8639162541	-1.2517508244	 0.079609
H	 3.4826571732	-2.0946286553	 0.1717056134	 0.107061
H	 2.8548782631	-0.3925629012	 0.1390467828	 0.107369
H	 1.4248339026	-2.8648929794	 1.376774384	 0.079919
H	 0.6518970803	-0.2834791896	 2.0678664803	 0.093562
H	-0.5886154919	-1.4333826245	 1.5691678951	 0.114884
119.1485	210.0872	266.0237	294.9513	344.7009	356.4866	366.8168	428.1037	456.4817	604.1109	622.6654	770.1099	780.9765	822.1904	869.4867	894.282	915.0743	936.6488	945.8147	969.0154	1023.9586	1058.1004	1073.4595	1083.184	1108.7606	1119.1916	1154.0726	1177.7416	1205.0829	1212.404	1284.8847	1299.8074	1319.4812	1344.9952	1379.3373	1395.5698	1414.5975	1477.6319	1483.9024	1491.8473	1498.8842	1501.6259	3021.8847	3028.3835	3042.7119	3074.6582	3087.5571	3093.6273	3120.0701	3130.9351	3160.7311	3169.7342	3209.7159	3801.6418
CC1(O)CC2CC2C1	C[C@@]1(O)C[C@H]2C[C@H]2C1	
InChI=1S/C7H12O/c1-7(8)3-5-2-6(5)4-7/h5-6,8H,2-4H2,1H3	InChI=1S/C7H12O/c1-7(8)3-5-2-6(5)4-7/h5-6,8H,2-4H2,1H3/t5-,6+,7-
