21
gdb 86408	2.47293	1.49585	1.11804	0.9091	79.07	-0.2448	0.0883	0.3331	1185.4702	0.181291	-424.22702	-424.217952	-424.217008	-424.260942	34.69	
C	 0.2662058024	 1.4965880562	 0.0528940823	-0.407141
C	 0.1806524082	-0.0094491643	 0.1404075852	 0.220834
O	 0.6096132833	-0.6068877721	-1.0726190597	-0.29017
C	 1.2796470926	-1.8344774234	-0.7569922826	 0.055104
C	 2.6679327763	-1.8161414738	-1.3848547135	-0.393118
C	 1.2636498788	-1.8421501596	 0.7751004884	 0.411442
C	 0.6164055663	-2.9268326167	 1.5946977327	-0.334594
C	 2.1159468562	-2.6762372288	 1.663790435	-0.347011
O	 1.0500241792	-0.5016528897	 1.1408953477	-0.281257
H	 1.2983908732	 1.7962973273	-0.1432406662	 0.129693
H	-0.3716490181	 1.8562722145	-0.7582986891	 0.129021
H	-0.0693293975	 1.9469691636	 0.990723908	 0.125338
H	-0.8513971237	-0.339690247	 0.3619329896	 0.059952
H	 0.6961925014	-2.676213852	-1.1541825312	 0.079711
H	 3.2782338072	-1.0281727194	-0.934819192	 0.126153
H	 3.1738642569	-2.7769320771	-1.2452242205	 0.109888
H	 2.5882636942	-1.6245603402	-2.458594107	 0.124471
H	 0.0216363557	-2.6135109055	 2.4453117069	 0.121471
H	 0.2658382665	-3.8220115531	 1.0908073411	 0.113114
H	 2.784773528	-3.3995607612	 1.2098914978	 0.117948
H	 2.5035008028	-2.2001054377	 2.5574256969	 0.129153
47.9854	114.5818	210.2501	214.8503	244.8028	254.9534	308.8823	361.9597	411.5078	473.2233	545.3488	566.4831	701.2978	756.5799	771.6492	856.6111	865.206	892.0293	923.1933	943.168	963.947	1000.7226	1050.9161	1067.0164	1079.1145	1092.0637	1124.645	1136.5707	1148.7907	1164.7631	1189.3007	1271.9305	1301.1007	1352.5356	1381.178	1387.2407	1398.6481	1405.0708	1440.0745	1451.1473	1483.5466	1485.4961	1487.8232	1493.8508	1505.7992	2926.9531	3008.2777	3040.8215	3053.8063	3112.9377	3124.7542	3129.0033	3132.9438	3135.8207	3139.2295	3215.6384	3229.4633
CC1OC(C)C2(CC2)O1	C[C@H]1O[C@@H](C)C2(CC2)O1	
InChI=1S/C7H12O2/c1-5-7(3-4-7)9-6(2)8-5/h5-6H,3-4H2,1-2H3	InChI=1S/C7H12O2/c1-5-7(3-4-7)9-6(2)8-5/h5-6H,3-4H2,1-2H3/t5-,6-/m0/s1
