20
gdb 113154	2.28145	1.14351	0.98322	1.2658	76.24	-0.2366	-0.0156	0.221	1320.0991	0.167708	-440.274467	-440.263912	-440.262968	-440.310544	37.473	
C	 0.1775358188	 1.0904790463	-0.7620784297	-0.473487
C	-0.1051635741	 0.126761343	 0.3705686174	 0.332431
O	 0.5704764697	 0.0922344474	 1.3757388963	-0.312603
C	-1.3188811336	-0.7841231673	 0.2564307937	 0.189522
C	-2.18988272	-0.7763420204	 1.4986911672	-0.468284
N	-1.9271728888	-0.8881274213	-1.0800772928	-0.368003
C	-1.2221578415	-2.0530375106	-0.5307179911	-0.013712
C	 0.0225162571	-2.5371296433	-1.2268519671	-0.097437
O	-0.3821947689	-3.5004656953	-2.1882316279	-0.421337
H	 1.1250561377	 1.5988415189	-0.5800159079	 0.132578
H	 0.1739880858	 0.5909860447	-1.7324211901	 0.155314
H	-0.6336039169	 1.8279222246	-0.8059485526	 0.143194
H	-2.6612957696	 0.2029866542	 1.6393162946	 0.123454
H	-2.9804514278	-1.5293592803	 1.4259044432	 0.113107
H	-1.5822247105	-0.9847721442	 2.3821771358	 0.153368
H	-2.9343617108	-1.009361227	-1.0078158206	 0.233308
H	-1.8322198293	-2.8742538096	-0.1558398293	 0.095718
H	 0.5452606574	-1.6930566555	-1.6972384809	 0.093646
H	 0.7004708243	-2.9777471381	-0.4784207487	 0.099961
H	 0.407149311	-3.858219936	-2.6050722394	 0.289264
49.333	79.0301	109.2847	137.6131	189.686	227.6014	245.8145	253.1556	267.1566	335.0547	403.7954	473.6626	500.017	531.7328	630.7397	663.9686	813.4027	867.7858	925.3671	970.5373	982.3687	1013.1263	1045.1507	1058.5376	1079.982	1105.9918	1133.9912	1176.1067	1197.8367	1251.7658	1280.4022	1302.2537	1359.0888	1386.2771	1405.0081	1421.2713	1454.9706	1464.303	1485.5224	1489.9062	1504.4674	1509.7641	1794.9214	2978.1833	3026.5847	3034.3632	3042.2356	3098.991	3115.2303	3117.409	3131.2659	3163.8992	3498.795	3830.6232
CC(=O)C1(C)NC1CO	CC(=O)[C@@]1(C)N[C@H]1CO	
InChI=1S/C6H11NO2/c1-4(9)6(2)5(3-8)7-6/h5,7-8H,3H2,1-2H3	InChI=1S/C6H11NO2/c1-4(9)6(2)5(3-8)7-6/h5,7-8H,3H2,1-2H3/t5-,6+/m0/s1
