13
gdb 129700	3.41054	1.18025	0.91352	0.6686	62.13	-0.2302	-0.027	0.2032	1173.03	0.089636	-486.064863	-486.056766	-486.055822	-486.098569	28.205	
N	-0.4092861421	 1.256809563	 0.4691556562	-0.606486
C	-0.184381326	-0.0852882926	 0.1662908375	 0.245348
C	-1.0638075825	-1.0294661004	-0.3161583549	 0.311276
N	-0.3379965619	-2.1773133263	-0.3625658145	-0.221188
N	 0.9112079428	-1.9735788931	 0.0718789579	-0.116036
N	 1.0047732686	-0.70751193	 0.3933684726	-0.244939
O	-2.3557999993	-0.9698419845	-0.7458374111	-0.226471
C	-3.3113044218	-0.6804792548	 0.2081083555	 0.157769
O	-4.4536140663	-0.5536332591	-0.0846036694	-0.238083
H	 0.454914697	 1.6991151433	 0.7586539074	 0.263001
H	-0.8190341696	 1.7767949579	-0.2976753873	 0.25752
H	-0.6231112978	-3.0850937802	-0.6960469396	 0.293373
H	-2.870824391	-0.5912631431	 1.2148270097	 0.124917
45.2434	122.4792	131.98	211.4225	274.8611	295.7033	423.2478	437.0916	525.4519	547.2483	687.9584	718.4877	730.3735	806.8805	858.5256	997.8792	1035.7229	1074.983	1102.26	1108.9289	1241.7909	1279.7548	1359.6483	1379.9646	1401.2841	1527.1166	1644.0572	1671.8437	1890.4472	3015.6825	3528.2138	3619.2787	3649.9848
NC1=C(NN=N1)OC=O	Nc1c([nH]nn1)OC=O	
InChI=1S/C3H4N4O2/c4-2-3(9-1-8)6-7-5-2/h1H,(H3,4,5,6,7)	InChI=1S/C3H4N4O2/c4-2-3(9-1-8)6-7-5-2/h1H,(H3,4,5,6,7)
