21
gdb 108514	2.66628	1.48053	1.22011	2.0607	77.55	-0.2451	0.0725	0.3176	1123.0174	0.183255	-424.215036	-424.20656	-424.205616	-424.248011	32.591	
C	-0.1925044812	 1.4146401955	-0.0982866141	-0.260653
O	 0.0123059224	 0.0189090133	-0.0193333641	-0.294713
C	 0.7317956782	-0.5224154193	-1.095324874	 0.37901
C	-0.0216317742	-0.649789103	-2.443469016	-0.126505
O	 0.1842620687	-2.0770346849	-2.4636260229	-0.300446
C	 0.7580567445	-2.073502885	-1.1311819499	 0.0862
C	 2.215770235	-2.5110164182	-1.1304597309	-0.227918
C	 2.9527782664	-1.3079393335	-1.7541685996	-0.22096
C	 2.205542588	-0.0796049375	-1.1914599578	-0.279579
H	 0.7516172408	 1.9761973557	-0.0616746845	 0.110789
H	-0.7295788255	 1.6986297901	-1.0158579573	 0.107896
H	-0.8016115875	 1.6970323315	 0.7634178978	 0.129872
H	-1.0857540623	-0.3891372839	-2.3738797993	 0.098883
H	 0.4215622346	-0.1589094241	-3.3187845891	 0.094734
H	 0.1129190384	-2.5853152334	-0.4104852585	 0.076472
H	 2.5409432098	-2.6705413397	-0.0947113923	 0.101026
H	 2.3636772516	-3.4459695159	-1.6779418292	 0.109227
H	 4.0211546525	-1.290259062	-1.524248864	 0.097997
H	 2.8537382192	-1.3435605144	-2.8439273974	 0.115402
H	 2.352082086	 0.8196960083	-1.7971554383	 0.095966
H	 2.5519798946	 0.1396391305	-0.1744263687	 0.1073
109.7028	119.6401	185.0607	201.6006	223.6797	315.9023	360.3292	399.1018	451.2313	568.2506	616.2928	652.2265	827.964	832.5845	873.2152	896.6634	919.6196	944.8804	985.6994	997.9304	1017.3755	1040.0101	1051.4259	1114.1495	1150.4675	1164.6216	1178.689	1182.4543	1207.3484	1228.696	1232.4641	1261.9234	1286.9764	1305.2311	1332.2792	1337.3156	1363.1259	1377.4207	1469.5975	1479.0684	1485.2288	1490.6414	1501.5983	1507.2314	1511.6154	2985.0625	3005.1615	3033.506	3034.6393	3039.0992	3054.3068	3054.8501	3066.0959	3087.6484	3096.3492	3106.7205	3117.8698
COC12COC1CCC2	CO[C@]12CO[C@H]1CCC2	
InChI=1S/C7H12O2/c1-8-7-4-2-3-6(7)9-5-7/h6H,2-5H2,1H3	InChI=1S/C7H12O2/c1-8-7-4-2-3-6(7)9-5-7/h6H,2-5H2,1H3/t6-,7+/m0/s1
