18
gdb 102978	2.58361	0.80556	0.67022	1.9969	70.39	-0.2603	-0.0509	0.2094	1632.0166	0.144161	-476.209425	-476.199154	-476.19821	-476.246545	34.757	
O	 0.1136010262	 1.290151412	 0.2104909111	-0.420085
C	-0.0202481575	-0.069040198	-0.1451160852	-0.08553
C	-1.4846018781	-0.5399965468	-0.0533093702	-0.072808
N	-1.931811886	-0.3447529639	 1.3266336805	-0.336572
C	-3.2813917068	-0.8173318878	 1.6189344265	-0.234469
C	-3.7453054799	-0.3107339449	 2.9759923969	 0.150828
O	-4.4769179106	-0.9177443693	 3.7108873112	-0.226769
C	-2.3245793202	 0.3144298744	-1.0010835368	 0.183329
O	-2.5546468197	 0.0081522933	-2.140326865	-0.245417
H	-0.4022368969	 1.4112869238	 1.0178285306	 0.287934
H	 0.3350223379	-0.1767700879	-1.1736881576	 0.135568
H	 0.5997353876	-0.7238239123	 0.4926146896	 0.091202
H	-1.5470067028	-1.5825276285	-0.4047282814	 0.089509
H	-1.2752364273	-0.8063506004	 1.9500851687	 0.233024
H	-3.9719866251	-0.3894716079	 0.8774635334	 0.147806
H	-3.409960364	-1.9094163932	 1.5790793346	 0.125015
H	-3.3486580708	 0.6977108917	 3.2318801171	 0.086668
H	-2.6841860961	 1.2702946556	-0.5615694941	 0.090768
51.3824	63.5806	66.4847	88.2121	142.5921	185.0792	246.9113	284.3094	346.1847	381.9634	461.2963	503.1468	554.6089	641.305	744.4316	816.4083	870.3292	937.9853	998.6495	1040.0721	1059.9213	1081.1923	1100.8316	1143.6952	1154.8206	1225.6325	1236.3348	1274.5829	1333.9285	1345.8218	1374.5233	1406.6433	1412.8477	1428.6346	1471.4261	1493.6986	1517.5144	1840.0612	1843.4815	2885.7113	2896.6001	2947.5133	2980.9309	2994.7027	3037.6536	3094.9965	3499.1499	3771.6513
OCC(NCC=O)C=O	OC[C@@H](NCC=O)C=O	
InChI=1S/C5H9NO3/c7-2-1-6-5(3-8)4-9/h2-3,5-6,9H,1,4H2	InChI=1S/C5H9NO3/c7-2-1-6-5(3-8)4-9/h2-3,5-6,9H,1,4H2/t5-/m0/s1
