21
gdb 70833	2.47129	1.85022	1.37366	1.4738	82.32	-0.2282	0.0938	0.322	1039.3752	0.182748	-387.064252	-387.056005	-387.05506	-387.096416	32.828	
C	-0.0000414876	 1.5071601212	-0.0199810624	-0.523681
C	 0.0214937965	 0.0031854723	-0.0427095507	 0.304587
C	 0.5800241453	-0.9448380943	-1.1314367848	-0.337731
C	 0.0344864546	-1.9107541057	-0.0518870586	 0.304587
C	 0.0333788322	-3.4150312987	-0.0435866176	-0.523681
C	 0.6116502758	-0.9551100114	 1.0555303036	-0.13004
C	-0.3865404194	-0.9673977253	 2.2049291918	-0.117872
O	-1.6297957478	-0.9723556495	 1.4788049381	-0.285961
C	-1.1880444453	-0.962892771	 0.1306003447	 0.07046
H	 1.0139616993	 1.9223356344	-0.0206918155	 0.117075
H	-0.5247042559	 1.9063396624	-0.8950991688	 0.119798
H	-0.5161232098	 1.8766173985	 0.872875387	 0.126756
H	 0.0665903313	-0.9436819817	-2.0993783191	 0.08476
H	 1.6653188792	-0.9368048615	-1.2703844788	 0.088709
H	 1.0529270989	-3.8163707331	-0.0482387154	 0.117075
H	-0.4775574	-3.8000115699	 0.845663623	 0.126756
H	-0.4858925647	-3.8128868362	-0.922515079	 0.119798
H	 1.6814632534	-0.9488841102	 1.2716711183	 0.064206
H	-0.3160605808	-1.8606683963	 2.838749858	 0.09908
H	-0.3281521815	-0.0793710504	 2.8472905824	 0.09908
H	-2.0360515039	-0.9653608436	-0.5551741063	 0.07624
181.7988	184.5762	208.6179	212.6819	214.8449	247.0452	407.9075	411.0641	493.8298	585.4438	663.3751	685.0585	749.9762	752.4737	811.7963	899.8087	920.936	955.4297	965.6581	992.622	996.7562	1014.6363	1040.0483	1069.7896	1082.5521	1095.8877	1133.1503	1155.4478	1178.9947	1196.6376	1200.0047	1208.0581	1273.0636	1299.0618	1313.4451	1351.7882	1401.3987	1407.5159	1419.0371	1488.5476	1489.2786	1490.1002	1491.0753	1521.8115	1522.6635	3012.044	3025.1044	3025.4123	3033.4762	3046.7355	3089.8136	3090.7066	3092.226	3094.6316	3094.8265	3104.7276	3121.53
CC12CC3(C)C1COC23	C[C@@]12C[C@@]3(C)[C@@H]1CO[C@@H]23	
InChI=1S/C8H12O/c1-7-4-8(2)5(7)3-9-6(7)8/h5-6H,3-4H2,1-2H3	InChI=1S/C8H12O/c1-7-4-8(2)5(7)3-9-6(7)8/h5-6H,3-4H2,1-2H3/t5-,6+,7-,8+
