17
gdb 28883	2.28567	1.8242	1.0227	4.4832	79.6	-0.2064	-0.0073	0.1991	1118.782	0.137337	-418.070517	-418.06209	-418.061146	-418.103108	32.415	
C	 0.1114019118	 1.5255037854	 0.0478751802	-0.55024
C	 0.0501728603	 0.0192487499	 0.0251151207	 0.113336
C	 0.0741981532	-0.6853685585	-1.1910130353	 0.213719
N	 0.1642753135	-0.0037054298	-2.4109968381	-0.594715
C	 0.0759806857	-2.0851562812	-1.1565356547	-0.071416
N	 0.051489122	-2.7958889128	-0.0326988859	-0.270086
C	 0.0038448328	-2.1393873143	 1.1223133863	-0.071769
C	-0.006176759	-0.7440832606	 1.1957706708	 0.274904
O	-0.058271477	-0.1950489003	 2.4424842301	-0.437426
H	 0.7244551989	 1.8931546312	-0.7804756688	 0.151008
H	-0.878249862	 1.9937701116	-0.0395142183	 0.135098
H	 0.5729927897	 1.9070961995	 0.9656068993	 0.122896
H	-0.3975610267	 0.8336786154	-2.4735993176	 0.248199
H	 0.0006635571	-0.5972707695	-3.2127426298	 0.248905
H	 0.1012012493	-2.6439469409	-2.0910300619	 0.085478
H	-0.0310057368	-2.7185226597	 2.0403717151	 0.107252
H	-0.1530554027	 0.7595614147	 2.3724262079	 0.294858
114.4754	145.9028	235.4403	268.6298	283.3909	320.5697	337.5518	365.5247	486.2975	498.5187	554.332	583.5393	608.7625	676.0237	695.4419	760.9331	828.4399	881.9958	921.3076	942.5083	1051.6234	1082.342	1137.9844	1180.7312	1214.3938	1243.197	1326.4017	1344.5468	1355.8548	1412.644	1472.7053	1489.4462	1506.9453	1530.4379	1613.3721	1634.6532	1662.8823	3013.0158	3068.2524	3099.7786	3129.9349	3171.9161	3552.9468	3645.1215	3833.047
CC1=C(N)C=NC=C1O	Cc1c(N)cncc1O	
InChI=1S/C6H8N2O/c1-4-5(7)2-8-3-6(4)9/h2-3,9H,7H2,1H3	InChI=1S/C6H8N2O/c1-4-5(7)2-8-3-6(4)9/h2-3,9H,7H2,1H3
