19
gdb 40195	3.04013	1.58036	1.27016	0.9016	74.77	-0.2474	0.0715	0.3189	1035.5674	0.160877	-422.994492	-422.987056	-422.986111	-423.026508	29.306	
C	-0.076684355	 1.4943364825	 0.003816421	-0.317354
C	 1.245552442	 0.7663242663	 0.0195495527	-0.317179
C	-0.0512742143	-0.0045965342	-0.0187901772	 0.363454
C	-0.5048464485	-0.8659674948	 1.1512208584	-0.173597
O	-0.332057365	-2.2161993922	 0.7100996379	-0.266303
C	-0.5592350251	-2.2598411119	-0.6825593982	 0.06913
C	-2.0263090848	-2.1480724012	-1.1519811634	-0.107794
O	-1.8333178444	-0.7756930433	-1.5631654648	-0.298101
C	-0.4218709119	-0.8168246735	-1.2332420418	-0.011733
H	-0.4036810423	 1.9794076862	 0.9181981637	 0.116068
H	-0.3740619617	 2.0122477401	-0.901419307	 0.124861
H	 1.8547230786	 0.7902068216	-0.8783565365	 0.115081
H	 1.8138161537	 0.7534157984	 0.9437512378	 0.115196
H	 0.0896236008	-0.7312787387	 2.0590183919	 0.110364
H	-1.5605546638	-0.6707596945	 1.3932320637	 0.103072
H	 0.036391387	-3.0705298588	-1.1036878069	 0.092167
H	-2.294644092	-2.7932179775	-1.9980329182	 0.100367
H	-2.7778534456	-2.2513942481	-0.360685269	 0.108447
H	 0.2031966825	-0.6266880164	-2.1113862938	 0.073855
86.1643	157.3138	206.6643	281.1877	321.8595	406.69	457.557	543.7175	653.9508	777.1056	801.5958	812.7772	859.5639	887.2531	917.5821	937.0455	960.6952	984.4512	988.893	1009.363	1018.0204	1057.5986	1064.5388	1077.3428	1095.0647	1126.4205	1167.2825	1186.1154	1220.7751	1227.1504	1243.8968	1290.7034	1303.4646	1329.9507	1348.8516	1372.6968	1415.9381	1471.215	1505.9943	1510.1014	1519.7914	2989.6819	3015.8163	3059.6462	3067.0882	3088.4435	3109.0086	3126.3465	3131.4329	3205.2654	3219.6071
C1CC11COC2COC12	C1CC21CO[C@H]1CO[C@@H]21	
InChI=1S/C7H10O2/c1-2-7(1)4-9-5-3-8-6(5)7/h5-6H,1-4H2	InChI=1S/C7H10O2/c1-2-7(1)4-9-5-3-8-6(5)7/h5-6H,1-4H2/t5-,6+/m0/s1
