19
gdb 92629	2.61928	1.61948	1.55335	1.2958	70.36	-0.2408	0.0839	0.3247	980.178	0.160888	-460.175337	-460.167671	-460.166727	-460.207765	29.594	
C	 0.7203188211	 1.2907990448	-0.223733781	-0.412914
C	-0.0046446105	-0.0211561942	 0.0431208668	 0.215593
O	 0.121431984	-0.9305688318	-1.0388580191	-0.271466
C	 1.0552090164	-1.9432073681	-0.7109289759	 0.06509
C	 2.4463058687	-1.7255245812	-1.3276886866	-0.111104
O	 3.1774104124	-0.9564982167	-0.3801564804	-0.241236
C	 2.8146379285	-1.4773996631	 0.8929458513	-0.111104
C	 1.3081665059	-1.7727955121	 0.8141305917	 0.065091
O	 0.4923128438	-0.6807122942	 1.1970817556	-0.271467
H	 1.7857859274	 1.1057327373	-0.3797771779	 0.142916
H	 0.302110527	 1.769889695	-1.1139668096	 0.118836
H	 0.5911201745	 1.9646012981	 0.6284628797	 0.118836
H	-1.0771350952	 0.1561752622	 0.201200571	 0.086848
H	 0.6250624563	-2.9085352124	-0.9921441897	 0.088259
H	 2.9388324015	-2.6980000055	-1.4961339687	 0.090214
H	 2.4024856013	-1.1751374317	-2.2691292497	 0.124567
H	 3.3694911894	-2.4078893876	 1.100290484	 0.090214
H	 3.0538240077	-0.7363734007	 1.657685417	 0.124567
H	 1.0248776898	-2.6391796482	 1.4183591515	 0.088259
79.5737	101.7861	232.4383	264.5407	351.2577	389.5427	394.2862	474.4606	587.2574	726.577	745.5719	805.8818	812.9454	864.685	897.0072	913.167	930.9958	952.1254	1001.8667	1039.9613	1080.9288	1099.0135	1107.6277	1135.1737	1138.4556	1188.5045	1221.1772	1240.5486	1287.6942	1289.956	1342.4008	1357.6641	1363.1272	1387.7753	1389.4109	1401.4917	1417.1235	1486.0318	1486.4692	1501.5418	1501.9195	2964.5597	2970.6438	3014.761	3043.7643	3064.3623	3077.6597	3117.7643	3119.0981	3120.317	3138.7194
CC1OC2COCC2O1	C[C@H]1O[C@H]2COC[C@H]2O1	
InChI=1S/C6H10O3/c1-4-8-5-2-7-3-6(5)9-4/h4-6H,2-3H2,1H3	InChI=1S/C6H10O3/c1-4-8-5-2-7-3-6(5)9-4/h4-6H,2-3H2,1H3/t4-,5-,6+
