21
gdb 58937	3.33215	1.30457	1.21136	1.5381	81.59	-0.2255	0.0833	0.3088	1149.3557	0.181793	-387.033177	-387.024628	-387.023684	-387.06627	33.418	
C	-0.0407693442	 1.425628147	-0.2336589447	-0.386827
C	-0.050063014	-0.0792744079	 0.0828032212	-0.106105
C	 0.5894030432	-0.3733791857	 1.4490377231	-0.386924
C	-1.4472076923	-0.6177543241	 0.0149131542	 0.535375
O	-2.4198375345	-0.1444539768	 0.9605072938	-0.340842
C	-3.2661683708	-1.2415642086	 0.5178433385	 0.068138
C	-3.6922727312	-0.8170235241	-0.9112356389	-0.234973
C	-2.2175554237	-1.0168629936	-1.2614911892	-0.170343
C	-2.0246217395	-1.9894153907	-0.0940582966	-0.228313
H	 0.9767037513	 1.8262549278	-0.1895606171	 0.106821
H	-0.4440231648	 1.6226006654	-1.2315927534	 0.1137
H	-0.6541539632	 1.971622054	 0.4897749623	 0.133939
H	 0.5247708528	-0.6036186473	-0.6931751526	 0.077829
H	 0.0094702267	 0.0941966729	 2.2500839309	 0.133269
H	 0.6244858006	-1.4493135232	 1.6457608266	 0.110701
H	 1.6114035086	 0.0159949232	 1.4917336891	 0.105769
H	-3.9646624382	-1.5869744733	 1.2771276983	 0.084402
H	-4.3229056337	-1.5721229113	-1.3880085491	 0.102201
H	-4.1376556378	 0.1781195301	-1.0088787916	 0.099028
H	-1.7472526355	-1.0471739722	-2.2365267944	 0.087683
H	-1.6208777897	-2.9900437818	-0.0231331204	 0.095472
69.1947	138.2267	175.7564	205.8831	249.9841	306.19	359.8628	450.0561	461.7295	572.567	627.9931	782.6166	791.2996	795.7864	821.2728	862.3715	902.4069	923.0419	933.5576	938.3542	954.8326	970.2223	985.5147	1004.0114	1064.8639	1073.9322	1094.2182	1131.1269	1151.0178	1161.5056	1184.8439	1190.0263	1249.3626	1269.4794	1299.8423	1329.7632	1340.0434	1395.6863	1415.7866	1452.5028	1485.5803	1486.2156	1491.3278	1499.9236	1516.3679	3013.2678	3035.4681	3039.2572	3047.0227	3105.3876	3108.5787	3109.651	3111.6593	3117.466	3143.3712	3192.5231	3207.9988
CC(C)C12OC3CC1C23	CC(C)[C@@]12O[C@H]3C[C@@H]1[C@@H]23	
InChI=1S/C8H12O/c1-4(2)8-5-3-6(9-8)7(5)8/h4-7H,3H2,1-2H3	InChI=1S/C8H12O/c1-4(2)8-5-3-6(9-8)7(5)8/h4-7H,3H2,1-2H3/t5-,6+,7-,8-/m1/s1
