19
gdb 81808	2.09174	1.7833	1.29294	2.1079	75.76	-0.2415	0.0693	0.3108	1058.0983	0.158113	-422.971743	-422.963163	-422.962218	-423.00439	33.9	
O	 0.1450467047	 1.3445087765	-0.2063099345	-0.431725
C	 0.0874571174	-0.05042056	-0.0222885765	 0.076067
C	 0.3321124966	-0.5490123783	 1.4134554806	-0.169846
C	 0.1373179824	-2.0521696822	 1.4776707974	-0.354851
C	-1.0672068372	-1.159051958	 1.4630802669	 0.326756
O	-1.9954597548	-1.1120233874	 2.4884942152	-0.460725
C	-1.3362973632	-0.6607757477	 0.0531713645	 0.259582
C	-2.5779511008	 0.0614829962	-0.370575342	-0.334497
C	-2.2028961628	-1.2550477567	-1.0165587608	-0.348634
H	-0.4853301498	 1.7432896587	 0.4049079463	 0.280933
H	 0.7504419927	-0.4763182904	-0.7824586286	 0.086022
H	 0.8898871986	-0.0093162749	 2.1689186135	 0.098032
H	 0.3821997178	-2.6831789709	 0.6255103545	 0.108391
H	 0.3695412307	-2.4852046283	 2.4464935187	 0.112976
H	-2.3396043411	-2.0001207413	 2.6299478878	 0.289006
H	-3.4079376855	 0.0708044468	 0.3281596178	 0.121131
H	-2.4587372823	 0.9675849945	-0.9559925973	 0.12016
H	-1.8401334465	-1.2319527729	-2.0392659735	 0.116169
H	-2.7946755869	-2.1323753738	-0.7726371199	 0.105052
104.7086	198.0667	210.8974	222.5113	247.4404	299.2354	349.9955	396.5234	453.4043	494.1881	520.2416	591.8157	673.798	789.6817	823.5691	833.6538	850.8898	907.2592	951.7145	964.4901	984.5067	1001.0823	1012.8083	1041.4144	1050.1172	1075.0318	1079.8807	1107.1944	1178.3406	1193.0052	1228.4122	1234.1241	1264.4	1283.7254	1310.2968	1374.0694	1405.6232	1435.2738	1459.8141	1491.5251	1500.9669	3058.5373	3098.4437	3119.9321	3127.1482	3189.1138	3197.0427	3200.1822	3218.5694	3793.3325	3805.476
OC1C2CC2(O)C11CC1	O[C@H]1[C@@H]2C[C@]2(O)C21CC2	
InChI=1S/C7H10O2/c8-5-4-3-7(4,9)6(5)1-2-6/h4-5,8-9H,1-3H2	InChI=1S/C7H10O2/c8-5-4-3-7(4,9)6(5)1-2-6/h4-5,8-9H,1-3H2/t4-,5-,7+/m0/s1
