19
gdb 87920	4.07339	1.04173	0.94462	4.6237	75.62	-0.2595	0.0167	0.2762	1281.0389	0.159544	-423.065065	-423.056647	-423.055703	-423.098314	31.854	
C	-0.0089909647	 1.5225865541	-0.155343002	-0.412629
C	 0.0527618314	 0.0146587495	-0.0287949919	-0.055955
C	 1.375291951	-0.7167638369	-0.0883233119	-0.337162
C	 0.5961031885	-0.6548934537	 1.203859727	 0.317092
C	 1.128441777	 0.1237198584	 2.4019898267	-0.144436
O	 1.3801146753	-0.8587623364	 3.4205520764	-0.219723
C	 0.7446601385	-2.0329947183	 3.1477059533	 0.435962
O	 0.8001794669	-2.9742305337	 3.8826832133	-0.334534
C	-0.0032151368	-1.901505432	 1.8236417136	-0.454156
H	 0.860158094	 2.0031463907	 0.3051421959	 0.117944
H	-0.0286004004	 1.8228331935	-1.2082114898	 0.125975
H	-0.9066884448	 1.9300305718	 0.3225541616	 0.122833
H	-0.7834229708	-0.5021972136	-0.4948789921	 0.090107
H	 1.4242832806	-1.6651439848	-0.6136523495	 0.117593
H	 2.2786703167	-0.1182035744	-0.1634766413	 0.11481
H	 2.0659824625	 0.6493603693	 2.2069304277	 0.123548
H	 0.3975466559	 0.8440429619	 2.791758924	 0.114981
H	-1.0712780945	-1.7875598227	 2.0503982475	 0.137174
H	 0.1129396636	-2.8119926127	 1.2333117016	 0.140576
66.5135	143.6348	177.3018	205.0043	221.9492	332.0942	381.4624	424.8732	515.7697	528.1126	566.1306	690.1011	758.3249	823.576	853.7663	877.6286	921.3759	929.6231	975.1835	1024.5655	1041.3012	1063.4575	1075.4965	1098.5571	1133.2585	1162.6037	1185.4281	1187.4668	1230.9237	1260.7659	1275.9086	1339.7161	1393.4889	1414.5687	1435.655	1465.3187	1490.4755	1492.3861	1507.7165	1523.14	1886.6104	3021.0787	3031.3935	3034.3992	3092.8507	3095.8457	3100.5345	3117.4515	3119.5768	3131.2614	3206.0593
CC1CC11COC(=O)C1	C[C@H]1C[C@]21COC(=O)C2	
InChI=1S/C7H10O2/c1-5-2-7(5)3-6(8)9-4-7/h5H,2-4H2,1H3	InChI=1S/C7H10O2/c1-5-2-7(5)3-6(8)9-4-7/h5H,2-4H2,1H3/t5-,7+/m0/s1
