18
gdb 117068	4.57354	0.72111	0.63016	2.3846	71.16	-0.2409	-0.0614	0.1795	1735.4699	0.145005	-476.265038	-476.254386	-476.253442	-476.302228	35.713	
C	-0.0560787653	 1.443460401	 0.0216729736	-0.334668
N	-0.0237765188	 0.0058211743	-0.1378072283	-0.303201
C	 0.6928048103	-0.6170624913	-1.0970180364	 0.327441
O	 1.3930260874	-0.0823349397	-1.940059182	-0.370914
C	 0.5395688906	-2.1552132568	-1.0296956145	 0.284701
O	-0.1632305277	-2.6623431316	-0.1810888281	-0.321562
C	 1.3060830204	-2.9311102563	-2.0648276328	-0.276032
C	 1.1166313391	-4.4352409165	-1.9487236824	-0.082043
O	 1.8897392801	-5.0321669387	-2.9775323972	-0.421602
H	 0.5819179644	 1.8758914854	-0.7506197315	 0.169804
H	-1.0735105104	 1.8325038937	-0.0949053977	 0.133258
H	 0.3208049771	 1.7417072403	 1.0061134644	 0.133257
H	-0.5484169456	-0.600142897	 0.4768506171	 0.265477
H	 1.0092860523	-2.5723378323	-3.0581644968	 0.153951
H	 2.3664106712	-2.6605868069	-1.9870850705	 0.153951
H	 1.4346660473	-4.7726522135	-0.9512802688	 0.099935
H	 0.049151925	-4.6825416959	-2.044719431	 0.099937
H	 1.7809513925	-5.9856259685	-2.9182759072	 0.288311
49.4951	60.1326	91.7039	107.1364	113.3456	142.5778	236.3192	267.7291	295.101	347.5628	402.3125	432.3781	528.1055	624.4211	696.5191	748.4724	817.9662	860.3392	964.8325	1040.4432	1063.8349	1080.7302	1144.2142	1152.3254	1182.0013	1200.1273	1241.1616	1265.8589	1292.4821	1362.344	1431.7722	1443.7001	1470.0431	1494.133	1497.5756	1523.294	1570.2458	1782.9169	1793.9123	2988.1919	3015.8059	3029.9931	3048.0348	3075.7894	3083.5019	3148.0526	3608.5678	3832.3541
CNC(=O)C(=O)CCO	CNC(=O)C(=O)CCO	
InChI=1S/C5H9NO3/c1-6-5(9)4(8)2-3-7/h7H,2-3H2,1H3,(H,6,9)	InChI=1S/C5H9NO3/c1-6-5(9)4(8)2-3-7/h7H,2-3H2,1H3,(H,6,9)
