20
gdb 87288	2.64201	1.25048	1.06744	1.6887	81.48	-0.231	-0.0377	0.1934	1232.9893	0.169185	-403.107427	-403.098199	-403.097255	-403.141365	34.558	
C	-0.1019006264	 1.4633699641	-0.0179723788	-0.331841
N	 0.0900320403	 0.0218086525	 0.1164643378	-0.114975
C	 1.3876969435	-0.533867858	-0.1698216047	-0.268739
C	 0.8670204933	-0.5563279628	 1.2462698235	 0.22233
C	 1.5616424337	 0.364668695	 2.1970711018	 0.077018
O	 2.2011071808	 1.3426484568	 1.8796309413	-0.269764
C	 0.273664638	-1.8274796718	 1.7869843694	-0.03798
C	 0.9268431942	-2.6262784713	 2.8890819655	-0.282942
C	-0.3860727561	-1.927778564	 3.1416295494	-0.281509
H	 0.7731719813	 2.0632118859	 0.2554293425	 0.144992
H	-0.3587536421	 1.6624848119	-1.063152793	 0.125332
H	-0.9500298081	 1.7678712291	 0.6030179458	 0.122819
H	 1.4007346076	-1.4701935052	-0.7235126406	 0.117164
H	 2.2116545089	 0.1492055738	-0.368350487	 0.132564
H	 1.4464168192	 0.1066072908	 3.270645887	 0.081703
H	-0.20168703	-2.4041074638	 1.0002033003	 0.094134
H	 0.9331915371	-3.7070205383	 2.8010627474	 0.118059
H	 1.8166423558	-2.2217441978	 3.3609234603	 0.116102
H	-0.3879154234	-1.0590021862	 3.7911427406	 0.116856
H	-1.2847241479	-2.529599941	 3.2186730316	 0.118677
68.91	130.1395	178.2894	193.5432	205.621	243.0224	288.1441	349.6361	374.3042	442.4847	501.5305	568.1234	730.539	741.472	786.1581	831.8036	867.3449	915.6077	930.0985	952.0428	1034.8347	1057.9439	1061.4273	1063.5693	1077.771	1118.0181	1131.8902	1138.77	1162.4647	1195.6677	1210.4228	1229.5294	1306.302	1324.3137	1421.475	1443.4689	1452.8894	1473.4793	1485.4858	1495.1255	1510.8613	1511.8082	1791.5455	2906.1313	3025.9309	3089.9077	3098.0416	3105.7265	3130.8016	3136.749	3159.6047	3183.1071	3207.6014	3222.1698
CN1CC1(C=O)C1CC1	CN1C[C@]1(C=O)C1CC1	
InChI=1S/C7H11NO/c1-8-4-7(8,5-9)6-2-3-6/h5-6H,2-4H2,1H3	InChI=1S/C7H11NO/c1-8-4-7(8,5-9)6-2-3-6/h5-6H,2-4H2,1H3/t7-,8?/m0/s1
