19
gdb 107893	2.35342	1.8897	1.2261	2.6976	75.42	-0.2418	0.0569	0.2987	1035.3347	0.160257	-422.945406	-422.937733	-422.936789	-422.97733	30.971	
O	 0.6139524973	 0.2084300244	 0.8193595802	-0.404552
C	-0.3230627581	 0.4724784381	-0.2316345997	-0.227233
C	-1.5793824829	-0.360071393	-0.1594051629	 0.321971
C	-2.648974622	-0.4786043685	-1.2674621362	-0.318712
C	-3.1597484314	-1.3947793289	-0.1432644177	-0.042413
C	-1.718617916	-1.8891695063	 0.2269222655	-0.160193
C	-1.9677185886	-1.577821122	 1.7261481639	 0.153498
O	-0.9184716344	-1.3329235688	 2.6105564489	-0.460583
C	-2.6733964399	-0.4222653479	 0.9833903809	-0.13983
H	 1.0398644904	-0.6340377885	 0.6257400122	 0.296843
H	-0.5700268494	 1.536378323	-0.1469708416	 0.123464
H	 0.1569530223	 0.3276538094	-1.2101659783	 0.104227
H	-3.2398653708	 0.4187907679	-1.4801177055	 0.093446
H	-2.3375775294	-0.9626625748	-2.1997177872	 0.090345
H	-4.0640163492	-2.0022700121	-0.1059274456	 0.07492
H	-1.1914528356	-2.7240445864	-0.2418198889	 0.064051
H	-2.6430752708	-2.2821432705	 2.2239515361	 0.077362
H	-0.3580628498	-0.640696986	 2.22316455	 0.283948
H	-3.2303963617	 0.429071631	 1.3807700957	 0.069441
96.9113	219.723	246.4511	255.6949	330.2457	350.6226	429.8499	458.916	552.5105	656.6489	702.6431	744.0975	789.1194	842.1124	871.4973	884.3296	909.3261	931.2293	964.0729	1010.0882	1029.465	1054.7866	1062.2365	1082.2464	1101.3667	1119.1284	1137.8373	1150.1131	1173.5984	1214.5173	1216.4326	1247.518	1262.3725	1271.5786	1336.7452	1351.8543	1387.7298	1403.5596	1488.2167	1493.373	1513.6223	3003.4824	3029.7033	3055.4715	3071.7998	3081.3924	3085.8365	3092.3148	3115.3297	3653.8193	3811.0427
OCC12CC3C1C(O)C23	OC[C@@]12C[C@H]3[C@@H]1[C@@H](O)[C@@H]23	
InChI=1S/C7H10O2/c8-2-7-1-3-4(7)6(9)5(3)7/h3-6,8-9H,1-2H2	InChI=1S/C7H10O2/c8-2-7-1-3-4(7)6(9)5(3)7/h3-6,8-9H,1-2H2/t3-,4+,5-,6+,7-
