18
gdb 93745	2.01333	1.64518	1.00244	3.7052	81.67	-0.2575	-0.0399	0.2176	1196.2623	0.147499	-401.991223	-401.982091	-401.981147	-402.025302	33.196	
C	-0.0133142206	 1.4905527108	 0.0794142977	-0.510056
C	 0.0509705118	 0.0031638853	-0.0121798084	 0.232767
C	-0.0704545206	-0.7512173236	-1.1199333671	 0.10273
C	-0.2716518368	-0.2679644632	-2.4391083808	 0.18307
N	-0.4283360615	 0.079844138	-3.5344070255	-0.35044
C	 0.1465326291	-2.2354337848	-0.8452732338	 0.008419
O	 1.4426324361	-2.6646636342	-1.2513084963	-0.430632
C	 0.0648545239	-2.303896051	 0.691855498	-0.228933
C	 0.3150041716	-0.8646705371	 1.1948474887	-0.296638
H	 0.9178895568	 1.8880635704	 0.5018065187	 0.142662
H	-0.1785537712	 1.9544634936	-0.8953667454	 0.152723
H	-0.8186328186	 1.801306326	 0.7562125996	 0.140119
H	-0.6205029193	-2.8562109729	-1.3276015983	 0.080255
H	 1.5027325532	-2.5779150182	-2.2091302385	 0.291946
H	-0.9347357107	-2.6335644806	 0.9874325519	 0.112786
H	 0.785262207	-3.0299510647	 1.07244423	 0.124299
H	 1.3480179232	-0.7131010037	 1.5360703736	 0.130008
H	-0.3276420933	-0.5934095599	 2.0401709357	 0.114914
73.9539	127.2037	141.7326	153.3307	178.2002	290.9001	304.8971	393.9506	409.5888	448.2642	522.7088	576.1007	627.9985	676.3246	783.0244	824.0315	908.9452	929.7451	972.3878	1018.9479	1024.1447	1070.3968	1096.4117	1165.1633	1187.2208	1226.4923	1241.6889	1258.4832	1328.3212	1340.3485	1357.9148	1409.6167	1416.4006	1469.2282	1477.4592	1479.2392	1488.4623	1693.5967	2324.9077	3007.8307	3022.0055	3027.0418	3057.822	3074.3035	3075.5324	3127.4794	3128.6366	3806.1816
CC1=C(C#N)C(O)CC1	CC1=C(C#N)[C@@H](O)CC1	
InChI=1S/C7H9NO/c1-5-2-3-7(9)6(5)4-8/h7,9H,2-3H2,1H3	InChI=1S/C7H9NO/c1-5-2-3-7(9)6(5)4-8/h7,9H,2-3H2,1H3/t7-/m0/s1
