20
gdb 112739	2.29915	1.32892	1.0176	3.371	75.13	-0.249	0.0585	0.3075	1243.3794	0.170104	-440.235097	-440.225842	-440.224898	-440.269455	34.42	
C	 0.4090214503	 1.3971718624	-0.269835003	-0.405025
C	 0.1275178792	-0.0498605657	 0.0826167155	 0.089364
O	 0.8998916033	-0.9855809757	-0.7162953759	-0.338643
C	 1.4469539459	-1.6473200137	 0.4617696764	 0.065703
C	 2.964794784	-1.635511375	 0.3995816574	-0.07064
O	 3.4137708968	-2.2630531492	-0.7853031775	-0.42063
C	 0.726727773	-0.6476678267	 1.3595593347	 0.241201
C	 1.148795942	 0.0325803958	 2.6019312272	-0.305712
N	 0.0624720408	-0.9707160678	 2.6089634307	-0.363561
H	 1.470026595	 1.6313726201	-0.1468935146	 0.124683
H	 0.1277802662	 1.5934134415	-1.3092520821	 0.131934
H	-0.1755567259	 2.0692770327	 0.3684941184	 0.115782
H	-0.9469054202	-0.2655813493	-0.0206540527	 0.080721
H	 1.0705547746	-2.6747362739	 0.5411767199	 0.092785
H	 3.3250493977	-0.5962034562	 0.4688768714	 0.080955
H	 3.3851234771	-2.1956667739	 1.2422805375	 0.110893
H	 2.9294898461	-1.8411404564	-1.5058328626	 0.29344
H	 2.0539695921	-0.2728684848	 3.1197321951	 0.127065
H	 0.8954560501	 1.0835402271	 2.7192619983	 0.116585
H	-0.8451124782	-0.5125887412	 2.6598894759	 0.233099
56.6663	106.3738	141.166	206.0069	217.7869	251.0343	286.0982	373.1847	440.8739	462.119	482.5254	528.1946	594.0681	769.5986	846.9214	860.5602	902.7319	929.1757	942.8561	976.5518	1025.0883	1034.0847	1077.2537	1089.5419	1095.4293	1116.0306	1129.9332	1150.148	1213.1422	1239.7179	1258.8825	1291.2976	1302.4787	1336.2014	1375.5106	1396.3742	1407.8259	1431.9156	1439.8306	1485.3177	1490.5779	1498.9373	1521.1102	2972.0849	2985.003	3034.0848	3035.6929	3070.9842	3103.2185	3105.3195	3119.7884	3188.7095	3486.8449	3784.1171
CC1OC(CO)C11CN1	C[C@H]1O[C@@H](CO)[C@]21CN2	
InChI=1S/C6H11NO2/c1-4-6(3-7-6)5(2-8)9-4/h4-5,7-8H,2-3H2,1H3	InChI=1S/C6H11NO2/c1-4-6(3-7-6)5(2-8)9-4/h4-5,7-8H,2-3H2,1H3/t4-,5+,6-/m1/s1
