20
gdb 64425	2.42428	1.69964	1.3219	2.1343	74.03	-0.2465	0.0663	0.3127	1044.3431	0.17216	-440.265637	-440.25736	-440.256416	-440.297899	33.129	
C	-0.0702301717	 1.5752194417	 0.0293546729	-0.425427
C	 0.0393902157	 0.0574213631	-0.0131471131	 0.374696
O	-1.2878589459	-0.4687834488	-0.0282718051	-0.474853
C	 0.7751878667	-0.4315020903	-1.2697627509	-0.140648
O	 0.8254688565	-1.8545826006	-1.2531780074	-0.268374
C	 1.7520694864	-2.3490694581	-0.2930014009	-0.085513
C	 1.5936446999	-1.709951982	 1.0798040077	-0.063201
N	 2.2107749065	-0.378617168	 1.2519929946	-0.344126
C	 0.7462124085	-0.494830994	 1.2193361442	-0.068761
H	 0.9218008988	 2.027255855	 0.1125022708	 0.127592
H	-0.560665302	 1.9497852095	-0.8741715624	 0.119244
H	-0.6700536842	 1.8843437638	 0.8907208532	 0.12108
H	-1.1973921649	-1.3904328551	-0.3049531224	 0.279874
H	 0.2004955442	-0.1515735156	-2.1567353233	 0.110271
H	 1.7837803379	-0.0026333074	-1.3336070588	 0.111876
H	 1.5655488872	-3.4253377954	-0.2311602477	 0.109026
H	 2.7812535144	-2.1950208622	-0.6514458746	 0.104993
H	 1.6413568968	-2.3941205099	 1.9234364524	 0.091952
H	 2.5357047538	-0.259438151	 2.207577916	 0.233521
H	 0.1895833054	-0.3592645748	 2.1442406949	 0.086778
117.5093	193.3782	215.0302	261.5437	310.4849	324.1647	393.4832	421.2889	470.8172	488.6846	509.6443	549.1473	692.5931	784.1078	811.0571	859.8869	901.743	921.5947	945.4495	955.3455	987.6392	1017.1861	1039.6691	1093.1117	1103.3472	1120.5735	1158.9588	1200.8408	1203.8759	1255.1893	1264.9508	1288.0903	1327.3281	1349.1152	1375.9099	1405.4772	1412.0687	1416.6814	1457.8598	1478.349	1487.1572	1492.3912	1496.4838	2991.1883	3022.8713	3041.635	3082.6454	3100.3138	3112.0458	3124.5494	3128.7569	3139.9589	3506.5415	3759.8539
CC1(O)COCC2NC12	C[C@@]1(O)COC[C@H]2N[C@@H]12	
InChI=1S/C6H11NO2/c1-6(8)3-9-2-4-5(6)7-4/h4-5,7-8H,2-3H2,1H3	InChI=1S/C6H11NO2/c1-6(8)3-9-2-4-5(6)7-4/h4-5,7-8H,2-3H2,1H3/t4-,5-,6-/m1/s1
