18
gdb 57942	3.39434	0.94882	0.7847	1.7091	72.62	-0.24	-0.0146	0.2254	1440.9813	0.147027	-472.45617	-472.446317	-472.445373	-472.491482	36.031	
C	 0.9948317142	 1.2724732859	-0.3331945342	-0.395728
C	-0.105212223	 0.2799798192	 0.0756183927	 0.042202
O	-0.4568975992	-0.5403786956	-1.0053570756	-0.434599
C	 0.3487427491	-0.6096479115	 1.2437608586	 0.42108
O	 0.531633988	-1.8080941317	 1.0533761585	-0.4096
N	 0.5229895196	 0.019666279	 2.4349240145	-0.341501
C	 0.9714034727	-0.496621562	 3.6752951407	 0.431083
N	 1.0902405302	-1.8552419322	 3.7212182468	-0.552277
N	 1.1601983321	 0.3769000964	 4.5886302321	-0.559161
H	 1.9084085926	 0.7344698758	-0.6025604526	 0.132186
H	 0.6552907286	 1.8327956696	-1.2075262733	 0.140141
H	 1.2284802315	 1.9855626735	 0.4640595025	 0.113417
H	-0.9916706457	 0.84417528	 0.4066071919	 0.095917
H	-0.1823718185	-1.4356279666	-0.7485500898	 0.294859
H	 0.3656161815	 1.015805468	 2.4855490302	 0.272798
H	 1.0626582214	-2.3597942003	 2.844344799	 0.283626
H	 1.6018068919	-2.2470112065	 4.492556766	 0.254729
H	 1.4597087829	-0.0557537711	 5.459774562	 0.210825
43.492	86.5311	102.939	176.5202	227.5126	264.5506	346.0514	363.1591	378.3876	411.9618	443.3955	460.5725	545.8577	578.1757	632.0942	694.7127	728.3342	761.2594	796.8888	901.7588	935.0941	961.5246	1052.712	1099.9384	1126.081	1136.4204	1173.9287	1231.7184	1286.5399	1363.041	1403.2876	1431.5642	1447.1205	1482.6972	1495.1223	1525.43	1622.1307	1744.1792	1753.4034	2980.2748	3041.4033	3115.5468	3130.6281	3512.8342	3529.865	3621.8095	3681.3951	3707.5306
CC(O)C(=O)NC(N)=N	C[C@@H](O)C(=O)NC(=N)N	
InChI=1S/C4H9N3O2/c1-2(8)3(9)7-4(5)6/h2,8H,1H3,(H4,5,6,7,9)	InChI=1S/C4H9N3O2/c1-2(8)3(9)7-4(5)6/h2,8H,1H3,(H4,5,6,7,9)/t2-/m1/s1
