17
gdb 97536	2.59281	0.81955	0.7144	1.219	79.71	-0.2624	0.0073	0.2698	1620.3063	0.131172	-421.744538	-421.733732	-421.732788	-421.781512	38.013	
C	-0.1596153666	 1.5498526031	-0.1338035751	-0.387973
C	 0.0273428705	 0.0267242644	-0.0133318436	-0.038815
O	 0.7460291263	-0.171331718	 1.2078851078	-0.417962
C	-1.2815014205	-0.6521706062	 0.0444898314	 0.3494
C	-2.3424350909	-1.2111881381	 0.1189359941	-0.487198
C	 0.791088743	-0.4989527615	-1.1602710528	 0.103945
C	 1.4347889124	-0.9196107843	-2.087749739	 0.018848
C	 2.1883000372	-1.4852874961	-3.2070349149	-0.192344
O	 1.4097981808	-2.3229299246	-4.0482590349	-0.399708
H	 0.8225260123	 2.026590037	-0.1597802114	 0.135169
H	-0.7078093134	 1.7948118962	-1.0448386107	 0.135925
H	-0.7146100897	 1.9104310191	 0.7348068361	 0.136238
H	 0.8743171585	-1.1204073876	 1.3181852943	 0.286487
H	-3.281834712	-1.7032108964	 0.1811952619	 0.20368
H	 2.5644764191	-0.6824221674	-3.850658829	 0.143905
H	 3.0710686403	-2.0151850562	-2.8140274849	 0.120793
H	 0.9628885328	-2.9639612934	-3.4855796694	 0.289609
25.3546	65.5637	109.2808	164.0027	175.5465	219.1408	249.3228	272.2268	315.3134	333.7683	379.1568	446.6654	482.4615	517.5646	595.9842	610.2673	641.175	665.8016	669.354	870.4545	937.4223	984.3066	1014.9254	1050.4128	1085.3242	1158.4246	1215.5	1225.7042	1356.968	1359.1064	1399.0528	1418.6189	1478.9463	1485.4265	1491.3374	2234.097	2355.853	2975.2202	3059.4599	3064.3512	3144.6404	3151.9476	3499.8872	3805.56	3816.9275
CC(O)(C#C)C#CCO	C[C@@](O)(C#C)C#CCO	
InChI=1S/C7H8O2/c1-3-7(2,9)5-4-6-8/h1,8-9H,6H2,2H3	InChI=1S/C7H8O2/c1-3-7(2,9)5-4-6-8/h1,8-9H,6H2,2H3/t7-/m1/s1
