22
gdb 91916	2.34371	1.59304	1.07101	2.3735	82.51	-0.239	0.0707	0.3096	1205.2431	0.19521	-404.342218	-404.333451	-404.332506	-404.375254	34.469	
C	 0.052129347	 1.5282675238	 0.0826372609	-0.403628
C	 0.0285753006	 0.0091784225	 0.003640717	 0.146805
C	 0.6999743865	-0.533064766	-1.2682756132	-0.206653
C	 0.9549639303	-2.0292669294	-1.165514707	-0.054239
N	 2.1736350662	-2.4285738981	-0.4322869437	-0.324664
C	 0.8566051459	-2.6956966117	 0.1608851039	-0.046093
C	 0.492916698	-1.8715453363	 1.3857803924	 0.139834
C	 1.3210517779	-2.2509079912	 2.6061328763	-0.404319
O	 0.6862301458	-0.483510102	 1.164104903	-0.270767
H	 1.0854464675	 1.8873432889	 0.1131605582	 0.126949
H	-0.4427750282	 1.9680623436	-0.788872081	 0.110203
H	-0.4576469554	 1.8740600237	 0.9858349965	 0.119025
H	-1.0198905199	-0.3400860632	 0.018874778	 0.056097
H	 0.0590675802	-0.3204658269	-2.131368544	 0.091807
H	 1.6520349056	-0.0147514471	-1.4271310648	 0.111084
H	 0.6918130487	-2.6215119878	-2.0387983534	 0.081451
H	 2.556195639	-3.282529705	-0.8290833365	 0.227732
H	 0.5046676383	-3.7256500519	 0.1924071925	 0.078805
H	-0.5786222332	-2.0541209339	 1.5916513894	 0.056469
H	 2.3823576425	-2.1131040638	 2.3847978975	 0.140025
H	 1.0518664567	-1.6199557974	 3.4572990282	 0.119189
H	 1.1494376199	-3.2970953708	 2.8787932399	 0.10489
93.4028	164.2855	212.6253	224.7299	235.7893	263.2104	376.9546	380.2207	442.0088	463.1108	475.595	612.2828	693.9502	775.2235	802.4124	847.9097	871.4146	911.004	920.246	947.6598	979.7664	989.9667	1055.11	1086.5152	1109.7007	1125.8945	1135.0225	1151.9026	1168.8739	1195.9106	1223.2277	1256.1631	1264.1039	1322.2213	1348.2269	1358.898	1387.0664	1397.9874	1401.7558	1405.1893	1420.5364	1460.0013	1469.152	1482.3279	1483.8858	1499.3098	1501.7489	2923.8838	2935.1555	3034.3987	3041.9163	3044.0789	3080.2839	3114.3131	3114.7475	3117.0545	3120.6118	3130.6687	3132.7124	3502.8687
CC1CC2NC2C(C)O1	C[C@H]1C[C@H]2N[C@H]2[C@@H](C)O1	
InChI=1S/C7H13NO/c1-4-3-6-7(8-6)5(2)9-4/h4-8H,3H2,1-2H3	InChI=1S/C7H13NO/c1-4-3-6-7(8-6)5(2)9-4/h4-8H,3H2,1-2H3/t4-,5+,6+,7-/m0/s1
