18
gdb 91978	2.23911	1.78404	1.18839	5.2869	74.61	-0.2771	0.0323	0.3094	1066.036	0.148498	-401.956521	-401.948376	-401.947432	-401.989772	30.709	
C	 0.1517783675	 1.5793928146	-0.1138712172	-0.414272
C	 0.0792272747	 0.0585465944	-0.0082019972	 0.0188
C	 0.6221029708	-0.700582278	-1.2499124047	-0.25135
C	 1.1932393272	-2.0004526033	-0.7130442393	 0.039483
O	 2.467531598	-1.8220045784	-0.0800952036	-0.232014
C	 1.3180550969	-1.9312474531	 0.7509303069	 0.028188
C	 0.8016983176	-0.5734447226	 1.2437798849	-0.211553
C	 1.8841461475	 0.2467298665	 1.7908398126	 0.297461
N	 2.7202171595	 0.9072857863	 2.2381821414	-0.335753
H	 1.1867148415	 1.9194527804	-0.214093204	 0.147261
H	-0.4072016624	 1.9246248334	-0.9893863929	 0.117795
H	-0.2753848757	 2.0652909359	 0.7688870115	 0.125326
H	-0.9718540133	-0.2303689122	 0.1067448227	 0.091004
H	-0.1725581346	-0.8756728597	-1.9809793394	 0.108808
H	 1.4153905834	-0.1358709759	-1.7511744507	 0.127968
H	 1.0702980703	-2.9392109823	-1.2468993858	 0.106199
H	 1.2876793749	-2.7926139808	 1.4129138363	 0.110965
H	 0.074146966	-0.7206492651	 2.0494509984	 0.125683
41.104	142.5327	164.4397	249.4202	314.4651	343.5216	405.1804	409.1689	480.3525	606.7465	651.4153	713.512	775.2559	824.8585	866.4241	890.1891	931.9692	949.2806	976.8396	1008.7207	1067.3153	1081.2973	1104.3775	1139.5824	1156.0497	1203.8708	1256.9641	1262.7866	1307.2947	1312.4013	1329.7331	1364.5643	1365.9906	1418.8796	1431.5509	1483.0491	1495.7627	1498.8442	2357.8613	3030.3144	3038.97	3051.0071	3056.2911	3096.9603	3106.9362	3118.1061	3144.3679	3156.6536
CC1CC2OC2C1C#N	C[C@H]1C[C@H]2O[C@H]2[C@H]1C#N	
InChI=1S/C7H9NO/c1-4-2-6-7(9-6)5(4)3-8/h4-7H,2H2,1H3	InChI=1S/C7H9NO/c1-4-2-6-7(9-6)5(4)3-8/h4-7H,2H2,1H3/t4-,5-,6+,7-/m0/s1
