21
gdb 39802	2.79002	1.5821	1.54702	0.1801	86.79	-0.2288	0.0226	0.2514	1012.4951	0.185164	-349.936339	-349.929052	-349.928108	-349.967506	30.887	
C	-0.0366884004	 1.4665490888	 0.006658233	-0.357655
C	 1.3133725933	 0.7667908715	-0.0250518137	-0.352272
C	 0.0514256108	-0.026428075	-0.0007543108	 0.46137
C	-0.5268034001	-0.9657495502	 1.0723988737	-0.114676
C	-1.6376501586	-1.2928695426	 0.0275801894	-0.21571
C	-0.5638471928	-0.9650316371	-1.0604686533	-0.155326
C	 0.3382315948	-2.1762261204	-1.2012083753	-0.052633
C	 0.7914486967	-2.7535962561	-0.087789208	-0.062167
C	 0.4056184346	-2.1793497063	 1.2582146456	-0.251073
H	-0.3303347902	 1.9659972911	 0.9255876825	 0.106903
H	-0.3668029078	 1.9715432454	-0.8963467348	 0.10797
H	 1.8848778534	 0.8007989671	-0.9473714389	 0.109257
H	 1.9228970433	 0.7996128111	 0.8732254501	 0.106686
H	-0.8284298213	-0.5324374946	 2.029991985	 0.057066
H	-2.0581091946	-2.3013853445	 0.0220679215	 0.089528
H	-2.435999296	-0.5475440711	 0.0515946606	 0.097146
H	-0.8862640611	-0.5437105364	-2.0144529463	 0.055708
H	 0.5890017033	-2.5504654748	-2.1890176703	 0.082668
H	 1.4347049428	-3.6285579294	-0.1139073009	 0.083226
H	 1.3064968757	-1.8802556663	 1.813045187	 0.103294
H	-0.0847786757	-2.94616634	 1.8748328739	 0.10069
153.2053	211.9395	241.9644	325.0927	359.5027	462.8891	478.937	534.3145	577.8807	709.0682	732.2119	770.7981	832.3376	851.483	859.7745	903.8441	911.78	936.571	941.5754	968.3805	975.8651	981.0145	1031.3503	1048.5472	1065.913	1076.4752	1091.1195	1098.3435	1132.3926	1169.4487	1182.227	1195.051	1223.7354	1254.6917	1271.0951	1296.0678	1311.4475	1356.1984	1388.5967	1407.2666	1463.8115	1471.5785	1488.3735	1509.5485	1699.2999	2999.5684	3023.7292	3056.5759	3067.6975	3087.7701	3113.0875	3119.7977	3120.699	3157.3538	3182.1145	3190.2424	3205.8687
C1CC11C2CC1C=CC2	C1CC21[C@H]1C[C@@H]2C=CC1	
InChI=1S/C9H12/c1-2-7-6-8(3-1)9(7)4-5-9/h1-2,7-8H,3-6H2	InChI=1S/C9H12/c1-2-7-6-8(3-1)9(7)4-5-9/h1-2,7-8H,3-6H2/t7-,8+/m0/s1
