21
gdb 103237	2.59627	1.49615	1.16659	1.2437	81.68	-0.2056	0.0698	0.2754	1142.2959	0.181254	-387.004141	-386.99532	-386.994376	-387.037613	34.973	
C	-1.5943167627	-0.4736784437	 0.1294338687	-0.373489
C	-0.1597397887	 0.05879433	 0.0566251817	-0.268591
C	 0.6568698248	-0.5975290284	-1.0492743359	 0.391201
O	 0.3034194893	-0.0454007556	-2.3104308352	-0.46762
C	 2.1072111897	-1.0197343448	-1.0521675703	-0.151306
C	 2.6147461644	-1.9115062277	 0.1168070094	-0.070827
C	 1.6074581493	-2.3172029242	 1.1678016009	-0.314332
C	 1.5388137226	-2.944746436	-0.1916699958	-0.058121
C	 1.0021089999	-2.0439449839	-1.3308977167	-0.097861
H	-2.0737556298	-0.4017954956	-0.8509362989	 0.129954
H	-1.6071453611	-1.5254493774	 0.4326415221	 0.122456
H	-2.1936327302	 0.0944175838	 0.8474885039	 0.106164
H	-0.1830899652	 1.1330537897	-0.1761819569	 0.078622
H	 0.3361657353	-0.0101261059	 1.0248843622	 0.109422
H	 0.5996119559	 0.8718705093	-2.3138652352	 0.279205
H	 2.7927766712	-0.5938195711	-1.7752097435	 0.084969
H	 3.6731503373	-2.0790133047	 0.2727531927	 0.089493
H	 2.0380915894	-2.9738566709	 1.9198882636	 0.110832
H	 0.8344228377	-1.6757529917	 1.5648538646	 0.113481
H	 1.6573846558	-4.0112346001	-0.3367765221	 0.088455
H	 0.721410065	-2.4462803213	-2.2954476494	 0.097893
48.3806	119.7328	208.3319	241.2045	292.9994	311.1671	340.5038	373.9945	443.7032	529.1336	589.8843	659.1951	695.7351	718.1999	779.6128	784.1543	836.7814	880.8746	900.1455	921.9967	974.7019	978.9694	1004.0856	1018.5908	1026.7007	1035.76	1058.9624	1079.9522	1085.2388	1103.5909	1143.6452	1191.4962	1238.4532	1254.8126	1270.0698	1280.4533	1305.7196	1352.9091	1366.945	1403.255	1433.6977	1476.2861	1494.318	1504.2323	1516.5735	3006.1773	3038.5922	3103.9516	3106.5482	3122.5647	3134.0846	3173.8073	3182.3604	3189.5918	3201.3491	3237.7033	3789.4983
CCC1(O)C2C3CC3C12	CC[C@@]1(O)[C@H]2[C@H]3C[C@H]3[C@@H]12	
InChI=1S/C8H12O/c1-2-8(9)6-4-3-5(4)7(6)8/h4-7,9H,2-3H2,1H3	InChI=1S/C8H12O/c1-2-8(9)6-4-3-5(4)7(6)8/h4-7,9H,2-3H2,1H3/t4-,5+,6-,7+,8+
