14
gdb 12587	3.33948	2.32398	1.38222	2.6861	67.78	-0.2544	-0.0802	0.1742	838.7417	0.108736	-378.780319	-378.773158	-378.772214	-378.811822	25.925	
C	-0.0540508116	 1.4429063253	 0.0086953641	-0.340614
N	-0.0268348886	-0.0046712499	 0.000424348	-0.122853
C	-1.1542093499	-0.8180878538	 0.0031269956	 0.351894
N	-2.3397209831	-0.3503942896	 0.0129914536	-0.526655
C	-0.6505671	-2.2180318181	-0.007462339	-0.15006
C	 0.6841964853	-2.1960058151	-0.0154650597	-0.196461
C	 1.139267153	-0.7670071037	-0.010943077	 0.399418
O	 2.2697740105	-0.3367553312	-0.0152959494	-0.363198
H	 0.9815490076	 1.7854758547	 0.0012920968	 0.159417
H	-0.5793825326	 1.8240854674	-0.8712924738	 0.14408
H	-0.5633072514	 1.8145786743	 0.902142545	 0.143949
H	-3.0200969535	-1.1099979706	 0.0130993453	 0.228776
H	-1.3128841191	-3.0730818119	-0.0079078395	 0.131555
H	 1.3839159334	-3.0188873277	-0.0240514199	 0.140752
105.1899	147.9098	175.3838	273.3694	305.5994	370.8411	556.6865	616.3788	630.5014	718.2445	740.2241	765.3136	825.2166	879.2926	959.238	960.4862	1045.7507	1084.5233	1134.4268	1160.8727	1242.1421	1309.1017	1336.0559	1429.3088	1481.7578	1486.9199	1515.8636	1637.1657	1722.4932	1824.0118	3049.5501	3111.7535	3155.2216	3227.319	3256.5658	3489.0299
CN1C(=N)C=CC1=O	CN1C(=C[CH]C1=O)[NH]	
InChI=1S/C5H6N2O/c1-7-4(6)2-3-5(7)8/h2-3,6H,1H3	InChI=1S/C5H6N2O/c1-7-4(6)2-3-5(7)8/h2-3,6H,1H3
