17
gdb 70341	2.23619	2.12525	1.39719	1.7062	66.81	-0.2237	0.0571	0.2808	943.6512	0.135002	-458.91093	-458.903249	-458.902305	-458.942413	31.403	
O	-0.0661954382	 1.3687393415	-0.0444634665	-0.469876
C	 0.0602422759	-0.0122702021	-0.0031748797	 0.326709
C	-0.5668407816	-0.7473990416	 1.1422792548	-0.374667
C	 0.9400589458	-0.7923441925	 0.9454885394	 0.017883
O	 1.4979553054	-1.899551301	 0.2725903403	-0.260012
C	 1.1877457376	-1.8341864091	-1.0982120103	 0.060683
C	-0.2319510656	-2.1187432625	-1.567262367	-0.391632
C	 0.25039806	-0.7020497514	-1.3605698445	 0.267838
O	 0.449853003	 0.1708783377	-2.4318127063	-0.46651
H	 0.5224234569	 1.6728938131	-0.7479424542	 0.285618
H	-0.9012492683	-0.1151421396	 1.9589080609	 0.12656
H	-1.1673656322	-1.6352311975	 0.9809826467	 0.11887
H	 1.59973311	-0.3532741747	 1.6851324497	 0.108965
H	 2.0183823346	-2.0875053807	-1.7473704351	 0.114262
H	-0.3094128737	-2.4463489681	-2.5994322685	 0.119631
H	-0.9575253514	-2.555980438	-0.8920349155	 0.123509
H	-0.4176947379	 0.4491035866	-2.7493075144	 0.292167
161.2411	226.7275	254.7957	292.9426	351.0429	382.7801	439.4155	468.8215	476.0515	497.572	599.144	627.4116	699.2557	800.5591	826.3938	883.6793	889.0543	951.5943	957.6172	980.1985	993.561	1002.2257	1026.6072	1060.9856	1079.275	1100.9972	1158.1694	1176.3796	1245.9445	1253.0688	1286.8878	1331.2213	1366.5284	1401.161	1420.3058	1478.8957	1487.5543	3130.7382	3136.0044	3175.9529	3180.8286	3221.7649	3228.1399	3766.0155	3783.5518
OC12CC1OC1CC21O	O[C@]12C[C@H]1O[C@H]1C[C@@]21O	
InChI=1S/C6H8O3/c7-5-1-3(5)9-4-2-6(4,5)8/h3-4,7-8H,1-2H2	InChI=1S/C6H8O3/c7-5-1-3(5)9-4-2-6(4,5)8/h3-4,7-8H,1-2H2/t3-,4+,5-,6+
