22
gdb 13897	2.59333	1.60629	1.20691	1.4519	78.27	-0.2519	0.0739	0.3258	1119.3417	0.198084	-350.197442	-350.187308	-350.186364	-350.23221	36.878	
C	-2.069039214	 0.6285231553	 1.7983687428	-0.396602
C	-1.3281668386	-0.4800571789	 1.0460228228	 0.130141
O	-1.1356997814	-0.1253695017	-0.3264824285	-0.43687
C	-0.01382863	-0.829079799	 1.7156202041	-0.043801
C	 0.1363291484	-1.9346292029	 2.7476715428	-0.028032
C	-1.0192492576	-2.7865280023	 3.2323205362	-0.408028
C	 0.7616952437	-2.0851600996	 1.375852686	-0.035983
C	 0.2818449591	-3.0835859397	 0.3423566086	-0.397925
H	-1.4498677558	 1.5320051673	 1.862712645	 0.102971
H	-2.9957948897	 0.8868841989	 1.2789220427	 0.119525
H	-2.3113543625	 0.3177270736	 2.8198887303	 0.117
H	-1.9750059294	-1.3607731575	 1.0002101523	 0.080588
H	-0.4881975153	 0.5877373164	-0.3516298882	 0.272546
H	 0.5938917661	 0.0569828659	 1.9034289091	 0.065439
H	 0.8419290459	-1.7051689951	 3.5430522329	 0.079129
H	-1.7161253033	-3.0558880018	 2.43541551	 0.119637
H	-0.6495644322	-3.7214303626	 3.6681764976	 0.116555
H	-1.5927837406	-2.2671699954	 4.0085259591	 0.116182
H	 1.8412985967	-1.9528429519	 1.357407445	 0.07695
H	-0.7961739933	-3.2534641768	 0.3829728388	 0.115758
H	 0.5108622035	-2.7307512517	-0.6679212173	 0.126285
H	 0.7722932602	-4.0531279605	 0.483850318	 0.108536
54.2172	107.7177	147.1549	164.832	195.4998	233.065	248.3706	256.4564	286.4025	364.6811	433.2025	468.3464	523.6903	585.5135	760.4668	775.7186	819.0394	905.6703	943.992	954.9816	992.9292	1028.0908	1047.1601	1091.4934	1098.8229	1109.7746	1135.3459	1159.375	1185.7351	1189.0367	1258.1537	1281.0496	1331.9172	1379.1365	1400.0882	1401.7151	1416.0198	1420.663	1429.1061	1453.6715	1487.6954	1489.3465	1491.2867	1494.3046	1501.9726	1513.8742	3024.4755	3030.5518	3037.6804	3066.9734	3083.9291	3087.4893	3096.8986	3098.3386	3106.6253	3117.5131	3118.9343	3124.5964	3137.5081	3800.3362
CC(O)C1C(C)C1C	C[C@@H](O)[C@H]1[C@@H](C)[C@H]1C	
InChI=1S/C7H14O/c1-4-5(2)7(4)6(3)8/h4-8H,1-3H3	InChI=1S/C7H14O/c1-4-5(2)7(4)6(3)8/h4-8H,1-3H3/t4-,5+,6-,7-/m1/s1
