21
gdb 76343	1.90999	1.54136	1.08179	2.5839	78.65	-0.2421	-0.0219	0.2202	1215.886	0.180166	-424.223724	-424.213593	-424.212649	-424.25928	36.925	
C	-0.5264077925	 1.4296380907	 0.0288831325	-0.397414
C	-0.11978453	-0.0389405972	-0.0650428239	-0.040342
C	 0.6116964623	-0.4929318446	-1.3747338817	 0.014319
C	 0.4338425786	 0.2903653966	-2.6707765289	-0.41883
C	 1.9873784332	-0.4716065507	-0.6223322945	-0.17764
C	 2.8692226069	 0.7362594748	-0.802376044	 0.164493
O	 4.0747229888	 0.686367502	-0.7707733416	-0.264924
C	 1.1631545676	-0.4147820336	 0.7213187099	 0.12452
O	 1.5380969372	 0.5223765911	 1.7012800698	-0.421721
H	 0.2949937929	 2.1139004275	-0.1994106032	 0.123899
H	-1.3475423225	 1.6448762229	-0.6622475694	 0.112196
H	-0.8634430159	 1.6628821708	 1.0423601761	 0.130002
H	-0.9856798544	-0.6563686898	 0.1925486657	 0.071613
H	 0.3647192803	-1.5413099129	-1.5700617273	 0.082426
H	 0.6160357298	 1.3610434958	-2.5465026694	 0.121607
H	 1.1200588672	-0.0768334214	-3.4416534479	 0.122637
H	-0.5856567844	 0.1743157838	-3.0539561553	 0.119932
H	 2.6189090464	-1.355190596	-0.7409955587	 0.082995
H	 2.352605548	 1.7090843279	-0.9434134214	 0.078745
H	 1.0899566359	-1.4248539942	 1.1461914236	 0.078321
H	 2.3629371946	 0.2323177368	 2.1050490395	 0.293165
30.8758	82.5704	181.8233	202.041	206.0368	235.2155	243.814	249.4222	299.6862	370.6516	453.2389	471.8491	492.9067	557.1617	719.3884	767.3466	790.3797	878.6384	917.9319	979.1512	991.6253	1017.9656	1029.9448	1048.2208	1130.3714	1142.6298	1156.7804	1179.0018	1183.8476	1238.6906	1261.6174	1283.9358	1297.1857	1336.4149	1365.6355	1375.7703	1405.397	1413.4961	1430.3501	1443.4601	1488.2283	1490.4616	1502.1039	1504.835	1813.7466	2901.739	3003.0471	3033.9972	3042.2334	3044.4774	3057.5021	3085.0953	3095.477	3111.1109	3112.6394	3121.4768	3813.1209
CC1C(C)C(C=O)C1O	C[C@H]1[C@@H](C)[C@@H](C=O)[C@H]1O	
InChI=1S/C7H12O2/c1-4-5(2)7(9)6(4)3-8/h3-7,9H,1-2H3	InChI=1S/C7H12O2/c1-4-5(2)7(9)6(4)3-8/h3-7,9H,1-2H3/t4-,5+,6-,7+/m1/s1
