16
gdb 15412	4.81292	0.96632	0.857	2.5076	63.73	-0.2627	-0.044	0.2186	1310.8811	0.127245	-420.842302	-420.833562	-420.832618	-420.876713	29.485	
C	 0.0708817451	 1.3122967666	 0.4650832099	-0.228629
O	-0.0173910003	-0.0628358499	 0.1681921055	-0.233127
C	-1.3450534776	-0.5091232844	 0.0292795235	-0.090424
C	-1.2922401396	-1.978541394	-0.3030718093	 0.063228
O	-1.3448231476	-2.9178799296	 0.7578587795	-0.234655
C	-2.4430333997	-2.904088849	-0.1604904071	-0.058639
C	-3.7547060416	-2.4480471511	 0.3934794126	 0.138849
O	-4.813217823	-2.7194330583	-0.1126532354	-0.242659
H	 1.1317698722	 1.5597133443	 0.5422637346	 0.134934
H	-0.3840548904	 1.9295738865	-0.3255620386	 0.107803
H	-0.4225409823	 1.5555943112	 1.4187419376	 0.110706
H	-1.918219894	-0.3441642022	 0.9545739436	 0.099815
H	-1.8570986796	 0.0346978759	-0.7842786446	 0.100838
H	-0.5699421181	-2.2214211362	-1.0836847395	 0.117591
H	-2.5106203813	-3.749648241	-0.8437625856	 0.120726
H	-3.6757384523	-1.8461300288	 1.3243960235	 0.093642
66.1098	81.1761	85.9533	155.9703	227.8226	261.7557	288.283	374.139	440.4053	488.0349	532.7023	832.8775	866.1082	949.451	990.9883	1005.9001	1056.0806	1088.9835	1139.2214	1161.6756	1171.49	1185.9203	1228.9937	1265.765	1274.6904	1331.22	1382.4551	1413.3433	1472.7413	1484.0294	1486.0475	1496.5532	1520.0104	1824.768	2903.234	2952.2779	2974.747	3004.1951	3020.8517	3110.7886	3122.8577	3133.6003
COCC1OC1C=O	COC[C@H]1O[C@H]1C=O	
InChI=1S/C5H8O3/c1-7-3-5-4(2-6)8-5/h2,4-5H,3H2,1H3	InChI=1S/C5H8O3/c1-7-3-5-4(2-6)8-5/h2,4-5H,3H2,1H3/t4-,5+/m0/s1
