17
gdb 60940	3.86804	1.00522	0.93048	2.2577	69.63	-0.246	-0.0446	0.2014	1259.2564	0.134382	-458.885779	-458.877714	-458.87677	-458.919236	30.149	
O	 0.7405782883	-0.3411754818	-1.1044567692	-0.430492
C	-0.1165443858	-0.0261954634	-0.0392691715	-0.00689
C	-1.4424124165	-0.7444163593	-0.1983829253	 0.139921
O	-1.6573288139	-1.4805575972	-1.1304911933	-0.260382
C	 0.5326080813	-0.4230994953	 1.2899324968	 0.023589
C	 1.7529912762	 0.3460793895	 1.8699108324	 0.037949
C	 0.8484297304	 1.5266374839	 2.2939114316	-0.233364
C	 0.1595211385	 0.1922245655	 2.6720803862	 0.018363
O	 1.463487639	-0.292602654	 3.1775519021	-0.305304
H	 0.2380764606	-0.9447138933	-1.6750028324	 0.296304
H	-0.3492873104	 1.0521213557	-0.0415781145	 0.093242
H	-2.2016852268	-0.5603946847	 0.5887312672	 0.102398
H	 0.6782341848	-1.5050247323	 1.3418424565	 0.098337
H	 2.7853367928	 0.3453870367	 1.5232798053	 0.108457
H	 1.2214530344	 2.0965805914	 3.1448247402	 0.116566
H	 0.4050920459	 2.1639508915	 1.5266697944	 0.102889
H	-0.7150341288	 0.0147249572	 3.2990503135	 0.098417
51.9968	97.777	154.8962	250.3352	300.9951	346.6591	413.589	466.3338	537.676	606.9935	727.8312	782.4269	816.6456	846.5075	876.5744	888.0757	915.221	939.1638	1008.6233	1013.4244	1057.6245	1093.449	1104.5961	1150.9589	1161.3432	1172.3853	1201.218	1218.6856	1245.9518	1263.9053	1280.9322	1304.9385	1385.8373	1394.0255	1437.7092	1496.5	1813.5122	2930.6365	2970.7857	3078.2404	3089.9139	3112.9609	3136.4373	3155.1895	3687.1789
OC(C=O)C1C2CC1O2	O[C@@H](C=O)[C@H]1[C@H]2C[C@@H]1O2	
InChI=1S/C6H8O3/c7-2-3(8)6-4-1-5(6)9-4/h2-6,8H,1H2	InChI=1S/C6H8O3/c7-2-3(8)6-4-1-5(6)9-4/h2-6,8H,1H2/t3-,4-,5+,6+/m0/s1
