19
gdb 110800	4.81013	0.88132	0.8767	4.4984	80.29	-0.2486	0.023	0.2716	1389.5413	0.159797	-382.038044	-382.029379	-382.028435	-382.071747	32.21	
C	 0.7245920523	 1.2200285012	-0.6780398096	-0.376315
C	 0.0305767801	-0.0285433079	-0.1181165754	-0.226839
C	 0.7686863135	-0.6050352976	 1.0710812378	 0.021339
C	 0.7762637092	-2.0115917743	 1.5199949109	-0.06251
C	 0.7157862387	-2.9971497571	 0.3392137081	-0.183965
C	 1.9930754293	-2.2653934081	-0.1842040943	-0.17722
N	 2.0488467272	-1.3518045218	 1.0066766875	-0.143173
C	 0.9228925575	-4.3908083534	 0.6943444909	 0.267613
N	 1.0868075636	-5.5000494541	 0.9760505605	-0.32031
H	 1.7341972687	 0.9870853647	-1.0304641799	 0.130239
H	 0.1603196971	 1.6400979835	-1.5155331895	 0.118717
H	 0.8155186459	 1.9961643136	 0.0888943008	 0.124042
H	-0.9836529329	 0.2281151943	 0.2125016375	 0.112031
H	-0.0932483271	-0.7690965931	-0.9141155055	 0.102978
H	 0.8264490855	 0.0977090385	 1.9020416541	 0.105999
H	 0.6585825095	-2.3115239481	 2.5559833324	 0.117952
H	-0.1824173585	-2.9256468207	-0.2818318572	 0.127589
H	 2.8729157019	-2.9085416215	-0.1895609015	 0.143155
H	 1.9034559487	-1.7655225981	-1.1522625776	 0.118679
69.5535	94.0819	160.2384	201.5835	213.239	277.8688	330.1578	442.4899	529.7417	551.7045	564.8661	701.9771	731.1968	779.5246	818.9148	864.8182	891.0008	951.3531	981.6396	1018.6706	1040.4829	1065.6544	1084.3672	1091.0439	1130.1378	1148.2741	1192.7959	1213.7514	1251.8889	1290.7585	1294.5316	1312.3508	1344.3806	1368.3999	1413.7516	1451.3945	1479.3016	1497.5663	1503.4071	1509.2397	2357.3908	3035.204	3039.18	3058.6872	3068.3734	3077.4909	3107.9206	3114.3118	3117.6397	3138.1739	3170.2309
CCC1C2C(CN12)C#N	CC[C@H]1[C@H]2[C@@H](CN12)C#N	
InChI=1S/C7H10N2/c1-2-6-7-5(3-8)4-9(6)7/h5-7H,2,4H2,1H3	InChI=1S/C7H10N2/c1-2-6-7-5(3-8)4-9(6)7/h5-7H,2,4H2,1H3/t5-,6+,7-,9?/m1/s1
