16
gdb 13340	5.95959	1.1543	1.0207	3.8466	67.55	-0.2388	-0.0188	0.22	1111.3416	0.129523	-383.748174	-383.740397	-383.739453	-383.781572	27.21	
O	-0.1003322155	-0.0202404548	-0.0046495398	-0.242117
C	-0.0037240727	 1.1789856847	-0.0745953905	 0.154067
C	 1.3119979944	 1.927905796	-0.1109669388	-0.282579
C	 1.4172460601	 2.8597710827	-1.3364837122	 0.073094
O	 0.3494993583	 3.8117268442	-1.3180559223	-0.277851
C	 0.8637152825	 5.1425036982	-1.3597908609	-0.116366
C	 2.357263327	 4.982348813	-1.3662804655	-0.093824
C	 2.6712520452	 3.6927522622	-1.361715032	-0.091064
H	-0.9022638692	 1.8300079468	-0.1209735773	 0.096419
H	 1.3820112351	 2.5487156081	 0.7919528564	 0.120714
H	 2.1292183446	 1.2003093647	-0.1058904814	 0.115904
H	 1.3299735995	 2.2450250384	-2.2477782552	 0.096683
H	 0.4942016671	 5.6581183051	-2.2600931773	 0.111533
H	 0.4998110104	 5.7102514285	-0.4898512718	 0.110638
H	 3.0424791044	 5.8201512495	-1.3832297501	 0.112573
H	 3.6627281488	 3.2588688826	-1.3736870213	 0.112176
51.0408	77.4458	98.3765	185.9032	295.0799	407.5389	434.1498	537.0829	704.9768	755.4079	807.4387	838.3738	852.5311	933.0119	959.8474	970.9562	1020.269	1045.4206	1074.3195	1093.5221	1117.6664	1131.5677	1194.3327	1224.3898	1265.9985	1318.9209	1357.5393	1369.9493	1386.6546	1421.9571	1450.9591	1521.5951	1691.0245	1828.7645	2914.3231	2961.5479	2979.8081	2998.6844	3029.2175	3101.827	3210.2849	3234.4831
O=CCC1OCC=C1	O=CC[C@H]1OCC=C1	
InChI=1S/C6H8O2/c7-4-3-6-2-1-5-8-6/h1-2,4,6H,3,5H2	InChI=1S/C6H8O2/c7-4-3-6-2-1-5-8-6/h1-2,4,6H,3,5H2/t6-/m0/s1
