19
gdb 56233	3.71716	0.79725	0.747	4.794	73.56	-0.2395	-0.0276	0.2119	1575.9964	0.15397	-460.189318	-460.178503	-460.177559	-460.227532	36.506	
C	 0.5443411932	 1.0169106955	 0.0317933918	-0.480639
C	 0.5449782967	-0.4083303544	-0.4868877458	 0.365766
O	 1.1175393572	-1.3099732322	 0.0781475764	-0.282223
C	-0.2369582953	-0.6417770849	-1.7867110557	-0.176703
O	-0.1771410358	-1.9582454844	-2.2498017468	-0.226809
C	-0.9952434716	-2.8781310959	-1.549770746	-0.164939
C	-0.4241218798	-4.2946136639	-1.6433671558	 0.360652
C	 1.0684735321	-4.4079514099	-1.8418644439	-0.476341
O	-1.1614443228	-5.2429157427	-1.511571185	-0.298955
H	 0.9102436513	 1.7092522769	-0.734469886	 0.143095
H	-0.4763992596	 1.3287517189	 0.281405841	 0.146007
H	 1.1719834857	 1.0850781534	 0.9207313207	 0.152427
H	-1.273867577	-0.2915692443	-1.6424692395	 0.112481
H	 0.1991284192	-0.0032736539	-2.5658847317	 0.135208
H	-1.0381310102	-2.6370999915	-0.4781907798	 0.13006
H	-2.0207962178	-2.8808612606	-1.9432877999	 0.118543
H	 1.5863750662	-3.7690378724	-1.1194853428	 0.163353
H	 1.3749925285	-5.4496751074	-1.7425458716	 0.13098
H	 1.3364847597	-4.0288453262	-2.8336285494	 0.148037
27.8382	42.0467	56.1087	87.9571	146.419	180.0641	191.6774	274.5344	304.4659	391.2982	460.9541	464.7614	511.3127	524.1038	628.2712	781.6443	799.0428	857.4997	879.9661	949.1104	992.0274	1025.26	1090.1155	1108.8677	1165.7428	1207.1831	1233.1631	1263.1151	1291.2235	1379.2691	1382.4749	1384.5901	1393.9076	1454.7172	1458.2026	1464.0948	1467.2141	1475.0665	1475.6162	1818.1345	1821.5974	2964.0812	3003.952	3037.356	3045.9995	3049.0036	3051.2158	3098.1662	3110.4635	3155.4608	3158.446
CC(=O)COCC(C)=O	CC(=O)COCC(=O)C	
InChI=1S/C6H10O3/c1-5(7)3-9-4-6(2)8/h3-4H2,1-2H3	InChI=1S/C6H10O3/c1-5(7)3-9-4-6(2)8/h3-4H2,1-2H3
