14
gdb 35378	3.94866	1.51498	1.34353	5.672	64.18	-0.2454	0.0124	0.2577	921.4983	0.101959	-436.632658	-436.626201	-436.625257	-436.663693	25.148	
N	 0.0141914124	-1.1522142192	-0.0828072402	-0.315412
C	 0.0090320103	-0.000106967	-0.0097915429	 0.297446
C	-0.0045373575	 1.4658020303	 0.0116971945	-0.018008
O	-0.6106161299	 1.9331227915	 1.2227361242	-0.261065
C	 0.1677678203	 3.0169070764	 1.6841876133	 0.072731
C	 1.6445563588	 2.7748191874	 1.9293617685	 0.068174
O	 2.0460597132	 1.5864565029	 1.2464674794	-0.281952
C	 1.403414522	 2.0831039743	 0.0409401576	 0.04529
C	 1.1754929952	 3.4745184545	 0.6712053965	-0.209651
H	-0.5725198563	 1.8245900953	-0.8608248303	 0.12441
H	-0.3856014136	 3.7122737707	 2.3022670138	 0.125557
H	 2.2232935729	 3.0977286278	 2.7862744218	 0.122183
H	 2.0096588923	 1.9532350466	-0.8547303109	 0.114273
H	 1.3230136001	 4.4540033485	 0.2391679146	 0.116022
107.4148	158.687	300.7153	379.9548	495.239	537.3823	564.875	707.1655	733.8066	784.0584	815.1009	833.0011	863.2636	917.1642	933.8015	1004.6742	1010.5236	1017.0765	1040.2086	1042.9865	1076.4986	1108.3046	1126.5562	1211.5296	1238.1571	1262.0001	1284.4955	1337.0618	1355.1809	1397.5517	2371.4014	2990.0647	3132.7523	3192.2775	3206.0865	3217.6461
N#CC1OC2C3OC1C23	N#C[C@H]1O[C@H]2[C@H]3O[C@@H]1[C@@H]23	
InChI=1S/C6H5NO2/c7-1-2-4-3-5(8-2)6(3)9-4/h2-6H	InChI=1S/C6H5NO2/c7-1-2-4-3-5(8-2)6(3)9-4/h2-6H/t2-,3+,4+,5-,6+/m1/s1
