20
gdb 117995	3.4844	0.72706	0.68807	3.7674	75.86	-0.2741	0.0109	0.285	1663.9698	0.168471	-440.288415	-440.27756	-440.276616	-440.324909	38.108	
C	 0.0070867625	 1.6230707754	-0.0735700449	-0.42985
C	 0.0179495445	 0.0902447334	 0.0241550226	 0.003564
C	 0.7936977331	-0.436242118	 1.242500207	-0.178008
C	 2.2722797758	-0.0636028239	 1.2532008013	-0.091759
O	 2.8680937496	-0.7478226828	 2.3442512397	-0.417877
C	-1.4228555866	-0.4821267454	 0.0573293729	-0.025761
O	-2.1855400634	-0.043502204	 1.1670397518	-0.414018
C	-2.1312459239	-0.2039507445	-1.21088676	 0.260839
N	-2.6810216872	 0.0455576594	-2.1964805854	-0.323493
H	 1.0149239925	 2.0142763508	-0.2301383555	 0.131364
H	-0.6092920094	 1.9641380855	-0.9114619681	 0.140564
H	-0.375945795	 2.0762856734	 0.8481331882	 0.118532
H	 0.4813174331	-0.3109772739	-0.8877302717	 0.095761
H	 0.3238375838	-0.0772362859	 2.1641382603	 0.121682
H	 0.7338180331	-1.5312011556	 1.2683916404	 0.108747
H	 2.7373093646	-0.356291497	 0.2963781007	 0.085504
H	 2.3961522821	 1.0249432605	 1.3564883773	 0.089695
H	 3.7926986085	-0.488604727	 2.3947099029	 0.287727
H	-1.3617163225	-1.5706018554	 0.1662407552	 0.138275
H	-2.3716902251	 0.8956483649	 1.0566395553	 0.298513
59.1449	73.5123	110.2292	114.5334	183.4168	223.7635	245.9669	267.1157	279.4046	302.8395	343.1023	367.3056	420.7308	529.0988	597.5796	669.8278	795.2273	825.0638	893.9553	961.04	990.1507	1012.4039	1030.3241	1075.5637	1111.4388	1127.5053	1183.0135	1231.4656	1243.6046	1265.1834	1291.7465	1311.7901	1327.6719	1369.6205	1374.9343	1413.5286	1421.817	1464.5076	1491.0449	1506.9298	1507.9029	1529.5254	2351.7691	2957.1316	2996.75	3016.6795	3034.3954	3037.0846	3059.8201	3088.4766	3101.5955	3121.0391	3810.5073	3830.3978
CC(CCO)C(O)C#N	C[C@@H](CCO)[C@@H](O)C#N	
InChI=1S/C6H11NO2/c1-5(2-3-8)6(9)4-7/h5-6,8-9H,2-3H2,1H3	InChI=1S/C6H11NO2/c1-5(2-3-8)6(9)4-7/h5-6,8-9H,2-3H2,1H3/t5-,6-/m0/s1
