14
gdb 57182	2.18533	1.49527	1.03861	3.6674	60.29	-0.2585	-0.1151	0.1434	1112.5519	0.098173	-511.002386	-510.993305	-510.992361	-511.036768	32.007	
N	-0.0166501165	 1.2864332787	 0.4518342429	-0.518712
C	 0.0266309912	-0.0444846749	 0.2608723833	 0.363477
O	 1.0403099612	-0.7187397983	 0.2340652288	-0.362387
C	-1.33929335	-0.7658948634	 0.0520835852	-0.07173
O	-1.0981887314	-2.0740572398	-0.3371135467	-0.406511
C	-2.1771083711	-0.7254814055	 1.3401501012	 0.280324
O	-2.2426158663	-1.631967787	 2.1300875787	-0.253227
C	-3.0080210939	 0.5331825198	 1.6299018129	 0.080541
O	-2.8705420173	 1.5866463072	 1.0568245293	-0.232231
H	 0.8482234588	 1.7861468951	 0.5802033087	 0.272956
H	-0.8967687863	 1.7819278231	 0.450294992	 0.288979
H	-1.8976987135	-0.2214021338	-0.723776598	 0.121557
H	-0.1450522606	-2.2069206162	-0.1845883202	 0.303106
H	-3.7434621044	 0.3841298349	 2.445506482	 0.133857
67.8436	83.2667	123.1276	184.1566	211.9764	294.8058	329.588	411.4021	439.7113	478.7138	490.9634	519.9327	581.2449	660.1155	693.8951	717.8378	835.6835	878.1678	1012.5922	1128.1878	1138.8073	1179.5027	1219.1686	1337.3563	1362.5966	1379.158	1438.5781	1628.2424	1798.1681	1802.2768	1819.1962	2952.0776	3007.4508	3555.4349	3628.4363	3703.4906
NC(=O)C(O)C(=O)C=O	NC(=O)[C@@H](O)C(=O)C=O	
InChI=1S/C4H5NO4/c5-4(9)3(8)2(7)1-6/h1,3,8H,(H2,5,9)	InChI=1S/C4H5NO4/c5-4(9)3(8)2(7)1-6/h1,3,8H,(H2,5,9)/t3-/m0/s1
