18
gdb 86513	3.81984	0.93539	0.83517	3.9322	78.26	-0.2909	-0.0828	0.2081	1397.4482	0.146429	-401.964798	-401.955623	-401.954679	-401.999785	32.761	
C	-0.7355206446	 1.095835136	 0.0717198264	-0.411066
C	 0.2756629886	-0.0316726273	 0.1974441504	 0.06371
C	 1.3124625004	-0.2355719838	-0.9457705708	-0.258494
C	 2.418317756	-0.4574749332	 0.1144266824	-0.115479
C	 1.4516833646	 0.1450600372	 1.2002574744	-0.249515
C	 2.7285854814	-1.9015324519	 0.3927779959	 0.286814
O	 2.2070550895	-2.8557670573	-0.1283871319	-0.273112
C	 3.7567087321	-2.1071805247	 1.4433090866	 0.227958
N	 4.5622146632	-2.2537850144	 2.2599930623	-0.2995
H	-0.2373407264	 2.0508790616	-0.1316249892	 0.113325
H	-1.4390460965	 0.9056110312	-0.7460679761	 0.122966
H	-1.3184515747	 1.2122832353	 0.9919332671	 0.120973
H	-0.2400182756	-0.9766091134	 0.3963821044	 0.092285
H	 1.1405650469	-1.0633754382	-1.6348104406	 0.127179
H	 1.4870206859	 0.6826316305	-1.5129441679	 0.104711
H	 3.3620196136	 0.0827031327	-0.0063024711	 0.110395
H	 1.6897387231	 1.1957341551	 1.3850950052	 0.116919
H	 1.3907893926	-0.3721814756	 2.1610316026	 0.119928
40.2477	64.571	129.2327	195.8336	235.3536	238.6631	290.0742	338.2643	409.865	460.6841	586.5753	652.207	712.7466	756.2776	811.0744	865.1202	902.2671	937.1805	946.8665	971.5347	1034.281	1093.0637	1119.076	1139.0181	1141.8601	1194.039	1233.2166	1255.8301	1278.5237	1295.1852	1355.9282	1380.3857	1412.9414	1469.6117	1491.1128	1495.3394	1497.6214	1789.6758	2335.1735	3024.7841	3051.9566	3060.0049	3064.9034	3073.9212	3093.4356	3096.9048	3117.3255	3135.1417
CC1CC(C1)C(=O)C#N	C[C@H]1C[C@@H](C1)C(=O)C#N	
InChI=1S/C7H9NO/c1-5-2-6(3-5)7(9)4-8/h5-6H,2-3H2,1H3	InChI=1S/C7H9NO/c1-5-2-6(3-5)7(9)4-8/h5-6H,2-3H2,1H3/t5-,6-
