19
gdb 54533	3.13546	1.36819	1.13051	2.9794	75.04	-0.2344	0.0262	0.2606	1120.8859	0.161634	-419.23419	-419.226072	-419.225127	-419.26682	31.856	
N	-0.1928261335	 1.353182099	 0.0960255932	-0.538187
C	 0.0242554209	 0.0188634124	-0.0856205307	 0.311147
O	 1.1072434782	-0.4712051184	-0.3482866563	-0.368059
C	-1.2184429481	-0.8254845975	 0.0320678645	 0.245192
C	-2.4289030422	-0.5099417054	-0.7867750236	-0.272522
N	-2.4214143717	-0.2106329159	 0.6466289965	-0.147867
C	-3.0450362991	-1.2532554404	 1.4870624559	-0.153034
C	-2.4525418929	-2.6209685797	 1.0697093515	-0.251096
C	-1.0619891641	-2.2651947865	 0.5004656806	-0.27684
H	 0.6134747407	 1.9546114614	 0.1406036175	 0.257101
H	-1.0489418485	 1.6325872183	 0.5513301894	 0.268393
H	-2.4202051994	 0.3639100645	-1.431068516	 0.125305
H	-3.0289669177	-1.3391000945	-1.1541040457	 0.117742
H	-2.7879513015	-1.0197006836	 2.5255835352	 0.112222
H	-4.1345505304	-1.2079018456	 1.3961163313	 0.109957
H	-2.3963939925	-3.3155441957	 1.9109933033	 0.108688
H	-3.0742464643	-3.0992358778	 0.3074608506	 0.109936
H	-0.7448884615	-2.9348865508	-0.3020165243	 0.121142
H	-0.2870879825	-2.3032526236	 1.2719961869	 0.120779
74.0089	156.2685	197.3386	236.4767	317.9813	379.2247	423.7456	443.6284	496.6209	604.8886	634.2449	650.3671	700.9551	745.222	816.8232	830.9842	892.9811	897.9214	922.8021	955.806	999.8948	1028.7387	1075.763	1098.9049	1119.4378	1169.994	1190.1529	1205.4069	1217.361	1264.1079	1308.0523	1322.3707	1334.9064	1365.6639	1407.2235	1490.7612	1494.2364	1499.3949	1521.9833	1594.2656	1792.814	3046.2118	3060.4183	3065.0636	3089.4543	3103.6477	3108.873	3116.7293	3196.5108	3570.4287	3712.0389
NC(=O)C12CN1CCC2	NC(=O)[C@]12CN1CCC2	
InChI=1S/C6H10N2O/c7-5(9)6-2-1-3-8(6)4-6/h1-4H2,(H2,7,9)	InChI=1S/C6H10N2O/c7-5(9)6-2-1-3-8(6)4-6/h1-4H2,(H2,7,9)/t6-,8?/m0/s1
