15
gdb 22055	4.67219	0.62834	0.55575	3.5669	82.24	-0.2471	-0.0594	0.1877	1868.7284	0.109389	-453.909527	-453.899007	-453.898063	-453.947353	34.923	
C	-0.0346868087	 1.4817987284	-0.0037415208	-0.480281
C	 0.0218808761	-0.0249028609	 0.0438046504	 0.190571
N	 0.0922409565	-0.7159114859	 1.131215018	-0.14777
O	 0.1086263596	 0.1132986473	 2.2446147813	-0.382129
C	-0.0017587954	-0.7676344266	-1.1682381518	-0.052708
C	-0.0255849243	-1.3366518442	-2.2336220434	 0.17017
C	-0.0568906726	-1.9756603384	-3.5407804786	 0.24851
N	-0.00555439	-3.3377880887	-3.486276743	-0.520253
O	-0.1230741287	-1.3444010149	-4.5782975902	-0.332577
H	 0.8504858049	 1.9054143465	 0.4808556509	 0.15365
H	-0.0904303576	 1.8360619504	-1.0325367953	 0.144842
H	-0.9047781545	 1.8418206519	 0.5540555446	 0.153656
H	 0.1617616999	-0.5162029109	 2.9725716885	 0.316192
H	 0.0512517189	-3.8302218399	-2.6122078082	 0.270537
H	-0.021052164	-3.8521182342	-4.3515062123	 0.267593
26.594	65.5476	71.4675	82.0166	99.2589	183.9293	252.8948	274.5676	361.3618	408.1368	501.8492	511.7339	563.5008	565.7718	590.0748	618.1074	738.1011	772.0556	894.3574	1014.7607	1047.597	1052.5723	1088.8178	1267.9971	1350.0086	1399.6897	1409.2505	1476.6188	1482.6707	1607.5094	1659.3412	1770.6579	2329.2756	3049.4123	3107.9803	3159.462	3603.6383	3746.2529	3811.4293
CC(=NO)C#CC(N)=O	CC(=NO)C#CC(=O)N	
InChI=1S/C5H6N2O2/c1-4(7-9)2-3-5(6)8/h9H,1H3,(H2,6,8)	InChI=1S/C5H6N2O2/c1-4(7-9)2-3-5(6)8/h9H,1H3,(H2,6,8)
