16
gdb 96212	2.8408	1.38406	0.97512	2.8233	73.53	-0.2741	-0.0502	0.2239	1150.77	0.125014	-437.898687	-437.890523	-437.889579	-437.931544	30.247	
O	-0.0333541545	 1.4091006275	 0.0302027271	-0.420223
C	 0.0379231218	-0.0020190948	-0.0084501649	-0.000584
C	-1.4032099775	-0.5170438489	 0.0071976247	-0.100043
O	-1.443079992	-1.9072498952	-0.2516902371	-0.244966
C	-1.0324249233	-2.234648883	-1.5602503274	-0.120478
C	 0.2080971252	-1.5150039351	-1.9961463002	-0.15992
C	 0.719653062	-0.5071485124	-1.2793532967	 0.159203
C	 1.9076923334	 0.1805958058	-1.6686464571	 0.205295
N	 2.8673941139	 0.7814960159	-1.9155729199	-0.337937
H	 0.8611666067	 1.7653971453	 0.0741033355	 0.302883
H	 0.5767594987	-0.39496413	 0.8672912648	 0.098588
H	-1.8544103895	-0.3634932202	 0.9893782743	 0.12618
H	-1.9820956027	 0.0525760009	-0.7357757821	 0.1102
H	-0.8633277151	-3.317927974	-1.5737022059	 0.136233
H	-1.8376736264	-2.0306658381	-2.2908131491	 0.118507
H	 0.6726512092	-1.8352473336	-2.923974106	 0.127062
85.9497	138.0591	179.535	283.4312	300.1108	303.6011	350.5765	412.3529	466.6358	496.1865	578.5768	639.2854	723.3418	773.5116	859.4402	916.548	1002.9043	1024.5669	1035.5992	1080.3584	1108.591	1155.9076	1185.2611	1229.9274	1266.5445	1304.1819	1325.0592	1350.9431	1373.1722	1405.1768	1432.0495	1475.0718	1500.7643	1700.4609	2331.1704	2937.7082	2983.4919	3001.4061	3055.5663	3115.0758	3181.8739	3804.9254
OC1COCC=C1C#N	O[C@H]1COCC=C1C#N	
InChI=1S/C6H7NO2/c7-3-5-1-2-9-4-6(5)8/h1,6,8H,2,4H2	InChI=1S/C6H7NO2/c7-3-5-1-2-9-4-6(5)8/h1,6,8H,2,4H2/t6-/m0/s1
