18
gdb 71723	2.63328	2.03486	1.50578	1.6063	73.83	-0.2233	0.063	0.2863	923.0276	0.148148	-401.885941	-401.878557	-401.877613	-401.917145	30.194	
C	 0.0043439966	 1.5102596994	 0.118316246	-0.519932
C	-0.0180380955	 0.0194242508	 0.000148599	 0.306365
C	 0.4497302211	-0.8489774421	-1.2050880295	-0.126606
C	 0.9581486398	-1.8952700156	-0.2770934313	-0.061388
C	 0.5014014796	-1.0641049257	 0.9442972806	-0.232497
C	-0.9928689111	-0.8986675536	 0.6996176424	 0.315542
O	-1.832353403	-0.348335412	 1.6566650431	-0.47678
C	-1.4417886399	-1.9795861219	-0.272904207	-0.223035
N	-0.2475649004	-2.1490146639	-1.1020294567	-0.127566
H	 1.0176956551	 1.9118253109	 0.0084748025	 0.117915
H	-0.6244902048	 1.9759315605	-0.6501539428	 0.121134
H	-0.3831802534	 1.8163569819	 1.0942350506	 0.136303
H	 0.7995146114	-0.501485136	-2.1698131662	 0.091318
H	 1.8000947466	-2.572454511	-0.3455606956	 0.09434
H	 0.9792820487	-0.9627320978	 1.9089084611	 0.088446
H	-1.9265351801	-0.9809148712	 2.3772052259	 0.288351
H	-1.6935630633	-2.9251246522	 0.2208332993	 0.096669
H	-2.2890606473	-1.6617944104	-0.8887649514	 0.111419
191.2572	204.7224	225.1468	284.3873	339.5639	369.0326	439.5269	542.8309	610.5645	631.5164	724.6911	752.1412	775.9844	781.9374	830.9491	867.9076	898.5524	917.3049	949.2256	959.3443	1031.9961	1052.3396	1061.3148	1106.7359	1136.6084	1165.1543	1172.0551	1200.6606	1211.3595	1246.5541	1274.4853	1292.5574	1325.0023	1360.5104	1415.6136	1463.6116	1488.3591	1496.0549	1501.221	3024.1514	3040.1341	3080.2088	3090.8708	3111.454	3179.5767	3193.1288	3213.2789	3797.8202
CC12C3C4C1C2(O)CN34	C[C@@]12[C@H]3[C@H]4[C@@H]1[C@]2(O)CN34	
InChI=1S/C7H9NO/c1-6-4-3-5(6)8(3)2-7(4,6)9/h3-5,9H,2H2,1H3	InChI=1S/C7H9NO/c1-6-4-3-5(6)8(3)2-7(4,6)9/h3-5,9H,2H2,1H3/t3-,4+,5-,6+,7-,8?/m1/s1
