23
gdb 96318	2.17132	1.46417	1.03654	1.1084	88.62	-0.2262	0.025	0.2512	1275.951	0.206558	-388.303334	-388.294006	-388.293062	-388.337129	35.931	
C	-0.3536298344	 1.4279432528	 0.0747027996	-0.378978
C	 0.0091701542	-0.0663494111	-0.0477118215	-0.035345
C	 0.6150448941	-0.3787144487	-1.4226719964	-0.083469
O	 1.8062347881	 0.3242907375	-1.7193042585	-0.240694
C	 2.968789973	-0.2180552214	-1.1275864378	-0.071656
C	 3.1572870387	 0.1341010473	 0.3492657315	-0.299013
C	 2.1558721739	-0.4427486352	 1.3335198662	 0.317074
C	 2.7606181721	-0.8899421647	 2.6425718848	-0.471565
C	 0.8353260374	-0.5244470526	 1.1364765675	-0.165902
H	 0.5397739018	 2.0481238294	-0.0339610667	 0.129176
H	-1.0652003245	 1.7215639328	-0.7051092492	 0.107513
H	-0.805109249	 1.6442787869	 1.0472217736	 0.109679
H	-0.9303132699	-0.6365391044	-0.0183243018	 0.071735
H	 0.785984362	-1.4634717473	-1.513104136	 0.0837
H	-0.1007954925	-0.0848465835	-2.1995127828	 0.09655
H	 2.9795595437	-1.3135101051	-1.2519881357	 0.085322
H	 3.81012848	 0.1913692993	-1.6978112948	 0.100298
H	 4.1644708222	-0.1990884775	 0.6317162361	 0.095497
H	 3.1716362033	 1.2295372734	 0.444233432	 0.118882
H	 3.3125154986	-0.0696410857	 3.1209180614	 0.12157
H	 2.0015717662	-1.2420916266	 3.3458520024	 0.117422
H	 3.4865365485	-1.6992530834	 2.4883716956	 0.119519
H	 0.2442713527	-0.9184366023	 1.9624769505	 0.072684
76.6341	137.1138	168.617	218.0802	225.7035	278.4236	312.9486	330.5426	398.6707	410.9534	475.6038	508.7992	587.3607	672.3419	782.2068	812.4753	839.0691	865.575	937.6269	957.9158	977.9706	1012.6606	1030.4452	1048.1244	1063.8229	1094.7142	1131.1532	1154.3239	1172.346	1180.5555	1241.641	1301.7629	1325.4381	1333.2766	1365.5926	1370.1922	1389.31	1395.4201	1412.711	1417.6171	1433.3278	1464.4588	1480.8682	1481.115	1490.6889	1492.8209	1499.495	1501.5606	1734.0837	2968.3475	2975.2782	3004.0226	3005.4085	3011.0378	3034.1977	3045.5606	3054.0209	3054.3387	3063.0244	3101.8072	3109.4207	3122.3423	3125.6678
CC1COCCC(C)=C1	C[C@H]1COCCC(=C1)C	
InChI=1S/C8H14O/c1-7-3-4-9-6-8(2)5-7/h5,8H,3-4,6H2,1-2H3	InChI=1S/C8H14O/c1-7-3-4-9-6-8(2)5-7/h5,8H,3-4,6H2,1-2H3/t8-/m1/s1
