17
gdb 56551	2.89021	1.02857	0.98747	5.7041	69.08	-0.2807	-0.0081	0.2726	1259.6283	0.134615	-455.194809	-455.184964	-455.18402	-455.229933	35.235	
C	-0.1194590453	 1.6152142469	-0.0116940853	-0.403541
C	-0.0561611123	 0.0773090379	-0.0353046785	-0.158654
C	-1.3987270409	-0.504963889	 0.0507739026	 0.27872
N	-2.4523849014	-0.9720353308	 0.1346437488	-0.319563
C	 0.6662882533	-0.4637046331	-1.3116868158	 0.03483
O	 0.0796511811	 0.0366997211	-2.4736118102	-0.422162
C	 2.1525909536	-0.0590548727	-1.2969525885	 0.374203
N	 2.9385249905	-0.6556441336	-0.3676535391	-0.51722
O	 2.5551869755	 0.781480738	-2.0827999446	-0.367959
H	 0.8898090207	 2.0351012504	-0.0141949705	 0.137905
H	-0.6496066357	 1.9774453832	-0.8938758565	 0.157408
H	-0.64132027	 1.9645298407	 0.8815503958	 0.1367
H	 0.4982800024	-0.2764294784	 0.8433386078	 0.117277
H	 0.5935631033	-1.5610386573	-1.3047020077	 0.104863
H	 0.7457735246	 0.637881243	-2.8510692153	 0.299918
H	 2.6246071857	-1.4571093776	 0.1527192454	 0.272107
H	 3.9258300747	-0.4532277787	-0.3782154584	 0.27517
53.7933	73.5294	136.2353	179.4457	215.1952	253.8746	275.4151	319.3671	338.6572	410.0845	447.5111	523.4248	545.7576	567.9849	639.7216	671.5739	724.8854	832.1236	871.7941	932.3682	1008.3634	1092.6911	1098.1464	1120.2709	1161.057	1252.4932	1291.2411	1331.3554	1360.4681	1367.0394	1411.1186	1465.9353	1490.8144	1504.645	1624.9373	1789.773	2358.8918	3002.62	3035.3011	3059.5426	3133.9203	3152.0464	3595.0003	3643.4269	3725.1093
CC(C#N)C(O)C(N)=O	C[C@@H](C#N)[C@@H](O)C(=O)N	
InChI=1S/C5H8N2O2/c1-3(2-6)4(8)5(7)9/h3-4,8H,1H3,(H2,7,9)	InChI=1S/C5H8N2O2/c1-3(2-6)4(8)5(7)9/h3-4,8H,1H3,(H2,7,9)/t3-,4+/m0/s1
