21
gdb 59175	2.55224	1.32914	1.08189	2.4541	78.66	-0.2337	0.0728	0.3066	1219.1896	0.180926	-424.182559	-424.173135	-424.172191	-424.216472	35.81	
C	-0.0320846495	 1.7351214198	-0.399474385	-0.396156
C	 0.0909012872	 0.2133519087	-0.2958870506	 0.097646
O	 0.9077859463	-0.1573129531	 0.8183523805	-0.42384
C	-1.2782063855	-0.4420222049	-0.2685794378	-0.057262
C	-1.8765212026	-1.1515919026	-1.4444346879	 0.071358
O	-0.8772291612	-1.8532403933	-2.1862798077	-0.30383
C	-0.6859566311	-2.7843271564	-1.0696874612	 0.152905
C	 0.7560898874	-3.0895216647	-0.7212855049	-0.43024
C	-1.5950767904	-1.9327601851	-0.1810108986	-0.191785
H	 0.9601092314	 2.1920614288	-0.4360889119	 0.123047
H	-0.5839917514	 2.0229406935	-1.3003273529	 0.119304
H	-0.5643591373	 2.1446912345	 0.4681842343	 0.102072
H	 0.6308822464	-0.1609798417	-1.1694947331	 0.106268
H	 0.3870467358	-0.0385595243	 1.6197720141	 0.276366
H	-2.0293903169	 0.1266443785	 0.2820932258	 0.082526
H	-2.7910932264	-0.8801270944	-1.9598239126	 0.101025
H	-1.2097134662	-3.7145287647	-1.3296428548	 0.082349
H	 1.2686829173	-2.2315865902	-0.2853559139	 0.158914
H	 0.7836257212	-3.9076646703	 0.007507472	 0.112535
H	 1.2910622511	-3.4243996197	-1.61624621	 0.122305
H	-2.2774533357	-2.3232473885	 0.5624553761	 0.094492
81.539	135.4552	164.8829	215.4412	232.6486	235.3656	246.899	318.2636	352.7913	459.0633	467.3371	577.8672	598.342	739.2635	759.4226	801.7292	856.5084	879.161	923.7921	937.0974	976.6592	1021.2627	1042.1707	1050.7296	1056.2493	1092.7503	1097.7774	1102.195	1135.9044	1165.8683	1208.9131	1259.2821	1272.5655	1305.5247	1328.1319	1363.1343	1392.9371	1401.1651	1413.8814	1430.4632	1444.1557	1489.5491	1490.7357	1494.5272	1505.141	3005.0702	3024.6483	3038.1977	3077.4761	3095.1681	3098.1253	3103.2742	3121.0142	3152.9068	3171.7666	3197.6935	3807.4488
CC(O)C1C2OC(C)C12	C[C@@H](O)[C@H]1[C@H]2O[C@@H](C)[C@@H]12	
InChI=1S/C7H12O2/c1-3(8)5-6-4(2)9-7(5)6/h3-8H,1-2H3	InChI=1S/C7H12O2/c1-3(8)5-6-4(2)9-7(5)6/h3-8H,1-2H3/t3-,4+,5-,6+,7-/m1/s1
