23
gdb 118846	2.45395	0.88277	0.72935	2.1299	82.75	-0.2583	0.0798	0.3381	1666.3046	0.203034	-425.414526	-425.403521	-425.402577	-425.451584	39.52	
C	-0.2782497213	 1.5301627988	-0.2106918055	-0.383531
C	-0.2682200374	 0.0088785675	-0.3812272693	-0.162796
C	 1.0953508697	-0.5206180774	-0.8533190006	-0.257086
C	 1.1016011547	-2.0190633193	-1.1136874748	 0.394791
C	 0.9475100237	-2.899102365	 0.112536187	-0.462914
O	 0.3114966082	-2.4491662229	-2.241939102	-0.311591
C	 1.7395255447	-2.618600892	-2.3041112526	-0.023629
C	 2.4290150269	-1.891711942	-3.4320458373	-0.093616
O	 2.129290785	-2.5092546241	-4.6747724131	-0.418577
H	 0.4608630942	 1.8526076862	 0.5314877631	 0.113191
H	-0.0410725256	 2.0364454306	-1.1530589115	 0.115692
H	-1.2585683911	 1.8864764308	 0.120324853	 0.114014
H	-0.5478935103	-0.4627890819	 0.5679789648	 0.098353
H	-1.0283667356	-0.2906615831	-1.1120723604	 0.114649
H	 1.378662101	 0.0170764953	-1.7621966892	 0.101367
H	 1.8631509699	-0.2918316042	-0.1020566045	 0.097123
H	 0.0099224937	-2.6859906175	 0.6344126862	 0.130246
H	 0.9427895937	-3.9543580925	-0.1699995042	 0.128115
H	 1.7699496569	-2.7292318826	 0.81584791	 0.120178
H	 2.0531057757	-3.661963294	-2.2202819815	 0.088719
H	 2.1550505424	-0.8290728152	-3.4432496316	 0.093252
H	 3.515821142	-1.9592649374	-3.3104772959	 0.111249
H	 1.1682363891	-2.5168793882	-4.7516141998	 0.2928
41.7324	63.8696	85.2824	138.1993	167.3982	189.8591	246.9056	258.0098	311.6982	322.8712	375.2515	406.8207	461.7022	502.8283	589.3458	717.1072	742.3196	814.1463	868.4435	893.0522	910.5334	958.5358	1004.0045	1045.9986	1054.2326	1064.326	1088.2709	1122.5621	1138.3073	1152.5986	1219.7736	1247.7504	1285.2025	1302.5718	1332.5662	1348.4299	1370.8082	1394.003	1411.2092	1413.9743	1421.5784	1469.8675	1474.4839	1492.3855	1493.2168	1495.5519	1499.7962	1507.1422	1510.3642	3018.4357	3024.0363	3028.5589	3034.962	3041.1322	3064.1939	3069.9282	3085.5495	3090.5233	3101.0107	3103.2828	3107.2958	3126.4793	3799.5055
CCCC1(C)OC1CO	CCC[C@@]1(C)O[C@H]1CO	
InChI=1S/C7H14O2/c1-3-4-7(2)6(5-8)9-7/h6,8H,3-5H2,1-2H3	InChI=1S/C7H14O2/c1-3-4-7(2)6(5-8)9-7/h6,8H,3-5H2,1-2H3/t6-,7+/m0/s1
