20
gdb 87781	3.86559	1.08821	1.07814	2.5807	80.55	-0.2258	0.089	0.3148	1243.9431	0.169041	-403.081173	-403.072363	-403.071419	-403.114274	33.931	
C	-0.2183899132	 1.4045948279	-0.0527377026	-0.314617
N	 0.0036801031	-0.0298825449	 0.0556839166	-0.124918
C	 1.3667844644	-0.515089897	-0.1725314222	-0.3266
C	 0.765743066	-0.5121277282	 1.184817213	 0.382259
C	 1.3182451572	 0.2372008211	 2.4321976997	-0.393474
C	 0.9395718013	-1.0179161749	 3.252355716	 0.422857
C	 1.5883243056	-1.5409221776	 4.4913517065	-0.500727
O	-0.4770785225	-1.1754898057	 3.0948097962	-0.287496
C	 0.383019554	-1.6878749315	 2.0591847948	-0.139624
H	 0.6352111626	 2.0137466213	 0.2881405334	 0.099196
H	-0.4214853608	 1.6570936192	-1.0981378706	 0.122934
H	-1.0951122951	 1.6783140812	 0.542080359	 0.130882
H	 1.4534171177	-1.4328607902	-0.7496628137	 0.114488
H	 2.1497517559	 0.2190617074	-0.3644647767	 0.104134
H	 2.3929348427	 0.4300112863	 2.3795943096	 0.107876
H	 0.7931536557	 1.145829818	 2.7374188317	 0.111908
H	 1.4041600744	-0.8709122301	 5.3389215784	 0.13121
H	 1.1878073035	-2.526122783	 4.7440734638	 0.135673
H	 2.6718619185	-1.6236495985	 4.3584693449	 0.12418
H	 0.282710779	-2.7364655308	 1.8018933423	 0.099863
91.8189	152.3739	194.2064	216.1496	225.8662	278.4283	340.2217	411.1387	418.4485	451.3426	513.0718	567.8558	677.8883	771.4333	800.6217	857.0792	879.6066	899.6519	936.3786	979.5807	996.38	1034.6354	1052.622	1092.299	1110.4717	1129.9305	1151.8526	1168.143	1190.3447	1205.9668	1213.9104	1244.7268	1258.9308	1402.9281	1424.2653	1448.9192	1452.2175	1475.3742	1485.2671	1493.5323	1495.0957	1496.1537	1515.6699	2966.1023	3033.8596	3059.7598	3069.6017	3078.9338	3095.5134	3107.0346	3116.3288	3121.9125	3165.811	3182.8415
CN1CC11CC2(C)OC12	CN1C[C@]21C[C@@]1(C)O[C@@H]21	
InChI=1S/C7H11NO/c1-6-3-7(4-8(7)2)5(6)9-6/h5H,3-4H2,1-2H3	InChI=1S/C7H11NO/c1-6-3-7(4-8(7)2)5(6)9-6/h5H,3-4H2,1-2H3/t5-,6-,7-,8?/m1/s1
