18
gdb 53343	3.6528	0.97189	0.87841	1.9064	81.37	-0.2279	0.0391	0.267	1388.4766	0.147208	-401.866153	-401.857327	-401.856383	-401.901742	31.508	
C	-0.0890312497	 1.446211493	 0.1476185423	-0.499985
C	-0.032392999	-0.0072121529	 0.1109259673	 0.099437
C	 0.0058736404	-1.2105482307	 0.0922510855	 0.121909
C	 0.0448304205	-2.6589486572	 0.0476922284	-0.238229
N	 0.3094241511	-3.3655424657	 1.3503874018	-0.313092
C	-0.8349141827	-4.2838757793	 1.1314129483	-0.069263
C	-2.1163454327	-3.7520247694	 1.7962441909	-0.058157
O	-2.4003201943	-2.9149259099	 0.6418301929	-0.284584
C	-1.2943227514	-3.4525585193	-0.0881181714	 0.111343
H	 0.5368675729	 1.8930110766	-0.6328777734	 0.144801
H	-1.1132432951	 1.8064788208	 0.0006981576	 0.151275
H	 0.2604962702	 1.8293157075	 1.1128086733	 0.150043
H	 0.7297980159	-2.9908130466	-0.7464364057	 0.089692
H	 1.210079461	-3.8293808875	 1.3666642468	 0.221689
H	-0.6298840734	-5.3547685678	 1.1414579704	 0.078564
H	-2.9117275828	-4.4933198091	 1.9462258057	 0.096293
H	-1.958376008	-3.1685851331	 2.7083176997	 0.115235
H	-1.5712605828	-3.8082241594	-1.0829393407	 0.083029
18.5763	62.3204	96.4708	157.5171	239.0373	320.7103	374.5014	403.4557	478.1031	526.4938	652.9917	750.5404	780.1098	796.8053	868.502	924.9798	950.7634	973.3696	1010.0775	1034.0666	1050.7355	1053.1854	1062.5127	1085.7818	1154.2053	1178.6322	1184.1727	1203.2835	1242.4485	1291.9723	1308.4144	1352.1756	1372.6691	1392.3615	1413.5825	1476.8831	1478.4218	1503.9631	2370.6704	2985.7397	3015.3623	3025.8279	3081.5621	3086.1334	3087.699	3088.9984	3105.4108	3544.5046
CC#CC1NC2COC12	CC#C[C@H]1N[C@H]2CO[C@@H]12	
InChI=1S/C7H9NO/c1-2-3-5-7-6(8-5)4-9-7/h5-8H,4H2,1H3	InChI=1S/C7H9NO/c1-2-3-5-7-6(8-5)4-9-7/h5-8H,4H2,1H3/t5-,6+,7+/m1/s1
