17
gdb 52182	4.9892	0.76062	0.73202	3.1824	70.83	-0.2529	0.0164	0.2693	1514.4731	0.136028	-455.191072	-455.182038	-455.181094	-455.226474	31.795	
O	 0.4739639577	 1.0875009918	 1.4099417978	-0.321615
C	 0.1725419581	 1.5818911843	 0.3437831472	 0.151001
N	 0.94990949	 1.5387779267	-0.7705540758	-0.274014
C	 2.2324086514	 0.8485641366	-0.7902456873	-0.176078
C	 3.3654463293	 1.6831410888	-0.1994111764	 0.06097
C	 4.813894129	 1.1789456875	-0.466583946	-0.409451
C	 5.0363504969	 2.5394834856	-1.1733229658	 0.429531
O	 5.9597644258	 3.1134783016	-1.6806754747	-0.350216
N	 3.7158347048	 2.8852754885	-0.9749465233	-0.334212
H	-0.7789991711	 2.1221223411	 0.1698333081	 0.081046
H	 0.6186123427	 1.9839292683	-1.6104955306	 0.254552
H	 2.1319559091	-0.0749428331	-0.2113934884	 0.142601
H	 2.46503207	 0.589839977	-1.8275010616	 0.110443
H	 3.1555132215	 1.8925228359	 0.8534920208	 0.116426
H	 5.4338735095	 1.0335583335	 0.418909853	 0.140718
H	 4.8962016989	 0.3067388028	-1.1190748864	 0.130125
H	 3.2711323363	 3.7905556831	-1.0249561507	 0.248172
33.3308	62.335	90.0283	156.804	244.6014	266.9953	372.9292	407.8522	446.0797	499.7578	530.9151	565.7925	724.9156	772.9239	824.6917	909.4057	935.0754	982.3808	1017.873	1034.139	1053.4965	1079.0124	1148.347	1181.2897	1199.4965	1220.8909	1267.4298	1295.1083	1364.1651	1384.4572	1408.9833	1426.7764	1457.6497	1461.7881	1521.3843	1801.5488	1899.868	2940.893	3052.1269	3073.2246	3084.671	3109.6509	3145.8801	3604.8691	3647.6698
O=CNCC1CC(=O)N1	O=CNC[C@H]1CC(=O)N1	
InChI=1S/C5H8N2O2/c8-3-6-2-4-1-5(9)7-4/h3-4H,1-2H2,(H,6,8)(H,7,9)	InChI=1S/C5H8N2O2/c8-3-6-2-4-1-5(9)7-4/h3-4H,1-2H2,(H,6,8)(H,7,9)/t4-/m1/s1
