16
gdb 21100	3.39562	2.05227	1.30393	4.1459	68.3	-0.2055	0.0108	0.2163	920.4623	0.131342	-376.109312	-376.100991	-376.100047	-376.141937	29.382	
C	 0.0234714403	 1.4289423321	-0.0205551196	-0.332944
N	 0.0025218548	-0.013462766	 0.0772295521	 0.011868
N	-0.0443053501	-0.7577914655	-1.040224921	-0.165791
N	-0.0425020077	-2.0134854286	-0.674370601	-0.258867
C	-0.0089874465	-2.0776143894	 0.681921108	 0.221521
N	-0.0649318904	-3.2952189034	 1.3733799891	-0.597825
C	 0.0124315877	-0.7947602971	 1.1954773579	 0.270622
C	 0.0241506027	-0.2853832466	 2.5948853728	-0.515283
H	 0.9376459931	 1.8379167768	 0.4206200583	 0.141262
H	-0.01203482	 1.6784988799	-1.080858572	 0.169537
H	-0.842081155	 1.8679862046	 0.4851111232	 0.142656
H	-0.0894380853	-4.0600628417	 0.7086382656	 0.251795
H	 0.7218863589	-3.4313049215	 1.9969798802	 0.243548
H	 1.0049859553	 0.1018622343	 2.8989674982	 0.13419
H	-0.7045649646	 0.5192502277	 2.7439371529	 0.13503
H	-0.2388240232	-1.0991651255	 3.2758566153	 0.148681
118.2515	126.0989	159.6855	178.4224	241.2048	260.9339	287.5336	353.1897	504.4603	599.7898	665.3674	715.0896	720.7024	796.3167	835.4775	978.2221	1042.1412	1064.4318	1117.6554	1150.6546	1165.1951	1247.5014	1301.2686	1321.9446	1405.9808	1423.7848	1449.1478	1479.5835	1483.9645	1489.2	1502.5601	1531.3303	1645.8838	1646.5665	3019.5515	3041.853	3071.2639	3102.2004	3116.2851	3162.5619	3521.6358	3607.6906
CN1N=NC(N)=C1C	Cn1nnc(N)c1C	
InChI=1S/C4H8N4/c1-3-4(5)6-7-8(3)2/h5H2,1-2H3	InChI=1S/C4H8N4/c1-3-4(5)6-7-8(3)2/h5H2,1-2H3
