16
gdb 66792	2.99523	2.28755	1.83777	0.6209	68.5	-0.2185	0.0636	0.2821	787.5036	0.126381	-400.666717	-400.660887	-400.659943	-400.696429	25.584	
O	-0.0902269989	 1.3843346241	 0.0786958264	-0.491763
C	-0.0025952944	 0.0049125964	 0.0556876436	 0.40831
C	-1.3503173784	-0.7579470444	 0.0519492626	-0.121467
C	-0.8818341218	-2.1802816433	 0.242755766	-0.07517
C	-0.904105244	-1.586206207	-1.1482447406	-0.077543
C	 0.4564294274	-0.8665257312	-1.1582013209	-0.111088
N	 1.4680828662	-1.6146324459	-0.2905595382	-0.15507
C	 0.5542287303	-2.1801333827	 0.743038706	-0.054321
C	 1.0375852683	-0.7916976473	 0.8993974422	-0.155117
H	 0.7869270088	 1.7504566597	-0.0802633895	 0.287131
H	-2.3237991589	-0.3690005273	 0.3238022103	 0.094667
H	-1.5787694548	-2.9608299671	 0.516926852	 0.093917
H	-1.4702985593	-1.983882451	-1.9807844526	 0.092373
H	 0.8690818364	-0.4520871707	-2.075347192	 0.078646
H	 0.9525600983	-3.0072225992	 1.3187351787	 0.095873
H	 1.7368906548	-0.4198953433	 1.6426720659	 0.090621
266.9596	308.8232	351.2022	556.5977	571.8563	580.812	700.1769	723.1453	750.7972	773.9591	779.994	820.7082	840.2479	855.3726	898.8849	918.3911	935.8139	979.7815	995.5267	1017.1762	1028.4328	1039.2178	1048.1009	1056.3896	1082.2641	1139.4467	1182.2044	1218.4068	1230.8136	1248.1546	1271.6147	1316.6692	1322.5397	1377.8929	1410.8954	3144.7399	3150.7759	3185.2116	3186.2539	3194.2616	3213.581	3800.6757
OC12C3C4C3C1N1C4C21	O[C@@]12[C@@H]3[C@H]4[C@@H]3[C@@H]1N1[C@H]4[C@H]21	
InChI=1S/C7H7NO/c9-7-3-1-2(3)5(7)8-4(1)6(7)8/h1-6,9H	InChI=1S/C7H7NO/c9-7-3-1-2(3)5(7)8-4(1)6(7)8/h1-6,9H/t1-,2+,3-,4-,5+,6-,7+,8?/m1/s1
