17
gdb 48990	3.26342	1.4689	1.30672	2.4581	67.01	-0.2624	-0.0402	0.2222	997.2131	0.136982	-458.977017	-458.96963	-458.968686	-459.009257	28.139	
O	-0.0635701554	 0.0330925558	 0.1959718288	-0.249658
C	 0.0874878757	 1.166374401	-0.1809210052	 0.065866
C	 1.3823462395	 1.9183134621	-0.0548010398	 0.2728
C	 1.4789549248	 2.854713373	 1.1853244551	-0.269039
C	 2.553164247	 3.866734791	 0.6833410378	-0.237392
C	 2.8237867235	 3.3026274253	-0.723964327	 0.181425
O	 3.6132358664	 2.1229296766	-0.6094481498	-0.273622
C	 2.6926878553	 1.1117083632	-0.1645808739	-0.111818
O	 1.5484054355	 2.8453518008	-1.1414273869	-0.282596
H	-0.7372771495	 1.7589165223	-0.633328601	 0.099525
H	 0.5196764995	 3.3435427732	 1.3723806558	 0.115141
H	 1.7688799421	 2.3096208222	 2.0852801791	 0.123079
H	 2.160685913	 4.8848981946	 0.6315131034	 0.11321
H	 3.4608398591	 3.8682246773	 1.2889464506	 0.120649
H	 3.2648337709	 3.9693062678	-1.4639395262	 0.097848
H	 3.0151234906	 0.6871821558	 0.790439416	 0.115079
H	 2.6231891821	 0.3140909879	-0.9109158268	 0.119502
67.1942	154.6337	200.1121	254.2783	350.227	411.2705	456.8189	577.6974	645.6868	699.714	785.3695	833.1171	847.287	875.5923	903.9644	931.2765	974.2838	989.9251	1007.5265	1024.1354	1068.6943	1105.4659	1140.1559	1174.8549	1204.4671	1212.8225	1241.4209	1292.9389	1312.3514	1324.8816	1343.2271	1383.4958	1410.1317	1479.2976	1496.8233	1526.5214	1832.1914	2902.3763	3047.3597	3067.9631	3078.0013	3095.3704	3119.3834	3137.1438	3140.6109
O=CC12CCC(OC1)O2	O=C[C@@]12CC[C@@H](OC1)O2	
InChI=1S/C6H8O3/c7-3-6-2-1-5(9-6)8-4-6/h3,5H,1-2,4H2	InChI=1S/C6H8O3/c7-3-6-2-1-5(9-6)8-4-6/h3,5H,1-2,4H2/t5-,6-/m0/s1
