18
gdb 56236	5.0666	0.63061	0.56982	5.3248	69.97	-0.2534	0.0178	0.2712	1880.159	0.144412	-476.298037	-476.287054	-476.28611	-476.337965	35.959	
C	-0.2163982371	 1.4573573711	 0.0221165198	-0.478718
C	 0.057518797	-0.0261223153	-0.0535052905	 0.4253
O	 1.1403624754	-0.5354229089	-0.1864111308	-0.343238
O	-1.0926619126	-0.7277284717	 0.0492391682	-0.247445
C	-0.9571888138	-2.160227152	-0.002156364	-0.05523
C	-2.3636318201	-2.7332042147	 0.0646911089	-0.338081
C	-2.339524372	-4.25907129	 0.1058717698	 0.416558
N	-3.543830745	-4.8546552647	-0.1337950564	-0.5259
O	-1.3300201645	-4.8959253748	 0.3367192707	-0.353314
H	 0.7201834686	 2.0040237746	-0.0794640557	 0.148636
H	-0.9104720483	 1.7534249479	-0.7694787094	 0.146801
H	-0.689185281	 1.7029054851	 0.9774141541	 0.148112
H	-0.4435263555	-2.4485280815	-0.9226841643	 0.134134
H	-0.3467884125	-2.5094668485	 0.8327990611	 0.143665
H	-2.867072939	-2.3658719724	 0.9678839993	 0.13587
H	-2.9594170605	-2.3841904761	-0.7863271852	 0.120758
H	-4.3887104431	-4.3279925116	-0.2683659808	 0.259194
H	-3.6043705361	-5.8559978167	-0.0487234747	 0.262895
9.4147	47.1918	51.9764	73.5712	100.0191	129.4718	183.3364	230.0607	277.8459	424.4619	462.666	509.6891	606.3954	610.3363	641.0428	660.927	804.5636	846.5598	932.1948	980.7863	1059.3407	1064.0049	1074.857	1084.7182	1116.8689	1216.0683	1254.4108	1272.4243	1296.0101	1374.1371	1392.9874	1425.0457	1469.7105	1471.75	1476.4952	1509.51	1618.254	1797.0653	1828.9089	3034.5749	3056.2781	3072.0097	3078.6578	3120.747	3129.6928	3168.7907	3603.4551	3740.1667
CC(=O)OCCC(N)=O	CC(=O)OCCC(=O)N	
InChI=1S/C5H9NO3/c1-4(7)9-3-2-5(6)8/h2-3H2,1H3,(H2,6,8)	InChI=1S/C5H9NO3/c1-4(7)9-3-2-5(6)8/h2-3H2,1H3,(H2,6,8)
