17
gdb 54164	3.1481	1.11039	0.97664	4.7704	74.45	-0.2657	-0.003	0.2626	1225.7226	0.135255	-418.054341	-418.044972	-418.044028	-418.088581	34.168	
C	 0.0501201945	 1.5294860292	-0.1980188433	-0.506811
C	 0.091893381	 0.0168111447	-0.1272106025	 0.195876
C	 1.4303524183	-0.682020043	-0.1691379695	-0.303935
C	 0.6608532865	-0.6641709264	 1.1292680813	-0.190482
C	 1.1102098183	 0.1397136899	 2.2288233238	 0.2901
N	 1.4684032139	 0.7961007191	 3.1120331436	-0.342495
C	-1.0357244523	-0.7927805266	-0.7365059412	 0.384526
N	-2.0120443174	-0.0838649199	-1.3636776741	-0.54827
O	-1.0539859116	-2.0101795944	-0.671335613	-0.375757
H	 0.9062337075	 1.9682132293	 0.3192751695	 0.152252
H	 0.0816289682	 1.8741082673	-1.2376089245	 0.128421
H	-0.850314073	 1.932180748	 0.2789698815	 0.134767
H	 1.4714280544	-1.6372350381	-0.6773312153	 0.153751
H	 2.3129378935	-0.0574790569	-0.2399251766	 0.136024
H	 0.169759763	-1.592881622	 1.3970569491	 0.158899
H	-2.0262381623	 0.9186412551	-1.4027950655	 0.265388
H	-2.7781873626	-0.5985929253	-1.7656309934	 0.267748
61.3906	122.0231	140.6359	167.4557	253.6525	258.9031	302.3382	349.8855	352.276	426.8329	528.764	553.1492	578.2594	612.7382	696.0078	754.8336	822.7838	850.3695	918.3181	965.5521	1005.3053	1076.8235	1093.1481	1098.9167	1110.3287	1136.0741	1225.6922	1309.4656	1358.3822	1397.26	1425.2727	1464.5859	1496.4503	1509.9339	1617.7982	1776.5018	2351.9452	3031.5038	3092.8681	3124.8188	3149.8878	3184.9568	3250.8617	3613.82	3751.4764
CC1(CC1C#N)C(N)=O	C[C@]1(C[C@H]1C#N)C(=O)N	
InChI=1S/C6H8N2O/c1-6(5(8)9)2-4(6)3-7/h4H,2H2,1H3,(H2,8,9)	InChI=1S/C6H8N2O/c1-6(5(8)9)2-4(6)3-7/h4H,2H2,1H3,(H2,8,9)/t4-,6+/m0/s1
