16
gdb 24296	3.97547	1.71216	1.31229	4.7971	73.8	-0.2088	0.0295	0.2383	934.28	0.128809	-396.937041	-396.930781	-396.929837	-396.967597	25.255	
C	 0.0373091481	 1.4636480332	 0.0203180473	-0.247983
C	 1.2800194635	 0.6549803819	 0.0375599889	-0.031518
C	 1.9555506541	 0.3497517952	 1.3858072437	-0.213562
N	 0.8868056244	-0.3615938297	 2.0606701739	-0.003262
C	 0.6075048745	-0.9449604904	 3.2798332472	-0.161742
C	-0.6536640205	-1.4674512925	 3.1263403793	-0.091985
N	-1.1586862964	-1.2280561342	 1.8579975821	-0.363236
C	-0.2008365273	-0.5686195425	 1.2657518543	 0.413827
N	-0.0461438557	-0.0196905317	-0.0307300323	-0.180414
H	-0.2812261338	 1.9470725839	 0.9401504684	 0.134774
H	-0.2641553944	 1.9619549852	-0.8954077294	 0.13224
H	 1.893130661	 0.5890205324	-0.8542719525	 0.114073
H	 2.8389871901	-0.2840266065	 1.248253984	 0.132128
H	 2.2597632321	 1.2505096013	 1.9296632276	 0.132232
H	 1.3041488622	-0.94951139	 4.100914248	 0.126599
H	-1.231007752	-2.0118581655	 3.8582468195	 0.107829
148.1839	189.3411	328.9026	435.8809	453.8129	625.44	639.7702	700.3109	707.2276	754.5416	779.8359	799.7424	840.9055	853.045	926.1461	946.4224	980.7632	1080.4432	1087.4091	1101.3041	1115.7431	1126.8987	1155.2115	1185.274	1210.7095	1253.2527	1293.95	1316.1062	1375.2896	1413.669	1447.3539	1500.1764	1505.5181	1532.179	1592.635	3034.2148	3071.1553	3115.8283	3175.1079	3210.2685	3248.1761	3282.5136
C1C2CN3C=CN=C3N12	C1[C@H]2Cn3ccnc3N12	
InChI=1S/C6H7N3/c1-2-8-3-5-4-9(5)6(8)7-1/h1-2,5H,3-4H2	InChI=1S/C6H7N3/c1-2-8-3-5-4-9(5)6(8)7-1/h1-2,5H,3-4H2/t5-,9?/m1/s1
