21
gdb 91799	2.24125	1.71009	1.25171	1.1611	77.51	-0.2483	0.0693	0.3176	1088.5859	0.182365	-424.224613	-424.215616	-424.214672	-424.257427	35.71	
C	-0.88383955	 1.0987004188	-0.0525746213	-0.410758
C	 0.0068334935	-0.1434683075	-0.0872128701	-0.026498
C	 1.026168101	-0.1949905462	-1.2497780961	 0.065079
O	 1.4956051712	 1.1285833293	-1.5074138412	-0.421835
C	 2.1538537771	-1.1334573086	-0.7477326507	-0.245107
C	 2.142739475	-1.009230765	 0.7678374778	-0.084541
C	 2.1118716508	 0.3899643769	 1.3658021731	-0.359881
C	 0.8355906954	-0.3903793948	 1.1734837851	 0.402099
O	 0.1564736597	-0.8825600576	 2.292469689	-0.480714
H	-0.2881166237	 2.0095484377	 0.0367981697	 0.13347
H	-1.4886457078	 1.1816044404	-0.9610625498	 0.112249
H	-1.572631809	 1.0452580023	 0.7978218755	 0.099323
H	-0.6343023543	-1.0298120309	-0.1882235858	 0.080214
H	 0.55386084	-0.5929064812	-2.1591143846	 0.06523
H	 2.1789822445	 1.0703145989	-2.1821225015	 0.28218
H	 1.9310730586	-2.1681038192	-1.0357106492	 0.101188
H	 3.1152476765	-0.8716313165	-1.2072296128	 0.085971
H	 2.5747609905	-1.8015541175	 1.3682660786	 0.088317
H	 2.4604507869	 0.4648391089	 2.3906307078	 0.103482
H	 2.3229110614	 1.2430708253	 0.7323650953	 0.128704
H	-0.2323942971	-0.1330750336	 2.7557439111	 0.281826
122.661	195.9091	222.1675	234.1617	266.7752	280.4117	284.9962	341.6443	405.2339	423.5154	443.5652	553.0624	601.045	659.5614	750.0589	802.2058	849.0018	884.5703	905.0451	930.2631	956.3619	1000.3467	1029.4666	1043.0326	1069.8957	1073.6337	1094.5581	1130.3023	1144.6533	1191.7675	1223.5825	1239.5155	1280.1913	1300.887	1332.4046	1337.3823	1346.868	1376.5358	1403.5565	1408.8604	1426.3512	1475.7038	1489.2133	1497.797	1499.8359	2989.8938	3016.1038	3024.5714	3036.52	3060.1385	3095.845	3129.8505	3134.4063	3177.6697	3231.674	3801.273	3822.4489
CC1C(O)CC2CC12O	C[C@H]1[C@@H](O)C[C@H]2C[C@@]12O	
InChI=1S/C7H12O2/c1-4-6(8)2-5-3-7(4,5)9/h4-6,8-9H,2-3H2,1H3	InChI=1S/C7H12O2/c1-4-6(8)2-5-3-7(4,5)9/h4-6,8-9H,2-3H2,1H3/t4-,5-,6-,7+/m0/s1
