19
gdb 112801	2.66323	1.16653	0.9574	3.3576	71.88	-0.2523	-0.0407	0.2116	1261.0536	0.157874	-460.149828	-460.140468	-460.139524	-460.18432	34.145	
O	-0.1034345782	 1.3078947817	 0.1350713981	-0.420199
C	-0.0115606794	-0.1043866915	 0.2359866376	-0.111511
C	-1.4197887248	-0.6474161671	 0.0817232576	 0.037632
C	-2.1144265725	-0.5448229882	-1.2987002841	-0.270659
C	-2.7526553249	-1.9350639936	-1.0385493913	 0.163438
O	-2.9297678674	-2.8425422226	-2.0805015889	-0.436412
C	-1.6613631664	-2.2099447976	 0.0567759933	-0.20096
C	-0.4671879202	-2.9732365276	-0.4349753911	 0.152774
O	-0.2017820654	-3.1736021052	-1.6017265825	-0.274727
H	 0.7862852177	 1.6723760354	 0.1546019657	 0.290267
H	 0.6402400872	-0.5181905947	-0.5496068266	 0.097949
H	 0.4075049108	-0.4097949759	 1.209744551	 0.086358
H	-2.0460844848	-0.2126569578	 0.8660551033	 0.096135
H	-2.7782948432	 0.3024468996	-1.4762172888	 0.109275
H	-1.3830610698	-0.6040055594	-2.1106182277	 0.112302
H	-3.7261354565	-1.8256452865	-0.5504311014	 0.094777
H	-2.0477983049	-3.0337326949	-2.4300725965	 0.294267
H	-1.9879079771	-2.6423962621	 1.0076500261	 0.085119
H	 0.2123120298	-3.3583287821	 0.3573251964	 0.094173
76.4987	104.4495	115.6274	158.9965	226.4094	245.757	274.8472	361.2564	421.3887	426.6309	462.8555	573.0179	628.2869	747.0482	781.3774	820.0109	882.6031	941.9112	970.8104	997.6346	1030.7344	1074.2495	1086.1502	1099.5129	1141.4132	1165.2641	1197.1847	1230.0273	1236.8709	1253.3777	1272.2422	1283.42	1336.8435	1360.6023	1375.7206	1428.1106	1459.4803	1467.9372	1486.2378	1523.9916	1785.8432	2885.3955	2956.0874	2992.4168	3055.0817	3063.9784	3064.5008	3075.4489	3128.6406	3734.0886	3830.6244
OCC1CC(O)C1C=O	OC[C@H]1C[C@@H](O)[C@H]1C=O	
InChI=1S/C6H10O3/c7-2-4-1-6(9)5(4)3-8/h3-7,9H,1-2H2	InChI=1S/C6H10O3/c7-2-4-1-6(9)5(4)3-8/h3-7,9H,1-2H2/t4-,5+,6-/m1/s1
