15
gdb 19683	4.59641	1.94624	1.73548	3.4531	64.25	-0.2341	-0.0285	0.2055	768.5584	0.119323	-362.580754	-362.574486	-362.573542	-362.611272	24.169	
O	-0.2143264547	-0.0525560276	 0.0414108384	-0.24355
C	-0.0630853961	 1.1403423594	-0.0248841464	 0.148865
C	 1.2383450809	 1.8918035983	 0.1026467235	-0.050949
C	 1.5074968594	 2.8040468342	 1.300113984	-0.116715
C	 2.1953622963	 1.9121915975	 2.3556406913	-0.082731
C	 2.2708458321	 0.524002809	 1.744153959	-0.18247
N	 2.5370760301	 1.1717646494	 0.3903158271	-0.179519
C	 2.9564093859	 2.4377998509	 1.1782047616	-0.021232
H	-0.9297281852	 1.8199876377	-0.2116763975	 0.075404
H	 1.3637468038	 2.4596938943	-0.830097787	 0.106396
H	 1.0727263174	 3.7625563485	 1.5537585882	 0.098596
H	 2.2558906941	 2.2293539031	 3.3893775788	 0.09587
H	 3.1761757312	-0.0077038553	 2.0469227022	 0.112404
H	 1.4127452055	-0.1473980014	 1.771726691	 0.134
H	 3.8670049492	 2.999871342	 1.0301860957	 0.105628
94.5341	206.0965	227.2181	409.3915	470.622	669.8805	710.1002	747.7859	789.5496	814.6428	826.4611	858.8089	881.3478	959.1124	998.6854	1007.7866	1020.7791	1029.7928	1045.1111	1075.84	1102.5163	1125.0004	1164.5407	1182.2913	1215.9956	1263.2758	1293.0928	1357.2897	1366.1875	1424.1737	1521.3004	1829.7728	2839.961	3015.2957	3074.6683	3145.9244	3189.9828	3196.3238	3225.8085
O=CC1C2C3CN1C23	O=C[C@H]1[C@H]2[C@H]3CN1[C@@H]23	
InChI=1S/C6H7NO/c8-2-4-5-3-1-7(4)6(3)5/h2-6H,1H2	InChI=1S/C6H7NO/c8-2-4-5-3-1-7(4)6(3)5/h2-6H,1H2/t3-,4+,5-,6-/m1/s1
