19
gdb 10559	2.82462	1.44776	1.08721	2.8792	72.47	-0.247	-0.0236	0.2234	1147.8451	0.164154	-365.053996	-365.045054	-365.04411	-365.08784	32.133	
C	-0.0773421047	 1.6288432164	-0.1271049824	-0.381319
C	-0.0606920782	 0.1050269616	-0.2694427478	-0.169926
C	-1.356077981	-0.5468599117	 0.2390817362	-0.280497
C	-1.3712204436	-2.0553789202	 0.1015507701	 0.224965
C	-2.6357873124	-2.7638210749	-0.2886323692	-0.279868
N	-1.5220087595	-2.6998590082	-1.2279623222	-0.343484
C	-0.4575228654	-2.8297344273	 0.9962247238	 0.147597
O	 0.1348627188	-2.3627076308	 1.9371068676	-0.268222
H	 0.8536798338	 2.0714447921	-0.493805369	 0.115244
H	-0.9034758866	 2.0744174377	-0.6931854002	 0.109861
H	-0.1967585837	 1.9254617677	 0.9206133725	 0.120668
H	 0.096451858	-0.1649251387	-1.3220220468	 0.091792
H	 0.7857370982	-0.309188798	 0.2877544997	 0.125621
H	-1.4925921024	-0.2968868868	 1.2976005182	 0.121591
H	-2.2168218657	-0.1291660685	-0.2995796648	 0.087705
H	-2.8532503354	-3.755374721	 0.1000793312	 0.127533
H	-3.5083551407	-2.134779407	-0.4443095724	 0.125382
H	-1.6870624331	-1.9773682839	-1.9251344536	 0.240288
H	-0.3761771465	-3.9045341885	 0.7202993093	 0.085067
82.0138	87.9785	136.6595	162.1286	236.5297	249.9634	317.1429	340.3697	392.5651	469.3044	547.3725	735.2542	786.3359	813.1872	875.6932	894.8136	907.7762	974.8997	977.3037	1043.6299	1052.2338	1072.8281	1115.6575	1124.3521	1141.925	1247.4962	1259.8652	1309.0944	1324.3073	1341.8302	1378.4729	1401.1685	1412.5627	1428.3517	1469.7033	1492.1086	1500.0641	1508.038	1509.141	1820.1412	2893.7771	3018.5106	3024.209	3029.6495	3065.4746	3079.0542	3101.0797	3105.4486	3106.0252	3192.1854	3499.4763
CCCC1(CN1)C=O	CCC[C@]1(CN1)C=O	
InChI=1S/C6H11NO/c1-2-3-6(5-8)4-7-6/h5,7H,2-4H2,1H3	InChI=1S/C6H11NO/c1-2-3-6(5-8)4-7-6/h5,7H,2-4H2,1H3/t6-/m0/s1
