21
gdb 93787	2.38465	1.42668	1.03893	4.291	78.93	-0.2535	0.0163	0.2698	1233.7284	0.182866	-424.286532	-424.277398	-424.276454	-424.320616	34.45	
C	-0.1658711433	 1.5173285346	 0.1074270537	-0.397669
C	-0.0995715835	 0.0136086146	-0.1098658104	 0.152172
C	 0.7677878983	-0.4057901511	-1.2887156981	-0.216635
C	 0.8725889412	-1.9291803346	-1.3250769003	-0.239276
C	 1.4930864464	-2.4561739376	-0.0215120553	-0.10498
C	 3.0347486888	-2.3981067263	-0.0302272193	-0.393311
C	 0.997863119	-1.7454629548	 1.2417460428	 0.398866
O	 1.2066038462	-2.1926413533	 2.3387052999	-0.334928
O	 0.3682686993	-0.5507716099	 1.1394294214	-0.244028
H	 0.8360400829	 1.9263781972	 0.2694397698	 0.126933
H	-0.6060552846	 2.0066547544	-0.7667383217	 0.117747
H	-0.7773929704	 1.7501287209	 0.9826144326	 0.134947
H	-1.1165702087	-0.3751538843	-0.2651348181	 0.0889
H	 0.3204229216	-0.0189421516	-2.2103608883	 0.106402
H	 1.7598177519	 0.0531073401	-1.1953872771	 0.108677
H	-0.1319776143	-2.3505567522	-1.4564377654	 0.102295
H	 1.4668373496	-2.2658972745	-2.1810867535	 0.100662
H	 1.211040735	-3.5038452509	 0.123917885	 0.109184
H	 3.4017145792	-1.3779600019	-0.1836504354	 0.120751
H	 3.4305586554	-2.7615760337	 0.9201375527	 0.147069
H	 3.4281965598	-3.0227467553	-0.8379564452	 0.116223
53.2248	92.6263	217.5986	227.329	236.4148	273.1802	285.3786	347.4396	435.6599	462.2098	466.0551	548.6428	633.8846	707.7156	754.2543	835.2594	865.5487	935.5728	942.5435	981.945	994.6303	1026.0234	1048.2323	1106.5428	1115.1709	1159.4688	1163.0896	1218.7368	1240.5661	1259.6763	1324.2573	1339.5367	1348.3116	1378.1838	1385.6167	1403.8224	1407.6497	1413.013	1477.1493	1485.4921	1494.0533	1498.1784	1499.5532	1508.0286	1827.6068	2998.1935	3024.758	3034.2909	3040.8037	3044.4579	3058.8335	3071.1637	3083.0888	3107.132	3117.6598	3127.8508	3135.7917
CC1CCC(C)C(=O)O1	C[C@H]1CC[C@@H](C)C(=O)O1	
InChI=1S/C7H12O2/c1-5-3-4-6(2)9-7(5)8/h5-6H,3-4H2,1-2H3	InChI=1S/C7H12O2/c1-5-3-4-6(2)9-7(5)8/h5-6H,3-4H2,1-2H3/t5-,6+/m1/s1
