16
gdb 34827	5.04615	1.09491	1.01183	5.4629	75.14	-0.2599	0.0228	0.2828	1154.6681	0.126055	-396.829465	-396.822183	-396.821239	-396.861195	28.257	
N	-0.1187255578	-1.1512467518	-0.1577688777	-0.326297
C	-0.0369743851	-0.0033458393	-0.0513063036	 0.279413
C	 0.0045078056	 1.4470062893	 0.0212459692	-0.141694
C	 0.1084544308	 2.1188789502	 1.4282325188	-0.1082
N	 1.5175478785	 1.5520461565	 1.5034743978	-0.305631
C	 1.4038411495	 2.1425335703	 0.1082444593	-0.135256
C	 0.6716942487	 3.3581575134	 0.706564398	 0.423162
N	-0.0049008898	 4.5005151306	 0.1464387952	-0.393053
C	 1.1086746217	 4.6936073811	 1.1277034705	-0.357062
H	-0.7128196884	 1.9012000228	-0.6638885789	 0.130927
H	-0.6005466543	 2.0430701304	 2.2507123122	 0.110945
H	 2.0971932713	 2.1675686881	 2.0820691753	 0.218887
H	 2.2146168906	 2.0910385466	-0.6183574438	 0.10493
H	 0.3188790587	 4.6999390296	-0.7975710367	 0.239233
H	 0.7974677274	 5.1089236537	 2.082023528	 0.134433
H	 2.0600534025	 5.0679652786	 0.7578378862	 0.125262
124.2007	139.7898	231.8779	276.5722	338.0371	420.0719	468.4126	550.1894	595.3629	694.9772	768.3035	819.2718	864.707	873.4473	898.9336	915.672	956.8514	974.8756	1015.1832	1058.015	1072.9846	1109.3704	1124.0938	1133.4946	1170.4643	1171.8925	1207.9731	1240.1285	1255.1818	1279.2888	1293.9561	1371.0367	1449.9203	1529.2083	2361.2334	3108.6259	3112.66	3124.2982	3142.4631	3194.2944	3400.3246	3493.9698
N#CC1C2NC1C21NC1	N#C[C@H]1[C@H]2N[C@@H]1[C@]12NC1	
InChI=1S/C6H7N3/c7-1-3-4-6(2-8-6)5(3)9-4/h3-5,8-9H,2H2	InChI=1S/C6H7N3/c7-1-3-4-6(2-8-6)5(3)9-4/h3-5,8-9H,2H2/t3-,4+,5-,6-
