14
gdb 5508	3.71792	2.01351	1.31703	3.8688	74.35	-0.2167	-0.0138	0.2029	881.1756	0.107777	-341.590874	-341.583455	-341.58251	-341.622809	26.884	
C	 0.002020039	 1.4431434049	 0.0330132909	-0.348631
N	 0.0149162368	-0.0073500904	-0.00008774	-0.044484
C	 0.0363130539	-0.794685171	-1.1216205689	-0.118824
C	 0.0465923264	-2.0931767372	-0.672092109	-0.104261
N	 0.032031043	-2.1315552902	 0.6920167415	-0.312009
C	 0.0128349721	-0.8637636895	 1.0793202894	 0.193526
C	-0.007570792	-0.4002072816	 2.4148135907	 0.267269
C	-0.0248946694	 0.0107654351	 3.5468210599	-0.42368
H	 0.9061637255	 1.8485289091	-0.4309605793	 0.145661
H	-0.8737833327	 1.8320927354	-0.4945509822	 0.145536
H	-0.0378456854	 1.7666104915	 1.0734278594	 0.163242
H	 0.0421069745	-0.3657555353	-2.110435268	 0.128744
H	 0.0632024797	-2.9979577366	-1.2605277613	 0.110815
H	-0.0397605413	 0.3547768559	 4.551233157	 0.197099
69.4126	156.7956	157.1643	215.1909	344.6988	458.2351	541.9627	553.0377	605.5172	635.083	685.0365	722.8291	728.6261	751.4099	857.7666	930.4477	1064.3015	1105.533	1152.6701	1169.9495	1219.8409	1311.035	1384.2806	1430.8106	1453.863	1490.6396	1499.2092	1507.8601	1545.3553	2230.7634	3044.5796	3106.7174	3154.2032	3247.1941	3273.8783	3502.649
CN1C=CN=C1C#C	Cn1ccnc1C#C	
InChI=1S/C6H6N2/c1-3-6-7-4-5-8(6)2/h1,4-5H,2H3	InChI=1S/C6H6N2/c1-3-6-7-4-5-8(6)2/h1,4-5H,2H3
