16
gdb 28157	5.15939	1.25767	1.01759	1.6019	78.61	-0.184	0.0338	0.2178	1132.1441	0.126299	-400.791118	-400.783613	-400.782669	-400.822888	28.936	
C	-0.0170750703	 1.4735256736	 0.0916087337	-0.500418
C	-0.0015072581	-0.0118404422	-0.047606831	 0.335937
C	-0.0428957973	-0.8067088585	-1.1727224454	-0.431493
C	-0.0015954137	-2.1713742023	-0.7333624624	 0.267494
C	 0.0626043566	-2.115857008	 0.6381060837	 0.404748
N	 0.0645543248	-0.8332226764	 1.0874422992	-0.464253
O	 0.1093462625	-3.3119378311	 1.2459282315	-0.222783
C	 0.0726872208	-4.2151533436	 0.1847844126	-0.026342
C	 0.005999552	-3.5844107082	-1.0189151405	-0.34906
H	 0.8860289922	 1.8559901598	 0.5848203456	 0.125095
H	-0.0716128207	 1.9339181592	-0.8975069927	 0.139239
H	-0.8796701697	 1.8294785261	 0.6698388762	 0.125078
H	-0.0964700799	-0.4322328416	-2.1835928759	 0.093835
H	 0.1051740179	-0.5177882678	 2.0401254906	 0.264565
H	 0.1022926489	-5.2499366781	 0.4796584301	 0.12941
H	-0.032039636	-4.079745691	-1.9769369754	 0.108947
126.0246	142.5092	230.7477	275.0744	309.5033	359.0295	493.4758	554.5457	584.9822	621.6375	671.153	740.3285	750.6818	781.6381	808.7354	815.4188	913.5655	978.9385	1005.8484	1023.4527	1062.3972	1126.1281	1151.4214	1188.8237	1238.7646	1311.0119	1367.5625	1415.116	1461.367	1478.2054	1496.6652	1527.0268	1552.0796	1591.9344	1615.9499	3011.178	3052.9363	3122.6196	3246.5934	3250.9148	3293.7347	3689.3057
CC1=CC2=C(N1)OC=C2	Cc1cc2c([nH]1)occ2	
InChI=1S/C7H7NO/c1-5-4-6-2-3-9-7(6)8-5/h2-4,8H,1H3	InChI=1S/C7H7NO/c1-5-4-6-2-3-9-7(6)8-5/h2-4,8H,1H3
