23
gdb 58626	2.24318	1.2904	1.03502	0.6317	81.02	-0.2619	0.0672	0.3291	1285.9052	0.203293	-425.411868	-425.401283	-425.400339	-425.446835	40.528	
C	-1.3883243903	-0.029847542	-0.1014660742	-0.416028
C	 0.1312962446	-0.0878349369	 0.0790248111	 0.046711
O	 0.4590259468	-0.7822134021	 1.2804839494	-0.430534
C	 0.8607023855	-0.6685565183	-1.1436183497	 0.347855
C	 2.2115488371	-1.2957887106	-0.906691674	-0.316373
C	 1.0189177316	-2.165881254	-1.229325846	-0.316392
C	 0.6380412959	 0.0912726593	-2.4616460068	 0.046708
C	 1.0751206759	 1.5571949835	-2.3894338059	-0.416027
O	 1.2634848477	-0.5558628778	-3.5675919497	-0.430534
H	-1.6828410374	 0.6395289327	-0.9148251934	 0.124182
H	-1.788257657	-1.0253262013	-0.3305514208	 0.11485
H	-1.8550029976	 0.3293272376	 0.8199280982	 0.122566
H	 0.5062067238	 0.9273094075	 0.255509185	 0.087725
H	-0.0464607889	-1.6017794667	 1.2938866462	 0.280512
H	 2.9806844415	-1.1967244934	-1.6655751409	 0.085807
H	 2.5752367284	-1.3045364598	 0.1131938401	 0.12666
H	 0.6198510101	-2.785937542	-0.4333601557	 0.085811
H	 0.9748789512	-2.6071456691	-2.2171800463	 0.126659
H	-0.42971889	 0.0515408554	-2.7076677053	 0.087727
H	 0.9535961242	 2.0262552481	-3.3697284811	 0.122564
H	 0.4882767806	 2.1283644708	-1.6643537952	 0.124185
H	 2.1291500132	 1.6318220791	-2.0947188663	 0.11485
H	 2.203220573	-0.34761019	-3.5373540989	 0.280515
71.624	78.9756	197.2349	211.8133	246.7598	267.7274	274.9297	281.8008	317.9472	320.2981	357.5374	406.881	416.5624	486.9675	500.113	616.2363	672.1157	788.2294	826.8393	893.2704	907.917	925.395	925.8004	979.1678	1047.0706	1057.4371	1058.2439	1070.177	1084.0594	1088.6254	1115.512	1142.1073	1193.3176	1250.6307	1295.5885	1307.4786	1329.7781	1347.8419	1360.9425	1401.3347	1403.9614	1429.0655	1432.1792	1445.9266	1490.7775	1494.8594	1495.2189	1498.2087	1500.5777	3027.2285	3029.5831	3037.7323	3041.2789	3099.7289	3102.5812	3118.5525	3118.9588	3134.7	3135.6865	3222.5843	3234.6039	3809.3078	3809.5869
CC(O)C1(CC1)C(C)O	C[C@@H](O)C1(CC1)[C@@H](C)O	
InChI=1S/C7H14O2/c1-5(8)7(3-4-7)6(2)9/h5-6,8-9H,3-4H2,1-2H3	InChI=1S/C7H14O2/c1-5(8)7(3-4-7)6(2)9/h5-6,8-9H,3-4H2,1-2H3/t5-,6-/m1/s1
