20
gdb 86791	3.07326	0.99059	0.84956	5.6288	79.69	-0.2594	0.035	0.2944	1409.4411	0.169747	-403.155909	-403.146216	-403.145272	-403.19143	34.921	
C	 0.2194770309	 1.4935388281	-0.2591866512	-0.404171
C	 0.0773577585	 0.0206403688	 0.0626170683	 0.159003
O	 0.8944376309	-0.8143683662	-0.7983322414	-0.303857
C	 1.3790276933	-1.5777590108	 0.3163171632	 0.149658
C	 2.9035543392	-1.7376589464	 0.2896889226	-0.364611
C	 3.3466347072	-2.6008576207	-0.803014156	 0.268829
N	 3.6929053445	-3.2945935026	-1.6594945347	-0.301859
C	 0.732605687	-0.5981363133	 1.3342912294	-0.096376
C	 1.6448081823	 0.2832635589	 2.1801914533	-0.411258
H	 1.2568916342	 1.8284556236	-0.1829845824	 0.119957
H	-0.1197439869	 1.6774526126	-1.2833361841	 0.135592
H	-0.3972065683	 2.097603669	 0.414845711	 0.119149
H	-0.9783796217	-0.2725252446	-0.0275003696	 0.078934
H	 0.92135176	-2.5764880849	 0.3396042434	 0.091599
H	 3.3815194356	-0.7597091573	 0.1825063282	 0.152809
H	 3.2437228567	-2.1729017386	 1.2369017309	 0.150942
H	 0.0086427771	-1.0927335251	 1.986730822	 0.083562
H	 2.3994863754	 0.8070843799	 1.5871102859	 0.125176
H	 1.0599680516	 1.0422054833	 2.7093528363	 0.12527
H	 2.1679155926	-0.3105498934	 2.9372174448	 0.121648
37.4441	60.6037	120.1019	209.2714	210.2879	234.5935	272.3799	360.5828	373.1053	391.2776	461.3084	481.6204	545.9006	751.9233	770.3066	835.808	884.9792	910.9584	943.3847	994.5943	1018.1833	1044.2035	1062.5707	1096.0261	1130.5828	1167.1409	1183.3217	1228.4447	1256.2424	1282.3379	1298.8251	1347.8085	1377.2287	1377.681	1400.908	1414.1372	1429.0988	1450.4622	1479.6758	1489.9293	1502.0541	1508.7367	2364.8321	2995.7405	3005.0927	3037.0775	3041.47	3047.97	3072.2484	3099.1712	3101.5736	3109.5175	3113.6677	3126.0304
CC1OC(CC#N)C1C	C[C@H]1O[C@@H](CC#N)[C@H]1C	
InChI=1S/C7H11NO/c1-5-6(2)9-7(5)3-4-8/h5-7H,3H2,1-2H3	InChI=1S/C7H11NO/c1-5-6(2)9-7(5)3-4-8/h5-7H,3H2,1-2H3/t5-,6+,7-/m0/s1
