16
gdb 21998	2.56678	1.56137	0.97183	3.5764	81.95	-0.1593	0.0086	0.168	1144.0353	0.126292	-434.058244	-434.049969	-434.049025	-434.090544	32.321	
N	 0.0946159059	 1.367425659	-0.0021244165	-0.588662
C	 0.0237868586	-0.0195703676	 0.0132223047	 0.219522
C	-1.1408952289	-0.7143260154	 0.0839137529	-0.090858
N	-1.1493671275	-2.0992826223	 0.1608162166	-0.334807
C	 0.0142666416	-2.8056584602	 0.1663755983	 0.013965
C	 1.2161490771	-2.1824501754	 0.0865558779	-0.244431
C	 1.2972474616	-0.7432421027	-0.00379456	 0.344196
N	 2.3700886499	-0.0171037337	-0.1091954536	-0.304111
O	 3.5281905531	-0.8335196023	-0.1442115594	-0.414327
H	 0.9905257381	 1.6895356125	-0.345861807	 0.258511
H	-0.6914542663	 1.8426447338	-0.4196829151	 0.237817
H	-2.1101771223	-0.2332047384	 0.0941601283	 0.106682
H	-2.0288493039	-2.5793722089	 0.2244322942	 0.259966
H	-0.0862793368	-3.8818452571	 0.2358090009	 0.12241
H	 2.1293979314	-2.7577355238	 0.0849403329	 0.117806
H	 4.2292844583	-0.1767737776	-0.1848401052	 0.296321
125.462	220.1527	228.6684	273.2218	321.6135	330.6615	341.4495	361.0762	485.4867	497.8322	552.6644	558.9841	603.0196	638.1497	733.7475	793.9712	803.851	810.7674	879.6356	924.3497	997.1723	1032.593	1103.9474	1180.0452	1247.8444	1261.5266	1317.1208	1357.5973	1428.8855	1470.2381	1546.4905	1622.2812	1630.7717	1658.5089	1703.7696	3206.824	3212.7652	3253.75	3539.826	3655.9539	3685.7945	3837.477
NC1=CNC=CC1=NO	Nc1c[nH]ccc1=NO	
InChI=1S/C5H7N3O/c6-4-3-7-2-1-5(4)8-9/h1-3,9H,6H2,(H,7,8)	InChI=1S/C5H7N3O/c6-4-3-7-2-1-5(4)8-9/h1-3,9H,6H2,(H,7,8)
