22
gdb 59734	2.46209	1.34857	0.91816	3.5782	82.73	-0.2354	0.0352	0.2706	1319.411	0.195242	-404.410268	-404.400831	-404.399887	-404.444495	35.691	
C	 0.0035983784	 1.5485023195	-0.0466492723	-0.394836
C	 0.0664195412	 0.0168632098	 0.0541207117	 0.032157
C	 0.7727395082	-0.4015151022	 1.3525294748	-0.401833
C	-1.3373598876	-0.6108313824	-0.058485223	-0.097203
C	-2.189211297	-0.1450634995	-1.2572794408	-0.234617
C	-3.1393048642	-1.3263307421	-1.5359590385	-0.177899
N	-2.3489695635	-2.4567251951	-1.0867681438	-0.303073
C	-1.3436178897	-2.1466920998	-0.2116613991	 0.411757
O	-0.6213575335	-2.957481182	 0.3319898399	-0.384977
H	 1.0061679922	 1.9784068576	 0.046083863	 0.112495
H	-0.4159380213	 1.8893630009	-0.9979050255	 0.109058
H	-0.6099436966	 1.9681863075	 0.7601306182	 0.109473
H	 0.6586535572	-0.3558886828	-0.7940496737	 0.075853
H	 1.7884238059	 0.0068271204	 1.3838647236	 0.10075
H	 0.2340642112	-0.0104994134	 2.2250725217	 0.100612
H	 0.8218285583	-1.4871369288	 1.4391403333	 0.157147
H	-1.8831638668	-0.4016859463	 0.8749778309	 0.093832
H	-2.7303191609	 0.7849190539	-1.0746162153	 0.110059
H	-1.5409182025	 0.0092219789	-2.1272369499	 0.113625
H	-4.0763803059	-1.231895727	-0.9674378467	 0.105325
H	-3.3999297453	-1.4146066788	-2.5953808626	 0.113164
H	-2.6172640475	-3.4184699182	-1.222511106	 0.249132
64.7615	107.0122	174.7173	195.5981	235.6167	249.9545	295.8975	334.8716	358.5513	437.8977	499.5801	553.332	571.7222	679.4095	704.312	807.6523	869.7591	898.4663	932.2239	952.6645	964.953	984.5408	1001.1424	1068.3525	1090.9079	1148.9567	1165.0744	1197.3267	1205.524	1228.9075	1253.634	1282.3282	1303.574	1339.9082	1344.1913	1366.6894	1382.7542	1397.2715	1418.5673	1447.8241	1488.8618	1490.814	1496.5553	1504.0243	1519.059	1535.4165	1812.5045	2986.6283	2991.923	3004.6692	3022.95	3028.4261	3045.2013	3068.2103	3084.1157	3092.5538	3104.1881	3115.2369	3152.5186	3641.0133
CC(C)C1CCNC1=O	CC(C)[C@H]1CCNC1=O	
InChI=1S/C7H13NO/c1-5(2)6-3-4-8-7(6)9/h5-6H,3-4H2,1-2H3,(H,8,9)	InChI=1S/C7H13NO/c1-5(2)6-3-4-8-7(6)9/h5-6H,3-4H2,1-2H3,(H,8,9)/t6-/m1/s1
