17
gdb 111677	2.84366	1.22851	1.11879	1.2953	68.84	-0.2464	-0.0259	0.2205	1138.8411	0.13525	-458.950973	-458.94256	-458.941616	-458.984726	30.661	
O	-0.1852049055	 1.4719354475	 0.1573577081	-0.418805
C	 0.0063480391	 0.0735429955	 0.3103247084	-0.108534
C	-1.3421455443	-0.5710163534	 0.1133289213	-0.037201
C	-1.8119224023	-1.121878144	-1.1902687469	 0.087243
O	-0.8425988613	-1.2924000822	-2.2010040146	-0.258461
C	-0.0140252072	-2.4080214591	-1.9113054533	-0.187916
C	-0.401483421	-2.9245720049	-0.5191704741	 0.371979
O	 0.082875534	-3.8812267389	 0.029087634	-0.315846
C	-1.5493079299	-2.0851828036	-0.0539845993	-0.238397
H	 0.6588016641	 1.90802712	 0.3072975952	 0.29009
H	 0.7294215253	-0.3100051789	-0.4222708683	 0.099617
H	 0.3865958058	-0.1707932794	 1.3143330247	 0.099306
H	-2.1159782298	-0.1140190873	 0.7249156832	 0.112514
H	-2.8008122449	-0.9051505656	-1.5786948818	 0.11318
H	-0.1763558588	-3.2081929704	-2.6468883282	 0.136128
H	 1.0445973437	-2.1255353281	-1.9476487675	 0.135005
H	-2.3118591669	-2.5709975071	 0.5412397791	 0.120098
67.1305	88.3533	135.4845	194.0679	241.4763	267.3564	417.4305	448.7288	555.7103	593.5512	616.4268	709.9538	755.0407	804.4835	873.5211	938.356	949.9383	981.3811	1036.7754	1037.4047	1060.1925	1076.2853	1108.7769	1136.8282	1183.2871	1198.5459	1213.3056	1256.8901	1277.4515	1300.3416	1318.3544	1360.1358	1415.7124	1475.3633	1484.527	1511.7685	1840.7889	2982.2576	3012.9696	3028.07	3061.2058	3148.0025	3175.1349	3198.9417	3830.2127
OCC1C2OCC(=O)C12	OC[C@H]1[C@H]2OCC(=O)[C@@H]12	
InChI=1S/C6H8O3/c7-1-3-5-4(8)2-9-6(3)5/h3,5-7H,1-2H2	InChI=1S/C6H8O3/c7-1-3-5-4(8)2-9-6(3)5/h3,5-7H,1-2H2/t3-,5-,6-/m1/s1
