21
gdb 113219	4.00696	0.86047	0.85069	1.22	80.1	-0.2425	0.0813	0.3238	1485.0079	0.180759	-424.192363	-424.182769	-424.181825	-424.226941	35.98	
C	-0.3495829054	 1.4288129148	 0.1065807853	-0.370997
C	 0.2714740722	 0.0424790359	-0.0988044872	-0.20487
C	 0.9176574404	-0.5070942936	 1.1553711283	-0.060918
C	 0.0742092993	-1.1657784154	 2.2326498514	-0.341484
C	 0.9987967169	-2.0028818979	 1.4013528372	 0.383398
O	 0.3820630043	-2.8704304505	 0.4928911753	-0.469454
C	 2.2456671638	-2.5746420551	 2.0016476533	 0.018292
C	 2.4177468465	-4.0190383626	 2.1898417663	-0.18902
O	 3.0420162107	-3.3426402173	 1.0855734525	-0.255916
H	 0.4037485789	 2.1601425624	 0.4199565336	 0.111255
H	-0.8071867363	 1.7974620088	-0.8169104133	 0.110615
H	-1.1247116976	 1.4019242006	 0.8796493347	 0.116543
H	-0.4895096837	-0.6650502819	-0.4430681903	 0.112682
H	 1.0236771457	 0.0939787934	-0.8970976635	 0.095019
H	 1.7676235622	 0.0692459436	 1.5173579991	 0.07973
H	 0.3120193421	-0.9962255675	 3.2776381328	 0.110142
H	-0.9831392288	-1.2935070391	 2.0243450347	 0.125361
H	 1.0853520813	-3.1696378174	-0.0998045111	 0.29093
H	 2.8163730926	-1.8947587196	 2.6348324751	 0.094216
H	 3.1033745527	-4.3860960299	 2.9513716319	 0.11713
H	 1.6033019623	-4.6858512216	 1.918733924	 0.127344
66.9965	96.6568	146.089	153.1932	231.0095	256.2035	284.3063	341.8572	351.5231	449.8847	466.7061	528.3602	622.7158	736.321	777.8999	804.1219	839.5199	871.5147	905.068	943.4165	960.8051	975.1811	1018.9692	1053.8564	1063.1613	1092.0997	1104.0113	1125.8674	1156.278	1169.102	1192.4537	1224.8828	1270.3553	1289.9568	1320.7334	1344.0812	1374.0131	1406.9292	1412.516	1451.9792	1490.0271	1497.3346	1499.2611	1509.3473	1520.3061	3022.0829	3030.3355	3074.088	3096.8257	3099.5407	3103.2392	3109.0971	3119.9484	3127.9747	3193.1527	3215.7951	3755.0409
CCC1CC1(O)C1CO1	CC[C@H]1C[C@]1(O)[C@H]1CO1	
InChI=1S/C7H12O2/c1-2-5-3-7(5,8)6-4-9-6/h5-6,8H,2-4H2,1H3	InChI=1S/C7H12O2/c1-2-5-3-7(5,8)6-4-9-6/h5-6,8H,2-4H2,1H3/t5-,6+,7+/m0/s1
