20
gdb 69834	2.86872	1.69345	1.33838	1.2039	77.88	-0.2168	0.0818	0.2986	1022.8652	0.172107	-403.098105	-403.090423	-403.089479	-403.129654	31.62	
C	 0.1625641683	 1.5133441875	 0.006154269	-0.463753
C	-0.1295062004	 0.0283288899	 0.0069369723	 0.325391
C	-0.9610317028	-0.5945954377	 1.0836566774	-0.296217
N	 0.4900903265	-0.7275458675	 1.105026073	-0.116099
C	 1.1742693281	-1.9583739953	 0.7979425047	-0.023986
C	 0.5708755241	-3.1309272932	 0.0258747907	-0.364091
C	 1.5517246865	-2.1979143833	-0.6395846455	 0.136469
O	 1.1562964747	-1.2726883727	-1.61092978	-0.251341
C	-0.0991325595	-0.6495295985	-1.3596246444	-0.177566
H	 1.1200931392	 1.7137744903	-0.4870537702	 0.128551
H	-0.6173975385	 2.0675689596	-0.5289673581	 0.11175
H	 0.2217871827	 1.8933624776	 1.0288866834	 0.124888
H	-1.3776954647	 0.0203487266	 1.8778469468	 0.112242
H	-1.565488168	-1.4617974852	 0.8235036851	 0.106724
H	 1.9001774538	-2.2178761952	 1.5626781409	 0.098498
H	 0.9179757403	-4.124622352	 0.2873515258	 0.114778
H	-0.4734386332	-3.0966687892	-0.258255831	 0.117828
H	 2.5446976712	-2.5603230117	-0.8798234709	 0.103972
H	-0.9130980316	-1.3790588642	-1.4702237134	 0.096217
H	-0.2135779267	 0.0921114643	-2.1538186456	 0.115744
158.9413	194.8505	222.3711	302.9066	361.762	382.5944	412.3709	456.623	531.5295	546.9109	639.7601	700.5043	770.8773	796.2942	825.2972	872.1416	918.4051	930.8104	968.5704	987.3514	1006.7591	1023.4632	1056.0992	1067.509	1104.0357	1116.611	1122.7239	1131.0024	1168.3273	1209.1104	1251.4742	1267.4276	1297.8049	1360.2996	1379.9381	1395.092	1413.5053	1419.7084	1472.7833	1485.0242	1494.2352	1504.0174	1519.0522	3003.2374	3028.0172	3090.6509	3091.2715	3096.9012	3121.8612	3140.7094	3145.8867	3173.2849	3176.8387	3230.7836
CC12CN1C1CC1OC2	C[C@]12CN1[C@H]1C[C@H]1OC2	
InChI=1S/C7H11NO/c1-7-3-8(7)5-2-6(5)9-4-7/h5-6H,2-4H2,1H3	InChI=1S/C7H11NO/c1-7-3-8(7)5-2-6(5)9-4-7/h5-6H,2-4H2,1H3/t5-,6+,7+,8?/m0/s1
