23
gdb 115873	2.40246	1.34646	1.02364	1.2149	84.8	-0.2498	0.0754	0.3252	1281.7241	0.2063	-388.298259	-388.289026	-388.288081	-388.331843	36.296	
C	 0.0463874658	 1.5843504329	 0.0149626682	-0.385892
C	 0.0154274068	 0.0526726858	 0.0245598391	-0.194312
C	-1.3965948227	-0.5416926374	-0.0158537568	-0.004884
C	-2.1994628267	-0.2489303956	-1.3054556814	-0.24349
C	-3.2404363851	-1.3908895869	-1.4121284898	-0.223317
C	-2.577559337	-2.578945192	-0.7322158445	-0.080675
C	-1.1399265625	-2.8934203094	-1.1140018728	-0.360935
C	-1.4465897431	-2.0638429199	 0.1107522786	 0.40486
O	-1.2257087028	-2.6137302754	 1.3769107382	-0.479719
H	 1.0719490887	 1.9613708148	 0.0784682601	 0.110162
H	-0.3987230766	 1.9883138626	-0.9001501126	 0.118201
H	-0.5123518799	 1.9949266134	 0.8635682896	 0.114827
H	 0.5933200776	-0.3344897011	-0.8253765643	 0.091782
H	 0.5225922404	-0.307671833	 0.9302742873	 0.081656
H	-1.956612551	-0.1549621477	 0.8483556494	 0.073863
H	-2.668715612	 0.7379586114	-1.2930392327	 0.099409
H	-1.5272469788	-0.2644764165	-2.1716162147	 0.098756
H	-4.1532477381	-1.1268847432	-0.8646692684	 0.100678
H	-3.5327742711	-1.5882696191	-2.4492558747	 0.095023
H	-3.1875202707	-3.4000725771	-0.3731730707	 0.0888
H	-0.8134945027	-3.9091834957	-0.9189474177	 0.108891
H	-0.6994578758	-2.4406280769	-1.9968830679	 0.10517
H	-0.2745279427	-2.6477880038	 1.5241607682	 0.281146
89.1568	128.5935	176.1651	230.7406	247.072	276.0678	292.7211	332.7747	412.3901	456.1365	502.1959	545.607	625.5037	701.959	775.9624	818.3047	843.5522	877.2532	927.7835	932.5815	945.9643	971.8138	983.7194	1015.1415	1039.9897	1065.0293	1069.809	1090.7055	1137.6245	1148.301	1186.8216	1223.4883	1240.3803	1273.4298	1288.2703	1312.4068	1318.8801	1337.7479	1344.4632	1356.8466	1391.8846	1406.9686	1411.4337	1481.4679	1485.8956	1492.4578	1500.6258	1506.9889	1511.5265	2997.54	3005.3104	3031.0088	3031.085	3036.2832	3041.6932	3069.2643	3095.6548	3097.642	3103.3307	3124.4339	3176.7589	3213.0926	3799.588
CCC1CCC2CC12O	CC[C@H]1CC[C@H]2C[C@@]12O	
InChI=1S/C8H14O/c1-2-6-3-4-7-5-8(6,7)9/h6-7,9H,2-5H2,1H3	InChI=1S/C8H14O/c1-2-6-3-4-7-5-8(6,7)9/h6-7,9H,2-5H2,1H3/t6-,7-,8+/m0/s1
