18
gdb 90813	3.06548	1.83786	1.49855	1.8893	72.88	-0.2154	0.0596	0.275	913.2657	0.149879	-401.868712	-401.861865	-401.860921	-401.899941	28.381	
O	 0.1487097378	 1.3766384228	-0.312457044	-0.438467
C	 0.092024891	-0.0198252132	-0.0244991095	 0.100252
C	 0.887081394	-0.3945319447	 1.2431703766	-0.189255
N	 0.0899435624	-0.7906817249	 2.4019980437	-0.09199
C	-1.2628672128	-0.3277292817	 2.6493085412	-0.073173
C	-2.1332662362	-0.1566395322	 1.3592342751	-0.114825
C	-1.8269803249	-1.5945234891	 0.9790210986	-0.107576
C	-1.3466838717	-0.4616041444	 0.1065903417	-0.079792
C	-0.9821729305	-1.750969621	 2.285036911	-0.067257
H	-0.4240786936	 1.8200291799	 0.3238504651	 0.278287
H	 0.551272729	-0.4930887413	-0.8981710645	 0.087396
H	 1.5660910574	-1.2286595683	 1.036866575	 0.108278
H	 1.5039055542	 0.4649612248	 1.5248559297	 0.113906
H	-1.4989994479	 0.1242644143	 3.6059161934	 0.096168
H	-3.0914125027	 0.3452937972	 1.3520395653	 0.092666
H	-2.5145353664	-2.3483028672	 0.6192606666	 0.091459
H	-1.9279151211	-0.3388749272	-0.8037651601	 0.099227
H	-0.9657850878	-2.6486983939	 2.892610935	 0.094695
71.6323	238.7094	313.7894	389.1068	422.7185	515.9068	525.2594	603.3725	690.1604	727.485	734.6699	765.6139	832.799	856.1024	884.1044	903.3908	930.6304	959.1115	966.5275	1012.378	1024.3373	1031.3334	1056.0814	1082.111	1097.0002	1100.336	1155.762	1233.1922	1246.0573	1263.7609	1265.2444	1292.8312	1309.3183	1330.3534	1359.7542	1381.4369	1429.4204	1439.7906	1478.6326	3038.2269	3056.482	3087.1808	3144.9546	3166.659	3177.7396	3196.9367	3207.6525	3793.3389
OC1CN2C3C4C(C14)C23	O[C@H]1CN2[C@H]3[C@@H]4[C@@H]([C@H]14)[C@@H]23	
InChI=1S/C7H9NO/c9-2-1-8-6-4-3(2)5(4)7(6)8/h2-7,9H,1H2	InChI=1S/C7H9NO/c9-2-1-8-6-4-3(2)5(4)7(6)8/h2-7,9H,1H2/t2-,3-,4+,5-,6+,7-,8?/m0/s1
