18
gdb 32254	2.49538	1.59251	0.98407	2.2105	82.89	-0.2261	-0.0136	0.2124	1188.8342	0.148791	-402.006514	-401.998103	-401.997159	-402.039635	31.203	
C	-0.0927630601	 1.3764661071	-0.0426032355	-0.248383
O	-0.0072255455	-0.0361098026	 0.0211874203	-0.263918
C	 0.6408871612	-0.5958523814	 1.0782764302	 0.281331
C	 1.2352904661	 0.120831041	 2.118120719	-0.114005
N	 1.8661595145	-0.4600169861	 3.1451521944	-0.274971
C	 1.9203910352	-1.7892857124	 3.1603465246	-0.011037
C	 1.3556036633	-2.5870381359	 2.1656256023	-0.183591
C	 0.6971108749	-2.0009326563	 1.0925067002	 0.207326
C	 0.0656639713	-2.798830732	-0.01411367	-0.486325
H	 0.9008088113	 1.8392036655	-0.0938740914	 0.129969
H	-0.6439056336	 1.605104343	-0.956132602	 0.136534
H	-0.6337303299	 1.7875106277	 0.8189894253	 0.129967
H	 1.2063927124	 1.2056023159	 2.1315810178	 0.102273
H	 2.4366697477	-2.2442762229	 4.0019615153	 0.101985
H	 1.4298047594	-3.6684132862	 2.2284866455	 0.092602
H	-1.0065667465	-2.5882424374	-0.0874840026	 0.139656
H	 0.4988459803	-2.535132242	-0.9847760449	 0.13966
H	 0.2010027579	-3.8703549952	 0.1496516414	 0.120927
91.6027	121.9331	168.7082	223.9747	243.2696	299.1655	317.6048	459.333	498.4925	508.3489	590.4691	609.6675	761.3111	774.5625	842.0289	854.2765	924.2582	971.9383	1004.6191	1062.5897	1062.6362	1103.3883	1177.5741	1197.7078	1206.7472	1242.1111	1287.5597	1319.372	1332.1588	1412.6408	1446.3469	1474.8255	1483.6963	1486.3281	1491.1837	1505.814	1534.6468	1609.6261	1630.1839	3009.0296	3038.1631	3070.5129	3092.0642	3125.0931	3135.2697	3154.2766	3173.9397	3180.6497
COC1=CN=CC=C1C	COc1cnccc1C	
InChI=1S/C7H9NO/c1-6-3-4-8-5-7(6)9-2/h3-5H,1-2H3	InChI=1S/C7H9NO/c1-6-3-4-8-5-7(6)9-2/h3-5H,1-2H3
