20
gdb 8674	2.27656	1.72413	1.37471	1.2513	76.54	-0.2601	0.0513	0.3114	1042.6573	0.173713	-348.97296	-348.962824	-348.961879	-349.007295	37.049	
C	 0.1187890556	 1.5611845062	 0.0238261098	-0.40202
C	 0.0072286876	 0.0355873901	-0.0043512792	-0.177776
C	-1.4407686518	-0.5325152388	 0.017717047	 0.059463
C	-1.3760494343	-2.077403712	 0.016314879	-0.414888
C	-2.2093388824	-0.0521441927	 1.2708937234	-0.08746
O	-1.4633790742	-0.4251678918	 2.4196030544	-0.427362
C	-2.1858256081	-0.0741716132	-1.1586642773	 0.336698
C	-2.8062451377	 0.297295036	-2.1198521926	-0.49415
H	 1.1629867912	 1.8674368739	-0.0923579176	 0.110728
H	-0.4578792822	 2.0178893947	-0.7864273223	 0.125704
H	-0.237432751	 1.9732006369	 0.9729394455	 0.118718
H	 0.4969558346	-0.3507406583	-0.9052380538	 0.097302
H	 0.5350615652	-0.3879317083	 0.8552882423	 0.114295
H	-0.8926435099	-2.425968724	 0.9319074841	 0.132303
H	-2.3802009722	-2.5084108136	-0.0342202397	 0.115254
H	-0.8084225043	-2.438043921	-0.8456863948	 0.117856
H	-2.3494723444	 1.0362098963	 1.2205631684	 0.098266
H	-3.2065841534	-0.5162872285	 1.2711350794	 0.094388
H	-1.9547895811	-0.1526404443	 3.1993342691	 0.290824
H	-3.3502151973	 0.6224224824	-2.9719518749	 0.191856
68.4673	134.0341	143.7062	176.4642	211.0689	233.0873	250.1545	260.2584	304.7367	361.8634	417.6766	473.9264	533.8633	575.9844	625.0466	636.6181	697.6488	780.6237	894.5108	925.1412	966.5102	1016.8892	1053.592	1074.3633	1081.9833	1164.2754	1185.8638	1218.1914	1271.7084	1284.0656	1328.3254	1367.836	1399.7488	1407.9098	1449.3835	1479.1968	1491.6691	1498.7193	1500.4499	1506.8155	1526.8382	2228.4388	2990.1987	3028.0067	3039.693	3040.7404	3046.1816	3086.8473	3105.6885	3115.8123	3116.6428	3132.8589	3501.3485	3839.4807
CCC(C)(CO)C#C	CC[C@@](C)(CO)C#C	
InChI=1S/C7H12O/c1-4-7(3,5-2)6-8/h1,8H,5-6H2,2-3H3	InChI=1S/C7H12O/c1-4-7(3,5-2)6-8/h1,8H,5-6H2,2-3H3/t7-/m0/s1
