20
gdb 69255	2.52116	1.52373	1.15196	3.1322	79.45	-0.2117	-0.0103	0.2014	1128.2092	0.172701	-403.15912	-403.150829	-403.149885	-403.191758	32.608	
C	-0.0818829476	 1.5218177348	 0.0188940264	-0.472388
C	-0.0191549066	 0.0074676316	 0.0041493836	 0.328084
C	-0.7677308802	-0.7424646662	 1.0598046429	-0.330539
C	 0.7592845534	-0.6802045433	 1.1253886802	-0.154876
C	 1.5457410035	-1.9108838031	 0.8354740953	 0.385996
O	 2.416071767	-2.3116934612	 1.5795577234	-0.333472
C	 1.2467362101	-2.5811209748	-0.5069197839	-0.281527
N	 1.1621840103	-1.6033509589	-1.594897543	-0.279889
C	 0.0816104256	-0.6387828612	-1.3969576059	-0.254377
H	 0.8085743625	 1.9599795366	-0.446281831	 0.119975
H	-0.9577804241	 1.881902178	-0.5333861467	 0.12323
H	-0.1515377056	 1.9080529324	 1.0406100216	 0.119835
H	-1.3034701395	-0.1844439234	 1.8204121863	 0.121311
H	-1.2245412104	-1.692011681	 0.8000712196	 0.118651
H	 1.1854672754	-0.0650064621	 1.9113990434	 0.099564
H	 2.0389844664	-3.3067942746	-0.7065639935	 0.127032
H	 0.2964729599	-3.1308025199	-0.4603513252	 0.119382
H	 2.0478270438	-1.1093072891	-1.6566530591	 0.222838
H	-0.8648068851	-1.1443885765	-1.6299278735	 0.112174
H	 0.2054964514	 0.1515071818	-2.143761991	 0.108998
91.2433	139.9805	228.8854	237.572	321.3791	346.4976	376.8144	422.1989	465.4238	489.0311	555.1857	643.9096	728.8003	778.0624	828.9857	873.0126	900.4529	918.0939	927.3517	948.3503	996.7504	1043.3621	1050.8964	1067.0395	1117.1048	1129.4749	1140.9602	1196.1165	1246.138	1266.6776	1309.6931	1321.9019	1343.9648	1370.2528	1407.0902	1418.3984	1462.3723	1481.4115	1488.0604	1495.7032	1496.9195	1501.5804	1793.3466	3017.412	3020.0198	3023.4957	3079.1786	3084.7757	3101.4334	3105.9659	3126.3627	3165.8966	3212.1922	3503.9462
CC12CC1C(=O)CNC2	C[C@]12C[C@H]1C(=O)CNC2	
InChI=1S/C7H11NO/c1-7-2-5(7)6(9)3-8-4-7/h5,8H,2-4H2,1H3	InChI=1S/C7H11NO/c1-7-2-5(7)6(9)3-8-4-7/h5,8H,2-4H2,1H3/t5-,7+/m0/s1
