23
gdb 87247	4.19531	0.67358	0.64537	2.9282	88.04	-0.2462	-0.0183	0.228	1812.7026	0.20268	-388.297698	-388.286901	-388.285957	-388.334362	38.776	
C	-0.0806557495	 1.493731879	-0.1948786763	-0.415245
C	 0.012959374	 0.0113931934	 0.0967336742	-0.038667
C	 1.3108601878	-0.7478984901	-0.0695415512	-0.328702
C	 0.7104311619	-0.5737043874	 1.3104128337	 0.36461
C	 1.411148221	 0.3402993006	 2.2994414438	-0.467297
C	 0.05408865	-1.7992217499	 1.9348213899	-0.272066
C	 1.0483161292	-2.7780931193	 2.5931175618	-0.273246
C	 0.3696904631	-4.0635367678	 3.0025103221	 0.158871
O	 0.3416230091	-4.5102394591	 4.1201838055	-0.237435
H	 0.8446067596	 2.0236311841	 0.04685584	 0.116711
H	-0.2802892808	 1.6613670724	-1.259079297	 0.119466
H	-0.8918587755	 1.964696296	 0.3718534806	 0.11768
H	-0.8764539568	-0.5369360275	-0.2076015789	 0.079264
H	 1.2864662087	-1.7300365467	-0.5322296244	 0.102699
H	 2.200108267	-0.1721329988	-0.3084202584	 0.10669
H	 1.8500945856	 1.2125943133	 1.8103156015	 0.116971
H	 0.7146301195	 0.7027951584	 3.0650932336	 0.116008
H	 2.2245654759	-0.1816648047	 2.8147924481	 0.120455
H	-0.6833311339	-1.4807601075	 2.6837250306	 0.108791
H	-0.5063422081	-2.3367528706	 1.1591927646	 0.096343
H	 1.8284118563	-3.031815218	 1.8605253465	 0.118917
H	 1.5307466045	-2.3473409389	 3.4738168172	 0.122816
H	-0.1382401187	-4.5966592711	 2.1626294424	 0.066367
51.5197	61.6494	97.8524	129.6966	166.6269	176.6283	251.1502	269.6276	280.1761	347.0249	385.2496	437.7029	507.3986	534.3323	706.3146	773.055	781.5878	850.6313	883.2469	902.0174	941.0819	974.7815	1004.8199	1015.1712	1048.6819	1066.028	1076.2679	1113.5773	1135.4135	1146.2752	1192.594	1203.6872	1259.1869	1276.8843	1298.7434	1356.826	1379.4061	1408.8974	1419.7089	1425.335	1430.326	1462.8464	1482.805	1488.2632	1493.5892	1497.5357	1500.9927	1515.722	1835.8855	2840.2926	3008.8636	3016.9616	3027.3153	3031.5872	3050.531	3084.5015	3087.1102	3102.4765	3108.6353	3116.5425	3120.6556	3126.04	3200.0529
CC1CC1(C)CCC=O	C[C@H]1C[C@]1(C)CCC=O	
InChI=1S/C8H14O/c1-7-6-8(7,2)4-3-5-9/h5,7H,3-4,6H2,1-2H3	InChI=1S/C8H14O/c1-7-6-8(7,2)4-3-5-9/h5,7H,3-4,6H2,1-2H3/t7-,8-/m0/s1
