18
gdb 97965	2.89626	0.84558	0.67742	5.4313	77.25	-0.2555	0.0155	0.271	1624.4581	0.146689	-439.086043	-439.075885	-439.074941	-439.123203	35.07	
N	-0.5619241301	 0.1048426498	 0.7370052304	-0.500116
H	 0.0952389944	-0.4172370105	 3.6671778404	 0.31136
H	 0.30475655	-0.4144282428	 0.6328165757	 0.240223
H	-1.0445492279	 0.0492561271	-0.1549837575	 0.235712
C	-0.2588302744	 1.5113553424	 1.042955255	-0.298408
C	 0.3559568986	 1.6137888579	 2.3651268894	 0.115095
C	 0.8797886797	 1.6387346921	 3.4508437696	 0.025795
C	 1.4519558403	 1.608888097	 4.7933776292	-0.342333
C	 0.6818298501	 0.677817554	 5.7639196597	-0.331453
C	 0.7670422307	-0.8120918888	 5.4343723741	 0.405306
O	 0.3504057229	-1.1842131162	 4.2064861274	-0.369802
O	 1.1637677648	-1.6313590933	 6.2180435988	-0.31398
H	 0.3942071672	 2.0100546944	 0.3064952586	 0.11956
H	-1.2051434543	 2.0666631321	 1.0388795147	 0.140075
H	 2.5039105642	 1.3015876803	 4.7468476012	 0.148523
H	 1.4464017782	 2.621567582	 5.2131631286	 0.142977
H	 1.0807257179	 0.7939196339	 6.7726473247	 0.136708
H	-0.3734059324	 0.9746430186	 5.7789826999	 0.134757
27.5004	57.4993	62.7364	120.4268	164.2519	221.8372	269.2314	282.1381	363.2115	402.9953	498.6085	564.6268	575.6522	630.7727	709.9911	728.5997	814.3983	851.0484	917.8494	966.1756	1003.4522	1035.7092	1045.1873	1149.015	1171.3833	1188.3192	1208.9706	1271.0898	1303.3016	1325.0825	1347.4592	1371.5155	1419.4392	1472.8669	1474.7887	1495.1099	1654.7836	1860.3941	2360.6378	2953.5349	3030.7576	3041.1985	3046.5844	3067.3036	3128.6082	3492.9506	3576.1126	3663.7271
[NH3+]CC#CCCC([O-])=O	NCC#CCCC(=O)O	
InChI=1S/C6H9NO2/c7-5-3-1-2-4-6(8)9/h2,4-5,7H2,(H,8,9)	InChI=1S/C6H9NO2/c7-5-3-1-2-4-6(8)9/h2,4-5,7H2,(H,8,9)
