21
gdb 41787	2.39945	1.94119	1.44917	0.5652	88.76	-0.2077	-0.0214	0.1863	1002.3552	0.187488	-349.982853	-349.975682	-349.974738	-350.01423	29.92	
C	-0.0761662617	 1.4979480306	-0.1726221518	-0.203968
C	 1.3608720765	 2.0005900143	 0.143114414	-0.211183
C	 2.3018534755	 0.7513441064	 0.0089281941	-0.036251
C	 1.3828858055	-0.3483143274	-0.5787979052	-0.234687
C	 0.001050706	-0.0368523152	 0.012098962	-0.042977
C	-0.159608159	-0.4297306814	 1.4615640288	-0.084494
C	 0.7803088673	-0.5164211989	 2.417584336	-0.069336
C	 2.2135512068	-0.2301846538	 2.3445840233	-0.065597
C	 2.8938015625	 0.3278005971	 1.3315052288	-0.097276
H	-0.8298907997	 1.9677385631	 0.4658789979	 0.095769
H	-0.3428581592	 1.7218942572	-1.2123952837	 0.091547
H	 1.6589454229	 2.8025202715	-0.5382931058	 0.095635
H	 1.4175918577	 2.4054263911	 1.1559193866	 0.111522
H	 3.1228853066	 0.9697631824	-0.6790512898	 0.064442
H	 1.3303537629	-0.2430682897	-1.6686476475	 0.089567
H	 1.737267454	-1.3570899811	-0.3547694975	 0.102195
H	-0.7904829917	-0.5325747222	-0.5608132327	 0.064675
H	-1.1832381638	-0.6491673554	 1.7595715208	 0.084931
H	 0.4396136349	-0.8267415296	 3.4035295503	 0.080044
H	 2.77082524	-0.4789754957	 3.2449185339	 0.080899
H	 3.961446786	 0.4867694567	 1.4623415074	 0.084544
92.0298	221.2963	256.2439	340.1471	383.1756	449.6684	520.1449	578.956	669.1694	724.9935	775.9054	792.2753	798.0315	820.3403	832.7901	870.4922	901.3627	914.7106	964.6637	986.651	996.9849	1010.4406	1011.9784	1038.7905	1079.6801	1098.2661	1174.0544	1182.3314	1213.7694	1224.4713	1259.3224	1272.4143	1279.7939	1311.2787	1332.4881	1339.9481	1368.9617	1384.0136	1421.2572	1453.321	1482.6492	1489.4785	1506.6874	1667.0455	1703.1577	3026.3277	3031.9269	3046.706	3054.6221	3067.542	3082.4893	3102.591	3109.355	3125.8563	3138.5144	3151.238	3164.8604	92.0312	221.2964	256.2441	340.1474	383.1757	449.6684	520.145	578.9561	669.1695	724.9935	775.9055	792.2754	798.0317	820.3402	832.7899	870.4923	901.3627	914.7107	964.6638	986.6509	996.985	1010.4404	1011.9788	1038.7904	1079.6799	1098.2659	1174.0541	1182.3311	1213.7691	1224.4709	1259.3226	1272.4144	1279.7936	1311.2782	1332.4876	1339.9479	1368.961	1384.0132	1421.2576	1453.3213	1482.6487	1489.4777	1506.6869	1667.0454	1703.1578	3026.3278	3031.927	3046.706	3054.6222	3067.542	3082.4893	3102.591	3109.3549	3125.8563	3138.5145	3151.238	3164.8605
C1CC2CC1C=CC=C2	C1C[C@@H]2C[C@H]1C=CC=C2	
InChI=1S/C9H12/c1-2-4-9-6-5-8(3-1)7-9/h1-4,8-9H,5-7H2	InChI=1S/C9H12/c1-2-4-9-6-5-8(3-1)7-9/h1-4,8-9H,5-7H2/t8-,9+
