20
gdb 75388	2.91892	1.28472	0.99157	1.9412	82.74	-0.2259	0.0051	0.2311	1262.4532	0.170571	-403.163709	-403.154517	-403.153573	-403.197653	34.122	
C	 0.8301127301	 1.30074969	 0.2726809925	-0.487466
C	 0.0378961401	 0.0769174775	-0.0880016871	 0.318467
C	 0.1923300181	-0.6095749933	-1.2203096017	-0.159223
C	-0.6085264708	-1.8528640259	-1.5426625251	-0.219337
N	-0.6023965794	-2.932808738	-0.5594334329	-0.302779
C	-0.5874533936	-2.8044990178	 0.6988790613	 0.390479
C	-0.5004523023	-4.0169327561	 1.5879179951	-0.433692
O	-0.6335738773	-1.6888634847	 1.4898165875	-0.256751
C	-0.9818226957	-0.4238948237	 0.9079858536	-0.178245
H	 1.4037623311	 1.1422272175	 1.195083506	 0.132122
H	 1.5297297706	 1.5743085445	-0.5214283348	 0.124848
H	 0.1735814112	 2.1609359714	 0.4583281825	 0.12463
H	 0.9281510493	-0.2876606913	-1.954455202	 0.087127
H	-1.6530954487	-1.5809154101	-1.7671533449	 0.115015
H	-0.2249627043	-2.2864088859	-2.4719784299	 0.111215
H	-0.4279986197	-4.9152862359	 0.9770123066	 0.139158
H	 0.3757342606	-3.9407024523	 2.2401651559	 0.134204
H	-1.3798435154	-4.077152354	 2.237327776	 0.131028
H	-1.0704821846	 0.2499239247	 1.7634096723	 0.112467
H	-1.9739351692	-0.5076318062	 0.444454339	 0.116733
61.2465	140.5439	168.3624	189.2138	233.9789	244.4725	303.5569	332.412	373.7449	405.0476	512.6424	609.1667	661.958	700.4629	776.669	837.6777	855.0303	907.7327	971.6732	984.8585	1027.0098	1062.6621	1064.9422	1078.9113	1084.0098	1130.4598	1207.5959	1221.2815	1263.2537	1296.5023	1354.1138	1378.6363	1400.7957	1411.4998	1414.0787	1475.0695	1477.7635	1478.7903	1484.0906	1488.9779	1504.5117	1744.4408	1765.7312	2968.0352	3012.4932	3015.4977	3045.7446	3055.4228	3059.6665	3099.9878	3102.2214	3113.2432	3145.5558	3168.5846
CC1=CCN=C(C)OC1	CC1=CCN=C(C)OC1	
InChI=1S/C7H11NO/c1-6-3-4-8-7(2)9-5-6/h3H,4-5H2,1-2H3	InChI=1S/C7H11NO/c1-6-3-4-8-7(2)9-5-6/h3H,4-5H2,1-2H3
