15
gdb 15299	3.50841	1.40772	1.11948	3.3631	68.16	-0.2526	-0.0011	0.2515	1042.0758	0.116993	-362.617987	-362.609848	-362.608903	-362.651112	28.881	
O	-0.164928481	 0.5857396558	-0.4534909337	-0.28917
C	 0.0714112223	 1.687981252	-0.02249693	 0.128784
N	 1.2763010191	 2.0696476485	 0.5440986176	-0.053917
C	 2.5759439457	 1.6766528201	 0.0540736658	-0.254484
C	 2.1630922068	 3.1219289797	 0.0880612437	 0.000868
C	 1.8823070078	 3.8620760328	-1.212939782	-0.376711
C	 0.9159536181	 4.9439421641	-1.0524530163	 0.299376
C	 0.1202169458	 5.8305347393	-0.8961806854	-0.438556
H	-0.6779531703	 2.4989410635	 0.028964458	 0.101485
H	 3.2737473012	 1.2956602302	 0.7942328207	 0.131931
H	 2.6055039092	 1.1757902055	-0.9110342455	 0.137674
H	 2.5564123533	 3.7518030838	 0.8835310357	 0.116263
H	 2.8293378914	 4.2674134564	-1.5922397181	 0.14514
H	 1.5252207196	 3.1495320565	-1.9673673829	 0.146373
H	-0.5848359091	 6.6145870718	-0.7691408874	 0.204942
61.0282	107.221	134.0695	211.525	263.7814	345.4716	376.4033	415.641	533.96	622.1208	634.2299	652.7087	799.2806	861.86	913.7633	975.934	987.4824	1039.6014	1080.6055	1095.1818	1134.1145	1145.393	1170.1124	1242.0173	1319.6416	1375.1953	1417.0421	1429.9312	1461.2128	1512.1651	1797.4889	2241.6611	2973.8139	3021.4782	3056.724	3109.2934	3132.0438	3197.9325	3504.7203
O=CN1CC1CC#C	O=CN1C[C@H]1CC#C	
InChI=1S/C6H7NO/c1-2-3-6-4-7(6)5-8/h1,5-6H,3-4H2	InChI=1S/C6H7NO/c1-2-3-6-4-7(6)5-8/h1,5-6H,3-4H2/t6-,7?/m1/s1
