27
gdb 60342	2.8911	0.72651	0.68382	1.3814	92.7	-0.2613	0.0706	0.332	1860.5452	0.24862	-390.70955	-390.697517	-390.696572	-390.746938	44.993	
C	 0.1559533509	 1.5674091727	 0.0266407741	-0.402861
C	 0.0583612498	 0.0414189506	 0.0363240686	 0.141711
O	 0.7448436609	-0.5071958475	 1.1618685433	-0.428145
C	-1.3944519434	-0.4520155333	-0.0370134818	-0.215959
C	-1.4954400321	-1.9794206742	-0.1235106312	-0.178577
C	-2.9160404325	-2.5970279735	-0.1053919015	 0.260554
C	-3.7637822864	-2.0695819612	-1.2779995951	-0.399685
C	-2.7663546214	-4.1237255935	-0.2474200607	-0.400614
C	-3.631648388	-2.2932669241	 1.2243635469	-0.400549
H	 1.2002257064	 1.8817641714	 0.1054251548	 0.122365
H	-0.2666004367	 1.9878665213	-0.8917108593	 0.114463
H	-0.3953546935	 1.9973164898	 0.8728473004	 0.104018
H	 0.6078020546	-0.3548635637	-0.8275485457	 0.086164
H	 0.3260091789	-0.1540501023	 1.9551332086	 0.273982
H	-1.9253477345	-0.0775815314	 0.8499737781	 0.081782
H	-1.8766841777	 0.0170853984	-0.9031974723	 0.09466
H	-0.9913859317	-2.3060602397	-1.0441883305	 0.083544
H	-0.9141728613	-2.4041711549	 0.7030384422	 0.102258
H	-3.265761191	-2.2486166589	-2.2377292561	 0.105567
H	-4.7365943217	-2.5725616875	-1.3104056193	 0.106181
H	-3.9543832925	-0.9949309001	-1.194481122	 0.109062
H	-2.1656056448	-4.5394979878	 0.5690550111	 0.108245
H	-3.7434680442	-4.6192786252	-0.2301661134	 0.103995
H	-2.27463398	-4.3872736987	-1.1904058809	 0.10655
H	-3.806949534	-1.2214977167	 1.3607884749	 0.107922
H	-4.6075856833	-2.790053749	 1.2609069188	 0.107038
H	-3.0457843107	-2.6501487509	 2.0790385182	 0.106329
30.5901	75.4872	123.4611	140.1296	232.0727	236.0343	240.3105	272.4997	279.2303	285.8648	292.4516	333.3989	366.6808	410.989	425.9034	452.4527	497.8915	508.2128	746.8249	768.602	850.0164	913.6796	926.9512	936.9143	942.4864	950.7713	957.0598	1022.4102	1033.2276	1058.7665	1085.8276	1105.6325	1141.95	1170.8392	1223.9439	1262.4908	1272.0539	1295.7944	1317.8278	1353.3437	1363.8475	1391.6054	1397.941	1401.0179	1404.408	1421.0396	1431.9963	1473.6679	1481.6313	1485.3877	1487.7689	1491.3728	1495.0762	1497.385	1508.9376	1511.7279	1519.6476	3002.9372	3010.6713	3020.454	3021.2252	3023.3812	3030.4368	3031.7063	3050.94	3070.9649	3087.7314	3088.3197	3091.7889	3093.1891	3095.2556	3096.9726	3100.7363	3117.2346	3792.1661
CC(O)CCC(C)(C)C	C[C@@H](O)CCC(C)(C)C	
InChI=1S/C8H18O/c1-7(9)5-6-8(2,3)4/h7,9H,5-6H2,1-4H3	InChI=1S/C8H18O/c1-7(9)5-6-8(2,3)4/h7,9H,5-6H2,1-4H3/t7-/m1/s1
