25
gdb 118072	2.19369	0.92497	0.76651	2.3234	86.42	-0.25	0.0785	0.3286	1679.3468	0.225795	-426.633887	-426.622105	-426.621161	-426.671533	42.225	
C	-0.1674149311	 1.5591036148	 0.0612679152	-0.386289
C	-0.0510046619	 0.0472901234	 0.165363641	-0.035387
O	-1.3408684951	-0.510753186	 0.0038855267	-0.278588
C	-1.4124426577	-1.9369710755	-0.0091017328	 0.117454
C	-1.3283000601	-2.5218151692	 1.4011199912	-0.410118
C	-2.7563303235	-2.2587210226	-0.6906310347	 0.141464
O	-3.809601976	-1.5902653131	-0.0061488622	-0.442775
C	-2.7444781208	-1.9203731966	-2.1875445782	-0.188594
C	-4.0765715018	-2.2253331781	-2.8755822833	-0.382571
H	 0.8158857841	 2.0250813675	 0.1749864214	 0.11703
H	-0.5787905521	 1.8473677303	-0.9103394014	 0.126185
H	-0.8269271931	 1.9484324059	 0.8422713548	 0.126463
H	 0.6250160737	-0.3430700606	-0.6130336842	 0.088938
H	 0.3793327263	-0.2333936817	 1.1386470353	 0.092951
H	-0.5925181155	-2.3345704361	-0.6288125697	 0.062495
H	-0.4149135751	-2.2096196378	 1.914849572	 0.111876
H	-2.1934870637	-2.2001330212	 1.9861036119	 0.13549
H	-1.3267848469	-3.6158188259	 1.3572949522	 0.114658
H	-2.9582576524	-3.3307464495	-0.5678641821	 0.075259
H	-3.5107846993	-0.6772000374	 0.094519731	 0.286665
H	-2.4923367439	-0.8589598129	-2.2973996132	 0.099171
H	-1.9340290591	-2.4852619307	-2.6672846087	 0.084791
H	-4.0562102065	-1.9300781524	-3.9290708015	 0.104794
H	-4.3083139418	-3.2958977739	-2.8335343796	 0.108382
H	-4.8921097566	-1.6912666508	-2.381552261	 0.130252
47.2003	67.571	87.2886	110.6174	161.6845	191.9538	224.4118	227.3917	255.0643	297.3441	314.5884	335.0148	402.7007	443.4839	504.5394	514.7724	670.1768	783.8586	814.3532	822.0615	876.1398	938.2607	966.3297	986.4367	1015.6669	1049.8191	1076.7185	1109.9534	1117.2635	1151.9947	1153.3156	1173.921	1188.4504	1261.3076	1294.7586	1297.7007	1322.1564	1360.1199	1364.5897	1394.4788	1401.0001	1401.5867	1408.688	1428.0794	1441.4657	1484.544	1487.1504	1490.859	1496.3149	1496.5915	1500.5418	1510.4889	1530.7945	2966.6413	2975.6431	3002.2032	3020.7988	3027.8756	3034.2403	3044.2363	3044.397	3065.5469	3098.3605	3109.7245	3119.3749	3120.5069	3123.8182	3131.3631	3774.0362
CCOC(C)C(O)CC	CCO[C@@H](C)[C@@H](O)CC	
InChI=1S/C7H16O2/c1-4-7(8)6(3)9-5-2/h6-8H,4-5H2,1-3H3	InChI=1S/C7H16O2/c1-4-7(8)6(3)9-5-2/h6-8H,4-5H2,1-3H3/t6-,7-/m0/s1
