16
gdb 55906	4.00892	0.76601	0.70685	3.7009	67.36	-0.2606	-0.0434	0.2172	1546.0305	0.121469	-475.038404	-475.028883	-475.027939	-475.074513	32.796	
N	 0.0327054766	 1.1361033806	 0.787857681	-0.524315
C	 0.0556751669	-0.0137084149	 0.0595629722	 0.425013
O	 1.0588933394	-0.4321565549	-0.4833221954	-0.353477
C	-1.2973118886	-0.723028325	-0.0759501898	-0.367336
C	-1.1017425922	-2.2196932309	-0.1713652256	 0.091897
O	-1.247928342	-2.9834195652	 1.0166617785	-0.241991
C	-2.1914348011	-3.2171421174	-0.0373924382	-0.066917
C	-3.5983615114	-2.8041504167	 0.2451180743	 0.144759
O	-4.5509918053	-3.2547502237	-0.3379010151	-0.243921
H	 0.8989747001	 1.6333796816	 0.9177528992	 0.266833
H	-0.7738925994	 1.4274594987	 1.3108745939	 0.262821
H	-1.9712299817	-0.4712951317	 0.7468700039	 0.113685
H	-1.7559329993	-0.3552356691	-1.0028441829	 0.151097
H	-0.2517993206	-2.5044295935	-0.7897627003	 0.136273
H	-2.0940107116	-4.1636341387	-0.5673022866	 0.120984
H	-3.7005847797	-2.0476864192	 1.0538180311	 0.084595
39.749	48.3214	80.4051	150.0084	197.9257	229.9468	289.4624	383.6213	411.6995	471.4391	514.9126	516.711	603.214	672.005	835.0118	852.7702	860.0629	950.7991	984.4405	1043.3756	1067.748	1099.4041	1134.7855	1172.2741	1221.8798	1256.5676	1292.0214	1335.1585	1381.7175	1409.4437	1444.8303	1470.8784	1620.0024	1801.45	1825.291	2895.3686	3038.8694	3101.3598	3130.614	3141.9843	3602.2912	3739.0931
NC(=O)CC1OC1C=O	NC(=O)C[C@H]1O[C@H]1C=O	
InChI=1S/C5H7NO3/c6-5(8)1-3-4(2-7)9-3/h2-4H,1H2,(H2,6,8)	InChI=1S/C5H7NO3/c6-5(8)1-3-4(2-7)9-3/h2-4H,1H2,(H2,6,8)/t3-,4+/m1/s1
