20
gdb 92715	2.036	1.64564	1.05717	3.9048	84.92	-0.2512	0.0056	0.2568	1205.9939	0.171028	-366.056175	-366.04696	-366.046016	-366.090105	34.323	
C	-0.8636767087	 1.1242743351	-0.0042571975	-0.41742
C	 0.1190333965	-0.0430568854	-0.0098261246	 0.019157
C	 1.22686186	 0.0304734162	-1.0903155201	-0.264187
C	 2.3706249938	-0.7241077249	-0.4644346114	-0.160169
C	 2.2198329153	-0.9132935357	 0.8468925156	 0.326164
C	 3.1567079517	-1.568099078	 1.8092580076	-0.499548
C	 0.9045403328	-0.2903397022	 1.3227621474	-0.255833
C	 1.1678067778	 0.9305606165	 2.0951805765	 0.281815
N	 1.3912440708	 1.8886600214	 2.7033480748	-0.342493
H	-0.3541114624	 2.0739808373	 0.1847401492	 0.141479
H	-1.3706247648	 1.1981225215	-0.9716799648	 0.116733
H	-1.6321395651	 0.9995058231	 0.7654955979	 0.120774
H	-0.4374716448	-0.9713065395	-0.182856454	 0.090162
H	 0.8940230235	-0.3978676002	-2.0423191614	 0.107756
H	 1.5130409632	 1.0711538025	-1.3018307025	 0.117287
H	 3.2391739251	-1.0486784895	-1.0280474242	 0.096424
H	 4.0569050427	-1.9285808432	 1.3051592358	 0.129562
H	 3.46199034	-0.8692335583	 2.5977391883	 0.147737
H	 2.6812060173	-2.4204109903	 2.3113294406	 0.126928
H	 0.3468970156	-0.9655338265	 1.9840365568	 0.117671
63.037	131.3843	173.1525	188.7898	232.3976	250.8347	266.3291	357.1929	411.8507	430.9099	485.1179	600.8787	625.3931	659.0037	820.2155	827.0243	892.642	902.8648	940.8857	968.141	990.0123	1036.147	1056.9337	1078.2996	1122.5234	1143.6048	1170.7035	1210.7961	1249.3907	1296.3848	1302.7587	1321.9055	1359.249	1364.6474	1416.2322	1418.2081	1478.5877	1488.3164	1490.437	1497.6371	1498.9001	1728.2803	2345.8195	3005.1291	3019.9018	3024.9274	3036.7382	3039.5423	3062.185	3069.0013	3103.0704	3113.675	3117.1046	3187.5837
CC1CC=C(C)C1C#N	C[C@H]1CC=C(C)[C@H]1C#N	
InChI=1S/C8H11N/c1-6-3-4-7(2)8(6)5-9/h3,7-8H,4H2,1-2H3	InChI=1S/C8H11N/c1-6-3-4-7(2)8(6)5-9/h3,7-8H,4H2,1-2H3/t7-,8+/m0/s1
