17
gdb 30221	3.64703	1.29705	1.02123	2.6942	75.92	-0.1948	0.0557	0.2505	1158.0136	0.137867	-418.0159	-418.007977	-418.007033	-418.04865	29.799	
C	-0.0416516587	 1.6430583398	 0.0500756994	-0.394386
C	 0.0010516511	 0.119320146	 0.0275133701	-0.155352
C	 0.6225265823	-0.5501946258	-1.2665566181	-0.187267
N	 1.6492886777	-1.1301542319	-0.3763796979	-0.066563
C	 1.1404886517	-0.5741088744	 0.7758306257	 0.294768
C	 1.9405983609	-1.0025757282	 1.796709754	-0.248853
N	 2.9355532124	-1.8196928019	 1.26075263	-0.376566
C	 2.7236753566	-1.874777938	-0.0349545473	 0.412954
O	 3.4452703662	-2.5552243696	-0.9432349282	-0.427334
H	 0.9353950743	 2.0676931046	-0.2005616054	 0.12579
H	-0.7796904296	 2.0259113317	-0.662960733	 0.117336
H	-0.3182423298	 2.0047902057	 1.0452214737	 0.129029
H	-0.9874754424	-0.2900380125	 0.2594681997	 0.097302
H	 0.0009948166	-1.2987039023	-1.763401212	 0.131671
H	 1.0287211556	 0.1486095505	-2.0025493149	 0.129762
H	 1.8982905993	-0.8043248024	 2.8553002193	 0.106026
H	 4.1472707256	-2.9953948913	-0.4475952952	 0.311682
73.441	107.6677	217.0572	253.4642	296.5826	354.5812	402.0839	443.3033	561.3456	650.3653	683.2086	698.9134	712.2189	773.5448	807.6506	872.6101	913.2005	969.6073	1076.7296	1093.537	1111.4072	1134.9086	1176.048	1190.5115	1227.4674	1244.2199	1270.4043	1295.9104	1356.0239	1376.5439	1412.4885	1489.1076	1495.2781	1499.8342	1534.8127	1581.4041	1607.3738	3033.685	3052.1189	3062.5262	3103.6418	3111.2228	3120.6116	3263.6152	3804.3494
CC1CN2C1=CN=C2O	C[C@H]1Cn2c1cnc2O	
InChI=1S/C6H8N2O/c1-4-3-8-5(4)2-7-6(8)9/h2,4H,3H2,1H3,(H,7,9)	InChI=1S/C6H8N2O/c1-4-3-8-5(4)2-7-6(8)9/h2,4H,3H2,1H3,(H,7,9)/t4-/m0/s1
