25
gdb 76623	2.20116	1.3614	1.09374	0.1895	92.45	-0.2438	0.0789	0.3227	1294.8986	0.228016	-352.333521	-352.323203	-352.322259	-352.368347	39.755	
C	 0.1140167897	 1.4470845133	 0.1892885696	-0.41098
C	-0.1063016164	-0.0220694197	 0.4870329439	-0.032495
C	 0.8313541333	-1.0910054848	-0.0402270095	-0.034273
C	 1.9550450503	-0.7935527291	-1.0137504177	-0.418133
C	 0.7884380465	-0.7869690188	 1.4487585996	-0.098323
C	 1.8322170735	-0.1562987565	 2.33647307	 0.353325
C	 1.2194357133	 0.6179972481	 3.4946358349	-0.447361
C	 3.0779840561	-0.9567144315	 2.6547892976	-0.305559
C	 3.1866039854	 0.317957096	 1.8555376625	-0.307284
H	 1.1602292523	 1.7416670045	 0.2985012918	 0.127593
H	-0.2011781438	 1.6980627592	-0.8302798127	 0.110655
H	-0.4702947324	 2.0713402793	 0.8741890722	 0.114834
H	-1.1587060189	-0.2956746963	 0.5127314911	 0.074981
H	 0.3397293399	-2.0318153779	-0.2792817277	 0.078838
H	 2.3199339968	 0.2328079385	-0.9491681748	 0.123025
H	 2.808696405	-1.4648726003	-0.8683423352	 0.116932
H	 1.5983287693	-0.9411495847	-2.0394583824	 0.112019
H	 0.2521530053	-1.5547823705	 2.0068203548	 0.078759
H	 0.5350124265	-0.0157959861	 4.0711467066	 0.110736
H	 1.991098257	 0.9831453247	 4.1801300612	 0.106385
H	 0.6489352926	 1.4825687539	 3.1390826931	 0.117225
H	 3.4409403943	-0.9620234063	 3.6775562064	 0.103935
H	 3.2225350165	-1.8922582091	 2.1249186236	 0.108723
H	 3.453390162	 0.2376650797	 0.8115908391	 0.112745
H	 3.6032975059	 1.1916334943	 2.3470729521	 0.103697
50.3187	135.6747	167.4602	178.1565	228.5672	245.7439	257.4285	270.8509	306.9271	338.4779	383.652	465.8951	532.4468	567.5383	690.7625	754.2138	785.4078	793.0321	855.0487	865.9081	927.9029	948.494	959.2095	971.5903	1009.0962	1040.6598	1053.2867	1067.6079	1086.9958	1101.6664	1114.9373	1135.8951	1149.2978	1164.3361	1192.7137	1194.078	1253.188	1286.4191	1357.0048	1380.3202	1400.932	1413.1322	1416.8626	1421.6234	1449.7173	1469.7141	1489.7842	1493.1209	1494.9918	1502.0462	1505.5366	1510.8479	1517.1161	3023.4873	3028.4764	3031.7548	3080.3813	3081.783	3085.7092	3089.5462	3099.1379	3107.2649	3118.3633	3125.5575	3126.4989	3136.8041	3142.0941	3209.1209	3248.0076
CC1C(C)C1C1(C)CC1	C[C@H]1[C@@H](C)[C@H]1C1(C)CC1	
InChI=1S/C9H16/c1-6-7(2)8(6)9(3)4-5-9/h6-8H,4-5H2,1-3H3	InChI=1S/C9H16/c1-6-7(2)8(6)9(3)4-5-9/h6-8H,4-5H2,1-3H3/t6-,7+,8-
