22
gdb 95448	2.8256	1.16609	0.95997	1.6906	88.67	-0.2229	0.0209	0.2438	1330.0103	0.195823	-367.203825	-367.194852	-367.193908	-367.238121	34.008	
C	 0.0909414771	 1.5059609154	-0.1432487495	-0.394688
C	-0.0766799481	 0.004357319	 0.1540170519	-0.068866
C	 0.2509204454	-0.896473736	-1.0681920842	-0.223134
C	 1.6914012015	-1.4181255986	-0.8334087265	-0.249413
C	 1.8785085213	-1.2289069959	 0.6520538664	-0.20398
C	 0.9141488696	-0.4868823455	 1.2031626991	 0.346281
C	 0.7586448269	-0.1103066074	 2.6270492205	-0.115683
C	 0.2116088806	-1.095017813	 3.6088899857	-0.229564
N	 1.6143567378	-0.6606455013	 3.6876081816	-0.319682
H	 1.1013658932	 1.7217280929	-0.5071109125	 0.118562
H	-0.6221878495	 1.8291131029	-0.9088282148	 0.112656
H	-0.0798501937	 2.1189417004	 0.7476599895	 0.116141
H	-1.1087490153	-0.1578947464	 0.490441907	 0.070984
H	-0.4414088244	-1.7437226744	-1.0932254111	 0.100571
H	 0.1415911095	-0.3628402336	-2.0167380766	 0.09377
H	 1.8111549012	-2.4614298822	-1.1476310867	 0.101134
H	 2.4398161447	-0.8445624492	-1.3984906343	 0.10606
H	 2.7377915897	-1.6310561861	 1.1795112068	 0.082343
H	 0.5002882804	 0.9339782816	 2.796008636	 0.094844
H	-0.4227568764	-0.7576602158	 4.4241579642	 0.11723
H	-0.0028771618	-2.0942287208	 3.2396970012	 0.112257
H	 2.2138206905	-1.385850746	 3.3016864063	 0.232178
45.7166	91.5853	157.0961	189.268	237.2184	267.0824	297.2732	375.9738	444.2051	573.7981	667.7939	690.4183	773.9713	813.2482	836.9696	838.4429	878.26	905.75	930.1063	961.4345	976.2117	996.5179	1012.7942	1050.6942	1084.6343	1094.0242	1111.8025	1139.259	1154.5703	1188.3932	1199.2202	1230.387	1256.3765	1283.9215	1297.8723	1302.5198	1324.6149	1350.0284	1354.0577	1406.8055	1421.697	1483.9721	1495.481	1499.6365	1503.4153	1505.8763	1712.2574	3007.0501	3015.0109	3029.3419	3043.7406	3056.2921	3092.9027	3099.1132	3101.5349	3106.6423	3116.0234	3175.2529	3196.3611	3504.6306
CC1CCC=C1C1CN1	C[C@H]1CCC=C1[C@H]1CN1	
InChI=1S/C8H13N/c1-6-3-2-4-7(6)8-5-9-8/h4,6,8-9H,2-3,5H2,1H3	InChI=1S/C8H13N/c1-6-3-2-4-7(6)8-5-9-8/h4,6,8-9H,2-3,5H2,1H3/t6-,8+/m0/s1
