22
gdb 58648	1.81686	1.45477	1.13529	4.2395	86.89	-0.2764	0.0384	0.3148	1261.0094	0.192515	-367.232507	-367.222129	-367.221184	-367.267357	38.456	
C	-2.1242187658	 0.2398590315	 1.9100811539	-0.399791
C	-1.1747478422	-0.5802947486	 1.0245076338	-0.048381
C	-0.988403138	 0.0715193308	-0.3531342369	-0.403721
C	 0.1702945549	-0.8068217478	 1.7263878851	 0.178701
C	 0.3014605301	-1.9063460349	 2.7755381281	-0.331212
C	 1.0314798958	-2.0497848948	 1.4726485776	-0.039031
C	 0.6631879405	-3.1098605521	 0.4585516653	-0.421695
C	 0.9114803433	 0.4042699484	 1.9895293126	 0.257951
N	 1.4991122003	 1.3813954928	 2.1903065435	-0.365845
H	-1.7171074848	 1.2386815171	 2.0991343491	 0.13972
H	-3.0967991726	 0.3600657384	 1.4229436451	 0.114435
H	-2.2861931153	-0.2454558041	 2.8775484544	 0.116075
H	-1.6224438643	-1.5694847075	 0.8784404796	 0.077153
H	-0.5295127763	 1.0611799065	-0.2575082006	 0.140585
H	-0.3471453985	-0.5341398908	-1.0004858475	 0.117249
H	-1.9537417204	 0.1962838365	-0.8532364421	 0.115074
H	 0.8628153287	-1.6941440717	 3.6776536235	 0.135435
H	-0.5855639147	-2.5139037605	 2.9273315147	 0.121742
H	 2.0979942354	-1.850366193	 1.52487664	 0.111526
H	-0.4093285899	-3.319093956	 0.4438141544	 0.124614
H	 0.9660378369	-2.8200380097	-0.5527483625	 0.130767
H	 1.1743687771	-4.0475378107	 0.7017155788	 0.128649
78.2972	137.9705	148.284	161.5921	198.8762	221.312	225.7852	251.0273	328.4766	336.7354	375.1549	460.0111	488.2475	575.6885	597.3973	649.3559	800.8657	859.9406	895.1441	911.912	935.6693	939.9967	968.8023	1017.2672	1050.8798	1073.5807	1103.4664	1131.1736	1141.8854	1193.9552	1197.3416	1258.6123	1291.0939	1342.2953	1361.8076	1402.4161	1407.6854	1424.4573	1428.7686	1485.449	1486.2156	1491.3528	1493.0809	1502.1774	1503.9004	1511.4884	2340.8714	3034.6852	3037.126	3038.6807	3044.9967	3097.8935	3105.5412	3107.8962	3110.644	3111.7381	3116.8966	3132.5713	3153.0724	3224.8032
CC(C)C1(CC1C)C#N	CC(C)[C@]1(C[C@H]1C)C#N	
InChI=1S/C8H13N/c1-6(2)8(5-9)4-7(8)3/h6-7H,4H2,1-3H3	InChI=1S/C8H13N/c1-6(2)8(5-9)4-7(8)3/h6-7H,4H2,1-3H3/t7-,8+/m1/s1
