20
gdb 69783	3.11692	1.37807	1.30934	1.801	78.29	-0.217	0.0778	0.2948	1079.0857	0.170885	-403.118189	-403.109979	-403.109035	-403.150252	33.341	
C	 0.2042535243	 1.4734093551	 0.034838516	-0.476684
C	 0.0068812784	-0.0213396925	 0.0122121902	 0.361764
C	-0.8761502862	-0.6933312543	 1.0029577303	-0.288569
N	 0.590537992	-0.8046995489	 1.1352353857	-0.133544
C	 1.07611701	-2.0474352929	 0.5675298478	-0.042968
C	 2.2795998958	-1.9362869614	-0.3364382191	-0.362309
C	 0.8902486113	-2.069961662	-0.9271208895	 0.393968
O	 0.5205197905	-3.2509807834	-1.5715265153	-0.471005
C	 0.1986484211	-0.7641301626	-1.3188194181	-0.38063
H	 1.1884984096	 1.7443442366	-0.3643957236	 0.115946
H	-0.5544870368	 1.9750003133	-0.5766681236	 0.116966
H	 0.1345311894	 1.8590335168	 1.0550546366	 0.127718
H	-1.3610515273	-0.1104043504	 1.7809779201	 0.11112
H	-1.4226541604	-1.578182219	 0.6828685974	 0.116322
H	 0.945139641	-2.9376811225	 1.1729527436	 0.099257
H	 2.7963304733	-0.9831478961	-0.3987083971	 0.112977
H	 2.9140723055	-2.8139044214	-0.3984870434	 0.113869
H	 1.0013917013	-3.3017100689	-2.4049843605	 0.282149
H	-0.7540235435	-0.9861490689	-1.8104403882	 0.110528
H	 0.7972275208	-0.1613127467	-2.0134256793	 0.093125
129.0642	194.7993	211.8303	285.0383	320.168	376.4953	388.2972	405.0342	438.8516	453.795	551.5946	629.7864	724.4339	756.6844	767.3739	862.4958	908.1264	921.3424	931.1885	943.5207	983.7522	1008.8386	1021.7211	1048.3105	1077.7325	1089.9227	1105.228	1117.1237	1165.2624	1199.9993	1235.6946	1256.5111	1286.912	1302.0752	1335.5643	1378.4925	1401.4311	1418.7254	1472.2753	1485.8096	1492.6993	1496.3155	1508.0085	3021.2905	3028.3828	3073.6069	3087.6621	3098.478	3118.9254	3122.066	3174.9286	3188.1573	3217.576	3790.354
CC12CN1C1CC1(O)C2	C[C@]12CN1[C@@H]1C[C@]1(O)C2	
InChI=1S/C7H11NO/c1-6-3-7(9)2-5(7)8(6)4-6/h5,9H,2-4H2,1H3	InChI=1S/C7H11NO/c1-6-3-7(9)2-5(7)8(6)4-6/h5,9H,2-4H2,1H3/t5-,6+,7+,8?/m1/s1
