21
gdb 120734	3.18167	0.73113	0.67963	0.5018	76.05	-0.2636	0.0697	0.3332	1735.7408	0.179333	-461.332959	-461.322112	-461.321168	-461.370395	38.13	
C	 0.5239163232	 1.3194257898	 0.2418821118	-0.415617
C	-0.2656893914	 0.0435789918	-0.0507444767	 0.104051
O	-1.6510671007	 0.3046279525	-0.2557856322	-0.441895
C	 0.2155394016	-0.604291413	-1.3310198511	 0.071974
O	 1.4721287765	-1.281240628	-1.2759854257	-0.273243
C	 0.2916962182	-2.0539239284	-1.5633870023	 0.052005
C	-0.1027253422	-3.1213676405	-0.5748693943	-0.213963
C	 0.8236198249	-4.3317459064	-0.6510587913	-0.068475
O	 0.3516723081	-5.2924907547	 0.28071847	-0.422267
H	 1.5879063656	 1.0911385247	 0.3542067159	 0.137916
H	 0.4024229418	 2.0416651418	-0.5720506472	 0.123555
H	 0.1783343539	 1.7859019561	 1.171691148	 0.105882
H	-0.1221143653	-0.6588999286	 0.782417392	 0.072633
H	-1.9590794306	 0.8560333395	 0.4701881181	 0.284507
H	 0.0839437855	 0.0359610864	-2.2065323856	 0.089913
H	 0.2398029254	-2.3716501324	-2.6078392681	 0.088492
H	-0.0881671699	-2.7363591702	 0.4475235912	 0.114797
H	-1.1288437114	-3.4450739723	-0.787067344	 0.116569
H	 0.8250984223	-4.7365113112	-1.676829704	 0.083337
H	 1.8523361174	-4.0158070934	-0.4210957144	 0.103618
H	 0.9541022471	-6.0417631835	 0.27042897	 0.28621
28.9743	54.2182	85.6467	124.8721	174.9907	236.1601	251.5935	259.8353	264.7033	333.6066	364.342	422.4018	476.6976	523.1129	576.6807	780.9129	822.8248	840.0926	900.1833	968.6941	994.306	1023.4616	1066.9589	1070.0574	1089.774	1119.4131	1131.4782	1172.1173	1173.6326	1230.411	1243.8925	1260.4479	1295.5011	1311.9506	1328.2034	1362.3595	1367.2802	1399.6232	1434.8324	1460.5238	1476.3336	1489.6319	1491.2396	1519.1966	1528.9928	2962.6369	3002.4662	3004.607	3028.2551	3047.3783	3071.851	3087.7337	3097.1656	3111.902	3118.5188	3821.629	3831.8955
CC(O)C1OC1CCO	C[C@@H](O)[C@H]1O[C@H]1CCO	
InChI=1S/C6H12O3/c1-4(8)6-5(9-6)2-3-7/h4-8H,2-3H2,1H3	InChI=1S/C6H12O3/c1-4(8)6-5(9-6)2-3-7/h4-8H,2-3H2,1H3/t4-,5+,6-/m1/s1
