15
gdb 129356	6.61582	0.76793	0.69104	1.0854	69.63	-0.2596	-0.0061	0.2535	1522.1968	0.113693	-450.113974	-450.105648	-450.104704	-450.149448	28.163	
N	-0.040346403	 1.2888581906	 0.0074982055	-0.438311
C	-0.0202793044	 0.0279865634	 0.0022529477	 0.139237
O	-1.1795675401	-0.6600502174	 0.0077227469	-0.189044
C	-1.0689089256	-2.0823696857	 0.0008064794	-0.179839
C	-2.4538366856	-2.6373810151	 0.0099265866	 0.291055
C	-3.6574238119	-1.9759441587	 0.0227250011	-0.146533
N	-4.5666635681	-2.9789985252	 0.0259674729	-0.154016
N	-3.9769395162	-4.187064664	 0.0159131193	-0.112012
N	-2.6914306219	-3.9791232642	 0.0061620256	-0.258139
H	 0.9100045512	 1.6530658255	 0.0022704891	 0.232488
H	 0.8716876033	-0.6136450431	-0.0066579253	 0.09113
H	-0.525636212	-2.4218804079	-0.8915751054	 0.133859
H	-0.5109527228	-2.4293694929	 0.8811684994	 0.133839
H	-3.9163468932	-0.9321235876	 0.0292998577	 0.170312
H	-5.5726038097	-2.9220531376	 0.0345232193	 0.285973
27.3005	39.4816	108.1891	113.6203	262.468	305.4504	368.1725	584.7674	639.4135	669.3726	728.1863	759.6674	808.1424	822.6686	989.6766	1013.967	1039.9442	1040.312	1049.4873	1058.0101	1128.2084	1150.8169	1243.6053	1266.9977	1284.8041	1303.2824	1347.3114	1408.6943	1429.8893	1495.5456	1509.1667	1605.2479	1752.1587	3001.137	3026.3739	3038.6603	3304.3812	3522.	3659.0398
N=COCC1=CNN=N1	[NH][CH]OCc1c[nH]nn1	
InChI=1S/C4H6N4O/c5-3-9-2-4-1-6-8-7-4/h1,3,5H,2H2,(H,6,7,8)	InChI=1S/C4H6N4O/c5-3-9-2-4-1-6-8-7-4/h1,3,5H,2H2,(H,6,7,8)
