20
gdb 37475	2.90171	1.68765	1.38287	1.4649	77.04	-0.2245	0.079	0.3035	1000.9661	0.174224	-403.102151	-403.094968	-403.094024	-403.133622	29.3	
C	 0.131562268	 1.4261025896	-0.0765125621	-0.240019
C	 1.3641098398	 0.6193122835	-0.0934289988	-0.045306
C	 1.6836232646	 0.1180877018	 1.310475069	 0.073653
O	 1.8990519477	 1.1499299385	 2.2522560302	-0.265253
C	 1.2738717676	 0.9033027493	 3.504702325	-0.067319
C	-0.2472101729	 0.8814325511	 3.3582354426	-0.21073
C	-0.6962162892	-0.2713010009	 2.4352492252	-0.23406
C	 0.2814267797	-0.5622378342	 1.288192088	 0.023323
N	-0.0132044558	-0.0400951086	-0.0982153108	-0.148401
H	-0.1244724212	 1.996045762	 0.8098828241	 0.121269
H	-0.1761813817	 1.8799229648	-1.0134919807	 0.120605
H	 2.0263734832	 0.5628504541	-0.9500808556	 0.094499
H	 2.510548861	-0.6030060521	 1.3485350707	 0.07329
H	 1.6343560175	-0.0434586079	 3.9425615653	 0.084241
H	 1.5956025666	 1.7154230848	 4.1626214125	 0.108563
H	-0.7137926364	 0.7723956223	 4.3438252902	 0.096168
H	-0.5642146358	 1.8539679897	 2.965979293	 0.111216
H	-0.7804330947	-1.1799273343	 3.0425456318	 0.103874
H	-1.6938775943	-0.084349151	 2.0226763705	 0.114018
H	 0.3974710662	-1.6422163323	 1.1711533899	 0.086366
117.4476	152.7476	275.4108	313.6277	391.9048	442.5325	494.6455	543.8102	627.4444	727.5552	758.9076	781.3784	805.6973	858.0791	873.1414	919.7096	967.6232	975.0526	1004.3206	1013.5842	1057.0759	1073.0943	1089.4959	1103.094	1119.9107	1138.4246	1173.5752	1211.9163	1224.9492	1245.2115	1278.056	1296.121	1314.1315	1355.8248	1358.6571	1364.8658	1378.394	1387.1237	1411.5666	1477.3974	1487.2869	1504.0052	1504.5117	2960.6231	3012.5877	3029.7516	3037.9625	3065.6556	3073.1871	3084.8968	3088.3415	3130.6081	3174.6546	3217.8256
C1C2C3OCCCC3N12	C1[C@H]2[C@H]3OCCC[C@H]3N12	
InChI=1S/C7H11NO/c1-2-5-7(9-3-1)6-4-8(5)6/h5-7H,1-4H2	InChI=1S/C7H11NO/c1-2-5-7(9-3-1)6-4-8(5)6/h5-7H,1-4H2/t5-,6+,7+,8?/m1/s1
