21
gdb 84228	2.89144	1.51094	1.32104	0.8673	90.04	-0.2049	-0.027	0.1779	1093.9358	0.182204	-349.864147	-349.855902	-349.854958	-349.896357	33.144	
C	 0.0419445336	 1.5749135465	-0.0575916974	-0.397456
C	-0.0026442603	 0.0429320358	-0.0336339368	-0.022087
C	 0.8452764665	-0.5395705124	-1.1705869654	-0.109324
C	 1.5982746863	-1.5543892642	-0.7047760418	-0.004974
C	 3.0133856317	-1.2075962635	-0.2265085406	-0.264256
C	 2.2599560012	-1.0453014393	 1.1459498442	-0.118424
C	 0.7244451423	-0.6289149323	 1.1515080841	-0.098813
C	 1.1612900336	-1.979868338	 0.7187273253	 0.30505
C	 0.7682647723	-3.3444644761	 1.1960706111	-0.516002
H	 1.0749986096	 1.9367387369	-0.0926967311	 0.118221
H	-0.4898954652	 1.9758691487	-0.9267119002	 0.114424
H	-0.4266637724	 1.9854590602	 0.8430848938	 0.113781
H	-1.0577085499	-0.2709645126	-0.0156798377	 0.076471
H	 1.1923322997	 0.1215813988	-1.9618888638	 0.089392
H	 3.7280434887	-2.0348493322	-0.1402132233	 0.102219
H	 3.4944364388	-0.3432573614	-0.6936620131	 0.097871
H	 2.7698518148	-1.0604780858	 2.1077131265	 0.084837
H	 0.3467771086	-0.4812314086	 2.1640596503	 0.069523
H	-0.1953253348	-3.6532908576	 0.7746880035	 0.122528
H	 1.5094595554	-4.0995056493	 0.9100694178	 0.119987
H	 0.6759068595	-3.3625454636	 2.2872444245	 0.117032
120.9154	195.922	202.9045	223.2626	242.1225	311.0382	391.9981	464.7971	532.5511	567.323	604.3636	663.2081	722.8411	794.458	847.5328	852.2756	880.9082	898.4534	925.7771	951.1255	982.8764	1005.4488	1020.2447	1037.9154	1055.3982	1082.8656	1109.2479	1117.2957	1136.5704	1180.333	1209.8366	1233.4213	1270.2612	1275.8406	1297.7304	1341.2772	1402.2367	1411.5566	1452.8463	1485.996	1493.3228	1496.6783	1497.8941	1503.2138	1595.0452	2975.0089	3021.2215	3023.6975	3028.8658	3081.7513	3087.3488	3093.6373	3099.0089	3101.6147	3106.114	3125.0012	3145.9533
CC1C=C2CC3C1C23C	C[C@H]1[CH][C]2C[C@H]3[C@@H]1[C@@]23C	
InChI=1S/C9H12/c1-5-3-6-4-7-8(5)9(6,7)2/h3,5,7-8H,4H2,1-2H3	InChI=1S/C9H12/c1-5-3-6-4-7-8(5)9(6,7)2/h3,5,7-8H,4H2,1-2H3/t5-,7-,8+,9-/m0/s1
