23
gdb 81064	2.64903	1.37893	1.1176	0.2331	89.98	-0.2598	0.0931	0.3529	1216.5302	0.206844	-351.096919	-351.088364	-351.08742	-351.130085	34.22	
C	-0.3510321553	 1.5041134604	-0.1941897433	-0.441897
C	-0.0293687653	 0.024065946	-0.051407826	 0.026624
C	 1.2295824841	-0.6219746598	-0.7099467032	-0.065755
C	 2.1025721956	 0.0314778136	 0.3992235324	-0.277271
C	 0.8428684009	-0.5313501838	 1.135997464	 0.36787
C	 1.0305234557	-1.8152607838	 0.263353767	-0.262368
C	 0.5247324071	-0.4715415736	 2.5916036208	-0.13942
C	 1.6196116602	-0.5576682127	 3.6282388317	-0.268836
C	 0.8873315248	 0.742169156	 3.415481523	-0.266625
H	 0.5175604119	 2.1543716972	-0.0632896004	 0.114386
H	-0.7688153153	 1.7095145522	-1.186368666	 0.114046
H	-1.1023180535	 1.8057784982	 0.5440394892	 0.117811
H	-0.9422923647	-0.5638745807	-0.21136685	 0.055035
H	 1.4601296798	-0.6759629275	-1.7749678703	 0.064953
H	 3.050981194	-0.4681656164	 0.6178487626	 0.08692
H	 2.2376707522	 1.1140349189	 0.3701529532	 0.089674
H	 0.1426277964	-2.4359237459	 0.1085676457	 0.082726
H	 1.9130834032	-2.4234794166	 0.4803182584	 0.084402
H	-0.4121438615	-0.957400709	 2.8551394798	 0.077764
H	 1.4247192223	-1.1194167177	 4.5350396276	 0.108835
H	 2.6435312106	-0.6225450406	 3.2759632136	 0.111307
H	 1.4220894463	 1.5456309678	 2.9206204771	 0.111075
H	 0.1896077607	 1.0743137381	 4.176242773	 0.108745
69.3994	137.8952	164.8825	192.3678	269.184	330.137	388.3297	441.4401	547.2543	588.4	594.7482	764.723	782.6512	793.2749	818.3371	833.3721	883.4235	906.9066	929.216	954.4833	966.7764	999.0379	1006.3462	1044.4289	1056.9976	1064.5879	1077.9609	1102.1158	1120.3262	1134.6266	1142.8289	1150.4854	1157.1888	1180.531	1200.0862	1213.8952	1222.0905	1236.9785	1249.09	1306.7944	1406.2365	1417.6256	1426.8183	1469.0334	1489.566	1495.4408	1503.1073	1510.7432	1545.8802	3017.7358	3032.8261	3042.4518	3055.8011	3087.382	3100.085	3106.9482	3111.3839	3122.7158	3126.7419	3131.5017	3136.571	3209.3527	3224.4709
CC1C2CC1(C2)C1CC1	C[C@H]1[C@H]2C[C@@]1(C2)C1CC1	
InChI=1S/C9H14/c1-6-7-4-9(6,5-7)8-2-3-8/h6-8H,2-5H2,1H3	InChI=1S/C9H14/c1-6-7-4-9(6,5-7)8-2-3-8/h6-8H,2-5H2,1H3/t6-,7-,9-/m0/s1
