19
gdb 91624	2.30182	1.92233	1.41258	2.1574	74.88	-0.2337	0.0072	0.2409	1002.9683	0.1597	-423.027642	-423.019749	-423.018804	-423.059677	31.154	
C	-0.1897437445	 1.5330210409	-0.0376064312	-0.41431
C	 0.037371178	 0.0325397353	 0.0259410339	 0.148884
O	 0.8500997885	-0.4161790692	-1.0733093683	-0.300198
C	 1.8808096933	-1.2125629245	-0.4381381296	 0.141885
O	 1.2115171909	-1.8053288636	 0.6555034315	-0.23378
C	 0.8376609085	-0.5464901546	 1.2475496239	-0.096988
C	 2.1737772943	 0.1919712534	 1.3194323566	 0.340592
C	 2.5220597699	 1.2290105002	 2.3324610801	-0.511655
C	 2.8395765969	-0.2452304953	 0.2455164564	-0.205125
H	 0.7581259902	 2.0763160013	-0.0201601336	 0.125732
H	-0.7089995539	 1.7919210147	-0.9646776634	 0.130319
H	-0.8110726471	 1.8677928166	 0.8006491858	 0.110362
H	-0.9218144396	-0.4988428416	-0.0168064401	 0.085481
H	 2.2583901523	-1.9493120489	-1.1440430497	 0.091723
H	 0.2699998003	-0.6883638049	 2.1661582519	 0.084775
H	 2.4998589546	 0.813444835	 3.347865267	 0.132019
H	 3.5191499753	 1.6405957771	 2.1544835135	 0.131511
H	 1.8065147816	 2.0603251977	 2.3199716857	 0.132926
H	 3.7906219507	 0.0880583103	-0.1468918203	 0.105846
151.1495	157.9198	182.4661	233.996	297.4902	314.614	468.3301	481.0758	519.5256	605.985	656.9718	711.5778	801.201	828.7238	847.8654	857.0983	875.3551	898.1682	928.8323	999.9694	1036.9366	1042.2537	1062.1994	1083.2737	1097.5635	1140.5154	1204.2505	1240.0118	1250.9937	1270.8358	1320.183	1328.5031	1349.3099	1381.9889	1407.2773	1414.9058	1477.6778	1485.0988	1486.7074	1501.5861	1692.7169	3019.7908	3021.6812	3038.4799	3066.8154	3107.0619	3112.2187	3126.7446	3135.0438	3152.6595	3226.8031
CC1OC2OC1C(C)=C2	C[C@H]1O[C@@H]2O[C@H]1C(=C2)C	
InChI=1S/C7H10O2/c1-4-3-6-8-5(2)7(4)9-6/h3,5-7H,1-2H3	InChI=1S/C7H10O2/c1-4-3-6-8-5(2)7(4)9-6/h3,5-7H,1-2H3/t5-,6-,7+/m1/s1
