18
gdb 45324	3.33067	1.40873	1.0796	3.6132	76.54	-0.2412	0.0127	0.254	1102.438	0.150112	-401.985027	-401.977365	-401.976421	-402.017717	29.492	
O	-0.0802013187	-0.0190569672	 0.0002682461	-0.368072
C	-0.0478276303	 1.1825723485	 0.008668589	 0.418717
N	-1.0304681973	 2.144936343	 0.0250449754	-0.337419
C	-0.1228848865	 3.2994694075	 0.0386324591	 0.046386
C	-0.1749909156	 4.2107610574	 1.2769947028	-0.282556
C	 1.2163020856	 4.6175704425	 1.7064128464	-0.052523
C	 2.2261133317	 3.7488036444	 1.6744919228	-0.054129
C	 2.0246051259	 2.3266917238	 1.2059370297	-0.282685
C	 1.0544758735	 2.2728497165	 0.0135304314	-0.1702
H	-2.0365496875	 2.0724855317	-0.0207206163	 0.246059
H	-0.1846661691	 3.9003461495	-0.87486032	 0.086521
H	-0.7988011199	 5.0891612332	 1.0842730345	 0.103582
H	-0.6637663608	 3.6570329071	 2.0910052745	 0.117326
H	 1.3662672628	 5.6298436043	 2.0693594868	 0.090958
H	 3.2163502576	 4.0397701028	 2.0124729198	 0.093022
H	 2.9773330735	 1.8628476459	 0.9372399736	 0.115824
H	 1.6237332587	 1.7242668693	 2.0333412916	 0.126835
H	 1.6033594362	 2.2986741	-0.9306058672	 0.102353
58.6288	100.8441	188.7423	327.4728	394.8153	408.9838	437.2431	496.0445	550.6401	680.403	699.5986	741.7191	768.1539	782.5263	905.5807	922.2711	953.7264	982.0245	991.4266	997.8339	1056.364	1087.0684	1128.9423	1139.6422	1178.756	1188.5406	1222.9637	1226.2759	1278.6838	1323.0671	1327.8049	1341.0143	1381.4697	1387.4258	1404.5223	1484.2657	1491.4489	1708.3937	1889.2236	3008.5124	3011.7704	3041.4299	3074.4731	3078.8461	3094.6549	3160.6409	3183.7297	3602.9376
O=C1NC2CC=CCC12	O=C1N[C@H]2CC=CC[C@@H]12	
InChI=1S/C7H9NO/c9-7-5-3-1-2-4-6(5)8-7/h1-2,5-6H,3-4H2,(H,8,9)	InChI=1S/C7H9NO/c9-7-5-3-1-2-4-6(5)8-7/h1-2,5-6H,3-4H2,(H,8,9)/t5-,6+/m1/s1
