19
gdb 39071	2.49498	1.73133	1.21813	1.724	82.11	-0.2318	-0.0135	0.2183	1055.1458	0.161102	-385.873269	-385.865649	-385.864705	-385.905235	30.324	
C	 0.0418637066	 1.4416581626	 0.3106394698	-0.301449
C	 1.3047142167	 2.2251728659	 0.0386578953	-0.052316
C	 1.631852924	 2.803411437	-1.1235267864	-0.091906
C	 0.9275777067	 2.5804634401	-2.3905003969	-0.095248
C	 0.7460246913	 1.3657872748	-2.9261640577	-0.059204
C	 1.3294058576	 0.0996130569	-2.3478409456	-0.282085
C	 0.4684087637	-0.6310561902	-1.3197007629	 0.042854
O	 1.0736167433	-0.8798488938	-0.0374120745	-0.256623
C	-0.063832175	-0.0216899197	-0.0950696223	 0.090225
H	-0.1594674133	 1.4873169219	 1.387506559	 0.109408
H	-0.8032799854	 1.9436543376	-0.1793087825	 0.119908
H	 1.9373389497	 2.4145515231	 0.9020818004	 0.095892
H	 2.4824299799	 3.4842361123	-1.1453471997	 0.093408
H	 0.5812010865	 3.4572348417	-2.9360385815	 0.092627
H	 0.2025351768	 1.2808333734	-3.8645826374	 0.090901
H	 1.5581330157	-0.5980199041	-3.1604916755	 0.100021
H	 2.270294766	 0.3376191669	-1.8448657836	 0.13243
H	-0.0819260098	-1.4902835159	-1.7062646708	 0.088934
H	-0.971269921	-0.4798698805	 0.3094117328	 0.082223
91.8593	195.0855	217.1356	276.2437	347.0977	356.6606	431.2295	523.9964	573.9108	617.4873	733.7875	745.9984	776.7551	793.7121	821.0157	901.6167	933.7834	942.3546	974.7929	991.8827	1006.5893	1048.7881	1057.3776	1070.7592	1129.2852	1152.5145	1212.2822	1242.5905	1268.1944	1276.5037	1316.1673	1334.7628	1355.1727	1381.3011	1408.3562	1440.2535	1470.665	1476.9569	1493.0754	1684.4441	1697.0188	3017.506	3044.3952	3054.7298	3061.8446	3088.4313	3104.9376	3122.0712	3131.038	3157.9165	3163.1674
C1C=CC=CCC2OC12	C1C=CC=CC[C@H]2O[C@@H]12	
InChI=1S/C8H10O/c1-2-4-6-8-7(9-8)5-3-1/h1-4,7-8H,5-6H2/b3-1-,4-2-	InChI=1S/C8H10O/c1-2-4-6-8-7(9-8)5-3-1/h1-4,7-8H,5-6H2/b3-1-,4-2-/t7-,8+
