20
gdb 79156	3.90347	1.31167	1.16106	1.9219	78.93	-0.214	0.0878	0.3019	1129.4524	0.171311	-403.077925	-403.070148	-403.069204	-403.109795	31.22	
C	-0.4497540948	 1.2085903502	-0.2443578231	-0.398964
C	-0.2245826804	-0.2889221474	-0.0969005861	 0.109589
O	 0.7298730371	-0.7566113126	-1.0840211658	-0.2944
C	 1.7233000198	-1.3573893603	-0.2986631589	 0.137715
C	 2.0080904318	-0.5357056587	 0.9925757854	-0.068974
C	 0.4593159109	-0.7389695556	 1.1885789814	-0.086764
C	 1.1097952936	-2.1397326916	 0.9002295321	-0.07396
N	 2.3571801366	-1.8269824852	 1.6761770035	-0.114321
C	 2.260733362	-1.8567610451	 3.1317323034	-0.322536
H	 0.4758552702	 1.7633216659	-0.0632383857	 0.120203
H	-0.7955615669	 1.4417935626	-1.2553233267	 0.128974
H	-1.2079514267	 1.5554912916	 0.4657633111	 0.113325
H	-1.1708827989	-0.8254338831	-0.2543627416	 0.080052
H	 2.5328746191	-1.7755639674	-0.8913748018	 0.09945
H	 2.6025956872	 0.3713419608	 1.112430339	 0.07859
H	-0.0316997285	-0.5209688824	 2.1342652171	 0.079593
H	 0.6399613076	-3.1248391969	 0.9094456606	 0.077674
H	 2.2781982334	-2.9001996791	 3.4636250862	 0.120381
H	 3.1426448946	-1.3621915927	 3.5523874514	 0.120286
H	 1.3662572622	-1.3786046629	 3.5617398186	 0.094087
149.3735	201.658	208.1009	214.6197	264.1302	340.4988	469.2669	485.8664	530.1049	656.5115	702.5949	777.86	800.1173	801.3701	841.4199	903.3894	909.0822	931.5277	977.4493	983.2737	1043.3727	1062.6355	1088.5735	1121.5663	1132.6089	1137.4472	1139.7055	1158.2358	1170.7335	1176.4588	1210.8606	1224.7063	1264.156	1292.3233	1310.435	1369.8127	1389.1087	1407.7217	1449.7865	1486.7273	1493.046	1495.2186	1498.3488	2976.282	3004.7626	3037.736	3062.4027	3096.2229	3098.6089	3102.975	3109.4968	3118.681	3150.6195	3167.2137
CC1OC2C3C1C2N3C	C[C@H]1O[C@H]2[C@H]3[C@@H]1[C@@H]2N3C	
InChI=1S/C7H11NO/c1-3-4-5-7(9-3)6(4)8(5)2/h3-7H,1-2H3	InChI=1S/C7H11NO/c1-3-4-5-7(9-3)6(4)8(5)2/h3-7H,1-2H3/t3-,4-,5-,6+,7+/m1/s1
