23
gdb 108135	3.30441	1.25187	1.16858	0.1936	88.58	-0.2425	0.0887	0.3313	1206.7069	0.208106	-351.150183	-351.141969	-351.141025	-351.182822	33.162	
C	-0.2999960496	 1.4880047158	 0.0657207288	-0.372725
C	 0.1378119802	 0.019949743	-0.033403187	-0.302528
C	 0.8395211433	-0.4693003508	 1.2048675941	 0.386276
C	 2.2573896777	-0.0636795235	 1.6281179792	-0.29416
C	 2.375540148	-1.4133375603	 2.4086997811	-0.033301
C	 1.9957720159	-1.2285803813	 3.88462413	-0.200707
C	 0.5497668047	-0.6607972079	 3.8238923208	-0.23885
C	 0.0786259417	-1.0095876183	 2.411264008	-0.076678
C	 1.075204744	-1.8885842182	 1.7021099285	-0.155061
H	 0.5589209706	 2.1449726226	 0.2397937036	 0.117317
H	-0.7908729823	 1.8191105788	-0.8547857796	 0.108232
H	-1.0009078625	 1.6332286115	 0.8943674562	 0.116404
H	-0.7378231378	-0.6125188615	-0.2288867395	 0.092431
H	 0.8027921715	-0.1037635375	-0.8994716463	 0.091668
H	 2.9272687579	-0.0371085359	 0.7630068918	 0.09265
H	 2.3901759488	 0.8612560924	 2.2032332914	 0.08213
H	 3.2909595004	-1.9810749697	 2.2405812814	 0.06151
H	 2.0046466051	-2.1968479904	 4.3983705213	 0.093163
H	 2.6893126877	-0.5674484472	 4.4148653058	 0.091029
H	-0.0970495541	-1.1204309764	 4.5776429634	 0.094387
H	 0.5288983342	 0.4193136495	 4.0060843905	 0.097224
H	-0.9776095921	-1.1871941627	 2.2352686547	 0.073787
H	 0.8671405067	-2.844847972	 1.2388628619	 0.075802
82.6048	131.68	210.4087	221.054	312.1333	335.103	387.5918	431.232	579.5932	677.4243	696.7089	721.341	787.406	821.5817	848.5873	862.6913	876.4229	899.6969	924.098	962.2286	973.4179	997.6753	999.2218	1024.7438	1034.7749	1075.5109	1083.3063	1101.3951	1141.4858	1167.7417	1195.8098	1220.0094	1231.0569	1237.5787	1261.1659	1279.8422	1298.0097	1321.7817	1329.6634	1347.6775	1359.5291	1407.8477	1436.7969	1481.0785	1485.6674	1496.4831	1499.2733	1507.7601	1511.5068	3007.2364	3019.2146	3031.903	3032.6505	3041.5669	3042.4734	3069.3949	3076.5257	3086.9103	3100.8972	3104.2112	3107.5185	3161.3071	3188.8947
CCC12CC3CCC1C23	CC[C@@]12C[C@H]3CC[C@@H]1[C@@H]23	
InChI=1S/C9H14/c1-2-9-5-6-3-4-7(9)8(6)9/h6-8H,2-5H2,1H3	InChI=1S/C9H14/c1-2-9-5-6-3-4-7(9)8(6)9/h6-8H,2-5H2,1H3/t6-,7-,8+,9-/m1/s1
