13
gdb 132545	3.13722	1.39389	0.97089	2.5646	64.26	-0.2627	-0.0587	0.2041	1102.3426	0.088236	-502.054166	-502.046792	-502.045848	-502.08646	26.877	
C	 0.0132450812	 1.4970347825	 0.0332772531	-0.47049
C	 0.0107851708	-0.0036401692	-0.0138544049	 0.306387
C	-0.1686010704	-0.7209057218	-1.1910960202	-0.075065
N	-0.1685511781	-2.0633551019	-1.218202639	-0.279582
C	 0.0084220107	-2.6763555439	-0.0838317742	 0.19628
F	 0.0155583494	-3.9997333808	-0.0646011872	-0.043188
C	 0.1909011975	-1.9640329802	 1.1132834077	 0.186234
F	 0.3673616733	-2.6298625383	 2.2431982797	-0.042451
N	 0.1923365806	-0.6635889765	 1.1491469876	-0.332752
H	 0.9639603652	 1.8663912737	 0.4304092236	 0.149427
H	-0.1409680445	 1.9259563048	-0.9593474104	 0.130358
H	-0.7762735418	 1.8608041747	 0.6983504099	 0.149427
H	-0.3166034241	-0.215389263	-2.1399105559	 0.125414
94.5313	127.8962	230.3026	289.9089	306.2008	394.3925	494.3085	501.7667	547.03	600.2356	636.7839	715.2687	784.9075	813.8703	922.1551	997.6076	1037.8758	1061.6833	1206.8425	1258.5467	1313.7415	1336.6714	1413.2364	1461.1441	1474.8774	1492.5975	1509.2059	1614.9004	1629.2886	3044.2661	3104.6874	3131.4701	3183.0026
CC1=CN=C(F)C(F)=N1	Cc1cnc(F)c(F)n1	
InChI=1S/C5H4F2N2/c1-3-2-8-4(6)5(7)9-3/h2H,1H3	InChI=1S/C5H4F2N2/c1-3-2-8-4(6)5(7)9-3/h2H,1H3
