19
gdb 38287	3.69286	1.52457	1.33403	1.7507	80.42	-0.2278	0.0182	0.246	1003.6929	0.162729	-385.860832	-385.854319	-385.853375	-385.89147	27.63	
C	-0.1361472902	 1.5266006221	-0.0356366396	-0.223808
C	 1.403579124	 1.4088845008	 0.0479014075	 0.018074
O	 1.2061744589	 0.2037986086	 0.8763270119	-0.298325
C	 0.0422815478	-0.0252661375	 0.0085692035	-0.068588
C	 0.671541637	-0.2354623423	-1.3430617365	 0.375334
C	 0.3913130059	-0.5965321458	-2.5900158816	-0.254611
C	 1.3642199839	 0.0881534718	-3.5468975338	-0.237986
C	 1.9030409426	 1.2831618822	-2.6950179111	-0.264393
C	 1.8568904102	 0.7175793159	-1.2661531559	-0.010583
H	-0.5598033245	 1.9061977807	 0.895177921	 0.112772
H	-0.6028650049	 1.9805984377	-0.9126402257	 0.100957
H	 2.036722625	 2.1618321405	 0.5159287471	 0.080137
H	-0.7019557636	-0.7068204933	 0.4156461082	 0.087603
H	-0.4325112172	-1.2165703534	-2.9237877454	 0.091907
H	 2.18212253	-0.5808492115	-3.8522123036	 0.106408
H	 0.8759454973	 0.4194130828	-4.4699763429	 0.101302
H	 2.8965553273	 1.6179946752	-3.006813242	 0.093591
H	 1.2149842224	 2.1309451927	-2.7958799343	 0.099588
H	 2.784325328	 0.1774990028	-1.034999447	 0.090619
159.541	222.7856	306.2327	394.423	490.4387	521.2341	602.6784	659.0265	674.1066	795.7888	817.8631	845.0973	848.8006	868.8519	896.8494	901.9304	911.0504	935.7663	968.039	1007.9099	1031.0127	1045.1334	1079.2887	1094.4447	1145.3049	1156.7139	1175.5439	1197.2203	1220.2334	1236.9506	1252.4691	1264.9212	1278.9889	1309.75	1316.0913	1344.6768	1360.1782	1476.4358	1483.4174	1496.2185	1740.9951	3001.6111	3019.4041	3035.357	3062.7985	3069.7594	3093.0568	3127.8678	3142.1228	3146.5944	3197.0188
C1C2OC1C1=CCCC21	C1[C@H]2O[C@@H]1[C]1[CH]CC[C@@H]21	
InChI=1S/C8H10O/c1-2-5-6(3-1)8-4-7(5)9-8/h2,6-8H,1,3-4H2	InChI=1S/C8H10O/c1-2-5-6(3-1)8-4-7(5)9-8/h2,6-8H,1,3-4H2/t6-,7+,8-/m1/s1
