15
gdb 128376	2.68926	1.57802	1.00068	0.6076	73.12	-0.2279	-0.052	0.1758	1122.17	0.112976	-453.946994	-453.938805	-453.937861	-453.980339	29.463	
C	 0.0544613808	 1.4118662322	-0.0238524111	-0.315413
N	-0.0860869068	-0.0256424065	 0.0049693779	-0.32056
C	-1.2673939104	-0.6657408924	 0.0037941579	 0.30609
N	-2.3774074958	 0.0268756951	-0.0257420575	-0.216454
O	-3.565496663	-0.7209894319	-0.0249486804	-0.216696
C	-3.5437134674	-2.0452917096	 0.0043695572	 0.122123
C	-2.4279228043	-2.8121425938	 0.035810997	-0.291703
C	-1.1527555997	-2.1617804352	 0.0381756646	 0.356845
O	-0.0451718283	-2.6855306812	 0.0642762898	-0.389462
H	 1.116089257	 1.6631143615	-0.0164006364	 0.130927
H	-0.4069774618	 1.8362025547	-0.9230608408	 0.143329
H	-0.4283402491	 1.8739585702	 0.8450491725	 0.143229
H	 0.7097734603	-0.6465159574	 0.0297142	 0.269869
H	-4.5549330854	-2.4400792095	-0.0001900572	 0.150075
H	-2.4957451661	-3.8914978063	 0.0586904165	 0.127802
71.5628	99.4807	147.1948	189.7176	275.2056	358.0883	444.7201	481.5229	501.8098	549.0726	576.8534	598.4353	733.5533	786.9269	857.2568	895.3892	954.338	965.4935	1054.0041	1085.0614	1162.4933	1198.13	1246.3376	1296.0633	1336.3201	1443.9264	1458.5268	1475.9109	1514.3953	1568.1965	1616.1992	1630.3224	1745.9197	3026.6004	3075.5949	3138.8829	3191.1623	3229.7196	3610.5061
CNC1=NOC=CC1=O	CNc1noccc1=O	
InChI=1S/C5H6N2O2/c1-6-5-4(8)2-3-9-7-5/h2-3H,1H3,(H,6,7)	InChI=1S/C5H6N2O2/c1-6-5-4(8)2-3-9-7-5/h2-3H,1H3,(H,6,7)
