16
gdb 48554	3.94306	1.48869	1.36673	4.3631	72.77	-0.237	-0.0331	0.2039	950.9429	0.125191	-400.695717	-400.68904	-400.688096	-400.727026	26.353	
O	-0.2284249191	 0.3383355407	-0.8538555786	-0.255158
C	 0.0134361205	 1.1851135318	-0.0301251633	 0.03245
C	 1.2706750777	 1.9528141892	 0.0567550463	 0.252921
C	 1.6695866362	 3.0330518037	 1.1046025872	-0.156914
C	 3.1782120258	 3.0198970449	 1.0514255965	-0.091542
C	 3.6235959799	 1.7200851411	 0.4069061506	-0.176275
N	 2.532783605	 1.4624889823	-0.5474281475	-0.139853
C	 2.0017277821	 2.7338330872	-1.0128976422	-0.099094
C	 2.3958770954	 3.8143990548	 0.0289466537	-0.088857
H	-0.7392685457	 1.4769457868	 0.7387120066	 0.067326
H	 1.0679810655	 3.3861559881	 1.9297296844	 0.100667
H	 3.7562894122	 3.5324376955	 1.8097825783	 0.10115
H	 4.566643043	 1.8108995295	-0.1406820075	 0.117195
H	 3.6966199025	 0.8881600453	 1.1131701241	 0.118557
H	 1.7411070478	 2.8629089846	-2.0553589113	 0.116962
H	 2.4625687413	 4.8802491244	-0.1298130173	 0.100464
83.7022	189.794	194.4677	412.5888	427.1215	566.0701	692.1973	729.3176	747.5047	759.8036	782.619	818.8814	843.8997	881.8349	896.7252	943.5658	982.4961	985.0039	996.3464	1026.5871	1039.0696	1064.0586	1069.0831	1088.6232	1131.5245	1211.0941	1224.9569	1237.9393	1258.1994	1302.3881	1337.632	1397.4123	1436.0057	1497.5096	1812.6138	2858.8972	3058.3294	3107.554	3203.4173	3203.6179	3218.8595	3233.16
O=CC12C3C4CN1C2C34	O=C[C@@]12[C@H]3[C@H]4CN1[C@@H]2[C@@H]34	
InChI=1S/C7H7NO/c9-2-7-5-3-1-8(7)6(7)4(3)5/h2-6H,1H2	InChI=1S/C7H7NO/c9-2-7-5-3-1-8(7)6(7)4(3)5/h2-6H,1H2/t3-,4+,5-,6+,7-,8?/m0/s1
