17
gdb 55035	3.41992	1.03458	0.85222	3.6849	69.52	-0.2416	0.0154	0.257	1311.1931	0.135443	-455.113292	-455.1043	-455.103356	-455.148696	32.295	
N	 0.0729722137	 1.1255163023	 0.6355096995	-0.527436
C	-0.1259221856	 0.1136324518	-0.2568366967	 0.418055
O	 0.4842368985	 0.0228459422	-1.301716154	-0.360019
C	-1.1869282056	-0.9103199605	 0.1080148771	-0.135215
N	-0.7121621385	-2.1615677958	 0.7110723158	-0.321588
C	-1.6481905291	-1.3234391223	 1.4686259937	-0.058195
C	-1.1360619915	-0.7693734253	 2.7604192379	 0.060715
C	-1.9763065291	 0.0914008827	 3.6132774962	-0.191185
O	-1.7624355381	-1.2796183904	 3.9388342266	-0.231805
H	 0.7264473585	 1.8505640757	 0.3858459924	 0.262804
H	-0.5266159594	 1.263168822	 1.4295715102	 0.263306
H	-1.9248610028	-0.9930225205	-0.6880527873	 0.116364
H	-1.173934644	-2.9652466773	 0.2959229027	 0.244587
H	-2.6883888944	-1.6407288233	 1.5369264087	 0.098071
H	-0.0530088297	-0.6819646708	 2.8266458485	 0.124106
H	-1.5110889872	 0.8123504928	 4.2846490252	 0.120599
H	-2.9873743258	 0.3425633765	 3.2931740336	 0.116834
17.8508	73.3146	142.1233	199.1661	255.7838	272.2181	295.5865	342.4286	467.4505	500.085	607.2427	620.9209	731.2577	784.8818	830.7705	865.9471	912.1481	918.9135	938.0992	987.3651	1033.9461	1095.7715	1103.1246	1131.7667	1159.2764	1173.2381	1188.4985	1238.1429	1256.3357	1282.5266	1332.4499	1361.4712	1424.1258	1484.0786	1528.6476	1617.8901	1805.1991	3077.5871	3113.223	3127.5432	3135.6763	3164.1399	3519.2318	3598.0064	3737.304
NC(=O)C1NC1C1CO1	NC(=O)[C@H]1N[C@H]1[C@H]1CO1	
InChI=1S/C5H8N2O2/c6-5(8)4-3(7-4)2-1-9-2/h2-4,7H,1H2,(H2,6,8)	InChI=1S/C5H8N2O2/c6-5(8)4-3(7-4)2-1-9-2/h2-4,7H,1H2,(H2,6,8)/t2-,3+,4+/m1/s1
