15
gdb 126384	2.78754	1.48583	0.98075	3.2014	70.14	-0.2648	-0.0996	0.1652	1147.0267	0.111791	-453.949873	-453.941811	-453.940866	-453.983212	28.956	
C	-0.006105704	 1.5334736946	 0.1163862447	-0.385962
C	 0.0919172572	 0.0175508562	-0.0248788573	-0.267224
C	 0.7235146997	-0.4538369858	-1.2977131001	 0.194927
N	 1.1468728491	 0.3673504802	-2.1982900288	-0.295125
C	 1.7099272441	-0.1924813468	-3.3274963459	 0.099243
N	 1.8735652918	-1.4370397417	-3.6105529101	-0.058544
O	 1.4214112449	-2.3373352893	-2.6475736427	-0.243409
C	 0.8394910483	-1.9263926978	-1.4738905346	 0.431223
O	 0.4687471835	-2.748213224	-0.68111248	-0.314693
H	 0.9821855523	 1.9990558937	 0.0823292672	 0.133745
H	-0.5996834071	 1.9689135905	-0.6915051118	 0.133785
H	-0.4768453484	 1.7905858141	 1.0686889683	 0.120739
H	 0.6563361108	-0.4309572534	 0.8042460568	 0.148114
H	-0.8949523578	-0.460373866	 0.04525985	 0.148104
H	 2.0677373154	 0.4932787157	-4.0883892259	 0.155078
61.2886	97.4621	189.837	198.4181	251.2799	334.7852	402.977	525.4165	553.0164	565.2908	582.8299	728.8165	733.4111	828.4208	885.2966	951.6356	960.4445	995.3403	1040.0287	1090.3976	1108.2533	1191.932	1254.9396	1266.1562	1354.7068	1396.4228	1418.5577	1437.9809	1493.9013	1498.6885	1588.2425	1667.4635	1835.5745	3026.9871	3044.8427	3053.7053	3126.8314	3127.48	3201.475
CCC1=NC=NOC1=O	CCc1ncnoc1=O	
InChI=1S/C5H6N2O2/c1-2-4-5(8)9-7-3-6-4/h3H,2H2,1H3	InChI=1S/C5H6N2O2/c1-2-4-5(8)9-7-3-6-4/h3H,2H2,1H3
