12
gdb 23620	4.10919	1.85218	1.27671	5.3184	61.05	-0.2173	-0.0245	0.1929	846.0039	0.085569	-418.83807	-418.831721	-418.830777	-418.868697	23.774	
F	 0.0716949098	 0.0518110816	 0.0422195768	-0.05764
C	-0.0543991501	 1.3690100529	 0.0080129728	 0.393723
C	-1.2075454514	 2.0341490825	 0.1199289009	-0.323235
C	-1.1901408532	 3.4978590751	 0.063219905	 0.346038
N	-2.2747343841	 4.1681580762	 0.1668370984	-0.535553
N	 0.0761090446	 4.1230135335	-0.1102534099	-0.307097
C	 1.1255849179	 3.4005296674	-0.2077351187	 0.096799
N	 1.144549256	 2.024799902	-0.15863146	-0.378529
H	-2.1443982478	 1.5122410989	 0.2505083234	 0.13454
H	-2.0490984705	 5.1628096537	 0.102967347	 0.214497
H	 2.1022388851	 3.861463932	-0.3407583722	 0.138522
H	 1.9983278836	 1.4971152442	-0.2402377436	 0.277935
121.607	206.981	334.6249	357.9763	470.5288	472.6843	520.3962	568.084	646.2082	739.7134	790.5074	866.0062	902.702	904.2229	958.485	1014.0187	1077.3635	1149.9605	1229.3517	1309.4985	1360.9593	1423.748	1502.4693	1666.5953	1689.9864	1755.1523	3156.4088	3245.0636	3463.5634	3655.6621
FC1=CC(=N)N=CN1	F[C@H]1C=C([NH])N=CN1	
InChI=1S/C4H4FN3/c5-3-1-4(6)8-2-7-3/h1-2H,(H2,6,7,8)	InChI=1S/C4H5FN3/c5-3-1-4(6)8-2-7-3/h1-3,6H,(H,7,8)/t3-/m1/s1
