19
gdb 110027	2.31305	1.48751	1.04979	4.9574	71.43	-0.2608	0.0147	0.2755	1186.4476	0.159058	-460.210511	-460.201496	-460.200552	-460.244379	33.248	
C	 0.1650257925	 1.6171614821	 0.0854208954	-0.3989
C	 0.0111443112	 0.092988224	 0.0827156902	-0.180996
C	 0.4996213324	-0.5580136656	-1.2166554525	-0.15065
C	 0.6339950386	-2.0847222727	-1.2167886985	 0.062936
O	-0.4716116094	-2.6135150102	-0.5051618045	-0.423697
C	 0.5508421581	-2.3903985966	-2.7214118462	-0.102335
O	-0.3089760876	-1.3874731662	-3.2753337334	-0.221166
C	-0.3962052248	-0.3159054509	-2.4351625861	 0.457053
O	-1.0786209756	 0.6330593233	-2.6913226645	-0.33842
H	 1.2161215484	 1.9088191042	-0.0262490454	 0.104515
H	-0.4010787752	 2.0640925388	-0.7341543562	 0.15484
H	-0.1970086417	 2.0388172081	 1.0279196778	 0.110523
H	 0.5766652417	-0.3418145755	 0.9151999907	 0.097192
H	-1.0338780732	-0.1836331293	 0.2454101512	 0.125899
H	 1.4832070826	-0.1425127331	-1.4826956784	 0.107433
H	 1.5849895581	-2.4262994632	-0.7867548415	 0.077158
H	-0.4224213942	-3.5742003595	-0.5289082648	 0.290093
H	 1.5358940772	-2.3324563631	-3.2015479378	 0.113126
H	 0.110245131	-3.3692106947	-2.9301826956	 0.115396
81.8589	103.8431	178.9139	187.9612	216.8122	275.3169	288.3945	327.5209	398.2398	481.1966	516.6664	634.999	723.9874	748.4944	789.0134	848.9787	874.5265	928.2674	978.576	1002.0508	1046.8277	1076.2986	1094.9842	1125.907	1157.3028	1179.9717	1197.6259	1236.9461	1269.5697	1291.7816	1330.9531	1353.6854	1376.1465	1391.6668	1410.3715	1430.6996	1486.6609	1498.9559	1504.4907	1516.7234	1878.6882	3003.4948	3014.7874	3032.571	3033.3677	3041.1357	3088.6116	3094.6465	3105.8262	3139.186	3822.9666
CCC1C(O)COC1=O	CC[C@H]1[C@@H](O)COC1=O	
InChI=1S/C6H10O3/c1-2-4-5(7)3-9-6(4)8/h4-5,7H,2-3H2,1H3	InChI=1S/C6H10O3/c1-2-4-5(7)3-9-6(4)8/h4-5,7H,2-3H2,1H3/t4-,5-/m0/s1
