23
gdb 58245	2.69147	1.0803	0.84858	2.7254	81.77	-0.2514	0.06	0.3114	1437.9981	0.2038	-425.41315	-425.402728	-425.401784	-425.44833	39.555	
C	-0.0703344472	 1.5489547739	-0.0213485502	-0.391683
C	-0.016928424	 0.0173402135	 0.0468420249	 0.011217
C	 0.7874668049	-0.4512714681	 1.2678734034	-0.390533
C	-1.4318128552	-0.5887463919	 0.0360422724	 0.115911
O	-2.1957796381	-0.1013645863	-1.0906260049	-0.441775
C	-1.4464932869	-2.1064092509	 0.0495012018	-0.086401
C	-1.9189220406	-2.8773647426	 1.270474069	-0.310293
C	-2.7938811983	-2.7888636742	 0.0543671204	 0.110442
O	-3.939075168	-1.995616946	 0.1256591838	-0.43491
H	 0.9367505361	 1.9701974513	-0.1019566425	 0.107311
H	-0.6597428955	 1.8860248442	-0.8763815021	 0.123628
H	-0.531168449	 1.9605951761	 0.8846050934	 0.112887
H	 0.4941874805	-0.3497721343	-0.8581863057	 0.05943
H	 0.304242393	-0.1308622184	 2.1983954402	 0.116199
H	 0.8880282929	-1.53910221	 1.3026044208	 0.122187
H	 1.7927977435	-0.0185664833	 1.2535797556	 0.112494
H	-1.9869297278	-0.2110440356	 0.9013845651	 0.096813
H	-1.7888327731	-0.4554077701	-1.8899702668	 0.279658
H	-0.6660428661	-2.5722321026	-0.5497492351	 0.079152
H	-1.4385863148	-3.8208962937	 1.5049743586	 0.109938
H	-2.233246511	-2.296844276	 2.131093609	 0.122515
H	-2.9026764219	-3.6888236385	-0.5511024124	 0.082165
H	-3.8036251332	-1.2685380367	-0.4995162986	 0.29365
70.7953	78.3321	140.3037	209.0136	215.9291	237.3517	259.0102	312.4502	340.1851	365.7779	399.6851	423.1187	455.0912	514.559	579.569	636.4996	793.0525	830.8907	849.004	875.091	929.732	941.1743	965.4021	1001.2712	1005.3266	1034.0346	1056.8023	1103.7191	1129.4054	1137.4912	1167.5351	1170.9869	1196.0449	1235.9628	1261.9524	1286.1743	1345.5628	1372.4143	1384.5295	1397.8911	1399.7053	1414.8084	1420.2537	1426.2063	1478.3174	1487.678	1490.4323	1502.2788	1513.2043	2971.459	3030.4348	3034.5402	3059.4953	3092.8468	3093.8547	3098.4646	3115.7975	3119.1966	3129.4997	3134.3406	3223.896	3717.6994	3794.4221
CC(C)C(O)C1CC1O	CC(C)[C@@H](O)[C@H]1C[C@H]1O	
InChI=1S/C7H14O2/c1-4(2)7(9)5-3-6(5)8/h4-9H,3H2,1-2H3	InChI=1S/C7H14O2/c1-4(2)7(9)5-3-6(5)8/h4-9H,3H2,1-2H3/t5-,6+,7+/m0/s1
