21
gdb 92175	2.58257	1.81611	1.62072	1.5239	79.8	-0.2295	0.0784	0.3079	967.7578	0.185725	-387.066975	-387.059839	-387.058895	-387.098038	30.065	
C	-0.3544188547	 1.5134173278	 0.0750902429	-0.419745
C	 0.0370487022	 0.0332151698	-0.0098871288	 0.032381
C	 0.769476372	-0.399614558	-1.3206828444	-0.223223
C	 2.2690311636	-0.6043046189	-1.0519181078	-0.070343
C	 2.8519624206	 0.635002334	-0.3135878531	-0.252078
C	 2.4450884527	-0.0525818611	 1.0030534657	-0.076984
C	 2.4539577601	-1.4197898515	 0.2969300856	 0.129898
O	 1.2229324459	-1.845017775	 0.8896951827	-0.305943
C	 0.9239883796	-0.4338758702	 1.1438010071	 0.080994
H	 0.5095685169	 2.1828174574	 0.0609090503	 0.122426
H	-1.0011345197	 1.7897035891	-0.7640998298	 0.116678
H	-0.9093778157	 1.7140724733	 0.9987047941	 0.112627
H	-0.8876433845	-0.5512564966	 0.0668867403	 0.081507
H	 0.3376085729	-1.3350354073	-1.6868824217	 0.107691
H	 0.6327197168	 0.3490347211	-2.1093472099	 0.091375
H	 2.7997243763	-0.9647274095	-1.9354398895	 0.061938
H	 3.943667986	 0.6753481156	-0.3824436507	 0.099807
H	 2.453598391	 1.6185035287	-0.5724190334	 0.096703
H	 2.9621332735	 0.1550193201	 1.9400658904	 0.069631
H	 3.248177371	-2.1673958354	 0.3386264005	 0.073783
H	 0.4714624837	-0.2917416233	 2.1296323495	 0.070877
170.4029	198.5609	250.9357	353.3361	369.1918	402.1117	480.9489	571.0902	637.2011	717.4029	752.6555	796.0139	824.5422	828.0315	874.6663	887.5291	943.9346	962.4315	978.0879	995.5706	1012.6049	1034.1458	1050.0944	1078.3322	1090.9826	1106.8693	1143.4242	1157.8052	1204.4893	1218.8738	1225.0822	1252.1262	1280.4868	1291.4247	1312.0362	1320.1474	1335.2666	1359.4103	1364.5801	1379.0244	1416.3327	1482.879	1493.8837	1501.1769	1510.4085	3025.4541	3033.5667	3040.7614	3052.0493	3062.7274	3081.5676	3088.2849	3093.8599	3095.154	3102.6107	3109.7762	3121.5025
CC1CC2CC3C2OC13	C[C@H]1C[C@H]2C[C@@H]3[C@H]2O[C@H]13	
InChI=1S/C8H12O/c1-4-2-5-3-6-7(4)9-8(5)6/h4-8H,2-3H2,1H3	InChI=1S/C8H12O/c1-4-2-5-3-6-7(4)9-8(5)6/h4-8H,2-3H2,1H3/t4-,5-,6-,7+,8-/m0/s1
