18
gdb 64780	3.54986	1.08005	1.00976	3.0906	71.4	-0.2582	0.018	0.2763	1211.772	0.147512	-439.102439	-439.093563	-439.092619	-439.136984	32.358	
O	-0.248751255	 1.243850367	-0.1743569763	-0.472643
C	 0.0121778842	-0.140725116	 0.0060540095	 0.337366
C	 0.7637853424	-0.3662304805	 1.339471626	-0.395684
C	 2.0431767351	 0.3408225649	 1.348236989	 0.247944
N	 3.0382742657	 0.9274096003	 1.3027870363	-0.306329
C	-1.3524277971	-0.8410766729	-0.043273903	-0.252513
C	-1.5519626402	-0.9970376127	-1.5509410942	-0.077961
O	-0.2625976983	-1.3349474655	-2.0555551388	-0.259431
C	 0.7326558287	-0.7533905401	-1.224786919	-0.087962
H	 0.5899953167	 1.6990674422	-0.3161010097	 0.294765
H	 0.1494425247	 0.0130178272	 2.1625329587	 0.161881
H	 0.9381990917	-1.4330121771	 1.5130825158	 0.152994
H	-1.2961194504	-1.8225031523	 0.438082391	 0.106312
H	-2.1214030154	-0.2411236603	 0.4470285956	 0.122239
H	-2.2418180257	-1.7992295257	-1.8257326064	 0.11119
H	-1.9100772596	-0.0550720573	-1.989560625	 0.109801
H	 1.2817176009	 0.0293886718	-1.765729565	 0.103926
H	 1.4503426116	-1.5332299332	-0.9398730143	 0.104105
38.1196	72.803	117.2847	205.12	288.4512	342.9719	363.5164	400.4006	409.4005	445.2144	477.0458	650.9109	683.6725	807.1511	866.4715	905.8326	933.5508	936.1638	952.659	979.2478	1030.1552	1066.6645	1094.1992	1138.2828	1178.4841	1200.9671	1230.6962	1253.494	1292.6757	1305.3933	1327.7184	1369.9313	1373.6199	1420.5312	1455.0611	1472.9134	1507.6018	1522.0721	2357.2251	3002.7734	3010.5451	3042.5064	3052.224	3059.5584	3094.3984	3099.3103	3127.0663	3788.3892
OC1(CC#N)CCOC1	O[C@@]1(CC#N)CCOC1	
InChI=1S/C6H9NO2/c7-3-1-6(8)2-4-9-5-6/h8H,1-2,4-5H2	InChI=1S/C6H9NO2/c7-3-1-6(8)2-4-9-5-6/h8H,1-2,4-5H2/t6-/m0/s1
