17
gdb 7109	7.34586	0.85543	0.77717	5.5027	67.62	-0.2491	-0.0277	0.2214	1439.6459	0.140323	-401.057572	-401.048312	-401.047368	-401.092956	31.211	
C	-0.1175420806	 1.6481099856	 0.012826294	-0.389759
C	 0.0281064389	 0.1247985692	 0.0032097104	-0.157293
C	-1.3212017785	-0.5931606776	 0.0113505036	-0.321685
C	-1.1842971866	-2.1132499097	 0.0011339978	 0.431852
O	-0.1322479253	-2.6962051289	-0.013239811	-0.296297
N	-2.4307336364	-2.7692114587	 0.0108107691	-0.351696
C	-2.6839774655	-4.1380615308	 0.0057466843	 0.166814
O	-1.8711680214	-5.019278534	-0.0085072774	-0.251706
H	 0.8620097607	 2.1349704537	 0.006674988	 0.120892
H	-0.6701564047	 2.0036768696	-0.8642513001	 0.113743
H	-0.6542722392	 1.9940630508	 0.9035073122	 0.11373
H	 0.5951569376	-0.1972181028	-0.8761278073	 0.120268
H	 0.6107684673	-0.2066793142	 0.8687324089	 0.120179
H	-1.9092475966	-0.3039598959	 0.8942778481	 0.122116
H	-1.9250692819	-0.2939229857	-0.8574588639	 0.122223
H	-3.2502195001	-2.1790004988	 0.0229198136	 0.253971
H	-3.7793750875	-4.3190074519	 0.0157589696	 0.082649
40.3436	50.5455	103.6416	124.753	218.638	228.119	249.0569	323.9302	385.7515	557.041	565.8998	636.9067	749.9768	798.7216	888.5258	906.7734	943.2944	1028.3487	1051.749	1076.3972	1115.7362	1142.1046	1164.3335	1252.6497	1319.1888	1327.3642	1395.0565	1415.8897	1446.9903	1460.8048	1486.92	1501.3455	1503.8077	1508.1376	1813.6247	1875.0073	2912.2486	3006.5745	3029.1871	3036.6945	3055.3173	3078.8974	3104.0571	3107.7825	3606.3535
CCCC(=O)NC=O	CCCC(=O)NC=O	
InChI=1S/C5H9NO2/c1-2-3-5(8)6-4-7/h4H,2-3H2,1H3,(H,6,7,8)	InChI=1S/C5H9NO2/c1-2-3-5(8)6-4-7/h4H,2-3H2,1H3,(H,6,7,8)
