21
gdb 17270	4.75933	1.07708	0.99976	0.9946	79.42	-0.2289	0.0878	0.3167	1260.6226	0.188479	-329.080824	-329.07213	-329.071186	-329.114529	32.331	
C	-0.0305739583	 1.4810151201	-0.2155708726	-0.404195
C	 0.1303291653	-0.0117554058	-0.0169158595	-0.002397
C	 1.4963964677	-0.6525085991	 0.0375017949	-0.290524
C	 0.6238546313	-0.6290256876	 1.2724593973	 0.015146
C	 0.9944374045	 0.19189323	 2.4874180095	-0.169231
N	 1.761898296	-0.6126566879	 3.4363248366	-0.058344
C	 3.2108067857	-0.6068003687	 3.27562336	-0.212866
C	 2.5669939747	 0.1201550291	 4.4050432147	-0.221816
H	 0.7783442209	 2.0479433546	 0.2540550844	 0.114364
H	-0.0256333559	 1.7305089306	-1.2825052855	 0.115576
H	-0.976321075	 1.8429339788	 0.203796222	 0.115693
H	-0.6328686494	-0.5962002683	-0.5252926494	 0.081968
H	 1.6619704158	-1.5954144928	-0.4722116464	 0.107971
H	 2.3536623974	 0.0146496417	 0.0204847352	 0.102903
H	 0.1640251268	-1.5757101807	 1.542449714	 0.090327
H	 1.5440192964	 1.1022436294	 2.1881799936	 0.073618
H	 0.086257648	 0.5245322397	 3.0068441589	 0.101987
H	 3.7121861905	-1.5562784365	 3.4403963802	 0.114328
H	 3.6352510167	-0.0021724466	 2.4756885476	 0.106425
H	 2.5632437276	 1.2085439252	 4.3551824371	 0.104835
H	 2.5866831332	-0.2877053751	 5.4118611574	 0.11423
56.0281	90.6997	126.6412	194.0418	245.6104	289.8171	367.8475	382.785	456.7846	492.8504	760.0727	767.1427	831.1087	834.1643	872.4785	887.611	919.1862	936.079	991.6264	1024.4971	1036.8471	1063.5078	1087.2745	1111.3022	1113.9884	1116.3241	1151.596	1151.9289	1172.2611	1199.4871	1205.0867	1245.8216	1289.1302	1321.1703	1353.1366	1397.9309	1415.839	1434.8274	1484.1694	1490.7732	1493.456	1498.0434	1505.2223	1523.0031	2940.011	3028.2638	3032.7846	3084.7638	3089.7814	3097.3258	3102.1469	3122.5905	3130.8267	3147.1508	3172.9915	3187.9217	3206.7596
CC1CC1CN1CC1	C[C@H]1C[C@H]1CN1CC1	
InChI=1S/C7H13N/c1-6-4-7(6)5-8-2-3-8/h6-7H,2-5H2,1H3	InChI=1S/C7H13N/c1-6-4-7(6)5-8-2-3-8/h6-7H,2-5H2,1H3/t6-,7-/m0/s1
