17
gdb 34150	2.72723	1.69069	1.35891	4.5115	76.75	-0.2524	0.0072	0.2595	979.4397	0.139215	-380.830565	-380.823718	-380.822774	-380.86184	27.361	
N	-0.0374813616	-1.1223030256	 0.0758848596	-0.347911
C	-0.0339804713	 0.0342205994	 0.070279033	 0.154541
C	-0.0289499156	 1.4753734261	 0.0230929689	 0.240676
N	-0.5986137812	 2.3458579072	 1.1174219087	-0.356723
C	-0.0831306564	 3.2947506022	 0.0569738122	-0.062296
C	 1.2092400182	 2.4319065613	-0.0588585557	-0.018762
C	 1.728041256	 2.4640852649	-1.489997765	-0.251748
C	 0.3815027782	 2.4384257973	-2.2772733731	-0.250671
C	-0.6006690902	 2.3978022178	-1.1128182228	-0.0585
H	-1.6221229408	 2.308456812	 1.0709960899	 0.215854
H	-0.1574151839	 4.3764715137	 0.1651797943	 0.093195
H	 1.8994280776	 2.4231424856	 0.782891688	 0.098211
H	 2.3148477935	 3.3659564621	-1.6870642121	 0.111139
H	 2.3632341212	 1.6028326089	-1.715102318	 0.120897
H	 0.2387929749	 3.3264140224	-2.900063761	 0.110368
H	 0.2890040204	 1.5621669889	-2.9251727341	 0.12033
H	-1.6742847089	 2.3548459958	-1.305670193	 0.081398
126.1291	148.3895	249.1905	347.9951	460.39	525.7802	542.9373	551.5545	689.0496	726.2303	764.0897	820.3403	835.1914	913.7073	918.9924	933.694	972.3985	977.6627	993.3143	1034.4024	1037.8367	1104.4864	1121.9662	1150.8257	1210.2057	1226.0477	1239.1992	1250.3135	1253.6057	1267.3264	1290.2388	1295.2908	1328.5073	1380.8586	1485.7467	1507.2669	2348.7738	3054.2058	3063.1542	3090.5276	3107.1036	3108.8649	3123.2367	3146.4487	3384.9696
N#CC12NC3C1CCC23	N#C[C@@]12N[C@H]3[C@@H]1CC[C@@H]23	
InChI=1S/C7H8N2/c8-3-7-4-1-2-5(7)6(4)9-7/h4-6,9H,1-2H2	InChI=1S/C7H8N2/c8-3-7-4-1-2-5(7)6(4)9-7/h4-6,9H,1-2H2/t4-,5+,6-,7+
