25
gdb 122509	4.4069	0.53463	0.50828	1.3755	90.63	-0.2608	0.0808	0.3417	2258.3108	0.227463	-389.480244	-389.468992	-389.468048	-389.517973	40.226	
C	-0.4760295111	 1.5246935011	 0.3624720087	-0.372099
C	 0.1613536495	 0.195281464	-0.0594604949	-0.19338
C	 0.8855861093	-0.4881599051	 1.0838585296	 0.00217
C	 0.1502668182	-1.3852664571	 2.0536905209	-0.291293
C	 1.1842184843	-1.969910927	 1.118125991	-0.007286
C	 0.7883710122	-2.9283156878	 0.0120574573	-0.215569
C	 0.7352825386	-4.3840282049	 0.4927575443	-0.156748
C	 0.3461143169	-5.3599389333	-0.6090208056	-0.075979
O	 0.3450787708	-6.6690944834	-0.0581385876	-0.422028
H	 0.2802509299	 2.2236018752	 0.7368351104	 0.112389
H	-0.9871574814	 2.0058772997	-0.4774429111	 0.107592
H	-1.2083650952	 1.3723374537	 1.1622351841	 0.117551
H	-0.6156766063	-0.4647402545	-0.4610393076	 0.093839
H	 0.8642629073	 0.3741904112	-0.8842859909	 0.094033
H	 1.6574104786	 0.1366165443	 1.5300694286	 0.075959
H	 0.3701794987	-1.317477523	 3.1136150333	 0.105982
H	-0.8919662148	-1.6008292576	 1.8331438561	 0.103929
H	 2.1336595258	-2.2286532744	 1.58304468	 0.078224
H	-0.189549583	-2.6470850723	-0.3968644531	 0.092934
H	 1.5017994511	-2.8452759244	-0.8201468873	 0.092967
H	 1.7118859232	-4.6845317124	 0.8920085263	 0.102607
H	 0.0192373799	-4.4798046336	 1.3173957705	 0.107864
H	-0.647735199	-5.0948931971	-1.0069758385	 0.081089
H	 1.0604464504	-5.280832481	-1.445608349	 0.081383
H	 0.1000246461	-7.2870720403	-0.7527471254	 0.283871
40.8075	71.2829	80.5332	94.8165	133.0632	175.333	221.4967	263.1103	263.9885	279.9575	371.4311	434.2226	438.1879	573.2868	746.475	764.4251	796.6226	819.4579	858.3274	868.4805	946.5189	955.8938	987.1834	1023.3762	1039.9148	1051.6791	1066.395	1076.3232	1102.8567	1118.0695	1147.801	1186.3464	1200.1619	1225.6012	1234.4055	1249.7193	1293.734	1299.9863	1307.7485	1317.0422	1339.1255	1371.9728	1404.6818	1413.3	1434.7667	1462.8499	1480.4473	1484.6255	1497.6354	1498.4501	1501.373	1507.8546	1528.3053	2953.8117	2978.1382	3005.507	3016.5517	3030.4474	3031.9942	3045.0875	3060.1646	3078.9792	3097.6983	3103.6007	3113.0114	3119.2292	3125.5797	3203.6896	3829.7275
CCC1CC1CCCO	CC[C@H]1C[C@H]1CCCO	
InChI=1S/C8H16O/c1-2-7-6-8(7)4-3-5-9/h7-9H,2-6H2,1H3	InChI=1S/C8H16O/c1-2-7-6-8(7)4-3-5-9/h7-9H,2-6H2,1H3/t7-,8+/m0/s1
