14
gdb 75978	2.47909	1.62142	1.29753	2.8643	57.84	-0.2828	-0.0377	0.2451	975.946	0.102274	-511.010028	-511.002314	-511.00137	-511.04256	28.052	
N	-0.2249324007	 1.3925169106	 0.3613523639	-0.5275
C	-0.0264612638	-0.0312627246	 0.0395332713	-0.280153
C	 0.7712194746	-0.6529612957	 1.1874098597	 0.453737
O	 1.9526728354	-0.8346944031	 1.155814776	-0.318737
O	 0.0379301195	-0.9977124759	 2.2759555695	-0.218159
C	-1.3302198874	-0.6231483685	 2.2730646981	 0.029152
O	-1.9981953502	-1.0120103801	 1.0836379383	-0.218159
C	-1.4112466623	-0.6683289613	-0.09061596	 0.453739
O	-1.9598554303	-0.8621422579	-1.1352797912	-0.318738
H	 0.6804681681	 1.8487461524	 0.4271620317	 0.257242
H	-0.7300657923	 1.8388211858	-0.3988311252	 0.257241
H	 0.5194065226	-0.2226117172	-0.8903404919	 0.126602
H	-1.8010069582	-1.1765589265	 3.0836643318	 0.152761
H	-1.416119675	 0.4579383921	 2.4067968279	 0.150972
85.3112	129.1672	228.1151	249.7937	287.1637	334.3426	399.6582	445.7853	524.904	584.4862	713.5296	763.968	774.4672	812.2942	861.0848	951.7545	1041.8634	1051.6851	1097.9707	1115.2276	1149.0137	1229.8264	1301.8619	1318.4597	1339.6475	1355.7836	1464.0695	1509.7043	1654.1527	1861.3788	1889.0699	3056.606	3080.3589	3165.2093	3491.9868	3573.2894
NC1C(=O)OCOC1=O	NC1C(=O)OCOC1=O	
InChI=1S/C4H5NO4/c5-2-3(6)8-1-9-4(2)7/h2H,1,5H2	InChI=1S/C4H5NO4/c5-2-3(6)8-1-9-4(2)7/h2H,1,5H2
