18
gdb 91058	3.72526	1.34639	1.27737	2.0634	78.72	-0.2263	-0.0022	0.2242	1058.2917	0.148201	-401.868495	-401.86105	-401.860106	-401.900428	29.497	
C	 0.203746258	 1.5422199173	 0.0066857015	-0.391912
C	 0.047083297	 0.0271634441	 0.0514676008	 0.108335
O	 0.6480167299	-0.540656358	-1.1432840453	-0.292751
C	 1.290641992	-1.7271855167	-0.7474682342	 0.109493
C	 2.7974556442	-2.103113589	-0.8870659001	-0.115604
N	 3.6342442232	-1.165056697	-0.1123936149	-0.31516
C	 2.8799095461	-2.2385502903	 0.6103893851	-0.165992
C	 1.5059074203	-1.6203232687	 0.7306752455	 0.236988
C	 0.7971461414	-0.6159226269	 1.2233642636	-0.239097
H	 1.2632163393	 1.8116095318	 0.0300470997	 0.135578
H	-0.2368076906	 1.9342771482	-0.9142167611	 0.12654
H	-0.30335775	 2.0080113936	 0.8579888695	 0.109643
H	-1.0258574792	-0.2291361981	 0.0557782658	 0.079107
H	 0.7150363082	-2.6192139115	-1.0478512362	 0.076439
H	 3.2306904607	-2.7310378302	-1.655939114	 0.093792
H	 4.596584592	-1.4952874849	-0.2080183083	 0.230698
H	 3.3882779135	-2.9740374059	 1.2184101561	 0.105941
H	 0.8109680439	-0.1767958277	 2.2128525365	 0.107965
76.8605	192.7345	231.3022	242.6309	314.8074	448.9594	478.178	565.6216	667.9793	687.0957	727.1414	800.0233	813.3789	845.1167	856.5824	874.748	890.9953	918.0531	966.6619	1009.181	1020.5151	1076.1242	1097.347	1107.203	1110.9459	1117.9497	1141.7906	1198.7646	1242.1365	1271.5234	1292.6381	1313.033	1353.4829	1358.65	1381.6515	1397.6697	1481.9057	1496.5626	1730.7221	2953.9289	2958.6219	3039.7327	3114.1252	3126.0724	3189.1692	3213.2207	3213.7664	3445.317
CC1OC2C3NC3C2=C1	C[C@H]1O[C@H]2[C@H]3N[C@H]3[C]2[CH]1	
InChI=1S/C7H9NO/c1-3-2-4-5-6(8-5)7(4)9-3/h2-3,5-8H,1H3	InChI=1S/C7H9NO/c1-3-2-4-5-6(8-5)7(4)9-3/h2-3,5-8H,1H3/t3-,5+,6+,7-/m1/s1
