17
gdb 53188	3.24184	0.97529	0.88592	2.1785	78.41	-0.222	0.0498	0.2718	1374.8791	0.133488	-421.746886	-421.737631	-421.736687	-421.782248	33.051	
C	 0.0066458364	 1.4885774759	 0.0167712755	-0.500261
C	-0.0224214334	 0.0333423223	 0.0097272167	 0.097356
C	-0.0346403905	-1.1719006474	 0.0152767372	 0.086745
C	-0.0653734827	-2.6045733659	 0.0193384549	-0.344868
C	-0.5110514345	-3.448507328	 1.2142540044	 0.040543
O	-1.5017816678	-2.7785521047	 1.9804754846	-0.277041
C	-2.417375981	-2.794064969	 0.8472524784	-0.152738
C	-1.3452654485	-3.442532575	-0.031037646	 0.29378
O	-1.5670106656	-4.4355107264	-0.9576129748	-0.447849
H	 1.0245577338	 1.864553556	-0.1356209081	 0.148654
H	-0.6232378464	 1.9099052756	-0.7749443846	 0.144101
H	-0.3516810296	 1.8862472311	 0.9727868612	 0.151782
H	 0.7310054429	-3.1057138676	-0.5294745264	 0.113923
H	 0.1174671522	-4.1844155016	 1.7015890703	 0.118685
H	-3.2590010505	-3.4669323884	 1.0413933473	 0.117788
H	-2.7670270518	-1.7916565269	 0.5811546001	 0.115379
H	-1.622835083	-4.0319560702	-1.8313492406	 0.294021
25.6942	83.0101	91.9431	233.0804	247.6134	258.6817	307.1564	360.6084	395.918	400.1502	519.1675	577.379	642.2576	762.2276	817.9402	876.894	913.079	938.2699	985.6151	1024.7187	1051.2625	1053.0051	1055.534	1072.6436	1146.2985	1174.1932	1216.3517	1256.5018	1279.4894	1322.0504	1347.3259	1414.753	1477.0753	1479.2107	1480.3416	1503.8254	2365.0148	3024.7726	3040.3778	3083.1207	3087.3346	3100.6724	3123.7236	3189.2079	3789.1816
CC#CC1C2OCC12O	CC#C[C@H]1[C@H]2OC[C@@]12O	
InChI=1S/C7H8O2/c1-2-3-5-6-7(5,8)4-9-6/h5-6,8H,4H2,1H3	InChI=1S/C7H8O2/c1-2-3-5-6-7(5,8)4-9-6/h5-6,8H,4H2,1H3/t5-,6+,7+/m0/s1
