23
gdb 63694	2.42945	1.55131	1.19888	1.7232	85.24	-0.2373	0.0726	0.3099	1169.1512	0.204352	-388.27268	-388.263242	-388.262298	-388.30616	36.856	
C	 0.7096246989	 1.4751415857	-0.8654267986	-0.448232
C	 0.3383050657	 0.0014824414	-0.7602222673	 0.326084
C	-0.9756308561	-0.3059686986	-1.4811299549	-0.443894
C	 1.4622765175	-1.0294768411	-1.13755592	-0.346172
C	 1.3262785844	-1.7182500063	 0.2539968073	 0.31462
C	 1.069175715	-3.2065756667	 0.3073451735	-0.504567
C	 2.2433777764	-1.0848159907	 1.317849885	-0.120793
O	 1.3039378089	-0.0144134722	 1.5666531906	-0.295107
C	 0.3281543631	-0.5957588973	 0.6782828141	 0.042178
H	 1.591070672	 1.6977588761	-0.2593820428	 0.126711
H	 0.9219483106	 1.748524465	-1.9054954609	 0.106208
H	-0.1073716078	 2.115277442	-0.5125721881	 0.109979
H	-0.8875072644	-0.1042587249	-2.5546217249	 0.114345
H	-1.2635885382	-1.3572581376	-1.3652165038	 0.110429
H	-1.7930419953	 0.3086190393	-1.0870197512	 0.113958
H	 1.2037505477	-1.6733909301	-1.9831682308	 0.094733
H	 2.4461685964	-0.5907815386	-1.3291526703	 0.093434
H	 1.9580823865	-3.7681060045	-0.00619846	 0.119666
H	 0.8101974849	-3.5319259649	 1.3209136171	 0.118637
H	 0.2494218247	-3.4964547919	-0.3586434082	 0.119177
H	 2.3865804481	-1.701273091	 2.216366294	 0.093755
H	 3.2198127867	-0.7161597724	 0.9780054121	 0.096087
H	-0.6398283357	-0.7468396707	 1.1692136081	 0.058763
77.832	202.5676	210.1476	218.7788	228.9014	253.4243	297.0758	322.6541	326.292	390.9395	408.994	505.9778	574.0602	653.0791	773.8657	838.0608	865.301	890.1588	913.3552	944.0417	954.8534	965.2773	984.9445	1009.854	1016.6797	1041.1806	1061.9235	1141.5445	1152.8593	1184.5193	1217.5822	1229.9807	1245.0963	1256.8697	1288.1018	1293.8102	1326.7983	1378.4065	1398.7797	1414.4746	1418.0915	1481.8061	1484.8109	1486.4648	1492.8541	1493.5696	1499.6122	1509.1259	1524.4145	2994.3999	3018.4237	3020.1426	3026.4767	3041.7519	3042.7369	3047.9807	3082.0782	3084.0612	3086.5899	3091.6561	3094.4251	3098.9985	3120.5957
CC1(C)CC2(C)COC12	CC1(C)C[C@@]2(C)CO[C@@H]12	
InChI=1S/C8H14O/c1-7(2)4-8(3)5-9-6(7)8/h6H,4-5H2,1-3H3	InChI=1S/C8H14O/c1-7(2)4-8(3)5-9-6(7)8/h6H,4-5H2,1-3H3/t6-,8-/m0/s1
