23
gdb 94436	2.25459	1.38919	1.30039	1.6534	85.18	-0.234	0.0762	0.3102	1186.813	0.204922	-388.274996	-388.265461	-388.264517	-388.30938	36.095	
C	-0.6537785354	 1.1127085069	-0.0519175397	-0.413579
C	 0.2274459021	-0.1128648127	-0.2310990686	-0.013991
C	 1.6873033396	 0.0739438543	-0.7391143784	-0.242131
C	 2.1532793723	-0.9814710701	 0.2989842206	-0.283233
C	 0.811622969	-0.8056401512	 1.0406817461	 0.439387
O	 0.8916815558	 0.0597762342	 2.2010052174	-0.31959
C	 0.0933919279	-0.8448260148	 2.9893295422	-0.086428
C	 0.0955609024	-1.9004927117	 1.8652344973	-0.112751
C	-1.2388752694	-2.4444555826	 1.3782389657	-0.417655
H	-0.1931245858	 1.8134427323	 0.6494771326	 0.132261
H	-0.8065714467	 1.626151676	-1.00756214	 0.10896
H	-1.6412067807	 0.84844118	 0.3432928582	 0.109068
H	-0.2816383354	-0.8673176159	-0.8430771921	 0.068199
H	 1.8805319116	-0.1344203096	-1.7940361779	 0.092368
H	 2.0692294049	 1.071511479	-0.5041366102	 0.10799
H	 2.2471838942	-1.9837940817	-0.1314347896	 0.097307
H	 3.0447072842	-0.7606766803	 0.890401215	 0.105982
H	 0.5885978331	-1.1150317219	 3.9292000013	 0.099203
H	-0.8965379094	-0.4250811522	 3.2166690376	 0.093396
H	 0.7791713097	-2.7264852906	 2.0879509182	 0.076783
H	-1.9417536817	-1.6362815733	 1.150439842	 0.122713
H	-1.1175422574	-3.0484076719	 0.4724780933	 0.118905
H	-1.700802115	-3.0830876323	 2.1390162789	 0.116836
60.7566	92.1691	155.7298	202.9446	211.1973	230.1582	261.63	344.2334	372.5709	454.4427	509.4522	531.9274	675.8608	724.7179	773.4576	870.1818	886.035	898.7474	913.8115	941.9987	950.2358	958.3131	1023.7859	1028.7578	1095.5897	1109.4307	1136.8589	1156.6368	1159.3695	1172.3998	1188.4532	1203.1901	1238.7494	1257.6805	1264.8165	1283.9329	1305.6086	1338.0423	1362.3581	1387.6807	1406.6318	1412.1143	1463.0885	1488.6806	1492.9446	1496.0707	1497.5002	1501.4515	1526.357	3000.6947	3028.361	3029.3188	3034.8393	3041.1959	3050.4672	3058.8207	3059.7308	3089.615	3093.9876	3101.9645	3104.7337	3117.3044	3120.4645
CC1CCC11OCC1C	C[C@H]1CC[C@]21OC[C@H]2C	
InChI=1S/C8H14O/c1-6-3-4-8(6)7(2)5-9-8/h6-7H,3-5H2,1-2H3	InChI=1S/C8H14O/c1-6-3-4-8(6)7(2)5-9-8/h6-7H,3-5H2,1-2H3/t6-,7+,8+/m0/s1
