20
gdb 73126	2.35881	1.87878	1.62304	0.8032	77.23	-0.2281	0.078	0.3061	964.4919	0.172542	-403.1151	-403.107602	-403.106658	-403.146499	30.701	
C	 0.2620115394	 1.4880070804	-0.0712042962	-0.456946
C	-0.0966951767	 0.0179099123	 0.0308355362	 0.269723
C	-1.4382637438	-0.3814632012	 0.6750886961	-0.119704
O	-0.7891411292	-1.39669332	 1.4764376096	-0.29879
C	 0.5227201014	-0.8654721554	 1.1496410149	 0.088872
C	 1.4838985591	-1.8515055738	 0.4863010091	-0.263509
C	 1.1578953125	-1.7591994719	-1.0007935761	-0.019783
C	-0.2356213614	-2.0506759447	-1.4079960698	-0.259877
N	 0.2050745598	-0.6512991866	-1.256028528	-0.143764
H	 1.3071595556	 1.6068150287	-0.3740430953	 0.121902
H	-0.356824194	 1.9806519248	-0.8273271178	 0.127484
H	 0.117296443	 1.9988922846	 0.8859009915	 0.110131
H	-1.8785837737	 0.4037756422	 1.3030419975	 0.098342
H	-2.2087034405	-0.7941480102	 0.0154834162	 0.108968
H	 0.9560229652	-0.3521550687	 2.0162730406	 0.072728
H	 2.5181524981	-1.5423729834	 0.6715698177	 0.106587
H	 1.3608996186	-2.8600869849	 0.8930930612	 0.122198
H	 1.9717393565	-1.8682434965	-1.7124433021	 0.087861
H	-0.4596383311	-2.3309168629	-2.4337563839	 0.112001
H	-0.8860962288	-2.4921945727	-0.6588041315	 0.135577
162.8843	214.0615	241.8303	269.5782	335.0908	367.9097	390.3406	481.6008	597.7244	646.9702	711.0184	761.0053	815.4889	830.3926	864.7898	874.8993	919.3283	960.9385	976.3114	1003.0317	1013.3436	1040.4153	1088.3284	1095.3819	1127.1458	1150.4303	1157.5065	1175.8765	1189.2894	1206.309	1239.2432	1272.8623	1283.3581	1308.1819	1352.2405	1366.1259	1390.2251	1412.3531	1471.7292	1484.8981	1492.8328	1501.2425	1519.9784	3015.3644	3029.5952	3037.0081	3052.4374	3074.6971	3093.676	3107.8918	3109.7552	3110.8775	3142.6843	3198.5986
CC12COC1CC1CN21	C[C@]12CO[C@H]1C[C@H]1CN21	
InChI=1S/C7H11NO/c1-7-4-9-6(7)2-5-3-8(5)7/h5-6H,2-4H2,1H3	InChI=1S/C7H11NO/c1-7-4-9-6(7)2-5-3-8(5)7/h5-6H,2-4H2,1H3/t5-,6-,7-,8?/m0/s1
