21
gdb 74948	2.94989	1.47403	1.30454	1.8626	83.01	-0.2282	0.0179	0.2461	1087.3295	0.185482	-387.116852	-387.109177	-387.108233	-387.148705	31.127	
C	-0.0381813645	 1.5619374912	 0.0498923876	-0.477059
C	-0.0070618134	 0.0615105873	-0.0258499016	 0.319721
C	-0.0304011056	-0.6139389252	-1.1790880647	-0.158962
C	 0.0170170752	-2.1302359381	-1.1965837226	 0.068612
C	-0.7400231188	-2.6861487131	 0.013754682	-0.229768
C	 0.234739718	-2.2010100336	 1.1019563374	-0.05285
C	 1.5940667331	-2.5342955943	 0.4375276245	-0.071737
O	 1.3566882788	-2.6056621828	-0.9746585925	-0.269857
C	 0.0536208343	-0.6833666001	 1.2949711465	-0.296534
H	 0.8579785742	 1.9531479473	 0.548793768	 0.123173
H	-0.1009166544	 2.016211192	-0.942440321	 0.121725
H	-0.8964152026	 1.9095562367	 0.6399973427	 0.121429
H	-0.0466502495	-0.0850851688	-2.1283599757	 0.078452
H	-0.3043673399	-2.5333414113	-2.1592721586	 0.069004
H	-1.7507597509	-2.2857861292	 0.1230844727	 0.097617
H	-0.7861085897	-3.7782126601	-0.0318426572	 0.097852
H	 0.1180807428	-2.7208176488	 2.0561908874	 0.067178
H	 2.3525191793	-1.7712134025	 0.6571105609	 0.092283
H	 1.983602261	-3.5053774549	 0.7668221785	 0.097308
H	 0.8759198587	-0.2801623605	 1.9031530126	 0.101621
H	-0.8618662662	-0.4800392913	 1.8714935731	 0.100791
122.9013	163.275	202.0371	319.2908	345.3699	394.849	416.0087	491.6245	509.446	574.0482	739.9962	777.6281	826.9409	839.6111	862.7579	905.9002	915.1395	936.8782	951.375	982.6285	1015.2344	1023.9902	1044.3454	1069.5286	1099.4625	1110.1314	1150.3175	1179.2423	1186.8304	1216.3405	1267.3836	1305.7661	1317.4002	1334.3179	1344.1056	1363.7353	1377.0994	1398.2343	1413.1634	1472.3786	1478.6278	1487.3325	1492.2865	1523.4513	1724.2665	2990.8987	3008.4418	3013.9087	3019.9803	3045.3478	3054.9362	3058.9445	3078.4371	3091.4688	3111.3372	3111.7147	3159.0337
CC1=CC2CC(CO2)C1	CC1=C[C@@H]2C[C@@H](CO2)C1	
InChI=1S/C8H12O/c1-6-2-7-4-8(3-6)9-5-7/h3,7-8H,2,4-5H2,1H3	InChI=1S/C8H12O/c1-6-2-7-4-8(3-6)9-5-7/h3,7-8H,2,4-5H2,1H3/t7-,8+/m0/s1
