19
gdb 33539	2.48529	1.47828	1.18743	2.7433	80.13	-0.2543	0.0222	0.2765	1123.5873	0.159642	-382.041171	-382.03262	-382.031676	-382.074559	32.199	
N	-0.0098511839	-1.1973509028	 0.1572025221	-0.360098
C	-0.0113217375	-0.0402601204	 0.1401144317	 0.239758
C	-0.0547450832	 1.4305874929	 0.0777557552	 0.19866
C	-0.1345067097	 2.0608536307	 1.5078930195	-0.254253
C	 1.4048983655	 2.2491047538	 1.4886899366	-0.214278
C	 1.3812605869	 2.0396464568	-0.0479105568	-0.25423
N	-1.0220219053	 1.9573653187	-0.8718180791	-0.116237
C	-1.2580681456	 1.2524411542	-2.1319318996	-0.239494
C	-2.2972804969	 1.2669628225	-1.0658273318	-0.239493
H	-0.671935858	 3.0085595123	 1.4351066378	 0.123671
H	-0.5722948221	 1.4498511157	 2.2984048038	 0.117813
H	 1.7913362359	 3.2022090774	 1.8521946677	 0.110686
H	 1.9254873713	 1.4405480251	 2.0069055867	 0.122412
H	 2.1516670027	 1.4117633299	-0.4974973411	 0.117815
H	 1.3073350401	 2.9808720816	-0.5964580998	 0.123672
H	-1.3493734028	 1.8916552219	-3.0046608343	 0.123258
H	-0.7453197088	 0.3080702114	-2.2996986884	 0.138533
H	-2.4647298271	 0.3321038075	-0.5358401589	 0.138533
H	-3.1633085816	 1.9169488208	-1.1439844112	 0.123271
77.3215	111.6794	149.9953	189.9553	219.4579	299.3433	375.3925	451.4358	494.366	583.8593	609.5496	689.0219	790.7313	793.1099	835.7375	878.358	902.5368	932.6623	942.7369	985.6153	1010.089	1061.6583	1079.2703	1109.144	1130.0581	1134.271	1168.919	1178.2944	1200.0577	1214.2024	1255.8106	1272.2813	1280.1721	1286.4797	1325.9682	1469.1303	1484.253	1488.8673	1504.7005	1515.116	2333.2757	3075.5395	3076.6165	3080.6634	3108.9037	3111.2265	3122.7555	3139.4	3145.8823	3192.7705	3206.0494
N#CC1(CCC1)N1CC1	N#CC1(CCC1)N1CC1	
InChI=1S/C7H10N2/c8-6-7(2-1-3-7)9-4-5-9/h1-5H2	InChI=1S/C7H10N2/c8-6-7(2-1-3-7)9-4-5-9/h1-5H2
