16
gdb 132995	3.77123	1.09686	0.85426	4.7225	79.96	-0.1926	-0.0129	0.1796	1279.3687	0.124325	-442.062481	-442.054248	-442.053304	-442.095423	30.621	
C	 0.0448891287	 1.4376638305	 0.0068550378	-0.318331
N	 0.0349925801	-0.0128296407	 0.0033443119	-0.325978
C	-1.1038342593	-0.6165345544	 0.0098889985	 0.329707
C	-2.437645238	 0.0012431307	 0.0209376765	-0.226461
C	-3.563318947	-0.7412395104	 0.0269829831	 0.014565
N	-3.5159892164	-2.1173500629	 0.0230138723	-0.39671
C	-2.2954488237	-2.7417101656	 0.0128663952	 0.412053
F	-2.3974445128	-4.0664624439	 0.0102192276	-0.066926
C	-1.1302998486	-2.0779925859	 0.0063578666	-0.37506
H	 1.0810338273	 1.7883209117	-0.0008396947	 0.112917
H	-0.4536246709	 1.8739788592	-0.8740734368	 0.101213
H	-0.4388689423	 1.8693875354	 0.8982086584	 0.101254
H	-2.5316346018	 1.0781971616	 0.0244652726	 0.108056
H	-4.5588278119	-0.3151680406	 0.0351719566	 0.134926
H	-4.3498193594	-2.6798532511	 0.0277715635	 0.271843
H	-0.1944025541	-2.6193612136	-0.0016349092	 0.122935
98.1234	124.6378	180.7654	225.6008	284.7771	333.0128	373.385	434.127	462.7078	519.3345	600.4068	629.5375	708.153	749.7678	811.3317	872.4773	919.4745	943.4113	994.2168	1039.6973	1098.7037	1103.3775	1154.672	1209.8119	1240.5681	1285.3472	1360.4271	1423.4839	1437.8078	1488.1964	1504.3407	1523.9733	1642.6354	1673.4146	1734.8029	2955.6274	2999.0262	3084.7865	3208.6469	3232.4326	3234.123	3671.075
CN=C1C=CNC(F)=C1	C[N]C1=C[C@@H](NC=C1)F	
InChI=1S/C6H7FN2/c1-8-5-2-3-9-6(7)4-5/h2-4H,1H3,(H,8,9)	InChI=1S/C6H8FN2/c1-8-5-2-3-9-6(7)4-5/h2-4,6,9H,1H3/t6-/m1/s1
