13
gdb 20500	9.30771	1.00205	0.9098	4.2116	72.81	-0.229	-0.0068	0.2222	1214.6319	0.096379	-357.622798	-357.615354	-357.61441	-357.656672	25.448	
C	-0.0625669469	 1.4644274244	 0.0102868713	-0.507309
C	 0.0033024951	 0.0120605529	 0.0024761222	 0.170299
C	 0.051425289	-1.1924216973	-0.0039559108	-0.028405
C	 0.0991919124	-2.6042377385	-0.0114425585	 0.202757
C	 1.2022265382	-3.4360504488	-0.0221174677	-0.202178
N	 0.6754345697	-4.678664652	-0.0253840078	-0.155717
N	-0.6732001275	-4.6456986408	-0.0173692951	-0.114382
N	-1.0271674098	-3.3991207273	-0.0089431992	-0.263522
H	 0.940057114	 1.9056276606	 0.0029489289	 0.15064
H	-0.5992635174	 1.8415160084	-0.8673931195	 0.155116
H	-0.5824925021	 1.8328190319	 0.9016534633	 0.155083
H	 2.2604092622	-3.2407160272	-0.0272828441	 0.151716
H	 1.1476290532	-5.5686978963	-0.032676933	 0.285901
12.4258	100.0413	113.0497	292.723	317.0121	478.3943	490.3198	534.5257	573.7309	693.8768	737.8354	805.9067	956.4633	980.4363	1037.8277	1050.0405	1053.5309	1076.1052	1128.3027	1260.1334	1300.3037	1357.9074	1412.5403	1473.7648	1476.5871	1487.4677	1576.543	2369.4754	3027.2189	3087.824	3091.3214	3294.1421	3657.6465
CC#CC1=CNN=N1	CC#Cc1c[nH]nn1	
InChI=1S/C5H5N3/c1-2-3-5-4-6-8-7-5/h4H,1H3,(H,6,7,8)	InChI=1S/C5H5N3/c1-2-3-5-4-6-8-7-5/h4H,1H3,(H,6,7,8)
