18
gdb 37929	2.91402	2.15819	2.02692	0.1278	72.26	-0.2123	0.0621	0.2743	806.5288	0.151829	-401.890818	-401.884978	-401.884034	-401.920817	25.048	
C	-0.0336682683	 1.5368792098	 0.0272628363	-0.222033
C	 1.4587050757	 1.9861516954	 0.0224487871	-0.222028
C	 2.2519729311	 0.6793439384	 0.0229220262	-0.005698
C	 2.3457169631	-0.075572905	 1.379575295	 0.074598
O	 1.189895994	 0.1987467394	 2.2097788572	-0.297501
C	 0.3728276669	-0.669528468	 1.3858181103	 0.0746
C	 0.0263505053	 0.009321605	 0.0299731767	-0.0057
N	 1.3639077348	-0.4082908815	-0.5526897411	-0.173858
C	 1.6221968048	-1.2531906005	 0.6882422867	-0.048918
H	-0.565642575	 1.9069689642	 0.9074740826	 0.11448
H	-0.5576236054	 1.9021501908	-0.8600380473	 0.104271
H	 1.6886947757	 2.5782678626	-0.8673617006	 0.104276
H	 1.7031440611	 2.5901063639	 0.9000729029	 0.114475
H	 3.2101005618	 0.7271966788	-0.5025076613	 0.0756
H	 3.2750664916	-0.0879420112	 1.9524597673	 0.078307
H	-0.3918866833	-1.191911457	 1.9640633627	 0.078307
H	-0.8019876351	-0.4806181684	-0.4898216283	 0.075601
H	 1.9347678614	-2.2922453966	 0.6104180175	 0.081223
146.4114	278.7887	418.3396	511.436	647.2526	663.3957	722.7199	738.3138	778.4293	798.6046	843.0163	853.8791	876.7785	900.1551	912.2254	940.6813	978.5127	986.3857	1004.1324	1049.6114	1054.5555	1075.7735	1080.3737	1158.7592	1176.5663	1192.162	1195.3681	1220.031	1245.6228	1256.2864	1260.9533	1274.2047	1305.5666	1324.9737	1334.3261	1340.3092	1351.0108	1470.371	1494.1315	3054.2014	3059.3679	3066.4902	3072.6086	3088.7053	3091.5407	3096.8549	3116.8017	3138.4522
C1CC2C3OC4C1N2C34	C1C[C@H]2[C@H]3O[C@H]4[C@@H]1N2[C@@H]34	
InChI=1S/C7H9NO/c1-2-4-7-5-6(9-7)3(1)8(4)5/h3-7H,1-2H2	InChI=1S/C7H9NO/c1-2-4-7-5-6(9-7)3(1)8(4)5/h3-7H,1-2H2/t3-,4+,5-,6+,7-
