13
gdb 15492	3.5958	2.01041	1.29982	0.956	62.79	-0.261	-0.0344	0.2266	866.711	0.097337	-394.829492	-394.822813	-394.821869	-394.860574	24.126	
N	-0.014670039	 1.3320221994	 0.0070101072	-0.448689
C	-0.0031557244	 0.0645354686	 0.0025848538	 0.091151
N	-1.1897361726	-0.661736985	 0.0089618449	-0.12315
C	-2.4996513916	-0.1551796273	 0.0206266319	 0.086987
N	-3.4289457514	-1.0264902895	 0.0248291208	-0.247241
C	-2.7720320301	-2.3354359943	 0.0155568162	-0.293584
C	-1.2666038356	-2.0692827795	 0.0049637583	 0.404212
O	-0.3288945839	-2.8239239133	-0.0045934357	-0.35024
H	 0.9359315343	 1.6969125069	 0.001035444	 0.242099
H	 0.865024185	-0.6002052053	-0.006313815	 0.140636
H	-2.6370474361	 0.9186619312	 0.0251922901	 0.175794
H	-3.0544809164	-2.9227744483	 0.8958520287	 0.161014
H	-3.0678952883	-2.9170403336	-0.8641363552	 0.161011
125.3614	180.5931	204.9254	238.9021	390.5191	470.5834	590.878	601.4069	662.5181	754.1394	835.3122	898.1199	938.6203	981.5301	1004.7046	1075.4145	1083.9713	1149.0877	1185.7428	1223.8518	1292.8834	1320.6948	1396.2681	1419.0267	1438.2383	1685.4505	1725.8894	1852.2178	3057.4446	3092.524	3102.4648	3235.6318	3511.1124
N=CN1C=NCC1=O	[NH][CH]N1C=NCC1=O	
InChI=1S/C4H5N3O/c5-2-7-3-6-1-4(7)8/h2-3,5H,1H2	InChI=1S/C4H5N3O/c5-2-7-3-6-1-4(7)8/h2-3,5H,1H2
