21
gdb 68688	2.59719	1.80272	1.50553	1.4315	81.82	-0.233	0.0143	0.2473	999.3873	0.184817	-387.114686	-387.107113	-387.106169	-387.145949	31.84	
C	 0.0347895165	 1.5280990899	 0.0636962358	-0.456175
C	-0.0439287605	 0.0141042892	-0.0299957347	 0.334593
C	 0.6506365685	-0.5606513884	-1.2912172668	-0.211989
C	 0.6076965365	-2.1065213777	-1.3007349332	-0.21384
C	 0.8543333613	-2.7207120486	 0.0958997775	-0.199388
C	 0.1303375416	-1.8898884213	 1.1775019503	 0.026012
O	 0.6459036652	-0.5586571634	 1.09643462	-0.283311
C	-1.3412914135	-1.6965995288	 0.839306493	-0.086406
C	-1.4423512353	-0.5830746371	 0.1210104049	-0.115347
H	 1.0781613696	 1.8573421322	 0.0466743553	 0.122373
H	-0.4866669473	 1.9953431899	-0.7777350909	 0.111297
H	-0.4212200332	 1.8749281756	 0.994992514	 0.123662
H	 0.1927329632	-0.1665633239	-2.2063815203	 0.087824
H	 1.6887543421	-0.208531369	-1.2702677226	 0.100357
H	-0.3734559727	-2.4305702453	-1.6613076246	 0.102477
H	 1.3408522518	-2.4944425668	-2.0155252121	 0.0923
H	 0.5288551923	-3.7674674912	 0.1149755006	 0.089569
H	 1.9226709083	-2.7064332125	 0.3391565587	 0.103609
H	 0.3218434073	-2.2757378206	 2.183323256	 0.073927
H	-2.1238688015	-2.4045945255	 1.0808766347	 0.100421
H	-2.3262021104	-0.1754498767	-0.3535143655	 0.098036
205.1472	216.0301	253.848	282.1986	348.1302	360.1583	408.9978	464.9212	590.3358	600.2753	628.3947	744.6451	761.7977	820.7744	841.774	858.628	877.0656	894.1004	922.9982	938.6673	948.7517	969.5498	1032.897	1055.0717	1064.1582	1087.321	1139.1113	1173.4841	1190.5736	1219.1421	1252.6982	1270.4077	1302.5576	1333.3245	1353.7748	1363.3801	1373.1628	1384.9141	1407.9501	1470.5627	1476.0021	1484.8175	1495.7197	1496.7681	1665.8808	3025.5063	3030.4062	3039.8792	3047.6912	3064.1329	3065.2672	3071.9075	3089.635	3111.8791	3119.5187	3201.3392	3227.3612
CC12CCCC(O1)C=C2	C[C@@]12CCC[C@@H](O1)C=C2	
InChI=1S/C8H12O/c1-8-5-2-3-7(9-8)4-6-8/h4,6-7H,2-3,5H2,1H3	InChI=1S/C8H12O/c1-8-5-2-3-7(9-8)4-6-8/h4,6-7H,2-3,5H2,1H3/t7-,8+/m1/s1
