18
gdb 106785	2.69621	1.48549	1.14691	2.1128	71.49	-0.2447	0.0102	0.2549	1098.5573	0.147433	-439.083241	-439.074776	-439.073831	-439.116343	32.028	
C	-0.0673320095	 1.495794992	-0.111930284	-0.47564
C	 0.0522359115	 0.0155470489	 0.0941754038	 0.349201
C	 1.3043679848	-0.7888689671	-0.127174849	-0.377656
C	 0.6629634173	-0.7695748017	 1.2483992805	 0.25821
C	 1.3732134096	-0.2562307687	 2.473852911	-0.14381
O	 2.20987743	-1.2504622464	 3.0353572099	-0.415058
N	-0.2546269801	-1.8676008343	 1.502317085	-0.318225
C	-1.1915375701	-1.7396230195	 0.6516476494	 0.086499
O	-1.1599990212	-0.6923036448	-0.2060747275	-0.24601
H	 0.8595828149	 1.9934750976	 0.1849279536	 0.130442
H	-0.2505241017	 1.7275133126	-1.1662752658	 0.136697
H	-0.8891939121	 1.9109547303	 0.4790875253	 0.132757
H	 1.2546776568	-1.7012991516	-0.7121894914	 0.12288
H	 2.2211084575	-0.2184339151	-0.2357791175	 0.123792
H	 2.0169006671	 0.5913954819	 2.2167795653	 0.102189
H	 0.628791603	 0.0971939831	 3.2049954509	 0.091946
H	 1.6616968275	-2.0389865604	 3.1292746875	 0.296544
H	-2.0458862952	-2.3960842668	 0.5389134231	 0.145245
74.2643	136.6578	183.4135	208.0651	276.0721	314.5644	399.4717	405.5198	434.4384	470.3258	606.105	615.6297	752.8352	778.4364	841.0739	906.7707	925.9967	935.9766	951.4819	977.9335	983.1418	1046.0801	1066.402	1105.8238	1134.1111	1148.6088	1206.3621	1260.0971	1295.5384	1339.8843	1375.7811	1386.6762	1422.032	1443.2328	1473.4032	1477.594	1500.7818	1502.7378	1667.4122	2978.1924	3040.2988	3074.0023	3106.0367	3123.0408	3127.4077	3219.6035	3226.3276	3789.8795
CC12CC1(CO)N=CO2	C[C@@]12C[C@]1(CO)N=CO2	
InChI=1S/C6H9NO2/c1-5-2-6(5,3-8)7-4-9-5/h4,8H,2-3H2,1H3	InChI=1S/C6H9NO2/c1-5-2-6(5,3-8)7-4-9-5/h4,8H,2-3H2,1H3/t5-,6-/m1/s1
