16
gdb 79940	3.01437	1.71451	1.63729	2.7043	67.65	-0.2419	-0.0019	0.24	882.9727	0.12594	-437.831235	-437.824342	-437.823398	-437.862323	27.48	
O	-0.0947348901	 1.4065573794	-0.065999813	-0.434532
C	-0.0374899788	 0.0152621204	 0.035790655	 0.113871
C	-0.4564909328	-0.6829382041	 1.3052795545	-0.079768
N	-1.1391689872	 0.2180323839	 2.2258142212	-0.31776
C	-2.256664471	 0.4275798416	 1.6599155411	 0.401241
O	-3.1020090533	 1.4950419235	 1.5907225162	-0.266266
C	-3.2787349646	 1.1773260869	 0.1448297213	-0.125881
C	-2.624091196	-0.2312743643	 0.3719414227	-0.139817
C	-1.2953618674	-0.8212286398	-0.0262852431	-0.151626
H	-0.0243494206	 1.7606474916	 0.8299332671	 0.303782
H	 0.8160387873	-0.4164320943	-0.4840331576	 0.103518
H	 0.1427970227	-1.4811131741	 1.7269663906	 0.098695
H	-4.3353621705	 1.1900327226	-0.1228918952	 0.128405
H	-2.6822078416	 1.8673108531	-0.449831527	 0.156417
H	-3.4011598496	-0.9941282878	 0.4589921027	 0.114614
H	-1.2692959665	-1.7358840686	-0.6048484364	 0.095106
147.4786	173.3143	255.7293	327.8937	353.4751	480.4786	578.1218	631.0344	647.8441	719.1902	728.1828	758.9211	803.1195	852.8597	907.1866	937.6507	972.6446	976.3253	994.8967	1057.4827	1079.3001	1095.2655	1118.8945	1154.1212	1181.6293	1207.8334	1214.3207	1289.2249	1328.4121	1333.0381	1353.9606	1377.6782	1410.8729	1490.3206	1723.0796	3084.2845	3092.7823	3120.4498	3176.6571	3182.5737	3193.8664	3768.6747
OC1C2N=C3OCC3C12	O[C@H]1[C@H]2[N][C]3OC[C@H]3[C@@H]12	
InChI=1S/C6H7NO2/c8-5-3-2-1-9-6(2)7-4(3)5/h2-5,8H,1H2	InChI=1S/C6H7NO2/c8-5-3-2-1-9-6(2)7-4(3)5/h2-5,8H,1H2/t2-,3+,4-,5+/m0/s1
