20
gdb 74556	3.67148	1.21573	1.17237	1.1835	79.9	-0.2284	0.0237	0.2521	1172.4285	0.169993	-403.165183	-403.156152	-403.155208	-403.19843	34.16	
C	-0.0109322399	 1.4441661784	 0.0645870211	-0.480122
C	 0.0150755874	-0.0371064981	-0.081582026	 0.379083
N	-0.0219137272	-0.7047867761	-1.1684528119	-0.301415
C	-0.0112953626	-2.0972290228	-0.7977582321	-0.080771
C	 0.0695729346	-2.1107702904	 0.7251468714	 0.011089
O	 0.0902892269	-0.7396449623	 1.0919703864	-0.243239
C	-1.1680992115	-2.6380781753	 0.0452918974	 0.259066
C	-2.4958094661	-1.9184122947	 0.138148575	-0.456772
C	-1.2718582239	-4.1534025099	 0.0543280536	-0.44925
H	 0.8431589141	 1.7809579995	 0.6602203681	 0.145239
H	 0.0197161269	 1.9071609661	-0.9212138598	 0.153584
H	-0.9182907653	 1.7643082881	 0.586979804	 0.145475
H	 0.5210660915	-2.7701050839	-1.4608342148	 0.093075
H	 0.7015640523	-2.724276356	 1.3565784459	 0.102563
H	-2.3978391706	-0.837881471	 0.0241847317	 0.129638
H	-3.1719651098	-2.270870288	-0.6485635617	 0.118921
H	-2.9743048997	-2.1146469649	 1.1042533131	 0.116651
H	-1.7715479758	-4.5062516745	 0.9639094502	 0.118985
H	-1.8492142137	-4.5078010244	-0.8069448616	 0.12271
H	-0.2863039176	-4.62835986	 0.0107791201	 0.115488
127.6886	142.0576	149.8257	184.5138	215.2356	274.0138	304.9447	338.1701	368.7157	475.7519	515.9458	621.9741	690.4236	712.3021	768.2529	850.4247	871.6517	915.5774	969.2568	976.6742	996.0339	1032.2656	1057.6732	1059.5551	1069.951	1087.563	1129.6652	1156.9222	1230.399	1247.5633	1314.0341	1336.9327	1396.4187	1411.8982	1413.0608	1430.841	1474.1556	1478.3646	1481.3435	1490.4479	1501.4974	1509.3856	1708.9013	3023.4039	3034.3316	3049.1684	3087.1139	3089.9147	3097.1441	3105.5779	3134.0653	3164.6091	3166.228	3178.4968
CC1=NC2C(O1)C2(C)C	CC1=N[C@H]2[C@@H](O1)C2(C)C	
InChI=1S/C7H11NO/c1-4-8-5-6(9-4)7(5,2)3/h5-6H,1-3H3	InChI=1S/C7H11NO/c1-4-8-5-6(9-4)7(5,2)3/h5-6H,1-3H3/t5-,6+/m0/s1
