14
gdb 24788	3.80444	1.21765	0.92242	5.7651	84.62	-0.214	-0.0515	0.1625	1178.4746	0.102625	-395.733652	-395.726034	-395.72509	-395.765862	28.876	
N	-0.0148445721	 1.35324677	 0.0083805463	-0.539667
C	 0.0189473814	 0.072095973	 0.0011572597	 0.342046
C	-1.2242609099	-0.6945517972	 0.0036631776	-0.217494
C	-1.2049347695	-2.0466144751	-0.0039270208	 0.225902
N	 0.0337889393	-2.6902508096	-0.0142274177	-0.38252
C	 1.1783860151	-1.943157332	-0.0162865906	 0.088707
N	 1.2320100104	-0.6622805875	-0.0094841117	-0.314827
C	-2.3552124076	-2.8777775835	-0.0022772848	 0.23051
C	-3.3096002868	-3.6110813913	-0.0011469385	-0.390687
H	 0.9459538918	 1.7029260523	 0.0050885301	 0.213782
H	-2.1630547801	-0.1584120473	 0.0117301629	 0.130036
H	 0.0723158188	-3.6958907607	-0.0199653112	 0.271823
H	 2.0991997763	-2.5245672583	-0.0244898064	 0.131281
H	-4.1645337172	-4.2418692527	 0.0000148151	 0.211108
117.9741	128.6017	143.4826	357.5489	391.1977	416.4789	458.1351	500.6552	543.2301	575.0524	596.7573	661.0394	684.1592	743.6308	771.0362	883.356	893.694	917.7845	969.3193	1008.5193	1087.2379	1176.343	1187.0223	1300.3916	1371.1735	1425.4494	1493.2961	1642.0594	1673.383	1699.5183	2233.772	3145.4575	3237.4026	3456.818	3498.4086	3657.9383
N=C1C=C(NC=N1)C#C	[NH]C1=NCNC(=C1)C#C	
InChI=1S/C6H5N3/c1-2-5-3-6(7)9-4-8-5/h1,3-4H,(H2,7,8,9)	InChI=1S/C6H6N3/c1-2-5-3-6(7)9-4-8-5/h1,3,7-8H,4H2
