17
gdb 71085	3.0864	1.63351	1.44788	3.3239	72.05	-0.2259	-0.0171	0.2088	953.7776	0.136261	-421.800427	-421.793363	-421.792419	-421.831642	28.592	
C	-0.040936567	 1.4674166764	 0.1334632862	-0.498288
C	-0.0963196111	-0.0211998685	-0.0377864605	 0.429503
C	 0.3512462577	-0.7867893211	-1.3076715644	-0.277949
C	-0.4194044605	-1.9395640453	-0.6487549654	-0.07467
C	 0.0904589214	-2.0085038895	 0.8516630719	-0.067854
O	 0.6733600052	-0.7031412865	 0.9888074109	-0.302985
C	-1.3696952209	-1.7091317932	 1.2564240472	 0.473549
O	-2.15209519	-2.1204154479	 2.0601859989	-0.324796
C	-1.4327758637	-0.8777824432	-0.0143092298	-0.261563
H	 0.9994888928	 1.807568429	 0.106492679	 0.136746
H	-0.5904307411	 1.9699885486	-0.6671887603	 0.123799
H	-0.4721611149	 1.7614809379	 1.0947178607	 0.137509
H	-0.1590430647	-0.4353999753	-2.2077545716	 0.108655
H	 1.4264093933	-0.8818888281	-1.4781423975	 0.107904
H	-0.739167862	-2.8566045676	-1.136736581	 0.096782
H	 0.7167306776	-2.7913351966	 1.2714127221	 0.098828
H	-2.3333295522	-0.5053086095	-0.4938391165	 0.09483
129.5587	207.0238	255.696	303.6771	365.9177	494.2816	516.6991	574.9676	613.5338	639.9299	739.4502	783.3232	828.8181	838.7567	845.26	886.609	951.2022	961.1398	998.4067	1022.004	1038.6335	1069.4597	1072.3379	1118.4727	1149.2459	1174.7542	1182.6629	1203.02	1224.0304	1271.9439	1281.0241	1337.5656	1420.3641	1480.5598	1487.2637	1489.4881	1899.5125	3041.9627	3062.1663	3112.9396	3122.1989	3126.026	3154.9769	3164.658	3170.2172
CC12CC3C(O1)C(=O)C23	C[C@@]12C[C@H]3[C@@H](O1)C(=O)[C@@H]23	
InChI=1S/C7H8O2/c1-7-2-3-4(7)5(8)6(3)9-7/h3-4,6H,2H2,1H3	InChI=1S/C7H8O2/c1-7-2-3-4(7)5(8)6(3)9-7/h3-4,6H,2H2,1H3/t3-,4+,6-,7+/m1/s1
