20
gdb 71405	3.90532	1.31781	1.27711	1.7987	83.54	-0.2175	0.084	0.3015	1094.6317	0.171104	-365.923113	-365.915381	-365.914437	-365.954776	31.639	
C	-0.0122125335	 1.4664467325	 0.0483886227	-0.50904
C	 0.0273283916	-0.0284580241	-0.0583154173	 0.314977
C	-0.5799557604	-0.9335133559	-1.1213022183	-0.22249
N	-0.4190687734	-2.115686306	-0.1784243411	-0.218271
C	-0.3078014897	-1.0757334318	 0.9642773169	-0.073582
C	 1.13896262	-0.8930757868	 0.592710477	-0.235201
C	 1.0739488605	-2.2191861692	-0.110634391	 0.436884
C	 1.7436783958	-3.4970791324	 0.2615250883	-0.354396
C	 1.9232595736	-2.8998508411	-1.1297402908	-0.344955
H	 0.618840916	 1.9371208291	-0.7143196602	 0.123281
H	-1.0324634526	 1.8449504918	-0.0820207699	 0.121573
H	 0.3444000027	 1.8058002887	 1.0267966827	 0.120806
H	-1.6450647138	-0.7359393989	-1.2760009569	 0.099567
H	-0.0778587107	-1.0552608969	-2.0878380602	 0.096448
H	-0.854132574	-1.0980686512	 1.896799649	 0.096001
H	 1.936493255	-0.4484260891	 1.1756077279	 0.08669
H	 2.5840359776	-3.4635593342	 0.9474502873	 0.109356
H	 1.1169329527	-4.3777602345	 0.3493533532	 0.122895
H	 1.4188064555	-3.3960429801	-1.9528059328	 0.117825
H	 2.8837337673	-2.4643749501	-1.3855311166	 0.111629
143.3653	202.8006	211.4235	248.8107	305.3852	336.1083	462.2406	473.9829	603.2167	630.4206	746.3998	768.8258	797.2672	837.5401	855.581	871.3073	901.0577	906.8796	928.598	951.7415	973.8973	995.5838	1031.7742	1041.4107	1047.9136	1068.7867	1073.3294	1127.1704	1143.1365	1173.5138	1185.1477	1188.016	1222.8026	1268.7436	1295.816	1386.2833	1411.6162	1431.1484	1450.2714	1487.0647	1498.467	1504.1136	1511.6922	3022.5935	3033.5299	3083.3738	3091.1962	3092.5227	3125.0483	3129.2095	3185.6953	3206.6051	3213.8963	3221.7694
CC12CN3C1C2C31CC1	C[C@]12CN3[C@H]1[C@H]2C13CC1	
InChI=1S/C8H11N/c1-7-4-9-6(7)5(7)8(9)2-3-8/h5-6H,2-4H2,1H3	InChI=1S/C8H11N/c1-7-4-9-6(7)5(7)8(9)2-3-8/h5-6H,2-4H2,1H3/t5-,6+,7-/m1/s1
