20
gdb 71027	3.74329	1.65206	1.36881	1.5082	83.29	-0.2234	0.0996	0.323	999.287	0.172616	-365.929189	-365.922049	-365.921105	-365.960163	29.867	
C	-0.1102719373	 1.4425555229	-0.0533202427	-0.512572
C	 0.1108315967	-0.0397557794	-0.0001597899	 0.347794
C	 0.6839528963	-0.9650928467	-1.1131128884	-0.38401
C	 0.219464929	-1.8918696303	 0.0146331841	 0.346404
C	-0.0774783869	-3.2751706345	 0.5449078575	-0.339635
C	-0.7859868971	-2.7982621344	 1.8692188489	-0.22349
C	-0.7062388408	-1.2606331566	 1.7165905729	-0.015734
C	 0.6708498811	-0.9185035523	 1.1503234853	-0.12132
N	-1.0549060673	-1.0365183753	 0.2455110337	-0.209489
H	 0.8400375221	 1.9749987305	-0.1695610646	 0.120031
H	-0.7544269211	 1.7061340356	-0.8986018807	 0.128711
H	-0.589247593	 1.7989894895	 0.8647794765	 0.122963
H	 0.111876294	-1.0062761323	-2.0446815344	 0.105101
H	 1.7598833916	-0.9098785817	-1.2988776856	 0.096071
H	-0.7467889004	-3.8452429817	-0.1038298967	 0.112202
H	 0.8211056342	-3.868731836	 0.7321317491	 0.102121
H	-1.82468875	-3.1361295177	 1.9189725715	 0.110939
H	-0.2712774781	-3.1495886059	 2.7683959114	 0.09997
H	-1.2284232264	-0.6585960412	 2.464019877	 0.06088
H	 1.6543427333	-0.8716287323	 1.6333533552	 0.053066
195.3266	223.7547	228.4998	247.53	400.583	445.2643	470.6874	578.9052	680.2867	714.1927	727.1897	792.6531	830.1383	836.8841	861.4223	868.5197	887.7656	943.1782	965.3387	1000.5674	1014.0309	1014.9054	1070.3958	1081.8287	1123.4723	1142.1748	1148.5155	1160.3451	1176.493	1223.5293	1232.1184	1241.5663	1262.9548	1268.0024	1316.1804	1334.5881	1361.1412	1409.51	1476.4189	1483.0745	1485.7242	1495.1	1499.7268	3025.703	3029.6599	3050.9867	3055.016	3066.2266	3087.0892	3098.5014	3098.7385	3102.8168	3116.7311	3117.7716
CC12CC34CCC(C13)N24	C[C@@]12C[C@@]34CC[C@@H]([C@H]13)N24	
InChI=1S/C8H11N/c1-7-4-8-3-2-5(6(7)8)9(7)8/h5-6H,2-4H2,1H3	InChI=1S/C8H11N/c1-7-4-8-3-2-5(6(7)8)9(7)8/h5-6H,2-4H2,1H3/t5-,6+,7+,8-/m0/s1
