17
gdb 38060	2.56508	2.19235	1.58516	1.5225	79.58	-0.2222	-0.0324	0.1898	885.8053	0.138997	-384.696716	-384.690265	-384.689321	-384.727119	27.09	
O	-0.0114151761	 1.4268112016	 0.0452001093	-0.240851
C	 1.3556557136	 1.8307889237	 0.0248121518	-0.02189
C	 2.077785577	 0.68313672	 0.7024330126	-0.091478
C	 1.2734697095	-0.379774873	 0.7048204464	-0.091485
C	-0.0287061352	 0.0013685748	 0.0289221412	-0.021887
C	-0.0270142163	-0.5404609499	-1.3851784641	-0.081708
C	 0.6392900988	 0.0148421431	-2.4143674842	-0.064062
C	 1.5189176756	 1.1773269705	-2.416984854	-0.064059
C	 1.8744566009	 1.9724078709	-1.3908304884	-0.08171
H	 1.4258265452	 2.7860413362	 0.5566501855	 0.086558
H	 3.1102106327	 0.7272549647	 1.0238813347	 0.111015
H	 1.5122868628	-1.3844070927	 1.0286357378	 0.111016
H	-0.9277939233	-0.3242476469	 0.5636163088	 0.086557
H	-0.6055267892	-1.4439383428	-1.5626458615	 0.092419
H	 0.5424419693	-0.475489184	-3.380436798	 0.089573
H	 1.9623415242	 1.4010581837	-3.3846696382	 0.089573
H	 2.5862601205	 2.7742185702	-1.5721495095	 0.09242
208.8845	216.3864	342.3437	381.7847	415.4909	523.0996	603.2788	646.356	689.7298	734.4862	790.469	812.1441	820.874	881.0658	885.6513	923.3822	929.5444	933.2818	969.9324	979.358	992.9393	997.033	1038.0236	1104.1416	1130.9192	1237.0756	1243.2423	1258.1068	1296.5518	1329.0768	1345.0197	1360.5679	1409.0103	1446.4077	1637.2531	1658.6297	1687.9666	3045.2128	3049.6816	3135.9953	3146.1702	3161.0205	3170.5138	3209.927	3234.7662
O1C2C=CC1C=CC=C2	O1[C@H]2C=C[C@@H]1C=CC=C2	
InChI=1S/C8H8O/c1-2-4-8-6-5-7(3-1)9-8/h1-8H	InChI=1S/C8H8O/c1-2-4-8-6-5-7(3-1)9-8/h1-8H/t7-,8+
