15
gdb 66408	2.35076	1.54557	1.30482	2.0685	73.63	-0.2417	0.001	0.2427	1024.6906	0.111163	-416.728951	-416.72059	-416.719646	-416.761802	31.638	
O	 0.1119944973	 1.4486548707	 0.1823605655	-0.446799
C	 0.0327451691	 0.0976189654	-0.0057585942	 0.328323
C	-1.1367084032	-0.8911746848	-0.1042358883	-0.116393
N	-0.420762425	-1.6258214172	-1.1519990424	-0.349788
C	 0.682578755	-0.7097132265	-1.0906463463	 0.288181
N	 1.7345483074	-0.5280550646	-1.7581355716	-0.542213
C	-0.3187322341	-0.8041653497	 1.1771378118	-0.278275
C	 0.5029672059	-1.8835683639	 1.6448738657	 0.317363
C	 1.1775608968	-2.8101597892	 2.0100356492	-0.429705
H	 0.2738198892	 1.8567236967	-0.6769404793	 0.305343
H	-2.205586794	-0.7310980857	-0.1531849133	 0.122855
H	-0.21499889	-2.6064695853	-0.9775132273	 0.241473
H	 1.8592574181	-1.2529182211	-2.4674904542	 0.224989
H	-0.8126784309	-0.2196572256	 1.9516413342	 0.133297
H	 1.7862568983	-3.6124970192	 2.3468106606	 0.201349
93.5473	129.249	157.7914	211.6288	309.3604	334.0527	366.2281	476.6343	487.3728	585.8458	602.6079	660.506	664.7636	699.381	735.0453	791.2694	828.5722	878.2411	907.3554	923.9839	975.235	1022.6412	1044.6321	1091.2419	1159.1138	1230.5886	1271.2826	1333.5782	1347.0922	1363.2633	1469.3786	1804.7999	2234.8166	3134.8522	3207.8508	3464.2283	3501.4126	3502.4934	3792.7753
OC12C(NC1=N)C2C#C	O[C@@]12[C@@H](N[C]1[NH])[C@H]2C#C	
InChI=1S/C6H6N2O/c1-2-3-4-6(3,9)5(7)8-4/h1,3-4,9H,(H2,7,8)	InChI=1S/C6H6N2O/c1-2-3-4-6(3,9)5(7)8-4/h1,3-4,9H,(H2,7,8)/t3-,4+,6+/m1/s1
