15
gdb 18811	4.3579	2.26911	1.88686	3.0649	64.89	-0.2458	0.0247	0.2705	724.4436	0.121872	-362.643645	-362.638025	-362.637081	-362.673179	23.106	
N	-0.0568183806	 1.268109778	 0.1364234287	-0.55392
C	-0.0336230183	 0.017823797	-0.0251846635	 0.430598
O	 1.1070384362	-0.752529835	-0.1096506898	-0.247519
C	 0.7148831331	-2.067230887	-0.4831678797	 0.094136
C	-0.2845256423	-2.8291579272	 0.36415772	-0.101778
C	-1.1174597451	-1.8511722994	 1.187395696	-0.233265
C	-1.2101310709	-0.9220593823	-0.0797402251	-0.139616
C	-0.6984850916	-2.1176909025	-0.9344769947	-0.113444
H	 0.893095405	 1.6420061458	 0.1815894269	 0.223044
H	 1.5066437216	-2.6079348292	-0.9837928656	 0.115185
H	-0.1595786527	-3.8888882204	 0.5543487722	 0.092881
H	-2.0990745286	-2.2686878455	 1.4203431287	 0.115794
H	-0.6776605246	-1.4227174511	 2.0933336313	 0.114263
H	-2.1600482951	-0.4418339467	-0.2909196551	 0.102301
H	-1.0729566161	-2.4802208445	-1.8819359103	 0.101339
156.8911	312.5501	412.5107	485.6007	589.417	708.3293	728.2447	757.6429	793.9456	805.2282	843.3454	885.2832	914.2443	921.3903	968.7225	997.2556	1015.34	1019.4789	1035.0645	1067.7977	1094.5831	1129.5469	1149.0219	1197.4783	1224.9942	1252.9421	1267.9359	1310.1672	1342.8454	1409.5319	1496.8894	1785.4587	3053.8295	3115.6702	3175.4032	3178.9635	3205.0646	3218.6191	3468.3164
N=C1OC2C3CC1C23	[NH][C]1O[C@H]2[C@H]3C[C@@H]1[C@@H]23	
InChI=1S/C6H7NO/c7-6-3-1-2-4(3)5(2)8-6/h2-5,7H,1H2	InChI=1S/C6H7NO/c7-6-3-1-2-4(3)5(2)8-6/h2-5,7H,1H2/t2-,3+,4-,5-/m0/s1
