17
gdb 31589	3.33622	1.0617	0.82366	2.3196	73.82	-0.1857	0.0233	0.209	1353.562	0.136581	-455.157067	-455.147919	-455.146975	-455.191005	33.913	
N	-0.0512048344	 1.383042529	 0.2604887877	-0.607385
C	-0.0662002994	-0.0014679104	 0.0976467415	 0.199958
C	-1.1179299719	-0.8553344891	-0.0610338526	 0.239435
N	-2.4756867306	-0.5156652768	-0.0329412681	-0.612496
C	-0.5598136688	-2.1740798159	-0.1730240734	-0.347816
C	 0.7904630429	-2.0268440121	-0.0740564654	 0.310961
C	 1.9091788585	-3.0179874285	-0.1318140641	-0.160182
O	 1.5449698972	-4.1895064651	-0.8405278588	-0.407
O	 1.1209405341	-0.7233506718	 0.0959744649	-0.211755
H	 0.2306018934	 1.6758797462	 1.1917261657	 0.244173
H	 0.5489906909	 1.8525178278	-0.4103897397	 0.242147
H	-2.5992695051	 0.4850278349	-0.1360368324	 0.246435
H	-3.0196606559	-1.0033646416	-0.7334810784	 0.24013
H	-1.0917144125	-3.1052632067	-0.2900954943	 0.109495
H	 2.7991228545	-2.5266933906	-0.5566972611	 0.103984
H	 2.1876803981	-3.3606799702	 0.8727132612	 0.128131
H	 1.2110131791	-3.909040129	-1.6996691328	 0.281785
59.9584	138.9585	194.9035	212.1088	253.4339	271.4155	300.868	326.8688	368.3332	390.8969	507.5098	621.194	649.1184	669.9159	690.3395	779.4104	787.2536	807.2179	821.1106	983.8462	1007.9125	1052.6249	1088.2276	1133.0037	1177.7418	1199.0544	1214.1484	1284.0034	1311.6648	1381.6883	1425.8951	1468.6363	1503.1	1602.6482	1639.2583	1654.9658	1726.2689	2979.7415	3040.4444	3257.5038	3481.659	3522.0769	3545.6328	3615.6974	3804.0342
NC1=C(N)C=C(CO)O1	Nc1c(N)cc(CO)o1	
InChI=1S/C5H8N2O2/c6-4-1-3(2-8)9-5(4)7/h1,8H,2,6-7H2	InChI=1S/C5H8N2O2/c6-4-1-3(2-8)9-5(4)7/h1,8H,2,6-7H2
