17
gdb 133695	2.61009	1.13051	0.96322	3.0958	62.22	-0.243	0.0792	0.3222	1253.7449	0.130781	-549.491442	-549.482149	-549.481205	-549.526041	33.318	
C	-0.1132369782	 1.4266384803	 0.7758820637	-0.425357
C	 0.0930867227	-0.0227474769	 0.3945693546	 0.005861
C	 0.2914260584	-0.422338482	-1.0287835999	-0.201916
N	 1.370766657	-0.567267465	-0.0724519533	-0.093047
C	 2.537606815	 0.2911448662	-0.2242706351	-0.317948
C	-0.2787910957	-1.6925917416	-1.6013649605	 0.295981
F	-1.4557259754	-1.4458493714	-2.2051770763	-0.083421
F	 0.5378524407	-2.2211977318	-2.5270984145	-0.081229
F	-0.4875102635	-2.6234495683	-0.6654595791	-0.073705
H	 0.3477513624	 2.1200951204	 0.0691168627	 0.124723
H	-1.1842736019	 1.6499393055	 0.8097151999	 0.134518
H	 0.2984874735	 1.6281117577	 1.7705480859	 0.130663
H	-0.4385797914	-0.7289691325	 1.0293347603	 0.108732
H	 0.3514500338	 0.3746444412	-1.7698632978	 0.104723
H	 2.3225941607	 1.2942581015	-0.6214063033	 0.104743
H	 3.0284213175	 0.4019500428	 0.7472216499	 0.129861
H	 3.2398358346	-0.1985130362	-0.9052957374	 0.136819
51.9431	124.9914	170.5234	177.6196	187.1979	258.2067	292.6088	329.2284	376.662	395.1489	517.8599	544.4503	576.515	689.4135	767.5497	846.5949	859.7245	979.5254	1024.8951	1055.5928	1108.6748	1133.6392	1161.7232	1171.3022	1181.4849	1197.1813	1203.4923	1300.1749	1307.7339	1379.397	1411.2322	1450.6592	1478.9563	1488.5306	1493.9136	1505.6033	1509.302	2991.2711	3042.1285	3077.6379	3102.5723	3112.1691	3115.2767	3118.3512	3137.538
CC1C(N1C)C(F)(F)F	C[C@H]1[C@@H](N1C)C(F)(F)F	
InChI=1S/C5H8F3N/c1-3-4(9(3)2)5(6,7)8/h3-4H,1-2H3	InChI=1S/C5H8F3N/c1-3-4(9(3)2)5(6,7)8/h3-4H,1-2H3/t3-,4+,9?/m0/s1
