21
gdb 115365	3.21202	1.07174	0.95014	1.865	81.05	-0.2424	0.008	0.2504	1337.6863	0.182792	-424.234471	-424.225366	-424.224422	-424.268408	34.659	
C	-0.1108027722	 1.5209822838	 0.0368089613	-0.385143
C	 0.0046752384	-0.004706785	 0.0285161425	-0.186161
C	 0.7525797848	-0.5572986731	 1.2459592922	 0.08918
O	 0.0327837419	-0.1563827877	 2.4060906725	-0.27401
C	 0.5215469476	-0.7737691314	 3.5880565905	-0.111841
C	 0.2133568033	-2.27047274	 3.5558121014	 0.092308
O	-1.1722150027	-2.5241676354	 3.7833261488	-0.435358
C	 0.6639544511	-2.8424992941	 2.2321124941	-0.119519
C	 0.9167469706	-2.0552692187	 1.1880187569	-0.060116
H	 0.8789263733	 1.9911269253	 0.0216529661	 0.111512
H	-0.6627932504	 1.87587095	-0.8385276275	 0.110754
H	-0.6305961564	 1.8636996596	 0.9344335598	 0.137153
H	-0.991800797	-0.4619188968	 0.0035633203	 0.102836
H	 0.5296280871	-0.3404941615	-0.8740211383	 0.096342
H	 1.7582497178	-0.0913089824	 1.2739494265	 0.073204
H	 1.605037202	-0.602916086	 3.6976801454	 0.088188
H	 0.0023590921	-0.3019962756	 4.4264260347	 0.112593
H	 0.7334462914	-2.7675732726	 4.383048976	 0.086694
H	-1.6432227538	-2.0586230908	 3.0815238394	 0.279239
H	 0.7434903863	-3.9229597995	 2.1538784331	 0.097043
H	 1.2519532349	-2.4681483182	 0.2393016844	 0.095101
65.3368	110.5398	163.6977	202.2391	234.4361	276.9623	353.6505	387.6682	405.0727	452.0813	500.9054	572.9778	617.5227	751.1042	766.6526	829.7387	861.9118	879.037	946.893	978.9041	986.5242	1001.6451	1039.0595	1068.8778	1100.9804	1112.6528	1129.1437	1160.6163	1208.9558	1257.2963	1282.8838	1301.6705	1314.6679	1346.7179	1355.2258	1382.3855	1395.7427	1407.6698	1413.0974	1431.2762	1476.4765	1486.0871	1495.6842	1508.725	1713.1349	2899.0686	2975.3383	3030.0416	3037.8731	3047.9	3067.872	3097.263	3103.0332	3129.1568	3149.9334	3176.5117	3787.9217
CCC1OCC(O)C=C1	CC[C@H]1OC[C@@H](O)C=C1	
InChI=1S/C7H12O2/c1-2-7-4-3-6(8)5-9-7/h3-4,6-8H,2,5H2,1H3	InChI=1S/C7H12O2/c1-2-7-4-3-6(8)5-9-7/h3-4,6-8H,2,5H2,1H3/t6-,7+/m0/s1
