16
gdb 86474	2.36769	1.41017	1.02786	4.3657	76.04	-0.2814	-0.0215	0.2599	1180.3441	0.121654	-400.704564	-400.695528	-400.694584	-400.738857	32.87	
C	 0.5654746206	 1.5851441663	 0.002007223	-0.403237
C	-0.0049224602	 0.1859692594	-0.0746426549	 0.157497
C	 0.427266351	-0.7161086715	-1.2497793154	-0.347709
C	 1.0076619038	-1.6540765917	-0.1410622937	 0.10969
O	 0.6188017043	-0.7172013936	 0.8882583261	-0.307929
C	 0.3619688123	-2.9547111705	-0.0073853324	 0.302098
C	-0.1936845765	-4.0147327523	 0.0889770054	-0.427239
C	 2.4734618409	-1.8105813942	-0.1875814438	 0.267597
N	 3.6234068033	-1.9031100039	-0.2480200206	-0.33478
H	 1.6461515471	 1.5768337792	-0.1684302688	 0.134848
H	 0.0948984602	 2.2277553774	-0.7501847533	 0.124132
H	 0.3749519451	 2.0185610102	 0.988409484	 0.138234
H	-1.0894290837	 0.1993051021	 0.0855604084	 0.094272
H	-0.3691926507	-1.1677546167	-1.8384860047	 0.137738
H	 1.1862447044	-0.2890157674	-1.9052405573	 0.140592
H	-0.675524792	-4.9571390028	 0.1838911581	 0.214196
38.2734	124.0845	150.3246	184.1199	238.4369	245.2992	328.2211	396.5755	470.5378	506.3307	548.3597	582.7771	597.4746	651.2098	682.645	782.2538	879.8658	896.9731	912.4294	970.2407	998.5659	1053.0344	1099.0643	1150.0533	1188.633	1231.9623	1255.4361	1309.6728	1389.7897	1412.5132	1478.797	1484.2232	1494.9132	2241.9012	2357.6351	3035.1087	3037.4206	3099.5288	3109.9838	3120.5626	3166.7809	3497.7288
CC1CC(O1)(C#C)C#N	C[C@H]1C[C@@](O1)(C#C)C#N	
InChI=1S/C7H7NO/c1-3-7(5-8)4-6(2)9-7/h1,6H,4H2,2H3	InChI=1S/C7H7NO/c1-3-7(5-8)4-6(2)9-7/h1,6H,4H2,2H3/t6-,7-/m0/s1
