17
gdb 16398	3.57344	2.23274	1.76444	3.3923	69.34	-0.2518	0.0346	0.2864	790.4756	0.145704	-363.869615	-363.863297	-363.862353	-363.899976	25.28	
N	-0.0739239254	 1.2655489235	-0.2853372657	-0.537057
C	-0.0409658928	 0.0414196865	 0.0340224533	 0.421099
O	 1.1223692646	-0.5756047029	 0.4079148967	-0.268807
C	 1.1074893303	-1.9723624596	 0.7624770571	-0.074267
C	-0.2809309642	-2.5879337235	 0.6623194568	-0.034766
C	-0.9188510587	-2.169304837	-0.6884114474	-0.233346
C	-1.2647490355	-0.8292266947	 0.0297153898	-0.079778
C	-1.2985509267	-1.6457634668	 1.3576074723	-0.233347
H	 0.8621830161	 1.6711614748	-0.215380977	 0.215662
H	 1.8103430209	-2.4808018926	 0.0913453909	 0.113206
H	 1.4960014249	-2.0474104722	 1.7853919742	 0.113209
H	-0.2473728067	-3.644447416	 0.9388897412	 0.073865
H	-0.2805904068	-2.1293900869	-1.5752172503	 0.107908
H	-1.8211861087	-2.7436867101	-0.9092476197	 0.106868
H	-2.1310059888	-0.2486791925	-0.2795983044	 0.09477
H	-2.2684893621	-2.126934549	 1.5010822739	 0.10687
H	-0.9960610104	-1.142876811	 2.2801028086	 0.107911
116.2593	205.512	367.5502	393.4647	427.2226	489.5477	623.5827	699.0414	763.4813	834.1799	843.6424	881.2742	905.7798	907.9512	945.8074	957.1117	969.7048	1047.1364	1061.9669	1079.5689	1111.8859	1118.9329	1148.0999	1181.7339	1231.1993	1251.151	1264.6276	1298.5636	1303.7149	1345.1606	1351.9523	1429.3834	1483.7238	1511.0491	1519.5355	1756.9389	3022.8394	3058.5002	3061.3216	3062.2611	3083.814	3118.4867	3119.8271	3144.1818	3458.1039
N=C1OCC2CC1C2	[NH][C]1OC[C@@H]2C[C@H]1C2	
InChI=1S/C6H9NO/c7-6-5-1-4(2-5)3-8-6/h4-5,7H,1-3H2	InChI=1S/C6H9NO/c7-6-5-1-4(2-5)3-8-6/h4-5,7H,1-3H2/t4-,5+
