14
gdb 51042	2.34251	1.3338	0.9904	2.2945	63.45	-0.2906	-0.0293	0.2613	1160.2261	0.098753	-473.814741	-473.806109	-473.805165	-473.849492	29.072	
O	-0.0332576624	-0.0261264462	 0.0042159815	-0.246339
C	-0.0429460694	 1.1630511567	 0.0190510223	 0.164623
O	 1.1072996331	 1.8857040763	-0.0995979156	-0.230396
C	 1.0239726369	 3.3023629866	 0.0098973138	 0.184227
C	 0.9103729312	 3.8661073837	 1.4570365839	-0.107001
O	 2.2280111388	 4.4279780956	 1.3864299905	-0.254357
C	 2.4399740245	 3.9291047603	 0.0556376555	-0.104797
C	 0.1042883512	 3.8737409248	-0.9738132981	 0.250315
N	-0.6236122583	 4.3374975884	-1.7422416882	-0.316137
H	-0.9464302738	 1.7903139869	 0.1190305341	 0.110902
H	 0.1361057525	 4.624906242	 1.609068693	 0.136076
H	 0.8242902717	 3.077538819	 2.2133043638	 0.131445
H	 3.2262999947	 3.1694896155	 0.0027736064	 0.143179
H	 2.6262107293	 4.7271840705	-0.6688511428	 0.13826
49.0047	73.2175	116.8337	155.5623	187.1378	229.7749	375.6789	407.9419	498.9262	547.4383	569.3119	739.7229	846.6186	935.7299	961.2227	986.8573	1037.3198	1057.0038	1066.3834	1121.3379	1150.0448	1161.9205	1177.5013	1255.2319	1310.8635	1376.2891	1431.8104	1496.0512	1520.729	1880.6463	2356.5005	2987.8185	3031.4727	3048.3915	3092.0661	3107.1651
O=COC1(COC1)C#N	O=COC1(COC1)C#N	
InChI=1S/C5H5NO3/c6-1-5(9-4-7)2-8-3-5/h4H,2-3H2	InChI=1S/C5H5NO3/c6-1-5(9-4-7)2-8-3-5/h4H,2-3H2
