21
gdb 102826	2.58089	1.034	0.80502	4.0692	79.49	-0.2435	-0.0377	0.2058	1453.6589	0.180846	-424.21941	-424.209645	-424.208701	-424.25473	35.641	
O	 0.1625035219	 1.2812039651	 0.4148247932	-0.432579
C	 0.0198502235	-0.0468516157	-0.0268780094	-0.061958
C	-1.4468652728	-0.5172319313	-0.1762325994	-0.04375
C	-2.0886695448	-0.171943349	-1.5344159276	-0.298118
C	-2.2452130301	 1.2716935021	-1.9323376433	 0.15511
O	-1.7506390948	 2.2337075684	-1.3912665841	-0.248049
C	-1.5528832444	-2.0187552898	 0.0418523991	 0.029508
C	-1.6340307252	-2.5845212561	 1.4348288193	-0.277413
C	-2.8393486877	-2.6396120509	 0.526225547	-0.277591
H	-0.3990222551	 1.834241579	-0.1488963816	 0.297133
H	 0.5559545671	-0.2275820026	-0.9775221943	 0.068047
H	 0.5040361181	-0.6729757592	 0.7300474317	 0.105278
H	-2.014274329	-0.0126483657	 0.6168488912	 0.08722
H	-1.524252212	-0.6446491393	-2.3560577864	 0.13406
H	-3.0892010585	-0.6226845608	-1.6053099356	 0.128773
H	-2.8861098019	 1.4199113691	-2.8294928192	 0.094817
H	-0.9855566643	-2.6104505682	-0.6747311696	 0.081611
H	-1.1087962167	-3.5081958791	 1.6506146137	 0.114231
H	-1.6583786828	-1.8843168496	 2.2634125608	 0.120711
H	-3.6683727999	-1.9758379614	 0.752191863	 0.110472
H	-3.1398275106	-3.600376535	 0.1228430615	 0.112488
60.4693	82.9531	111.3501	162.8508	170.4828	236.5482	257.7456	284.8885	417.2875	434.1898	456.0637	583.673	653.7951	745.3916	787.3285	826.5081	833.6536	888.2024	925.6023	948.7505	971.5529	989.9836	1057.4496	1081.4897	1093.4993	1108.8134	1118.5188	1141.5033	1170.4531	1197.9653	1216.8363	1228.3218	1268.0372	1280.2943	1328.654	1371.576	1396.5606	1417.4543	1425.6744	1440.4635	1470.7363	1476.1555	1506.8646	1511.487	1812.9127	2891.8556	2924.4869	2989.4905	3025.0384	3035.2029	3064.2031	3119.1276	3126.8476	3134.1026	3205.7225	3221.6351	3693.3986
OCC(CC=O)C1CC1	OC[C@@H](CC=O)C1CC1	
InChI=1S/C7H12O2/c8-4-3-7(5-9)6-1-2-6/h4,6-7,9H,1-3,5H2	InChI=1S/C7H12O2/c8-4-3-7(5-9)6-1-2-6/h4,6-7,9H,1-3,5H2/t7-/m1/s1
