16
gdb 96607	2.6104	1.22847	0.8441	3.09	78.3	-0.2689	-0.0673	0.2016	1308.5721	0.122615	-434.100288	-434.090554	-434.089609	-434.135286	33.189	
C	 0.0002742526	 1.4375529027	-0.0755540078	-0.34642
N	 0.0564362852	-0.0070481365	-0.0358012588	-0.292206
C	 0.5699306462	-0.631733017	 0.9444829987	 0.368552
C	 1.1420301006	 0.0385914841	 2.103884773	 0.22578
N	 1.5731375602	 0.6541279021	 2.9830399262	-0.335951
N	 0.6081177237	-2.0252045208	 0.9513460013	-0.162437
C	 0.0412944399	-2.7261785413	-0.1986899104	-0.342331
C	 1.1572918582	-2.75858744	 1.9954665823	 0.156663
O	 1.2011009489	-3.9636849477	 2.0221434022	-0.310654
H	 0.5209080548	 1.7827789464	-0.9755863934	 0.14604
H	-1.046356313	 1.7437081377	-0.1809644567	 0.146032
H	 0.4307340431	 1.9424812254	 0.798231795	 0.140565
H	 0.5622299841	-2.4300105692	-1.1118261573	 0.150769
H	 0.1622405196	-3.7915850249	-0.0135366785	 0.170663
H	-1.0144915825	-2.4697754114	-0.310469451	 0.150752
H	 1.5514253486	-2.1214013095	 2.8024212851	 0.134182
63.1094	125.9565	139.0877	154.8191	160.2489	202.0789	258.1884	311.0993	331.933	378.339	386.8841	459.8142	519.6995	691.62	721.5277	808.2307	953.2603	1028.5119	1070.4844	1125.5072	1129.4326	1159.6343	1172.1668	1342.9133	1360.7414	1440.8133	1447.8477	1455.4582	1483.0035	1489.2963	1499.8239	1509.1017	1699.5486	1811.0977	2341.1162	3013.9395	3021.1742	3065.0166	3087.2273	3087.367	3129.743	3184.8949
CN=C(C#N)N(C)C=O	CN=C(C#N)N(C)C=O	
InChI=1S/C5H7N3O/c1-7-5(3-6)8(2)4-9/h4H,1-2H3	InChI=1S/C5H7N3O/c1-7-5(3-6)8(2)4-9/h4H,1-2H3
