20
gdb 93243	2.76977	1.30885	0.93838	3.3078	76.72	-0.2598	0.0113	0.271	1262.2808	0.171985	-440.311052	-440.302306	-440.301362	-440.344291	33.677	
C	-0.0969584996	 1.5400313252	 0.0140677322	-0.408209
C	 0.0110277945	 0.0124956117	 0.0327955008	-0.006707
C	 0.7483023494	-0.4842785142	-1.2091918091	-0.072759
O	 0.9632976103	-1.9095580885	-1.2384902131	-0.253376
C	 1.3650372247	-2.5319694979	-0.1030111871	 0.363364
N	 2.1160247848	-3.5515349311	-0.1024764711	-0.535129
C	 0.7866772535	-2.0464726318	 1.2179663486	 0.072618
O	 1.5027460456	-2.571996352	 2.3024157021	-0.443422
C	 0.7350383956	-0.5191157655	 1.2745451574	-0.2261
H	 0.8943965371	 2.0067251283	 0.0334493841	 0.121748
H	-0.6181655307	 1.8952269032	-0.8812499407	 0.117622
H	-0.6496436149	 1.8985864102	 0.8873966835	 0.125184
H	-1.0027485653	-0.4111797998	 0.0137636631	 0.087099
H	 0.1905060596	-0.2662414955	-2.1232480188	 0.120212
H	 1.7280677526	 0.0094760529	-1.2827027799	 0.108898
H	 2.4226807896	-3.7938742237	-1.0445950683	 0.227221
H	-0.2571521139	-2.4149306011	 1.2308682624	 0.090595
H	 2.008316291	-3.3161462547	 1.9376545264	 0.294548
H	 1.7595979867	-0.1269636237	 1.3173367441	 0.106307
H	 0.2316720296	-0.2072820419	 2.1950513035	 0.110286
86.7189	136.9203	197.9544	225.1549	263.7507	320.1405	379.4508	407.1594	410.9505	444.6935	472.9483	557.1906	588.8305	702.1793	805.881	868.6913	899.4819	919.1062	940.2338	978.6643	1001.2755	1043.649	1092.4988	1125.6008	1138.7453	1160.5033	1179.7235	1206.3661	1273.3312	1290.434	1301.7018	1320.3715	1354.7491	1383.2325	1392.54	1413.9473	1434.4469	1460.8101	1493.3145	1497.8978	1502.3924	1510.5238	1744.4615	2918.056	3002.5343	3015.3613	3029.1122	3034.1306	3084.2236	3095.3825	3101.9193	3108.8883	3491.5888	3682.7525
CC1COC(=N)C(O)C1	C[C@H]1CO[C]([NH])[C@@H](O)C1	
InChI=1S/C6H11NO2/c1-4-2-5(8)6(7)9-3-4/h4-5,7-8H,2-3H2,1H3	InChI=1S/C6H11NO2/c1-4-2-5(8)6(7)9-3-4/h4-5,7-8H,2-3H2,1H3/t4-,5+/m1/s1
