18
gdb 38023	3.52209	1.63148	1.30204	1.2274	81.89	-0.2233	0.0158	0.2391	989.3764	0.151079	-364.792825	-364.78625	-364.785306	-364.823542	27.539	
C	-0.0623772929	 1.4745500899	 0.1092033887	-0.365121
C	 1.4081745339	 1.8711838895	 0.0220828899	-0.067395
C	 2.1665288523	 0.9300064249	-0.547275746	-0.071463
C	 1.3275982501	-0.246234547	-1.0029447953	-0.088405
C	 1.6392725706	-1.7069595096	-0.6995954408	-0.083285
N	 1.7857676919	-2.0575352916	 0.7268369128	-0.328705
C	 0.4690856411	-2.2586688377	 0.0472554719	-0.073651
C	-0.4448145304	-1.1083860494	 0.3327930822	-0.197636
C	 0.0492963882	 0.0064225298	-0.2060092135	 0.294736
H	-0.5083790422	 1.6733402346	 1.0896608359	 0.115324
H	-0.6592597415	 2.0312083167	-0.629982318	 0.111347
H	 1.7657651178	 2.8322971007	 0.3752749558	 0.093412
H	 3.2316464917	 1.0118191761	-0.7306837313	 0.093696
H	 1.1555738856	-0.1650471021	-2.0898532522	 0.082885
H	 2.1639879874	-2.3049124465	-1.4370174615	 0.080882
H	 2.2639012981	-2.956163641	 0.7771763316	 0.224621
H	 0.1085390421	-3.2723922184	-0.0928081264	 0.085979
H	-1.2770238237	-1.169767179	 1.0243749862	 0.09278
155.2221	180.8139	352.5389	382.901	472.9791	485.8325	636.1603	653.0054	684.4996	752.4773	786.3461	816.4447	833.9577	864.1384	878.201	900.3491	933.5273	953.6562	964.7059	987.1673	1007.245	1059.0014	1088.6712	1116.702	1125.1309	1139.6552	1162.2338	1177.8785	1236.3829	1250.5153	1262.0278	1305.1965	1319.5151	1360.6792	1374.777	1407.1343	1476.2611	1661.1634	1718.766	2952.4909	2986.6416	3062.3082	3159.0696	3168.694	3183.3203	3198.2475	3208.8826	3472.6133
C1C=CC2C3NC3C=C12	C1C=C[C@H]2[C@H]3N[C@H]3[CH][C]12	
InChI=1S/C8H9N/c1-2-5-4-7-8(9-7)6(5)3-1/h1,3-4,6-9H,2H2	InChI=1S/C8H9N/c1-2-5-4-7-8(9-7)6(5)3-1/h1,3-4,6-9H,2H2/t6-,7+,8-/m1/s1
