19
gdb 90097	2.89714	1.44341	1.29192	2.4451	76.54	-0.2382	0.0488	0.2869	1065.3649	0.158277	-422.87525	-422.867345	-422.866401	-422.907143	32.058	
C	-0.1621160754	 1.6186358902	-0.1643609582	-0.410273
C	 0.0058785485	 0.1133810364	-0.0056177909	-0.021114
C	 1.031155698	-0.6338858854	-1.0001633502	-0.36602
C	 1.9042022724	-0.760057809	 0.2477021887	 0.340327
O	 2.653856801	-1.6567032608	 1.202431359	-0.414198
C	 2.1161942709	-0.4545413341	 2.0043031332	-0.057768
C	 2.6882623803	 0.4388433419	 0.9057195518	 0.167674
O	 4.0630209439	 0.491011626	 0.7370591669	-0.452359
C	 0.7744547105	-0.6034083465	 1.2090718162	-0.065791
H	 0.7831469046	 2.1564801295	-0.2643413326	 0.129965
H	-0.7482300962	 1.8310591199	-1.0653758819	 0.121371
H	-0.7024240856	 2.039400645	 0.689613671	 0.126951
H	-0.9844103337	-0.3441614637	-0.0624088667	 0.097285
H	 0.6128294781	-1.5772994648	-1.3576675564	 0.123607
H	 1.4390762205	-0.0652968225	-1.8404500857	 0.114857
H	 2.3302769398	-0.5104353573	 3.0752044441	 0.095345
H	 2.2879502474	 1.4451654861	 0.8084549024	 0.09047
H	 4.3558201367	-0.4266745536	 0.8460631327	 0.286436
H	 0.2791994085	-1.5426821372	 1.4567352665	 0.093236
142.9433	202.2455	212.5822	250.1148	321.7973	376.312	385.9243	432.9854	551.4525	605.9172	626.5609	683.151	698.3248	767.9704	778.2895	848.0959	862.5729	887.6318	941.0553	961.81	1005.7803	1051.9303	1065.7394	1101.1014	1112.8362	1144.8766	1164.4501	1172.502	1187.244	1217.572	1224.1084	1242.5777	1304.3739	1307.5514	1334.2398	1369.8184	1414.6456	1464.7627	1475.6818	1491.8753	1505.8391	3037.2619	3059.6906	3071.3247	3079.7238	3097.8122	3108.0444	3120.4056	3125.4775	3157.5728	3721.0329
CC1CC23OC(C2O)C13	C[C@H]1C[C@@]23O[C@@H]([C@H]2O)[C@@H]13	
InChI=1S/C7H10O2/c1-3-2-7-4(3)5(9-7)6(7)8/h3-6,8H,2H2,1H3	InChI=1S/C7H10O2/c1-3-2-7-4(3)5(9-7)6(7)8/h3-6,8H,2H2,1H3/t3-,4+,5+,6+,7-/m0/s1
