18
gdb 79918	2.66824	1.4814	1.27771	1.815	79.4	-0.2339	0.0075	0.2414	1083.5457	0.146557	-401.92071	-401.912291	-401.911347	-401.95353	31.928	
C	 0.0299838838	 1.4860261832	-0.1682823348	-0.342826
N	 0.0088861158	 0.0284168974	-0.0172347561	-0.068037
C	-1.1459188843	-0.5120248432	 0.7891373964	-0.166703
C	-0.793766776	-1.9783971793	 0.8343773398	-0.182206
C	 0.5381275745	-1.985289588	 1.0379310221	 0.354789
C	 1.4982418975	-3.1025764776	 1.2555724055	-0.518816
C	 0.8729754069	-0.5076097461	 1.0945016635	-0.230695
C	-0.3083059385	-0.0349526434	 2.0563736405	 0.402549
O	-0.4581685324	 0.5771708849	 3.0599550197	-0.308363
H	 0.9899235642	 1.777331233	-0.604681023	 0.12735
H	-0.7585471358	 1.7740618245	-0.869692058	 0.128093
H	-0.112448322	 2.0541609447	 0.7658010209	 0.121048
H	-2.1530579521	-0.1772526966	 0.5497072567	 0.08692
H	-1.4873266637	-2.8056207869	 0.7933323633	 0.110897
H	 0.9898879429	-4.0703215721	 1.230483641	 0.13117
H	 2.2843184247	-3.1095526003	 0.4907371695	 0.135166
H	 2.0024217119	-3.0103473214	 2.2256641491	 0.13584
H	 1.9049002227	-0.1681222829	 1.1666745438	 0.083823
91.8603	157.2341	172.7702	227.1963	245.2622	294.7527	341.1501	415.6737	484.9062	553.9801	579.4492	637.5571	708.1131	807.7008	814.5895	865.4039	881.9349	952.2943	957.4456	1009.3626	1028.1911	1059.7959	1096.0338	1104.8777	1147.3078	1159.524	1189.5901	1215.5702	1242.395	1287.7072	1322.991	1414.572	1450.8314	1477.9911	1486.5797	1495.2485	1501.6291	1658.3303	1897.2086	2972.0048	3021.1292	3069.5559	3075.1613	3111.8454	3112.1739	3143.9816	3151.8245	3238.5836
CN1C2C=C(C)C1C2=O	CN1[C@H]2C=C(C)[C@@H]1C2=O	
InChI=1S/C7H9NO/c1-4-3-5-7(9)6(4)8(5)2/h3,5-6H,1-2H3	InChI=1S/C7H9NO/c1-4-3-5-7(9)6(4)8(5)2/h3,5-6H,1-2H3/t5-,6+/m0/s1
