19
gdb 88787	2.75557	1.29838	1.05929	0.8403	75.75	-0.2573	-0.0348	0.2225	1194.727	0.157869	-423.006836	-422.998044	-422.9971	-423.040731	32.606	
C	 1.1773694772	 1.2285098771	-0.3703688659	-0.430672
C	 0.1731673784	 0.1528475793	-0.0124106197	 0.006486
C	 0.624618452	-1.2018283017	 0.4815197064	-0.311615
C	-0.0986150597	-0.2593072196	 1.416073372	-0.037738
C	 0.5589227863	 0.3987615719	 2.6061525822	-0.005966
O	 0.2490160393	-0.2803329607	 3.8580498573	-0.289869
C	 1.6271470126	-0.5085365612	 4.2027037039	-0.177243
C	 2.0537104433	 0.1618530763	 2.8967809207	 0.334337
O	 3.0868377884	 0.3880788494	 2.3425578833	-0.274671
H	 2.0568456022	 1.1959153643	 0.2787773885	 0.151858
H	 1.5210254606	 1.1030746663	-1.4029214642	 0.117203
H	 0.7334884824	 2.2276394401	-0.2911071659	 0.112484
H	-0.707789575	 0.1438300862	-0.6495478032	 0.086424
H	 0.1016845013	-2.0897418429	 0.1437634023	 0.111811
H	 1.6911917656	-1.3410593792	 0.6255224958	 0.12579
H	-1.1298437054	-0.5116119091	 1.6499702935	 0.104313
H	 0.283043311	 1.4619047518	 2.6729901973	 0.108703
H	 1.9407658072	 0.0162260448	 5.1147164858	 0.132257
H	 1.8801382124	-1.5728110832	 4.29142429	 0.136108
63.0189	105.4911	143.5981	171.098	246.6432	265.4924	351.8352	416.5443	442.2992	491.0729	590.6668	704.1115	758.206	784.8427	848.9495	888.8378	916.2577	937.3316	972.2311	1010.7634	1030.0504	1072.4345	1076.3287	1087.3744	1110.4724	1124.014	1144.6172	1152.8151	1204.556	1232.46	1269.1646	1304.1348	1325.6518	1375.9944	1413.0746	1430.3223	1481.0832	1494.6403	1507.5394	1511.2493	1911.5903	2994.0139	3015.2769	3028.8143	3060.2161	3085.7632	3113.5814	3132.8397	3134.5168	3144.5239	3217.922
CC1CC1C1OCC1=O	C[C@H]1C[C@H]1[C@H]1OCC1=O	
InChI=1S/C7H10O2/c1-4-2-5(4)7-6(8)3-9-7/h4-5,7H,2-3H2,1H3	InChI=1S/C7H10O2/c1-4-2-5(4)7-6(8)3-9-7/h4-5,7H,2-3H2,1H3/t4-,5+,7+/m0/s1
