18
gdb 128120	2.59844	1.22834	0.8648	2.333	76.07	-0.1928	0.0175	0.2104	1324.4235	0.149338	-435.266239	-435.25709	-435.256146	-435.300859	32.971	
C	-0.1632393184	 1.4417681138	-0.0928005816	-0.324534
N	-0.1005830879	-0.0064212646	 0.0237288021	-0.397979
C	 0.6022704772	-0.69401326	-0.9770800848	 0.130578
C	 0.8269741452	-2.0630964272	-1.0396091163	 0.234662
C	 0.4495984841	-3.1878466935	-0.1324317632	-0.181273
O	 0.0523535254	-4.3514559241	-0.8534945278	-0.415749
N	 1.5145217033	-2.2684343067	-2.1992265833	-0.232579
N	 1.7255717694	-1.1525004985	-2.9060434265	-0.232364
C	 1.1865324849	-0.1839825296	-2.1632261928	-0.07489
H	 0.8235661384	 1.9326620086	-0.1197930135	 0.110193
H	-0.6976827954	 1.7134787552	-1.0090396537	 0.134812
H	-0.7261515139	 1.8435300709	 0.7533779201	 0.121003
H	 0.1741490662	-0.2925087316	 0.9531662285	 0.232472
H	 1.2950942201	-3.5192367341	 0.4834986929	 0.123585
H	-0.3352145915	-2.8402242181	 0.5562972084	 0.10588
H	-0.7059915937	-4.1059946063	-1.3952491471	 0.287065
H	 1.792268022	-3.1614861435	-2.5705396755	 0.274069
H	 1.2254519146	 0.8380986591	-2.5073433759	 0.10505
56.1758	73.6183	148.7985	188.1869	208.9646	263.3672	317.1946	362.7866	381.2663	520.6593	548.8978	580.1678	641.2136	703.1069	736.8294	776.6024	851.353	951.5293	983.367	1041.4158	1077.7371	1124.8555	1151.8616	1161.7183	1187.3874	1217.1739	1270.8424	1296.1894	1372.052	1390.7862	1413.2454	1441.4862	1462.0336	1476.5638	1489.7524	1503.7335	1521.8106	1540.1924	1634.9461	2968.2712	2991.7104	3040.6527	3067.1619	3115.9527	3253.6917	3571.4294	3670.8834	3802.0956
CNC1=C(CO)NN=C1	CNc1c(CO)[nH]nc1	
InChI=1S/C5H9N3O/c1-6-4-2-7-8-5(4)3-9/h2,6,9H,3H2,1H3,(H,7,8)	InChI=1S/C5H9N3O/c1-6-4-2-7-8-5(4)3-9/h2,6,9H,3H2,1H3,(H,7,8)
