18
gdb 93606	2.83709	1.27041	0.93594	3.7219	82.32	-0.2504	-0.0428	0.2077	1247.6149	0.146828	-401.985323	-401.976132	-401.975188	-402.019517	32.957	
C	 0.1412931633	 1.5668587385	-0.1044701131	-0.397551
C	 0.0028884755	 0.0546277011	 0.0704609838	 0.064302
O	 0.5643604491	-0.6107067408	-1.0620974426	-0.276418
C	 1.4502420396	-1.6425540249	-0.6570986304	-0.171677
C	 1.5567725039	-1.4825068895	 0.8433316337	 0.081324
C	 2.4046667411	-2.2812250564	 1.6504413587	 0.201918
N	 3.1041585537	-2.9433908473	 2.2951684996	-0.342953
C	 0.7275279231	-0.518219174	 1.2670610815	 0.193295
C	 0.4812630114	-0.0558996187	 2.6621693854	-0.516315
H	 1.195669614	 1.8574785207	-0.1240897003	 0.125835
H	-0.3191294495	 1.8676208774	-1.0489362749	 0.137233
H	-0.3613317395	 2.1018041076	 0.7072895281	 0.118651
H	-1.0717021869	-0.1931010204	 0.1437652366	 0.090559
H	 1.0516473564	-2.6322450712	-0.9291861105	 0.119912
H	 2.4166300432	-1.5239287308	-1.1655520157	 0.125733
H	 1.0577531056	-0.63703784	 3.3848877887	 0.156409
H	 0.7470003108	 1.0014530772	 2.7769759955	 0.14707
H	-0.5827084947	-0.1416612785	 2.9150778559	 0.142672
68.1344	125.8142	137.2949	163.6749	214.5108	244.6539	265.0276	337.6696	392.1926	493.4028	532.7661	582.7089	617.2605	642.1959	771.7056	866.3206	905.5539	1010.3616	1038.7619	1051.2276	1079.1332	1095.1032	1119.6626	1123.8467	1198.1309	1203.846	1268.5568	1349.8989	1364.8937	1381.6632	1401.1792	1416.6376	1478.3942	1479.0863	1489.8506	1495.8835	1527.088	1710.1731	2334.7996	2935.5468	2984.1705	3025.1618	3028.4104	3042.5284	3078.6644	3118.1428	3127.6578	3130.8645
CC1OCC(C#N)=C1C	C[C@H]1OCC(=C1C)C#N	
InChI=1S/C7H9NO/c1-5-6(2)9-4-7(5)3-8/h6H,4H2,1-2H3	InChI=1S/C7H9NO/c1-5-6(2)9-4-7(5)3-8/h6H,4H2,1-2H3/t6-/m1/s1
