18
gdb 56753	2.88619	1.31985	1.09226	3.5073	76.09	-0.2917	0.0106	0.3023	1137.7526	0.1482	-401.905119	-401.896887	-401.895943	-401.938351	31.213	
O	-0.0478496	 1.4360995085	 0.0390526519	-0.40129
C	 0.0447932464	 0.0237358999	 0.0428125933	-0.170652
C	 0.6873224205	-0.4767806876	-1.1935744341	 0.259726
N	 1.2251213162	-0.855480041	-2.1437653556	-0.326582
C	 0.770220857	-0.5107589338	 1.2635531104	 0.354721
C	 0.3705773947	-0.2649941652	 2.7477606054	-0.265661
C	 1.6562322688	-1.1417013981	 2.7880461052	-0.046212
C	 1.0312826313	-1.9972398483	 1.646927465	-0.263833
C	 2.2454143461	-0.2176699143	 1.6826884864	-0.27011
H	 0.848623557	 1.7918681301	 0.0505065772	 0.296048
H	-0.9907475747	-0.3359669252	 0.0521536262	 0.140283
H	 0.4589204233	 0.7613506068	 3.1111728667	 0.100954
H	-0.5569474896	-0.7348148322	 3.0861703379	 0.09646
H	 2.1723242382	-1.5077249473	 3.6745522128	 0.083642
H	 0.1523153408	-2.5939582445	 1.9053275918	 0.097408
H	 1.7228090858	-2.5513628959	 1.007855467	 0.111564
H	 3.0272082782	-0.6424772011	 1.0482982777	 0.110816
H	 2.47809255	 0.8088659292	 1.981339015	 0.092718
58.5083	111.0963	176.4582	215.317	285.8775	347.6974	401.9737	464.3255	540.3151	553.9232	603.9954	715.2443	803.8599	812.4441	883.8843	907.6224	955.3399	962.3998	966.6189	988.182	1001.873	1068.9614	1095.1073	1100.7147	1136.0896	1147.798	1155.6559	1169.9489	1226.8963	1233.8908	1238.8862	1276.6676	1294.2853	1324.2005	1415.5992	1497.9999	1499.3782	1555.1517	2353.4704	3048.0182	3053.4092	3054.2689	3059.6659	3117.8504	3123.5572	3124.0834	3125.9391	3797.9471
OC(C#N)C12CC(C1)C2	O[C@@H](C#N)[C@@]12C[C@@H](C1)C2	
InChI=1S/C7H9NO/c8-4-6(9)7-1-5(2-7)3-7/h5-6,9H,1-3H2	InChI=1S/C7H9NO/c8-4-6(9)7-1-5(2-7)3-7/h5-6,9H,1-3H2/t5-,6-,7-/m0/s1
