19
gdb 73302	3.17087	1.54537	1.34911	1.7805	74.32	-0.2358	0.0644	0.3002	1015.3348	0.159018	-422.997423	-422.989548	-422.988604	-423.029054	32.019	
C	 0.0216596225	 1.4851501939	-0.0557058263	-0.47705
C	 0.0245411718	-0.0175714945	 0.0581504535	 0.407937
C	-1.3132736139	-0.7578803645	 0.4254569402	-0.285225
C	-0.4952834283	-1.6672224104	 1.3395072885	-0.14679
C	 0.7149721546	-0.7367022528	 1.247785545	-0.176366
C	 0.7892611353	-2.1000085538	 0.6449216169	 0.377338
O	 1.5805736306	-3.0578537854	 1.2709662	-0.474157
C	 0.8775519234	-1.9492533219	-0.8739044453	-0.158985
O	 0.5880650549	-0.576590106	-1.134064837	-0.29794
H	 1.0397198154	 1.8579252937	-0.2036184847	 0.126992
H	-0.5845134695	 1.7984535301	-0.9114906164	 0.127526
H	-0.3912662995	 1.9412105538	 0.8481150676	 0.117861
H	-1.9853770803	-0.112769902	 0.9988691654	 0.101669
H	-1.8624252037	-1.2000736408	-0.4126466316	 0.093782
H	-0.8462987549	-2.2110777212	 2.2092750359	 0.084463
H	 1.3866786864	-0.3488001933	 2.0014612706	 0.094475
H	 1.1223387908	-3.9036998505	 1.225589167	 0.287337
H	 1.893469627	-2.1809215143	-1.2146829511	 0.109406
H	 0.1737879475	-2.5999179702	-1.4138602882	 0.087725
198.4594	207.685	219.2922	269.8337	299.5984	344.1298	393.5429	417.8809	464.3931	567.7844	607.7794	658.5789	730.4753	814.8478	852.5404	859.495	899.5769	910.7757	955.9319	985.3693	988.6841	1007.7825	1054.291	1074.7696	1100.7409	1138.1466	1158.4774	1181.3951	1203.9894	1229.2156	1240.3952	1284.7531	1301.3399	1340.7713	1361.7986	1415.7439	1439.7554	1481.6452	1485.1727	1493.4414	1523.747	2989.6497	3037.5168	3041.8784	3052.6114	3093.7885	3111.8297	3121.155	3175.6166	3210.564	3802.3385
CC12CC3C1C3(O)CO2	C[C@]12C[C@@H]3[C@H]1[C@]3(O)CO2	
InChI=1S/C7H10O2/c1-6-2-4-5(6)7(4,8)3-9-6/h4-5,8H,2-3H2,1H3	InChI=1S/C7H10O2/c1-6-2-4-5(6)7(4,8)3-9-6/h4-5,8H,2-3H2,1H3/t4-,5-,6+,7+/m1/s1
