23
gdb 117705	2.20525	0.94865	0.79645	4.2017	83.61	-0.2668	0.0123	0.2791	1586.9786	0.202048	-425.466129	-425.454917	-425.453972	-425.502611	40.26	
C	-0.1858146788	 1.5313323945	-0.0763007431	-0.382439
C	-0.0239401032	 0.0115025716	 0.0223772576	-0.186925
C	 0.7511215029	-0.5647342101	-1.1683238864	-0.174228
C	 0.8460944031	-2.0996480991	-1.2333529189	 0.326537
C	 1.6066138085	-2.5155804898	-2.4981260001	-0.418036
C	 1.4871459791	-2.6899249243	 0.0293042062	-0.421353
O	-0.5536884494	-2.5229474643	-1.3425780319	-0.223905
C	-0.8752353327	-3.8221799287	-1.4007884346	 0.16612
O	-2.0083132428	-4.1979620131	-1.4958421873	-0.284827
H	 0.7866616414	 2.0357375172	-0.1106736762	 0.111329
H	-0.7355109697	 1.8125590026	-0.9812428267	 0.118516
H	-0.7352927674	 1.9273277238	 0.7830327626	 0.11496
H	 0.4891481363	-0.2345151793	 0.9596490703	 0.094728
H	-1.0087060355	-0.4644361589	 0.0698975901	 0.123672
H	 0.2786636143	-0.2269567824	-2.0988015193	 0.105686
H	 1.7736522145	-0.1661338393	-1.1747089054	 0.093798
H	 2.6209021968	-2.1057619972	-2.4750391653	 0.124978
H	 1.6919272357	-3.6023983289	-2.5869530094	 0.11863
H	 1.1014063616	-2.1344668784	-3.3898877439	 0.13339
H	 0.8570285331	-2.5209284978	 0.9051214471	 0.13873
H	 1.6614739428	-3.7652246444	-0.0653861855	 0.119791
H	 2.4568958655	-2.2148349252	 0.206660686	 0.12577
H	-0.010055426	-4.5063193683	-1.3532432056	 0.07508
74.6862	85.4184	98.6421	131.8797	174.8157	219.6013	232.9296	247.9704	253.0232	315.9947	347.7297	351.8716	376.8635	465.4601	548.0453	585.4518	747.7341	802.086	870.6282	893.3568	930.3077	943.1473	974.0257	1013.6245	1049.1541	1051.3755	1088.6618	1109.446	1175.1606	1210.7812	1218.9163	1260.9436	1295.8698	1329.4072	1344.0846	1399.7982	1401.2411	1413.5237	1418.0908	1436.2023	1470.3652	1483.0095	1490.8741	1494.7073	1500.4552	1502.8889	1508.9242	1511.3494	1849.4602	2981.1982	3021.9705	3029.35	3035.9599	3042.3473	3049.4193	3060.2522	3079.0036	3102.0856	3105.056	3110.3242	3116.5076	3122.3652	3133.0812
CCCC(C)(C)OC=O	CCCC(C)(C)OC=O	
InChI=1S/C7H14O2/c1-4-5-7(2,3)9-6-8/h6H,4-5H2,1-3H3	InChI=1S/C7H14O2/c1-4-5-7(2,3)9-6-8/h6H,4-5H2,1-3H3
