25
gdb 122973	5.79148	0.4907	0.46961	0.5171	87.74	-0.2466	0.0706	0.3172	2448.2693	0.225803	-426.628475	-426.616538	-426.615594	-426.666845	41.785	
C	-0.0982118652	 1.541022059	 0.0385765112	-0.38405
C	-0.022444621	 0.023340847	 0.0507768655	-0.026397
O	-1.3351030208	-0.4944839553	 0.0060753585	-0.245869
C	-1.3780925861	-1.9056073803	 0.015440282	-0.052192
C	-2.8361942523	-2.3445450495	-0.0231074758	-0.2215
C	-3.0048137978	-3.8671896553	 0.0043789461	 0.133063
O	-2.3816211999	-4.4409106097	 1.1562360997	-0.429877
C	-4.4750501775	-4.2905125805	-0.1064830762	-0.185965
C	-4.6632395592	-5.8082398283	-0.1570565637	-0.381388
H	 0.9057881673	 1.9747116381	 0.0709483402	 0.112798
H	-0.5996255065	 1.892176399	-0.8678569384	 0.124932
H	-0.661790449	 1.9038756969	 0.9029268777	 0.124474
H	 0.5608557824	-0.3410194374	-0.8125770804	 0.082783
H	 0.4968786661	-0.3314485232	 0.9577089339	 0.08324
H	-0.8353231883	-2.3126851217	-0.8561777285	 0.080308
H	-0.8854880886	-2.3071172055	 0.9141826115	 0.095398
H	-3.3639531375	-1.8997982352	 0.8320677702	 0.093125
H	-3.3077084211	-1.9378147244	-0.9253209146	 0.104526
H	-2.4503373833	-4.3022018358	-0.8386528424	 0.084924
H	-2.8398925799	-4.0976702234	 1.9322287647	 0.276047
H	-5.0228415413	-3.8722273845	 0.7510955543	 0.08491
H	-4.9100289655	-3.8246713875	-0.9994399486	 0.09735
H	-4.1959627497	-6.2323439877	-1.0527873509	 0.113748
H	-4.2005028798	-6.2828014734	 0.7121628407	 0.12687
H	-5.7237407554	-6.0765988615	-0.1749528866	 0.108741
43.0675	58.021	82.8962	109.5175	132.773	145.3385	201.1861	223.1398	249.535	264.3699	309.7825	314.0733	406.6745	460.2245	502.5348	556.5084	777.5548	800.8862	821.1542	866.6572	904.6288	953.7655	1006.1327	1028.4386	1039.3604	1072.4538	1099.6566	1112.3965	1136.6782	1161.4803	1174.6621	1184.903	1223.492	1263.7786	1280.1351	1295.1645	1298.9671	1344.7265	1359.2645	1387.5116	1393.4047	1406.8351	1408.3119	1422.4338	1451.5836	1476.9982	1483.7833	1489.0244	1495.8908	1499.5672	1509.6528	1518.8332	1539.6797	2943.0446	2954.6486	2972.5236	2999.7069	3001.3852	3012.6821	3025.9727	3037.1889	3044.1134	3050.8636	3072.9036	3101.5527	3118.4554	3120.1948	3122.3621	3788.9522
CCOCCC(O)CC	CCOCC[C@@H](O)CC	
InChI=1S/C7H16O2/c1-3-7(8)5-6-9-4-2/h7-8H,3-6H2,1-2H3	InChI=1S/C7H16O2/c1-3-7(8)5-6-9-4-2/h7-8H,3-6H2,1-2H3/t7-/m0/s1
