16
gdb 33882	3.39811	1.54095	1.32613	5.0759	72.45	-0.2669	0.0211	0.288	965.4658	0.12659	-400.708427	-400.701793	-400.700849	-400.739395	26.924	
N	 0.0814998783	-1.0742581267	 0.0476152295	-0.345988
C	 0.04099089	 0.0822661694	 0.0274649469	 0.220207
C	-0.0410941817	 1.5094158133	-0.0057871892	 0.191307
C	 0.3677718867	 2.2761673132	-1.2538439423	-0.347823
C	 1.1905211087	 2.4252790237	-0.0093152706	-0.08228
C	 0.7317683667	 3.3896901458	 1.1066452879	 0.063062
C	-0.73964253	 3.7400617449	 0.7938682325	-0.251953
C	-0.8359300272	 2.235324037	 1.118479551	 0.003387
O	 0.2173181706	 2.4490079281	 2.1151766436	-0.289022
H	 0.8060317061	 1.6675925281	-2.0384095724	 0.144185
H	-0.2577730791	 3.0779835165	-1.6238301662	 0.132249
H	 2.1905061178	 2.0133251896	 0.0339737512	 0.1276
H	 1.456605271	 4.1033506472	 1.4942150931	 0.0966
H	-1.1693874776	 4.3240335201	 1.6062163482	 0.129462
H	-1.042997679	 4.140621213	-0.1729394362	 0.106225
H	-1.7266038912	 1.7419732268	 1.5021778429	 0.102783
132.9512	159.1156	336.3238	409.762	479.1397	525.8317	535.8109	593.8332	633.0763	707.1363	766.4641	823.2424	850.8422	865.0531	900.1302	939.4962	942.6246	995.415	1008.6845	1025.4659	1040.4559	1093.9214	1095.2	1109.2934	1179.9309	1207.369	1224.8403	1254.5433	1285.5701	1295.8199	1297.4744	1375.8612	1475.8128	1518.2336	2349.0401	3097.1851	3141.7977	3144.8153	3151.4253	3162.4861	3204.1587	3231.0995
N#CC12CC1C1CC2O1	N#C[C@]12C[C@H]1[C@H]1C[C@@H]2O1	
InChI=1S/C7H7NO/c8-3-7-2-4(7)5-1-6(7)9-5/h4-6H,1-2H2	InChI=1S/C7H7NO/c8-3-7-2-4(7)5-1-6(7)9-5/h4-6H,1-2H2/t4-,5+,6-,7+/m0/s1
