17
gdb 24731	3.6616	1.54783	1.12977	3.4036	73.8	-0.2169	0.027	0.2439	1034.7716	0.140581	-418.044071	-418.037257	-418.036313	-418.075418	26.584	
C	-0.0174362968	 1.4016957947	 0.0396713538	-0.088828
C	 1.4168445616	 1.9344756059	-0.0063192587	-0.170606
N	 2.1150278561	 1.2751175626	-1.0989860118	-0.051214
C	 3.3039497869	 1.5996096647	-1.6868128422	-0.005443
N	 3.6845364381	 0.6947384978	-2.5593145059	-0.27392
C	 2.7054412823	-0.2718645481	-2.5283461641	-0.18889
C	 1.7252168571	 0.0606556197	-1.6280298976	 0.26861
C	 0.4151898742	-0.5363701844	-1.2083704577	-0.204735
O	-0.0232153353	-0.0118886787	 0.0400617631	-0.24092
H	-0.5076270328	 1.7247177569	 0.9614744418	 0.121777
H	-0.5925784551	 1.7915902999	-0.8160420367	 0.102975
H	 1.4233700643	 3.0181279097	-0.1608462629	 0.123774
H	 1.9207789765	 1.7169364684	 0.9426804645	 0.132409
H	 3.8379620099	 2.5035232384	-1.432157576	 0.124176
H	 2.7578404958	-1.1459238414	-3.1602076587	 0.106985
H	-0.3596856112	-0.3512637172	-1.9726321077	 0.10965
H	 0.4988061284	-1.618812539	-1.0793959732	 0.134198
105.1731	178.8511	267.7585	350.1441	372.1555	462.0739	526.4208	635.8947	675.0071	707.3669	749.1245	798.9975	834.643	879.3366	939.9092	969.8443	984.1284	1032.2171	1123.8538	1126.299	1141.4627	1210.1536	1226.8748	1247.6603	1264.5062	1288.093	1313.3424	1347.1993	1370.9165	1404.3027	1415.8474	1434.6822	1487.2737	1491.77	1502.0127	1525.1284	1591.0972	2949.0921	2978.1857	3034.4834	3085.8643	3088.3169	3102.069	3242.5232	3245.9855
C1CN2C=NC=C2CO1	C1Cn2cncc2CO1	
InChI=1S/C6H8N2O/c1-2-9-4-6-3-7-5-8(1)6/h3,5H,1-2,4H2	InChI=1S/C6H8N2O/c1-2-9-4-6-3-7-5-8(1)6/h3,5H,1-2,4H2
