20
gdb 75520	2.36923	1.68259	1.13657	1.4653	82.48	-0.235	0.016	0.251	1133.4744	0.171544	-403.153881	-403.145262	-403.144318	-403.187118	32.983	
C	-0.0105412185	 1.4704772261	-0.1280470025	-0.444316
C	 0.0044860922	-0.0319798176	-0.0517310038	 0.362954
N	-1.0607536553	-0.6976063769	 0.0265225442	-0.255611
C	-1.1479463555	-2.1419270016	 0.1067778679	-0.138304
C	 0.0751386871	-3.0287041715	-0.2407242866	-0.263635
C	 0.5943770797	-2.8278826068	-1.6432219567	-0.053182
C	 1.4001693603	-1.851536298	-2.0617440441	-0.049186
C	 1.9669416359	-0.742744705	-1.2196177333	-0.148683
O	 1.2880808739	-0.5632705648	 0.0221417418	-0.262895
H	 0.5105476414	 1.8908719225	 0.7387061678	 0.138226
H	 0.5193064604	 1.8243515757	-1.0196879639	 0.127919
H	-1.0367162022	 1.8352073051	-0.1548126843	 0.142259
H	-1.4754161366	-2.3872466578	 1.1265216293	 0.11358
H	-1.9846906488	-2.4297586379	-0.5429655223	 0.109839
H	 0.8643086269	-2.8638534236	 0.4935921662	 0.123729
H	-0.2568600522	-4.0680335194	-0.1315984339	 0.089995
H	 0.2502165142	-3.5445195871	-2.3862025765	 0.089815
H	 1.7018668233	-1.8226273176	-3.1071039523	 0.086817
H	 3.0099848362	-0.9489376931	-0.948519817	 0.126089
H	 1.9744545576	 0.1951745694	-1.7965227702	 0.104589
57.7665	157.0546	208.6888	240.1329	256.1634	280.9261	315.6249	400.1781	414.3367	494.7117	630.0338	655.8542	702.9811	738.1038	789.2341	831.1212	882.8283	922.2157	973.095	997.9253	1012.8951	1032.466	1056.419	1073.685	1097.3274	1132.363	1182.2989	1230.5719	1266.5952	1277.2201	1285.1934	1355.2923	1385.2407	1398.0776	1404.06	1424.1645	1469.4426	1476.1576	1477.5025	1488.8689	1491.8573	1725.9641	1783.5385	2984.5368	3012.4232	3037.0927	3039.4416	3040.9585	3044.1215	3092.9749	3116.5794	3135.8539	3158.4677	3160.5781
CC1=NCCC=CCO1	CC1=NCCC=CCO1	
InChI=1S/C7H11NO/c1-7-8-5-3-2-4-6-9-7/h2,4H,3,5-6H2,1H3/b4-2-,8-7-	InChI=1S/C7H11NO/c1-7-8-5-3-2-4-6-9-7/h2,4H,3,5-6H2,1H3/b4-2-,8-7-
