15
gdb 5558	3.18573	1.8217	1.22015	1.9543	64.61	-0.1894	0.0349	0.2243	948.3848	0.119541	-399.82287	-399.814917	-399.813973	-399.855482	29.076	
O	 0.14418749	 1.3239015571	 0.3807922322	-0.422768
C	-0.0265084118	 0.1238855242	-0.3818241538	-0.188109
C	-1.3566451134	-0.5073767466	-0.1682873476	 0.177897
C	-1.7207556727	-1.7980171106	 0.1587850356	 0.244292
O	-0.8188361029	-2.8087898928	 0.344931214	-0.451539
C	-3.1388918426	-1.8605031467	 0.2417752758	-0.281389
C	-3.6072707019	-0.5923461487	-0.0330978655	-0.073358
N	-2.5348409731	 0.2081707561	-0.2909319644	-0.281268
H	 0.0088058749	 1.0871736299	 1.3050180738	 0.278901
H	 0.1121249724	 0.4445483596	-1.422058934	 0.112407
H	 0.7525068931	-0.6189213206	-0.1641140412	 0.115656
H	-1.2993745123	-3.6028064909	 0.5942889062	 0.296244
H	-3.739152643	-2.7288639533	 0.4694558752	 0.088337
H	-4.6140363521	-0.2076267418	-0.0576898918	 0.118988
H	-2.5605377648	 1.2024466652	-0.4363234545	 0.265708
56.3888	142.1932	180.4733	240.1197	295.1384	366.3224	368.975	462.6593	512.6809	628.6069	652.4652	679.7802	706.3199	769.5045	785.7299	911.9997	964.0513	1016.1412	1079.9556	1092.3854	1154.4183	1192.953	1263.4533	1291.8437	1327.5697	1371.4691	1417.8373	1457.0884	1498.3453	1503.5787	1517.3738	1666.0471	3014.0632	3048.8108	3236.8331	3268.0809	3682.035	3800.7401	3848.1972
OCC1=C(O)C=CN1	OCc1c(O)cc[nH]1	
InChI=1S/C5H7NO2/c7-3-4-5(8)1-2-6-4/h1-2,6-8H,3H2	InChI=1S/C5H7NO2/c7-3-4-5(8)1-2-6-4/h1-2,6-8H,3H2
