19
gdb 70013	3.5026	1.38624	1.16273	1.3287	82.06	-0.2219	0.0144	0.2363	1096.9343	0.160194	-385.840747	-385.833132	-385.832188	-385.872413	30.953	
O	 0.0320431179	 1.4599905598	-0.0639550213	-0.454297
C	 0.0119987937	 0.0904842197	 0.1008581815	 0.287876
C	-0.2157513974	-0.8727722	-1.0501885399	-0.333578
C	-1.2069950871	-0.8536939939	 0.0869511679	-0.161929
C	-0.6592276394	-1.5491536796	 1.3599205508	-0.008148
C	-0.1229621952	-2.9670235085	 1.6102816073	-0.258607
C	 1.2201049855	-2.6629827341	 2.3616371282	-0.233794
C	 1.6623485409	-1.3169275513	 1.7767491794	-0.264721
C	 0.604990148	-0.7360613089	 1.2196352076	 0.250285
H	 0.7993787087	 1.6915940253	-0.5990184957	 0.287946
H	-0.5759971559	-0.3885611833	-1.9538519778	 0.113178
H	 0.4499515279	-1.7151693154	-1.2174383566	 0.110524
H	-2.2461818598	-0.6004411219	-0.0831611726	 0.093182
H	-1.2469972049	-1.1934195123	 2.2176802393	 0.084589
H	-0.7934607393	-3.6143636392	 2.1824479263	 0.09149
H	 0.1027397221	-3.4672507613	 0.6617017967	 0.100531
H	 1.0613223747	-2.6076186224	 3.4487086571	 0.104129
H	 1.97169875	-3.4439386197	 2.2010087201	 0.100912
H	 2.6898261697	-0.9724976031	 1.7975138315	 0.090432
150.8641	172.7555	236.0484	262.6063	305.069	385.6665	476.1026	497.1363	574.9842	616.2998	653.0056	773.6338	810.771	825.3046	856.2216	880.7906	894.3968	919.7673	945.6687	960.7758	988.5139	1011.8924	1054.9409	1071.0428	1079.8596	1101.2263	1156.3808	1170.5839	1195.1765	1224.8468	1247.2654	1269.7059	1299.7912	1308.462	1326.4325	1346.3157	1397.8071	1479.9171	1485.0132	1493.5902	1724.6554	3000.2536	3006.0118	3040.9277	3061.9185	3096.3699	3107.8905	3187.6716	3195.2986	3198.9843	3790.4376
OC12CC1C1CCC=C21	O[C@]12C[C@H]1[C@H]1CC[CH][C]21	
InChI=1S/C8H10O/c9-8-4-7(8)5-2-1-3-6(5)8/h3,5,7,9H,1-2,4H2	InChI=1S/C8H10O/c9-8-4-7(8)5-2-1-3-6(5)8/h3,5,7,9H,1-2,4H2/t5-,7-,8-/m0/s1
