17
gdb 43293	2.99098	1.79236	1.3729	3.3087	78.9	-0.2323	-0.0528	0.1795	947.8344	0.138274	-384.637919	-384.631456	-384.630511	-384.668554	26.881	
O	 0.0192952866	 0.0427473219	 0.3583143178	-0.323926
C	-0.0017684807	 1.2133635526	 0.0698804224	 0.262825
C	-1.2306420228	 2.0887211687	-0.0769056048	-0.150578
C	-0.949826428	 3.3029349867	-0.5872713271	-0.156682
C	 0.4999466315	 3.3543734139	-1.0039334864	-0.013824
C	 1.8030979928	 3.9568224975	-0.3603500843	-0.094621
C	 1.4080997854	 3.2767994994	 0.9629815574	-0.234129
C	 1.1114773155	 2.2124602388	-0.1689016075	 0.204533
C	 2.5025239888	 2.595521178	-0.7597248892	-0.312335
H	-2.2100364243	 1.7190180594	 0.2040674597	 0.118927
H	-1.6867186307	 4.0744499238	-0.7887354399	 0.11188
H	 0.5785146441	 3.2304422514	-2.091522463	 0.090312
H	 2.215226488	 4.9581319669	-0.4968296285	 0.078328
H	 2.2196856256	 3.0158231527	 1.6454744859	 0.102267
H	 0.542788439	 3.6740507219	 1.4942701443	 0.105651
H	 2.6469445151	 2.4050565321	-1.8255476475	 0.104726
H	 3.3852242539	 2.3250419643	-0.1767917793	 0.106647
143.004	257.7726	309.6692	363.3422	502.5732	527.7195	606.636	611.4923	682.9051	747.0301	758.8969	818.8882	847.5788	882.6922	907.5308	943.0175	978.9976	986.3704	1015.5118	1021.2047	1048.4211	1079.1534	1097.8309	1117.4908	1134.8808	1142.7386	1162.9056	1198.2359	1224.1026	1233.9278	1276.452	1339.2814	1356.6027	1496.0671	1532.7156	1598.9631	1823.3514	3021.2413	3064.5731	3072.0701	3096.5658	3134.8981	3144.4423	3174.099	3211.2219
O=C1C=CC2C3CC12C3	O=C1C=C[C@H]2[C@H]3C[C@@]12C3	
InChI=1S/C8H8O/c9-7-2-1-6-5-3-8(6,7)4-5/h1-2,5-6H,3-4H2	InChI=1S/C8H8O/c9-7-2-1-6-5-3-8(6,7)4-5/h1-2,5-6H,3-4H2/t5-,6-,8-/m0/s1
