15
gdb 133120	2.53524	1.59603	0.98559	1.2714	71.77	-0.2357	-0.0176	0.2182	1124.5567	0.113299	-461.953675	-461.946145	-461.945201	-461.985937	28.072	
C	 0.0797872787	 1.3780409105	 0.007180719	-0.249525
O	 0.002617189	-0.0383067224	 0.002792688	-0.25929
C	-1.2271755577	-0.6016568836	 0.0104179112	 0.206577
C	-2.4493739514	 0.0739537837	 0.022138632	-0.109216
N	-3.6397659359	-0.5378659013	 0.0292848036	-0.269885
C	-3.6565613738	-1.8676514712	 0.024939388	-0.000407
C	-2.5007478385	-2.6501548329	 0.0133667846	-0.251253
C	-1.2829405434	-2.0029822769	 0.0061286198	 0.239658
F	-0.1461646106	-2.6919391961	-0.0049835676	-0.057361
H	 1.1432135336	 1.6199544338	-0.0001010543	 0.14342
H	-0.3974289375	 1.8094342811	-0.8815062694	 0.132252
H	-0.3837630253	 1.8031485458	 0.9060696527	 0.132253
H	-2.4710489809	 1.1588500029	 0.0259485059	 0.112153
H	-4.633482417	-2.3432051918	 0.0308939073	 0.113282
H	-2.5377943193	-3.7329302916	 0.0100090991	 0.117342
94.2505	175.7582	217.6431	252.3317	316.5363	331.9428	469.7208	491.5278	550.1216	605.9081	609.86	761.7406	785.1902	852.6669	860.5769	920.166	967.3895	1053.0873	1079.4609	1177.6341	1200.2926	1220.1163	1257.4727	1305.3992	1320.6015	1340.439	1446.6146	1484.4216	1492.0314	1505.6286	1551.4399	1613.7854	1640.1131	3011.2557	3073.8554	3142.4255	3165.1754	3178.4235	3209.6823
COC1=CN=CC=C1F	COc1cnccc1F	
InChI=1S/C6H6FNO/c1-9-6-4-8-3-2-5(6)7/h2-4H,1H3	InChI=1S/C6H6FNO/c1-9-6-4-8-3-2-5(6)7/h2-4H,1H3
