21
gdb 92963	2.70975	1.29778	1.10042	2.7066	83.47	-0.2344	-0.009	0.2254	1211.1136	0.181525	-387.127101	-387.117701	-387.116757	-387.16157	34.974	
C	-0.4668297108	 1.4169489123	 0.0851950531	-0.393441
C	-0.1749135443	-0.0883417896	 0.1450586044	-0.005204
C	 0.4536301381	-0.5773448597	-1.1912088919	-0.261621
C	 1.9364786509	-0.5572990886	-0.9093154619	-0.084334
C	 2.1925423161	-0.4767804551	 0.3937275853	-0.044829
C	 0.9226449268	-0.4592809093	 1.211828332	-0.137813
C	 0.9560433188	 0.4625103458	 2.4260154928	 0.372289
C	-0.1136927741	 0.2270693552	 3.4795323633	-0.478559
O	 1.7967961235	 1.3235908485	 2.5531936872	-0.305656
H	 0.448711663	 1.9858817924	-0.1030468168	 0.139666
H	-1.1750342695	 1.6309087318	-0.7215117872	 0.110425
H	-0.9050651072	 1.7909992336	 1.0156801041	 0.114778
H	-1.1060200165	-0.6221203251	 0.3582910801	 0.06935
H	 0.1192057054	-1.5928073478	-1.4474698002	 0.102951
H	 0.1667340647	 0.0635817677	-2.0334259793	 0.101883
H	 2.6838800484	-0.6291400743	-1.691666841	 0.094284
H	 3.1721617202	-0.453003195	 0.854005585	 0.104716
H	 0.7045311485	-1.4723997335	 1.5868739926	 0.085178
H	 0.1034945601	-0.7060832906	 4.0137150918	 0.140946
H	-0.123281585	 1.0513813488	 4.1936797971	 0.140578
H	-1.1025335473	 0.1074553827	 3.0245306195	 0.134411
60.713	88.6599	129.3814	165.5687	201.9193	260.1141	327.9266	356.4987	386.7005	419.3667	566.109	597.6587	681.572	738.1222	769.0726	806.5008	860.7244	926.3833	932.1327	946.7042	971.0683	988.925	1005.9489	1028.0901	1071.3261	1098.2037	1108.0211	1135.5821	1186.2772	1214.348	1238.2508	1276.0225	1311.2474	1342.4216	1364.4624	1375.5037	1384.8984	1414.1458	1463.4144	1475.7531	1485.6531	1497.2946	1504.058	1686.5579	1805.3757	2969.4871	3004.0679	3033.8311	3037.0014	3048.8467	3056.2064	3094.4691	3102.266	3116.0201	3150.8235	3189.8445	3222.6676
CC1CC=CC1C(C)=O	C[C@H]1CC=C[C@H]1C(=O)C	
InChI=1S/C8H12O/c1-6-4-3-5-8(6)7(2)9/h3,5-6,8H,4H2,1-2H3	InChI=1S/C8H12O/c1-6-4-3-5-8(6)7(2)9/h3,5-6,8H,4H2,1-2H3/t6-,8+/m0/s1
