18
gdb 79655	2.72262	1.51858	1.18807	1.6627	83.69	-0.2152	0.0148	0.23	1092.7362	0.146073	-364.680173	-364.671829	-364.670885	-364.712731	32.847	
C	-0.0385236155	 1.6128341701	-0.0319285215	-0.442543
C	 0.0786891749	 0.0984414338	 0.104167046	-0.012345
N	 1.1675308534	-0.7867064926	-0.3559399324	-0.19566
C	 2.5431789332	-0.3321780121	 0.086036998	-0.001597
C	 2.7049449209	 0.9036371037	 0.9350579751	-0.309031
C	 2.1948552443	-0.3672322708	 1.5503014474	-0.115427
C	 0.7562995697	-0.754008224	 1.1296357879	 0.055
C	 0.0955833472	-1.8456106327	 1.7664643424	 0.262718
C	-0.4510867533	-2.7461650448	 2.3489732914	-0.400573
H	 0.6932719174	 2.0137234936	-0.737180893	 0.142883
H	-1.0313291879	 1.8549495234	-0.4204716411	 0.123295
H	 0.0734345687	 2.1338802029	 0.9219337706	 0.139665
H	-0.8461371257	-0.39364063	-0.1944582153	 0.11316
H	 3.3704901837	-0.7823091714	-0.4460269067	 0.107986
H	 3.7490907601	 1.0891938958	 1.1755913922	 0.118831
H	 2.1236766193	 1.8063376495	 0.8404629562	 0.118948
H	 2.6892937398	-0.8843486188	 2.3605886109	 0.102796
H	-0.9366485503	-3.5471012558	 2.8491460418	 0.191896
112.5818	132.5683	155.3192	246.4479	289.6705	392.2528	397.634	478.279	509.1932	555.5554	583.7252	639.2875	653.957	691.7817	733.1357	751.4532	840.2769	876.087	923.3231	946.3181	963.4198	1033.484	1054.9819	1067.4392	1076.3172	1106.2727	1108.0805	1144.2621	1183.1445	1211.5434	1290.0772	1318.4106	1352.4256	1407.3718	1448.3254	1483.3738	1502.4918	1511.8434	2226.9259	3048.7956	3103.1058	3122.5574	3126.0999	3138.3424	3198.6048	3214.6453	3265.3451	3502.2066
CC1N2C3CC3C12C#C	C[C@H]1N2[C@H]3C[C@H]3[C@@]12C#C	
InChI=1S/C8H9N/c1-3-8-5(2)9(8)7-4-6(7)8/h1,5-7H,4H2,2H3	InChI=1S/C8H9N/c1-3-8-5(2)9(8)7-4-6(7)8/h1,5-7H,4H2,2H3/t5-,6-,7+,8-,9?/m1/s1
