21
gdb 26257	2.51508	1.36576	1.01982	3.9818	84.83	-0.2106	0.0362	0.2467	1254.1435	0.183317	-383.318111	-383.308588	-383.307644	-383.352611	34.948	
C	 0.012830356	 1.5900457456	 0.0736637206	-0.387797
C	-0.0417687081	 0.0587119426	-0.0320295401	-0.090335
C	 0.8095118699	-0.5900713533	 1.0805184322	-0.381129
C	-1.4598113642	-0.4374557752	-0.0103633932	 0.284299
C	-2.6147997021	 0.0876005409	 0.5190798996	-0.174231
N	-3.6849403162	-0.7538586363	 0.3230119296	-0.275913
C	-3.188553549	-1.7812374063	-0.3220638551	-0.007399
N	-1.8474520517	-1.6545338011	-0.5535338608	-0.055247
C	-1.0247342377	-2.5990330808	-1.2800440162	-0.34716
H	 1.0471860981	 1.9409304491	 0.006597921	 0.110263
H	-0.5662821616	 2.0646724051	-0.7229592775	 0.122509
H	-0.3899239807	 1.931342135	 1.0331044369	 0.124405
H	 0.405366277	-0.2213039089	-0.99678881	 0.075017
H	 1.8502000791	-0.2541197929	 1.018598502	 0.111488
H	 0.4182303421	-0.3163868269	 2.0656535285	 0.125879
H	 0.8049400046	-1.6824119942	 1.0159067369	 0.111816
H	-2.7348610766	 1.0311419255	 1.0294591243	 0.102631
H	-3.7376657396	-2.6497958815	-0.6572703042	 0.119797
H	-0.5728270572	-2.1343620281	-2.1622798274	 0.143705
H	-0.2253500874	-3.0028929402	-0.6514587343	 0.142972
H	-1.6537724248	-3.427017888	-1.6123654927	 0.144431
55.4653	114.1581	148.5693	185.027	213.9481	228.6353	262.1891	294.0556	358.4942	418.2142	500.1478	607.1224	668.5602	699.5575	724.1411	800.7502	844.6599	886.6009	929.165	933.2119	965.9173	1074.6222	1093.863	1116.793	1148.7156	1150.6538	1152.7753	1211.5358	1261.1458	1297.0714	1333.8669	1349.8218	1380.2868	1397.2006	1418.7248	1428.9648	1458.0969	1482.0078	1484.1392	1492.3304	1500.9613	1509.9771	1512.6425	1532.4166	1590.1123	2994.8765	3030.9295	3038.1244	3039.2887	3097.2691	3100.599	3104.0235	3108.9198	3117.5387	3134.7703	3236.8469	3246.4627
CC(C)C1=CN=CN1C	CC(C)c1cncn1C	
InChI=1S/C7H12N2/c1-6(2)7-4-8-5-9(7)3/h4-6H,1-3H3	InChI=1S/C7H12N2/c1-6(2)7-4-8-5-9(7)3/h4-6H,1-3H3
