18
gdb 30171	4.35127	1.27289	1.03205	0.7341	78.47	-0.169	0.0625	0.2316	1157.8401	0.149869	-401.981697	-401.97391	-401.972966	-402.014128	30.401	
C	-0.5432047836	 1.4251737612	 0.0117088063	-0.395846
C	 0.1702335239	 0.0877776618	 0.0329365963	 0.12909
C	 1.0364402398	-0.2267735997	-1.241267809	-0.394852
C	 2.3060279195	-0.7231172704	-0.6072574719	 0.19488
C	 2.2014854081	-0.4937454706	 0.7293578872	 0.422965
N	 3.3391553715	-0.8486602685	 1.3757436579	-0.39108
C	 4.2242651058	-1.3309651196	 0.4075193637	-0.085953
C	 3.610696647	-1.2580696024	-0.8240579797	-0.320775
O	 1.0650833988	 0.060147955	 1.2056410842	-0.303095
H	 0.1739693218	 2.2396211578	-0.1291499103	 0.127341
H	-1.2630386744	 1.4523023601	-0.8128660265	 0.120175
H	-1.0839802402	 1.5958961035	 0.9467582772	 0.126264
H	-0.5482537492	-0.724538117	 0.1943781265	 0.091194
H	 0.5210490239	-0.9551205915	-1.8768144726	 0.108596
H	 1.1810024997	 0.6794393431	-1.8464370214	 0.103596
H	 3.5112647748	-0.7956526122	 2.3636623189	 0.264017
H	 5.197672419	-1.6922887707	 0.6941577553	 0.11293
H	 4.0574614936	-1.5631490499	-1.7581835823	 0.090554
52.2229	194.2682	241.0893	255.2775	311.4884	399.452	437.3625	466.021	590.4234	608.4947	615.4494	700.3905	721.5329	772.7955	808.2454	821.2876	890.2067	931.6829	942.9616	1049.6497	1061.9599	1073.6652	1105.0779	1129.6717	1177.116	1209.6074	1241.1023	1290.8244	1336.3628	1355.1809	1377.0256	1409.8888	1433.8023	1483.9843	1495.3445	1503.5194	1507.5284	1567.7036	1648.3521	2998.1384	3028.4027	3039.6173	3055.4411	3112.564	3119.9351	3243.3046	3277.0114	3692.4659
CC1CC2=C(NC=C2)O1	C[C@H]1Cc2c([nH]cc2)O1	
InChI=1S/C7H9NO/c1-5-4-6-2-3-8-7(6)9-5/h2-3,5,8H,4H2,1H3	InChI=1S/C7H9NO/c1-5-4-6-2-3-8-7(6)9-5/h2-3,5,8H,4H2,1H3/t5-/m0/s1
