17
gdb 67270	2.65109	2.23909	1.72659	0.6055	69.66	-0.2412	0.0727	0.3139	838.8273	0.138091	-421.762549	-421.756394	-421.75545	-421.792626	26.583	
O	-0.1364821285	 1.3781900647	 0.0882642611	-0.488101
C	-0.0715746759	 0.0053173528	-0.016696619	 0.410949
C	-1.3309129537	-0.8658946474	 0.2050711063	-0.101746
C	-1.1162591723	-1.6329221486	 1.5242343072	-0.255129
C	 0.1889457306	-2.1258216031	 0.8426827376	-0.048643
C	-0.4908671541	-1.939818562	-0.5711843173	-0.064084
C	 0.4625220577	-0.8645712065	-1.2007861189	-0.01924
O	 1.7562289887	-1.0265943254	-0.5934714841	-0.302227
C	 1.0622548766	-0.8695608423	 0.6715445614	-0.008126
H	 0.7398475829	 1.7381341149	-0.0939232975	 0.289861
H	-2.2894610364	-0.4737116726	-0.1297170728	 0.076134
H	-1.0254279387	-1.0599775206	 2.4536895621	 0.09781
H	-1.8437855501	-2.4375479777	 1.6613118244	 0.103743
H	 0.6934459875	-3.0451941003	 1.1383202459	 0.07269
H	-0.9098197049	-2.7878302992	-1.1051608278	 0.075003
H	 0.4696442057	-0.6480226546	-2.2684098239	 0.081331
H	 1.6978293449	-0.5279707121	 1.4889171052	 0.079776
245.8443	293.8078	352.6444	367.8016	474.123	539.6626	617.3389	704.3029	714.282	784.2901	829.487	846.8276	854.0625	888.2049	908.5123	941.3865	949.9516	980.2341	988.0109	997.0074	1029.5487	1042.5127	1091.1414	1099.2476	1108.7804	1153.4534	1181.6863	1205.3183	1218.2359	1239.1141	1249.1766	1266.3977	1285.8892	1310.6109	1354.3593	1408.5414	1497.9712	3040.3349	3100.2314	3114.9122	3123.7622	3129.5749	3135.7512	3161.4208	3789.2622
OC12C3CC4C3C1OC24	O[C@@]12[C@@H]3C[C@H]4[C@@H]3[C@@H]1O[C@@H]24	
InChI=1S/C7H8O2/c8-7-3-1-2-4(3)6(7)9-5(2)7/h2-6,8H,1H2	InChI=1S/C7H8O2/c8-7-3-1-2-4(3)6(7)9-5(2)7/h2-6,8H,1H2/t2-,3+,4-,5+,6-,7+/m0/s1
