21
gdb 110839	2.60796	1.21264	1.06048	1.9139	84.1	-0.2222	0.0191	0.2413	1256.9422	0.183023	-387.089282	-387.080336	-387.079392	-387.123009	34.303	
C	-0.011907225	 1.4866103074	-0.0235147295	-0.491338
C	-0.0005758697	-0.009090449	-0.0428860967	 0.324581
C	 0.08577021	-0.8122864545	-1.1106994869	-0.186247
C	 0.1339579512	-2.2552694293	-0.7416002956	-0.1048
C	 1.3238951069	-2.7353383421	 0.0913823056	-0.037315
C	 2.6471628403	-2.012873225	 0.1454505678	-0.083445
O	 3.4854287753	-2.357103607	-0.9517453661	-0.422356
C	 0.0619317128	-2.2756637952	 0.7804914955	-0.082822
C	-0.0751354854	-0.8223123573	 1.2398107164	-0.320194
H	 0.8529402781	 1.887776009	 0.5204296462	 0.127018
H	 0.004214316	 1.9033611847	-1.0342970926	 0.123442
H	-0.90386449	 1.8689689072	 0.4896679741	 0.123836
H	 0.1400268897	-0.4646077692	-2.1374961304	 0.083025
H	-0.3830451813	-2.9854524796	-1.3555543448	 0.084493
H	 1.446686815	-3.8162354225	 0.0806635038	 0.09011
H	 2.4999470601	-0.9262618489	 0.2021034348	 0.088097
H	 3.1990220453	-2.3160004618	 1.0422569945	 0.106183
H	 2.9934749682	-2.149116327	-1.7530912271	 0.279623
H	-0.5212547494	-3.0293014284	 1.2967994167	 0.084836
H	 0.7004169196	-0.5226769378	 1.9576088298	 0.108042
H	-1.0348128877	-0.6597371439	 1.7498661747	 0.105232
65.3832	124.3762	159.5687	189.5291	257.5575	313.3246	318.0461	353.5737	427.1835	505.7593	544.0085	619.5046	724.0967	768.7697	805.2187	852.3274	859.6615	908.6776	948.3717	950.7933	994.6808	1007.3425	1028.9485	1057.8625	1061.2299	1079.9455	1098.8706	1113.2236	1187.8713	1191.8474	1205.7842	1244.0208	1285.1764	1319.106	1348.1433	1355.0813	1373.9347	1412.6278	1414.9349	1446.4046	1476.5593	1479.401	1489.4809	1504.5973	1704.8151	3007.1251	3015.5171	3017.1784	3033.0985	3059.088	3065.5189	3109.1126	3132.0959	3156.9761	3173.6493	3181.8514	3809.0812
CC1=CC2C(CO)C2C1	CC1=C[C@H]2[C@@H](CO)[C@H]2C1	
InChI=1S/C8H12O/c1-5-2-6-7(3-5)8(6)4-9/h2,6-9H,3-4H2,1H3	InChI=1S/C8H12O/c1-5-2-6-7(3-5)8(6)4-9/h2,6-9H,3-4H2,1H3/t6-,7+,8-/m1/s1
