16
gdb 81106	2.51392	1.71503	1.26711	3.0086	70.28	-0.2411	-0.0393	0.2018	993.5006	0.124711	-437.839134	-437.831715	-437.830771	-437.871099	29.024	
O	 0.3036293553	 1.234851692	-0.3336211589	-0.435357
C	 0.0422946577	-0.1029437097	-0.1374553358	 0.183477
C	 0.1543394761	-0.6508974792	 1.3443085578	-0.116395
N	-1.1587552279	 0.0518534145	 1.5570569701	-0.37272
C	-1.4929838317	-0.5177299922	 0.2047348485	 0.15738
C	-2.6393069635	 0.0489854433	-0.5660765339	 0.046319
O	-3.245138977	-0.565932042	-1.408908271	-0.251393
C	-1.30927677	-2.0216547615	 0.3443169018	-0.134797
C	-0.2196471034	-2.1140299825	 1.1180663758	-0.103019
H	-0.1100408688	 1.6975074949	 0.4103875686	 0.292114
H	 0.5186714228	-0.6807015852	-0.9287802931	 0.110149
H	 0.9852089727	-0.3859292423	 1.9980824304	 0.080792
H	-1.7124749554	-0.3755072975	 2.3018704911	 0.213182
H	-2.8838507139	 1.1060642135	-0.3235672512	 0.082494
H	-1.9051070013	-2.7753569577	-0.1475960154	 0.13185
H	 0.3329565084	-2.9837844386	 1.4428536052	 0.115923
84.9438	181.2482	202.2694	289.6316	350.0503	473.7266	491.7034	536.626	596.9356	618.7821	698.2124	707.3562	741.6681	820.1319	852.2532	887.176	917.0471	938.0384	987.4391	1036.7147	1043.6966	1079.423	1095.9064	1162.668	1178.3131	1189.0988	1254.7287	1268.8032	1303.2023	1324.4993	1338.9056	1415.179	1434.6489	1602.1482	1816.1033	2897.8602	3122.8272	3139.0932	3232.8284	3262.11	3436.2328	3731.6087
OC1C2NC1(C=O)C=C2	O[C@H]1[C@H]2N[C@]1(C=O)C=C2	
InChI=1S/C6H7NO2/c8-3-6-2-1-4(7-6)5(6)9/h1-5,7,9H	InChI=1S/C6H7NO2/c8-3-6-2-1-4(7-6)5(6)9/h1-5,7,9H/t4-,5-,6-/m0/s1
