16
gdb 47757	2.03509	1.79338	1.31888	3.1988	71.94	-0.2658	0.0029	0.2688	1023.97	0.124263	-437.843476	-437.835224	-437.834279	-437.876921	30.425	
N	 0.2940114693	 0.9950280572	-1.1571670442	-0.520198
C	 0.090781282	 0.0651778935	-0.3286158117	 0.408109
O	 1.0317539696	-0.3878078307	 0.5422679102	-0.245203
C	 0.5826023896	-1.377087282	 1.4786326638	-0.127091
C	-0.1017298992	-2.5245855219	 0.7496517903	-0.061843
O	-1.0546956361	-2.0744528801	-0.211347629	-0.255444
C	-1.2478802313	-0.666346668	-0.2851526938	-0.151927
C	-2.1199230498	-0.1529564732	 0.7806159906	 0.343638
C	-2.8449754578	 0.2576392223	 1.6468284079	-0.47459
H	 1.2381347525	 1.371637239	-1.0472637637	 0.224606
H	 1.4749045894	-1.731690188	 1.9984132214	 0.128465
H	-0.0871879598	-0.9113785614	 2.2082243553	 0.138634
H	 0.6453136797	-3.1199239789	 0.2105364566	 0.119734
H	-0.5990174913	-3.1755272991	 1.4806065998	 0.114889
H	-1.727160294	-0.484015518	-1.2495452054	 0.15087
H	-3.4903025727	 0.6264548494	 2.4059463219	 0.207351
50.2208	104.9192	143.6107	223.2714	289.8652	367.7412	421.4091	442.622	531.9581	566.7569	638.9745	675.7226	677.0461	732.7925	836.7518	882.4795	902.7457	912.3389	977.9364	1008.3211	1055.3842	1123.3691	1150.5313	1157.5053	1259.0288	1279.8693	1283.2905	1332.3571	1347.0297	1411.2349	1424.2406	1507.5126	1514.5076	1765.2542	2230.7638	3017.356	3050.3286	3066.4494	3096.9755	3121.5393	3463.9548	3499.3105
N=C1OCCOC1C#C	[NH][C]1OCCO[C@H]1C#C	
InChI=1S/C6H7NO2/c1-2-5-6(7)9-4-3-8-5/h1,5,7H,3-4H2	InChI=1S/C6H7NO2/c1-2-5-6(7)9-4-3-8-5/h1,5,7H,3-4H2/t5-/m0/s1
