20
gdb 60237	2.99512	1.08633	0.83822	2.8891	77.4	-0.2324	0.0247	0.257	1397.272	0.169284	-440.303193	-440.293439	-440.292495	-440.338369	35.334	
C	 0.0565185108	 1.5500648933	-0.1287433137	-0.399543
C	-0.0132126214	 0.0300093054	 0.0139866536	 0.138499
C	-1.4444637708	-0.4939117528	 0.0287032903	-0.388209
O	 0.6437845827	-0.6357755486	-1.0751226305	-0.262168
C	 2.0283778032	-0.726317145	-0.993270735	-0.006734
C	 2.6517267686	-1.6874777878	-2.0471175637	-0.192706
N	 3.4801164878	-0.5621614573	-2.4869822737	-0.324083
C	 2.9170702781	 0.382244112	-1.6681429024	 0.405237
O	 3.0821473779	 1.5680103676	-1.5489583416	-0.361221
H	 1.0893385934	 1.8987285565	-0.1997614267	 0.157546
H	-0.469801745	 1.8668657809	-1.0353534075	 0.117688
H	-0.4214189947	 2.0307259978	 0.7315192074	 0.105445
H	 0.4902451575	-0.2693336322	 0.9483181186	 0.067772
H	-1.9484988582	-0.2430843973	-0.9099634933	 0.125099
H	-1.4584975686	-1.5807718024	 0.1464204935	 0.116544
H	-2.0078812717	-0.0448813552	 0.8518552574	 0.115182
H	 2.363812909	-0.9324579377	 0.0339929971	 0.092439
H	 3.2125344283	-2.539463322	-1.6518683336	 0.113784
H	 1.9177912353	-2.0238239914	-2.7847978822	 0.126526
H	 4.1705982678	-0.4818729939	-3.2181317141	 0.252902
46.2062	93.7912	121.127	186.0416	210.7918	218.8417	269.5433	312.595	350.8556	449.805	453.6397	503.2473	511.999	715.1527	756.677	824.2641	868.3961	918.7502	935.7177	943.4588	968.0161	996.8048	1081.7289	1146.5362	1155.5404	1166.6577	1175.965	1183.847	1206.3669	1221.8845	1295.3294	1347.3595	1365.843	1387.1672	1401.9214	1419.1523	1425.2124	1480.8554	1488.1755	1499.2716	1512.5752	1521.6013	1884.238	2963.9859	2998.3262	3035.0916	3042.8009	3049.5315	3103.4776	3103.6571	3116.4958	3121.1422	3132.8354	3616.8689
CC(C)OC1CNC1=O	CC(C)O[C@H]1CNC1=O	
InChI=1S/C6H11NO2/c1-4(2)9-5-3-7-6(5)8/h4-5H,3H2,1-2H3,(H,7,8)	InChI=1S/C6H11NO2/c1-4(2)9-5-3-7-6(5)8/h4-5H,3H2,1-2H3,(H,7,8)/t5-/m0/s1
