20
gdb 120391	3.00706	0.99836	0.79357	3.7265	77.44	-0.2254	-0.0158	0.2097	1447.0325	0.168342	-440.271935	-440.26199	-440.261046	-440.307291	35.612	
C	 0.0479871826	 1.591895602	-0.1126389608	-0.397342
C	 0.0803406478	 0.0796825339	 0.0351795942	-0.058485
N	 0.728866378	-0.6917429025	-1.057951049	-0.098217
C	-0.1390514522	-1.341415968	-2.02060832	-0.137154
C	 0.6330513881	-1.9723376739	-3.1699704752	-0.079014
O	 1.3696942724	-3.0756513981	-2.6600828743	-0.41129
C	 1.504219116	-1.5365575352	-0.1147571421	-0.279674
C	 1.1017072448	-0.5589680441	 0.9931901021	 0.376609
O	 1.4518756414	-0.3405158857	 2.1144026877	-0.294769
H	 1.044275704	 1.9751174558	-0.3484771798	 0.126587
H	-0.635102395	 1.8947888254	-0.912923898	 0.118222
H	-0.2941818439	 2.0525273456	 0.8192847452	 0.131863
H	-0.9270102319	-0.3055334456	 0.2802526873	 0.083895
H	-0.7730829917	-2.1207019083	-1.5533428188	 0.086729
H	-0.8104886909	-0.5827653084	-2.4399261779	 0.103881
H	-0.0793759624	-2.2964268093	-3.9451995804	 0.086162
H	 1.2981144323	-1.2147029848	-3.6087961412	 0.097687
H	 1.9607051524	-3.3913279282	-3.3492624552	 0.290146
H	 1.0811931405	-2.5398569288	 0.0480882424	 0.124579
H	 2.5686308479	-1.6430336818	-0.3407005363	 0.129586
61.3582	86.1001	119.2725	175.574	195.4606	199.1038	245.7824	263.3806	345.4359	394.2048	461.8491	500.3319	576.9291	635.8524	750.9651	794.5864	890.9952	906.025	949.7447	993.9655	1030.8107	1076.9193	1084.1303	1096.3585	1124.3429	1137.17	1147.5926	1206.3608	1229.1107	1254.6843	1272.3588	1300.3187	1325.2461	1353.2959	1400.2705	1401.9002	1458.5411	1465.3178	1482.3405	1486.6115	1496.0349	1510.9778	1914.2154	2913.4715	2933.2888	2974.8083	2996.7277	3021.9586	3038.3178	3057.4309	3087.7268	3107.5708	3123.4896	3836.7687
CC1N(CCO)CC1=O	C[C@H]1N(CCO)CC1=O	
InChI=1S/C6H11NO2/c1-5-6(9)4-7(5)2-3-8/h5,8H,2-4H2,1H3	InChI=1S/C6H11NO2/c1-5-6(9)4-7(5)2-3-8/h5,8H,2-4H2,1H3/t5-/m1/s1
