16
gdb 17415	4.26933	1.59386	1.53525	2.7398	64.86	-0.2462	0.0717	0.318	876.1046	0.129589	-383.669186	-383.662072	-383.661128	-383.700369	27.563	
O	-0.0500690823	 1.355511521	-0.1470290634	-0.419301
C	-0.0053965384	-0.0365129475	-0.0346085566	 0.042136
C	-0.4758130092	-0.6925670413	 1.24818413	-0.404996
C	-1.3267454758	-0.7221460484	 0.0048498989	 0.355847
C	-2.7309608472	-0.0911056447	-0.1613295015	-0.331148
C	-3.1275694435	-1.3645885093	-0.9351878989	 0.038047
O	-2.2390252467	-1.488811558	-2.0506629707	-0.243
C	-1.7854056949	-1.9461839961	-0.7678252199	-0.080213
H	 0.6749437149	 1.7201927006	 0.3713286937	 0.288445
H	 0.802631197	-0.5207285998	-0.5840299261	 0.088227
H	 0.0099190264	-1.6083642921	 1.5719616338	 0.112129
H	-0.7944424134	-0.034567137	 2.0507282547	 0.115293
H	-3.2609672141	 0.0201479714	 0.7883100471	 0.106533
H	-2.7838251335	 0.8384519907	-0.7311321739	 0.126592
H	-4.0986223451	-1.8385320745	-1.016479167	 0.104167
H	-1.4523929441	-2.975009805	-0.6895960502	 0.101243
114.8271	169.9611	224.3583	295.893	371.4296	429.627	472.2715	524.0688	597.3442	784.5831	821.5148	844.9494	859.8271	887.776	890.879	953.8261	969.9312	1002.8994	1020.8467	1042.9779	1073.0629	1092.5779	1149.5888	1169.4219	1194.6107	1220.1057	1230.5458	1260.4084	1301.3068	1341.0967	1381.7023	1428.0443	1472.1617	1496.5259	3066.8354	3094.5108	3118.6556	3128.1966	3177.7815	3194.135	3208.2336	3803.7947
OC1CC11CC2OC12	O[C@H]1C[C@]21C[C@H]1O[C@@H]21	
InChI=1S/C6H8O2/c7-4-2-6(4)1-3-5(6)8-3/h3-5,7H,1-2H2	InChI=1S/C6H8O2/c7-4-2-6(4)1-3-5(6)8-3/h3-5,7H,1-2H2/t3-,4+,5-,6+/m1/s1
