16
gdb 42691	2.91768	2.04874	1.79976	4.5945	70.18	-0.2469	-0.0097	0.2372	821.793	0.127993	-400.759522	-400.753688	-400.752744	-400.789578	24.671	
O	-0.0258876773	-0.0087710441	 0.0277218235	-0.322283
C	-0.0547340431	 1.1897681525	-0.0089814492	 0.412227
C	-1.2632450012	 2.0733191189	-0.0180809778	-0.17973
C	-1.2172700237	 3.1206332034	 1.0966600493	-0.072698
C	 0.0025190958	 3.0812533489	 2.0062828221	-0.252115
C	 1.1806467655	 3.035087888	 1.0466991817	-0.050456
C	 0.7229459807	 3.4033120219	-0.3175422331	-0.057639
C	-0.7989239947	 3.4849613206	-0.3018921851	-0.083489
N	 1.1364730309	 2.0099799864	-0.047077294	-0.168877
H	-2.2177383672	 1.6705888531	-0.3300372129	 0.112239
H	-2.1723239164	 3.4403946843	 1.4956855161	 0.103863
H	 0.0635569745	 3.9989383004	 2.6028083743	 0.115811
H	-0.0104900177	 2.2344434225	 2.7010714638	 0.128743
H	 2.1805937271	 3.2381356781	 1.4161671197	 0.108483
H	 1.3129201343	 3.9564926909	-1.0383003978	 0.103715
H	-1.3419650273	 4.1654993342	-0.9425564406	 0.102207
136.5477	372.2021	381.3875	481.0631	612.1218	627.6428	681.3835	698.8324	756.7657	802.941	814.1514	834.6457	848.6223	897.1958	917.1659	956.9085	962.5615	986.1449	997.5016	1045.2909	1058.6042	1090.146	1093.9925	1110.842	1149.084	1201.2405	1262.5511	1273.3711	1303.1097	1306.2147	1315.5589	1379.6601	1399.9245	1484.9423	1860.5782	3041.0889	3080.9445	3163.7818	3185.6089	3186.7874	3204.8736	3218.3139
O=C1C2C3CC4C(C23)N14	O=C1[C@H]2[C@H]3C[C@@H]4[C@H]([C@@H]23)N14	
InChI=1S/C7H7NO/c9-7-5-2-1-3-6(4(2)5)8(3)7/h2-6H,1H2	InChI=1S/C7H7NO/c9-7-5-2-1-3-6(4(2)5)8(3)7/h2-6H,1H2/t2-,3+,4+,5-,6+,8?/m0/s1
