16
gdb 44089	3.83367	1.45855	1.20268	3.2123	68.65	-0.2213	-0.0403	0.1811	1003.5055	0.124583	-437.823763	-437.8167	-437.815756	-437.855317	27.709	
O	 0.0615909664	 0.0385316288	 0.1575804874	-0.280969
C	 0.0099086187	 1.2277747415	 0.066764938	 0.398375
C	-1.1543951321	 2.2519157975	 0.0180988596	-0.458996
C	-0.1067289163	 3.3552107462	 0.1880048569	 0.330974
N	-0.1384987663	 4.7582829503	-0.166761597	-0.40465
C	 0.8559503777	 5.0793116922	 0.9064615117	-0.193632
C	 0.639095611	 3.6601700777	 1.5046536606	 0.052882
O	 1.6903626704	 2.7064857335	 1.2437042187	-0.298783
C	 1.0873124545	 2.3560492749	-0.0218726662	-0.067272
H	-1.6084592675	 2.2570486761	-0.9816281454	 0.139018
H	-1.9496184875	 2.1512558799	 0.7606325605	 0.136618
H	 0.1270029076	 4.9969343442	-1.1172446775	 0.221929
H	 1.8890118495	 5.2195618679	 0.569385392	 0.114976
H	 0.5540611643	 5.9284625767	 1.5269516513	 0.114242
H	 0.2262270066	 3.5771978149	 2.5108386889	 0.097923
H	 1.7926364129	 2.3247978177	-0.8573929297	 0.097364
92.2799	178.1442	252.9007	317.6291	403.2892	448.8701	478.9458	554.1576	638.0205	667.2059	764.5148	819.4995	835.8516	887.2221	900.576	935.2418	977.1883	1003.6907	1022.5575	1053.6288	1071.591	1107.2071	1112.3217	1157.2723	1172.672	1188.8006	1239.2927	1271.5124	1292.7685	1322.0198	1340.1044	1378.6946	1436.5421	1502.3163	1898.2743	3033.7457	3035.3675	3074.6932	3086.4824	3108.2788	3110.3253	3513.7837
O=C1CC23NCC2OC13	O=C1C[C@@]23NC[C@@H]2O[C@@H]13	
InChI=1S/C6H7NO2/c8-3-1-6-4(2-7-6)9-5(3)6/h4-5,7H,1-2H2	InChI=1S/C6H7NO2/c8-3-1-6-4(2-7-6)9-5(3)6/h4-5,7H,1-2H2/t4-,5-,6+/m0/s1
