18
gdb 73600	2.31151	1.65002	1.31562	5.3917	76.41	-0.2624	0.0301	0.2925	1046.0365	0.148482	-401.960396	-401.95217	-401.951225	-401.993032	30.995	
C	-0.0070679353	 1.4871797516	-0.0159580754	-0.489105
C	-0.0171373439	-0.0200239353	 0.0369321165	 0.289624
C	-1.3173497431	-0.7572823964	-0.2591195202	-0.139492
O	-1.1795079664	-2.0581202672	 0.2931907191	-0.244946
C	-0.2915808844	-1.9961663381	 1.402792545	-0.103287
C	 0.6487329445	-0.8445332522	 1.1064768314	-0.112856
C	 1.2567348392	-0.795787107	-0.2901398329	-0.240528
C	 1.2845745789	-1.932372424	-1.1701586312	 0.314729
N	 1.3554336393	-2.8259437363	-1.901691069	-0.353946
H	 0.9595795613	 1.8913051166	 0.2985236508	 0.125747
H	-0.2046295166	 1.8495614244	-1.0306772386	 0.135538
H	-0.7760418047	 1.9039729799	 0.6437978604	 0.128931
H	-2.1514079859	-0.2057849017	 0.206022765	 0.095765
H	-1.531299934	-0.875482507	-1.3261202488	 0.127884
H	-0.8302646882	-1.7954585389	 2.3429001089	 0.100672
H	 0.1983049844	-2.9713559978	 1.482607281	 0.129977
H	 1.2123272173	-0.3952812765	 1.9159518114	 0.104074
H	 2.1468991975	-0.1793994241	-0.3745140132	 0.131218
117.2505	139.4557	196.2165	211.2129	229.3448	307.5558	360.5006	387.1965	540.6179	559.2619	592.8178	713.1908	739.1745	849.2632	859.1781	935.1198	940.1987	975.8691	991.2496	1018.1539	1050.9639	1100.4562	1111.9694	1120.6012	1141.619	1216.0961	1232.8049	1252.5998	1292.0074	1338.7475	1360.0445	1373.0443	1421.0159	1455.6617	1488.6169	1499.1415	1507.455	1519.8943	2351.5734	2967.3298	2978.906	3031.316	3076.5407	3082.302	3094.2746	3107.5683	3156.5176	3184.3287
CC12COCC1C2C#N	C[C@]12COC[C@H]1[C@H]2C#N	
InChI=1S/C7H9NO/c1-7-4-9-3-6(7)5(7)2-8/h5-6H,3-4H2,1H3	InChI=1S/C7H9NO/c1-7-4-9-3-6(7)5(7)2-8/h5-6H,3-4H2,1H3/t5-,6+,7-/m1/s1
