19
gdb 72294	2.69622	2.33038	1.59018	1.2436	84.64	-0.1925	-0.0306	0.1619	890.3966	0.15958	-348.634802	-348.627959	-348.627015	-348.665256	29.594	
C	 0.0651724115	 1.47625104	-0.0225628761	-0.480218
C	-0.0742019846	-0.0352759606	-0.0568564697	 0.335856
C	-0.0031299857	-0.6911269115	-1.4892394129	-0.299534
C	-0.3295012726	-2.1405762297	-1.1356646965	-0.129089
C	-0.8767695918	-2.1162188109	 0.0955877971	 0.063919
C	-0.0851426797	-2.1605647504	 1.3848064764	-0.12832
C	-0.6941009934	-0.9045534683	 1.9225376375	-0.092892
C	 0.6154684439	-0.743381519	 1.1773493383	-0.109951
C	-1.3495848781	-0.7004788381	 0.5238201659	-0.128722
H	 1.0827126765	 1.7862787555	-0.2898973009	 0.11347
H	-0.6203829189	 1.9463064586	-0.7375158066	 0.111233
H	-0.1529146622	 1.8777415222	 0.9722112429	 0.118232
H	-0.6964081918	-0.1522881053	-2.153045964	 0.103087
H	 0.9814291232	-0.6505923596	-1.9725387021	 0.102962
H	 0.3019037648	-2.9505989086	-1.4884790999	 0.09113
H	 0.4486337208	-2.9504348348	 1.8995683262	 0.091886
H	-0.9895826599	-0.6153437919	 2.9207770207	 0.088745
H	 1.6013032747	-0.5524996838	 1.5875671774	 0.080602
H	-2.3584568067	-0.3452543238	 0.3196750962	 0.067606
238.0281	249.4727	278.4765	336.5117	366.8577	501.0014	530.0812	614.9996	658.611	707.8866	755.9948	773.6154	793.7714	815.6964	850.9462	866.285	881.9419	900.1891	920.2197	989.7606	992.5959	1021.8793	1030.8635	1035.0448	1051.89	1095.2726	1120.2249	1150.8834	1175.957	1185.7428	1204.8447	1232.4667	1243.0896	1286.2097	1298.303	1345.7424	1410.7488	1463.2947	1491.1289	1495.4115	1591.319	2987.3694	3020.1528	3046.3309	3079.0167	3097.5191	3125.7841	3163.9447	3170.7784	3186.2028	3217.3832
CC12CC=C3C4C(C14)C23	C[C@@]12C[CH][C]3[C@@H]4[C@@H]([C@H]14)[C@@H]23	
InChI=1S/C9H10/c1-9-3-2-4-5-6(7(4)9)8(5)9/h2,5-8H,3H2,1H3	InChI=1S/C9H10/c1-9-3-2-4-5-6(7(4)9)8(5)9/h2,5-8H,3H2,1H3/t5-,6-,7+,8-,9+/m1/s1
