18
gdb 39067	2.59959	1.98263	1.32667	2.0267	76.79	-0.2331	0.0089	0.2421	974.6396	0.149442	-401.901976	-401.89487	-401.893926	-401.933513	28.383	
C	-0.0882484494	 1.4667627725	 0.1752512099	-0.327161
N	 1.1894684404	 0.7698981321	-0.0178720876	-0.125021
C	 2.0897642146	 0.5998862813	 1.1325707609	-0.2191
C	 1.9090382356	-0.6759316037	 1.9155137199	-0.044013
C	 0.8427432577	-1.4701476743	 1.838228942	-0.09564
C	-0.3304272641	-1.0996598371	 0.9947372064	 0.037234
O	-0.6245136455	-2.0215237585	-0.0959600182	-0.305728
C	-0.4606373774	-0.982398019	-1.0915318219	-0.145849
C	-0.0416758541	 0.0053943661	-0.0105168644	 0.263216
H	-0.3341957485	 1.8332246726	 1.1727437299	 0.11012
H	-0.3836491621	 2.1278929686	-0.6358860387	 0.118557
H	 3.1185782587	 0.6237821609	 0.7501682601	 0.122912
H	 2.0065396809	 1.4656005759	 1.8065462521	 0.115326
H	 2.7391608047	-0.9390483643	 2.5669627988	 0.096358
H	 0.7845463535	-2.3934274165	 2.4074434197	 0.101067
H	-1.2297106248	-0.9504209838	 1.6099991602	 0.08242
H	 0.3133478613	-1.2240042568	-1.8287494568	 0.113725
H	-1.4048072014	-0.756964026	-1.6039216223	 0.101577
84.911	191.426	250.8768	349.9306	406.1917	449.3383	475.9279	527.9187	583.3688	718.5115	726.6847	820.3858	864.5199	899.5671	930.3915	936.4553	981.089	986.6408	997.6161	1014.5502	1044.4652	1086.5004	1090.083	1120.0679	1147.5684	1150.8175	1202.2236	1216.774	1257.8922	1282.0663	1322.1362	1348.1912	1367.9537	1409.6758	1450.6654	1481.9731	1514.3609	1519.8997	1715.5827	2991.5676	2995.4591	3014.3966	3028.49	3067.7358	3078.067	3151.3496	3167.6429	3177.4522
C1N2CC=CC3OCC123	C1N2CC=C[C@@H]3OC[C@]123	
InChI=1S/C7H9NO/c1-2-6-7(5-9-6)4-8(7)3-1/h1-2,6H,3-5H2	InChI=1S/C7H9NO/c1-2-6-7(5-9-6)4-8(7)3-1/h1-2,6H,3-5H2/t6-,7-,8?/m0/s1
