21
gdb 81163	2.37627	1.59214	1.22108	2.8179	82.73	-0.2432	-0.0217	0.2215	1112.7382	0.183479	-387.096393	-387.087986	-387.087042	-387.129431	32.721	
C	-0.2112525314	 1.5220606995	-0.0366900757	-0.437285
C	-0.0125038355	 0.0122483852	-0.0028515598	 0.002531
C	 1.1317604969	-0.5888969016	-0.8813840806	-0.024018
C	 2.1138803182	-0.244007882	 0.2756024673	-0.279619
C	 0.8854458755	-0.5916207751	 1.1548916428	 0.270258
C	 0.7086341016	-2.1068960686	 0.8838936879	-0.275656
C	 0.9177099983	-2.0999168316	-0.6704953753	-0.220914
C	 0.7239043994	-0.1152640162	 2.555952282	 0.042069
O	 1.5126925029	 0.5831013314	 3.146010085	-0.256521
H	 0.7191190194	 2.0799354249	 0.0941636729	 0.130498
H	-0.6450911889	 1.8207541228	-0.9972993016	 0.118732
H	-0.9020751786	 1.845790359	 0.748951337	 0.121745
H	-0.9836257201	-0.4841914626	-0.1166053216	 0.064502
H	 1.298181822	-0.2390418645	-1.9012974635	 0.061075
H	 3.0039729331	-0.8688086879	 0.3894017069	 0.094367
H	 2.395067681	 0.8061422605	 0.3312402842	 0.115822
H	 1.4588610417	-2.7046703397	 1.4085939283	 0.108195
H	-0.2803064989	-2.4701227838	 1.1789746093	 0.101777
H	 0.0470435742	-2.4796517092	-1.2125036579	 0.098676
H	 1.7869731585	-2.6902082077	-0.972846547	 0.101209
H	-0.2245107693	-0.4416259728	 3.0472894193	 0.062559
59.2439	169.8217	197.961	212.6141	278.2065	297.319	340.134	453.0518	462.2524	530.4151	650.8127	708.8548	784.2417	825.0316	844.9614	858.9918	895.5907	926.0455	957.7749	976.7474	1002.927	1025.0591	1051.7525	1071.4119	1097.1054	1122.9473	1154.5509	1171.4755	1198.9182	1205.7085	1240.473	1245.0811	1267.3511	1280.8205	1312.2086	1336.5663	1388.7848	1419.0557	1427.6899	1492.7864	1493.9377	1496.3369	1509.2298	1527.2441	1813.984	2838.6897	3028.2082	3037.5712	3050.301	3059.5066	3070.7979	3089.4374	3093.8425	3104.1746	3108.1859	3120.0639	3153.7838
CC1C2CC1(CC2)C=O	C[C@H]1[C@H]2C[C@@]1(CC2)C=O	
InChI=1S/C8H12O/c1-6-7-2-3-8(6,4-7)5-9/h5-7H,2-4H2,1H3	InChI=1S/C8H12O/c1-6-7-2-3-8(6,4-7)5-9/h5-7H,2-4H2,1H3/t6-,7+,8-/m0/s1
