18
gdb 96038	3.17358	1.06794	0.8784	5.2353	71.86	-0.2579	0.0357	0.2936	1297.7997	0.147877	-439.098574	-439.089554	-439.08861	-439.133378	32.061	
O	-0.1452502715	 1.4975239647	 0.3932734084	-0.434735
C	-0.0095766677	 0.1178637389	 0.0763161249	 0.054507
C	 0.676554081	-0.6835807032	 1.1961416304	-0.083427
O	-0.3442470346	-1.1793077793	 2.056815225	-0.260756
C	-1.6159710098	-0.7511565411	 1.5841492625	-0.072668
C	-1.4203409985	-0.4932565967	 0.0833287515	-0.012464
C	-2.4870545924	 0.391613683	-0.5798162854	-0.363784
C	-3.8162413886	-0.2150384879	-0.5349439553	 0.259785
N	-4.8603148631	-0.7086725385	-0.4923622594	-0.311171
H	 0.7320142865	 1.8702864969	 0.5222084194	 0.291625
H	 0.4995206667	-0.0106176804	-0.8888587484	 0.074803
H	 1.2465057737	-1.5301162913	 0.7894452611	 0.103687
H	 1.3718101433	-0.0456282499	 1.7597205416	 0.093557
H	-2.3458774867	-1.5358996992	 1.7984361461	 0.127304
H	-1.9323687447	 0.1720756869	 2.0927658346	 0.104709
H	-1.3742454005	-1.4571857701	-0.4348218366	 0.103458
H	-2.5179058429	 1.3664166226	-0.0854783844	 0.173824
H	-2.2265919003	 0.5779647345	-1.627708896	 0.151745
59.2612	61.9721	113.4406	153.9817	250.3674	254.2225	326.6989	383.3065	394.7595	475.6491	549.3943	673.4345	765.1505	849.6896	863.3286	903.9513	939.4084	950.0522	1006.5021	1021.8059	1084.4891	1088.0321	1131.9322	1138.0852	1190.718	1211.4424	1229.1795	1269.9588	1290.9019	1333.617	1337.4724	1370.0116	1374.3331	1395.8802	1432.0927	1466.9681	1506.0103	1520.9401	2361.6105	2991.177	2997.5887	3010.5981	3034.5489	3055.0227	3057.1946	3097.3248	3107.7573	3829.1018
OC1COCC1CC#N	O[C@H]1COC[C@H]1CC#N	
InChI=1S/C6H9NO2/c7-2-1-5-3-9-4-6(5)8/h5-6,8H,1,3-4H2	InChI=1S/C6H9NO2/c7-2-1-5-3-9-4-6(5)8/h5-6,8H,1,3-4H2/t5-,6+/m1/s1
