21
gdb 40961	3.27709	1.29658	1.16565	1.7406	77.75	-0.2559	0.0799	0.3357	1144.7291	0.184927	-424.21696	-424.209089	-424.208145	-424.249337	31.152	
C	 0.1086229651	 1.3683138718	-0.5572172188	-0.209841
C	 1.4176078946	 1.6211828318	 0.2425592972	-0.288603
C	 1.3227068864	 0.1774719337	 0.8121345397	 0.334976
C	-0.1483818777	 0.1010732452	 0.3038437749	-0.252385
C	 2.243829115	-0.8151282918	 0.0984416795	-0.143953
O	 2.0256246006	-2.1345786663	 0.5815252241	-0.239256
C	 2.227878654	-2.198408805	 1.9688897378	 0.021296
O	 1.361980298	-1.3614336904	 2.6872894456	-0.238285
C	 1.5406046212	 0.000159707	 2.3114332207	-0.162719
H	-0.6488865531	 2.1540114471	-0.520655577	 0.100143
H	 0.3012621537	 1.1325704437	-1.6070750158	 0.104697
H	 2.3180798887	 1.8655610941	-0.3294541201	 0.096335
H	 1.2944774203	 2.3791746473	 1.0228961259	 0.099186
H	-0.8691569008	 0.2774902264	 1.1072871775	 0.099275
H	-0.433072577	-0.8164060182	-0.2156407539	 0.110201
H	 2.0575018948	-0.8420990743	-0.9792779007	 0.107694
H	 3.2978386308	-0.5246992412	 0.2565560414	 0.084285
H	 2.015326853	-3.2235863821	 2.2781781277	 0.117086
H	 3.279041149	-1.9359686813	 2.2027412471	 0.071696
H	 2.5560105117	 0.3380939286	 2.5875307516	 0.083637
H	 0.8193920319	 0.5812213336	 2.8938147855	 0.104535
101.6943	126.9201	201.1315	274.2433	316.6181	387.0478	424.541	453.9387	489.6713	618.3543	689.1159	759.9057	791.9322	863.2197	913.134	939.6392	949.0924	952.3293	958.1749	990.1855	999.3886	1056.869	1071.0355	1099.8016	1118.0783	1192.2024	1205.0448	1209.9102	1228.2883	1239.1315	1256.2913	1272.6284	1284.1526	1323.1107	1336.6185	1340.7414	1370.0666	1410.6185	1443.0279	1476.7952	1483.7383	1491.1358	1493.5992	1505.8313	1513.69	2904.9108	2941.6352	2953.6872	3040.9773	3058.721	3063.7639	3077.9921	3081.2134	3086.626	3106.265	3113.489	3121.512
C1CC2(C1)COCOC2	C1CC2(C1)COCOC2	
InChI=1S/C7H12O2/c1-2-7(3-1)4-8-6-9-5-7/h1-6H2	InChI=1S/C7H12O2/c1-2-7(3-1)4-8-6-9-5-7/h1-6H2
