16
gdb 16678	2.93139	2.26294	1.8258	3.06	63.6	-0.2311	-0.0194	0.2118	794.1263	0.13096	-383.73368	-383.7269	-383.725956	-383.764516	26.332	
C	-0.1696563136	 1.6313033971	 0.0425178469	-0.440993
C	 0.0267750506	 0.1250793998	-0.0061619036	 0.020211
C	 0.8953347886	-0.5954667618	-1.0779265872	 0.056614
C	 2.2755311897	 0.0814388064	-1.0205760529	-0.344837
C	 2.3788443528	 0.0916385583	 0.5230707645	 0.444096
O	 3.2354184754	 0.5328208081	 1.2358871858	-0.324179
C	 1.0628802146	-0.6208192689	 0.8826379174	-0.054213
O	 1.0845870644	-1.6897697025	-0.1178162706	-0.298941
H	 0.7732113808	 2.1844452396	 0.0052854745	 0.132423
H	-0.7894510224	 1.9661228293	-0.7957631067	 0.127024
H	-0.6817117489	 1.9193290249	 0.9662074358	 0.132177
H	-0.924813908	-0.4063806475	 0.0763127956	 0.098948
H	 0.5019827791	-0.9137248648	-2.0427728375	 0.089399
H	 3.0515464236	-0.5419020274	-1.4709465843	 0.139327
H	 2.3366607816	 1.0876040175	-1.4434972565	 0.125802
H	 0.8957538015	-0.937339878	 1.9101321388	 0.097141
118.9096	183.4675	257.3238	293.1662	433.1718	450.8144	555.8058	628.1464	649.0215	725.7946	780.5978	820.2402	857.709	902.3618	930.3553	962.2948	972.2519	1044.171	1070.6653	1116.8092	1123.9286	1166.4302	1172.3733	1202.5905	1231.2124	1285.2819	1289.2489	1319.9789	1379.0846	1418.8849	1451.0164	1495.9335	1500.5313	1881.7619	3039.1416	3072.4499	3080.4414	3103.5706	3114.3313	3123.6004	3127.0696	3153.0742
CC1C2CC(=O)C1O2	C[C@H]1[C@H]2CC(=O)[C@@H]1O2	
InChI=1S/C6H8O2/c1-3-5-2-4(7)6(3)8-5/h3,5-6H,2H2,1H3	InChI=1S/C6H8O2/c1-3-5-2-4(7)6(3)8-5/h3,5-6H,2H2,1H3/t3-,5+,6+/m0/s1
