17
gdb 91249	2.63522	1.63707	1.48053	5.0059	66.98	-0.2637	0.0173	0.2811	957.6154	0.137365	-459.00369	-458.99621	-458.995266	-459.035614	28.989	
O	-0.6372484976	 1.382159482	 0.3315511675	-0.42151
C	-0.0827274671	 0.1046863989	 0.0472439201	 0.110798
C	 0.6813655563	-0.4953014981	 1.2495568139	-0.271477
C	-0.3921688603	-1.0998071562	 2.1491319748	 0.128898
O	-1.1094628602	-0.0961328153	 2.9460622448	-0.265909
C	-2.2537258471	-0.2435400194	 2.1941193478	 0.470015
O	-3.2967303732	 0.3017395554	 2.3467958187	-0.325946
C	-1.6474603801	-1.3068525109	 1.2681827987	-0.227932
C	-1.2741082025	-0.8490848745	-0.1515279654	-0.22732
H	 0.0270405862	 1.9211498637	 0.7717891529	 0.287201
H	 0.5533687235	 0.1555449186	-0.8477433891	 0.071698
H	 1.3440617819	-1.2959914349	 0.8998003889	 0.111235
H	 1.3030615087	 0.2383491431	 1.773081108	 0.112385
H	-0.0540652788	-1.9108160503	 2.7950435111	 0.095519
H	-2.1627246926	-2.2665324986	 1.312611173	 0.107439
H	-2.0946798491	-0.3470048761	-0.6683582151	 0.13853
H	-0.9702347178	-1.7148371272	-0.748988981	 0.106374
107.644	153.5766	215.8913	265.0914	349.8868	391.0954	410.0237	488.7251	609.233	689.4431	777.2223	789.1338	814.7803	850.6107	868.697	903.7499	958.8853	975.3397	983.055	1026.1909	1055.3279	1091.7618	1107.8692	1152.4074	1189.5639	1200.8537	1253.5586	1269.7867	1288.5927	1312.0795	1344.7269	1362.2125	1382.0673	1410.9417	1461.2689	1478.0474	1943.8408	2998.023	3041.3571	3058.4919	3088.6952	3107.3077	3120.2613	3121.7406	3827.4086
OC1CC2OC(=O)C2C1	O[C@H]1C[C@H]2OC(=O)[C@H]2C1	
InChI=1S/C6H8O3/c7-3-1-4-5(2-3)9-6(4)8/h3-5,7H,1-2H2	InChI=1S/C6H8O3/c7-3-1-4-5(2-3)9-6(4)8/h3-5,7H,1-2H2/t3-,4+,5-/m1/s1
