19
gdb 52118	3.6209	1.01939	0.88843	2.5344	76.62	-0.247	0.0304	0.2774	1326.9476	0.160477	-419.192235	-419.183538	-419.182594	-419.227126	31.825	
O	 0.1735715222	 1.020728552	-1.150566699	-0.328656
C	 0.1952271247	 1.4373664269	-0.010581644	 0.157713
N	 1.2728975925	 1.401591214	 0.8162324954	-0.266537
C	 2.5777227699	 0.9121285528	 0.3854659676	-0.274977
C	 3.4975167809	 2.0206311396	-0.0387791301	 0.353822
C	 3.4111463929	 2.8304420194	-1.3448899709	-0.28861
C	 4.9745567534	 2.9225433044	-1.3515881764	-0.238247
C	 4.9979740726	 2.1214964713	-0.0416072694	-0.089399
N	 4.2029347759	 2.7765816014	 0.9962344134	-0.367206
H	-0.6890904507	 1.8852928859	 0.4853887967	 0.074437
H	 1.2097894551	 1.864470531	 1.7092309085	 0.253713
H	 3.0362589848	 0.3538617785	 1.2072411386	 0.116406
H	 2.3937242972	 0.22890348	-0.4470886804	 0.143194
H	 3.018294646	 2.2501620076	-2.1819876214	 0.128869
H	 2.8512852017	 3.7690992114	-1.2809438489	 0.09688
H	 5.4162611022	 2.3858003201	-2.1942516847	 0.112418
H	 5.4212357028	 3.9212617197	-1.3010299993	 0.098864
H	 5.7518776878	 1.4084355365	 0.2735919625	 0.094813
H	 4.1440838981	 3.7847881076	 0.8591761619	 0.222501
30.3543	52.8817	134.5131	223.5598	234.3179	305.5291	356.6327	423.5936	479.184	539.6442	713.218	740.3023	758.4273	781.0785	847.9211	918.5127	930.6595	952.1775	958.8708	995.3904	1032.1005	1041.5911	1065.9959	1109.1678	1134.5735	1191.3746	1196.5312	1212.4426	1228.3883	1245.965	1271.719	1286.7473	1335.1451	1374.9368	1427.7521	1443.338	1458.9124	1479.9948	1500.7334	1527.6937	1800.5893	2932.9486	3044.5214	3054.4381	3059.1198	3103.6503	3119.8224	3123.4061	3173.4831	3452.3805	3635.1881
O=CNCC12CCC1N2	O=CNC[C@]12CC[C@H]1N2	
InChI=1S/C6H10N2O/c9-4-7-3-6-2-1-5(6)8-6/h4-5,8H,1-3H2,(H,7,9)	InChI=1S/C6H10N2O/c9-4-7-3-6-2-1-5(6)8-6/h4-5,8H,1-3H2,(H,7,9)/t5-,6-/m1/s1
