14
gdb 32180	2.98585	1.39817	0.95789	0.7658	65.52	-0.2711	-0.0552	0.2158	1132.4705	0.102823	-470.067354	-470.059762	-470.058817	-470.100122	27.471	
O	 0.3152184304	 0.8284150627	-0.8882801755	-0.423566
C	-0.087891079	 0.1904784122	 0.2915800544	-0.116505
C	-1.4472417619	-0.455980419	 0.1922853292	 0.338294
N	-1.9229240746	-1.0923008936	 1.2669953018	-0.288856
C	-3.1270956833	-1.6323763783	 1.0902195764	 0.076978
N	-3.8642019664	-1.5930125544	-0.0188021532	-0.284931
C	-3.2850578462	-0.9332012453	-1.0164556214	 0.472739
O	-3.9706466193	-0.8575244806	-2.1532829833	-0.373736
N	-2.0834802754	-0.3452573695	-0.9730858012	-0.403166
H	-0.4034278855	 0.7026864261	-1.5234246132	 0.289743
H	 0.6296724852	-0.5923824097	 0.5818486619	 0.130605
H	-0.1205542346	 0.9000311091	 1.1327390089	 0.130547
H	-3.5577459499	-2.1618623423	 1.9371178476	 0.139687
H	-3.4310158494	-0.3548428575	-2.7796139125	 0.312169
58.0228	173.8074	193.1096	201.7781	296.6262	421.5864	446.9537	496.2828	583.1568	604.1093	640.4702	651.7484	813.1837	842.8993	1002.2807	1014.66	1026.3207	1043.1989	1122.3881	1184.9161	1247.4366	1249.5662	1291.839	1335.1537	1379.2551	1434.5367	1463.6628	1496.5368	1503.2581	1603.0246	1632.095	2992.242	3009.3895	3169.3395	3733.4985	3775.7669
OCC1=NC=NC(O)=N1	OCc1ncnc(O)n1	
InChI=1S/C4H5N3O2/c8-1-3-5-2-6-4(9)7-3/h2,8H,1H2,(H,5,6,7,9)	InChI=1S/C4H5N3O2/c8-1-3-5-2-6-4(9)7-3/h2,8H,1H2,(H,5,6,7,9)
