13
gdb 11169	4.23813	1.60971	1.40668	4.1366	61.04	-0.259	0.0083	0.2673	877.5577	0.095579	-398.576323	-398.56932	-398.568375	-398.608012	25.472	
N	-0.1160162772	 1.2690554124	-0.1479913244	-0.57045
C	-0.0037550483	 0.032283762	 0.0298359481	 0.500082
O	 1.149018743	-0.6759850014	 0.2156734874	-0.247147
C	 0.8239102932	-2.0201268496	 0.5603252854	-0.116211
C	-0.6331239442	-2.1597538944	 0.0649636926	-0.091915
O	-1.0806453131	-0.7953099155	 0.0666775733	-0.218281
C	-0.7482437765	-2.7585861028	-1.26093079	 0.350733
C	-0.8301758295	-3.2683663217	-2.3450558861	-0.461147
H	 0.7959075488	 1.7161701324	-0.0940533007	 0.23452
H	 1.5152360333	-2.6964615953	 0.0578561008	 0.143886
H	 0.8903045653	-2.1520903843	 1.6459609273	 0.125735
H	-1.2546542567	-2.7049057547	 0.7802402976	 0.134871
H	-0.9108262381	-3.712640497	-3.3069956513	 0.215324
73.3079	131.1348	198.0005	249.1317	448.9653	471.3655	546.1143	645.3142	684.2052	714.5947	727.8842	804.9116	808.8463	837.3536	899.1815	991.2299	1012.5542	1060.9845	1101.1962	1108.3558	1224.8616	1247.0477	1316.5267	1369.2783	1410.8574	1518.0958	1806.4405	2243.2475	3045.0202	3080.2271	3138.5498	3499.6485	3539.936
N=C1OCC(O1)C#C	[NH][C]1OC[C@@H](O1)C#C	
InChI=1S/C5H5NO2/c1-2-4-3-7-5(6)8-4/h1,4,6H,3H2	InChI=1S/C5H5NO2/c1-2-4-3-7-5(6)8-4/h1,4,6H,3H2/t4-/m0/s1
