22
gdb 120044	4.84444	0.87284	0.82768	1.8639	85.41	-0.2335	0.0829	0.3163	1491.104	0.19512	-367.148216	-367.139756	-367.138812	-367.18174	32.753	
C	-0.1392919812	 1.5334662594	 0.0401294088	-0.380222
C	 0.0365083402	 0.0125543902	 0.0466198519	-0.167982
C	 0.660898262	-0.5233794476	-1.2481025733	-0.192257
C	 0.8311367051	-2.0413075398	-1.2646193867	 0.000231
C	 1.5847862163	-2.5502358353	-2.4963123572	-0.04747
C	 2.8885971246	-2.5200936749	-1.7948915659	-0.050699
C	 2.0516832829	-2.580516087	-0.4567597909	-0.086463
C	 1.9815997919	-4.0907371368	-0.7283400531	-0.155862
N	 2.3010501374	-3.8359935261	-2.1738355758	-0.159063
H	 0.8236600116	 2.0431649471	-0.0764369357	 0.113981
H	-0.7830333843	 1.8537792035	-0.786768703	 0.114304
H	-0.5925535194	 1.8876353328	 0.9712122232	 0.111673
H	 0.6579260946	-0.2796075412	 0.9027972856	 0.096349
H	-0.9381281915	-0.4685163241	 0.2024573816	 0.095992
H	 0.0301122702	-0.2246650617	-2.0972888378	 0.0918
H	 1.6365776424	-0.0460876452	-1.414229973	 0.09457
H	-0.1274208999	-2.5283469934	-1.0383895527	 0.061409
H	 1.3624920116	-2.3804529549	-3.5424928046	 0.093496
H	 3.882654542	-2.1934255627	-2.0694941237	 0.094466
H	 2.309505099	-2.164785185	 0.5159892638	 0.07174
H	 2.8084408405	-4.6570134577	-0.2917724376	 0.10575
H	 1.033909984	-4.6097071796	-0.5388738539	 0.094257
78.4728	91.6997	121.5708	240.8008	255.8358	304.9202	350.957	446.4956	550.7953	735.5651	751.1463	759.6354	788.3903	807.7749	826.55	902.0203	907.5626	928.9106	943.4028	967.5073	973.8714	999.7047	1039.2105	1053.1067	1057.1422	1082.2303	1114.8062	1142.2761	1154.5515	1167.1837	1190.2098	1204.7584	1229.4954	1255.6898	1270.1201	1295.3273	1303.47	1328.654	1340.9031	1380.1892	1399.8387	1414.091	1482.3511	1493.3578	1500.1454	1510.2527	1510.801	3002.3993	3005.5558	3018.4695	3028.5732	3029.3516	3032.5466	3055.9288	3095.5933	3098.5125	3101.8931	3127.0948	3190.454	3207.4932
CCCC1C2C3C1CN23	CCC[C@H]1[C@H]2[C@H]3[C@@H]1CN23	
InChI=1S/C8H13N/c1-2-3-5-6-4-9-7(5)8(6)9/h5-8H,2-4H2,1H3	InChI=1S/C8H13N/c1-2-3-5-6-4-9-7(5)8(6)9/h5-8H,2-4H2,1H3/t5-,6-,7+,8-,9?/m1/s1
