17
gdb 53099	2.27078	1.14772	0.95235	2.9745	82.83	-0.2413	0.0024	0.2437	1324.158	0.133704	-380.827653	-380.817694	-380.81675	-380.864106	34.082	
C	 0.0940295298	 1.5345803757	-0.260513951	-0.501578
C	 0.0480384194	 0.0830315803	-0.1823305876	 0.072562
C	 0.0121547112	-1.118486269	-0.1011563116	 0.122884
C	-0.0166096832	-2.5520570243	-0.0410500946	-0.216577
C	-0.4418003393	-3.2674393707	 1.229635536	-0.175499
C	-0.8343467698	-2.4904736309	 2.3793964586	 0.308648
N	-1.1614200755	-1.9018679464	 3.3199190697	-0.34036
N	-1.2682328395	-3.3136476939	 0.0234446592	-0.09887
C	-2.5379247002	-2.5913001486	 0.0112464226	-0.322571
H	 1.1219209704	 1.8873234147	-0.3970735739	 0.156611
H	-0.5011543641	 1.9071777703	-1.1012209607	 0.153943
H	-0.2966042661	 1.9889914061	 0.6560978639	 0.163049
H	 0.7544333805	-3.0534283018	-0.6229753136	 0.126169
H	 0.04586848	-4.2052658213	 1.4837894414	 0.139457
H	-2.5112847026	-1.6248886871	 0.5288500033	 0.140153
H	-2.8201440729	-2.4232194101	-1.0313490499	 0.134722
H	-3.296231088	-3.2244833829	 0.4792568381	 0.137256
23.8944	65.4062	96.162	148.6764	174.3936	191.7785	259.8903	318.67	362.0232	383.5338	451.2795	543.5253	614.4667	623.0659	695.3894	798.319	847.654	930.7263	1035.7837	1046.7079	1051.2672	1052.8102	1125.2165	1163.025	1175.1371	1202.5123	1320.5532	1354.2156	1373.0712	1413.0395	1454.8584	1474.2049	1475.7304	1488.8408	1496.1745	2350.5263	2367.4169	3025.9994	3031.4674	3093.8013	3097.4589	3101.438	3121.8109	3125.5181	3141.6313
CC#CC1C(C#N)N1C	CC#C[C@H]1[C@@H](C#N)N1C	
InChI=1S/C7H8N2/c1-3-4-6-7(5-8)9(6)2/h6-7H,1-2H3	InChI=1S/C7H8N2/c1-3-4-6-7(5-8)9(6)2/h6-7H,1-2H3/t6-,7+,9?/m0/s1
