19
gdb 8295	6.13014	0.90609	0.85296	3.9461	73.17	-0.2458	0.0382	0.284	1379.3143	0.165141	-365.096791	-365.08807	-365.087125	-365.130709	31.5	
C	-0.0136688814	 1.5831725803	 0.0678833581	-0.379436
C	 0.1054233791	 0.0572398634	 0.0350139475	-0.169813
C	 0.5884851419	-0.4784548042	-1.3177903668	-0.176266
C	 0.6992723838	-1.9970598701	-1.3657461948	 0.061419
C	 1.4195711811	-2.6262978225	-2.5962669663	-0.412486
C	 2.4286507479	-3.2062787875	-1.574511921	 0.430466
O	 3.392854185	-3.9214121535	-1.6150123354	-0.358474
N	 1.7703860667	-2.5838255647	-0.5400819043	-0.325411
H	 0.9512825987	 2.0593873946	-0.1374343323	 0.118666
H	-0.7249483054	 1.9407984633	-0.6847881268	 0.116553
H	-0.3576795101	 1.9351747788	 1.0451633236	 0.115056
H	 0.7991825279	-0.2699254673	 0.8207676684	 0.094233
H	-0.8663229872	-0.3934159756	 0.2773258926	 0.09678
H	-0.1048823776	-0.1589465962	-2.1076130276	 0.100174
H	 1.5670985068	-0.04379247	-1.5602293033	 0.099521
H	-0.2778731143	-2.4551638815	-1.1645252497	 0.081752
H	 0.8549487788	-3.384105998	-3.1418764425	 0.130654
H	 1.8489170783	-1.9092182169	-3.2989390551	 0.128535
H	 1.8829442399	-2.6702985619	 0.4593124058	 0.248079
57.5936	95.2507	105.5455	165.8905	247.2143	315.5827	348.4587	386.309	469.1972	515.8412	564.9412	722.904	756.7448	823.9313	873.5124	895.9106	947.0923	961.5217	1009.6788	1048.9651	1079.9789	1084.4286	1123.6668	1170.5915	1190.4815	1202.1409	1255.5959	1273.22	1318.0778	1333.689	1378.1342	1389.4309	1409.0415	1415.2585	1460.4563	1475.6224	1491.7745	1499.6774	1509.2456	1895.9263	3009.7587	3014.98	3020.0201	3031.7053	3038.2524	3064.2485	3084.6302	3098.6039	3104.9967	3143.2496	3609.6754
CCCC1CC(=O)N1	CCC[C@H]1CC(=O)N1	
InChI=1S/C6H11NO/c1-2-3-5-4-6(8)7-5/h5H,2-4H2,1H3,(H,7,8)	InChI=1S/C6H11NO/c1-2-3-5-4-6(8)7-5/h5H,2-4H2,1H3,(H,7,8)/t5-/m0/s1
