14
gdb 132379	2.00129	1.75302	0.93505	2.6688	69.18	-0.2124	0.0013	0.2137	1135.0155	0.102216	-478.051539	-478.044193	-478.043249	-478.083129	29.114	
N	 0.0450408011	 1.3446610806	-0.1699633695	-0.565878
C	-0.004701479	-0.0295188687	-0.0817564011	 0.410475
C	-1.2273681699	-0.7113472609	-0.012366634	-0.365886
C	-1.1669359262	-2.094402065	 0.0180985104	 0.37066
F	-2.3046987637	-2.7840564885	 0.0853690249	-0.075363
C	 0.0334534014	-2.7848115272	-0.0194393987	-0.40199
C	 1.1773522439	-1.9901922117	-0.0861330371	 0.461856
O	 2.3804312621	-2.5985626498	-0.1215850177	-0.418977
N	 1.178443245	-0.6615092732	-0.1125157559	-0.437766
H	 0.947067978	 1.7429006397	 0.0414109242	 0.256009
H	-0.7404514968	 1.8585644796	 0.1950704189	 0.254755
H	-2.178825883	-0.1967409719	 0.0077478856	 0.098909
H	 0.0821167482	-3.8634469962	 0.0050039953	 0.117487
H	 3.0339869688	-1.8873405867	-0.1697287153	 0.295707
202.2955	209.485	255.5861	322.4653	340.047	399.2179	500.4969	515.9399	526.5504	532.6045	570.9575	631.0261	652.8914	692.0161	762.7044	807.1735	827.3414	985.9508	1015.1228	1043.2078	1124.0146	1172.5834	1208.9233	1275.4826	1357.1323	1450.5774	1490.6401	1531.8633	1635.8225	1641.3486	1667.3254	3216.0574	3241.4292	3587.3825	3703.3824	3770.7021
NC1=CC(F)=CC(O)=N1	Nc1cc(F)cc(O)n1	
InChI=1S/C5H5FN2O/c6-3-1-4(7)8-5(9)2-3/h1-2H,(H3,7,8,9)	InChI=1S/C5H5FN2O/c6-3-1-4(7)8-5(9)2-3/h1-2H,(H3,7,8,9)
