21
gdb 120563	2.91688	0.79842	0.69994	2.0104	75.4	-0.2485	0.0691	0.3175	1655.4797	0.181473	-461.336122	-461.326091	-461.325147	-461.372485	35.88	
O	-0.1957237629	 1.1995440631	-0.633879975	-0.421854
C	-0.0833396119	-0.1908774246	-0.3708004929	-0.072447
C	-1.4691829303	-0.7066414199	-0.0020285329	-0.192203
C	-1.4741857406	-2.1921263049	 0.3044621458	 0.156843
C	-2.8361123796	-2.9109375249	 0.4256811904	-0.345031
C	-2.3331471789	-3.7803518457	-0.7434908536	 0.14035
C	-3.0854157244	-3.7292812294	-2.0618659131	-0.06625
O	-2.2736740889	-4.210915601	-3.1136639111	-0.420959
O	-1.1068734048	-3.0076791175	-0.8442672329	-0.330058
H	 0.6614720924	 1.5189566407	-0.929962443	 0.286404
H	 0.2848246999	-0.7413384285	-1.248862927	 0.103128
H	 0.6177669006	-0.3855602214	 0.4579121188	 0.083067
H	-1.834909616	-0.1594456725	 0.8762815958	 0.107732
H	-2.1585918	-0.4959571015	-0.8274925942	 0.107016
H	-0.7939777692	-2.4077709887	 1.1407780073	 0.07629
H	-3.0206285728	-3.4310408925	 1.3658961947	 0.112691
H	-3.6985680473	-2.2843354679	 0.1836902575	 0.110726
H	-2.1054301604	-4.8223299931	-0.4846099306	 0.082655
H	-3.9756376476	-4.3675204942	-2.0184534142	 0.106807
H	-3.4198075842	-2.6952839424	-2.2498959916	 0.082352
H	-1.4451365331	-3.7195891534	-3.0503201882	 0.292742
32.1579	92.1678	101.4873	109.0614	161.9756	233.9105	263.7632	336.6931	376.4659	397.0712	459.9348	493.1815	504.2084	720.9512	795.7781	856.3183	890.1419	901.0164	959.0674	999.3794	1032.747	1045.9753	1058.8126	1083.4536	1091.365	1123.6065	1152.7192	1178.2762	1218.4408	1223.8205	1250.6848	1256.6479	1286.3965	1304.5366	1318.3508	1333.3191	1353.0743	1388.7765	1414.8582	1437.5983	1460.6945	1478.7255	1491.6635	1499.2498	1530.1485	2962.2012	2965.0967	2998.9352	3010.6214	3024.8299	3031.9245	3066.0468	3070.58	3080.9948	3133.3177	3782.723	3831.5396
OCCC1CC(CO)O1	OCC[C@H]1C[C@@H](CO)O1	
InChI=1S/C6H12O3/c7-2-1-5-3-6(4-8)9-5/h5-8H,1-4H2	InChI=1S/C6H12O3/c7-2-1-5-3-6(4-8)9-5/h5-8H,1-4H2/t5-,6-/m0/s1
