20
gdb 86676	2.43553	1.35754	0.98915	4.343	81.97	-0.226	0.0266	0.2526	1248.0308	0.170057	-403.147476	-403.138306	-403.137361	-403.182056	33.762	
C	-0.5143964948	 1.4111195161	 0.0370260725	-0.405018
C	 0.0508873726	 0.0010111308	-0.0405749982	-0.098683
C	 1.3901028943	-0.1713899087	-0.8285233007	-0.182918
N	 2.0055261815	-0.6804315822	 0.3969028017	-0.087127
C	 3.256200847	-1.1351415058	 0.614687758	 0.121205
O	 4.1281517818	-1.1838120539	-0.2316045936	-0.339374
C	 0.8054155917	-0.5305462252	 1.1984422625	 0.386143
C	 0.7446694312	-0.0492918335	 2.6173285326	-0.325447
C	 0.3295228251	-1.467815872	 2.2649404548	-0.325728
H	 0.2453947302	 2.1232813542	 0.3749282343	 0.126126
H	-0.8732107514	 1.7386021941	-0.9443264945	 0.123063
H	-1.3592134314	 1.4646402533	 0.7319964386	 0.11944
H	-0.7162863949	-0.7001883812	-0.3804702588	 0.087307
H	 1.3796708824	-0.8971490572	-1.6467052353	 0.12511
H	 1.8408150725	 0.7610281085	-1.1847043467	 0.121406
H	 3.4070157582	-1.4650530531	 1.6633134669	 0.062212
H	 1.6817859599	 0.0881291091	 3.1467213707	 0.125056
H	-0.0281141306	 0.6643609354	 2.88424241	 0.121925
H	-0.7267677967	-1.717730874	 2.2884376167	 0.120683
H	 0.9876180513	-2.2776217449	 2.5624210386	 0.124619
43.385	81.5868	157.4317	206.8222	218.603	251.02	316.749	338.204	383.1217	489.0245	547.7483	577.1046	751.7077	782.0037	846.7064	877.8004	884.5197	911.0944	941.6107	975.1414	1026.5146	1048.6249	1056.4115	1072.1412	1108.7032	1131.0418	1147.4053	1184.6648	1190.6419	1225.429	1260.1494	1312.6873	1362.5487	1380.3591	1404.4565	1413.3717	1455.3881	1456.0831	1491.7997	1497.6187	1500.6798	1520.4078	1783.5826	2915.815	3031.8143	3042.9438	3064.4059	3092.3916	3098.9753	3108.2102	3124.6467	3128.8748	3205.8797	3220.3553
CC1CN(C=O)C11CC1	C[C@H]1CN(C=O)C21CC2	
InChI=1S/C7H11NO/c1-6-4-8(5-9)7(6)2-3-7/h5-6H,2-4H2,1H3	InChI=1S/C7H11NO/c1-6-4-8(5-9)7(6)2-3-7/h5-6H,2-4H2,1H3/t6-/m0/s1
