19
gdb 22046	2.36729	1.17028	1.04495	3.6714	79.06	-0.2618	-0.0099	0.2519	1259.4761	0.155908	-419.191391	-419.180877	-419.179933	-419.22666	38.071	
C	 0.1728567782	 1.4969641166	 0.013629178	-0.483622
C	 0.0930758895	-0.0051847762	 0.0471218848	 0.36485
N	 0.0549800783	-0.6942868904	 1.1203575171	-0.171789
O	 0.0747800839	 0.1155287939	 2.2601666655	-0.395434
C	 0.0118576364	-0.795570156	-1.263770056	 0.004595
C	 0.0918970064	-2.3208872544	-1.0477152935	-0.401283
C	-1.3098464557	-0.4343961152	-1.9935384965	-0.408916
C	 1.1428904456	-0.38222424	-2.1173255156	 0.270307
N	 2.0226268851	-0.0592852275	-2.7942473392	-0.346508
H	 0.938127126	 1.8413051696	 0.713850054	 0.158166
H	 0.4100508524	 1.8680715111	-0.984350884	 0.141545
H	-0.7746215918	 1.9389204568	 0.3412195267	 0.146811
H	 0.0799740892	-0.5334521962	 2.9721270106	 0.310046
H	-0.7437104292	-2.6484990693	-0.4271813074	 0.135147
H	 0.0452132534	-2.8315368802	-2.0128820444	 0.123845
H	 1.0184035351	-2.5993810017	-0.5437481815	 0.142552
H	-1.3921579859	 0.6396245717	-2.1747204939	 0.137114
H	-1.3621230602	-0.9476012049	-2.9571035316	 0.138668
H	-2.1558343668	-0.7523612878	-1.3781429029	 0.133907
55.453	106.7214	143.0868	188.7057	204.5245	230.6186	252.1061	279.5882	316.0801	348.8748	375.0606	427.3584	439.5149	478.9842	561.6022	591.5247	636.694	732.4701	840.0341	933.625	956.7305	980.9517	1021.4663	1047.3556	1054.755	1150.9864	1170.905	1230.7788	1275.2746	1396.1849	1397.902	1406.4018	1422.6185	1472.8671	1479.5934	1481.9889	1485.1217	1498.8966	1507.6547	1726.6181	2350.5338	3046.2723	3048.9324	3060.465	3109.1637	3128.1094	3131.9621	3138.5703	3146.4355	3150.8722	3816.8158
CC(=NO)C(C)(C)C#N	CC(=NO)C(C)(C)C#N	
InChI=1S/C6H10N2O/c1-5(8-9)6(2,3)4-7/h9H,1-3H3	InChI=1S/C6H10N2O/c1-5(8-9)6(2,3)4-7/h9H,1-3H3
