17
gdb 65448	4.03937	0.79709	0.73626	2.8919	77.49	-0.252	-0.0314	0.2206	1524.4619	0.131114	-421.780232	-421.77037	-421.769426	-421.81599	34.717	
C	 0.1366199643	 1.4782330885	-0.231123398	-0.471197
C	-0.0585311545	 0.0122628573	 0.0949971361	 0.177608
O	 1.1303599648	-0.8071222382	 0.0829025421	-0.276914
C	 0.4607834446	-0.6271719756	 1.3319186245	 0.008174
C	 1.2142487909	 0.091403027	 2.4309983927	-0.322
C	 2.352412616	-0.7660837138	 2.9609085368	 0.163755
O	 2.5352974084	-1.0072707312	 4.1251608693	-0.234462
C	-1.2171894786	-0.5915462276	-0.5268199467	 0.285909
C	-2.1919331949	-1.0622045614	-1.0490681565	-0.418596
H	 1.0448284685	 1.8720433091	 0.2269228661	 0.130474
H	 0.2196717444	 1.6039303545	-1.3143047215	 0.145236
H	-0.7221632261	 2.0624103482	 0.112392141	 0.138433
H	-0.0779763762	-1.5146871663	 1.6677639714	 0.112146
H	 1.657457833	 1.016278161	 2.0451283581	 0.12736
H	 0.5478645311	 0.3411168951	 3.2618070274	 0.130981
H	 3.0283456574	-1.1622603814	 2.1718529299	 0.099642
H	-3.0492707631	-1.4889888954	-1.5086581527	 0.203451
46.1177	61.5602	120.488	146.5786	159.0825	218.4466	253.3066	356.0776	389.7274	438.3889	503.1557	549.3302	588.4779	630.461	668.2252	687.1546	798.8316	825.0775	895.7196	941.6748	1017.294	1062.3446	1095.4306	1109.6839	1137.8822	1222.2532	1247.1776	1293.0909	1332.216	1411.9627	1421.5544	1445.796	1447.6935	1480.6593	1497.4324	1835.5551	2238.8632	2899.6799	3047.8677	3053.5704	3096.6415	3113.5603	3119.5446	3145.6359	3501.1086
CC1(OC1CC=O)C#C	C[C@]1(O[C@H]1CC=O)C#C	
InChI=1S/C7H8O2/c1-3-7(2)6(9-7)4-5-8/h1,5-6H,4H2,2H3	InChI=1S/C7H8O2/c1-3-7(2)6(9-7)4-5-8/h1,5-6H,4H2,2H3/t6-,7-/m0/s1
