18
gdb 80685	3.35652	1.15903	1.10953	3.3858	81.45	-0.2279	-0.0634	0.1645	1165.597	0.147858	-401.944067	-401.936016	-401.935072	-401.976702	30.631	
C	-0.1623337339	 1.5527681987	 0.0662704391	-0.426832
C	 0.0213207311	 0.0587196219	-0.0423439776	 0.02377
C	 0.5998082002	-0.6612331479	-1.2325262386	-0.095773
C	 1.4059018806	 0.125489284	-2.186005363	-0.159057
C	 2.4778608095	 0.6578325159	-1.5732614557	 0.214058
C	 2.5119308313	 0.2238703713	-0.1210632218	-0.268265
N	 1.3121003422	-0.6261369194	 0.0799410088	-0.123973
C	 3.4701235661	 1.5318869367	-2.1939014058	 0.067682
O	 4.387462845	 2.0491936777	-1.5925105608	-0.272071
H	 0.5081434114	 2.1177979421	-0.5833457423	 0.129488
H	-1.1914731683	 1.8181313894	-0.1957277978	 0.126057
H	 0.008672707	 1.8786140326	 1.0985663605	 0.132435
H	-0.757237833	-0.5011135144	 0.4752650381	 0.100082
H	 0.1609765632	-1.6031387295	-1.5520190142	 0.10352
H	 1.1544515456	 0.2439623375	-3.2339863141	 0.119198
H	 3.4096658506	-0.3630560827	 0.1018345175	 0.129938
H	 2.5141494196	 1.0756494144	 0.5688326803	 0.130707
H	 3.3337639019	 1.6911728317	-3.2869095628	 0.069036
88.1026	175.9725	187.8487	205.8352	253.4061	321.5558	418.1261	469.4485	490.337	589.0533	687.3359	717.7828	757.4688	788.6354	882.237	897.3398	903.9956	965.151	998.3489	1015.2248	1044.4873	1066.1486	1078.7293	1136.943	1163.4291	1201.5907	1225.4355	1282.402	1291.8262	1354.9414	1365.7054	1400.542	1418.3686	1422.7146	1486.7714	1498.0215	1503.0198	1664.2204	1775.9722	2879.9846	3038.7004	3040.6474	3069.7469	3097.1493	3104.0786	3135.1198	3139.7301	3202.4756
CC1C2C=C(CN12)C=O	C[C@H]1[C@H]2C=C(CN12)C=O	
InChI=1S/C7H9NO/c1-5-7-2-6(4-9)3-8(5)7/h2,4-5,7H,3H2,1H3	InChI=1S/C7H9NO/c1-5-7-2-6(4-9)3-8(5)7/h2,4-5,7H,3H2,1H3/t5-,7+,8?/m0/s1
