21
gdb 82560	2.68976	1.69264	1.3329	1.2988	82.6	-0.2538	0.0789	0.3327	1037.4455	0.185182	-387.041548	-387.034248	-387.033304	-387.072712	31.138	
O	-0.0217731978	 1.415437301	-0.0244687132	-0.450524
C	 0.0896590958	 0.0036938719	 0.046672016	 0.082954
C	 0.5964367356	-0.5612782567	 1.4142973921	-0.065076
C	-0.6372543279	-0.5019364123	 2.3999877106	-0.329152
C	-1.2131310576	-1.487130131	 1.3534514586	 0.354034
C	-2.4349164357	-2.2976154377	 0.8729838846	-0.352044
C	-2.0666048146	-1.8049889503	-0.5802337652	-0.288342
C	-1.3271507317	-0.6118830628	 0.1018843555	 0.051611
C	 0.2305564804	-2.0528831158	 1.2226279847	-0.261271
H	 0.8631912917	 1.78714261	 0.0466569346	 0.278555
H	 0.7182922677	-0.376805404	-0.7722726799	 0.063657
H	 1.5911337964	-0.2500310456	 1.7417390005	 0.051438
H	-0.3796834477	-0.9344834684	 3.3704681933	 0.092074
H	-1.1513329321	 0.4542789779	 2.525604521	 0.100889
H	-2.4415285292	-3.373140889	 1.0676674571	 0.095221
H	-3.3868292224	-1.8696623142	 1.2014215599	 0.105785
H	-1.398697376	-2.5044718455	-1.088275773	 0.105734
H	-2.8939934678	-1.5587480823	-1.2490125002	 0.098126
H	-2.0395118194	 0.2052631466	 0.2549915085	 0.085578
H	 0.5296466919	-2.5414103017	 0.2899787759	 0.087944
H	 0.5089642704	-2.67717853	 2.0758095887	 0.092809
161.9441	266.0575	287.0401	304.2687	332.3687	393.2604	495.6543	521.2706	558.1274	622.9159	681.9891	802.717	810.9468	829.6711	857.8741	891.2947	893.9992	916.7954	952.7276	991.0693	999.7759	1033.5238	1057.1064	1066.316	1086.1649	1096.6714	1132.1313	1160.7101	1174.4536	1186.2226	1207.2443	1226.6334	1227.4952	1240.0654	1247.8377	1269.5198	1287.3516	1299.8466	1337.7538	1352.683	1423.7469	1479.1466	1484.9989	1495.5898	1520.9125	2984.2968	3045.7076	3052.1008	3054.3908	3057.8438	3069.1769	3088.8901	3103.2363	3104.9233	3118.1148	3125.9185	3815.1219
OC1C2CC3(CCC13)C2	O[C@H]1[C@H]2C[C@]3(CC[C@H]13)C2	
InChI=1S/C8H12O/c9-7-5-3-8(4-5)2-1-6(7)8/h5-7,9H,1-4H2	InChI=1S/C8H12O/c9-7-5-3-8(4-5)2-1-6(7)8/h5-7,9H,1-4H2/t5-,6-,7+,8+/m1/s1
