21
gdb 60186	2.38499	1.16117	0.92689	1.3503	85.82	-0.2278	0.0496	0.2775	1368.8918	0.178898	-387.040529	-387.030282	-387.029338	-387.07606	38.139	
C	 0.4832111172	 1.3992451202	 0.4852707043	-0.38804
C	 0.0740150617	-0.0127868073	 0.0649029409	 0.146026
C	 0.7424184955	-0.4482277417	-1.2331809415	-0.390522
O	 0.4263747003	-1.0053240173	 1.0368161243	-0.253237
C	-0.2742731392	-0.9515605662	 2.2256884428	 0.146499
C	 0.1469766914	-1.8965242192	 3.2941758527	-0.333844
C	 0.374951794	-0.3974624543	 3.5027799661	-0.246776
C	 1.7061070658	 0.1257042422	 3.4915753567	 0.345371
C	 2.8202629437	 0.5804928085	 3.4992334283	-0.464296
H	 1.5630026781	 1.4519563439	 0.6475697363	 0.134266
H	 0.2070083415	 2.1144309982	-0.2965193027	 0.108587
H	-0.0125244361	 1.7038994142	 1.4105178426	 0.119369
H	-1.0210062962	-0.0411513532	-0.0669845041	 0.065557
H	 1.8308848714	-0.4372508711	-1.119940563	 0.126517
H	 0.4351144868	-1.4623142303	-1.5013831115	 0.121165
H	 0.4721441978	 0.2282526912	-2.0491770745	 0.112544
H	-1.3401656646	-0.7449190642	 2.1169665954	 0.088582
H	-0.6071343837	-2.3885126916	 3.8975896882	 0.11933
H	 1.0332299459	-2.484196835	 3.086150052	 0.140172
H	-0.3047937583	 0.0949634563	 4.1932791592	 0.110384
H	 3.8060879267	 0.9737991165	 3.5058998174	 0.192347
36.9071	88.1338	140.9333	167.5604	212.232	221.7176	259.5477	316.8614	331.5505	411.372	464.2296	474.6588	532.1883	569.1222	641.0373	657.6791	761.2192	773.7417	810.8623	865.5106	927.5719	937.4096	947.795	1008.8706	1044.3127	1065.3878	1118.94	1124.6429	1149.5295	1161.5028	1184.998	1206.9336	1246.8645	1358.3799	1368.3073	1376.2462	1399.9046	1414.3177	1427.088	1479.2235	1479.8868	1485.1665	1493.0126	1508.3528	2234.211	2957.2616	3041.1359	3045.7246	3087.882	3112.226	3117.9198	3124.0479	3129.1788	3137.1345	3143.8592	3238.9987	3505.7522
CC(C)OC1CC1C#C	CC(C)O[C@H]1C[C@H]1C#C	
InChI=1S/C8H12O/c1-4-7-5-8(7)9-6(2)3/h1,6-8H,5H2,2-3H3	InChI=1S/C8H12O/c1-4-7-5-8(7)9-6(2)3/h1,6-8H,5H2,2-3H3/t7-,8+/m1/s1
