18
gdb 93257	2.8465	1.28772	0.92657	4.5245	68.45	-0.2509	0.0119	0.2627	1215.5048	0.149139	-476.262401	-476.253928	-476.252984	-476.295415	32.44	
O	-0.1162285079	 1.4547631443	 0.1134988444	-0.425474
C	-0.0286448401	 0.045440093	-0.001423948	 0.100286
C	 0.7535837672	-0.5382575792	 1.1857651091	-0.184329
N	 0.6286033183	-1.9914912471	 1.254138593	-0.323836
C	-0.4515099702	-2.7047641487	 0.8328648405	 0.382972
O	-0.681878796	-3.8464636094	 1.2008744616	-0.393653
C	-1.3646566832	-2.0403460602	-0.2063338504	 0.045312
O	-2.6353806971	-2.6297119342	-0.1447150844	-0.442337
C	-1.4414736793	-0.5260543563	-0.0224797691	-0.22625
H	 0.7601781497	 1.8285274064	-0.0238403267	 0.286783
H	 0.4812933488	-0.236877232	-0.9365480806	 0.08003
H	 1.8160725288	-0.2802802734	 1.1015998097	 0.104765
H	 0.3699010272	-0.0647355946	 2.1005095091	 0.123684
H	 1.1879193567	-2.4744201987	 1.9444752295	 0.251287
H	-0.8904659227	-2.2465876798	-1.1851970607	 0.090017
H	-2.4845543485	-3.4948971115	 0.2695050398	 0.292028
H	-1.9523324417	-0.2924411318	 0.9187564249	 0.117431
H	-2.0196915801	-0.0737094568	-0.8324356619	 0.121286
87.7666	141.8395	197.9414	277.3841	290.7545	327.6346	389.3388	402.0528	422.2425	485.6514	500.7052	565.5129	601.2091	694.0773	725.8769	811.2273	905.4198	931.8173	1033.5967	1053.6565	1088.1897	1099.5786	1121.0807	1163.8223	1177.6006	1240.7347	1272.2963	1296.6916	1299.4926	1318.9521	1360.5607	1385.3313	1401.9059	1447.5329	1461.69	1480.3644	1504.9837	1526.1594	1776.9737	2916.7088	2973.0117	3005.7568	3049.8049	3052.8548	3104.8895	3588.1145	3686.5051	3817.1697
OC1CNC(=O)C(O)C1	O[C@H]1CNC(=O)[C@@H](O)C1	
InChI=1S/C5H9NO3/c7-3-1-4(8)5(9)6-2-3/h3-4,7-8H,1-2H2,(H,6,9)	InChI=1S/C5H9NO3/c7-3-1-4(8)5(9)6-2-3/h3-4,7-8H,1-2H2,(H,6,9)/t3-,4+/m1/s1
