19
gdb 102440	1.93845	1.2903	0.88099	2.9714	79.85	-0.2498	-0.0612	0.1886	1372.6027	0.154904	-422.995065	-422.984395	-422.98345	-423.031356	37.151	
C	-0.1359162158	 0.9520576265	 0.9118821542	-0.385987
C	-0.0421760541	-0.4138635328	 0.2286683683	-0.194674
C	 0.5897405532	-0.3278595107	-1.1704252182	 0.014352
O	 1.9015503248	 0.1368836292	-1.0242731127	-0.22642
C	 2.5244797009	 0.5590010169	-2.2233585437	-0.246988
C	 0.5374850426	-1.7022414375	-1.8611153369	 0.211144
O	 1.5222970368	-2.3665510006	-2.0897302446	-0.284327
C	-0.7960926015	-2.1549232517	-2.232081565	 0.278502
C	-1.9025701126	-2.5119060695	-2.5453826472	-0.424331
H	 0.8519879324	 1.4119240007	 0.9869906623	 0.138789
H	-0.7852502853	 1.6316347504	 0.3486357888	 0.112189
H	-0.5489471541	 0.8536454477	 1.9201050018	 0.114848
H	 0.5714478991	-1.0963849251	 0.8279793411	 0.120237
H	-1.0350986374	-0.8658797806	 0.1379489683	 0.112923
H	-0.008276478	 0.3659326006	-1.7911573236	 0.078256
H	 2.6796957174	-0.2736080751	-2.9183879322	 0.132363
H	 1.9349754622	 1.3428344546	-2.7236881456	 0.101936
H	 3.495190581	 0.9741549694	-1.9435367041	 0.130224
H	-2.8735310716	-2.8415182224	-2.826546321	 0.216964
48.2019	88.6127	116.1212	137.0811	161.9032	190.7352	216.9239	261.1577	269.9629	313.8108	347.1304	482.9415	505.5751	605.5142	654.2179	698.7387	712.5658	767.4636	866.0801	925.3682	964.3291	1047.6642	1072.4067	1106.724	1143.0812	1174.9422	1182.7906	1238.1094	1274.9023	1313.6492	1371.7109	1377.1098	1406.4847	1476.4505	1480.9249	1485.9017	1495.0518	1509.5021	1512.0734	1774.134	2206.7726	2930.0884	2987.0204	3038.0034	3043.9196	3070.3334	3086.2754	3105.1735	3124.2002	3131.9973	3492.9557
CCC(OC)C(=O)C#C	CC[C@@H](OC)C(=O)C#C	
InChI=1S/C7H10O2/c1-4-6(8)7(5-2)9-3/h1,7H,5H2,2-3H3	InChI=1S/C7H10O2/c1-4-6(8)7(5-2)9-3/h1,7H,5H2,2-3H3/t7-/m1/s1
