25
gdb 103641	2.46935	1.16582	1.07402	1.0142	89.	-0.24	0.0789	0.3189	1347.3186	0.226508	-389.484775	-389.473984	-389.47304	-389.519887	40.764	
C	-0.4165477642	 1.6550029026	-0.4363474121	-0.251129
O	-0.5769660217	 0.2582062071	-0.5340450811	-0.286149
C	 0.5039958754	-0.4472405437	-1.1172758021	 0.438689
C	 0.6503033792	-0.1254432603	-2.6048955997	-0.448772
C	 1.8546360562	-0.4229967961	-0.3392422862	-0.301909
C	 1.9338144143	-1.9665944857	-0.4954690488	 0.041962
C	 2.4660844891	-2.7893462635	 0.669322368	-0.41252
C	 0.4050772315	-1.9830680617	-0.8432204568	-0.064311
C	-0.5391789387	-2.3741762405	 0.2899461797	-0.394062
H	 0.5173402155	 1.9277658856	 0.0771966456	 0.10535
H	-0.4289130491	 2.1539122568	-1.4160755838	 0.105694
H	-1.2585832011	 2.0307826049	 0.1508740545	 0.1236
H	 0.9423000427	 0.9164231115	-2.7716672721	 0.112159
H	 1.41755398	-0.7561060417	-3.064462316	 0.116906
H	-0.2973931971	-0.3066661093	-3.1222885546	 0.119256
H	 2.6730891663	 0.1749171282	-0.7498432545	 0.088042
H	 1.6943956702	-0.1355016328	 0.7046046239	 0.100056
H	 2.5088633622	-2.2153716158	-1.3938947981	 0.068499
H	 1.9236510643	-2.5787909438	 1.5962456047	 0.115182
H	 2.3852635591	-3.8643141373	 0.4722997175	 0.11237
H	 3.5239237249	-2.5654658678	 0.8477586038	 0.111342
H	 0.1548792827	-2.5689966677	-1.7343390602	 0.058217
H	-0.3472192278	-1.8068061425	 1.2044995901	 0.116104
H	-1.5768930272	-2.1814644538	 0.0052614046	 0.121569
H	-0.4404185769	-3.4398271627	 0.522287854	 0.103854
82.0325	94.3271	176.0075	186.513	219.2629	232.7458	246.5912	255.6947	275.8234	306.6996	353.5653	380.3391	439.0419	489.1623	525.9736	622.3768	727.0873	779.9447	869.5143	891.0594	907.9242	928.7641	968.2785	994.7741	1034.353	1039.7941	1104.7546	1111.4341	1141.5916	1178.2672	1182.2077	1190.2107	1202.9887	1218.0701	1242.5991	1266.4433	1287.036	1302.4773	1367.4052	1373.1184	1401.7157	1408.5635	1413.0372	1474.8349	1479.9362	1485.7653	1486.9426	1488.5929	1491.608	1501.2806	1504.3756	1506.4137	1511.3901	2984.1525	3026.6732	3029.1671	3030.5663	3035.8438	3039.5867	3044.6316	3048.0005	3087.8236	3099.1313	3102.2289	3103.5547	3106.9912	3107.7479	3109.399	3119.2329
COC1(C)CC(C)C1C	CO[C@@]1(C)C[C@@H](C)[C@H]1C	
InChI=1S/C8H16O/c1-6-5-8(3,9-4)7(6)2/h6-7H,5H2,1-4H3	InChI=1S/C8H16O/c1-6-5-8(3,9-4)7(6)2/h6-7H,5H2,1-4H3/t6-,7-,8+/m1/s1
