21
gdb 79449	3.21698	1.50244	1.27301	1.6623	81.19	-0.2371	0.0801	0.3172	1083.8273	0.183984	-387.054257	-387.046565	-387.045621	-387.085895	31.509	
C	-0.14230492	 1.5410991533	 0.0118250832	-0.421344
C	-0.0437865422	 0.0185106664	 0.0416034374	-0.001061
C	 1.0710631114	-0.5515916751	-0.8583174298	-0.072072
C	 2.1082921377	-0.3691972902	 0.2712592399	 0.103169
O	 2.7321861401	-1.6299062927	 0.012181617	-0.290725
C	 1.3968949011	-2.0353140562	-0.4164222054	 0.043128
C	 0.6401171885	-2.1081501348	 0.9330991619	 0.041797
C	 1.2495171063	-3.0601119433	 1.9566842327	-0.427216
C	 0.8083855786	-0.5903193208	 1.1937070658	-0.09936
H	 0.8371561368	 2.0198896356	 0.1148725343	 0.116929
H	-0.5804307226	 1.8875719753	-0.9306443606	 0.115604
H	-0.7764078183	 1.9058113818	 0.8269550694	 0.115895
H	-1.0418858394	-0.4199225885	-0.0709881546	 0.063182
H	 1.2437383332	-0.2686420974	-1.8963493988	 0.071703
H	 2.788532422	 0.4635548533	 0.4364385838	 0.084951
H	 1.3959089695	-2.8890253799	-1.0938131564	 0.074794
H	-0.4174059838	-2.3510920602	 0.7810176072	 0.067603
H	 2.313508372	-2.8568482845	 2.0919840387	 0.136353
H	 0.7484701118	-2.958940277	 2.9251515204	 0.107928
H	 1.141498106	-4.1024489807	 1.6353008151	 0.10833
H	 0.7377357114	-0.2264050246	 2.2185256888	 0.060411
192.374	212.7357	218.9231	223.4916	251.5227	322.3112	471.0246	482.3076	574.4903	680.3093	736.7654	789.7621	820.7974	843.7236	847.8185	865.013	910.2778	927.2347	950.9007	979.6803	1020.6447	1028.5778	1057.3839	1063.1439	1076.1152	1096.8623	1123.8906	1129.0306	1176.8624	1183.782	1201.5207	1223.4089	1242.2602	1274.6051	1281.8241	1291.9341	1337.1623	1378.2387	1388.6932	1404.13	1416.7459	1492.742	1496.1431	1501.2774	1507.1101	3028.5878	3030.668	3033.0296	3045.9858	3090.9983	3093.1577	3099.4167	3117.4087	3118.3158	3127.0395	3134.4557	3144.9091
CC1C2C3OC2C(C)C13	C[C@H]1[C@H]2[C@@H]3O[C@H]2[C@@H](C)[C@H]13	
InChI=1S/C8H12O/c1-3-5-4(2)7-6(3)8(5)9-7/h3-8H,1-2H3	InChI=1S/C8H12O/c1-3-5-4(2)7-6(3)8(5)9-7/h3-8H,1-2H3/t3-,4+,5+,6-,7+,8-/m1/s1
