17
gdb 46969	2.9875	1.74061	1.17502	4.0178	74.16	-0.2066	0.0201	0.2268	1015.3775	0.139916	-418.064721	-418.057594	-418.05665	-418.09651	27.666	
O	 0.1075113648	 0.0116839401	 0.2927586273	-0.403379
C	 0.0335823398	 1.1728114296	-0.0357667361	 0.43048
N	-1.1212435999	 1.9334795385	-0.18794866	-0.353755
C	-0.8291416503	 3.3627451618	-0.1023840019	-0.200527
C	 0.6377940156	 3.4045858961	-0.5867475368	 0.049033
C	 1.66843021	 4.2893483656	 0.1641701065	-0.30432
C	 2.7346849116	 3.2845477185	 0.5670429452	-0.132877
C	 2.3383518392	 2.0412530249	 0.287783732	-0.025752
N	 1.0953725242	 2.0189838828	-0.3647536952	-0.109576
H	-1.9534683015	 1.5523449325	 0.2341905926	 0.254212
H	-1.4928306705	 3.9494092564	-0.7430754918	 0.11882
H	-0.9169187555	 3.7445190242	 0.9266492274	 0.106538
H	 0.6629207255	 3.6164369674	-1.6613634041	 0.098846
H	 2.0516630994	 5.084554626	-0.482417896	 0.117261
H	 1.2296201931	 4.7840704103	 1.0434966882	 0.10907
H	 3.665205615	 3.5518516213	 1.0465406567	 0.103671
H	 2.8269639694	 1.099527394	 0.492732836	 0.142255
98.5447	135.9495	195.9282	316.4714	420.9285	495.0015	516.4928	585.6747	656.5223	696.3591	725.2675	765.7469	778.495	854.9059	925.6069	929.4708	953.8796	960.666	1045.438	1071.3046	1088.696	1117.97	1148.0597	1177.0229	1221.6426	1241.2599	1283.272	1297.3288	1316.1078	1348.6855	1376.9916	1407.2545	1432.0736	1492.8673	1529.369	1674.8624	1841.8943	2980.9938	2994.5269	3030.0407	3071.6042	3084.0772	3233.3086	3257.3044	3640.1192
O=C1NCC2CC=CN12	O=C1NC[C@H]2CC=CN12	
InChI=1S/C6H8N2O/c9-6-7-4-5-2-1-3-8(5)6/h1,3,5H,2,4H2,(H,7,9)	InChI=1S/C6H8N2O/c9-6-7-4-5-2-1-3-8(5)6/h1,3,5H,2,4H2,(H,7,9)/t5-/m1/s1
