18
gdb 75527	2.21739	1.67675	1.00308	4.2604	76.24	-0.22	0.0106	0.2306	1174.01	0.149303	-439.141723	-439.13341	-439.132466	-439.174775	31.349	
C	 0.0268220466	 1.5515253878	 0.0389609468	-0.484766
C	-0.0774354213	 0.0504480838	-0.0499375754	 0.351989
C	-1.2156357221	-0.5953473561	 0.2279070139	-0.143789
C	-1.4730111124	-2.0691627472	 0.1301963247	-0.26918
C	-0.4544850084	-2.7964089116	-0.7321901764	-0.091561
O	 0.848066856	-2.829528136	-0.1297472953	-0.230934
C	 1.6942590681	-1.7907032107	-0.2648470569	 0.442381
O	 2.887622878	-1.9534286331	-0.2284303699	-0.373863
N	 1.1461074628	-0.5257405999	-0.4541666162	-0.433726
H	 0.7755491802	 1.8518183646	 0.7824674516	 0.136079
H	 0.3332048975	 1.9810962408	-0.9231214797	 0.133567
H	-0.930353409	 1.9935413009	 0.3172623724	 0.13746
H	-2.0502664074	 0.0204131989	 0.5457288296	 0.085317
H	-1.4939560238	-2.5402955379	 1.1229389679	 0.124493
H	-2.4686381406	-2.2381120367	-0.3024490471	 0.109403
H	-0.7254751328	-3.8480149159	-0.8488802505	 0.125457
H	-0.3882388365	-2.3434869247	-1.7275344785	 0.12404
H	 1.8982577952	 0.1363492629	-0.576462271	 0.257634
90.7972	112.6257	180.6544	229.7023	297.5659	313.4635	370.9493	400.3902	523.917	554.0702	613.2178	631.7591	677.7874	777.1611	794.1089	834.2484	894.713	949.4545	968.7314	1039.8604	1067.0687	1079.3855	1112.5167	1127.783	1175.3143	1235.2023	1288.7676	1310.6682	1375.4342	1391.936	1416.3376	1426.548	1470.6354	1478.5007	1485.4549	1502.2509	1511.2555	1757.0503	1834.0827	3007.7296	3021.8562	3032.5397	3052.8198	3070.9816	3111.9945	3141.9277	3180.107	3615.2254
CC1=CCCOC(=O)N1	CC1=CCCOC(=O)N1	
InChI=1S/C6H9NO2/c1-5-3-2-4-9-6(8)7-5/h3H,2,4H2,1H3,(H,7,8)	InChI=1S/C6H9NO2/c1-5-3-2-4-9-6(8)7-5/h3H,2,4H2,1H3,(H,7,8)
