19
gdb 29793	2.55877	1.56757	0.99021	3.5854	80.14	-0.181	0.044	0.225	1207.3979	0.158993	-419.277653	-419.267942	-419.266998	-419.312124	34.465	
C	 0.0313116286	 1.4473089787	 0.0314619873	-0.345456
N	 0.0509192362	 0.0051358371	-0.0277922914	-0.106705
C	 0.0928621056	-0.7942546882	-1.1694479387	-0.222978
C	 0.0999478687	-2.0884322778	-0.7815743886	 0.295725
C	 0.1383824139	-3.3380986459	-1.5887847282	-0.49487
N	 0.0617155648	-2.0919857681	 0.6172132508	-0.166939
C	 0.0532485175	-3.2378108167	 1.496891641	-0.348814
C	 0.0308414827	-0.7898832632	 1.1073412822	 0.467269
O	-0.0058274795	-0.4329617824	 2.2751748418	-0.463947
H	 0.9298812125	 1.8775766539	-0.4247276411	 0.128357
H	-0.8508680523	 1.8553320353	-0.4743956938	 0.128368
H	-0.0015298069	 1.7231209413	 1.0868951703	 0.169732
H	 0.1151501083	-0.3702320834	-2.1590054594	 0.131439
H	 0.1620358074	-3.0910352935	-2.6527780288	 0.135253
H	 1.023954317	-3.9460449529	-1.3660455888	 0.132949
H	-0.7398986108	-3.9709025562	-1.4110555169	 0.132953
H	 0.9551385303	-3.8473587878	 1.37370967	 0.128139
H	 0.0208968592	-2.8498581491	 2.5165722871	 0.171384
H	-0.8244487432	-3.870768311	 1.3261651451	 0.12814
100.389	118.4027	133.4209	145.7212	188.611	214.8854	252.5565	272.0203	315.3145	335.2574	575.875	590.5094	600.2618	608.0289	671.6651	751.5671	790.3462	909.3047	1017.3464	1060.5082	1064.1385	1073.4265	1157.3086	1159.1979	1177.2293	1214.9173	1320.95	1328.0392	1393.4243	1425.2362	1428.6344	1457.03	1469.7424	1474.7008	1495.7154	1498.1072	1502.5794	1513.3244	1516.6661	1686.3888	1799.5876	3018.7003	3025.1028	3027.6368	3063.6291	3078.7121	3080.968	3121.5981	3143.1986	3144.7912	3277.2976
CN1C=C(C)N(C)C1=O	Cn1cc(C)n(C)c1=O	
InChI=1S/C6H10N2O/c1-5-4-7(2)6(9)8(5)3/h4H,1-3H3	InChI=1S/C6H10N2O/c1-5-4-7(2)6(9)8(5)3/h4H,1-3H3
