19
gdb 87058	2.23096	1.48972	1.14609	2.434	82.43	-0.2312	0.029	0.2602	1156.866	0.157983	-381.975199	-381.965991	-381.965046	-382.008958	34.634	
C	-0.2793599283	 1.4665279227	 0.1446933037	-0.320463
N	-0.106916359	 0.0265454496	 0.2962505013	-0.131637
C	 1.155854129	-0.5520275247	-0.135152831	-0.277536
C	 0.8106738421	-0.4862036573	 1.3280459074	 0.125522
C	 1.5536336247	 0.4274776119	 2.1597674153	 0.30001
C	 2.1552782769	 1.1647184858	 2.8957893829	-0.450001
C	 0.3253825049	-1.7279678422	 2.0438172575	-0.086152
C	-1.0047289746	-1.7217873214	 2.6963209083	-0.229232
N	-0.7726297342	-2.5068126048	 1.4694380928	-0.327751
H	 0.6451415846	 2.0391735387	 0.3012884105	 0.120561
H	-0.6504738399	 1.6633524618	-0.8654259393	 0.128222
H	-1.0271714441	 1.817922098	 0.8612919108	 0.130866
H	 1.0924850789	-1.5063914522	-0.6514591249	 0.129782
H	 1.9321589149	 0.123427242	-0.489007594	 0.121064
H	 2.6945441498	 1.8149995243	 3.5394726893	 0.198375
H	 1.1267446996	-2.3203692013	 2.4790846318	 0.0983
H	-1.1751906997	-2.3042898445	 3.596922606	 0.117692
H	-1.5951612682	-0.8128386536	 2.6155219338	 0.112522
H	-1.1467723473	-1.9706947327	 0.6854315777	 0.239855
85.8751	139.5249	155.4131	159.3302	199.3008	239.0101	339.1773	355.3156	467.9979	477.691	547.6632	583.4278	606.1941	653.1586	663.6821	790.9044	836.4971	885.1337	912.2117	931.4611	984.9066	1024.7377	1050.8049	1099.933	1119.8012	1137.1468	1149.3683	1157.3387	1200.1786	1219.1986	1238.96	1293.3805	1314.5144	1347.568	1410.0562	1450.2926	1489.2935	1493.2048	1502.8505	1508.4347	2229.9988	3006.3723	3085.3116	3097.5902	3110.14	3114.5847	3135.5724	3190.0479	3197.7301	3457.5574	3500.7839
CN1CC1(C#C)C1CN1	CN1C[C@]1(C#C)[C@H]1CN1	
InChI=1S/C7H10N2/c1-3-7(5-9(7)2)6-4-8-6/h1,6,8H,4-5H2,2H3	InChI=1S/C7H10N2/c1-3-7(5-9(7)2)6-4-8-6/h1,6,8H,4-5H2,2H3/t6-,7-,9?/m1/s1
