16
gdb 99244	4.25642	0.84932	0.83702	1.6643	62.17	-0.2698	0.0131	0.2829	1416.8953	0.122568	-512.231687	-512.221887	-512.220942	-512.267974	33.237	
C	-0.1942421721	 1.12705962	 0.3680883658	-0.240735
O	 0.1795677045	-0.2223538125	 0.054058921	-0.23283
C	 0.8994584147	-0.854139411	 0.9962592427	 0.441827
O	 1.2451819385	-0.3701118384	 2.0400140978	-0.349221
C	 1.2166575025	-2.2696350971	 0.529195737	-0.197595
O	 1.9375967746	-2.981162049	 1.5153313762	-0.242342
C	 1.1713743355	-3.4486758901	 2.5449801911	 0.514107
N	 1.9721442144	-4.0354864064	 3.4796554115	-0.561663
O	-0.0338179621	-3.3902058034	 2.5779290324	-0.400401
H	 0.6933678273	 1.7462243517	 0.5199676716	 0.141951
H	-0.7672373733	 1.4827611748	-0.4878594898	 0.136369
H	-0.8026693864	 1.1529718556	 1.2751970084	 0.148106
H	 0.2832760836	-2.777434311	 0.2747751336	 0.159621
H	 1.8559765605	-2.2265140935	-0.3558754645	 0.142321
H	 2.9502369479	-3.7987127186	 3.482608712	 0.268925
H	 1.5377298398	-4.2285822412	 4.3659954531	 0.271559
35.2706	71.9294	77.1472	108.6432	155.3609	228.9068	305.5027	338.4852	375.2756	409.3277	489.1484	538.7287	570.774	674.6215	714.1889	787.3511	880.5639	904.7561	1019.0392	1042.2904	1120.0094	1153.4882	1179.3591	1209.1849	1237.6052	1292.051	1359.2581	1409.6064	1453.8656	1474.6853	1481.8809	1497.2005	1615.7026	1839.4792	1848.1712	3054.3796	3075.917	3129.0846	3130.7819	3162.9653	3611.3941	3737.9381
COC(=O)COC(N)=O	COC(=O)COC(=O)N	
InChI=1S/C4H7NO4/c1-8-3(6)2-9-4(5)7/h2H2,1H3,(H2,5,7)	InChI=1S/C4H7NO4/c1-8-3(6)2-9-4(5)7/h2H2,1H3,(H2,5,7)
