15
gdb 52385	4.59983	0.62594	0.5609	1.4273	64.79	-0.2664	-0.0935	0.1729	1823.6758	0.108434	-494.93199	-494.922239	-494.921295	-494.969266	31.369	
O	-0.0297336579	 0.1351428555	 0.3450117238	-0.223259
C	 0.0284097828	 1.3051683896	 0.0758819842	 0.15303
C	 1.3163805264	 2.0827073528	-0.1099409028	-0.289035
C	 1.3399216371	 2.8219722251	-1.4419092731	-0.07921
O	 2.480437309	 3.7035695563	-1.4222704987	-0.214924
C	 2.6591433792	 4.4383628689	-2.5200909237	 0.33851
O	 1.961247173	 4.4296843194	-3.5028239379	-0.33487
C	 3.8910005219	 5.3465637885	-2.4227970275	 0.092442
O	 4.6157311847	 5.4089631357	-1.4711815722	-0.208017
H	-0.8982036343	 1.9138142129	-0.0451760437	 0.081251
H	 1.3728122374	 2.8271326503	 0.6963313894	 0.142931
H	 2.1653606209	 1.4027467103	-0.0119650395	 0.141579
H	 1.4335862477	 2.1377471781	-2.2905197096	 0.144981
H	 0.4341726374	 3.4188444714	-1.5958111289	 0.134266
H	 4.0249691446	 5.9421149752	-3.3475603999	 0.120326
38.5484	51.9173	62.1008	105.0719	113.9637	187.873	216.4893	300.4602	381.1074	501.0616	528.7243	602.5651	717.8425	774.6452	861.6695	909.2673	1003.5787	1029.935	1044.0723	1109.1729	1133.7107	1229.9473	1278.7131	1300.5348	1306.7534	1377.8127	1416.0829	1431.2698	1466.7359	1511.2776	1809.9336	1842.0634	1843.8574	2860.3588	2951.7735	3029.0968	3048.6227	3094.5238	3124.074
O=CCCOC(=O)C=O	O=CCCOC(=O)C=O	
InChI=1S/C5H6O4/c6-2-1-3-9-5(8)4-7/h2,4H,1,3H2	InChI=1S/C5H6O4/c6-2-1-3-9-5(8)4-7/h2,4H,1,3H2
