23
gdb 104725	2.31694	1.26464	0.96011	3.1813	82.7	-0.2427	0.0586	0.3013	1330.1956	0.203751	-425.407899	-425.397165	-425.396221	-425.443168	40.204	
C	 0.0406296442	 1.4853643118	-0.0983236223	-0.4557
C	 0.0124380587	-0.0320568562	 0.0269257499	 0.263152
C	-1.2019523863	-0.6223210271	-0.6752183553	-0.453277
C	 1.3152785512	-0.7919725837	-0.0359704097	-0.34985
C	 0.5707960895	-0.713158635	 1.2813313736	 0.287289
C	 1.1681539082	 0.135263492	 2.3849438769	-0.161761
O	 2.1461296856	-0.6556221219	 3.078061885	-0.424067
C	-0.053723812	-1.9945376964	 1.8306999749	-0.131089
O	 0.9083873249	-2.9769455563	 2.1692809656	-0.427726
H	 0.9592904505	 1.9324212056	 0.2863916995	 0.115316
H	-0.0365213256	 1.7695268571	-1.1542307346	 0.11681
H	-0.8053497669	 1.9469084067	 0.4252593854	 0.113739
H	-1.2501861608	-0.2449388782	-1.7032565475	 0.114375
H	-1.1726404874	-1.7114353774	-0.7355531654	 0.124412
H	-2.135776811	-0.3346090628	-0.1773607965	 0.113435
H	 1.3327872605	-1.7542789764	-0.5371502065	 0.118527
H	 2.2392139826	-0.2290771072	-0.1289753868	 0.105051
H	 1.6423436235	 1.0411249302	 1.9910212387	 0.089795
H	 0.3760150354	 0.4468078409	 3.0835871402	 0.092314
H	 2.3722658856	-0.2108588231	 3.9000351073	 0.29175
H	-0.6800089748	-1.7345984903	 2.7028906431	 0.071882
H	-0.7145368912	-2.4627442692	 1.0990103535	 0.097478
H	 1.5725131155	-2.5171516132	 2.699782681	 0.288144
75.6566	106.7939	123.9736	174.2894	195.0816	247.4741	260.15	272.2385	337.9738	347.228	376.4555	390.3595	404.7835	475.4461	543.7406	561.9227	691.7502	800.3831	904.7405	915.4956	943.9884	947.2506	966.1114	970.8633	1023.3491	1034.7994	1044.7151	1066.4124	1078.8385	1152.4374	1173.1142	1207.2886	1239.7885	1258.6159	1289.7214	1322.2332	1376.2172	1394.4561	1412.1591	1423.922	1456.2632	1467.3734	1483.7529	1488.6763	1495.7743	1504.8184	1509.1227	1516.795	1523.8163	2940.271	2980.8922	3023.7279	3029.0022	3050.0129	3077.5288	3081.7821	3103.4066	3121.3013	3124.48	3131.4063	3206.7702	3754.47	3832.8999
CC1(C)CC1(CO)CO	CC1(C)CC1(CO)CO	
InChI=1S/C7H14O2/c1-6(2)3-7(6,4-8)5-9/h8-9H,3-5H2,1-2H3	InChI=1S/C7H14O2/c1-6(2)3-7(6,4-8)5-9/h8-9H,3-5H2,1-2H3
