17
gdb 51288	3.52402	1.24997	0.9905	2.5838	78.49	-0.2148	-0.007	0.2078	1174.0261	0.138149	-418.014882	-418.007209	-418.006265	-418.047574	29.286	
O	 1.9559297567	 4.1372585014	 0.2066825844	-0.310166
C	 1.0705060837	 3.3266363492	 0.0509844076	 0.148658
N	 1.2221992738	 1.9751299537	-0.1124148966	-0.407758
C	 2.4117618358	 1.2423334503	-0.1553974682	 0.471047
C	 2.497348803	-0.0921562572	-0.2568653651	-0.217722
C	 3.9345963293	-0.5658138536	-0.2848912069	-0.245992
C	 4.7278724692	 0.7378465064	-0.2620789962	-0.041008
N	 4.4849343756	 1.6026890654	-1.4345546375	-0.331775
C	 3.7701893338	 1.870164999	-0.1546151942	-0.151791
H	-0.0016791018	 3.6033731677	 0.0266557144	 0.081849
H	 0.3680535749	 1.4428304061	-0.1929498913	 0.252855
H	 1.6532647513	-0.7660694558	-0.3539705976	 0.082016
H	 4.1759358344	-1.1927408681	 0.5841626449	 0.104393
H	 4.1594480032	-1.1581406798	-1.1802659136	 0.11853
H	 5.6990711797	 0.770882941	 0.2193882557	 0.089256
H	 5.2546066063	 2.2661144249	-1.5097388389	 0.231181
H	 3.9579836311	 2.7900759492	 0.378053949	 0.126429
52.862	155.3656	190.7794	292.2606	326.3482	349.3714	410.6919	548.0811	605.1236	655.0786	729.4998	808.2082	811.1888	838.4225	846.5275	873.356	917.0849	939.3444	989.2917	1008.3618	1018.9044	1078.2885	1119.2275	1138.0982	1168.624	1189.3117	1245.2316	1256.4578	1293.5129	1331.8414	1390.5453	1421.9959	1449.9821	1472.7168	1515.0783	1702.5274	1809.2686	2942.7012	3014.3702	3051.952	3169.6216	3188.1927	3239.0013	3478.1431	3607.391
O=CNC1=CCC2NC12	O=CNC1=CC[C@H]2N[C@@H]12	
InChI=1S/C6H8N2O/c9-3-7-4-1-2-5-6(4)8-5/h1,3,5-6,8H,2H2,(H,7,9)	InChI=1S/C6H8N2O/c9-3-7-4-1-2-5-6(4)8-5/h1,3,5-6,8H,2H2,(H,7,9)/t5-,6+/m1/s1
