17
gdb 24248	3.87915	1.58157	1.23399	3.4246	77.98	-0.199	0.0343	0.2333	993.3778	0.140637	-380.898781	-380.892312	-380.891368	-380.929402	26.766	
C	-0.0385371611	 1.4643659602	 0.0911483317	-0.279308
C	 1.2887389284	 0.7525907963	 0.0417263923	-0.01808
C	 2.0304840245	 0.419313251	 1.3551194345	-0.360623
C	 1.0536601646	-0.5065737726	 2.0310180573	 0.259353
C	-0.0238894121	-0.7752540376	 1.2365208535	 0.319614
N	-0.8436343123	-1.5814838817	 1.986671237	-0.38138
C	-0.2015526547	-1.7620439847	 3.1912613489	-0.019041
N	 0.9444391729	-1.1144469856	 3.2547951878	-0.339642
C	-0.0223832355	-0.0482033977	-0.046240095	-0.196962
H	-0.3799253266	 1.8790384055	 1.0342894071	 0.117119
H	-0.3163439538	 2.043717461	-0.7841409705	 0.108924
H	 1.8833876756	 0.885944062	-0.8542433211	 0.087729
H	 2.995093002	-0.0614932157	 1.1500827264	 0.110433
H	 2.2447247534	 1.3203638977	 1.9413600363	 0.116388
H	-1.7301023308	-1.9765416297	 1.7224540843	 0.263363
H	-0.6171972757	-2.3896436783	 3.9656816359	 0.123538
H	-0.3468069988	-0.50808506	-0.9732428065	 0.088575
147.3742	235.6471	332.1127	415.7177	433.3008	505.4271	589.6383	669.3769	695.5278	714.856	769.105	780.5367	788.0628	812.3273	872.5471	960.2712	965.3107	985.076	1036.5778	1070.2808	1082.5256	1089.2622	1097.7991	1145.82	1174.6031	1197.394	1232.7882	1276.946	1306.2236	1342.6848	1377.2799	1396.6326	1465.3268	1473.6465	1491.8045	1516.4384	1609.8172	3025.9812	3059.6631	3120.3863	3164.0743	3179.2435	3209.6666	3248.6893	3668.7035
C1C2CC3=C(NC=N3)C12	C1[C@H]2Cc3c([nH]cn3)[C@@H]12	
InChI=1S/C7H8N2/c1-4-2-6-7(5(1)4)9-3-8-6/h3-5H,1-2H2,(H,8,9)	InChI=1S/C7H8N2/c1-4-2-6-7(5(1)4)9-3-8-6/h3-5H,1-2H2,(H,8,9)/t4-,5-/m0/s1
