18
gdb 64065	2.52205	1.53437	1.213	4.4069	74.18	-0.2534	-0.0674	0.186	1087.6322	0.146764	-439.122205	-439.113301	-439.112357	-439.155693	33.034	
C	-0.1677633548	 1.615580353	 0.0069264279	-0.438181
C	 0.0546199531	 0.1036164636	-0.0254134447	 0.146565
C	-1.286959518	-0.6620652959	 0.0184170889	-0.427193
C	 0.9221159564	-0.3816802746	-1.1997718984	-0.132953
O	 1.7010700184	-1.5014467873	-0.7133502554	-0.243838
C	 1.8157296103	-1.4574098093	 0.6405776865	 0.32213
N	 2.5431427264	-2.1990898946	 1.3567715937	-0.504641
C	 0.8857712194	-0.3776392861	 1.1679948732	 0.307237
O	 0.8121453298	 0.0045437678	 2.3030329233	-0.294257
H	 0.7795800917	 2.160841392	-0.0462998485	 0.124005
H	-0.795776971	 1.9374061837	-0.8300715755	 0.118859
H	-0.6627095859	 1.8969239756	 0.9401296019	 0.145512
H	-1.9099672527	-0.3729038438	-0.8341774354	 0.124356
H	-1.1343062409	-1.7451718509	-0.0239747308	 0.135156
H	-1.8277397377	-0.4293878101	 0.9397854261	 0.142052
H	 0.3430164514	-0.7397714668	-2.0536818514	 0.124606
H	 1.6134796756	 0.3971874001	-1.5421275462	 0.118524
H	 3.0755062786	-2.8537895365	 0.7785868447	 0.232059
66.2535	145.3047	194.7845	201.3631	242.9393	284.4549	328.5319	332.6021	360.9946	449.3516	554.1765	574.7497	643.7224	715.8344	807.3253	857.361	910.4452	942.6507	959.0642	975.8165	987.596	1011.0795	1049.4824	1108.7228	1192.1087	1227.9906	1243.4604	1266.0275	1316.0483	1393.4797	1401.8249	1425.4312	1482.4875	1486.1428	1501.2208	1506.3916	1522.335	1758.3591	1860.0995	3034.1691	3035.1418	3040.8999	3105.024	3106.3006	3108.4731	3120.1109	3124.0011	3459.8868
CC1(C)COC(=N)C1=O	CC1(C)CO[C]([NH])C1=O	
InChI=1S/C6H9NO2/c1-6(2)3-9-5(7)4(6)8/h7H,3H2,1-2H3	InChI=1S/C6H9NO2/c1-6(2)3-9-5(7)4(6)8/h7H,3H2,1-2H3
