19
gdb 126754	3.11249	1.14731	0.91114	1.0598	80.9	-0.2035	0.0154	0.2188	1339.9313	0.160004	-415.409595	-415.399958	-415.399014	-415.444993	34.315	
C	 0.1021317958	 1.5111654149	 0.0240773779	-0.376936
C	 0.0234448916	-0.0131341668	-0.077196625	-0.124333
N	 0.6938319029	-0.5307409765	-1.25578481	 0.134857
N	 0.0447319118	-0.8322982875	-2.3703391278	-0.290169
C	 1.0048590979	-1.1549342791	-3.2421463294	 0.26949
C	 0.720712234	-1.5757969086	-4.6454365892	-0.509611
C	 2.2449259665	-1.0200319551	-2.5787004474	 0.249439
N	 3.5262565253	-1.1874837753	-3.100246151	-0.59436
N	 2.0283047348	-0.623743801	-1.3253605008	-0.314932
H	 1.144352655	 1.8379698743	 0.0631945063	 0.140658
H	-0.3784841613	 1.9806650473	-0.8387706046	 0.133747
H	-0.4041123782	 1.8534324383	 0.9319216366	 0.118158
H	 0.487379312	-0.4823784497	 0.7948959476	 0.128034
H	-1.0121849635	-0.351552848	-0.1452895786	 0.135082
H	 1.2719308565	-0.9599998566	-5.3652253987	 0.134094
H	 1.004995011	-2.6200757252	-4.828101954	 0.12189
H	-0.3465452787	-1.4793163427	-4.8550095666	 0.14436
H	 3.6090665019	-1.99025018	-3.7099626169	 0.247726
H	 4.2265850747	-1.2262163528	-2.3709082884	 0.252805
32.0677	93.3216	94.6811	209.1592	225.1616	234.9108	265.2804	306.2116	316.3446	412.9485	512.4043	625.9462	650.3785	667.0851	702.8181	780.298	795.9374	812.085	962.8168	1015.2891	1031.8571	1066.843	1092.1309	1109.3351	1151.8605	1261.1551	1278.598	1358.894	1387.2938	1403.4858	1406.3914	1412.1223	1429.8525	1474.2325	1481.8316	1488.5652	1493.486	1506.0351	1565.7785	1577.5467	1648.7997	3021.1096	3045.1206	3068.7474	3070.5017	3117.6255	3119.8604	3130.9173	3140.5439	3541.7103	3636.3484
CCN1N=C(C)C(N)=N1	CCn1nc(C)c(N)n1	
InChI=1S/C5H10N4/c1-3-9-7-4(2)5(6)8-9/h3H2,1-2H3,(H2,6,8)	InChI=1S/C5H10N4/c1-3-9-7-4(2)5(6)8-9/h3H2,1-2H3,(H2,6,8)
