18
gdb 6131	2.84704	1.82654	1.59687	3.4951	63.47	-0.2443	0.0595	0.3037	896.1389	0.15143	-422.062015	-422.053163	-422.052219	-422.094503	33.682	
C	 0.5202453523	 1.3780489107	-0.0798161267	-0.462707
C	-0.0150972538	-0.0460349381	-0.0279543059	 0.377053
O	-1.4286696172	-0.0733505724	-0.0666530538	-0.477885
C	 0.7184115136	-1.0502795267	-0.9819073176	-0.32284
C	 1.555862706	-1.554431926	 0.2210868136	 0.053681
O	 2.7859183957	-0.8622477091	 0.4019040934	-0.445383
C	 0.5217646033	-0.8910468933	 1.1711672993	 0.1247
O	 1.0043964158	-0.2659490091	 2.3226125041	-0.434608
H	 1.6120750322	 1.3904048384	-0.0468550509	 0.125888
H	 0.2085727549	 1.8684929183	-1.0112422748	 0.098766
H	 0.1367111834	 1.9540882908	 0.7667134266	 0.13454
H	-1.7269741043	 0.5469256851	-0.7403270768	 0.273189
H	 0.026838755	-1.8123603615	-1.3491124381	 0.108983
H	 1.2822611826	-0.6303192156	-1.8198276992	 0.090368
H	 1.7035843587	-2.6363026413	 0.3150114928	 0.072183
H	 3.3963658658	-1.1265614875	-0.2923984525	 0.291697
H	-0.2584813969	-1.6001940719	 1.4630656969	 0.096216
H	 1.9114552829	 0.0006518492	 2.1256989494	 0.296158
112.761	210.3405	221.9791	242.518	247.0343	262.5309	283.5432	356.439	373.0842	414.095	438.3417	520.6859	594.791	703.9157	796.705	837.8064	859.0299	908.6502	941.6247	972.9155	1038.0925	1093.3045	1116.9527	1162.2741	1166.0805	1187.1702	1216.215	1225.7554	1271.5128	1314.1857	1342.0389	1374.1338	1401.1486	1412.6592	1437.3834	1465.1351	1489.7609	1504.3692	3022.5286	3031.6497	3055.5573	3076.5758	3099.5123	3119.667	3133.568	3776.0901	3803.8253	3834.2143
CC1(O)CC(O)C1O	C[C@@]1(O)C[C@@H](O)[C@H]1O	
InChI=1S/C5H10O3/c1-5(8)2-3(6)4(5)7/h3-4,6-8H,2H2,1H3	InChI=1S/C5H10O3/c1-5(8)2-3(6)4(5)7/h3-4,6-8H,2H2,1H3/t3-,4-,5-/m1/s1
