21
gdb 65221	3.46177	1.11709	1.06054	1.4513	83.2	-0.2285	0.037	0.2654	1243.158	0.182391	-387.083977	-387.075038	-387.074094	-387.117885	34.298	
O	-0.044694367	 1.3418495706	 0.3784047802	-0.473129
C	 0.0372585726	-0.0341750754	 0.091416933	 0.428371
C	 1.0489286065	-0.5203917883	-0.912093989	-0.337223
C	 1.2294787043	-0.8189061241	 0.570714097	-0.337224
C	-1.3430147765	-0.6485141655	 0.1358052924	 0.000545
C	-2.0485622133	-0.5187647165	 1.517751685	-0.271666
C	-3.4970769919	-0.311677967	 1.1499760582	-0.062705
C	-3.6549274019	-0.0506902912	-0.1464218453	-0.062705
C	-2.3415943633	-0.0342733953	-0.8888678183	-0.271666
H	 0.8385810745	 1.7207417609	 0.3471483883	 0.280073
H	 0.782945573	-1.3350733663	-1.5773646733	 0.11557
H	 1.7098935652	 0.215977588	-1.359607249	 0.104636
H	 2.0093413296	-0.2791215849	 1.0997035315	 0.104636
H	 1.086640507	-1.8371848459	 0.9167542766	 0.11557
H	-1.2345104693	-1.7142411633	-0.0919544981	 0.068575
H	-1.8855841613	-1.4000378137	 2.1489632707	 0.09325
H	-1.6591063909	 0.3437263377	 2.0737251274	 0.120757
H	-4.2942385813	-0.3356989677	 1.8853155457	 0.085165
H	-4.6004863879	 0.1706462229	-0.629843206	 0.085165
H	-2.0513049052	 0.9921772064	-1.1473337158	 0.120757
H	-2.3697848927	-0.5994733616	-1.8276897312	 0.09325
76.7595	77.4889	126.2017	182.0379	262.3264	301.8282	350.057	393.5838	469.9279	532.06	575.6157	721.1981	763.3479	780.2079	781.2785	854.9255	873.8493	922.9494	936.4621	973.7786	974.4657	978.0369	981.4325	987.4348	1041.6546	1048.9332	1061.2194	1087.0924	1130.498	1160.1086	1170.5931	1183.7396	1200.6144	1269.6177	1296.9643	1316.6354	1328.8374	1361.9103	1370.1551	1445.2106	1461.7036	1484.3113	1491.1706	1504.2886	1689.7884	3024.9157	3025.9885	3036.8675	3055.7378	3065.1003	3119.98	3124.4655	3176.4024	3199.147	3202.3673	3213.9869	3833.0056
OC1(CC1)C1CC=CC1	OC1(CC1)[C@H]1CC=CC1	
InChI=1S/C8H12O/c9-8(5-6-8)7-3-1-2-4-7/h1-2,7,9H,3-6H2	InChI=1S/C8H12O/c9-8(5-6-8)7-3-1-2-4-7/h1-2,7,9H,3-6H2
