15
gdb 106574	2.75006	1.5374	1.2556	1.8943	66.21	-0.2591	-0.016	0.243	1006.2759	0.111495	-457.725316	-457.717502	-457.716558	-457.758119	29.148	
O	 0.0409262005	 1.4658216024	 0.0389433478	-0.411785
C	 0.0517048322	 0.0487694748	 0.0383061395	-0.187474
C	-1.3343558721	-0.525396607	-0.0476465457	 0.214873
O	-2.1435383841	-0.3712035834	 1.1661086876	-0.308137
C	-3.0690278594	-1.3343744728	 0.590995336	-0.104636
C	-3.468861319	-0.6871320978	-0.7152177757	-0.088216
C	-2.3126745716	-0.1436909722	-1.1384121224	-0.119988
C	-1.7439412169	-2.0685471832	 0.096277211	 0.395922
O	-1.2657954696	-3.1449907287	 0.0213009999	-0.294669
H	-0.5065983757	 1.7457899887	 0.780957831	 0.295713
H	 0.6238423943	-0.261105419	-0.8421512518	 0.128369
H	 0.5570131917	-0.3591687164	 0.9253029805	 0.113048
H	-3.7963966362	-1.7487375295	 1.283669391	 0.108392
H	-4.4300001241	-0.7529178469	-1.2029015046	 0.12691
H	-2.0719019702	 0.3656179409	-2.0594480042	 0.131678
63.2059	122.6351	158.769	268.2963	297.7604	376.2177	437.058	525.133	568.2276	650.1198	690.2573	764.877	782.4305	806.5896	878.5137	880.6893	912.3568	926.1759	950.2437	996.535	1038.5472	1082.2374	1098.6643	1131.1945	1231.0524	1264.1143	1300.1765	1353.0848	1383.18	1430.9293	1489.5575	1577.9286	1928.6865	3009.2274	3084.8606	3171.3777	3239.3238	3263.0237	3807.1706
OCC12OC(C=C1)C2=O	OC[C@@]12O[C@@H](C=C1)C2=O	
InChI=1S/C6H6O3/c7-3-6-2-1-4(9-6)5(6)8/h1-2,4,7H,3H2	InChI=1S/C6H6O3/c7-3-6-2-1-4(9-6)5(6)8/h1-2,4,7H,3H2/t4-,6-/m0/s1
