18
gdb 94419	2.50411	1.35133	1.2563	4.2809	72.77	-0.2419	0.0289	0.2708	1099.5399	0.14791	-439.090877	-439.082303	-439.081358	-439.124306	31.983	
O	 0.5102770626	 0.8533322735	-0.6884059898	-0.422407
C	 0.1360499705	-0.2330104241	 0.1143502099	 0.098496
C	 0.0316068157	-0.0748444985	 1.6514826985	-0.269722
C	-1.2058032443	-1.0134603555	 1.6139134999	-0.299526
C	-1.3357567491	-0.7562040386	 0.0935272478	 0.142306
C	-2.4688639787	 0.1261532515	-0.5052764191	-0.233023
N	-2.7951612589	-1.0104378277	-1.3746798351	-0.336759
C	-1.7908753619	-1.8288621383	-0.9131911063	 0.382868
O	-1.4264122529	-2.93653404	-1.2073221552	-0.370282
H	 0.0778067578	 1.6432737133	-0.347621754	 0.280433
H	 0.8042632016	-1.056097655	-0.1568915311	 0.1174
H	 0.8930461286	-0.3655134592	 2.2564390308	 0.11076
H	-0.2537937541	 0.9495004759	 1.918734386	 0.09375
H	-0.9447350219	-2.05676901	 1.8087736848	 0.130474
H	-2.0622435122	-0.7425095517	 2.2345795636	 0.108065
H	-3.2690324137	 0.4030463624	 0.1892041063	 0.109982
H	-2.1192872507	 1.0112281513	-1.0478598318	 0.106661
H	-3.4145632884	-1.0917787395	-2.1673873653	 0.250523
84.1313	108.9404	135.5049	202.9937	258.7107	305.0709	346.8068	428.2295	445.8637	545.8206	622.5063	673.4844	702.7317	779.7674	806.3837	863.9918	909.0068	937.4056	971.5643	994.7167	1067.201	1084.9459	1139.0931	1149.2538	1167.5778	1179.4045	1200.5423	1239.5607	1251.4638	1280.9205	1285.4337	1300.7335	1318.3884	1391.2157	1429.1961	1477.1159	1492.6639	1517.1209	1889.6684	3030.4168	3038.9899	3067.2255	3072.738	3078.5408	3107.9201	3124.1944	3609.033	3810.7572
OC1CCC11CNC1=O	O[C@H]1CC[C@]21CNC2=O	
InChI=1S/C6H9NO2/c8-4-1-2-6(4)3-7-5(6)9/h4,8H,1-3H2,(H,7,9)	InChI=1S/C6H9NO2/c8-4-1-2-6(4)3-7-5(6)9/h4,8H,1-3H2,(H,7,9)/t4-,6+/m0/s1
