13
gdb 129654	2.016	1.00233	0.71977	4.8251	61.54	-0.24	-0.0466	0.1935	1475.4142	0.083624	-486.132047	-486.120061	-486.119117	-486.17567	35.646	
N	-0.0915652653	 1.4066594722	 0.1245274238	-0.546145
C	-0.1539301766	 0.0986151683	-0.2381854352	 0.41612
C	-1.5210021635	-0.4628365268	-0.221204171	-0.230016
N	-2.6753470915	 0.3099822871	 0.1397389253	-0.589943
C	-1.640744276	-1.7453232588	-0.5654806987	 0.52746
O	-1.8239761501	-2.8500882224	-0.8560783041	-0.20345
N	 1.3541717441	-3.2824106715	 0.8215503283	 0.00054
N	 2.4419678133	-3.2883144664	 0.668550607	-0.006192
O	 0.8165949051	-0.5776967758	-0.5526628119	-0.403951
H	 0.7992864943	 1.8714414297	 0.1104978554	 0.262266
H	-0.9366752354	 1.9072246146	 0.3427496262	 0.264722
H	-3.3544786389	 0.3945113719	-0.6080450417	 0.254037
H	-3.1438899396	-0.0294058421	 0.9722247365	 0.25455
9.7016	12.6669	30.0167	51.3962	67.7377	82.0613	105.6072	138.5778	249.1697	262.4248	320.0075	449.3695	483.7671	593.8411	613.4548	674.9602	731.247	768.8967	783.0783	1078.3026	1192.7607	1198.7358	1330.4006	1398.5111	1585.985	1654.9588	1750.0237	2213.7101	2432.9065	3506.5681	3585.415	3602.5984	3747.9871	9.7012	12.6653	30.0161	51.396	67.7379	82.0615	105.6076	138.5774	249.1705	262.425	320.0086	449.3695	483.7671	593.841	613.4548	674.9602	731.2472	768.8968	783.0789	1078.3027	1192.7607	1198.7351	1330.4008	1398.5113	1585.9849	1654.9579	1750.024	2213.7091	2432.9064	3506.5684	3585.4152	3602.5984	3747.9871
NC1=C(N)C(=O)N=NO1	NC(=O)[C](N)[C][O].N#N	
InChI=1S/C3H4N4O2/c4-1-2(5)9-7-6-3(1)8/h4-5H2	InChI=1S/C3H4N2O2.N2/c4-2(1-6)3(5)7;1-2/h4H2,(H2,5,7);
