14
gdb 101964	1.80279	1.45506	1.29735	3.9821	67.68	-0.2891	-0.0796	0.2096	1094.7931	0.098265	-432.86213	-432.85249	-432.851546	-432.897368	32.407	
C	-0.0140777411	 1.4792145369	 0.1606565895	-0.347479
N	 0.0483155466	 0.0224025682	-0.0126502165	-0.303269
C	 0.5965372117	-0.4439115471	-1.2834759429	-0.151424
C	 0.3684388662	-1.9971321445	-1.2574269729	 0.162274
O	 1.2529660437	-2.7882611757	-1.1456268303	-0.204453
C	-0.1956552889	 0.0912377261	-2.4045265326	 0.314236
N	-0.8381935273	 0.4598258297	-3.2901206271	-0.310311
C	 2.0280180488	-0.1205633354	-1.4785715117	 0.311685
N	 3.14566709	 0.1613129092	-1.5483574984	-0.315144
H	 0.9608701819	 1.9758346895	 0.0567949396	 0.139693
H	-0.7049216538	 1.9022994745	-0.572861394	 0.163299
H	-0.4107554751	 1.6824008799	 1.1574588983	 0.145327
H	 0.5965220472	-0.3958034025	 0.7331651817	 0.253418
H	-0.7065285599	-2.2540312288	-1.2905675227	 0.142148
45.8653	100.7464	130.4344	149.5951	156.6729	200.2363	255.7276	289.9505	387.3244	388.6802	499.9658	515.3402	574.0302	657.7335	716.2871	767.7443	941.405	986.4337	1053.9633	1105.6015	1134.0782	1167.2714	1227.3863	1389.6595	1459.1767	1485.794	1494.8556	1519.9078	1858.556	2358.3131	2367.1427	2975.6211	3009.6972	3101.4762	3138.3653	3522.4295
CNC(C=O)(C#N)C#N	CNC(C=O)(C#N)C#N	
InChI=1S/C5H5N3O/c1-8-5(2-6,3-7)4-9/h4,8H,1H3	InChI=1S/C5H5N3O/c1-8-5(2-6,3-7)4-9/h4,8H,1H3
