15
gdb 133152	2.29006	1.84948	1.02958	1.254	73.64	-0.2155	-0.0514	0.1641	1070.8103	0.113268	-458.110703	-458.102891	-458.101947	-458.143042	29.409	
C	-0.0565795924	 1.5430529699	 0.0210095581	-0.486482
C	-0.0225599957	 0.0493861932	-0.0183793073	 0.115301
C	-0.0919217314	-0.6850769769	-1.1511838497	 0.204801
F	-0.1989406631	-0.1041578896	-2.3486886081	-0.069452
C	-0.0556824412	-2.1153113801	-1.1428091199	-0.097163
N	 0.046300592	-2.7896027407	-0.0397724147	-0.18092
N	 0.1158416749	-2.0731551761	 1.0915687798	-0.304545
C	 0.0932115947	-0.6782705649	 1.2443153628	 0.326256
N	 0.1648461384	-0.0602195764	 2.367287147	-0.549483
H	 0.8482049076	 1.9257419586	 0.5039727617	 0.153873
H	-0.1447020931	 1.964388625	-0.9807146685	 0.129814
H	-0.894033789	 1.8825393754	 0.6389067845	 0.15387
H	-0.1133148437	-2.6738545219	-2.0690552175	 0.139455
H	 0.1943779695	-2.6389838783	 1.9238200535	 0.265732
H	 0.2418221125	-0.7047297873	 3.1549340085	 0.198944
122.7566	141.1768	186.2094	268.9695	282.1337	344.5174	482.7819	493.9942	521.4518	557.0145	609.1942	676.9235	680.4021	745.3532	785.6094	856.8949	878.5164	936.9343	1059.6029	1078.0126	1158.0417	1177.0104	1207.3023	1267.4517	1376.1317	1401.1326	1422.4955	1464.7819	1472.0418	1474.9022	1611.7375	1679.8898	1708.0665	3047.8463	3099.6203	3152.2919	3210.6989	3466.0301	3613.0964
CC1=C(F)C=NNC1=N	CC1=C(NN=C[C@@H]1F)[NH]	
InChI=1S/C5H6FN3/c1-3-4(6)2-8-9-5(3)7/h2H,1H3,(H2,7,9)	InChI=1S/C5H7FN3/c1-3-4(6)2-8-9-5(3)7/h2,4,7,9H,1H3/t4-/m0/s1
