22
gdb 101212	2.762	1.03727	0.78722	2.7849	84.14	-0.228	-0.0216	0.2064	1481.2866	0.191873	-404.343279	-404.333345	-404.332401	-404.378355	36.77	
C	 0.5133596082	 1.2828194021	-0.1538497384	-0.396305
C	 0.0941157289	-0.1788740223	 0.0400404243	-0.159145
C	-1.4167612305	-0.4693143974	 0.1259536166	 0.058136
C	-1.6511219531	-1.9793471551	-0.0053133484	-0.392866
N	-1.9958885783	-0.0065764964	 1.3857803001	-0.083599
C	-3.4388501486	-0.2649463368	 1.6220372975	-0.296327
C	-3.5434011639	 1.1548135287	 2.1896294958	 0.395413
O	-4.3594629525	 1.7638170927	 2.8120073822	-0.283618
C	-2.1445791314	 1.4495945649	 1.6381002673	-0.292761
H	 1.5880220942	 1.3442021628	-0.3522541508	 0.113588
H	-0.0039670077	 1.7360497819	-1.0071042387	 0.112874
H	 0.3126253637	 1.8991913163	 0.7254708219	 0.123615
H	 0.4819620663	-0.7582299849	-0.8065410454	 0.096002
H	 0.5683600925	-0.5890534976	 0.9398357709	 0.104423
H	-1.9146771326	 0.0343829272	-0.7304269588	 0.04661
H	-2.714294473	-2.2333970711	 0.0251004509	 0.115463
H	-1.2511578213	-2.3445072162	-0.955421617	 0.115182
H	-1.1513272827	-2.5134402605	 0.8094466379	 0.124671
H	-4.0458695589	-0.3599236074	 0.7051144502	 0.116312
H	-3.6732941357	-1.0998834626	 2.289930726	 0.13231
H	-1.4191141917	 1.8923098773	 2.3275036556	 0.132363
H	-2.2006079021	 2.0705733445	 0.7288292402	 0.117659
68.2841	89.6912	112.5271	173.9696	219.2072	241.0569	268.7652	297.2679	353.6352	416.6507	449.0058	464.9275	534.7738	622.8501	736.5159	782.9896	801.4303	845.8658	938.2445	968.8488	1009.5011	1021.2204	1047.445	1059.9022	1086.9101	1091.9127	1097.3563	1153.4991	1161.3235	1182.7883	1221.9168	1258.8312	1286.6657	1311.9927	1329.2461	1381.2253	1391.1669	1411.5206	1415.3104	1456.62	1475.236	1482.7448	1494.0837	1501.2689	1504.3031	1510.4888	1921.1631	2864.3237	2960.6194	2976.7729	3027.3918	3036.7071	3041.5174	3065.6645	3072.7049	3074.4476	3097.7769	3112.8014	3116.0902	3123.5814
CCC(C)N1CC(=O)C1	CC[C@@H](C)N1CC(=O)C1	
InChI=1S/C7H13NO/c1-3-6(2)8-4-7(9)5-8/h6H,3-5H2,1-2H3	InChI=1S/C7H13NO/c1-3-6(2)8-4-7(9)5-8/h6H,3-5H2,1-2H3/t6-/m1/s1
