17
gdb 46079	4.47017	0.99896	0.85277	5.494	68.93	-0.2855	0.0437	0.3292	1317.5942	0.137052	-459.002121	-458.994251	-458.993307	-459.03555	28.807	
O	-0.1284614166	-0.0338965351	 0.2575336948	-0.371207
C	-0.0674126194	 1.1483897279	 0.1491489273	 0.496887
O	-1.0958201112	 2.0012272551	 0.4040055085	-0.242449
C	-0.7251846266	 3.3262895445	 0.0215790033	-0.121103
C	 0.8063872487	 3.2559038671	-0.1166296807	 0.091796
O	 1.0326436965	 1.8375280384	-0.2437839806	-0.257872
C	 1.3737251852	 3.996128321	-1.2895518852	-0.001646
C	 1.7852330541	 5.4415706151	-1.1160040591	-0.273679
C	 2.8309728433	 4.3772073242	-1.3097684235	-0.266864
H	-1.2096877736	 3.5767506591	-0.9291265507	 0.122647
H	-1.058299843	 4.0251935954	 0.7906033579	 0.134168
H	 1.2985749506	 3.5854828951	 0.8076498457	 0.095137
H	 0.9234237624	 3.7240820968	-2.2401500877	 0.098573
H	 1.5804456021	 6.1260106476	-1.9307348465	 0.124535
H	 1.6878409522	 5.8848033905	-0.130302109	 0.118593
H	 3.4376479948	 4.0965578011	-0.4556518391	 0.126182
H	 3.3504670906	 4.3288485463	-2.2594399754	 0.126301
68.3166	74.8556	150.5414	200.8107	279.7099	378.9003	407.3917	559.6201	685.8486	724.5671	776.1964	781.5142	834.7689	863.8806	901.8554	929.4447	958.843	992.6818	1055.1236	1071.0532	1082.4723	1086.3359	1102.1757	1132.3902	1162.9045	1197.4301	1206.7633	1226.2038	1243.9902	1325.4784	1359.5637	1399.398	1448.4845	1471.062	1507.572	1522.3017	1926.7044	3021.5631	3043.7968	3118.6958	3136.1098	3142.2628	3150.5702	3216.9367	3231.9531
O=C1OCC(O1)C1CC1	O=C1OC[C@@H](O1)C1CC1	
InChI=1S/C6H8O3/c7-6-8-3-5(9-6)4-1-2-4/h4-5H,1-3H2	InChI=1S/C6H8O3/c7-6-8-3-5(9-6)4-1-2-4/h4-5H,1-3H2/t5-/m1/s1
