21
gdb 117701	2.23374	0.94137	0.7924	3.4645	76.09	-0.2666	0.0076	0.2742	1526.9205	0.178688	-461.385959	-461.37498	-461.374036	-461.422283	39.007	
C	-0.0897033253	 1.5577360549	-0.0010896145	-0.415977
C	 0.0415766497	 0.0337326038	 0.1008896052	 0.319417
C	 0.8458779792	-0.3813630785	 1.3402851703	-0.422296
C	-1.3545164371	-0.609955606	 0.0801910393	-0.206389
C	-1.3836029743	-2.1415659395	 0.1429048718	-0.083298
O	-2.709631151	-2.6412433477	 0.0579824738	-0.416939
O	 0.6709121374	-0.4884406584	-1.1172236159	-0.226615
C	 1.9300775938	-0.155030485	-1.4357322792	 0.166074
O	 2.466984902	-0.559574279	-2.426226719	-0.282104
H	 0.8851539395	 2.05356052	 0.0056555448	 0.120428
H	-0.6128553071	 1.8355330445	-0.9202040331	 0.133965
H	-0.6610521308	 1.9402555753	 0.8498897903	 0.128106
H	 0.2662828434	-0.1706065167	 2.244120928	 0.130464
H	 1.0762783199	-1.4490574479	 1.3215901432	 0.140842
H	 1.7871651659	 0.1694785377	 1.4182852469	 0.122016
H	-1.940075364	-0.2088520649	 0.9146568454	 0.107443
H	-1.8532803867	-0.2898616882	-0.8434361556	 0.098753
H	-0.7398873894	-2.5604833043	-0.6416297675	 0.115268
H	-1.0031507635	-2.4961591376	 1.1057594922	 0.11029
H	-3.0305483983	-2.4730865281	-0.8337006582	 0.28334
H	 2.4185776969	 0.5173123656	-0.7093065482	 0.077212
76.7747	85.4723	98.697	130.8858	175.8896	221.8575	237.3833	252.4541	296.7185	333.9182	346.3417	363.3979	376.2023	468.6746	549.1162	593.9097	776.7608	819.5444	922.1977	933.4679	955.9799	992.1192	1042.6952	1049.3857	1068.485	1075.93	1136.4388	1173.5198	1200.377	1235.0413	1277.6384	1324.5826	1343.0177	1400.8404	1404.3432	1417.6607	1425.1675	1435.669	1469.298	1482.9749	1490.9079	1502.6044	1509.8819	1518.0195	1850.8505	2984.1167	3021.6144	3028.8119	3042.925	3049.5292	3070.7709	3093.1039	3111.9443	3118.0731	3123.4042	3130.9435	3816.4647
CC(C)(CCO)OC=O	CC(C)(CCO)OC=O	
InChI=1S/C6H12O3/c1-6(2,3-4-7)9-5-8/h5,7H,3-4H2,1-2H3	InChI=1S/C6H12O3/c1-6(2,3-4-7)9-5-8/h5,7H,3-4H2,1-2H3
