19
gdb 99187	5.15587	0.7264	0.66932	2.5037	71.9	-0.2492	-0.0331	0.216	1645.7518	0.157334	-460.151444	-460.14186	-460.140915	-460.187931	33.18	
O	 0.2212859463	 1.3019293458	-0.2808763794	-0.418379
C	 0.0709136148	-0.0473893385	 0.0393608898	-0.124075
C	-1.3661135309	-0.512184947	-0.1584422898	 0.350333
O	-2.2063317322	 0.2977752361	-0.4936516598	-0.315755
C	-1.6863980005	-1.9765460934	 0.0658951476	-0.339282
C	-3.1801112872	-2.262451993	 0.1052834675	-0.011308
C	-3.9672873164	-2.1575627167	-1.2191284722	-0.069058
O	-4.4006418149	-3.5318669207	-1.1220204708	-0.271306
C	-3.6235858562	-3.7425923712	 0.0713356508	-0.096711
H	-0.6723448833	 1.6096359054	-0.5025551739	 0.29529
H	 0.7323524585	-0.6800883478	-0.575023904	 0.116656
H	 0.3461362156	-0.2480262004	 1.089617297	 0.115081
H	-1.207027771	-2.5440542159	-0.7457760472	 0.13806
H	-1.1898327034	-2.3116416006	 0.9865634316	 0.12677
H	-3.6450320854	-1.6932493522	 0.9127803638	 0.093903
H	-4.8079651993	-1.4565602761	-1.2274436807	 0.113815
H	-3.3531593807	-1.9828668617	-2.1124403304	 0.098171
H	-2.8113815507	-4.4665020709	-0.0882407242	 0.093575
H	-4.239268973	-4.0850906613	 0.9117291641	 0.104221
32.3723	60.1772	68.4808	105.285	145.8068	263.7235	313.7395	359.7733	395.1485	431.8741	488.8699	689.9125	756.6687	809.0594	871.2935	881.3153	901.1008	970.8901	983.3835	1028.1731	1039.5071	1086.5086	1113.2727	1147.6988	1151.5172	1157.3181	1164.6639	1229.6471	1255.2387	1269.1157	1309.1113	1311.5197	1344.6445	1377.9128	1405.1957	1446.746	1452.617	1491.566	1512.5828	1537.691	1789.8323	2962.2513	2986.812	2993.1746	3009.947	3017.2242	3044.6989	3046.5908	3070.3079	3094.7708	3684.9691
OCC(=O)CC1COC1	OCC(=O)CC1COC1	
InChI=1S/C6H10O3/c7-2-6(8)1-5-3-9-4-5/h5,7H,1-4H2	InChI=1S/C6H10O3/c7-2-6(8)1-5-3-9-4-5/h5,7H,1-4H2
