20
gdb 16019	3.75499	1.7442	1.43389	1.1978	74.6	-0.2386	0.0869	0.3255	939.3126	0.17958	-349.003769	-348.996622	-348.995678	-349.034751	28.975	
C	 0.0058620657	 1.5320277309	 0.0102087158	-0.334444
C	 1.3122763871	 0.7695739124	-0.0063516734	-0.302881
C	-0.0059175506	 0.0290589391	 0.0022659648	 0.393935
C	-0.4061823986	-0.7280414144	 1.2592452893	-0.279234
C	 0.0702155849	-2.1820899607	 1.1660337258	-0.069416
O	-0.4096638722	-2.813730236	-0.0091057267	-0.24603
C	 0.0477450247	-2.1694872594	-1.1863636389	-0.069416
C	-0.4301980387	-0.714572221	-1.2548757641	-0.279235
H	-0.2750368593	 2.0419275052	 0.9263700584	 0.107975
H	-0.2924176143	 2.0516724177	-0.8949175985	 0.107974
H	 1.8952664873	 0.7773516262	-0.9217174559	 0.107876
H	 1.912629543	 0.7675917074	 0.8977530415	 0.107876
H	 0.012018795	-0.2536947324	 2.1548155946	 0.089053
H	-1.4990614251	-0.7217016531	 1.3641782988	 0.101486
H	 1.1733927549	-2.2138035493	 1.1880088936	 0.084389
H	-0.3021319415	-2.7762129875	 2.0058635186	 0.102582
H	 1.1502977443	-2.200850632	-1.2297459907	 0.084389
H	-0.3406377969	-2.7546176151	-2.0252439518	 0.102582
H	-1.5248810693	-0.7072202736	-1.3388410559	 0.101486
H	-0.0291299602	-0.2306171044	-2.1531382153	 0.089053
133.7165	202.6556	283.2619	312.2616	366.0242	395.7941	455.4069	481.6639	601.5312	692.4354	782.9683	827.9366	855.2754	885.1484	903.285	926.0543	960.7119	985.8466	1014.9886	1032.6482	1056.563	1066.9283	1080.8684	1134.2808	1142.6309	1186.9366	1206.1135	1212.2388	1257.3554	1307.2484	1319.3519	1353.0667	1361.2492	1389.4689	1395.4608	1426.9354	1467.2215	1467.5206	1480.943	1491.3128	1503.7046	1509.1091	2955.1631	2960.9475	3016.8703	3020.8382	3064.8277	3067.0321	3080.7054	3083.2998	3121.7155	3126.9248	3198.94	3213.2647
C1CC11CCOCC1	C1CC21CCOCC2	
InChI=1S/C7H12O/c1-2-7(1)3-5-8-6-4-7/h1-6H2	InChI=1S/C7H12O/c1-2-7(1)3-5-8-6-4-7/h1-6H2
