17
gdb 84236	2.98563	1.54612	1.35537	1.7579	75.68	-0.2144	-0.0369	0.1775	987.586	0.13517	-421.706555	-421.698906	-421.697962	-421.738228	30.718	
O	-0.0312500011	 1.4210313684	 0.2322974064	-0.424871
C	 0.075918967	 0.0184514464	 0.0439494951	 0.081628
C	 0.6398241457	-0.6124907438	 1.3403643185	-0.147344
C	-0.1693687796	-1.6100780741	 1.7390850069	-0.027327
C	-1.3191602725	-1.2679743936	 2.6945735689	-0.264523
C	-2.1015879669	-1.110497911	 1.3340102868	-0.113532
C	-1.3004708558	-0.6432964006	 0.0226959601	-0.13131
C	-1.1617539366	-2.0012530492	 0.6136348975	 0.349651
O	-1.406744013	-3.2448123805	 0.0742211627	-0.465573
H	 0.8378510037	 1.8110106863	 0.0908007739	 0.285556
H	 0.6086655175	-0.1944618878	-0.8974047082	 0.065686
H	 1.1314517164	 0.0622363462	 2.0375876613	 0.095063
H	-1.7654277164	-2.0941921909	 3.2585705943	 0.114277
H	-1.1752125626	-0.3965797442	 3.3384925954	 0.108039
H	-3.1858770181	-1.1066661674	 1.2549581345	 0.100711
H	-1.9693214373	-0.480920669	-0.8198414706	 0.086831
H	-0.6806510602	-3.4649817651	-0.5203136836	 0.287038
119.371	225.3186	235.0292	301.09	314.3474	348.079	430.1342	499.1287	556.0986	572.2292	602.0185	691.3896	740.4845	799.6983	847.1814	881.1746	919.5328	943.3676	974.0819	990.8158	1014.7103	1038.9107	1048.1351	1086.1108	1092.5014	1149.7641	1165.0448	1213.5678	1243.24	1267.7625	1282.6651	1291.1333	1321.9197	1415.8096	1473.4632	1498.6183	1598.1773	2951.9947	3038.0259	3105.7693	3141.334	3149.7861	3151.7219	3792.0918	3810.0286
OC1C=C2CC3C1C23O	O[C@H]1[CH][C]2C[C@H]3[C@@H]1[C@@]23O	
InChI=1S/C7H8O2/c8-5-2-3-1-4-6(5)7(3,4)9/h2,4-6,8-9H,1H2	InChI=1S/C7H8O2/c8-5-2-3-1-4-6(5)7(3,4)9/h2,4-6,8-9H,1H2/t4-,5-,6-,7+/m0/s1
