19
gdb 111043	2.85637	1.21163	1.01029	3.3787	77.82	-0.2419	-0.0269	0.215	1235.6404	0.158053	-422.971797	-422.963015	-422.962071	-423.006038	31.968	
C	-0.1384396025	 1.4401007421	 0.2705904594	-0.245338
O	 0.3244604503	 0.1575920878	-0.101791514	-0.258583
C	 0.8461623269	-0.5733947264	 0.9648674095	 0.141597
C	-0.0985533416	-1.4059190553	 1.8950317275	-0.107693
C	-0.3735967973	-2.3222383289	 0.6655858819	-0.269326
C	 1.1771735349	-2.0680941293	 0.6649430016	 0.211226
C	 1.1463021758	-2.2891317637	 2.1992887732	-0.264549
C	 2.1734408258	-2.5778775189	-0.3179296721	 0.02228
O	 3.1243804683	-3.2618546301	-0.0269414526	-0.24861
H	 0.6607675093	 2.0374729702	 0.7348390426	 0.111442
H	-0.4696910474	 1.9407240639	-0.6417070096	 0.132962
H	-0.9820185024	 1.3830851678	 0.9732573342	 0.112998
H	 1.6396426294	-0.0096554367	 1.4777468826	 0.072272
H	-0.825934196	-1.0317544707	 2.6156031845	 0.077817
H	-0.6796090018	-3.3482633497	 0.8827088243	 0.100809
H	-0.9366375404	-1.8859556147	-0.1578628974	 0.117945
H	 1.9556548517	-1.8363411059	 2.7774847564	 0.102272
H	 0.9416323668	-3.3097360651	 2.525429678	 0.108925
H	 1.97929307	-2.2780035063	-1.37252751	 0.081554
57.1904	85.2561	129.5626	180.2665	219.6436	259.5523	332.1168	390.4912	509.9964	547.4127	579.9102	715.0263	794.9598	820.1379	898.4051	906.3816	945.1966	984.5994	1011.8076	1022.2935	1054.3789	1074.433	1088.9205	1140.0776	1154.5966	1166.3836	1169.9618	1185.3152	1213.745	1226.9716	1241.1317	1245.5545	1316.0239	1400.885	1422.6808	1481.602	1488.0317	1493.0285	1507.6212	1532.773	1813.5224	2877.6874	2983.0886	2998.0441	3035.9417	3067.072	3074.7551	3112.4704	3122.7991	3137.8781	3159.5664
COC1C2CC1(C2)C=O	CO[C@H]1[C@H]2C[C@@]1(C2)C=O	
InChI=1S/C7H10O2/c1-9-6-5-2-7(6,3-5)4-8/h4-6H,2-3H2,1H3	InChI=1S/C7H10O2/c1-9-6-5-2-7(6,3-5)4-8/h4-6H,2-3H2,1H3/t5-,6-,7+/m0/s1
