21
gdb 126300	3.74572	0.8691	0.79371	2.3953	86.67	-0.2275	0.0295	0.257	1567.4005	0.183529	-383.312776	-383.303064	-383.302119	-383.348734	35.039	
C	-0.0659423577	 1.5931924409	-0.3313306937	-0.365451
C	-0.0601042525	 0.1471876129	 0.1980045739	-0.301892
C	-1.4133984534	-0.4935837601	 0.1952228455	 0.395189
C	-2.3494000236	-0.683551426	 1.1926740427	-0.387221
C	-3.4513487755	-1.3200723718	 0.5681478793	 0.353706
C	-4.7540068784	-1.7422927088	 1.1796120454	-0.281842
C	-5.6666359076	-0.5569175875	 1.5360727621	-0.368536
N	-3.2170792733	-1.5131785065	-0.7286753017	-0.295879
N	-1.9829184915	-1.0019411901	-0.9292121136	-0.256958
H	 0.9409855408	 2.0209030014	-0.3041855664	 0.115896
H	-0.4235739042	 1.6357758215	-1.364974077	 0.117026
H	-0.7242218139	 2.2241191759	 0.2727395001	 0.128897
H	 0.6371992563	-0.4564254476	-0.3972789553	 0.107062
H	 0.3237268293	 0.134634732	 1.2227877128	 0.120054
H	-2.2451453805	-0.4068496978	 2.2303593693	 0.092883
H	-5.26336786	-2.4022534344	 0.4708291881	 0.115085
H	-4.559768098	-2.332747389	 2.0836386123	 0.100836
H	-6.6026957719	-0.9050018231	 1.9844399761	 0.108615
H	-5.1811895309	 0.1166016824	 2.2498003946	 0.114051
H	-5.9117622828	 0.0256503467	 0.6427845716	 0.123496
H	-1.5790424209	-1.0558043311	-1.8489887762	 0.264981
37.8926	41.926	102.9589	175.2836	196.9129	220.8024	295.9937	324.0157	406.7847	439.1951	518.0145	581.0227	699.49	722.8488	738.8743	784.4092	791.1382	812.3205	959.5609	965.5012	1008.6838	1048.635	1061.5956	1063.4615	1085.1585	1086.6132	1169.88	1184.6185	1258.7609	1280.1073	1324.8618	1351.0464	1354.3719	1405.7861	1409.7527	1438.8744	1474.9536	1479.6553	1483.2771	1495.5141	1496.9046	1497.1899	1506.1506	1512.6772	1611.1307	3026.208	3029.769	3034.4477	3038.7578	3078.0246	3081.55	3105.0667	3110.1966	3112.4253	3118.0719	3252.1892	3668.6713
CCC1=CC(CC)=NN1	CCc1cc(CC)n[nH]1	
InChI=1S/C7H12N2/c1-3-6-5-7(4-2)9-8-6/h5H,3-4H2,1-2H3,(H,8,9)	InChI=1S/C7H12N2/c1-3-6-5-7(4-2)9-8-6/h5H,3-4H2,1-2H3,(H,8,9)
