18
gdb 19585	4.00791	1.98887	1.8316	1.7843	69.96	-0.2511	0.0926	0.3437	807.6073	0.155704	-347.755683	-347.749342	-347.748398	-347.785711	26.415	
C	-0.1435619993	 1.5479481735	 0.0056983224	-0.442759
C	-0.0096572164	 0.0305182753	 0.013953473	 0.068022
C	 1.0908835945	-0.5989190789	-0.8980214444	-0.089436
C	 2.1075932584	-0.2728908214	 0.253159168	-0.230694
C	 0.8588493266	-0.608287982	 1.1438710601	-0.089443
C	 0.7484783313	-2.119596127	 0.8265397419	 0.040308
O	-0.3327674291	-2.513559371	-0.0344403747	-0.253073
C	 0.913684417	-2.1129288266	-0.6272457699	 0.040308
H	 0.8056724837	 2.079008498	 0.1163018894	 0.114469
H	-0.5996791012	 1.8817856702	-0.9329508546	 0.117222
H	-0.7994672888	 1.8736827678	 0.8207048764	 0.117224
H	-0.9955575847	-0.4198078665	-0.1001508432	 0.095274
H	 1.2474443792	-0.278043293	-1.9281892038	 0.060297
H	 2.9808375009	-0.9256532274	 0.3493990914	 0.091038
H	 2.4236100088	 0.7700589208	 0.2938512192	 0.101454
H	 0.7799488372	-0.2969196754	 2.1857645455	 0.060299
H	 1.1239454087	-2.88141011	 1.5013806914	 0.099746
H	 1.4317923933	-2.8689767365	-1.2075073481	 0.099745
191.6664	268.7761	269.5959	396.7187	416.4865	510.1904	605.4603	681.1562	771.8827	788.8276	841.6794	842.0294	870.7648	895.7375	906.9109	925.4616	972.2457	1008.9262	1031.8952	1060.8966	1074.0864	1094.1051	1106.7931	1112.0011	1120.179	1215.0652	1224.1901	1249.4978	1260.092	1265.0648	1275.8371	1300.0813	1375.7215	1405.5151	1413.3009	1492.3037	1498.6719	1514.733	3031.828	3056.2293	3089.8823	3096.3524	3110.2013	3110.2257	3119.4672	3131.4213	3166.8775	3179.0474
CC1C2CC1C1OC21	C[C@H]1[C@H]2C[C@@H]1[C@H]1O[C@@H]21	
InChI=1S/C7H10O/c1-3-4-2-5(3)7-6(4)8-7/h3-7H,2H2,1H3	InChI=1S/C7H10O/c1-3-4-2-5(3)7-6(4)8-7/h3-7H,2H2,1H3/t3-,4+,5-,6-,7+
