19
gdb 88500	2.22951	1.45311	1.18291	0.6185	82.28	-0.2239	0.0318	0.2557	1147.6333	0.157588	-381.965369	-381.956146	-381.955201	-381.999368	34.794	
C	 0.1164457671	 1.5789329555	-0.4478395209	-0.326866
N	-0.0147642744	 0.1767861182	-0.0690062632	-0.08824
C	 1.1541124848	-0.6895360097	-0.1586846551	-0.271627
C	 0.5859937274	-0.3168802382	 1.1671552849	-0.044001
C	 1.3337662624	 0.5418224314	 2.1683268297	 0.104959
C	 0.5055316231	 1.1694524557	 3.2517784448	-0.261954
N	 1.3812439555	 0.0434674865	 3.5700938217	-0.346347
C	 2.5481888096	 1.1984419381	 1.7482193039	 0.287681
C	 3.5624529419	 1.750409173	 1.4121775526	-0.427866
H	 1.0998606857	 2.0196924482	-0.2394688497	 0.124497
H	-0.0796355377	 1.6630749868	-1.5213850527	 0.123157
H	-0.6446286318	 2.1639186708	 0.0786177337	 0.120632
H	 0.987659706	-1.6797182572	-0.5760310648	 0.113061
H	 2.1098247845	-0.2358694384	-0.415500395	 0.124256
H	-0.0524735595	-1.0399083197	 1.6782526223	 0.079678
H	 0.8129109335	 2.1222521239	 3.6711531658	 0.132728
H	-0.5689466978	 1.0101197167	 3.1999323219	 0.121962
H	 0.8432102823	-0.8185659027	 3.6341939781	 0.23729
H	 4.4609975475	 2.234454021	 1.1186910022	 0.197
49.7607	143.65	152.0631	201.4804	230.4351	255.4632	318.588	345.9175	420.7834	480.2409	556.9099	586.9774	611.2525	649.8701	674.8827	760.9207	835.2167	877.249	913.3978	938.7095	981.9038	984.8423	1042.7384	1092.5424	1102.6129	1129.7268	1135.4391	1143.2448	1172.5739	1207.4287	1243.9108	1290.7483	1322.3668	1368.0607	1405.2976	1450.1384	1491.9623	1502.008	1505.4093	1512.9586	2235.7288	3013.8175	3078.5287	3081.7911	3094.2041	3100.7372	3108.008	3179.6787	3202.4008	3487.4027	3501.1103
CN1CC1C1(CN1)C#C	CN1C[C@H]1[C@]1(CN1)C#C	
InChI=1S/C7H10N2/c1-3-7(5-8-7)6-4-9(6)2/h1,6,8H,4-5H2,2H3	InChI=1S/C7H10N2/c1-3-7(5-8-7)6-4-9(6)2/h1,6,8H,4-5H2,2H3/t6-,7+,9?/m0/s1
