18
gdb 38485	3.28402	1.72433	1.58875	2.0912	73.47	-0.2162	0.0562	0.2724	906.6756	0.150066	-401.865769	-401.859198	-401.858254	-401.896254	27.865	
C	-0.0330001603	 1.4274570375	 0.0079957087	-0.376091
C	 1.3453029893	 0.7949370356	-0.0804252677	 0.136833
C	 1.6743593574	 0.0999594559	 1.247363557	-0.130961
O	 0.4124156069	-0.6317334511	 1.2547655402	-0.326269
C	 0.0915386875	-0.0597805814	-0.0183173012	 0.407381
C	 0.0138085765	-0.8889303562	-1.2685603169	-0.148706
N	-0.1467786215	-0.0487136509	-2.4703650163	-0.334243
C	 1.2015826491	-0.5379381977	-2.1164643966	-0.025483
C	 2.0636797972	 0.5224787678	-1.3998820697	-0.305394
H	-0.3362054739	 1.9101199323	 0.9329346139	 0.111606
H	-0.3943638541	 1.8802186654	-0.9066567525	 0.14592
H	 2.5217964037	-0.592372819	 1.1739221659	 0.103462
H	 1.787499668	 0.7255644606	 2.1412600005	 0.104684
H	-0.4143873239	-1.8845531054	-1.2353857769	 0.095908
H	-0.5298562141	-0.6048573518	-3.2302515191	 0.235528
H	 1.6755560682	-1.2550406599	-2.7817345214	 0.086766
H	 2.1872035518	 1.4136792586	-2.0230750719	 0.115562
H	 3.0631489623	 0.1174738998	-1.2077715661	 0.103496
193.8844	252.7742	316.1368	371.3752	412.8002	461.1158	554.8852	635.0841	687.8175	775.8571	802.6997	816.2453	838.0287	849.253	888.9613	924.0214	936.4888	945.8213	951.1913	986.9204	1004.4332	1049.7539	1078.4995	1120.5428	1129.0558	1152.8424	1162.1364	1200.2884	1219.5453	1234.2762	1276.1603	1306.2337	1332.0605	1369.0749	1375.0241	1412.5221	1461.3778	1475.5842	1512.6614	3012.6542	3046.328	3062.8388	3088.1735	3124.2271	3142.2219	3178.0944	3237.3122	3506.0344
C1C23COC12C1NC1C3	C1[C@@]23CO[C@@]12[C@H]1N[C@H]1C3	
InChI=1S/C7H9NO/c1-4-5(8-4)7-2-6(1,7)3-9-7/h4-5,8H,1-3H2	InChI=1S/C7H9NO/c1-4-5(8-4)7-2-6(1,7)3-9-7/h4-5,8H,1-3H2/t4-,5-,6-,7+/m0/s1
