20
gdb 18593	3.31967	2.02197	1.62734	1.4031	73.6	-0.2383	0.0776	0.3159	886.6407	0.17903	-349.00731	-348.999899	-348.998955	-349.038938	28.877	
C	 0.2504230294	 1.5954841698	 0.1679519118	-0.401993
C	 0.1122610442	 0.0877970388	 0.029047563	 0.023088
C	 1.0676609627	-0.6741827927	-0.9389912867	-0.263774
C	 1.3804715865	-1.7098951528	 0.1834781511	-0.02243
C	 2.8136800329	-1.7498097966	 0.7161766475	-0.234498
C	 2.8967544016	-0.4456849862	 1.5242122502	-0.081886
O	 1.5924992739	-0.2296829763	 2.0582710216	-0.259117
C	 0.6184315451	-0.8104771529	 1.2029224075	 0.09841
H	 1.2691810358	 1.8754135761	 0.4509846927	 0.122007
H	 0.0080600298	 2.0986496	-0.7746420061	 0.108285
H	-0.4211201793	 1.9856037583	 0.9401526559	 0.116727
H	-0.9296652889	-0.1705248309	-0.191368529	 0.067299
H	 0.6099792272	-1.0783883275	-1.844898836	 0.096335
H	 1.9426483159	-0.0861273092	-1.2361482973	 0.09284
H	 0.9551509928	-2.6991301918	 0.0094012803	 0.068605
H	 2.9502136508	-2.6131371451	 1.3756661384	 0.104513
H	 3.5682879325	-1.8006908539	-0.074279827	 0.100601
H	 3.5975052993	-0.4927158399	 2.3629491376	 0.106479
H	 3.1976245121	 0.3955811668	 0.880437362	 0.089581
H	-0.1544141344	-1.2499916841	 1.8398681126	 0.068928
79.7496	185.6458	195.1569	235.3641	337.5518	357.933	513.6699	588.5483	647.4163	737.3593	777.224	845.8192	854.5185	895.11	906.315	926.193	959.2921	965.7519	997.5821	1017.691	1066.9707	1118.9835	1139.3391	1151.2068	1164.8158	1199.6969	1227.3409	1235.3568	1261.5776	1273.9706	1292.5765	1309.4257	1332.584	1353.7878	1365.7292	1396.0916	1408.7869	1483.2531	1485.3647	1489.6214	1493.1654	1525.716	2976.925	3031.0316	3036.4996	3043.4101	3047.1368	3063.9319	3080.1706	3093.1534	3095.1793	3098.1364	3107.9159	3112.432
CC1CC2CCOC12	C[C@H]1C[C@H]2CCO[C@@H]12	
InChI=1S/C7H12O/c1-5-4-6-2-3-8-7(5)6/h5-7H,2-4H2,1H3	InChI=1S/C7H12O/c1-5-4-6-2-3-8-7(5)6/h5-7H,2-4H2,1H3/t5-,6+,7-/m0/s1
