19
gdb 41360	2.78457	1.86918	1.67741	2.5917	73.46	-0.2396	0.0624	0.3019	904.4014	0.162705	-422.974959	-422.968435	-422.967491	-423.005483	27.607	
C	 0.0471702467	 1.4992834402	-0.1001080414	-0.200584
O	 1.4909179466	 1.4507677731	 0.1454540413	-0.314119
C	 1.2769276632	 0.1932397699	 0.8443122932	 0.165659
C	 1.8139518485	-1.2142751851	 0.6069804842	 0.0167
C	 0.5992028138	-1.9803284375	 1.2631294738	-0.224853
C	-0.6910326515	-1.1131686361	 0.8919359368	-0.331267
C	 0.000731338	-0.0382351926	 0.054094137	 0.234327
C	 0.5702694992	-0.7178105096	-1.2214355039	-0.096659
O	 1.7559385866	-1.414049531	-0.7941126427	-0.263089
H	-0.4675429941	 2.0520819409	 0.6963421581	 0.104559
H	-0.1864922509	 1.9354346184	-1.0750967679	 0.112266
H	 1.1259377922	 0.3913599029	 1.9137614256	 0.076282
H	 2.7963155294	-1.5155953252	 0.9708372446	 0.081889
H	 0.5564201525	-2.9841817897	 0.8363904161	 0.119418
H	 0.7150082824	-2.0780122255	 2.3460658466	 0.107
H	-1.438763177	-1.7015833628	 0.3538629638	 0.103308
H	-1.1597514033	-0.7055180006	 1.7915360886	 0.104632
H	-0.1482851312	-1.4317575649	-1.6439247294	 0.093405
H	 0.848410609	 0.0012821949	-1.9974317844	 0.111125
183.0378	280.476	317.9777	351.4174	406.0443	438.4797	602.4385	617.4537	709.6624	782.9972	820.9655	841.8801	857.7055	879.0354	892.5444	943.9976	949.8722	977.2889	989.3785	1019.3609	1031.9484	1067.6352	1075.6536	1118.9178	1146.7704	1170.9699	1196.0441	1216.0315	1234.3126	1269.0067	1276.7553	1285.8925	1303.6723	1322.9149	1339.7397	1383.6389	1398.9417	1474.6907	1500.9949	1514.6585	1524.2674	3014.9427	3017.1942	3023.4901	3056.3157	3068.1732	3075.769	3095.1323	3100.7101	3125.224	3126.7561
C1OC2C3CCC12CO3	C1O[C@@H]2[C@H]3CC[C@@]12CO3	
InChI=1S/C7H10O2/c1-2-7-3-8-5(1)6(7)9-4-7/h5-6H,1-4H2	InChI=1S/C7H10O2/c1-2-7-3-8-5(1)6(7)9-4-7/h5-6H,1-4H2/t5-,6-,7-/m1/s1
