21
gdb 121954	2.17444	0.93214	0.73161	2.1059	81.04	-0.2588	0.0514	0.3102	1609.2024	0.178894	-424.183375	-424.172429	-424.171484	-424.220889	38.919	
C	 0.0126024079	 1.5301016068	 0.1130517379	-0.403042
C	 0.0290365169	 0.0012161142	 0.0702449208	 0.141244
C	 0.827491973	-0.5224019198	-1.1372313201	-0.361367
C	 0.731911728	-1.9664487978	-1.3068488831	 0.306667
C	 0.632809926	-3.1550916018	-1.4524402454	-0.442229
O	 0.6446495631	-0.544624955	 1.2292392312	-0.268454
C	-0.2009872606	-0.7049023466	 2.3556078804	-0.077675
C	 0.6852580106	-1.1943768636	 3.4906702939	-0.059609
O	 1.7095211476	-0.2639205586	 3.7814497683	-0.422158
H	 1.0343251989	 1.9221590078	 0.1448642583	 0.123525
H	-0.4896205917	 1.9390177695	-0.7694418244	 0.118364
H	-0.5183384389	 1.8924599817	 0.9973885829	 0.125152
H	-1.0009582726	-0.3784748219	-0.003821267	 0.081853
H	 0.4723164613	-0.0174998596	-2.0437481985	 0.128552
H	 1.8763306225	-0.2286738101	-1.0032928209	 0.135044
H	 0.5559674324	-4.2062422453	-1.5800021732	 0.194372
H	-0.6677253973	 0.2503819528	 2.6390529412	 0.09532
H	-0.999559947	-1.4324959064	 2.1406743781	 0.093737
H	 0.0881255441	-1.3159666193	 4.4003376396	 0.106532
H	 1.0987616033	-2.1787014595	 3.2202091841	 0.097229
H	 2.1202141024	-0.0603270874	 2.9329028061	 0.286943
26.1807	55.0202	85.7771	121.5735	172.8214	203.4281	232.8422	297.3794	339.7019	345.1706	387.667	436.5346	466.3045	524.5203	562.588	615.3521	642.0163	808.0815	876.9265	904.5137	910.6967	942.7657	990.5723	1079.1467	1080.8123	1117.9931	1123.4145	1136.9989	1155.7128	1229.558	1257.0767	1268.0838	1310.4147	1366.6698	1378.0462	1386.5989	1407.9035	1422.9988	1440.8387	1458.3882	1490.0424	1493.7019	1499.5233	1509.7872	2242.017	2975.2726	2984.2278	2995.5204	3021.2145	3027.1327	3040.0596	3064.8128	3080.145	3111.3841	3118.2171	3507.6032	3795.657
CC(CC#C)OCCO	C[C@@H](CC#C)OCCO	
InChI=1S/C7H12O2/c1-3-4-7(2)9-6-5-8/h1,7-8H,4-6H2,2H3	InChI=1S/C7H12O2/c1-3-4-7(2)9-6-5-8/h1,7-8H,4-6H2,2H3/t7-/m0/s1
