18
gdb 116972	13.41829	0.39214	0.38463	4.0719	83.33	-0.2623	0.0238	0.2861	2661.1236	0.145746	-401.935225	-401.924552	-401.923608	-401.975372	35.461	
O	-0.0997751311	 1.4609179142	 0.0114282016	-0.414091
C	 0.0361491442	 0.0507146444	 0.0022598495	-0.063133
C	-1.3829604379	-0.5302142216	 0.0120688714	-0.325427
C	-1.3901914859	-1.9873857397	 0.0039462823	 0.092553
C	-1.3565291324	-3.1912422246	-0.0028394049	 0.033116
C	-1.3669301563	-4.6481568988	-0.010459467	-0.351279
C	-2.8142129369	-5.2075159617	 0.0009035732	-0.323746
C	-2.8381938658	-6.6681054856	-0.0059891742	 0.255476
N	-2.8359624051	-7.8236064748	-0.0125663008	-0.301706
H	 0.779115554	 1.8507727451	 0.0053938343	 0.290904
H	 0.5693471778	-0.3034279842	-0.8924555472	 0.099815
H	 0.5856867761	-0.313366858	 0.8829889959	 0.099812
H	-1.905491396	-0.148365764	 0.8974647536	 0.139478
H	-1.9216307792	-0.1385693857	-0.8592560441	 0.139471
H	-0.8452441434	-5.0313270876	-0.8949994809	 0.150228
H	-0.8279216627	-5.0406049607	 0.8595006722	 0.150226
H	-3.3440810725	-4.8451873143	 0.8874218447	 0.164138
H	-3.3613338269	-4.8363133024	-0.8713769696	 0.164167
2.2804	53.9146	55.0441	96.2759	137.598	184.513	229.0802	241.6605	344.2408	388.0684	411.8735	466.3451	499.1304	544.924	767.2049	794.417	817.4503	951.3998	1000.4781	1007.2267	1035.5403	1081.4999	1088.2903	1165.7416	1198.9828	1221.4147	1237.8975	1285.2241	1303.2197	1307.6112	1332.1286	1370.2746	1453.2826	1468.159	1478.8404	1482.6406	1527.9934	2363.1222	2371.9631	2984.476	3015.7624	3032.3933	3036.5033	3061.2183	3067.9626	3070.3258	3104.231	3835.1206
OCCC#CCCC#N	OCCC#CCCC#N	
InChI=1S/C7H9NO/c8-6-4-2-1-3-5-7-9/h9H,2,4-5,7H2	InChI=1S/C7H9NO/c8-6-4-2-1-3-5-7-9/h9H,2,4-5,7H2
