17
gdb 51353	6.01436	0.94566	0.9062	4.7402	75.41	-0.2426	0.0244	0.267	1279.4901	0.136904	-417.923576	-417.916114	-417.91517	-417.956626	28.16	
O	-0.1711385417	-0.0781416567	 0.3982157229	-0.315921
C	-0.1131881752	 1.1030792164	 0.1379355784	 0.154768
N	 1.0266213425	 1.794299589	-0.1521905348	-0.310406
C	 2.3314129939	 1.1909937755	-0.1861835338	 0.063253
C	 3.2881602828	 1.5355390532	-1.3378742474	-0.041075
C	 3.7089997867	 2.916580077	-0.7371977146	-0.087958
C	 5.1670992715	 2.4862350987	-0.8278843452	-0.184015
N	 4.5086221168	 1.1589712894	-0.4548734591	-0.154838
C	 3.5155565442	 1.927470479	 0.4584438363	-0.041449
H	-1.004585663	 1.7610983728	 0.1081864486	 0.074804
H	 0.9401388068	 2.7786389685	-0.3530507927	 0.249056
H	 2.2334531559	 0.1332568284	 0.0568076452	 0.136825
H	 3.2547988996	 1.2456804706	-2.3896022242	 0.089756
H	 3.2500863109	 3.8999242361	-0.8937042853	 0.064212
H	 5.6437068871	 2.473320561	-1.8132805448	 0.106644
H	 5.8646305656	 2.8540878607	-0.0686290675	 0.106624
H	 3.7486220157	 2.0968295704	 1.511192088	 0.089721
31.3575	130.2168	183.8283	243.6901	347.7829	486.1034	503.467	534.8316	705.6501	723.3203	799.7684	834.6353	842.7692	876.0938	918.54	924.4892	971.6238	1023.308	1030.217	1034.2648	1071.2968	1079.8301	1100.5029	1136.0692	1166.6182	1168.0666	1191.9705	1215.2777	1235.8844	1258.8845	1277.0654	1312.7086	1357.2273	1434.7149	1517.3838	1539.0803	1811.3336	2934.2947	3025.5159	3042.9314	3099.2485	3101.6582	3106.15	3139.4716	3624.7976
O=CNC1C2C3CN2C13	O=CN[C@H]1[C@H]2[C@@H]3CN2[C@H]13	
InChI=1S/C6H8N2O/c9-2-7-4-5-3-1-8(5)6(3)4/h2-6H,1H2,(H,7,9)	InChI=1S/C6H8N2O/c9-2-7-4-5-3-1-8(5)6(3)4/h2-6H,1H2,(H,7,9)/t3-,4-,5+,6-
