16
gdb 30300	3.09447	1.59767	1.14503	2.3351	70.84	-0.1857	0.0517	0.2374	1030.6314	0.126682	-437.904023	-437.896582	-437.895638	-437.935874	29.019	
O	 0.0419762111	 1.4786689284	 0.2317774271	-0.429704
C	 0.0388477672	 0.0739833757	-0.0189486352	-0.039685
C	 0.6449504974	-0.7638197295	 1.1667083839	-0.120705
O	-0.4415013648	-1.4616656302	 1.8603482641	-0.291124
C	-1.4748060099	-1.3336457961	 1.0046649205	 0.429833
C	-1.3206979227	-0.5474344683	-0.0999462909	 0.151065
C	-2.568103008	-0.5851529676	-0.7995714299	-0.333922
C	-3.4045561028	-1.4025535378	-0.0772883853	-0.077701
N	-2.7176616757	-1.8672054836	 1.0514104082	-0.390481
H	-0.7359776456	 1.6669388622	 0.7686358808	 0.275621
H	 0.6662054044	-0.0458685545	-0.9078915557	 0.092333
H	 1.3361827369	-1.5290635524	 0.8006683539	 0.118404
H	 1.1489657264	-0.1193233745	 1.8888973665	 0.126314
H	-2.8281939267	-0.0835409158	-1.7189063819	 0.101922
H	-4.4222786659	-1.708630826	-0.253651627	 0.119432
H	-3.0779314513	-2.4938544701	 1.7490681009	 0.268397
104.0679	144.3254	276.0411	314.7281	331.6328	418.4577	429.4989	492.1631	615.6429	635.1922	647.2781	710.5926	740.7385	775.1399	818.3082	873.0416	932.0395	958.2675	995.5065	1049.1314	1063.6255	1095.2322	1157.4135	1213.4941	1231.2804	1271.299	1294.7541	1337.8034	1354.2074	1416.8918	1438.7952	1488.1817	1513.8581	1569.7265	1636.6073	3050.9043	3065.1912	3132.1292	3249.1834	3277.4601	3688.6392	3798.6971
OC1COC2=C1C=CN2	O[C@H]1COc2c1cc[nH]2	
InChI=1S/C6H7NO2/c8-5-3-9-6-4(5)1-2-7-6/h1-2,5,7-8H,3H2	InChI=1S/C6H7NO2/c8-5-3-9-6-4(5)1-2-7-6/h1-2,5,7-8H,3H2/t5-/m0/s1
