18
gdb 87939	3.53086	1.11038	1.00404	4.6216	73.48	-0.2303	0.0371	0.2674	1212.2375	0.147972	-439.112324	-439.103909	-439.102965	-439.145468	32.3	
O	-0.2746427035	 1.3854771723	-0.3261183872	-0.41534
C	-0.1251639431	 0.0059967636	-0.1776332485	 0.044815
C	-0.2162592385	-0.6227280321	 1.2025419685	-0.397546
C	-1.3453350768	-0.7817037034	 0.2185313618	 0.366066
C	-2.7112538567	-0.1184121926	 0.3978215159	-0.289351
C	-3.595021007	-0.8170516161	-0.6526127516	-0.338104
C	-2.8882170685	-2.1458808981	-0.9446197599	 0.399384
O	-3.320536311	-3.098251869	-1.5539436864	-0.37814
N	-1.636534114	-2.0492941129	-0.3885758633	-0.367034
H	 0.4965457773	 1.8163879024	 0.0577551064	 0.291488
H	 0.5518807946	-0.466704031	-0.8911519127	 0.087851
H	 0.4169862325	-1.4768302855	 1.4228669503	 0.114096
H	-0.3884931987	 0.0448485629	 2.0416063051	 0.12283
H	-3.0874842749	-0.3202224255	 1.4058481033	 0.112363
H	-2.642513407	 0.9617834309	 0.2682206489	 0.132831
H	-4.6210022956	-0.996230424	-0.3273307285	 0.129653
H	-3.6430660175	-0.2537496899	-1.5910794284	 0.135819
H	-0.9536395917	-2.776183592	-0.5318349438	 0.24832
73.1984	108.5346	212.9024	218.5581	285.2646	357.0652	426.2289	450.5296	471.0506	510.6019	525.082	582.7879	661.2438	771.164	811.544	835.1134	901.2462	911.5664	945.5291	986.8681	1011.4279	1032.0887	1065.497	1091.4635	1169.3591	1176.6748	1206.605	1248.9897	1275.5937	1288.871	1297.5985	1322.0256	1345.8521	1403.5025	1439.8629	1468.3295	1498.6029	1502.1773	1833.204	3054.4239	3059.2434	3087.1049	3118.8693	3122.1048	3134.863	3209.6084	3642.7876	3799.4891
OC1CC11CCC(=O)N1	O[C@H]1C[C@]21CCC(=O)N2	
InChI=1S/C6H9NO2/c8-4-3-6(4)2-1-5(9)7-6/h4,8H,1-3H2,(H,7,9)	InChI=1S/C6H9NO2/c8-4-3-6(4)2-1-5(9)7-6/h4,8H,1-3H2,(H,7,9)/t4-,6-/m0/s1
