21
gdb 113827	2.88111	1.00438	0.91148	2.3869	79.16	-0.2581	0.078	0.3362	1416.2263	0.179999	-424.190295	-424.18039	-424.179446	-424.226246	35.699	
C	-0.0501008339	 1.125881763	 0.6396705997	-0.381213
C	-0.3159263575	-0.3811528675	 0.7430012031	-0.209127
C	-1.5226471472	-0.781016026	-0.0706972214	 0.084789
O	-1.3585408455	-0.8591112618	-1.4922520525	-0.265909
C	-1.6999059255	-2.0581947154	-0.7875554113	 0.003243
C	-0.709100575	-3.1828138195	-0.8505933764	 0.009142
O	 0.3124930348	-3.3015890936	 0.1439335852	-0.248732
C	-0.7122108586	-4.3012909138	 0.107673136	 0.080448
C	-1.6382818881	-4.3810889649	 1.2943329581	-0.422229
H	 0.8233836735	 1.4102757437	 1.2335115157	 0.114101
H	 0.1369570254	 1.4141476045	-0.3992673451	 0.132256
H	-0.9041880541	 1.7101292283	 1.0005027246	 0.110731
H	 0.5539614548	-0.9497445482	 0.4112800839	 0.131915
H	-0.4936623634	-0.6609296679	 1.7892878069	 0.097689
H	-2.4462255415	-0.2723291427	 0.2224198275	 0.083081
H	-2.726808415	-2.3850452553	-0.9736586856	 0.093903
H	-0.3596264706	-3.3853493003	-1.865044121	 0.10611
H	-0.3606186551	-5.2656480063	-0.2641168073	 0.091459
H	-1.9861710485	-3.3904740318	 1.5955384445	 0.132054
H	-2.5097250503	-5.0009135758	 1.056762694	 0.124267
H	-1.1250571888	-4.8389237085	 2.1461355915	 0.132023
25.4086	82.9421	141.762	143.986	183.6115	218.1592	244.1037	294.6259	380.2479	406.991	451.3803	520.7421	674.9432	756.5058	787.4769	791.3229	841.0328	864.4154	929.9717	953.4153	991.6342	1028.9401	1056.7962	1064.3284	1096.181	1119.135	1159.5755	1172.4577	1175.6367	1191.7298	1290.156	1293.9227	1308.8531	1342.5261	1377.2183	1406.7436	1409.9958	1417.6429	1463.614	1471.4341	1486.7042	1487.74	1498.9716	1505.2405	1509.9049	3033.8147	3034.5333	3039.0761	3056.243	3070.8318	3084.9463	3095.7008	3096.8561	3101.6367	3113.9544	3130.8381	3131.9692
CCC1OC1C1OC1C	CC[C@H]1O[C@H]1[C@H]1O[C@H]1C	
InChI=1S/C7H12O2/c1-3-5-7(9-5)6-4(2)8-6/h4-7H,3H2,1-2H3	InChI=1S/C7H12O2/c1-3-5-7(9-5)6-4(2)8-6/h4-7H,3H2,1-2H3/t4-,5+,6-,7+/m0/s1
