18
gdb 65620	3.27768	1.30476	1.20156	4.4176	75.78	-0.2709	0.0116	0.2825	1096.4247	0.147413	-401.931244	-401.923014	-401.92207	-401.96407	31.323	
C	 0.1606007185	 1.442046319	-0.1847803228	-0.443145
C	 0.053872797	-0.0629624069	 0.0138260555	 0.245469
O	 0.9360656493	-0.8062809822	-0.8647070852	-0.321483
C	 1.4434198275	-1.614489571	 0.2278983973	 0.121322
C	 2.7912804332	-1.0926299882	 0.7651706987	-0.231381
C	 2.0182300725	-0.1866013572	 1.7773779357	-0.258901
C	 0.6672834915	-0.7587771768	 1.2659660065	-0.111746
C	-1.3428693858	-0.5003729755	-0.1915832616	 0.266736
N	-2.4368714394	-0.8463889872	-0.3307605459	-0.337792
H	 1.1949616488	 1.7669328828	-0.0602017024	 0.132681
H	-0.1636182938	 1.7041559944	-1.1954733219	 0.149934
H	-0.4747651982	 1.972142705	 0.5307837142	 0.139333
H	 1.3031160758	-2.6821256492	 0.0480304428	 0.093007
H	 3.3986257623	-1.8625537348	 1.2477838158	 0.11035
H	 3.3954157267	-0.583111409	 0.0118321268	 0.117765
H	 2.2048051637	-0.4477288659	 2.8208265538	 0.115759
H	 2.1576385427	 0.8909435088	 1.6737270203	 0.110875
H	-0.0354054024	-1.1493074262	 1.9987726925	 0.101217
75.2939	146.9957	177.4449	204.4567	290.5893	327.9642	394.5208	412.7075	501.3858	572.16	638.7193	714.6605	753.9587	822.9495	833.904	901.7119	904.3319	926.1645	957.3554	976.7739	1028.0827	1048.317	1108.5496	1135.4702	1166.001	1180.9736	1206.0814	1221.8223	1243.542	1275.3387	1289.5097	1310.8551	1330.3581	1405.2031	1463.7425	1476.5432	1480.4099	1504.4354	2349.7463	3052.2067	3066.4019	3078.4801	3093.1299	3116.306	3126.1133	3131.7992	3139.0768	3144.0682
CC1(OC2CCC12)C#N	C[C@]1(O[C@H]2CC[C@@H]12)C#N	
InChI=1S/C7H9NO/c1-7(4-8)5-2-3-6(5)9-7/h5-6H,2-3H2,1H3	InChI=1S/C7H9NO/c1-7(4-8)5-2-3-6(5)9-7/h5-6H,2-3H2,1H3/t5-,6+,7+/m1/s1
