14
gdb 19241	3.25814	2.04281	1.5972	4.2818	61.42	-0.251	0.0174	0.2684	807.4727	0.107951	-378.684829	-378.677786	-378.676841	-378.716157	26.224	
N	-0.1138830908	 1.4657687921	 0.2267813683	-0.505453
C	-0.0095622733	 0.0571704391	 0.0115298366	-0.004884
C	-1.3425308262	-0.6966795979	 0.0200405692	 0.033531
O	-2.0894326073	-0.2227846012	-1.1095501957	-0.234833
C	-1.1314104576	-1.2550604606	-1.3238119819	 0.021832
C	 0.2460907801	-0.5852857186	-1.463332348	-0.249082
C	 0.431020553	 0.3475005424	-2.5557677174	 0.295096
N	 0.5867505685	 1.1333311498	-3.3899632049	-0.328758
H	 0.7708314209	 1.9393447681	 0.0799009156	 0.243506
H	-0.7919104036	 1.868123952	-0.4132057958	 0.254319
H	 0.7158566156	-0.3786907628	 0.703241213	 0.103264
H	-1.9071955325	-1.0691378167	 0.8658853169	 0.121762
H	-1.4714777736	-2.1797800983	-1.7728335238	 0.125083
H	 1.0664137468	-1.3068385773	-1.4336977721	 0.124619
110.7477	128.0627	212.2279	329.6923	342.6608	397.3988	534.6494	564.9943	664.1015	737.7158	765.5473	843.8991	867.596	879.7319	907.9087	921.9287	1014.8265	1043.3672	1058.4143	1098.1609	1142.5088	1224.9691	1238.6036	1256.9375	1276.2127	1322.6817	1389.1615	1425.0867	1656.7971	2351.4549	3080.417	3091.8734	3194.8409	3209.1632	3509.6192	3590.9289
NC1C2OC2C1C#N	N[C@H]1[C@H]2O[C@H]2[C@H]1C#N	
InChI=1S/C5H6N2O/c6-1-2-3(7)5-4(2)8-5/h2-5H,7H2	InChI=1S/C5H6N2O/c6-1-2-3(7)5-4(2)8-5/h2-5H,7H2/t2-,3+,4-,5+/m0/s1
