19
gdb 123726	4.82213	0.9756	0.93101	2.7719	82.31	-0.229	0.022	0.251	1312.6603	0.162768	-382.084322	-382.076551	-382.075607	-382.117635	29.613	
C	-0.0015251539	 1.6058939133	-0.0657073727	-0.213388
C	 1.5399123499	 1.5257769647	 0.0888290422	-0.22918
C	 1.3772648071	 0.0458926335	 0.5665491689	-0.070849
C	-0.0411856668	 0.0553755812	-0.0912025637	-0.229179
C	 2.3788500037	-0.9843620516	 0.1847813779	 0.382541
C	 3.1184183173	-1.8728435301	 0.9450292133	-0.318345
C	 3.8965837418	-2.5958531236	 0.0170897014	-0.002703
N	 3.671847154	-2.2009346199	-1.2323973775	-0.229798
N	 2.749568797	-1.2252931819	-1.1031879906	-0.261966
H	-0.4762340617	 2.0061128674	 0.8345654397	 0.10769
H	-0.3983411122	 2.1386805296	-0.9322523748	 0.100671
H	 2.0470725514	 1.577938088	-0.8797925862	 0.097128
H	 2.0330898269	 2.2207694151	 0.7720804704	 0.106578
H	 1.2713588371	 0.0265600427	 1.6545203209	 0.084603
H	-0.8445068526	-0.4553588395	 0.4444240476	 0.106578
H	-0.0083723372	-0.3336081037	-1.1138338344	 0.097128
H	 3.0912167958	-1.9751281295	 2.0181680678	 0.098149
H	 4.6091791463	-3.38534321	 0.206903673	 0.107948
H	 2.4165998462	-0.7655904158	-1.9334448034	 0.266394
37.855	114.1933	135.7318	234.3794	374.8096	384.2046	521.8072	553.8755	681.5803	709.3249	713.6241	785.6022	805.9729	859.4128	892.4384	907.4475	935.0264	937.8512	940.7864	994.7517	1023.8969	1054.6715	1065.6657	1104.7837	1142.7734	1202.56	1231.8346	1243.1837	1250.9794	1257.4309	1270.8215	1283.451	1303.5857	1321.9715	1390.1972	1451.5608	1478.2831	1488.7436	1491.3287	1509.5794	1605.2008	3050.9712	3053.9919	3063.1746	3070.817	3104.2288	3108.8767	3123.7036	3240.9408	3264.386	3672.4357
C1CC(C1)C1=CC=NN1	C1CC(C1)c1ccn[nH]1	
InChI=1S/C7H10N2/c1-2-6(3-1)7-4-5-8-9-7/h4-6H,1-3H2,(H,8,9)	InChI=1S/C7H10N2/c1-2-6(3-1)7-4-5-8-9-7/h4-6H,1-3H2,(H,8,9)
