17
gdb 84586	2.38584	1.94567	1.25403	4.1694	72.18	-0.2686	-0.0112	0.2575	1000.6045	0.137238	-421.867941	-421.860456	-421.859512	-421.900037	28.748	
C	-0.5707773267	 1.4619946157	 0.014077038	-0.397213
C	-0.0360253815	 0.0232104967	-0.0318517317	-0.049739
C	 0.9740718977	-0.2253741567	-1.1348574659	-0.054179
C	 2.0968541758	-0.8151592853	-0.7215605912	-0.099229
C	 2.0705121656	-1.0569177165	 0.7556266421	 0.073227
O	 2.822269172	-0.0317354	 1.5243175141	-0.259094
C	 1.6593474771	 0.5733973693	 1.9245441712	 0.456725
O	 1.543755248	 1.5493489232	 2.5951582096	-0.330667
C	 0.7380030976	-0.4398664985	 1.2301145891	-0.25083
H	 0.2382012297	 2.1848519722	 0.1473868587	 0.141238
H	-1.0981120185	 1.7028207928	-0.914380508	 0.114504
H	-1.2711104502	 1.5910244432	 0.8443379398	 0.129837
H	-0.8947179994	-0.6467033016	-0.1776473069	 0.094391
H	 0.7698468773	 0.0690230695	-2.1596983455	 0.107712
H	 2.9428261812	-1.0791831312	-1.3444221396	 0.111328
H	 2.3699659356	-2.048818714	 1.0966641112	 0.100335
H	 0.1360552686	-1.0119282988	 1.9363956849	 0.111655
87.1951	158.5057	207.4479	237.3112	331.2344	372.7026	501.5588	532.8635	633.1955	690.2646	741.33	784.9353	826.7487	852.0178	880.662	898.0417	935.581	981.9175	990.6975	1015.0285	1057.5927	1101.4395	1115.9759	1129.4757	1152.6412	1205.9029	1249.84	1281.605	1312.295	1335.8107	1346.105	1377.7084	1419.6546	1491.8961	1498.1345	1673.6043	1924.9871	3004.5524	3042.2851	3106.6016	3111.1432	3119.4453	3125.0711	3181.6599	3215.8947
CC1C=CC2OC(=O)C12	C[C@H]1C=C[C@H]2OC(=O)[C@@H]12	
InChI=1S/C7H8O2/c1-4-2-3-5-6(4)7(8)9-5/h2-6H,1H3	InChI=1S/C7H8O2/c1-4-2-3-5-6(4)7(8)9-5/h2-6H,1H3/t4-,5+,6-/m0/s1
