13
gdb 20778	3.3537	2.33405	1.38794	2.1533	65.49	-0.2637	-0.076	0.1877	827.5826	0.095193	-394.717141	-394.710341	-394.709397	-394.748157	25.215	
C	 0.0875660605	 1.4618620995	 0.0054549817	-0.459222
C	-0.0094104451	-0.0313937865	 0.0326567348	 0.374601
N	-0.1242037773	-0.6367104189	-1.0996829256	-0.132407
O	-0.2173441022	-2.0232895862	-1.1215552724	-0.225604
N	-0.1927864922	-2.7890288218	 0.0172212063	-0.053017
C	-0.0784673288	-2.1866457498	 1.145510183	 0.008923
C	 0.0279288543	-0.7452139208	 1.3133580703	 0.167908
N	 0.1433644977	-0.1003296441	 2.4162020133	-0.503681
H	 1.0205579694	 1.7826517315	 0.4788982222	 0.155568
H	 0.0433791697	 1.8244781092	-1.0218262853	 0.145553
H	-0.7247647292	 1.8981143384	 0.5947910309	 0.155577
H	-0.0644252236	-2.8419198402	 2.0144257843	 0.141516
H	 0.1533115066	-0.7442143403	 3.2120584863	 0.224285
102.7719	178.0737	279.4373	292.3228	425.8584	440.6239	488.9468	519.1752	608.4831	721.2645	763.4379	823.7358	879.7421	884.5603	922.6758	953.5025	1059.7939	1064.1675	1131.4162	1253.5067	1329.5614	1405.1739	1452.7057	1463.0894	1466.8235	1625.5315	1643.4943	1697.1798	3051.7046	3110.8858	3156.3086	3158.1133	3430.7561
CC1=NON=CC1=N	CC1=NON=C[C]1[NH]	
InChI=1S/C4H5N3O/c1-3-4(5)2-6-8-7-3/h2,5H,1H3	InChI=1S/C4H5N3O/c1-3-4(5)2-6-8-7-3/h2,5H,1H3
