24
gdb 98267	2.93945	0.92343	0.8423	3.3092	87.35	-0.2307	0.0384	0.2691	1559.2424	0.214709	-405.591874	-405.580233	-405.579289	-405.629392	41.196	
C	-0.0094617903	 1.5572623401	-0.0352823048	-0.371875
C	-0.015901502	 0.0315922285	 0.0406427163	-0.311325
C	 0.6902611542	-0.4810666371	 1.2979069559	 0.423061
O	 1.1040870173	 0.2970141917	 2.1446662671	-0.383287
N	 0.827123431	-1.8436813454	 1.4220045182	-0.095726
C	 0.3803415176	-2.7747758486	 0.3982597202	-0.344301
C	 1.5625259442	-2.3753765755	 2.583795024	 0.036026
C	 0.6482978715	-3.1881238165	 3.509398918	-0.389665
C	 2.8048307071	-3.16646831	 2.1553963516	-0.389597
H	 1.0126702988	 1.94251791	-0.0618892479	 0.129126
H	-0.5340260104	 1.8969379909	-0.9332832779	 0.100766
H	-0.4945512904	 1.9915416824	 0.8413566324	 0.134171
H	-1.0479797723	-0.3432433769	 0.0349980362	 0.120981
H	 0.4590818121	-0.4014907539	-0.8483114659	 0.115297
H	 1.0940226886	-2.872929751	-0.4314052374	 0.124567
H	 0.2485326519	-3.7640346351	 0.8411584277	 0.132196
H	-0.5848708434	-2.4783072072	-0.0163879751	 0.134008
H	 1.8864101268	-1.4832809104	 3.121729874	 0.13022
H	 0.2747115167	-4.0999074673	 3.0295810103	 0.109212
H	 1.199332908	-3.4951612805	 4.4039420407	 0.118346
H	-0.210846688	-2.5904623224	 3.8260458717	 0.126075
H	 3.3789850553	-3.4648604255	 3.037870025	 0.119824
H	 2.5445311466	-4.0803731856	 1.6100295205	 0.109416
H	 3.454140289	-2.5596850146	 1.5173795893	 0.122482
38.5363	64.3792	92.9829	109.5647	176.0106	194.1671	208.9517	231.7355	246.1482	291.8596	312.1302	355.2094	428.3992	449.7135	531.7656	582.3166	624.6593	741.6262	820.5949	837.1933	929.7308	946.8076	948.7023	1010.2236	1078.2209	1089.736	1094.563	1137.8924	1142.0723	1144.8227	1197.4095	1265.6594	1289.0692	1316.4534	1372.1978	1387.3763	1399.2624	1412.7345	1417.8656	1428.983	1460.0853	1473.9634	1484.8779	1488.2283	1489.7283	1496.9503	1497.6683	1504.7794	1509.0043	1519.0972	1746.6238	3007.0115	3021.029	3031.4547	3035.9846	3051.2425	3054.7012	3089.8409	3096.3719	3097.0846	3113.1359	3116.891	3121.648	3122.645	3133.1522	3135.2506
CCC(=O)N(C)C(C)C	CCC(=O)N(C)C(C)C	
InChI=1S/C7H15NO/c1-5-7(9)8(4)6(2)3/h6H,5H2,1-4H3	InChI=1S/C7H15NO/c1-5-7(9)8(4)6(2)3/h6H,5H2,1-4H3
