18
gdb 93264	2.29061	1.67623	1.23237	3.961	67.29	-0.2469	0.0098	0.2567	1051.5664	0.147296	-476.256758	-476.247585	-476.246641	-476.290191	34.185	
C	 0.1096924076	 1.5111045439	 0.0676975898	-0.434633
C	-0.0592336815	-0.0167926215	-0.0799026425	 0.09568
N	-1.450876153	-0.4530209142	-0.1289741858	-0.564243
C	 0.7781134584	-0.5796712883	-1.2411372451	 0.082693
O	 0.8241074551	 0.3066907584	-2.3407178218	-0.431555
C	 2.1497862178	-0.8061192028	-0.5760785923	-0.128901
O	 1.8660609574	-1.092829605	 0.8048579318	-0.222601
C	 0.6118923764	-0.6889323088	 1.1256711757	 0.462646
O	 0.1376396221	-0.8399067793	 2.2144912393	-0.357076
H	 1.1588731346	 1.8182578487	 0.1262113829	 0.123653
H	-0.3322647511	 2.0103795956	-0.798239965	 0.134363
H	-0.3974380721	 1.843446319	 0.9772815884	 0.130353
H	-1.8215236652	-0.4402555996	 0.8185688707	 0.243428
H	-2.0000833285	 0.2031369728	-0.6760658623	 0.229778
H	 0.3327356245	-1.541282448	-1.5234996306	 0.097579
H	 1.075296304	-0.1892477134	-3.1250236371	 0.293867
H	 2.7091534019	-1.6518086165	-0.9828308379	 0.120839
H	 2.7631069615	 0.0987944089	-0.6478409882	 0.12413
92.6069	177.1399	192.253	204.3943	247.3782	257.7477	267.7799	309.7644	321.0246	405.7175	499.3791	564.5407	609.1721	663.9667	729.5512	752.2627	852.4179	899.9197	955.7118	1003.6638	1048.2728	1065.3332	1078.2397	1113.1691	1128.0605	1169.4739	1218.0938	1255.8946	1273.8466	1330.3211	1354.9075	1373.5344	1401.3674	1450.1903	1488.4046	1496.2964	1520.1416	1640.0037	1880.6546	3035.0503	3041.052	3048.5896	3108.7627	3113.0557	3130.8073	3482.0416	3565.1481	3838.2923
CC1(N)C(O)COC1=O	C[C@@]1(N)[C@@H](O)COC1=O	
InChI=1S/C5H9NO3/c1-5(6)3(7)2-9-4(5)8/h3,7H,2,6H2,1H3	InChI=1S/C5H9NO3/c1-5(6)3(7)2-9-4(5)8/h3,7H,2,6H2,1H3/t3-,5+/m0/s1
