17
gdb 58174	2.24327	1.34244	0.91866	2.8969	72.64	-0.2575	-0.0718	0.1857	1258.6874	0.131459	-458.935178	-458.925011	-458.924067	-458.970628	36.497	
C	-0.041524935	 1.5559934337	 0.1241424167	-0.409741
C	-0.0449593265	 0.0321083624	 0.053037272	 0.117409
O	-1.3550720353	-0.5065088871	 0.1184314137	-0.422629
C	 0.7203308412	-0.4619901166	-1.2094506137	-0.011435
O	 2.0263644675	 0.04685324	-1.2085514685	-0.427925
C	 0.7827442173	-1.990907194	-1.2646296167	 0.210995
O	 1.8452566892	-2.5474085922	-1.0537683979	-0.320303
C	-0.40963796	-2.7253370759	-1.6026054027	 0.316151
C	-1.375241472	-3.3544951668	-1.9496318366	-0.415369
H	 0.9800770975	 1.9397408	 0.1009155091	 0.148064
H	-0.5831573651	 1.9815735098	-0.730957422	 0.104729
H	-0.5337617426	 1.8877478826	 1.0422243067	 0.124802
H	 0.4789066151	-0.3765941496	 0.9251330248	 0.103491
H	-1.8887648234	-0.0825721804	-0.5629689836	 0.280772
H	 0.178616795	-0.1073113105	-2.1019541581	 0.084756
H	 2.6006160599	-0.7223314517	-1.0563816543	 0.297101
H	-2.2307465828	-3.9146613736	-2.2404890588	 0.219132
44.4771	77.9491	134.3464	171.0762	228.3668	247.7893	278.3535	311.2319	342.0111	379.9504	395.8529	461.3404	467.1739	549.3651	620.9491	644.3776	703.2815	717.8765	865.7485	886.1811	953.1399	1060.7786	1096.9625	1114.0588	1128.7978	1158.8072	1248.77	1279.6249	1323.3652	1367.0225	1396.646	1412.2438	1436.6813	1488.7082	1497.2055	1740.4719	2215.8052	2974.3713	3024.3044	3051.3463	3103.9256	3144.2438	3493.9379	3665.2681	3799.5258
CC(O)C(O)C(=O)C#C	C[C@@H](O)[C@@H](O)C(=O)C#C	
InChI=1S/C6H8O3/c1-3-5(8)6(9)4(2)7/h1,4,6-7,9H,2H3	InChI=1S/C6H8O3/c1-3-5(8)6(9)4(2)7/h1,4,6-7,9H,2H3/t4-,6-/m1/s1
