15
gdb 124317	4.83144	1.0057	0.88653	6.9256	67.01	-0.2794	-0.0476	0.2318	1268.7799	0.111915	-450.122563	-450.114248	-450.113304	-450.157069	28.516	
C	 0.1273676092	 1.4792179959	 0.0702357826	-0.480533
C	-0.2986475399	 0.0295563354	 0.0115004228	 0.376114
O	-1.0717463085	-0.4699388195	 0.789423939	-0.271322
C	 0.3081869334	-0.7764231561	-1.1474231788	-0.265865
N	 0.1646246011	-2.2042791231	-0.9957830323	 0.034091
C	-0.9072764541	-2.9801182336	-0.7475248651	 0.076989
N	-0.5232776498	-4.2365051236	-0.6992376625	-0.226855
N	 0.8195069955	-4.2179433243	-0.9182400314	-0.091669
N	 1.2467524574	-3.0160919042	-1.0960970473	-0.125466
H	 1.1707309896	 1.5373519919	 0.402581383	 0.161969
H	 0.080361709	 1.9468711827	-0.9190705504	 0.145756
H	-0.5042349085	 2.0219514258	 0.7736427053	 0.160104
H	-0.1708726039	-0.4364939539	-2.0755036193	 0.160759
H	 1.3772391903	-0.5738079504	-1.2466100879	 0.169786
H	-1.9038764709	-2.6040515929	-0.5975362677	 0.176141
46.6521	58.3869	116.2655	126.9125	277.0942	319.7636	341.2896	465.938	572.5869	666.6701	734.9679	786.1825	813.1079	853.7121	864.4025	974.1628	987.6659	1037.0374	1068.792	1118.412	1154.0525	1190.0951	1208.4295	1295.5438	1328.8151	1374.5933	1388.4368	1445.6416	1459.6232	1473.2642	1474.3832	1515.7109	1832.4509	3029.0943	3038.9495	3099.09	3116.6971	3159.9501	3310.3685
CC(=O)CN1C=NN=N1	CC(=O)Cn1cnnn1	
InChI=1S/C4H6N4O/c1-4(9)2-8-3-5-6-7-8/h3H,2H2,1H3	InChI=1S/C4H6N4O/c1-4(9)2-8-3-5-6-7-8/h3H,2H2,1H3
