20
gdb 61464	3.15388	0.9426	0.87749	5.1239	76.	-0.2454	0.0213	0.2667	1401.4374	0.170192	-440.294407	-440.285035	-440.28409	-440.329222	34.47	
C	-0.2665320062	 1.524121078	 0.0097602887	-0.33619
N	-0.1075775419	 0.0816884739	 0.2137601381	-0.106196
H	 1.6310265105	-0.2872132423	-0.6057197507	 0.295604
C	 0.6625586339	-0.2204331753	 1.4218245893	-0.298338
C	 2.1753353595	-0.1559335739	 1.1627370613	 0.408046
O	 2.4929458643	-0.2501496972	-0.13931234	-0.362019
O	 2.9942642585	-0.0676150522	 2.0350631261	-0.330037
C	-1.3649041119	-0.6208648213	 0.1363829233	 0.062874
C	-1.8949518936	-0.9798979791	-1.2240474841	-0.278998
C	-1.3568196462	-2.0564189647	-0.3105971449	-0.283652
H	 0.7156026389	 2.0048478162	-0.0176486886	 0.138743
H	-0.7669554902	 1.7037718353	-0.944668803	 0.132546
H	-0.8593747147	 1.9971574907	 0.8100168125	 0.113475
H	 0.4299691654	 0.4355093552	 2.2721890454	 0.127013
H	 0.4403027329	-1.2462856669	 1.73254873	 0.144995
H	-2.1059776737	-0.3454500776	 0.8914880023	 0.084283
H	-2.9642291675	-0.9228141134	-1.3915882414	 0.121253
H	-1.2848075175	-0.7078043627	-2.0779205937	 0.120805
H	-0.397583533	-2.4909946106	-0.568684164	 0.123116
H	-2.0541814877	-2.7425095621	 0.1560034034	 0.122676
58.1196	88.108	110.4494	172.7722	215.5581	244.4461	309.218	369.6637	390.6549	468.4121	529.6415	582.8743	636.6007	767.9395	820.9597	839.2897	841.1045	871.9089	920.1868	972.8027	988.6235	1035.7302	1058.7478	1084.3944	1113.1256	1139.9738	1149.9355	1188.1909	1196.4908	1210.793	1231.8188	1261.6866	1300.4587	1357.1917	1393.9185	1413.486	1456.8502	1459.4942	1472.988	1494.5947	1504.6478	1506.3265	1880.5614	2974.7791	3016.1421	3060.187	3081.0344	3087.0797	3125.5969	3139.2789	3143.709	3222.0507	3235.6058	3509.5257
C[NH+](CC([O-])=O)C1CC1	CN(CC(=O)O)C1CC1	
InChI=1S/C6H11NO2/c1-7(4-6(8)9)5-2-3-5/h5H,2-4H2,1H3,(H,8,9)	InChI=1S/C6H11NO2/c1-7(4-6(8)9)5-2-3-5/h5H,2-4H2,1H3,(H,8,9)
