19
gdb 88892	6.24679	0.56846	0.54357	1.4829	98.92	-0.2385	-0.0075	0.231	2021.4461	0.156858	-348.692295	-348.682369	-348.681425	-348.727945	36.224	
C	 0.2611027123	 1.5571374612	-0.2842509891	-0.404703
C	 0.1048599037	 0.0700675066	-0.0474548781	-0.008373
C	 1.3087757271	-0.8352482684	 0.070448882	-0.282482
C	 0.4264363108	-0.5995336412	 1.2706211765	 0.017014
C	 0.9366147628	 0.1804261273	 2.4775617444	-0.423606
C	 1.6545558627	-0.6611621853	 3.4260014075	 0.385689
C	 2.2427126944	-1.372339959	 4.2091897457	-0.240389
C	 2.904464462	-2.1721270428	 5.0891307031	 0.293703
C	 3.4920726488	-2.8811090753	 5.8706558617	-0.55689
H	 1.1668144418	 1.956248357	 0.1816573207	 0.115841
H	 0.3317862801	 1.7693326371	-1.3565482803	 0.119852
H	-0.5929234775	 2.1201974818	 0.10899343	 0.118023
H	-0.7500888476	-0.3602140298	-0.5633712561	 0.086736
H	 1.2939676077	-1.8082090164	-0.4078392595	 0.113464
H	 2.2856996904	-0.3601847987	 0.0735820303	 0.112109
H	-0.2250755797	-1.4227680539	 1.5489357355	 0.095511
H	 1.5962233623	 0.994561112	 2.1542684469	 0.133989
H	 0.0940995866	 0.6621352768	 2.9933547175	 0.136699
H	 4.0079663115	-3.504976299	 6.5572284411	 0.187811
36.9499	62.1674	149.6037	156.2798	202.2946	220.3034	298.6047	349.5215	393.2629	447.0602	477.6933	525.1452	530.3902	587.4015	590.5123	738.4886	760.8414	824.5412	863.3765	876.4275	926.9389	978.2491	1049.7568	1072.9136	1108.8529	1143.4379	1151.2232	1174.4194	1199.1654	1243.2752	1252.5113	1318.5417	1388.0737	1414.7846	1427.6961	1459.8594	1493.6488	1494.8574	1505.5217	2181.4277	2364.1291	3010.7171	3029.9511	3053.6778	3088.5186	3102.1878	3125.7155	3133.8549	3150.4949	3210.8748	3506.5577
CC1CC1CC#CC#C	C[C@H]1C[C@H]1CC#CC#C	
InChI=1S/C9H10/c1-3-4-5-6-9-7-8(9)2/h1,8-9H,6-7H2,2H3	InChI=1S/C9H10/c1-3-4-5-6-9-7-8(9)2/h1,8-9H,6-7H2,2H3/t8-,9+/m0/s1
