20
gdb 33086	6.30404	0.74688	0.6773	1.4644	84.68	-0.1828	0.0352	0.218	1703.2068	0.170521	-403.179683	-403.170094	-403.16915	-403.214548	34.928	
C	-0.0866455477	 1.5202480711	 0.0277510792	-0.400734
C	-0.0058486161	-0.0004739837	-0.046107752	-0.108601
N	 0.7627016862	-0.4255572888	-1.2062643031	-0.397882
C	 0.8836304075	-1.7954261701	-1.43205176	 0.300958
C	 0.6041760789	-2.8278981871	-0.583600384	-0.11976
O	 0.9318726931	-4.0248149641	-1.1756094453	-0.194155
C	 1.408499836	-3.7474272905	-2.4147255505	 0.39688
C	 1.8220639414	-4.9052507741	-3.2511625967	-0.488257
C	 1.4054080053	-2.4038972293	-2.6278637412	-0.400014
H	 0.9137548207	 1.9608591821	 0.0677838771	 0.129615
H	-0.604161717	 1.9310115977	-0.8473056815	 0.114059
H	-0.6412527159	 1.834457385	 0.9162565559	 0.120888
H	 0.4995587474	-0.3880486334	 0.8478493033	 0.112075
H	-1.0207318434	-0.4363838378	-0.0433367232	 0.089786
H	 0.5128535205	 0.0839455176	-2.0438321713	 0.226149
H	 0.2096294504	-2.8901746323	 0.4147217323	 0.118131
H	 0.9857625858	-5.5908264018	-3.4302333382	 0.13584
H	 2.1900148902	-4.5546880433	-4.2179376114	 0.131714
H	 2.6192226832	-5.4831301904	-2.7696905636	 0.136959
H	 1.7394985835	-1.8949410869	-3.5193478756	 0.096348
63.9472	94.7692	108.885	126.4906	208.3155	254.4732	296.9695	336.4143	357.287	444.1401	568.4108	618.9308	637.8092	670.5343	689.6765	769.5687	784.9907	822.8815	922.9188	947.2953	999.9692	1025.0329	1062.6858	1079.7475	1141.0476	1152.9886	1165.803	1197.8349	1251.2052	1289.926	1317.2038	1368.1112	1403.6291	1414.0509	1421.663	1471.734	1488.0767	1490.6479	1499.3449	1513.2367	1527.7816	1597.3091	1674.9974	2944.0816	3029.5322	3030.0254	3036.1609	3079.1604	3100.4911	3121.3149	3128.2871	3245.7309	3294.8463	3561.4835
CCNC1=COC(C)=C1	CCNc1coc(C)c1	
InChI=1S/C7H11NO/c1-3-8-7-4-6(2)9-5-7/h4-5,8H,3H2,1-2H3	InChI=1S/C7H11NO/c1-3-8-7-4-6(2)9-5-7/h4-5,8H,3H2,1-2H3
