20
gdb 93079	2.26042	1.57162	1.01334	3.0096	81.57	-0.2173	-0.016	0.2014	1204.3624	0.171367	-403.150867	-403.142131	-403.141187	-403.184529	32.919	
C	 0.0149261048	 1.4830275556	 0.0677935448	-0.317585
N	-0.007019981	 0.0280004897	-0.0261778643	-0.06336
C	-1.3701669629	-0.4726871211	-0.240554556	-0.201751
C	-1.4224846981	-1.8439019997	-0.8762526465	-0.042042
C	-0.9445427578	-2.9534730102	-0.3193945682	-0.062436
C	-0.2659501634	-3.0016501694	 1.032082014	-0.35522
C	 0.9330965013	-2.0579817641	 1.0901674213	 0.388733
O	 2.0635837398	-2.4765527293	 1.1634883353	-0.29194
C	 0.658251273	-0.5504283702	 1.1398665153	-0.238555
H	 1.0487401715	 1.829078173	 0.1587408111	 0.125412
H	-0.4089781506	 1.9176942263	-0.8422220049	 0.121289
H	-0.5522173328	 1.8767426614	 0.9335193113	 0.092589
H	-1.9461200095	-0.4731871593	 0.709077268	 0.087302
H	-1.8752401098	 0.2376381586	-0.8997679326	 0.105613
H	-1.8789948222	-1.9044469105	-1.8600762558	 0.096006
H	-1.0035338948	-3.8927019827	-0.8614144155	 0.10301
H	-0.9765081566	-2.7110231868	 1.8190368755	 0.121903
H	 0.0958717925	-4.0064555173	 1.2549197991	 0.125024
H	 1.6337250884	-0.0727540815	 1.2551648385	 0.123416
H	 0.0789982084	-0.3595569025	 2.0714965096	 0.082591
75.0277	84.389	146.9626	244.4981	302.1235	315.5743	351.2089	382.8698	427.0551	463.315	525.4596	609.5031	685.4428	720.4391	857.2173	888.5979	902.0086	924.7829	988.6409	997.3294	1016.1339	1045.824	1070.9971	1119.0881	1151.2826	1182.9433	1218.0926	1249.6996	1259.693	1273.9179	1308.051	1321.9769	1378.2694	1397.1326	1418.6121	1457.6396	1468.4586	1475.5755	1487.9197	1496.3415	1506.1539	1724.2209	1816.0505	2853.1704	2877.2016	2922.777	3011.8247	3064.957	3084.9617	3100.3184	3110.688	3119.7277	3157.973	3181.1525
CN1CC=CCC(=O)C1	CN1CC=CCC(=O)C1	
InChI=1S/C7H11NO/c1-8-5-3-2-4-7(9)6-8/h2-3H,4-6H2,1H3	InChI=1S/C7H11NO/c1-8-5-3-2-4-7(9)6-8/h2-3H,4-6H2,1H3
