25
gdb 58186	2.19662	1.22397	0.97866	0.3294	84.77	-0.2454	0.065	0.3105	1381.2959	0.224621	-426.635495	-426.623666	-426.622722	-426.671584	44.635	
C	 0.1654988778	 1.6110829595	-0.3404695246	-0.382366
C	 0.0742077865	 0.1405450277	 0.1038063472	-0.001095
C	 0.8472676259	-0.0445503823	 1.4188196742	-0.394018
C	-1.4080977071	-0.3009324652	 0.1613339341	 0.10096
O	-2.0678514438	 0.0207486788	-1.0669006188	-0.431507
C	-1.7109830264	-1.7869098681	 0.5380753354	 0.322345
C	-3.2255560408	-2.0321951346	 0.4640472788	-0.407301
C	-0.963422073	-2.7808056908	-0.3538363759	-0.407881
O	-1.2620775724	-2.0656485057	 1.8699449342	-0.454644
H	 1.2118947871	 1.9087336843	-0.4619121573	 0.105736
H	-0.3589878807	 1.7883502394	-1.2810122429	 0.116106
H	-0.2805207772	 2.2693267886	 0.4149601328	 0.110374
H	 0.5656155314	-0.472477185	-0.6676610406	 0.063298
H	 0.8923051573	-1.0846465141	 1.7380577138	 0.138967
H	 1.867609035	 0.3371540008	 1.304374628	 0.102081
H	 0.3753613206	 0.5275611816	 2.2271849787	 0.101224
H	-1.9171038399	 0.3209590781	 0.913918334	 0.067039
H	-1.5387179298	-0.3437481807	-1.7846324148	 0.279425
H	-3.6099814958	-1.8821133936	-0.5457171084	 0.128112
H	-3.4467271221	-3.0517798335	 0.7922078304	 0.113374
H	-3.7595625003	-1.3365927785	 1.1235471605	 0.099225
H	 0.118192189	-2.6918921736	-0.2274364532	 0.127195
H	-1.2492591551	-3.8025834778	-0.0903639549	 0.124235
H	-1.2087053553	-2.6252540053	-1.4090757934	 0.103891
H	-1.7829586108	-1.5265802299	 2.4752519228	 0.275225
55.6717	86.4807	190.8569	207.662	218.3338	227.5714	245.5433	277.2532	281.5702	289.7221	297.1598	332.9216	364.9821	384.766	387.9839	443.5129	489.0322	528.9235	559.9192	763.1523	843.4985	906.1617	928.7781	936.5548	954.1755	970.7248	1002.9573	1012.1193	1048.3509	1088.9653	1124.0007	1156.3809	1193.7945	1208.7973	1231.777	1262.6427	1303.8641	1346.5044	1365.5975	1385.0367	1398.8957	1402.3537	1405.8352	1423.9679	1428.032	1479.6706	1485.3134	1486.3848	1492.4405	1498.5412	1502.2102	1507.3693	1516.0895	2979.3902	2995.5542	3028.0893	3028.6196	3034.0339	3044.7704	3083.6309	3095.2787	3098.7594	3113.6812	3125.093	3131.0632	3144.435	3157.2414	3801.8404	3804.8909
CC(C)C(O)C(C)(C)O	CC(C)[C@@H](O)C(C)(C)O	
InChI=1S/C7H16O2/c1-5(2)6(8)7(3,4)9/h5-6,8-9H,1-4H3	InChI=1S/C7H16O2/c1-5(2)6(8)7(3,4)9/h5-6,8-9H,1-4H3/t6-/m1/s1
