21
gdb 109918	2.03295	1.7394	1.04374	1.4206	80.08	-0.2436	0.017	0.2606	1199.9407	0.182069	-424.22503	-424.215639	-424.214695	-424.259207	35.434	
C	-0.0641328704	 1.426406269	 0.034582476	-0.249132
O	-0.0239286072	 0.0176864131	 0.1802544412	-0.253648
C	-1.2954921218	-0.6118075496	 0.0935284878	 0.05344
C	-1.1431202166	-2.0201354965	-0.5520996144	-0.050925
C	 0.0506786419	-2.1761764222	-1.4998932114	-0.389674
C	-1.1226423492	-2.941394885	 0.6487863663	-0.062033
C	-1.5002493452	-2.3338390195	 1.7702127403	-0.122667
C	-1.8409299218	-0.8796376987	 1.5426987708	 0.086645
O	-1.2988842614	 0.0017016902	 2.5085051648	-0.433083
H	 0.9672256549	 1.7829570338	 0.1011908669	 0.125069
H	-0.4747500815	 1.7136009353	-0.9446356257	 0.109369
H	-0.662162557	 1.8991519665	 0.8232798033	 0.127668
H	-1.9737558619	 0.0243357392	-0.4875950368	 0.062676
H	-2.0582959448	-2.2178189214	-1.130348812	 0.083773
H	 0.992157796	-1.9848823459	-0.9816698868	 0.131948
H	 0.076810488	-3.1921482581	-1.907835114	 0.10649
H	-0.0174358661	-1.479237502	-2.3411055498	 0.110447
H	-0.8538146376	-3.9892484209	 0.5591270842	 0.092692
H	-1.5880251253	-2.7876612321	 2.7508068932	 0.097814
H	-2.9258981531	-0.7198430589	 1.5800982664	 0.08983
H	-0.3464611498	-0.0019794767	 2.3463297997	 0.2833
53.1455	118.53	190.159	213.2077	228.2961	239.595	300.6294	314.8818	374.116	451.9809	484.893	497.3858	618.5495	688.2945	759.8648	813.0231	852.4886	859.3783	930.9299	965.845	979.1568	1029.6224	1056.7074	1079.7177	1122.1211	1126.7554	1142.4745	1168.5195	1181.9792	1218.2343	1228.9785	1273.9557	1294.3987	1316.1359	1337.1031	1376.1629	1391.8208	1410.6244	1434.8069	1478.9837	1487.2177	1492.445	1499.0875	1516.7244	1685.3719	2984.4886	2991.4983	3021.7238	3037.0416	3040.1121	3060.0897	3100.9776	3113.4455	3134.4696	3175.9432	3207.0771	3768.0558
COC1C(C)C=CC1O	CO[C@H]1[C@@H](C)C=C[C@H]1O	
InChI=1S/C7H12O2/c1-5-3-4-6(8)7(5)9-2/h3-8H,1-2H3	InChI=1S/C7H12O2/c1-5-3-4-6(8)7(5)9-2/h3-8H,1-2H3/t5-,6+,7-/m0/s1
