16
gdb 30008	3.21745	1.60918	1.1235	1.382	77.37	-0.1868	-0.0112	0.1756	1035.6595	0.127213	-400.776342	-400.769191	-400.768246	-400.807772	28.568	
O	 0.1472682449	 1.4162130856	-0.2255711375	-0.424128
C	 0.0209665249	 0.0096758031	-0.0490878177	-0.059998
C	 0.6350946386	-0.5410295819	 1.2461387944	-0.145062
C	-0.2508939268	-1.2873087127	 1.9303746528	-0.202652
C	-1.5324425597	-1.3049431196	 1.2073233854	 0.292848
C	-1.3791148346	-0.5297892186	 0.0793482993	 0.249632
N	-2.5461569409	-0.542408512	-0.6215211764	-0.374708
C	-3.4615144985	-1.3171040223	 0.064978948	-0.07033
C	-2.8586176797	-1.8125218169	 1.2068726185	-0.337553
H	-0.239346946	 1.8294848774	 0.5550060596	 0.283422
H	 0.5385510606	-0.4251339672	-0.9150668632	 0.109468
H	 1.6586485217	-0.3238249732	 1.5213033195	 0.099216
H	-0.0578195004	-1.7964706932	 2.8669568804	 0.100453
H	-2.7361208916	-0.0392358078	-1.4711631059	 0.265657
H	-4.4647418318	-1.4419029165	-0.3102377813	 0.118261
H	-3.330296731	-2.4583800443	 1.9316807143	 0.095474
119.4588	163.8215	285.0709	346.218	358.4016	483.4013	507.2384	558.5188	626.5688	642.3921	685.6668	701.6201	714.2787	768.4785	817.9384	843.8282	932.3198	944.8331	969.8661	1035.7974	1065.5903	1081.2566	1119.1738	1174.5159	1213.4225	1246.8642	1261.2609	1319.4761	1368.0186	1415.0886	1458.5194	1469.6563	1517.2188	1563.1653	1623.1847	3024.5435	3201.2743	3230.2956	3243.9326	3267.3434	3673.4012	3797.1644
OC1C=CC2=C1NC=C2	O[C@H]1C=Cc2c1[nH]cc2	
InChI=1S/C7H7NO/c9-6-2-1-5-3-4-8-7(5)6/h1-4,6,8-9H	InChI=1S/C7H7NO/c9-6-2-1-5-3-4-8-7(5)6/h1-4,6,8-9H/t6-/m0/s1
