17
gdb 67725	2.34679	1.9475	1.73737	2.3613	77.1	-0.2453	-0.0044	0.2409	907.3266	0.136318	-384.709605	-384.702208	-384.701264	-384.741007	29.747	
C	 0.0213632366	 1.5459891595	 0.0186531072	-0.50462
C	 0.0726684989	 0.030976047	 0.0025774505	 0.141999
C	 0.5905807547	-0.6545126354	-1.257011991	-0.111462
C	 0.182190427	-1.9311002099	-1.2662491886	-0.094662
C	-0.6269852073	-2.1873142423	-0.0042183515	-0.218332
C	 0.2356998493	-1.9556064393	 1.2267436802	-0.094673
C	 0.6436555217	-0.6788459426	 1.2252137275	-0.111378
C	-1.3036672398	-0.7591521997	 0.0243873396	 0.405939
O	-2.4299907662	-0.3893234621	 0.0526615339	-0.315597
H	 1.0294587379	 1.9731633855	 0.0058585011	 0.119451
H	-0.519773192	 1.9277277386	-0.8518178201	 0.131009
H	-0.4898396569	 1.9098662524	 0.9145032227	 0.131186
H	 1.1602172795	-0.1364716632	-2.0175705773	 0.107715
H	 0.3497303778	-2.6741590555	-2.033775843	 0.111254
H	-1.2782406264	-3.0584978141	 0.0011882278	 0.083204
H	 0.4357685854	-2.7135580652	 1.9715837437	 0.111262
H	 1.2454847499	-0.1755753537	 1.9707513674	 0.107705
135.4106	166.6676	219.0023	294.8316	406.7061	417.5858	470.849	545.908	619.4864	638.5021	688.4043	739.9961	747.6274	781.22	799.5918	861.8403	892.1151	920.4049	924.7014	931.8498	974.9062	985.0048	1082.0692	1097.2909	1131.1543	1171.8848	1182.8568	1256.0463	1260.4917	1305.5056	1363.7002	1414.4548	1492.395	1492.7303	1586.5442	1634.0014	1903.8628	3039.9202	3106.8979	3116.8165	3146.4196	3208.8612	3210.016	3233.953	3236.119
CC12C=CC(C=C1)C2=O	C[C@@]12C=C[C@@H](C=C1)C2=O	
InChI=1S/C8H8O/c1-8-4-2-6(3-5-8)7(8)9/h2-6H,1H3	InChI=1S/C8H8O/c1-8-4-2-6(3-5-8)7(8)9/h2-6H,1H3/t6-,8+
