14
gdb 55668	2.56313	1.17885	0.95733	2.0755	65.6	-0.2597	-0.0362	0.2235	1222.8464	0.097278	-473.828896	-473.819454	-473.81851	-473.864212	32.805	
N	-0.0927713505	 1.2949874769	 0.0135894676	-0.564194
C	 0.0781607494	-0.0538158832	-0.0084477725	 0.527098
O	 1.1345543487	-0.638689339	-0.0055100234	-0.398786
O	-1.1433969854	-0.665524618	-0.0941750553	-0.253585
C	-1.0955677481	-2.0832016092	-0.0239346477	-0.14553
C	-1.0839513425	-2.547885608	 1.4461664298	 0.153962
O	-0.9948908213	-1.7957391807	 2.3731589922	-0.22535
C	-2.235979291	-2.6594734703	-0.7205272443	 0.28268
C	-3.1802037569	-3.1876512171	-1.2415687616	-0.399959
H	 0.7145636472	 1.840996152	 0.2606892054	 0.274661
H	-1.0014211365	 1.662499568	 0.240290899	 0.27275
H	-0.1515226151	-2.4351454891	-0.4645231393	 0.161739
H	-1.1575023379	-3.6495676053	 1.5626924173	 0.103919
H	-4.01018731	-3.6432744871	-1.7236292574	 0.210596
43.2503	78.1794	97.5244	143.3354	188.2332	290.1094	304.7088	366.1937	418.6283	473.1806	505.301	544.7968	619.6044	652.3017	693.2592	695.1261	773.9912	818.5252	973.6961	1013.3573	1033.0144	1120.6463	1136.1544	1268.3497	1316.7133	1373.0711	1410.5533	1614.2508	1839.7083	1855.1959	2243.9499	2917.8834	3017.6289	3500.9691	3614.9806	3743.6068
NC(=O)OC(C=O)C#C	NC(=O)O[C@@H](C=O)C#C	
InChI=1S/C5H5NO3/c1-2-4(3-7)9-5(6)8/h1,3-4H,(H2,6,8)	InChI=1S/C5H5NO3/c1-2-4(3-7)9-5(6)8/h1,3-4H,(H2,6,8)/t4-/m1/s1
