19
gdb 35228	3.06025	1.2147	1.05614	1.3082	82.64	-0.2246	0.0487	0.2733	1203.2999	0.158979	-385.85188	-385.84337	-385.842425	-385.885413	32.721	
C	-0.2259477387	-1.0513220435	-0.2442079526	-0.470224
C	-0.1028659893	 0.1380439139	-0.0995534872	 0.340689
C	 0.0777307107	 1.5464092849	 0.0584339042	-0.28582
C	 0.6255736854	 2.1255318614	 1.3696062408	-0.366678
C	 1.483615445	 2.1615180334	 0.1612399938	 0.45325
C	 2.7490585252	 1.3334325336	-0.0642231895	-0.318625
C	 3.5639247109	 2.2059688263	-1.0512806488	-0.21172
C	 2.5187447573	 3.2114323905	-1.5557435029	-0.092973
O	 1.6519805648	 3.4161583718	-0.4426721554	-0.276665
H	-0.3513259782	-2.0984076366	-0.3655910979	 0.193187
H	-0.6398236628	 2.180240393	-0.4538400829	 0.117846
H	 0.1917889255	 3.0617795416	 1.7022816405	 0.128608
H	 0.8764849879	 1.4219503034	 2.1554577053	 0.126808
H	 3.2923890403	 1.1644261979	 0.8689534641	 0.111327
H	 2.5000788778	 0.3551233754	-0.4826578254	 0.128298
H	 4.3639590536	 2.7344435558	-0.5256500484	 0.111269
H	 4.0161718377	 1.6277861029	-1.8602324175	 0.105622
H	 2.9296577619	 4.1825954776	-1.8404176374	 0.109426
H	 1.9563448751	 2.8021492967	-2.4093595527	 0.096373
50.6285	126.7182	128.2745	213.4842	300.4973	334.9264	411.8172	515.2429	522.8153	556.1664	586.2315	625.2864	649.4348	775.2289	800.1048	830.164	873.2489	889.7631	915.5743	931.0064	951.2585	1022.365	1038.9917	1073.0693	1090.3636	1110.7113	1126.6851	1199.5986	1218.9384	1230.6103	1261.3947	1293.8863	1321.3933	1346.0696	1380.1852	1399.5578	1474.7326	1488.1972	1504.3173	1519.5499	2227.1858	2985.6705	3060.0588	3067.6776	3099.5106	3104.7068	3120.2427	3137.506	3155.2171	3232.3635	3505.2246
C#CC1CC11CCCO1	C#C[C@H]1C[C@]21CCCO2	
InChI=1S/C8H10O/c1-2-7-6-8(7)4-3-5-9-8/h1,7H,3-6H2	InChI=1S/C8H10O/c1-2-7-6-8(7)4-3-5-9-8/h1,7H,3-6H2/t7-,8-/m0/s1
