13
gdb 25354	7.1606	0.87182	0.77719	3.4682	80.55	-0.2445	-0.0669	0.1776	1349.897	0.088382	-419.434539	-419.426872	-419.425928	-419.466988	28.029	
O	-0.0039390812	-0.0807523433	-0.0010794698	-0.271887
C	-0.0076951639	 1.1284158609	 0.0088476705	 0.069935
C	 1.1758357754	 1.9760555486	 0.0030095162	 0.290685
C	 1.3054400319	 3.3376374116	 0.0128569935	-0.378176
C	 2.7099219722	 3.6176622612	-0.0002593845	 0.131472
C	 3.3175310803	 2.3834751732	-0.0167666739	-0.092895
O	 2.4132119126	 1.3939729845	-0.0151017567	-0.148262
C	 3.3448251758	 4.8808029228	 0.0030891471	 0.227174
C	 3.8731964506	 5.9620086816	 0.0061504671	-0.416461
H	-0.9502055601	 1.7176345467	 0.0239212223	 0.084343
H	 0.5048966775	 4.0604313511	 0.0274901267	 0.14248
H	 4.3544915011	 2.0893671875	-0.0303752614	 0.164139
H	 4.3436029777	 6.9140313036	 0.008814713	 0.197453
87.1786	124.5659	196.398	215.8438	297.6294	431.2414	469.4697	533.2783	583.8526	623.4944	649.9694	659.229	664.6003	779.2116	812.5191	860.3883	953.6525	999.6437	1020.2149	1146.2087	1204.6668	1249.8065	1324.6167	1366.3259	1408.2518	1536.6918	1615.4841	1792.951	2241.4042	2897.4699	3266.5825	3279.2245	3503.2085
O=CC1=CC(=CO1)C#C	O=Cc1cc(co1)C#C	
InChI=1S/C7H4O2/c1-2-6-3-7(4-8)9-5-6/h1,3-5H	InChI=1S/C7H4O2/c1-2-6-3-7(4-8)9-5-6/h1,3-5H
