17
gdb 44683	3.50294	1.42024	1.08695	0.8219	74.33	-0.2331	-0.0402	0.193	1076.6336	0.138128	-418.016696	-418.009424	-418.00848	-418.048632	28.034	
O	-0.0592661226	 0.03709717	-0.3410533358	-0.273894
C	-0.0320368318	 1.1999078821	-0.0814822033	 0.376668
C	-1.0992828442	 2.2542472327	 0.2938885469	-0.30492
N	 0.0042390175	 3.2402149428	 0.3877456784	-0.097006
C	 0.1909517316	 4.0743531069	 1.4753676536	 0.068568
N	 1.2962246104	 4.3388505483	 2.0526190502	-0.25348
C	 2.4663289477	 3.5800733725	 1.6126249809	-0.152484
C	 2.1269263048	 2.1523017752	 1.1423713561	-0.246279
C	 1.0750264521	 2.2649143955	 0.0401421474	-0.086006
H	-1.833028069	 2.46659175	-0.4911869675	 0.144832
H	-1.624940648	 2.0469703916	 1.2337313776	 0.143585
H	-0.7217393722	 4.566453757	 1.8169774039	 0.112171
H	 2.976785328	 4.1265018031	 0.806220357	 0.110425
H	 3.1711052017	 3.5363796546	 2.4490984831	 0.112356
H	 3.0134707296	 1.6272003589	 0.7782887621	 0.117289
H	 1.7276912444	 1.5842076675	 1.990172406	 0.11284
H	 1.5424990301	 2.4996647413	-0.9244548066	 0.115334
84.2478	163.6828	229.7193	263.4876	384.7889	451.8999	499.2473	529.5495	560.3418	637.096	733.7598	783.8025	814.7569	885.026	930.4399	956.2652	966.9126	1014.7226	1048.8545	1074.5618	1098.769	1127.1681	1134.2014	1192.1035	1239.3406	1247.7842	1271.2129	1312.8413	1321.8024	1351.4391	1365.1478	1407.9032	1471.7808	1484.9163	1491.1962	1702.887	1920.6546	3004.9196	3025.2163	3032.255	3045.5817	3068.8917	3081.8559	3104.8576	3113.219
O=C1CN2C=NCCC12	O=C1CN2C=NCC[C@@H]12	
InChI=1S/C6H8N2O/c9-6-3-8-4-7-2-1-5(6)8/h4-5H,1-3H2	InChI=1S/C6H8N2O/c9-6-3-8-4-7-2-1-5(6)8/h4-5H,1-3H2/t5-/m0/s1
