17
gdb 80837	2.61205	1.70589	1.33454	3.2857	67.79	-0.2698	0.007	0.2768	992.5271	0.136185	-458.982073	-458.974293	-458.973349	-459.013989	30.447	
C	-0.17317419	 1.5428980005	 0.0169343405	-0.442163
C	 0.0278160765	 0.0359311031	 0.0534313489	-0.032026
C	 1.1519376011	-0.6107312139	-0.799589894	 0.071256
C	 2.1843766759	-0.2036967792	 0.2726049279	-0.309136
C	 0.9609571282	-0.549029196	 1.1957454429	 0.26267
O	 0.863455765	-0.2341792427	 2.5279202995	-0.480285
C	 0.824469956	-2.0188085518	 0.8410247873	 0.40245
O	 0.6328367755	-2.9546295169	 1.5638052814	-0.378466
O	 0.9575378234	-2.0440626326	-0.5122993919	-0.236082
H	 0.7576330997	 2.1090777028	 0.0987806583	 0.126351
H	-0.6662164865	 1.8399551934	-0.9145327952	 0.125702
H	-0.8170354843	 1.8473844298	 0.8474299301	 0.142149
H	-0.9358284743	-0.4733087574	-0.0511647783	 0.095443
H	 1.2788319919	-0.4741996331	-1.8692405814	 0.105379
H	 3.0832684156	-0.8177388606	 0.3563520107	 0.122565
H	 2.4360501344	 0.855471672	 0.2696111425	 0.125108
H	 0.6938252519	-1.0638162876	 2.9994023008	 0.299084
152.0215	169.4101	197.3781	265.4877	318.7675	346.8375	420.0339	475.9431	481.7375	575.1794	622.9022	699.4405	731.7214	810.1104	848.5357	881.8569	915.8512	941.5884	960.7722	1030.9658	1049.0151	1089.2572	1100.3476	1119.0216	1155.3954	1185.5728	1237.5651	1245.9944	1307.8952	1364.7182	1375.2618	1412.5502	1417.8779	1492.1557	1495.4495	1510.157	1896.9894	3043.3254	3057.7473	3087.7744	3107.1746	3123.1976	3162.0142	3174.9297	3720.3456
CC1C2CC1(O)C(=O)O2	C[C@H]1[C@H]2C[C@]1(O)C(=O)O2	
InChI=1S/C6H8O3/c1-3-4-2-6(3,8)5(7)9-4/h3-4,8H,2H2,1H3	InChI=1S/C6H8O3/c1-3-4-2-6(3,8)5(7)9-4/h3-4,8H,2H2,1H3/t3-,4+,6+/m0/s1
