17
gdb 34937	4.71499	0.99385	0.91924	5.3477	79.07	-0.2546	0.0142	0.2688	1271.6296	0.136467	-380.815852	-380.808129	-380.807185	-380.848146	29.746	
N	-0.1380755022	-1.0385304066	-0.0175946625	-0.324324
C	-0.0483816059	 0.1130021224	 0.0295214435	 0.297264
C	 0.0210919421	 1.5503127708	 0.1063071191	-0.177459
C	 0.6365181661	 2.1928631258	 1.3030676631	-0.113925
N	 1.3894938933	 2.1198525732	-0.0014740653	-0.125439
C	 1.1852936714	 3.611529515	-0.1560060809	-0.252137
C	 0.4864245314	 3.6897060064	 1.2093488064	 0.36231
C	-0.6356628794	 4.5622860815	 1.690663432	-0.326537
C	 0.7429043886	 4.682275576	 2.3006494109	-0.334665
H	-0.7970190303	 2.0628332252	-0.395266795	 0.132665
H	 0.9327931055	 1.6134379059	 2.1715782662	 0.122474
H	 2.1584385561	 4.1060651137	-0.1889596957	 0.12928
H	 0.6064713942	 3.8836986776	-1.0446274787	 0.116259
H	-0.9738978815	 5.3580266169	 1.0349598543	 0.122186
H	-1.421684275	 4.1067014246	 2.2839157897	 0.124269
H	 0.8896922251	 4.3056570996	 3.3077345813	 0.125113
H	 1.3383951005	 5.5571041419	 2.0599327415	 0.122665
107.997	129.9796	193.794	258.3625	297.3175	386.7868	447.3289	501.7648	531.3906	571.9136	769.7197	788.6542	827.4687	864.5386	869.5493	916.1298	921.01	965.5817	1008.7506	1025.0816	1046.2198	1057.9557	1072.638	1081.3908	1107.6222	1170.0981	1188.3927	1199.4032	1248.6151	1279.9954	1288.0169	1379.7312	1420.1747	1463.0602	1495.7217	1506.2298	2362.1825	3049.367	3113.5401	3126.6603	3130.5163	3134.295	3170.0939	3206.1723	3220.6961
N#CC1C2N1CC21CC1	N#C[C@H]1[C@H]2N1CC12CC1	
InChI=1S/C7H8N2/c8-3-5-6-7(1-2-7)4-9(5)6/h5-6H,1-2,4H2	InChI=1S/C7H8N2/c8-3-5-6-7(1-2-7)4-9(5)6/h5-6H,1-2,4H2/t5-,6+,9?/m0/s1
