20
gdb 50364	3.0959	1.25325	1.1586	4.107	79.54	-0.2379	0.0309	0.2687	1150.6345	0.173606	-403.177231	-403.16924	-403.168296	-403.210858	30.246	
O	 0.1969725203	-0.0802024694	-0.3234787113	-0.343758
C	 0.1913991201	 1.1345704847	-0.3235640452	 0.140643
N	 1.2178747298	 1.9227231968	 0.082842711	-0.038092
C	 2.5227285849	 1.4041944166	 0.4861221904	-0.189587
C	 3.5176883705	 2.4202234178	-0.0937807185	-0.019461
C	 3.8270468414	 2.2766390816	-1.6124443661	-0.221828
C	 2.9711501031	 3.537418153	-1.9163169217	-0.22357
C	 2.6724400506	 3.7126045033	-0.3992532356	-0.011285
C	 1.2421872306	 3.3802062185	 0.0479658796	-0.198057
H	-0.6746136227	 1.7345625635	-0.6695542692	 0.066175
H	 2.5957717365	 1.3649733159	 1.582115901	 0.106515
H	 2.6368550745	 0.3879241903	 0.1040546722	 0.142153
H	 4.3926256311	 2.5431235811	 0.5460829611	 0.073024
H	 4.8857530679	 2.3800734606	-1.8602538447	 0.103444
H	 3.4605463318	 1.3496807907	-2.061430875	 0.111324
H	 3.5217297426	 4.3683900619	-2.3627282177	 0.103732
H	 2.0840900776	 3.3503272779	-2.5283565533	 0.101697
H	 3.027392057	 4.648422698	 0.0348028838	 0.073362
H	 0.4724757828	 3.7608258843	-0.6302355866	 0.117993
H	 1.0467635795	 3.7948354428	 1.0478882058	 0.105575
47.7019	53.0387	219.7109	249.5617	305.4863	359.1464	367.1114	527.2689	599.2478	714.5839	741.2372	765.3397	831.1683	861.7364	862.8502	892.5893	936.2632	963.4872	995.2795	1027.9084	1035.3802	1067.1461	1101.768	1138.3338	1177.2231	1181.6552	1211.956	1227.7849	1249.7296	1264.9304	1271.0249	1281.5692	1324.3267	1336.443	1346.2351	1376.3629	1422.6238	1452.237	1473.6614	1491.642	1500.8863	1511.307	1789.1469	2924.4434	2991.6101	3004.9103	3055.0374	3062.8965	3080.8231	3087.7534	3099.9392	3103.5547	3116.4589	3122.5268
O=CN1CC2CCC2C1	O=CN1C[C@H]2CC[C@H]2C1	
InChI=1S/C7H11NO/c9-5-8-3-6-1-2-7(6)4-8/h5-7H,1-4H2	InChI=1S/C7H11NO/c9-5-8-3-6-1-2-7(6)4-8/h5-7H,1-4H2/t6-,7+
