22
gdb 50770	2.59432	1.24975	0.99254	3.963	83.37	-0.2352	0.032	0.2672	1277.5109	0.197204	-404.393922	-404.385235	-404.384291	-404.427833	33.207	
O	-0.1213385941	-0.045538538	 0.3452495092	-0.348551
C	-0.0354141495	 1.1637699988	 0.2728902773	 0.147564
N	 1.1140341379	 1.8643645168	 0.0602542499	-0.032929
C	 2.3643465844	 1.1128637883	-0.0714479175	-0.148972
C	 3.4227836873	 1.7718457224	-0.9618986036	-0.220153
C	 2.9155708163	 2.2907353203	-2.3187997565	-0.183937
C	 2.332810663	 3.7115987261	-2.2540752871	-0.185676
C	 1.0328471228	 3.8623862961	-1.4547573454	-0.177554
C	 1.0772279763	 3.3185699916	-0.0161444526	-0.187346
H	-0.9133709947	 1.833091219	 0.3762670545	 0.066589
H	 2.7930160585	 0.9287956192	 0.9240597677	 0.107191
H	 2.0834220401	 0.1350653919	-0.4713540386	 0.141934
H	 3.9145671797	 2.5939850906	-0.4264425601	 0.097276
H	 4.2010791441	 1.0165051551	-1.1188554769	 0.105081
H	 3.7528452467	 2.3007007849	-3.0257047239	 0.09796
H	 2.1743026151	 1.5940823588	-2.7318623424	 0.103868
H	 3.0952322537	 4.3771111717	-1.8251836161	 0.094595
H	 2.1551952137	 4.0743698754	-3.2733551761	 0.097373
H	 0.764929787	 4.9256061191	-1.4107775583	 0.096362
H	 0.212304147	 3.3548455419	-1.9776288738	 0.103756
H	 0.1804066093	 3.6513895156	 0.5169348837	 0.115289
H	 1.9327640354	 3.7337924845	 0.5303737667	 0.110282
35.7144	127.4694	200.1535	236.545	287.9387	311.1347	339.4661	369.472	412.1484	496.4031	516.9624	662.2852	744.7785	811.2544	824.3959	859.8734	891.0338	906.5948	989.2947	1001.5045	1013.141	1031.2926	1064.9537	1114.332	1129.0619	1173.1533	1210.6071	1221.2961	1270.5057	1274.0066	1306.3222	1314.023	1366.5333	1382.7719	1387.0188	1391.8865	1399.7011	1409.3745	1434.0486	1446.5397	1475.0355	1483.1762	1486.5015	1491.5369	1500.6014	1514.8545	1788.9462	2923.7915	3002.9381	3008.6254	3019.8568	3021.4326	3024.4922	3031.5791	3055.6653	3060.714	3065.1364	3068.3075	3077.0828	3097.4441
O=CN1CCCCCC1	O=CN1CCCCCC1	
InChI=1S/C7H13NO/c9-7-8-5-3-1-2-4-6-8/h7H,1-6H2	InChI=1S/C7H13NO/c9-7-8-5-3-1-2-4-6-8/h7H,1-6H2
