15
gdb 75780	2.88845	1.26811	1.12325	1.5339	68.19	-0.2562	-0.0402	0.216	1101.122	0.108604	-457.721556	-457.71246	-457.711516	-457.755221	33.563	
O	 0.1530429743	 0.9053033107	-0.7717990132	-0.431288
C	 0.034017376	-0.2480143883	 0.005017374	 0.00085
C	-0.0093831658	-0.1033288059	 1.5324617443	 0.331312
O	 0.4861066033	 0.7055151144	 2.2618158275	-0.293833
C	-1.1288985876	-1.1434396339	 1.653594974	-0.361036
C	-1.4157481157	-0.8781518929	 0.1399894926	 0.139544
O	-2.36635929	 0.1618412332	 0.0476024241	-0.461688
C	-1.7222495224	-2.019855986	-0.7065290835	 0.280216
C	-1.9551616363	-2.961819137	-1.4162157641	-0.423226
H	 0.2628164293	 1.650539546	-0.1674073508	 0.307609
H	 0.7531518754	-1.0119452081	-0.3146925918	 0.122923
H	-0.7510470783	-2.1514939607	 1.8429229931	 0.144417
H	-1.9475760634	-0.9093664503	 2.3346854692	 0.154228
H	-2.0869158893	 0.7139863559	-0.6967851108	 0.290312
H	-2.1722636096	-3.792339067	-2.0419054546	 0.199661
83.126	123.9072	164.0203	185.7403	209.3791	262.8827	359.0271	406.0732	429.473	457.7635	516.9794	598.4366	610.4653	628.1346	643.6286	674.3764	760.4956	798.1894	894.4211	910.2865	1033.1554	1082.5025	1116.5605	1141.7947	1175.4572	1211.493	1255.4801	1331.2655	1367.4563	1393.2519	1427.8966	1893.0069	2234.0793	3044.1078	3079.8237	3151.4242	3499.6482	3740.9395	3775.5056
OC1C(=O)CC1(O)C#C	O[C@H]1C(=O)C[C@]1(O)C#C	
InChI=1S/C6H6O3/c1-2-6(9)3-4(7)5(6)8/h1,5,8-9H,3H2	InChI=1S/C6H6O3/c1-2-6(9)3-4(7)5(6)8/h1,5,8-9H,3H2/t5-,6+/m0/s1
