16
gdb 50323	3.78454	1.26353	1.05835	3.6691	73.68	-0.224	-0.0234	0.2006	1106.1815	0.125873	-437.899611	-437.892273	-437.891328	-437.931765	27.851	
O	-0.1225769263	-0.098601048	-0.4057673149	-0.319098
C	-0.0872323034	 1.0877456848	-0.1758274515	 0.159158
N	 1.0419607719	 1.7905889244	 0.1886588289	-0.094655
C	 0.9765916981	 3.2486685745	 0.312200645	-0.208211
C	 2.0443393672	 3.8115689713	 1.2271815998	 0.031955
O	 2.2260311658	 3.1965258346	 2.4879987542	-0.255137
C	 3.2571851921	 3.0201871326	 1.4677539798	 0.010469
C	 3.3448747117	 1.6804803329	 0.8532219532	-0.168105
C	 2.264479296	 1.1247126991	 0.2938529424	 0.037738
H	-0.9758847353	 1.7443258957	-0.2302398239	 0.083246
H	 1.1106361777	 3.7224117401	-0.6719139355	 0.124804
H	-0.019808311	 3.5219837348	 0.6748051913	 0.134596
H	 2.0964201266	 4.9018326247	 1.2200693249	 0.100363
H	 4.1856730483	 3.5339880329	 1.7030944746	 0.100395
H	 4.2712731896	 1.1238016039	 0.9087479901	 0.107639
H	 2.2360236609	 0.1172713516	-0.1004431883	 0.154842
64.6716	199.6305	252.5469	261.6788	326.3447	346.1085	459.5117	547.7612	627.1437	674.7962	718.8864	777.5366	829.1701	864.0243	903.0916	968.1174	976.648	981.8514	1024.0874	1043.3614	1088.4755	1138.9839	1174.8267	1239.3443	1281.693	1317.7902	1328.3266	1360.1002	1392.2033	1434.4183	1455.7023	1475.6877	1500.5924	1701.9047	1803.4675	2956.6435	2995.6296	3069.895	3095.4286	3147.915	3212.3569	3233.3862
O=CN1CC2OC2C=C1	O=CN1C[C@H]2O[C@H]2C=C1	
InChI=1S/C6H7NO2/c8-4-7-2-1-5-6(3-7)9-5/h1-2,4-6H,3H2	InChI=1S/C6H7NO2/c8-4-7-2-1-5-6(3-7)9-5/h1-2,4-6H,3H2/t5-,6+/m0/s1
