17
gdb 23177	2.40583	1.6456	1.05833	1.4111	78.31	-0.2235	-0.0049	0.2186	1113.9433	0.136569	-417.953032	-417.945086	-417.944142	-417.985464	30.78	
O	-0.1085672656	 1.2827523216	 0.0591263047	-0.390332
N	 0.0053131748	-0.1157273417	 0.0366311998	-0.242421
C	-1.1340702175	-0.6773808492	-0.0226498901	 0.321862
C	-2.5121387694	-0.0505183271	-0.033339794	-0.362745
C	-3.4167215463	-1.2595371837	 0.0520035485	-0.111009
C	-2.7348522693	-2.4063296367	 0.0675304536	-0.119247
C	-1.2701018845	-2.1702650566	-0.0265414094	 0.263623
C	-0.3016859347	-3.0355554627	-0.767840578	-0.278499
N	-0.3108566228	-3.0317234407	 0.6965568379	-0.363333
H	 0.8105572144	 1.5645841393	 0.11900498	 0.30786
H	-2.6340953304	 0.6494891023	 0.802928277	 0.138373
H	-2.6698873459	 0.5439853132	-0.9433242776	 0.136297
H	-4.4957849656	-1.1715542789	 0.0917233065	 0.102793
H	-3.1518703354	-3.4035352505	 0.1298176995	 0.109308
H	-0.650870462	-3.9564684874	-1.2281109486	 0.118347
H	 0.5019941855	-2.5243088866	-1.2907361457	 0.126802
H	 0.4420551846	-2.4337801746	 1.0351174959	 0.242321
90.1073	183.5255	185.7593	257.3219	303.197	339.9167	415.5911	488.7174	511.1968	545.6127	603.698	708.3032	736.0285	816.4483	857.3485	901.7674	939.0473	958.3602	967.4624	981.5394	993.5561	1000.7787	1074.8103	1101.877	1136.5376	1155.6425	1171.2792	1275.6242	1285.9749	1320.7289	1329.9407	1404.0535	1426.0902	1458.9747	1497.6178	1671.3914	1757.9427	3023.7289	3048.1727	3102.9421	3196.7377	3199.7321	3225.102	3479.4328	3817.3644
ON=C1CC=CC11CN1	ON=C1CC=C[C@]21CN2	
InChI=1S/C6H8N2O/c9-8-5-2-1-3-6(5)4-7-6/h1,3,7,9H,2,4H2	InChI=1S/C6H8N2O/c9-8-5-2-1-3-6(5)4-7-6/h1,3,7,9H,2,4H2/t6-/m1/s1
