15
gdb 127349	3.51492	1.66464	1.13776	3.3238	73.29	-0.2167	0.001	0.2177	1005.7251	0.11701	-413.014584	-413.007538	-413.006594	-413.046161	26.493	
C	-0.0153095938	 1.4761143586	-0.0225095556	-0.34888
N	-0.0083259305	 0.0307529708	 0.0222435056	-0.155738
C	-0.0394481454	-0.8266500829	-1.0547981394	-0.010118
N	-0.0231278123	-2.1110080362	-0.7440691328	-0.377401
C	 0.0209949923	-2.0754467611	 0.6200709872	 0.400803
C	 0.0320581532	-0.787886176	 1.1377462096	 0.235402
C	 0.0779646353	-0.9323561072	 2.5388363282	-0.145555
N	 0.0936715513	-2.229989931	 2.8541407543	-0.21801
N	 0.0588472933	-2.9188830871	 1.6819159615	-0.33659
H	 0.8880226344	 1.8859090478	 0.4410131376	 0.146799
H	-0.0499300309	 1.7995138889	-1.0647579991	 0.145543
H	-0.8902149657	 1.8791571732	 0.4979757046	 0.146777
H	-0.0740821982	-0.4384353983	-2.0634169513	 0.131254
H	 0.1002557218	-0.195358163	 3.3264787388	 0.110415
H	 0.0639465252	-3.9232366365	 1.7045164209	 0.2753
110.5285	156.9292	247.0217	254.8145	356.7945	432.9231	536.6547	617.8771	625.3329	663.5651	712.7796	770.1624	820.1035	826.5946	842.775	971.5553	1064.6003	1084.3163	1133.0667	1154.0122	1232.3069	1256.0473	1310.6006	1324.8587	1372.5702	1415.0827	1453.7738	1479.5448	1490.3575	1514.4783	1523.8488	1552.4397	1609.3203	3035.1405	3093.7126	3134.9116	3237.6494	3253.0474	3689.5055
CN1C=NC2=C1C=NN2	Cn1cnc2c1cn[nH]2	
InChI=1S/C5H6N4/c1-9-3-6-5-4(9)2-7-8-5/h2-3H,1H3,(H,7,8)	InChI=1S/C5H6N4/c1-9-3-6-5-4(9)2-7-8-5/h2-3H,1H3,(H,7,8)
