18
gdb 6525	3.13968	1.6531	1.35339	4.268	69.57	-0.2401	-0.0109	0.2291	975.4653	0.15032	-384.943519	-384.934358	-384.933414	-384.976687	33.678	
C	-0.1206528963	 1.5623226962	 0.0951272054	-0.445089
C	-0.006431162	 0.0573734145	-0.0050857425	 0.364842
O	-1.2012575377	-0.556943103	-0.4257802	-0.458764
C	 1.274913083	-0.6025947485	-0.4059175272	-0.392958
C	 0.762959506	-0.7427435976	 1.0404145529	 0.175185
C	 1.4971547256	-0.0642843948	 2.1786123182	-0.465407
C	 0.2240139254	-2.0933805908	 1.3780233446	 0.131763
O	 0.339144264	-2.6002887541	 2.4684663941	-0.27638
H	 0.8127358002	 2.0305032223	 0.4131455255	 0.12457
H	-0.3806151025	 1.9782396964	-0.8861250557	 0.113148
H	-0.9112541598	 1.8403740644	 0.7983867542	 0.135692
H	-1.3478131893	-0.3137425813	-1.3469144028	 0.284709
H	 1.2066285985	-1.479873333	-1.0413718929	 0.121554
H	 2.1645063336	 0.001562695	-0.5494480458	 0.121368
H	 2.0234109909	 0.8340940225	 1.8495892273	 0.109185
H	 0.8077768544	 0.213668438	 2.9814227751	 0.133182
H	 2.2295144279	-0.7533857719	 2.6073552802	 0.13825
H	-0.284071852	-2.6202850044	 0.5470098795	 0.085149
96.312	143.158	166.4276	188.2442	240.7107	279.9472	296.0729	326.2732	393.4307	403.8211	449.7307	476.2002	574.1743	684.7995	766.1722	865.254	912.8707	918.0247	960.6133	1005.5468	1029.5076	1053.1391	1076.0345	1115.0483	1168.2157	1225.8176	1297.4503	1330.4638	1381.7967	1412.7335	1419.5033	1439.6937	1473.3918	1477.8576	1489.6657	1492.8692	1509.4595	1806.2296	2943.8989	3030.8449	3050.8256	3096.1198	3115.4659	3125.473	3126.8802	3137.1566	3217.421	3791.9313
CC1(O)CC1(C)C=O	C[C@@]1(O)C[C@]1(C)C=O	
InChI=1S/C6H10O2/c1-5(4-7)3-6(5,2)8/h4,8H,3H2,1-2H3	InChI=1S/C6H10O2/c1-5(4-7)3-6(5,2)8/h4,8H,3H2,1-2H3/t5-,6-/m1/s1
