24
gdb 57406	2.73221	1.23113	1.22384	1.5905	88.11	-0.2215	0.0736	0.2951	1225.4478	0.217013	-368.363614	-368.354111	-368.353166	-368.397132	37.741	
C	-0.2472011484	 1.5589952253	 0.3968315485	-0.419829
C	-0.0271120505	 0.0585746771	 0.1219669798	 0.21556
C	 0.7465706808	-0.5810852189	 1.2926953131	-0.392629
C	-1.4260051389	-0.5940732024	 0.0336723682	-0.403294
C	 0.694337939	-0.3082918504	-1.1903429572	 0.031341
C	 1.041765243	 0.4679504252	-2.4002113888	-0.072329
C	 1.6153929071	 1.8639651576	-2.1539819765	-0.243881
C	 2.6198512117	 1.1884489089	-1.1934341886	-0.156873
N	 2.128414136	-0.1958361846	-1.5388514103	-0.174575
H	 0.6816052619	 2.1131193838	 0.5427662567	 0.114679
H	-0.8089726124	 2.0341823595	-0.4127997949	 0.116557
H	-0.8369376285	 1.6720618756	 1.3133794576	 0.107945
H	 0.1992489233	-0.4498504835	 2.2325489608	 0.10585
H	 0.8873124721	-1.6546559322	 1.1307928673	 0.116151
H	 1.737560439	-0.1336870426	 1.4134216389	 0.118654
H	-1.9911091789	-0.2021339428	-0.8190808838	 0.11387
H	-1.3533600704	-1.6804985722	-0.0814423844	 0.112437
H	-2.0032432034	-0.3915112451	 0.9416886733	 0.108585
H	 0.4058993831	-1.3231836852	-1.4689043973	 0.089621
H	 0.8041363339	 0.0888445927	-3.3910135378	 0.089772
H	 2.1109210303	 2.2533777391	-3.045583511	 0.107389
H	 0.943998508	 2.6332213356	-1.7699260253	 0.10284
H	 3.6601215625	 1.2851036753	-1.5108453283	 0.10952
H	 2.5620884199	 1.4376008341	-0.1312308201	 0.102638
73.3603	182.584	216.0768	226.4843	264.5644	273.2742	283.4801	322.758	354.6825	375.1165	398.7735	498.9681	568.9632	735.7389	765.3148	774.4217	780.5901	796.7805	872.6223	930.9762	937.249	958.6869	969.1903	973.9764	1009.9516	1029.8113	1056.6988	1066.565	1083.748	1137.6557	1166.1576	1218.9442	1225.4465	1233.5549	1241.5492	1270.2067	1294.6235	1313.6326	1383.8646	1396.9862	1400.3862	1421.826	1452.7742	1478.7478	1481.5371	1484.7624	1492.4727	1503.9058	1508.3312	1520.141	1523.2409	3025.5499	3031.0051	3039.2718	3065.7528	3075.8475	3084.9133	3094.3995	3097.5014	3098.3023	3104.0761	3105.5238	3108.2054	3124.9095	3131.3295	3139.1375
CC(C)(C)C1C2CCN12	CC(C)(C)[C@H]1[C@H]2CCN12	
InChI=1S/C8H15N/c1-8(2,3)7-6-4-5-9(6)7/h6-7H,4-5H2,1-3H3	InChI=1S/C8H15N/c1-8(2,3)7-6-4-5-9(6)7/h6-7H,4-5H2,1-3H3/t6-,7-,9?/m1/s1
