21
gdb 91905	2.36608	1.57648	1.04362	1.2984	85.74	-0.2263	0.019	0.2453	1215.3513	0.182249	-387.090973	-387.0822	-387.081256	-387.124079	34.183	
C	 0.1073776586	 1.5278252104	-0.0854655537	-0.394609
C	-0.034496256	 0.0136011923	 0.0202744146	 0.091634
O	 0.5441131282	-0.524630444	-1.1735538319	-0.273083
C	 0.6677187798	-1.9154061135	-1.2022296435	 0.099339
C	 2.0612458914	-2.4715911491	-1.0837761062	-0.309411
C	 1.071080157	-2.6068059865	 0.0671464386	-0.146409
C	 1.1783384356	-1.7571204539	 1.2860921689	 0.287914
C	 1.8813509335	-2.3349201542	 2.4818688125	-0.47839
C	 0.6280835231	-0.5416962148	 1.2613874667	-0.167134
H	 1.1645620524	 1.8088509362	-0.0987084198	 0.124344
H	-0.3587605673	 1.8874273571	-1.0063260988	 0.122412
H	-0.374973174	 2.0174248674	 0.766033861	 0.11208
H	-1.1099802026	-0.2389794069	 0.0401369714	 0.075126
H	-0.0376304142	-2.4069147297	-1.8705402061	 0.085167
H	 2.3210039225	-3.3623445281	-1.6458282	 0.108329
H	 2.8535580153	-1.7398738197	-0.9742188915	 0.121779
H	 0.6768433945	-3.6064720491	 0.2347424672	 0.09094
H	 2.9211901647	-2.588861294	 2.2407969902	 0.127921
H	 1.8839978616	-1.6371866394	 3.3237041494	 0.119314
H	 1.4024365174	-3.2662379156	 2.810622664	 0.121705
H	 0.6529247485	 0.1004456151	 2.1385448969	 0.081032
96.8501	148.3289	190.9109	204.2598	236.9789	276.2752	357.4064	406.6164	443.611	464.0007	552.3105	610.5479	681.1642	754.0042	824.7636	827.5797	838.702	889.7433	935.1898	992.7272	1018.0327	1031.1584	1046.5749	1055.0876	1062.7591	1098.1482	1115.9183	1120.9995	1168.2813	1179.4304	1195.9691	1233.7803	1303.7571	1332.2819	1356.6101	1397.2989	1403.33	1410.4077	1415.5265	1473.5215	1477.509	1483.2053	1491.0864	1497.7555	1730.1254	2934.3564	3016.9905	3042.8448	3064.6183	3107.6571	3110.8571	3117.3664	3125.0205	3129.2661	3134.6086	3155.0901	3228.8492
CC1OC2CC2C(C)=C1	C[C@H]1O[C@H]2C[C@H]2C(=C1)C	
InChI=1S/C8H12O/c1-5-3-6(2)9-8-4-7(5)8/h3,6-8H,4H2,1-2H3	InChI=1S/C8H12O/c1-5-3-6(2)9-8-4-7(5)8/h3,6-8H,4H2,1-2H3/t6-,7+,8+/m1/s1
