27
gdb 100673	2.61262	0.9913	0.89485	1.0442	92.51	-0.2475	0.077	0.3245	1529.0933	0.248365	-390.694954	-390.682763	-390.681819	-390.732051	44.793	
C	-0.141871311	 1.5857358543	-0.0478284879	-0.402387
C	 0.0972906295	 0.0710666997	-0.0067039118	-0.198027
C	 0.8105245364	-0.4744727833	 1.2575002694	 0.266506
C	 2.2663966991	 0.0263677939	 1.3258744408	-0.419598
C	 0.0601013365	-0.0300270762	 2.5294284595	-0.421169
C	 0.7763691691	-2.0318904173	 1.2164338673	 0.138517
C	 1.3863162201	-2.676854547	-0.033255263	-0.420044
O	 1.4469150961	-2.4988649176	 2.3867705162	-0.25246
C	 1.0516997071	-3.7716629497	 2.8354136231	-0.236527
H	 0.7920883469	 2.1491545595	 0.0411692598	 0.117796
H	-0.6028959248	 1.8679016897	-0.9997782076	 0.110204
H	-0.8109353676	 1.9190823831	 0.7504077962	 0.118989
H	-0.8713835488	-0.4380387226	-0.1096303654	 0.08625
H	 0.6820882999	-0.2057766009	-0.8911007699	 0.094859
H	 2.2998693921	 1.1087872261	 1.4813034421	 0.10711
H	 2.7947664333	-0.4497816835	 2.1549580868	 0.130816
H	 2.8156539369	-0.1898663496	 0.403668992	 0.104415
H	-1.002115452	-0.2979072112	 2.4752155638	 0.098097
H	 0.4870022394	-0.515025322	 3.4093375712	 0.126302
H	 0.1240930273	 1.0520156005	 2.6735596292	 0.107472
H	-0.2842695148	-2.3322334444	 1.278613024	 0.055422
H	 1.3541082894	-3.767264898	 0.0482062216	 0.113164
H	 0.834407204	-2.4055487794	-0.9365094879	 0.118633
H	 2.4317964216	-2.3828869669	-0.159691952	 0.124436
H	 1.3055399884	-4.5733276741	 2.1259743961	 0.104537
H	 1.5833965909	-3.9627285024	 3.7714842495	 0.124376
H	-0.031749125	-3.8171858708	 3.0293371369	 0.102309
65.4757	71.6977	81.9971	162.606	189.808	196.1052	220.5793	255.5973	268.438	274.2943	323.4585	336.9915	347.7024	356.6748	395.675	443.8155	494.338	582.5135	725.7183	787.7449	826.2292	885.8702	924.2003	940.1491	993.6184	1014.2329	1025.3124	1038.8769	1083.7023	1099.1443	1122.6779	1146.5109	1183.6075	1203.1014	1223.7433	1238.4687	1266.4291	1323.2661	1368.2763	1370.8497	1377.2882	1390.6561	1401.9891	1409.315	1420.2943	1477.6562	1480.1167	1484.6889	1485.2734	1491.3921	1494.4794	1503.8407	1506.2984	1510.708	1512.27	1513.7243	1518.8948	2944.7341	2974.1013	3006.6914	3020.0245	3030.0572	3038.2787	3041.7954	3048.6177	3056.9051	3097.2351	3098.9836	3104.8302	3105.5704	3112.7072	3114.5751	3126.2713	3127.6052	3132.2735
CCC(C)(C)C(C)OC	CCC(C)(C)[C@@H](C)OC	
InChI=1S/C8H18O/c1-6-8(3,4)7(2)9-5/h7H,6H2,1-5H3	InChI=1S/C8H18O/c1-6-8(3,4)7(2)9-5/h7H,6H2,1-5H3/t7-/m1/s1
