16
gdb 44640	3.12584	1.65691	1.4882	3.0742	67.84	-0.2346	-0.0312	0.2034	915.7111	0.124859	-437.814532	-437.807758	-437.806814	-437.845947	26.592	
O	-0.1917295866	 0.1686340396	 0.5348103929	-0.276613
C	-0.1259695787	 1.2867805731	 0.1305725806	 0.414036
C	-1.0975561558	 2.2649899357	-0.5661799695	-0.31141
N	 0.0188500104	 3.2462072028	-0.7467877387	-0.147209
C	 0.2143649466	 4.3110488806	 0.3043615541	-0.038016
C	-0.6447409317	 4.2842482077	 1.5725218067	-0.096726
O	 0.1824157502	 3.2455862447	 2.156116567	-0.288995
C	 1.1615232317	 3.3770648354	 1.0999294296	 0.095534
C	 0.9965336785	 2.3365255733	-0.0269061575	-0.144347
H	-1.4785701896	 1.895460361	-1.5245899718	 0.140721
H	-1.9501617259	 2.5902308687	 0.0373948841	 0.135125
H	 0.4769002824	 5.2783356202	-0.1232691408	 0.09711
H	-0.5722632286	 5.2174816796	 2.1465472614	 0.111257
H	-1.6985874449	 3.9960826533	 1.5008678498	 0.11594
H	 2.1600496765	 3.6153829777	 1.4727075525	 0.090047
H	 1.9000454457	 2.0292563466	-0.5624666603	 0.103545
86.4529	143.7531	315.901	370.247	410.8787	457.5387	561.5951	628.2997	693.6535	734.7539	806.1676	849.6552	885.7451	907.6907	923.1961	970.638	984.7747	1010.035	1030.4128	1056.5849	1076.4463	1111.0118	1154.126	1174.9215	1186.754	1199.8725	1217.4967	1252.7466	1257.0728	1302.4035	1309.2884	1352.2738	1453.194	1522.1116	1913.698	3016.1313	3045.2324	3065.6822	3072.1562	3087.6574	3095.2059	3113.2639
O=C1CN2C3COC3C12	O=C1CN2[C@H]3CO[C@H]3[C@@H]12	
InChI=1S/C6H7NO2/c8-4-1-7-3-2-9-6(3)5(4)7/h3,5-6H,1-2H2	InChI=1S/C6H7NO2/c8-4-1-7-3-2-9-6(3)5(4)7/h3,5-6H,1-2H2/t3-,5+,6+/m0/s1
