20
gdb 64707	3.71577	1.08268	1.01669	1.7678	84.26	-0.23	0.0527	0.2827	1243.2667	0.169612	-365.935325	-365.926374	-365.92543	-365.968639	34.946	
C	 0.0147318895	 1.6165826842	 0.2064322216	-0.456198
C	 0.0216860058	 0.1001012289	 0.0632072934	 0.344002
C	-1.392100903	-0.470738533	-0.1753616835	-0.424278
C	-1.9915476388	-0.044797884	-1.4348339601	 0.311218
C	-2.4645631354	 0.3077319413	-2.4824683021	-0.445877
C	 1.0709351225	-0.5212738141	-0.942955017	-0.272974
C	 1.6781116816	-1.3012798148	 0.2253845469	-0.040056
N	 2.1435568443	-0.2817946517	 1.1993971793	-0.342037
C	 0.721710838	-0.6950992452	 1.1886466536	-0.096888
H	 1.0210301899	 1.9753796395	 0.432660217	 0.13665
H	-0.332655248	 2.0937011488	-0.7152542889	 0.124995
H	-0.6531743422	 1.930574194	 1.0177936512	 0.103453
H	-1.3460192638	-1.5678423265	-0.1507449947	 0.124039
H	-2.0428890475	-0.1734691596	 0.6585466485	 0.124765
H	-2.8927913719	 0.6172344567	-3.4033694747	 0.193795
H	 0.5972205073	-1.1463959071	-1.7026532675	 0.109151
H	 1.7502252857	 0.1861544081	-1.4241426643	 0.106025
H	 2.1191875448	-2.2903486118	 0.2112709481	 0.090815
H	 2.590681252	-0.7807492547	 1.9684062183	 0.226928
H	 0.2573386091	-1.109826329	 2.0770973348	 0.08247
76.0511	122.6387	184.9229	234.0641	258.0614	316.0052	348.8311	375.4944	405.3341	449.4935	566.651	617.9489	634.3515	671.2282	772.064	813.2726	838.5434	850.8134	905.736	933.6539	949.4721	957.7337	975.215	1001.9676	1019.1221	1086.0685	1107.4597	1143.4372	1150.75	1156.5973	1225.0394	1249.6225	1281.1701	1310.1426	1320.213	1347.5189	1381.8429	1406.755	1468.1723	1479.9724	1491.594	1503.3135	2235.7836	3008.0103	3028.8792	3039.9085	3067.8371	3095.0017	3125.2201	3130.2298	3165.5997	3190.4141	3469.3649	3506.5425
CC1(CC#C)CC2NC12	C[C@@]1(CC#C)C[C@H]2N[C@@H]12	
InChI=1S/C8H11N/c1-3-4-8(2)5-6-7(8)9-6/h1,6-7,9H,4-5H2,2H3	InChI=1S/C8H11N/c1-3-4-8(2)5-6-7(8)9-6/h1,6-7,9H,4-5H2,2H3/t6-,7-,8-/m1/s1
