16
gdb 14257	4.17897	1.63563	1.4627	3.5747	64.67	-0.2365	-0.015	0.2215	879.0571	0.130164	-383.727732	-383.720526	-383.719582	-383.75941	27.436	
O	-0.216393904	 1.4409124353	 0.3863932902	-0.426732
C	-0.0246778353	 0.0756616332	 0.1007612323	 0.138565
C	 0.3450489969	-0.8891997793	 1.269905833	-0.287776
C	-0.8637427157	-1.8086962149	 0.8804702238	-0.151255
C	-1.3360493514	-0.6947680039	-0.1379858168	-0.052562
C	-2.499137038	-0.3117745186	 0.822616498	-0.360237
C	-2.1026706252	-1.5003578129	 1.7223147344	 0.411627
O	-2.6132745788	-2.0282541519	 2.6672856135	-0.302858
H	 0.6417280934	 1.8448649078	 0.5501666988	 0.287067
H	 0.6640700623	-0.0576766458	-0.7453413611	 0.071396
H	 1.3224744784	-1.3689031178	 1.1906059233	 0.111034
H	 0.2571554002	-0.4332267661	 2.2594429115	 0.117391
H	-0.6399888726	-2.8452705963	 0.6303021292	 0.088408
H	-1.6221337356	-0.9098235732	-1.1663074613	 0.076521
H	-2.4189893858	 0.675244648	 1.2842321502	 0.148399
H	-3.5015391387	-0.4192288436	 0.398509081	 0.131011
61.0225	167.2171	254.3396	259.7033	391.0227	420.6576	497.8178	536.4467	576.6288	739.6126	754.8943	779.3843	845.757	902.9225	928.0119	948.0373	1016.3568	1039.1279	1058.4727	1088.6397	1106.4376	1127.5011	1182.9343	1185.6067	1220.7969	1230.9738	1241.0513	1269.107	1319.838	1329.5561	1417.3737	1434.153	1481.0897	1887.1448	2995.8102	3064.7816	3067.6443	3113.8876	3120.1438	3125.4085	3130.115	3817.8134
OC1CC2C1CC2=O	O[C@H]1C[C@@H]2[C@H]1CC2=O	
InChI=1S/C6H8O2/c7-5-1-3-4(5)2-6(3)8/h3-5,7H,1-2H2	InChI=1S/C6H8O2/c7-5-1-3-4(5)2-6(3)8/h3-5,7H,1-2H2/t3-,4-,5+/m1/s1
