20
gdb 63235	2.50425	1.60604	1.30901	2.0612	80.17	-0.2363	0.0185	0.2548	1067.0423	0.171937	-403.139916	-403.131551	-403.130606	-403.172316	33.535	
C	 0.3220462658	 1.5176967808	-0.0172712907	-0.40917
C	-0.0254066507	 0.0297463881	-0.0405176947	 0.338089
O	-1.4641404437	-0.0292308994	 0.0329624829	-0.463624
C	 0.4263688714	-0.6232301975	-1.3245468421	-0.097066
C	 1.0305219018	-1.8066136557	-1.413025776	-0.06432
C	 1.4081308024	-2.673402283	-0.2429486649	-0.276369
C	 1.2287660056	-1.9864547749	 1.0940897659	-0.038225
N	 2.0089896979	-0.7515976136	 1.288581268	-0.339222
C	 0.5441068576	-0.669038411	 1.1874397402	-0.085513
H	 1.4064848155	 1.6471310656	-0.0110900176	 0.136057
H	-0.0986638572	 2.0191098409	-0.8936257147	 0.115009
H	-0.0986550892	 1.9860225707	 0.8780460368	 0.113739
H	-1.7171057669	-0.9417718383	-0.1455591978	 0.271264
H	 0.1789525356	-0.0730959575	-2.229547757	 0.087766
H	 1.2770920803	-2.2022869076	-2.3959914511	 0.090326
H	 0.8037297757	-3.5923331617	-0.263950656	 0.107057
H	 2.4502401571	-3.0047914087	-0.3488514312	 0.116974
H	 1.1382094899	-2.6537775164	 1.9487594851	 0.082668
H	 2.2977439939	-0.6663975743	 2.2591225543	 0.230878
H	-0.0214689229	-0.4497566966	 2.0908924807	 0.083682
89.765	207.0191	233.1167	253.854	316.0676	333.7904	367.4685	390.5928	428.4087	526.745	529.2348	572.8154	700.7461	748.1733	797.2429	849.0764	872.7678	909.1009	937.1322	942.0393	970.3881	1002.5797	1017.0694	1034.0036	1077.234	1092.9159	1144.8496	1160.4123	1174.2592	1223.2448	1232.824	1271.1641	1299.3043	1343.9778	1376.0223	1388.0024	1404.4137	1433.2865	1459.0107	1468.3373	1487.7677	1494.5013	1725.9714	3000.3813	3028.6338	3042.7635	3112.3627	3119.9269	3131.4482	3136.9257	3139.7523	3163.2911	3506.9655	3802.3619
CC1(O)C=CCC2NC12	C[C@@]1(O)C=CC[C@H]2N[C@@H]12	
InChI=1S/C7H11NO/c1-7(9)4-2-3-5-6(7)8-5/h2,4-6,8-9H,3H2,1H3	InChI=1S/C7H11NO/c1-7(9)4-2-3-5-6(7)8-5/h2,4-6,8-9H,3H2,1H3/t5-,6-,7-/m1/s1
