19
gdb 119788	4.46029	0.86839	0.83865	2.7873	76.62	-0.2273	0.0044	0.2318	1416.2583	0.159421	-422.969422	-422.961062	-422.960118	-423.003214	31.483	
O	-0.1001385455	 1.4121153415	-0.1127451176	-0.414757
C	 0.0154508904	-0.000233684	-0.1428169762	-0.068371
C	-1.3649731676	-0.5812071885	 0.178699636	-0.328688
C	-1.3979630411	-2.0687799531	 0.1131058001	 0.363036
C	-1.5899802148	-3.0147457624	 1.0382094275	-0.217875
C	-1.4956454232	-4.3002574061	 0.1986497222	 0.031074
C	-0.2165418742	-4.0312327466	-0.6509728721	-0.217681
C	-1.2134871472	-2.9448805421	-1.1532805691	-0.031367
O	-2.2803427991	-3.9358965078	-0.9897137226	-0.284567
H	 0.7656109543	 1.790414044	-0.2913922223	 0.287569
H	 0.3482111586	-0.3536297278	-1.1326171217	 0.087949
H	 0.7461006778	-0.3634540058	 0.5967985697	 0.091476
H	-1.6653643983	-0.2366797871	 1.1735827526	 0.115553
H	-2.0782797594	-0.1522959606	-0.5378417913	 0.120336
H	-1.7778621965	-2.9341878446	 2.0990506922	 0.106852
H	-1.7499190125	-5.2653799674	 0.6343246306	 0.08044
H	 0.6970252021	-3.7180528152	-0.1409612098	 0.094139
H	-0.0308279459	-4.8085022618	-1.3961273139	 0.106753
H	-1.1709691479	-2.4794724646	-2.1381453943	 0.078128
63.7714	92.0169	100.0674	256.8393	263.5857	320.5084	359.217	492.4104	564.2053	644.9	695.8621	777.8783	793.148	812.4827	842.6263	851.576	892.6301	915.3746	934.3837	1002.6945	1024.7275	1043.7389	1061.5245	1081.4868	1097.3291	1156.8273	1192.3433	1207.7607	1231.017	1233.529	1242.2203	1259.231	1296.3346	1298.1921	1320.02	1333.1193	1455.5558	1482.9749	1486.005	1527.1993	1684.5543	2963.7997	2993.7075	3022.433	3061.1125	3081.5503	3122.9696	3133.1828	3136.9013	3238.16	3832.0618
OCCC1=CC2CC1O2	OCCC1=C[C@@H]2C[C@H]1O2	
InChI=1S/C7H10O2/c8-2-1-5-3-6-4-7(5)9-6/h3,6-8H,1-2,4H2	InChI=1S/C7H10O2/c8-2-1-5-3-6-4-7(5)9-6/h3,6-8H,1-2,4H2/t6-,7-/m1/s1
