17
gdb 126006	3.08067	1.56348	1.08645	4.1925	74.72	-0.2034	0.011	0.2145	1084.5391	0.138582	-417.997113	-417.98969	-417.988746	-418.029049	28.646	
C	-0.2102105936	 1.574932929	-0.0507461668	-0.394651
C	 0.016104067	 0.0625079003	 0.0200179442	-0.136996
C	 0.9213938241	-0.4704959652	-1.1566232481	-0.176259
N	 1.7424784857	-1.5812531059	-0.5889020411	-0.412506
C	 1.726689026	-1.3379727554	 0.7656788236	 0.462492
C	 0.7921605134	-0.4537896213	 1.2043745742	 0.139669
C	 0.9595667843	-0.5141224768	 2.6038618601	-0.130129
N	 1.9239979196	-1.3389170371	 2.967629698	-0.170779
O	 2.4271329033	-1.8928444383	 1.7375705543	-0.241246
H	 0.7389456626	 2.1157818972	 0.0203222414	 0.120232
H	-0.6973981329	 1.8567055274	-0.9905926377	 0.116087
H	-0.8522531125	 1.9113489853	 0.7690771396	 0.122668
H	-0.9622713253	-0.4348233331	-0.0393164488	 0.093893
H	 0.3340350179	-0.8307441685	-2.0041973351	 0.119869
H	 1.5722313037	 0.3421410836	-1.5074294931	 0.109352
H	 2.6419820794	-1.7382285257	-1.0241507137	 0.25192
H	 0.4383226275	 0.0139769044	 3.391349629	 0.126384
103.3335	163.8703	222.1536	271.822	294.7882	430.4979	481.4529	539.3125	615.1576	629.7927	663.2987	744.187	789.5518	815.0232	899.2749	913.8255	941.7902	958.9037	998.2598	1049.3171	1103.7367	1129.3325	1167.5404	1201.4409	1227.8143	1300.8289	1305.9387	1345.401	1374.4207	1408.1038	1415.2615	1446.0439	1494.2485	1499.6294	1509.3967	1568.3652	1654.6494	2994.9167	3010.0084	3031.9686	3098.1711	3101.0761	3109.1833	3230.5656	3576.8467
CC1CNC2=C1C=NO2	C[C@H]1CNc2c1cno2	
InChI=1S/C6H8N2O/c1-4-2-7-6-5(4)3-8-9-6/h3-4,7H,2H2,1H3	InChI=1S/C6H8N2O/c1-4-2-7-6-5(4)3-8-9-6/h3-4,7H,2H2,1H3/t4-/m0/s1
