17
gdb 126766	3.17534	1.16202	0.92714	0.9816	73.54	-0.1943	0.0133	0.2076	1276.0605	0.136834	-451.333844	-451.324718	-451.323773	-451.368238	33.032	
C	-0.1638684948	 1.5290299801	 0.0310977774	-0.376802
C	-0.1380209677	-0.0004168165	-0.0106942726	-0.124237
N	-1.4608940544	-0.591951562	 0.0091574468	 0.123879
N	-2.1209900093	-0.8156093376	 1.1528843004	-0.308598
C	-3.3436043613	-1.1666344499	 0.7621532597	 0.267287
N	-4.3861246256	-1.4572479178	 1.6370442602	-0.599544
C	-3.3731323059	-1.1220566377	-0.6468811401	 0.317793
O	-4.4294928377	-1.4388330666	-1.428648436	-0.438157
N	-2.1873595834	-0.7491733561	-1.1026184041	-0.329808
H	 0.8572647814	 1.922841013	 0.0184321205	 0.117946
H	-0.6996211089	 1.9288806253	-0.834196448	 0.13472
H	-0.6594269798	 1.8796765145	 0.9404145888	 0.138025
H	 0.3522971198	-0.3575514541	-0.9197192849	 0.129579
H	 0.3960889699	-0.4042841525	 0.8528759675	 0.131384
H	-4.0514580821	-1.7257842765	 2.553050381	 0.254287
H	-5.0229688787	-2.1512889551	 1.2687395868	 0.25553
H	-4.1546311916	-1.3338359607	-2.3471883634	 0.306715
47.3213	77.2029	202.7945	209.1092	267.692	277.7446	309.941	316.9395	344.6632	422.476	546.1567	631.145	636.7772	656.8275	708.6324	773.0488	796.794	843.6783	959.1266	1017.7224	1093.4186	1101.4049	1144.8187	1199.0127	1263.8654	1350.0926	1371.3633	1391.5964	1405.7559	1414.6309	1461.492	1471.081	1487.9784	1505.3958	1597.8221	1623.481	1652.1776	3043.8358	3070.6515	3113.3566	3118.4274	3136.976	3545.2412	3643.1113	3810.3398
CCN1N=C(N)C(O)=N1	CCn1nc(N)c(O)n1	
InChI=1S/C4H8N4O/c1-2-8-6-3(5)4(9)7-8/h2H2,1H3,(H2,5,6)(H,7,9)	InChI=1S/C4H8N4O/c1-2-8-6-3(5)4(9)7-8/h2H2,1H3,(H2,5,6)(H,7,9)
