14
gdb 132047	2.38307	1.84911	1.04794	3.2957	68.44	-0.2388	-0.0433	0.1955	1050.591	0.101449	-478.041888	-478.034226	-478.033282	-478.074337	28.095	
C	 0.0187983636	 1.5153519915	 0.0304726629	-0.474544
C	-0.0047970343	 0.0164377335	 0.0190524438	 0.186981
C	-1.1558359205	-0.6935471245	-0.1406931573	 0.099355
F	-2.3310474802	-0.0868766579	-0.2964298262	-0.059147
C	-1.1943697642	-2.1453740927	-0.1539427466	 0.347877
O	-2.1628265634	-2.8636225593	-0.2890181294	-0.375147
N	 0.1028773077	-2.6699222891	 0.0187674629	-0.347444
C	 1.2155780842	-1.9069537441	 0.1736208398	 0.097102
N	 1.2134359451	-0.6156167829	 0.180477777	-0.325583
H	 0.6733107899	 1.8816896445	-0.7670513434	 0.147549
H	-0.9787712157	 1.93390754	-0.1018354151	 0.142212
H	 0.438039866	 1.8721036938	 0.9768271269	 0.147545
H	 0.161811881	-3.6802973194	 0.0211574506	 0.272147
H	 2.149615951	-2.4486053433	 0.2970695641	 0.141098
99.7713	122.6456	190.5944	292.0428	303.4079	315.612	506.193	519.6143	529.5113	555.4808	607.3923	691.4614	727.343	780.9166	881.8513	941.4264	960.3944	1060.8383	1061.4189	1145.7426	1193.4584	1260.0192	1360.5561	1409.2409	1437.104	1466.9648	1478.0948	1479.6604	1609.2206	1669.1655	1806.2607	3046.0634	3101.6541	3157.3015	3172.1017	3590.5982
CC1=C(F)C(=O)NC=N1	Cc1c(F)c(=O)[nH]cn1	
InChI=1S/C5H5FN2O/c1-3-4(6)5(9)8-2-7-3/h2H,1H3,(H,7,8,9)	InChI=1S/C5H5FN2O/c1-3-4(6)5(9)8-2-7-3/h2H,1H3,(H,7,8,9)
