20
gdb 56165	3.23796	0.95874	0.85751	2.8429	76.18	-0.245	0.0285	0.2736	1424.7668	0.16874	-440.305519	-440.295173	-440.294229	-440.342179	37.033	
C	 0.2855943892	 1.3561357689	-0.1514686539	-0.481156
C	 0.3677743627	-0.1508332047	-0.3433846922	 0.408601
O	 1.2549714631	-0.8197313306	 0.1567626934	-0.372561
N	-0.6297909525	-0.6991484966	-1.1005929235	-0.321852
C	-0.7545860838	-2.1407312841	-1.2882571672	-0.224956
C	-0.0983969953	-2.6260031135	-2.564715982	 0.413544
O	-0.66013905	-2.0786371998	-3.7318285244	-0.473902
C	 1.3714543316	-2.9526365559	-2.5704354708	-0.317451
C	 0.3328038719	-4.0555878357	-2.6694173444	-0.304424
H	 1.271533351	 1.7874273781	-0.3372002925	 0.153634
H	-0.4491858679	 1.8431720489	-0.7981872161	 0.110254
H	 0.0283727978	 1.565272955	 0.8912872345	 0.153879
H	-1.3708683263	-0.1071325965	-1.4348399056	 0.246058
H	-0.297051014	-2.6250693599	-0.4221850085	 0.134539
H	-1.8207760105	-2.3909130272	-1.3116252606	 0.108316
H	-0.3288255055	-1.1767640213	-3.806497216	 0.277872
H	 1.9202801114	-2.7162140115	-3.4753850519	 0.109598
H	 1.9213146821	-2.8255197779	-1.6454139993	 0.143785
H	 0.1832468672	-4.7089556776	-1.8164416759	 0.113949
H	 0.1977441978	-4.5270775882	-3.6357272933	 0.122273
39.9552	57.4578	69.2284	85.955	220.7415	241.7592	286.9228	314.7981	354.9078	418.958	421.4175	447.8461	536.3257	634.9823	640.4937	750.8435	779.1426	843.5308	915.1556	928.1261	940.9174	980.1368	993.4495	1043.1169	1050.5415	1061.434	1079.7381	1102.8086	1187.8699	1242.3364	1260.0939	1312.3787	1323.6178	1361.44	1394.6492	1412.6913	1451.8154	1459.2784	1470.5239	1486.2342	1501.4731	1529.5897	1775.6906	3046.4829	3048.7441	3114.0814	3120.4639	3136.3976	3137.7206	3140.6324	3223.3179	3238.1461	3657.8543	3794.2253
CC(=O)NCC1(O)CC1	CC(=O)NCC1(O)CC1	
InChI=1S/C6H11NO2/c1-5(8)7-4-6(9)2-3-6/h9H,2-4H2,1H3,(H,7,8)	InChI=1S/C6H11NO2/c1-5(8)7-4-6(9)2-3-6/h9H,2-4H2,1H3,(H,7,8)
