23
gdb 98184	2.97344	0.95912	0.87574	1.2072	81.87	-0.2375	-0.0078	0.2297	1468.3285	0.201825	-425.451232	-425.439696	-425.438752	-425.487971	41.497	
C	 0.0198542578	 1.5292833028	-0.1068406823	-0.376406
C	-0.1577517417	 0.0385184814	 0.17555542	-0.28527
C	 0.7667972579	-0.4780743555	 1.2743235808	 0.364531
O	 1.3825323055	 0.2935185174	 1.9784687277	-0.3228
C	 0.9042826748	-2.0005516269	 1.4569045762	 0.151374
C	-0.4704626047	-2.6983731521	 1.4366876867	-0.431032
C	 1.7915120004	-2.5485098754	 0.3135818197	-0.423091
C	 1.6005815466	-2.2564416885	 2.8052143816	-0.087264
O	 1.7416964898	-3.6627621193	 2.9726821009	-0.432862
H	 1.0286524468	 1.742497537	-0.471421792	 0.125069
H	-0.6967967024	 1.8669967148	-0.8607400322	 0.107697
H	-0.1257756984	 2.1153527771	 0.8031250071	 0.135365
H	-1.1878026151	-0.1711973309	 0.4951123587	 0.12963
H	-0.0146432732	-0.5605984635	-0.7313704991	 0.118615
H	-0.957660609	-2.6095901837	 0.4620489825	 0.111916
H	-0.3391192048	-3.7593741622	 1.6595009927	 0.142502
H	-1.1417847712	-2.2781905434	 2.1939073911	 0.113118
H	 2.7477546847	-2.0168847183	 0.2683386019	 0.120917
H	 1.9990612209	-3.6050442711	 0.4975643236	 0.143022
H	 1.3021226742	-2.456916547	-0.660133968	 0.111752
H	 2.5740211707	-1.7514504215	 2.8133499881	 0.10346
H	 0.9993010816	-1.8185201777	 3.6154346253	 0.090287
H	 2.231860169	-3.8170929734	 3.784577679	 0.28947
44.6939	69.7515	131.0589	167.204	180.9985	213.6717	230.9797	256.8901	259.5733	279.0118	309.1232	349.2923	357.5885	368.7053	492.8035	574.3201	642.5452	729.6506	810.0555	822.7031	935.2633	965.3246	974.3754	980.0607	1016.4193	1025.3683	1083.2488	1094.5192	1118.8183	1183.3252	1198.0248	1265.8238	1276.837	1282.2419	1292.6383	1370.3433	1388.9737	1408.8376	1413.6726	1450.9427	1454.3068	1483.5799	1492.5323	1495.5531	1498.2292	1499.9526	1514.1479	1518.5488	1787.1694	2994.9078	3025.3102	3036.9619	3040.8887	3048.0941	3050.5006	3064.0745	3105.6077	3109.4755	3117.9252	3129.1232	3132.9201	3133.2419	3842.0217
CCC(=O)C(C)(C)CO	CCC(=O)C(C)(C)CO	
InChI=1S/C7H14O2/c1-4-6(9)7(2,3)5-8/h8H,4-5H2,1-3H3	InChI=1S/C7H14O2/c1-4-6(9)7(2,3)5-8/h8H,4-5H2,1-3H3
