16
gdb 90587	3.85837	1.22957	1.01713	2.2456	72.75	-0.2181	-0.0186	0.1996	1126.24	0.125327	-437.887327	-437.879667	-437.878723	-437.919493	29.465	
O	 0.3119180313	 1.3251996404	 0.4036902466	-0.42911
C	 0.1387067529	 0.0073576029	-0.0641559425	 0.076414
C	-1.3517249277	-0.5043069688	-0.1173902378	-0.256495
C	-1.3897999445	-0.2631570123	-1.6759530457	-0.195829
C	 0.1217906212	-0.2209284349	-1.5675823853	 0.049152
C	 0.6251681291	-1.192321461	-2.3487593356	-0.09451
N	-0.38829434	-1.746515346	-3.1368628144	-0.308208
C	-1.6656246615	-1.328656602	-2.738788964	 0.397941
O	-2.7030149549	-1.6901943822	-3.2389179087	-0.362467
H	-0.067817417	 1.9291900373	-0.2433574927	 0.283667
H	 0.8290999491	-0.6073054177	 0.5178339269	 0.094253
H	-1.4369052909	-1.5602004107	 0.1453092335	 0.122032
H	-2.0613023599	 0.0873167797	 0.4655186894	 0.118763
H	-1.9310993338	 0.6488642836	-1.9387631163	 0.109846
H	 1.6024894865	-1.6572025868	-2.3285002988	 0.131383
H	-0.25793633	-2.4177183815	-3.8768796947	 0.263168
102.4845	166.9726	194.4364	242.6903	341.0308	386.9817	431.9253	485.3344	537.5477	654.9017	679.4993	744.54	757.8455	785.178	849.5116	856.0224	910.3316	966.5696	998.5436	1060.225	1068.0457	1094.7287	1154.6026	1172.5942	1177.17	1210.6945	1246.4687	1279.0654	1293.4833	1331.8643	1395.3081	1429.2521	1461.9119	1654.8519	1835.3875	3068.2958	3082.4509	3089.556	3139.3477	3215.7326	3649.0931	3809.859
OC1CC2C1=CNC2=O	O[C@H]1C[C@H]2[C]1[CH]NC2=O	
InChI=1S/C6H7NO2/c8-5-1-3-4(5)2-7-6(3)9/h2-3,5,8H,1H2,(H,7,9)	InChI=1S/C6H7NO2/c8-5-1-3-4(5)2-7-6(3)9/h2-3,5,8H,1H2,(H,7,9)/t3-,5-/m0/s1
