16
gdb 35934	2.50798	1.56507	1.32862	1.5322	70.99	-0.2495	0.0049	0.2545	1014.8145	0.124326	-437.8393	-437.831301	-437.830357	-437.872093	29.943	
C	-0.2490516853	-1.2884174834	-0.0652442143	-0.435797
C	-0.1240143627	-0.0956248711	 0.0004633908	 0.290815
C	 0.005452771	 1.372888184	 0.0244236422	 0.031582
O	-0.5970729784	 1.9679433839	 1.1248728768	-0.220225
C	-0.1904702268	 1.4724494278	 2.399200813	-0.110255
C	 1.1835558589	 1.9909251356	 2.8060212131	-0.152952
N	 2.3234947354	 1.5592594417	 2.0175907292	-0.241201
C	 2.3391312719	 1.4958588455	 0.7617748302	 0.127166
O	 1.3732805679	 1.7393618714	-0.18212832	-0.230846
H	-0.3565119832	-2.3442551448	-0.1205093211	 0.207976
H	-0.5001785882	 1.7975145597	-0.8465909211	 0.135222
H	-0.9429991397	 1.832628198	 3.1063855091	 0.116065
H	-0.208054202	 0.3756503596	 2.4004473072	 0.120206
H	 1.1602645406	 3.0898147128	 2.7931991336	 0.126282
H	 1.361929484	 1.6929320807	 3.8461106274	 0.11171
H	 3.2746471766	 1.2716914686	 0.250024684	 0.124253
74.0021	112.2409	180.9823	237.8149	324.9355	366.542	402.4801	466.2734	568.4145	582.2747	657.6989	667.093	679.6826	747.963	845.0417	871.8009	948.109	961.4251	979.4089	1019.7741	1042.5751	1078.7464	1119.7814	1181.939	1269.103	1313.1182	1359.0009	1379.8903	1394.1813	1410.5736	1428.0594	1473.233	1494.0483	1761.7165	2236.1535	3014.1446	3034.6102	3059.4198	3087.2546	3099.0445	3144.0096	3498.2895
C#CC1OCCN=CO1	C#C[C@H]1OCCN=CO1	
InChI=1S/C6H7NO2/c1-2-6-8-4-3-7-5-9-6/h1,5-6H,3-4H2	InChI=1S/C6H7NO2/c1-2-6-8-4-3-7-5-9-6/h1,5-6H,3-4H2/t6-/m0/s1
