20
gdb 112289	2.94793	1.20427	0.93907	3.4409	79.14	-0.2308	-0.0152	0.2155	1285.6234	0.171771	-403.159606	-403.151088	-403.150143	-403.19295	32.613	
C	-0.1366689708	 1.510107352	-0.0809856516	-0.386069
C	-0.0156576503	-0.0147858026	-0.003728101	-0.18392
C	 0.7711236815	-0.5112732575	 1.2141015181	 0.02967
C	 0.1430828264	-0.1696396852	 2.590104306	-0.355793
C	 0.5312472426	-1.3267547777	 3.5196508785	 0.44708
O	 0.6906699295	-1.2698414678	 4.7124482903	-0.326474
C	 0.7783641693	-2.5271228154	 2.6505193756	-0.171401
N	-0.3182218894	-2.7071247626	 1.6482371842	-0.33229
C	 0.9219673173	-2.0327824434	 1.252043591	-0.056752
H	 0.8502371312	 1.9855852052	-0.1165531671	 0.113273
H	-0.6852266987	 1.816486392	-0.9767910209	 0.114324
H	-0.6678634276	 1.9155566869	 0.786336138	 0.121803
H	-1.0120552691	-0.4720386049	 0.019592632	 0.11389
H	 0.4733121409	-0.3856332843	-0.9145114824	 0.089171
H	 1.7835945739	-0.0854043535	 1.1806100547	 0.07808
H	 0.4728430156	 0.7808822784	 3.0115310844	 0.124903
H	-0.9507778179	-0.1450193496	 2.5216938013	 0.140707
H	 1.2946780255	-3.3920695992	 3.0489228767	 0.104925
H	-0.2927881169	-3.6758524316	 1.3375049427	 0.241137
H	 1.5911329472	-2.5239001994	 0.5518644095	 0.093737
94.7262	103.5436	148.965	202.9722	251.1532	323.6557	381.9089	452.1659	476.4805	533.8306	627.5342	667.0567	785.6741	804.1679	821.1003	850.1946	874.7275	913.4403	943.8774	955.0527	983.0423	1033.1444	1059.3654	1106.5837	1116.9266	1141.6178	1152.7769	1190.9116	1209.8326	1255.4973	1263.8071	1293.9778	1312.783	1350.6513	1360.8153	1386.0193	1406.5106	1413.7488	1453.4542	1489.1103	1501.5947	1507.4405	1844.3252	3010.4371	3016.9121	3031.459	3052.7023	3060.725	3098.5082	3105.9164	3126.6865	3156.2744	3195.2294	3497.5348
CCC1CC(=O)C2NC12	CC[C@H]1CC(=O)[C@H]2N[C@@H]12	
InChI=1S/C7H11NO/c1-2-4-3-5(9)7-6(4)8-7/h4,6-8H,2-3H2,1H3	InChI=1S/C7H11NO/c1-2-4-3-5(9)7-6(4)8-7/h4,6-8H,2-3H2,1H3/t4-,6-,7+/m0/s1
