21
gdb 72397	3.13264	1.48552	1.38537	1.4106	82.62	-0.2343	0.0127	0.247	1061.1912	0.182801	-387.103504	-387.095341	-387.094397	-387.135271	33.618	
C	-0.0104901387	 1.5078592451	-0.026876291	-0.496188
C	-0.0074732402	-0.0079111295	 0.027820948	 0.237425
C	 0.7687441799	-0.7214914965	-1.128424706	-0.089579
O	 0.9696102247	-2.0540856985	-0.6617772502	-0.307215
C	 0.3599658718	-2.1199418551	 0.6728061593	 0.383652
C	 0.874132897	-3.3520617389	 1.3753442255	-0.48874
C	 0.6977720785	-0.7199255198	 1.2155277831	-0.279576
C	-1.1432411011	-1.9794583931	 0.4514333005	-0.121245
C	-1.3555625797	-0.7183456123	 0.0646535874	-0.120655
H	 1.009864949	 1.9060266312	-0.022797353	 0.115902
H	-0.5052299124	 1.8716361969	-0.9348062688	 0.11682
H	-0.5408045581	 1.9329307611	 0.8315173651	 0.120141
H	 0.2035907866	-0.7241021868	-2.0688706821	 0.091557
H	 1.7411695797	-0.2403693638	-1.3030145543	 0.091258
H	 1.9634834672	-3.3187958647	 1.4642965037	 0.1229
H	 0.441215317	-3.429317151	 2.3772484262	 0.117444
H	 0.6062314678	-4.2527236172	 0.8143682211	 0.12652
H	 1.7765070489	-0.537907237	 1.2645101102	 0.091171
H	 0.2287431606	-0.4985390186	 2.176157079	 0.097275
H	-1.8515522943	-2.7982313634	 0.4819960407	 0.096936
H	-2.2818596742	-0.2775781079	-0.2852793541	 0.094197
204.2336	207.7206	224.4563	255.3841	265.9139	330.8503	370.0979	416.381	501.9541	517.7239	573.0413	645.073	674.099	742.7849	800.2481	814.0437	844.5088	895.6906	901.8734	918.6213	944.3852	989.8006	1004.9844	1033.4777	1068.6796	1083.5529	1125.3656	1165.2028	1186.8299	1205.4309	1224.9435	1252.2473	1269.321	1294.9223	1352.7278	1380.9111	1414.259	1416.4802	1482.1071	1485.8648	1492.8496	1494.2904	1497.5238	1520.6323	1639.1907	2999.5828	3027.0325	3041.4236	3043.4702	3051.7229	3090.4193	3099.0045	3112.1836	3118.3414	3122.5005	3188.1314	3215.6852
CC12COC(C)(C1)C=C2	C[C@@]12CO[C@@](C)(C1)C=C2	
InChI=1S/C8H12O/c1-7-3-4-8(2,5-7)9-6-7/h3-4H,5-6H2,1-2H3	InChI=1S/C8H12O/c1-7-3-4-8(2,5-7)9-6-7/h3-4H,5-6H2,1-2H3/t7-,8+/m0/s1
