19
gdb 85232	2.72966	1.5031	1.09507	2.8022	75.46	-0.2383	-0.0254	0.2129	1145.3881	0.15799	-423.052928	-423.044128	-423.043183	-423.086216	33.164	
C	 0.1553904481	 1.5926776301	 0.0279218792	-0.402357
C	 0.0044213106	 0.0702643171	 0.0213744294	-0.010965
C	 0.61626905	-0.6300385168	-1.2182957074	-0.352573
C	 1.1552003689	-1.9729277763	-0.7151142268	 0.373875
O	 1.3135556072	-2.9782233944	-1.3598039796	-0.316475
C	 1.3898632571	-1.847087749	 0.7760631816	 0.286943
C	 1.6886065464	-3.0502856317	 1.6164014774	-0.495297
O	 2.1284648488	-0.6264656686	 1.0419531273	-0.292491
C	 0.7089485484	-0.6055128153	 1.1923417111	-0.022457
H	 1.2143879404	 1.8695830134	 0.0234759661	 0.134501
H	-0.3179397801	 2.0391398099	-0.8520352106	 0.119704
H	-0.3071195978	 2.0340586643	 0.917090891	 0.115552
H	-1.060871747	-0.1878103634	 0.0858004801	 0.084863
H	-0.0942169124	-0.7885442656	-2.0317277862	 0.128537
H	 1.4547258058	-0.051348352	-1.6216217752	 0.140412
H	 2.5950563294	-3.5468436155	 1.2580096108	 0.145194
H	 1.8326206556	-2.7637857532	 2.6606538785	 0.129618
H	 0.8698739539	-3.7732843939	 1.5534737308	 0.135231
H	 0.3491423067	-0.4720916191	 2.2108467226	 0.098186
92.5435	128.7819	163.3607	221.1282	242.5989	274.6683	293.8711	373.8653	485.43	501.1727	528.5136	603.0882	678.8923	681.0017	807.4156	845.9033	872.1912	908.7953	951.0465	1001.2838	1029.8105	1040.5615	1091.0975	1111.8173	1114.0729	1145.7888	1201.0307	1259.426	1295.6385	1296.8943	1329.9255	1361.5513	1407.9994	1411.4533	1448.0755	1458.4894	1479.6427	1491.6332	1497.5845	1501.7332	1841.3188	3022.1742	3034.3368	3048.3403	3055.5734	3102.2056	3111.3292	3115.5161	3120.577	3132.5277	3135.7893
CC1CC(=O)C2(C)OC12	C[C@H]1CC(=O)[C@@]2(C)O[C@@H]12	
InChI=1S/C7H10O2/c1-4-3-5(8)7(2)6(4)9-7/h4,6H,3H2,1-2H3	InChI=1S/C7H10O2/c1-4-3-5(8)7(2)6(4)9-7/h4,6H,3H2,1-2H3/t4-,6-,7+/m0/s1
