20
gdb 101463	3.25384	1.07727	0.87025	1.3574	76.07	-0.2463	0.0216	0.2679	1354.9591	0.170634	-440.291218	-440.281801	-440.280857	-440.326258	33.514	
C	-0.0421156236	 1.3871662717	-0.0473057924	-0.23626
O	-0.0679359434	-0.0012713082	 0.1924026511	-0.253505
C	-1.3415445918	-0.6154450446	 0.0305385595	 0.135921
C	-1.7684587932	-0.7256312619	-1.4313908652	-0.41003
C	-1.2040313383	-1.990105676	 0.697231235	 0.00114
C	-0.7869296244	-1.9067822062	 2.1884896286	-0.121739
O	-1.8407480025	-2.6200561444	 2.8897777508	-0.222259
C	-2.7193750592	-2.9855458006	 1.9320854613	 0.121996
N	-2.4925075668	-2.7104438581	 0.7158125378	-0.28095
H	 0.9527186413	 1.7425827486	 0.2332088808	 0.127336
H	-0.2153073247	 1.6369277281	-1.1034150428	 0.11141
H	-0.7920278102	 1.9179578667	 0.5600542451	 0.103778
H	-2.097202873	-0.0371190722	 0.5912592561	 0.064232
H	-1.9307675021	 0.2584260139	-1.8797361071	 0.111136
H	-0.9980842018	-1.2458531325	-2.0100996452	 0.119632
H	-2.6991045379	-1.2934957935	-1.4989860504	 0.146648
H	-0.479358499	-2.5697007557	 0.1130527684	 0.093557
H	 0.1615444084	-2.3990030213	 2.4110102868	 0.123688
H	-0.7533877805	-0.8813763394	 2.564500091	 0.123648
H	-3.5909061872	-3.5144735943	 2.3028256809	 0.140621
64.2028	76.2088	94.1894	165.8789	202.5153	233.6645	286.0654	312.5591	405.0658	428.3893	481.9757	573.4102	742.7119	839.8877	877.0048	892.9867	953.8094	968.0287	983.3278	1008.3519	1027.9182	1082.8423	1121.5577	1143.1817	1145.5308	1181.1264	1184.0509	1214.9934	1234.7328	1285.4541	1314.4881	1327.0527	1371.8471	1374.5559	1398.4813	1401.0915	1477.5068	1485.2235	1493.3821	1504.4382	1513.517	1518.1605	1703.426	2948.637	2979.7168	3032.9611	3034.9472	3045.0675	3071.1515	3109.9789	3113.5272	3121.5437	3135.4239	3211.9572
COC(C)C1COC=N1	CO[C@@H](C)[C@H]1COC=N1	
InChI=1S/C6H11NO2/c1-5(8-2)6-3-9-4-7-6/h4-6H,3H2,1-2H3	InChI=1S/C6H11NO2/c1-5(8-2)6-3-9-4-7-6/h4-6H,3H2,1-2H3/t5-,6+/m0/s1
