16
gdb 46745	2.79055	1.8582	1.40845	2.2064	67.24	-0.2458	-0.0452	0.2006	920.0909	0.125116	-437.838964	-437.831944	-437.831	-437.870959	26.904	
O	-0.0287552262	 0.016434637	-0.3809113235	-0.290878
C	-0.0117493905	 1.1717205775	-0.0531331744	 0.357507
C	-1.2378668782	 2.0211136974	 0.3113784107	-0.184225
O	-0.7770775872	 3.2558426877	 0.8377788503	-0.273034
C	 0.6275204322	 3.4008785312	 0.6309206267	 0.087192
C	 1.5367457508	 3.1943502624	 1.8480324434	-0.036104
C	 1.322646822	 1.8772093287	 2.4693798067	-0.251949
N	 2.1453490601	 1.9227976379	 1.243786313	-0.137671
C	 1.197794492	 2.097955584	 0.0672846287	-0.124902
H	-1.8520739488	 2.1764256061	-0.5890685471	 0.131343
H	-1.8572601349	 1.4993576577	 1.0510094256	 0.139296
H	 0.8273722054	 4.3206324765	 0.0760026167	 0.095791
H	 2.1660134658	 3.9579616034	 2.2915023419	 0.10491
H	 1.9205549111	 1.648257761	 3.3457184784	 0.135102
H	 0.3427217991	 1.4087657399	 2.4676426348	 0.129975
H	 1.7659974875	 2.1366310516	-0.8626374719	 0.117647
73.5521	99.0042	215.9284	348.2419	450.1544	520.7559	578.6778	586.8788	651.0351	731.3509	761.9247	790.3939	830.433	901.8019	938.3446	957.8889	984.5849	1025.0286	1045.6515	1056.7584	1093.6768	1108.2154	1143.1151	1165.76	1197.3429	1216.4766	1242.3208	1266.091	1280.5763	1328.4072	1354.0935	1372.7175	1486.6481	1512.4321	1856.4461	2992.0118	3053.6261	3079.4181	3112.5712	3124.0304	3176.6587	3208.7253
O=C1COC2C3CN3C12	O=C1CO[C@H]2[C@H]3CN3[C@@H]12	
InChI=1S/C6H7NO2/c8-4-2-9-6-3-1-7(3)5(4)6/h3,5-6H,1-2H2	InChI=1S/C6H7NO2/c8-4-2-9-6-3-1-7(3)5(4)6/h3,5-6H,1-2H2/t3-,5+,6+,7?/m1/s1
