21
gdb 94081	4.12455	0.94662	0.80733	2.9165	79.4	-0.2524	-0.026	0.2264	1436.7249	0.182054	-424.252304	-424.243182	-424.242238	-424.286474	34.039	
C	 0.0249147667	 1.5933977855	-0.1260474154	-0.406795
C	 0.0125322291	 0.0632362883	-0.1348799444	 0.027552
C	 0.9585411899	-0.5262212572	-1.1952271927	-0.217603
C	 1.0037196614	-2.0561582682	-1.0991898407	-0.210848
C	 1.3115521753	-2.4730256953	 0.3427601476	 0.04028
O	 0.39276091	-1.9193076773	 1.2650929507	-0.268069
C	 0.3862955441	-0.4995951515	 1.2422732858	-0.071354
C	 1.2820488739	-3.9788632218	 0.5484461606	 0.134735
O	 1.7448016711	-4.7713107719	-0.2296989529	-0.25071
H	 1.0235243139	 1.9795969664	 0.1098851296	 0.115863
H	-0.2612376163	 1.9930078784	-1.1040806056	 0.118129
H	-0.6724967706	 1.9965373622	 0.6161320289	 0.114978
H	-1.0065900774	-0.2822782107	-0.3573050121	 0.080453
H	 0.648350284	-0.2135528057	-2.1985503285	 0.098459
H	 1.9684426916	-0.1196934848	-1.0389487287	 0.094243
H	 0.0339744615	-2.4807004121	-1.3855473323	 0.106939
H	 1.7561277286	-2.4878080413	-1.7648923048	 0.118132
H	 2.3387076595	-2.1404226602	 0.5960750174	 0.0894
H	 1.3794496555	-0.1170230937	 1.5399525879	 0.083747
H	-0.3343186822	-0.1886783228	 2.004647845	 0.108066
H	 0.7965646505	-4.2881386764	 1.5001211445	 0.094405
54.6971	104.7113	178.5229	210.6324	233.0085	250.4903	297.1276	367.2713	416.0724	458.7413	472.3678	564.9297	627.9727	789.2934	812.1547	874.0717	913.8681	924.523	963.1047	1004.8156	1019.3057	1032.3367	1101.785	1112.523	1130.3932	1160.8558	1173.4969	1222.9348	1248.3917	1285.5056	1318.8686	1324.2442	1346.2652	1350.4606	1375.6385	1382.1593	1402.6398	1410.6708	1422.1538	1479.0765	1486.0396	1495.4219	1499.7515	1500.4228	1838.0529	2898.6209	2904.3511	2945.5954	3003.0326	3015.5415	3027.5203	3039.1183	3064.6234	3080.7186	3093.3497	3100.8265	3101.4381
CC1CCC(OC1)C=O	C[C@H]1CC[C@@H](OC1)C=O	
InChI=1S/C7H12O2/c1-6-2-3-7(4-8)9-5-6/h4,6-7H,2-3,5H2,1H3	InChI=1S/C7H12O2/c1-6-2-3-7(4-8)9-5-6/h4,6-7H,2-3,5H2,1H3/t6-,7+/m0/s1
