20
gdb 6521	2.67319	1.93027	1.38406	2.718	76.61	-0.2452	-0.0217	0.2234	986.1441	0.174021	-349.017117	-349.007684	-349.00674	-349.050498	34.787	
C	-0.0854274919	 1.4637912587	-0.0544160434	-0.448301
C	 0.0401886938	-0.0493797531	 0.0092020808	 0.301914
C	-1.1704773602	-0.7584043288	-0.5722190017	-0.466025
C	 1.3923539264	-0.6666787051	-0.1616002134	-0.353622
C	 0.7824323547	-0.6648528746	 1.233261415	 0.195722
C	 1.3469667288	 0.2216146546	 2.3317554708	-0.485108
C	 0.3052632654	-1.9790680238	 1.7463869416	 0.105507
O	 0.104213274	-2.9753793959	 1.0902356114	-0.273954
H	 0.8230736283	 1.9831826854	 0.2559622334	 0.115915
H	-0.2977110165	 1.7672047414	-1.0860039437	 0.122803
H	-0.9130452267	 1.8227655752	 0.5679631625	 0.11957
H	-1.2869929586	-0.4760960955	-1.6249843488	 0.113309
H	-1.0778742387	-1.8426594269	-0.518356919	 0.15621
H	-2.088142431	-0.462404821	-0.0503593345	 0.110631
H	 1.4524277208	-1.6373362121	-0.6432856494	 0.13335
H	 2.246154385	-0.0154525426	-0.3216339144	 0.109129
H	 1.7878060535	 1.1382702494	 1.9387225521	 0.125103
H	 0.5744644686	 0.5080262813	 3.0548522134	 0.123621
H	 2.1355306619	-0.3039017385	 2.882338315	 0.125195
H	 0.1424436625	-1.995264528	 2.8489929326	 0.069033
102.0122	132.1657	166.0149	180.384	214.3046	245.3054	300.65	312.5773	362.7398	387.4026	434.8733	456.8233	594.485	665.1764	720.9861	844.0087	925.7412	928.9016	947.6725	977.3716	1022.075	1030.5374	1050.2347	1077.7503	1114.6463	1143.5774	1211.3493	1236.8379	1304.3791	1367.7299	1410.1268	1418.2015	1429.2009	1440.2867	1475.0763	1482.4541	1487.3282	1494.0209	1502.2274	1512.2681	1519.05	1800.0655	2861.0762	3026.8859	3029.9126	3034.038	3080.3689	3084.224	3086.8544	3121.2678	3122.9008	3140.432	3154.3944	3215.0856
CC1(C)CC1(C)C=O	CC1(C)C[C@]1(C)C=O	
InChI=1S/C7H12O/c1-6(2)4-7(6,3)5-8/h5H,4H2,1-3H3	InChI=1S/C7H12O/c1-6(2)4-7(6,3)5-8/h5H,4H2,1-3H3/t7-/m1/s1
