16
gdb 34290	3.4956	1.46805	1.32559	3.297	72.86	-0.263	-0.0167	0.2463	971.2979	0.126772	-400.757498	-400.750709	-400.749765	-400.788514	27.362	
N	-0.0086607756	-1.1222543146	 0.0315220968	-0.337775
C	-0.0012218496	 0.0333220407	 0.0089948659	 0.167239
C	-0.0008562003	 1.4815822852	-0.0102820323	 0.122776
C	-0.632979903	 2.1638145232	 1.2613181799	-0.094395
O	-0.1555789976	 3.5045086789	 1.1941899754	-0.270667
C	 0.6709875029	 3.5860083254	-0.0046677171	 0.034584
C	 1.3726692035	 2.221909683	 0.0056636966	-0.248977
C	-0.2605463999	 3.439026749	-1.1974614046	-0.087731
C	-0.6716350422	 2.1679289551	-1.1989635378	-0.109004
H	-1.7268443005	 2.1360706035	 1.2309703877	 0.117737
H	-0.280655005	 1.683235506	 2.1809631384	 0.122198
H	 1.2770025211	 4.4862496898	 0.0676067119	 0.089851
H	 1.9541457453	 2.0431639612	 0.9128035539	 0.122029
H	 1.9634763644	 2.0139361818	-0.8859433465	 0.126646
H	-0.6118321242	 4.2468136866	-1.8250624746	 0.118482
H	-1.4205023294	 1.6939862751	-1.8186820138	 0.127005
152.8935	162.2626	287.3581	397.801	474.245	479.6716	527.5008	547.272	559.3504	679.8906	746.5921	801.6937	805.1535	873.2259	913.5586	936.9698	941.3217	963.0514	991.1345	1030.101	1061.3373	1090.3743	1112.3251	1163.7976	1208.524	1228.0798	1258.1245	1275.3987	1293.4374	1345.5981	1366.7353	1487.5342	1521.8804	1635.6754	2361.1087	3033.274	3081.6002	3084.4018	3153.0663	3154.6247	3217.2235	3241.3885
N#CC12COC(C1)C=C2	N#C[C@@]12CO[C@@H](C1)C=C2	
InChI=1S/C7H7NO/c8-4-7-2-1-6(3-7)9-5-7/h1-2,6H,3,5H2	InChI=1S/C7H7NO/c8-4-7-2-1-6(3-7)9-5-7/h1-2,6H,3,5H2/t6-,7+/m1/s1
