15
gdb 127290	5.33828	1.32615	1.0696	5.2295	75.66	-0.2145	-0.0029	0.2116	1067.8757	0.116305	-413.012869	-413.005674	-413.00473	-413.044769	26.94	
C	 0.0154182642	 1.3870121283	 0.0829981571	-0.313967
N	-0.0219862289	-0.0555511985	-0.0219331362	 0.055333
C	-0.0888630111	-0.781210214	-1.1869713865	-0.205282
C	-0.0020677901	-2.0922114039	-0.7754520005	 0.253204
N	 0.0020681752	-3.4369972403	-1.0829878321	-0.434703
C	 0.1242083597	-4.0935138785	 0.1324675031	 0.010577
N	 0.1908101073	-3.3117533659	 1.1783968348	-0.332811
C	 0.1137140015	-2.0437424225	 0.6332125886	 0.386906
N	 0.1061333323	-0.7948835515	 1.1027821224	-0.382065
H	 1.0416832873	 1.7489362046	 0.2073897013	 0.143971
H	-0.4123700657	 1.8242693592	-0.8214269408	 0.134056
H	-0.5735003837	 1.693730408	 0.9489085116	 0.158118
H	-0.1881981441	-0.2951648948	-2.1428028867	 0.129611
H	-0.0533771701	-3.8734279945	-1.9858198659	 0.265495
H	 0.1589617163	-5.1737737258	 0.1666425299	 0.13156
67.1152	149.0076	277.9991	307.4642	313.6081	376.1045	552.4666	587.8391	607.1994	636.5689	701.4841	766.34	785.3045	855.2521	862.4161	959.3321	992.7688	1071.2199	1084.6115	1146.4651	1175.4334	1189.2922	1304.0881	1345.5949	1379.1572	1426.4864	1441.8133	1463.6854	1479.7918	1511.0609	1521.2566	1541.0034	1673.6163	3040.8342	3113.9909	3148.9267	3238.4981	3270.1098	3686.6556
CN1C=C2NC=NC2=N1	Cn1cc2[nH]cnc2n1	
InChI=1S/C5H6N4/c1-9-2-4-5(8-9)7-3-6-4/h2-3H,1H3,(H,6,7,8)	InChI=1S/C5H6N4/c1-9-2-4-5(8-9)7-3-6-4/h2-3H,1H3,(H,6,7,8)
