20
gdb 104070	2.616	1.26287	1.09134	0.7032	75.58	-0.2446	0.0252	0.2698	1219.2764	0.169901	-440.317966	-440.308441	-440.307497	-440.352418	35.211	
C	-0.1368713635	 1.4326824001	 0.17428234	-0.475744
C	 0.0227571002	-0.0384869408	-0.0051192068	 0.399868
N	-0.1406363788	-0.6882313391	-1.0840766443	-0.304047
C	 0.1093676131	-2.0991205491	-0.7672320636	-0.23937
C	 0.5171452282	-2.1278971857	 0.731809647	 0.328757
C	-0.3888122917	-2.9676327162	 1.6213500335	-0.435951
C	 2.0009040648	-2.461194755	 0.9246533091	-0.090625
O	 2.4332768841	-2.2504897349	 2.2524679721	-0.421205
O	 0.3702696392	-0.7223471521	 1.1240028749	-0.301016
H	 0.7988323856	 1.8772854754	 0.5279318654	 0.141549
H	-0.4226840776	 1.8878345095	-0.7732496651	 0.154049
H	-0.9016725096	 1.6416408781	 0.9288945401	 0.145289
H	-0.7924188378	-2.6916356096	-0.9600336102	 0.112368
H	 0.9002849521	-2.4961895667	-1.4152624475	 0.112062
H	-0.3614241949	-4.0137985368	 1.2990142622	 0.120711
H	-0.0565850803	-2.921151031	 2.6607503262	 0.13705
H	-1.4218017277	-2.6148717656	 1.5581044345	 0.122234
H	 2.1723100794	-3.5191334131	 0.6970483964	 0.11246
H	 2.5897508308	-1.8655506026	 0.2085610849	 0.091908
H	 2.2074006744	-1.337415565	 2.4661841211	 0.289653
52.4545	124.5594	138.9687	196.5464	223.5757	249.9567	290.6956	330.5994	357.1324	434.9292	449.3591	494.4698	613.0762	632.0133	713.7323	810.7657	894.6983	917.4328	944.0457	978.019	979.6187	983.8907	1066.5339	1070.9335	1085.4487	1137.7389	1174.1512	1212.0404	1237.7625	1277.0706	1297.7016	1348.9656	1385.8688	1408.577	1415.8622	1429.5675	1475.909	1476.2207	1480.9784	1496.574	1498.3079	1503.7027	1744.4349	2977.3925	3026.0376	3043.1832	3049.9323	3057.5774	3072.2457	3106.7734	3113.4705	3134.652	3166.3677	3795.4277
CC1=NCC(C)(CO)O1	CC1=NC[C@@](C)(CO)O1	
InChI=1S/C6H11NO2/c1-5-7-3-6(2,4-8)9-5/h8H,3-4H2,1-2H3	InChI=1S/C6H11NO2/c1-5-7-3-6(2,4-8)9-5/h8H,3-4H2,1-2H3/t6-/m0/s1
