16
gdb 41143	3.44626	1.74197	1.38462	1.43	67.91	-0.2464	0.0013	0.2478	912.0797	0.126425	-437.857763	-437.851274	-437.85033	-437.888649	25.782	
C	-0.0133044772	 1.4936017523	-0.0041754639	-0.15263
O	 1.4294029668	 1.489611959	 0.1660008575	-0.296625
C	 1.5217277854	 0.0755907814	-0.1203045395	 0.069853
C	 1.6616844113	-0.8017574851	 1.1499861309	-0.26833
C	 0.1204699435	-0.8005932873	 1.302416042	 0.041487
O	-0.5291410713	-2.0610296609	 1.0086078402	-0.232808
C	-1.0551831634	-1.9162094138	-0.2359707255	 0.092687
N	-0.8695850804	-0.8418282942	-0.8929496244	-0.332297
C	-0.0330588067	-0.0295839509	-0.0438563222	 0.289029
H	-0.5308301717	 1.9894753272	 0.8252864953	 0.104917
H	-0.3066138655	 1.9558024676	-0.9547123441	 0.117305
H	 2.1313538992	-0.1396969198	-1.0013389192	 0.086549
H	 2.0516531138	-1.8030470319	 0.9484198135	 0.119385
H	 2.2251302112	-0.343716274	 1.9655629967	 0.120782
H	-0.3065850329	-0.4025654859	 2.2257474791	 0.095145
H	-1.6201557621	-2.7746660437	-0.5816642463	 0.145551
113.561	246.1089	281.5546	335.9723	434.9231	482.4931	566.7806	673.4635	723.7262	795.0186	842.0544	870.7539	899.9173	925.442	964.9226	984.1252	987.3846	1019.4881	1050.1926	1089.0711	1102.7095	1124.5398	1151.4365	1181.287	1195.7009	1245.9408	1261.0721	1285.1844	1306.4165	1325.8094	1358.7028	1369.3807	1447.3227	1517.3253	1662.442	3018.7627	3065.5584	3070.6926	3081.0787	3085.4994	3131.2208	3218.9728
C1OC2CC3OC=NC123	C1O[C@H]2C[C@@H]3OC=N[C@]123	
InChI=1S/C6H7NO2/c1-4-6(2-8-4)5(1)9-3-7-6/h3-5H,1-2H2	InChI=1S/C6H7NO2/c1-4-6(2-8-4)5(1)9-3-7-6/h3-5H,1-2H2/t4-,5-,6+/m0/s1
