17
gdb 77374	2.65169	1.67622	1.37806	1.0475	66.88	-0.2225	0.0718	0.2943	982.7542	0.134151	-458.895805	-458.887695	-458.886751	-458.927821	32.021	
C	-0.016418692	 1.5335334905	 0.090401525	-0.513389
C	 0.1471656858	 0.0481215963	 0.057345652	 0.355748
O	-1.1258484581	-0.700081707	 0.0250406172	-0.340232
C	-0.4080691693	-1.7687880137	 0.6565620199	-0.002943
C	 0.7249420371	-0.9254606028	 1.1445971278	-0.247036
C	 0.9680407144	-1.8751614968	-0.0209177299	 0.29124
O	 1.7559944554	-3.0021830351	 0.0118884361	-0.456917
C	 0.9690961464	-0.7181773437	-1.0247619578	 0.060311
O	 0.3793598399	-0.874932548	-2.2830543916	-0.452503
H	 0.9588493011	 2.0217434397	 0.1775384583	 0.128886
H	-0.4895094341	 1.8752648762	-0.8361984856	 0.13974
H	-0.6414304592	 1.8396804377	 0.9336518434	 0.134255
H	-0.9479365922	-2.5921607728	 1.1048827984	 0.115947
H	 1.2081517408	-0.7894430805	 2.1008535015	 0.111515
H	 1.422271422	-3.6230672639	-0.6457887736	 0.295476
H	 1.9709703791	-0.2997967955	-1.1528782192	 0.095691
H	-0.5610337569	-1.0143701207	-2.099334872	 0.284211
178.6685	188.6583	220.6942	227.3076	263.2317	294.9175	376.3996	410.9477	533.2607	572.1135	586.5324	617.3904	720.7934	775.5329	789.5032	837.9288	843.5399	881.6029	919.32	959.7353	982.8277	1028.014	1074.4766	1094.9925	1132.2891	1139.7529	1166.099	1231.9495	1271.8306	1292.7605	1317.9172	1343.3317	1413.8778	1429.5923	1464.2618	1477.623	1489.1267	3040.2984	3091.4421	3112.1064	3121.3927	3210.3626	3229.4064	3737.004	3794.5694
CC12OC3C1C3(O)C2O	C[C@]12O[C@@H]3[C@H]1[C@]3(O)[C@H]2O	
InChI=1S/C6H8O3/c1-5-2-3(9-5)6(2,8)4(5)7/h2-4,7-8H,1H3	InChI=1S/C6H8O3/c1-5-2-3(9-5)6(2,8)4(5)7/h2-4,7-8H,1H3/t2-,3-,4+,5+,6-/m1/s1
