16
gdb 125023	3.33817	1.22101	0.89998	6.4908	76.89	-0.2108	-0.0391	0.1717	1237.5883	0.124654	-434.0964	-434.087376	-434.086431	-434.130544	31.911	
C	-0.0493132894	 1.5229049268	 0.0530767135	-0.51147
C	-0.0267379484	 0.0350092896	-0.0504401051	 0.328531
C	 0.0122402675	-0.8122205315	-1.1455514331	 0.037049
N	-0.0119653104	-0.4416389705	-2.4938048526	-0.6112
C	-0.0067279675	-2.1292175134	-0.5956641061	 0.211352
C	 0.0101049318	-3.3924153118	-1.331930727	 0.093579
O	 0.0078422148	-4.5011459363	-0.8489752604	-0.272626
N	-0.0494898452	-2.089011431	 0.7489436499	-0.269294
N	-0.0666806382	-0.7967919842	 1.0364431521	-0.245517
H	 0.6356914887	 1.9778443361	-0.6714385674	 0.134887
H	-1.0461434772	 1.9404518002	-0.133636834	 0.148497
H	 0.2685892034	 1.855642638	 1.0461572495	 0.133115
H	 0.2984815151	 0.5078215834	-2.6536368066	 0.244405
H	 0.4979653483	-1.0705691486	-3.0987727989	 0.253623
H	 0.0210091731	-3.25916719	-2.4398584886	 0.049056
H	-0.0962073063	-0.5156189771	 2.0038831549	 0.276011
64.6867	102.7471	161.8614	183.719	188.2045	246.4922	305.0656	351.956	376.6635	504.7153	558.4933	650.6608	675.3135	698.5409	743.0042	755.7769	836.0506	992.1962	999.3721	1028.8865	1057.2492	1189.1653	1240.144	1281.1027	1303.2589	1405.3989	1431.2003	1432.6389	1477.701	1485.7792	1493.0688	1543.5368	1628.7266	1661.2203	1799.7867	2840.4057	3022.4336	3074.1447	3100.9351	3544.1098	3635.237	3644.9533
CC1=C(N)C(C=O)=NN1	Cc1c(N)c(C=O)n[nH]1	
InChI=1S/C5H7N3O/c1-3-5(6)4(2-9)8-7-3/h2H,6H2,1H3,(H,7,8)	InChI=1S/C5H7N3O/c1-3-5(6)4(2-9)8-7-3/h2H,6H2,1H3,(H,7,8)
