15
gdb 56117	4.40692	0.7715	0.67593	1.8075	71.1	-0.2543	-0.0696	0.1848	1566.574	0.110551	-453.961185	-453.951645	-453.9507	-453.996806	33.617	
N	-0.114665405	 1.29603493	 0.2172745576	-0.561704
C	 0.0221852007	-0.0687083134	 0.0247214958	 0.450603
O	 1.0502920979	-0.6742904868	 0.2649312619	-0.386469
N	-1.1246572619	-0.6799122886	-0.4497033956	-0.357097
C	-1.1938373155	-2.1187788505	-0.4433157391	-0.242298
C	-2.5647289195	-2.5825429184	 0.0170968685	 0.223155
O	-3.4485160861	-1.8040207968	 0.3113781721	-0.297183
C	-2.7504652704	-4.0176043581	 0.0604094377	 0.258704
C	-2.8781208761	-5.213650189	 0.0952895172	-0.389487
H	 0.7679940179	 1.7676378642	 0.3396620034	 0.26253
H	-0.7781489553	 1.7909439917	-0.3589743373	 0.252348
H	-2.0139190601	-0.2385540153	-0.251203717	 0.253906
H	-1.0125644022	-2.5558396336	-1.4372755372	 0.139953
H	-0.4168974425	-2.5316029925	 0.2120902935	 0.171306
H	-3.0052111918	-6.2687683429	 0.1312096285	 0.221733
39.2902	60.2174	94.5836	161.787	227.8957	256.1232	290.7899	401.5615	411.5602	503.9593	536.4265	557.6476	584.1437	599.7745	657.5865	683.6357	712.2786	774.6243	841.1745	966.3751	1025.488	1101.0005	1118.5169	1201.4162	1232.8322	1302.903	1384.2626	1475.43	1518.5061	1625.8095	1760.8236	1803.2807	2217.0989	2997.8771	3058.806	3493.4435	3568.3111	3581.8401	3697.4095
NC(=O)NCC(=O)C#C	NC(=O)NCC(=O)C#C	
InChI=1S/C5H6N2O2/c1-2-4(8)3-7-5(6)9/h1H,3H2,(H3,6,7,9)	InChI=1S/C5H6N2O2/c1-2-4(8)3-7-5(6)9/h1H,3H2,(H3,6,7,9)
