17
gdb 67683	2.23961	2.14486	1.65727	0.5713	73.46	-0.2239	-0.0254	0.1985	896.6419	0.13693	-421.758908	-421.751846	-421.750902	-421.789901	28.755	
O	-0.1245924241	 1.5204161478	 0.0082735452	-0.473266
C	-0.0256659816	 0.1352768055	-0.0074800894	 0.305673
C	-1.1669251531	-0.8121293392	-0.1311799551	-0.124368
C	-1.0067632828	-1.5877741565	-1.4376915746	-0.272665
C	 0.492232258	-1.4865187079	-1.656530388	-0.076818
C	 1.0504188442	-0.6241614687	-0.7944849694	 0.013839
C	 2.0278894513	-1.0791417636	 0.2564927844	-0.137811
O	 1.057307632	-1.6135886689	 1.2134728724	-0.274612
C	-0.1322614658	-0.8394368941	 1.0896728317	 0.012702
H	 0.5873144486	 1.8712655204	 0.554885291	 0.281497
H	-2.1580321917	-0.5079299811	 0.1949013391	 0.088273
H	-1.2723239951	-2.6495786325	-1.3514571944	 0.119927
H	-1.639789333	-1.1705775379	-2.2335463929	 0.117326
H	 1.0410493944	-2.2573326441	-2.1893082563	 0.102406
H	 2.685833696	-1.894826369	-0.0464425021	 0.118974
H	 2.6144194207	-0.2840561407	 0.7361359761	 0.092761
H	-0.5897040081	-0.6317158295	 2.0511669324	 0.106162
200.5606	218.1293	258.0612	285.4865	312.7447	425.2586	493.4854	590.707	626.9702	678.3363	705.877	764.5236	821.5087	842.0791	867.9994	896.1424	939.8755	960.14	991.6708	1002.8077	1044.0182	1050.4744	1079.1668	1095.9594	1172.9881	1182.7907	1201.5077	1227.555	1288.1573	1305.5354	1316.4751	1337.5647	1344.0175	1460.2089	1473.4778	1509.8809	1650.7041	3007.0132	3010.4927	3042.8983	3123.5183	3153.4408	3174.0249	3175.6604	3795.3622
OC12C3CC=C1COC23	O[C@@]12[C@H]3C[CH][C]1CO[C@@H]23	
InChI=1S/C7H8O2/c8-7-4-1-2-5(7)6(7)9-3-4/h1,5-6,8H,2-3H2	InChI=1S/C7H8O2/c8-7-4-1-2-5(7)6(7)9-3-4/h1,5-6,8H,2-3H2/t5-,6+,7+/m0/s1
