21
gdb 61402	3.21498	0.89332	0.85003	2.7828	76.46	-0.2547	-0.0455	0.2092	1455.4364	0.17886	-461.380895	-461.370541	-461.369597	-461.415987	38.822	
C	 0.2091799937	 1.5376981923	 0.0679847996	-0.394829
C	-0.068303969	 0.0338296894	-0.0153285661	 0.357344
C	 0.3571713397	-0.6606476826	 1.2899428889	-0.41585
O	-1.4753940664	-0.0871845321	-0.1949112908	-0.472591
C	 0.6668937126	-0.548769902	-1.2512173137	-0.252535
C	 0.5793961927	-2.0828489448	-1.3803782092	 0.026588
O	-0.7466604187	-2.5574246282	-1.2839422651	-0.434568
C	 1.1792451619	-2.5264385747	-2.696890151	 0.142388
O	 0.5343112306	-3.1446734106	-3.509722041	-0.261812
H	 1.2633552481	 1.7380125495	 0.2829128985	 0.10451
H	-0.0588509618	 2.0298398795	-0.8714472704	 0.116523
H	-0.3985710049	 1.9767696438	 0.8640525567	 0.12461
H	-0.1387181573	-0.1771354848	 2.1358926547	 0.122551
H	 0.0606386323	-1.7137820571	 1.2922534217	 0.123529
H	 1.4403328691	-0.6047742855	 1.448423017	 0.10153
H	-1.6415127559	-0.9976756956	-0.4762317497	 0.288259
H	 0.2246338182	-0.0862998661	-2.1412963035	 0.113985
H	 1.727221024	-0.268026793	-1.2218334769	 0.098871
H	 1.1873610607	-2.5402536427	-0.5822011882	 0.106245
H	-0.933317697	-2.9932360201	-2.1324176293	 0.300041
H	 2.2347830674	-2.2426708646	-2.8797764223	 0.105209
66.7454	85.1636	154.4402	194.7997	221.8592	271.2472	291.5882	301.5091	338.5575	354.3314	396.6609	436.3976	466.3282	489.9567	532.5735	554.2917	756.322	759.0906	844.0304	872.397	923.3535	929.3995	970.2933	999.1182	1007.0017	1049.8165	1135.8802	1159.4882	1195.2796	1233.7042	1257.6216	1290.6198	1320.2213	1364.9624	1393.7502	1399.6323	1412.2787	1430.4615	1444.2336	1461.3752	1478.6394	1490.5966	1502.8564	1512.1666	1810.2576	2940.1172	2979.0119	3024.8733	3031.4406	3041.6585	3076.1129	3102.0391	3115.2513	3115.5449	3120.5651	3665.2491	3737.49
CC(C)(O)CC(O)C=O	CC(C)(O)C[C@@H](O)C=O	
InChI=1S/C6H12O3/c1-6(2,9)3-5(8)4-7/h4-5,8-9H,3H2,1-2H3	InChI=1S/C6H12O3/c1-6(2,9)3-5(8)4-7/h4-5,8-9H,3H2,1-2H3/t5-/m1/s1
