19
gdb 36882	4.39177	0.94822	0.91888	3.0571	75.43	-0.2337	0.091	0.3246	1321.6405	0.159046	-422.923308	-422.915412	-422.914468	-422.95682	30.066	
C	-0.0341707777	 1.5212629995	 0.5226389608	-0.296528
C	-0.0348238283	 0.0158414449	 0.3827813067	 0.109801
C	-1.2015429808	-0.7318263631	-0.0993846216	-0.18256
O	-0.0825166468	-0.489912376	-0.9555690245	-0.233843
C	 1.3225178965	 2.1057103895	 0.1469476729	 0.057138
C	 1.8224397563	 2.2092717597	-1.3235657999	 0.051314
C	 0.8618596321	 3.3914271766	-1.5941488325	-0.227025
C	 1.5552322548	 3.5983339925	-0.2260117779	 0.016795
O	 2.8326054793	 3.1922994621	-0.8561299752	-0.311847
H	-0.8390693426	 1.9320548128	-0.0935706307	 0.104447
H	-0.2635008989	 1.781073006	 1.5648152588	 0.106182
H	 0.6741762712	-0.5130027782	 1.0232199366	 0.094566
H	-1.3461704407	-1.7691438784	 0.1992614477	 0.116276
H	-2.1127759742	-0.1935824118	-0.3581280516	 0.113288
H	 2.1151198779	 1.7367695468	 0.8050898891	 0.08229
H	 2.1578940664	 1.4202606541	-1.9952802297	 0.103289
H	 1.1943734739	 4.0745716351	-2.3761506291	 0.109218
H	-0.2131369737	 3.2069259443	-1.6292969715	 0.097646
H	 1.5724335553	 4.4784233037	 0.4186168317	 0.089551
55.8904	66.2516	136.7685	288.1103	324.3051	359.5038	452.4125	556.4242	626.2446	724.8346	775.3455	808.1455	833.7644	865.5576	877.9899	908.7876	927.0291	962.0477	974.9586	1010.9807	1036.9585	1080.0695	1085.8732	1108.294	1137.1323	1159.4087	1162.0181	1168.5013	1172.2952	1203.2234	1217.061	1241.8623	1263.5053	1288.1353	1295.3292	1318.9499	1400.8919	1447.0067	1468.8608	1499.4746	1530.3431	3025.4384	3066.3851	3074.0827	3080.8428	3085.1889	3099.907	3107.6923	3133.0345	3151.8422	3168.1012
C(C1CO1)C1C2CC1O2	C([C@H]1CO1)[C@H]1[C@H]2C[C@@H]1O2	
InChI=1S/C7H10O2/c1(4-3-8-4)5-6-2-7(5)9-6/h4-7H,1-3H2	InChI=1S/C7H10O2/c1(4-3-8-4)5-6-2-7(5)9-6/h4-7H,1-3H2/t4-,5-,6+,7-/m0/s1
