17
gdb 114305	2.33748	1.47768	1.09549	2.3992	74.12	-0.2392	0.0391	0.2783	1128.226	0.134463	-421.734345	-421.72583	-421.724886	-421.767709	32.176	
O	-0.1020581621	 1.5025915007	-0.1031451079	-0.421458
C	 0.0340755772	 0.1406941817	 0.2688926292	-0.098771
C	-1.2965321932	-0.5706017252	 0.1176087485	 0.117323
O	-1.7990810851	-0.5418821695	-1.26013799	-0.309359
C	-2.1082632783	-1.9277940209	-1.1818508007	 0.086105
C	-0.8716569642	-2.7832675145	-1.0643242004	-0.235189
C	 0.3776734491	-2.5026880161	-1.7115941418	 0.314686
C	 1.4194539883	-2.3290147551	-2.2875657906	-0.420007
C	-1.45843586	-2.0894005366	 0.1704179518	-0.197932
H	-0.3886878364	 1.5045749618	-1.0238375984	 0.295545
H	 0.8107983599	-0.3650714509	-0.3144145986	 0.116206
H	 0.3317041584	 0.1274526663	 1.323612482	 0.108236
H	-2.0436241253	-0.0831099577	 0.7566723032	 0.097877
H	-3.0488086485	-2.2660846641	-1.6015499268	 0.115583
H	-1.1249514604	-3.8424948783	-1.0443572904	 0.1236
H	 2.3394578266	-2.158611288	-2.7896588806	 0.198028
H	-1.7617822561	-2.6590538738	 1.0381048917	 0.109529
73.1662	122.1365	145.6557	185.9669	266.6633	358.3935	402.2015	444.2129	470.9265	575.2409	597.4502	635.495	654.8841	745.9432	777.08	813.9539	855.0799	914.1014	978.1503	1015.2055	1019.9637	1039.6295	1053.939	1065.0254	1089.9996	1137.1671	1177.1489	1217.843	1258.3851	1290.5053	1320.2758	1359.0255	1405.4059	1412.5467	1438.1797	1498.4614	2234.1405	3029.4754	3042.2816	3090.4647	3121.3693	3178.8558	3207.8056	3502.5232	3800.2893
OCC1OC2C(C#C)C12	OC[C@H]1O[C@H]2[C@@H](C#C)[C@@H]12	
InChI=1S/C7H8O2/c1-2-4-6-5(3-8)9-7(4)6/h1,4-8H,3H2	InChI=1S/C7H8O2/c1-2-4-6-5(3-8)9-7(4)6/h1,4-8H,3H2/t4-,5+,6-,7-/m0/s1
