17
gdb 57032	2.47761	1.31645	0.90681	2.3483	75.04	-0.2412	-0.0247	0.2165	1251.5044	0.132835	-421.789094	-421.779704	-421.77876	-421.824142	33.912	
O	 0.0189672355	 1.4935133859	 0.0083600446	-0.417211
C	 0.0313533538	 0.0683237463	-0.0216615951	-0.063003
C	 0.6276471514	-0.4474656046	-1.2542092251	 0.307307
C	 1.1671944636	-0.831101505	-2.2571783894	-0.439141
C	 0.7313847129	-0.5035967341	 1.2224023278	-0.113205
C	 0.1750005149	-0.0925587585	 2.6197966963	-0.25411
C	 0.1462686171	-1.585714245	 3.0669812367	-0.33939
C	 0.4369508969	-1.9722911032	 1.6081464556	 0.386225
O	 0.3610187867	-2.9891791452	 0.9840817543	-0.283926
H	 0.8982212273	 1.7961335552	-0.2456326399	 0.28539
H	-1.0271554182	-0.217857304	 0.0149410665	 0.121111
H	 1.6225637062	-1.1885074629	-3.1478034243	 0.204285
H	 1.8125786443	-0.3409657608	 1.1389721551	 0.103213
H	 0.8097091647	 0.5723403593	 3.205217673	 0.111796
H	-0.8208426643	 0.3498678476	 2.5486821453	 0.123822
H	 0.9717618814	-1.8653168854	 3.7298805704	 0.134352
H	-0.7814808442	-1.9814689556	 3.4878531881	 0.132486
45.7191	70.763	108.4364	173.3703	203.1725	280.1254	295.7307	366.5666	428.7709	499.5008	542.4075	593.2442	640.1783	676.8731	686.3944	739.0708	789.3176	902.5628	925.8996	957.6658	1001.2242	1045.8472	1077.7447	1087.573	1118.8819	1191.1563	1204.8355	1230.3795	1255.7862	1266.5798	1283.906	1357.8719	1417.2228	1440.6045	1492.5996	1889.3326	2236.1329	3031.8312	3049.3762	3058.1175	3084.3681	3111.9216	3141.7886	3503.4053	3803.6753
OC(C#C)C1CCC1=O	O[C@@H](C#C)[C@H]1CCC1=O	
InChI=1S/C7H8O2/c1-2-6(8)5-3-4-7(5)9/h1,5-6,8H,3-4H2	InChI=1S/C7H8O2/c1-2-6(8)5-3-4-7(5)9/h1,5-6,8H,3-4H2/t5-,6+/m1/s1
