22
gdb 88622	3.42677	1.11931	1.03565	1.1928	87.2	-0.2233	0.0882	0.3115	1285.1916	0.194643	-367.149864	-367.141196	-367.140251	-367.183567	33.627	
C	-0.1972410361	 1.5125556689	-0.125799197	-0.411373
C	-0.0400620257	 0.0219533536	 0.0821207836	 0.030694
C	 1.2753654872	-0.6561117561	-0.1104474274	-0.257452
N	 0.6830719918	-0.5551732292	 1.2190011575	-0.082211
C	 1.3180547733	 0.2976882302	 2.1833312368	 0.064118
C	 0.7043791373	 0.5389359548	 3.5325550407	-0.096866
C	-0.0431011475	-0.706419316	 4.0289089765	-0.218251
C	 1.2695072897	-1.539957599	 3.8824606043	-0.215668
C	 1.9993930938	-0.2835314632	 3.3904469764	-0.098022
H	 0.7378677738	 2.0572264444	 0.0258283114	 0.119167
H	-0.5327596214	 1.7111730486	-1.1492518337	 0.120529
H	-0.946666036	 1.9290992453	 0.5560634476	 0.126022
H	-0.9348609237	-0.5477438038	-0.1677111792	 0.087203
H	 1.3409664656	-1.6554226757	-0.5340193078	 0.110049
H	 2.1287009426	-0.0152363022	-0.3334507933	 0.102917
H	 1.8439711676	 1.1737559815	 1.7965822614	 0.069333
H	 0.5655601488	 1.5448873553	 3.9127932962	 0.07687
H	-0.3595376536	-0.6146428447	 5.0702802518	 0.094589
H	-0.8942018667	-1.0253470068	 3.4224256866	 0.102209
H	 1.6451581692	-1.8916167683	 4.8458393814	 0.093996
H	 1.2389009877	-2.3758252627	 3.1797689573	 0.104249
H	 3.0181806422	-0.0106807749	 3.6417841888	 0.077896
46.0945	135.9739	158.5398	194.5916	225.8235	281.3966	394.6623	416.087	509.3379	550.3934	746.2243	748.509	783.6404	791.7146	807.7439	830.0679	906.456	929.3199	959.4127	965.5439	971.6781	1013.0439	1020.6193	1035.3116	1054.3118	1081.4924	1112.8409	1122.7907	1130.3431	1146.5964	1156.5432	1188.3033	1208.7463	1229.5197	1248.0383	1264.6902	1304.0235	1335.5081	1349.8788	1402.387	1419.1867	1436.1713	1469.8071	1490.0566	1494.5227	1498.6733	1511.3735	3034.8024	3060.5889	3065.7118	3067.8285	3081.157	3094.9327	3098.0626	3105.5901	3122.0817	3123.5423	3163.5236	3166.9074	3175.6035
CC1CN1C1C2CCC12	C[C@H]1CN1[C@H]1[C@H]2CC[C@@H]12	
InChI=1S/C8H13N/c1-5-4-9(5)8-6-2-3-7(6)8/h5-8H,2-4H2,1H3	InChI=1S/C8H13N/c1-5-4-9(5)8-6-2-3-7(6)8/h5-8H,2-4H2,1H3/t5-,6-,7+,8-,9?/m0/s1
