17
gdb 70407	2.58704	1.50031	1.29175	3.2594	68.48	-0.2367	-0.0311	0.2056	1038.1436	0.132262	-458.921355	-458.912414	-458.91147	-458.954918	33.225	
C	-0.0244186355	 1.633930416	-0.0363553816	-0.458417
C	 0.0593654824	 0.1261860074	 0.020304865	 0.222911
O	 1.1120879136	-0.4554874995	-0.8240707862	-0.331182
C	 1.6068565265	-1.233786119	 0.268948468	 0.047362
C	 2.1420379557	-0.333320033	 1.3488217527	-0.371682
C	 0.6556047056	-0.6004738956	 1.2465903627	 0.273975
O	-0.1027460997	-1.1810095466	 2.2400844113	-0.446846
C	-1.2492652911	-0.5571796831	-0.3753667017	 0.161307
O	-2.3184477788	-0.0092408601	-0.4077537517	-0.252473
H	 0.8863099107	 2.096767119	 0.3493394826	 0.118526
H	-0.1733115494	 1.9645581248	-1.0682952095	 0.140518
H	-0.8835582503	 1.9754403852	 0.546979634	 0.140875
H	 1.9166428221	-2.2535404394	 0.0793152617	 0.120362
H	 2.6040367474	-0.8620821269	 2.1775952808	 0.125301
H	 2.5825501189	 0.6263197573	 1.0955558947	 0.121344
H	-0.1563411454	-0.5714996431	 2.9850662475	 0.296511
H	-1.1182914628	-1.6254252133	-0.6497661103	 0.091607
60.8223	149.7818	166.5538	206.7164	260.1572	276.3087	291.7417	389.0564	425.0339	445.5756	478.2322	544.5249	650.1139	724.5883	809.7736	851.8729	886.634	913.6666	974.1252	989.1676	997.361	1017.5894	1055.1077	1077.9591	1119.1718	1184.3959	1215.9545	1241.717	1283.807	1314.1913	1395.6145	1405.4512	1417.8234	1476.217	1484.4726	1490.6318	1835.6062	2913.8377	3052.8989	3117.7318	3124.304	3136.651	3200.0542	3213.3003	3790.185
CC1(OC2CC12O)C=O	C[C@]1(O[C@H]2C[C@@]12O)C=O	
InChI=1S/C6H8O3/c1-5(3-7)6(8)2-4(6)9-5/h3-4,8H,2H2,1H3	InChI=1S/C6H8O3/c1-5(3-7)6(8)2-4(6)9-5/h3-4,8H,2H2,1H3/t4-,5-,6-/m0/s1
