18
gdb 24190	4.00074	1.55754	1.35118	1.7543	82.73	-0.1745	0.0509	0.2254	976.3054	0.152193	-364.8001	-364.793607	-364.792663	-364.831051	27.314	
C	-0.038540726	 1.5808210508	-0.0502429769	-0.202451
C	 1.5235636859	 1.3630409363	-0.0076294315	-0.168047
C	 1.1894782395	 0.1737240841	 0.9738466135	-0.202444
C	-0.0546434089	 0.0066457505	 0.0211499254	-0.170948
C	 0.6527911415	-0.3307616192	-1.2908016348	 0.347112
C	 1.6876804579	 0.5717260776	-1.2915560545	 0.348315
N	 2.4295428027	 0.3994239511	-2.4177090277	-0.428341
C	 1.8619165208	-0.630578501	-3.1530069922	-0.07975
C	 0.7505849088	-1.1043178467	-2.4711187222	-0.392214
H	-0.4230677477	 2.0572556999	 0.8580892774	 0.088571
H	-0.4562192368	 2.0490572083	-0.9443088561	 0.095803
H	 2.2187692934	 2.1597821505	 0.2534844831	 0.061571
H	 1.9018363517	-0.6528747738	 1.0221701733	 0.095798
H	 0.9199363099	 0.5184340029	 1.9780564567	 0.088563
H	-0.9418065775	-0.545583905	 0.3262003316	 0.062558
H	 3.2479887518	 0.9151400859	-2.689952687	 0.256086
H	 2.2953279008	-0.9353100418	-4.0917404503	 0.110805
H	 0.1121972221	-1.9069125901	-2.8085765279	 0.089015
65.6542	296.8435	400.093	466.5292	477.9545	503.5976	617.3722	645.5283	665.7379	683.6827	743.4863	795.7697	812.4866	826.6116	859.1771	887.8769	933.3285	992.0591	1000.142	1001.2764	1067.9922	1068.8083	1085.9088	1098.7656	1102.8484	1150.9915	1210.9279	1220.3704	1224.806	1252.7731	1263.4324	1291.7241	1339.1949	1447.6394	1457.1487	1475.34	1510.9162	1536.8847	1567.1129	3034.5888	3046.0893	3113.5956	3118.2786	3124.7788	3132.0039	3239.9754	3268.9988	3677.8606
C1C2CC1C1=C2NC=C1	C1[C@H]2C[C@@H]1c1c2[nH]cc1	
InChI=1S/C8H9N/c1-2-9-8-6-3-5(4-6)7(1)8/h1-2,5-6,9H,3-4H2	InChI=1S/C8H9N/c1-2-9-8-6-3-5(4-6)7(1)8/h1-2,5-6,9H,3-4H2/t5-,6+
