18
gdb 45798	2.60317	1.70647	1.23696	3.0215	78.44	-0.2119	-0.0036	0.2083	1029.995	0.150719	-401.980879	-401.973385	-401.97244	-402.012819	29.79	
O	-0.2612317673	-0.0336762977	 0.4284657154	-0.35853
C	-0.0842901877	 1.1285049164	 0.1176769549	 0.360371
C	-1.1700051304	 1.9824134967	-0.5211627458	-0.321007
C	-1.6047840598	 3.2169279486	 0.2578710662	-0.034601
C	-1.209683153	 3.452468669	 1.6861372122	-0.302092
C	-0.5864434544	 4.294876619	 0.5772253479	-0.070766
C	 0.8321384631	 4.1496193678	 0.1824962375	-0.063237
C	 1.5670877254	 3.0355358498	 0.0805022832	-0.03603
N	 1.1545094787	 1.7117018846	 0.2878129827	-0.313956
H	-0.8262945101	 2.2905615712	-1.5180577105	 0.122254
H	-2.0192533844	 1.3089626627	-0.6532600576	 0.131821
H	-2.5902911468	 3.5737674903	-0.0288057245	 0.093625
H	-1.9203562933	 3.9409141868	 2.3430296235	 0.115186
H	-0.5765976548	 2.7247319908	 2.17994501	 0.134529
H	-0.9506836452	 5.3146953184	 0.5149872721	 0.087708
H	 1.3497849572	 5.0722669702	-0.0595225448	 0.094559
H	 2.6184624088	 3.1130077555	-0.1782532722	 0.109365
H	 1.8503626041	 1.0526676	 0.6089353596	 0.2508
94.7379	139.4161	263.5433	271.9263	360.9329	439.4068	480.0078	547.5718	584.6987	634.5689	693.4762	725.1827	760.1578	804.4294	820.8	866.85	880.2313	937.5156	947.8086	995.5629	1016.8141	1048.2664	1067.4976	1125.6407	1130.9341	1144.3169	1212.5041	1234.5271	1279.2079	1334.9083	1339.256	1395.9547	1418.8609	1454.0998	1470.9569	1480.3497	1495.3375	1722.7909	1785.7506	3021.2734	3110.7786	3137.7427	3142.8759	3157.9555	3168.4521	3188.2974	3228.803	3595.0396
O=C1CC2CC2C=CN1	O=C1C[C@H]2C[C@H]2C=CN1	
InChI=1S/C7H9NO/c9-7-4-6-3-5(6)1-2-8-7/h1-2,5-6H,3-4H2,(H,8,9)	InChI=1S/C7H9NO/c9-7-4-6-3-5(6)1-2-8-7/h1-2,5-6H,3-4H2,(H,8,9)/t5-,6-/m1/s1
