15
gdb 123624	4.15954	1.60386	1.26442	0.8616	70.31	-0.2335	-0.0118	0.2217	939.8352	0.117236	-412.956919	-412.950767	-412.949823	-412.987322	24.734	
C	 0.0762680798	 1.4772882267	-0.0350755796	-0.23626
C	 1.3402774525	 0.6846363104	 0.005700266	-0.170731
N	-0.0050141176	 0.0165563448	-0.0283164499	-0.104539
C	-0.2156307455	-0.6095909369	-1.3723933984	-0.29172
C	 1.0401626526	-0.2823519587	-2.1269580119	 0.28412
N	 1.5854827144	-0.4866665231	-3.3180453121	-0.309271
N	 2.7825774344	 0.0972945545	-3.1751774365	-0.100302
N	 3.0548869956	 0.6610381301	-1.9902210606	-0.325848
C	 1.9358910828	 0.4252111543	-1.3187433991	 0.338535
H	-0.2920182388	 1.9549510199	 0.869020623	 0.12424
H	-0.1427885271	 2.0125251868	-0.9574783082	 0.118694
H	 1.9166340579	 0.5895558694	 0.9194332581	 0.114186
H	-0.3530824475	-1.6875147328	-1.2361264061	 0.134529
H	-1.1282903641	-0.2137562782	-1.8290978071	 0.131854
H	 3.4627643106	 0.0860461126	-3.9177580475	 0.292514
164.8056	243.0144	361.9769	445.6613	449.2563	466.6121	608.1331	696.7831	702.2986	739.7661	756.5686	799.9531	842.1396	961.4475	995.1976	1018.5562	1023.4057	1070.3323	1117.9799	1147.6979	1156.2258	1157.3976	1199.3874	1210.23	1254.2606	1299.1534	1324.4046	1434.9421	1447.5579	1489.6857	1500.6625	1523.6623	1601.0238	3044.9299	3083.0453	3094.8529	3170.9094	3185.3188	3671.5782
C1C2N1CC1=NNN=C21	C1[C@H]2N1Cc1n[nH]nc21	
InChI=1S/C5H6N4/c1-3-5(7-8-6-3)4-2-9(1)4/h4H,1-2H2,(H,6,7,8)	InChI=1S/C5H6N4/c1-3-5(7-8-6-3)4-2-9(1)4/h4H,1-2H2,(H,6,7,8)/t4-,9?/m1/s1
