20
gdb 17965	2.55595	2.27498	1.39684	1.3518	75.85	-0.2366	0.0101	0.2467	944.0479	0.179577	-348.999821	-348.992348	-348.991403	-349.031206	29.553	
C	 0.0346257305	 1.4661126283	 0.116903297	-0.191561
C	 1.4488350348	 2.061782279	-0.0133338032	-0.189796
C	 2.2574640544	 1.6187753264	-1.2554974731	-0.249059
C	 1.4877019625	 1.7457360673	-2.5414325155	-0.034941
C	 0.6714734075	 0.8076527542	-3.0235545454	-0.061261
C	 0.4187176598	-0.5317741295	-2.3648235708	-0.122075
O	-0.551963597	-0.4982751552	-1.3238841309	-0.242971
C	-0.108961635	-0.0628875124	-0.0477714793	-0.067986
H	-0.343262535	 1.7399661139	 1.1096149829	 0.092429
H	-0.6437757785	 1.9293387743	-0.6060749435	 0.114441
H	 1.3585013319	 3.1554057535	-0.0088527559	 0.097292
H	 2.0371249993	 1.8036969805	 0.876580472	 0.095259
H	 3.1768935846	 2.212564271	-1.3037512544	 0.097285
H	 2.572661503	 0.5791204854	-1.1146021275	 0.103931
H	 1.5679914455	 2.6947786006	-3.0688274243	 0.086612
H	 0.1097524396	 1.0090390924	-3.9324449007	 0.088191
H	 0.017952224	-1.2332756543	-3.1029258093	 0.104176
H	 1.3574310941	-0.9626466884	-1.9837017196	 0.093186
H	 0.8265471058	-0.5779528954	 0.2284325944	 0.08179
H	-0.8838308217	-0.4218612118	 0.6372516671	 0.105058
137.3404	174.2581	246.0979	268.2216	304.2715	375.464	455.4128	482.3321	535.6401	621.1212	723.2926	769.5042	817.1413	858.6602	897.7745	960.6111	978.1163	987.9956	1007.6556	1014.1336	1050.4638	1097.569	1117.4663	1145.6428	1197.463	1219.8407	1273.6998	1280.6256	1304.1108	1331.1129	1346.1032	1375.9042	1384.2926	1397.3607	1412.11	1426.9968	1472.8683	1482.9146	1488.528	1489.9109	1509.6656	1716.6459	2964.9455	2982.4128	3015.1199	3032.1008	3037.4641	3050.7004	3069.0523	3073.506	3076.4192	3089.0902	3134.7686	3163.0901
C1CCC=CCOC1	C1CCC=CCOC1	
InChI=1S/C7H12O/c1-2-4-6-8-7-5-3-1/h2,4H,1,3,5-7H2/b4-2-	InChI=1S/C7H12O/c1-2-4-6-8-7-5-3-1/h2,4H,1,3,5-7H2/b4-2-
