17
gdb 42851	3.27124	1.10671	0.99236	2.8007	78.4	-0.2461	0.0065	0.2526	1225.9013	0.135018	-384.621475	-384.613383	-384.612439	-384.654632	30.896	
O	-0.1937628614	-0.0040190533	 0.0100911905	-0.328137
C	-0.1089400355	 1.184051726	 0.0137798611	 0.443652
C	-0.9931493696	 2.4433084638	-0.0263452964	-0.167431
C	-0.0313341905	 2.9629711694	 1.0970761223	-0.244394
C	 0.9501033148	 2.3015562409	 0.0696822273	-0.193485
C	 0.0762115504	 2.9944587169	-1.0357372461	 0.035955
C	 0.1140907646	 2.4781107159	-2.4771346501	-0.408304
C	-0.9596555582	 3.0388924441	-3.289768711	 0.306491
C	-1.8539199919	 3.5187900904	-3.9334429039	-0.448933
H	-2.0743440639	 2.5405691718	-0.0836978457	 0.102152
H	 0.0449652996	 4.0508393654	 1.1579133661	 0.11246
H	-0.1122771066	 2.503226694	 2.0830009294	 0.118004
H	 2.0348016064	 2.2375480175	 0.1238932286	 0.094373
H	 0.1478206951	 4.0852239736	-1.0054853679	 0.0926
H	 1.0839874266	 2.7343367559	-2.9233995561	 0.135473
H	 0.0519657804	 1.3824205353	-2.4887502048	 0.150669
H	-2.6404803005	 3.9315606924	-4.5150702332	 0.198856
57.2948	111.3003	150.0344	292.8862	316.7534	347.1054	441.8324	450.0774	570.5398	623.1364	644.9067	687.8884	753.5518	764.5114	814.4568	857.7623	884.9085	944.1921	965.3743	998.1225	1025.603	1037.5525	1041.7696	1096.6142	1101.9168	1138.1946	1184.9698	1202.2228	1220.0572	1235.8035	1257.7641	1326.407	1405.4948	1470.4297	1514.6374	1916.8098	2240.0338	3019.7917	3051.5944	3069.1219	3078.7512	3142.2885	3146.303	3158.2846	3507.0044
O=C1C2CC1C2CC#C	O=C1[C@H]2C[C@@H]1[C@H]2CC#C	
InChI=1S/C8H8O/c1-2-3-5-6-4-7(5)8(6)9/h1,5-7H,3-4H2	InChI=1S/C8H8O/c1-2-3-5-6-4-7(5)8(6)9/h1,5-7H,3-4H2/t5-,6-,7+
