18
gdb 73524	2.75495	1.85199	1.43657	1.0822	76.43	-0.2328	-0.0047	0.2281	954.7873	0.15083	-398.156546	-398.149195	-398.148251	-398.187855	29.467	
C	-0.0911199842	 1.5602731374	-0.0707575671	-0.421208
C	-0.020585723	 0.0229011131	-0.0649702275	 0.240909
C	-1.4004397595	-0.6208370627	 0.1684213622	-0.277438
C	-1.4114567987	-0.7411303859	 1.7289503628	-0.168357
N	 0.0047786906	-0.9455161272	 2.1426204743	-0.31341
C	 0.6834398848	-0.5378428929	 1.1522706919	 0.363519
N	 2.0096588066	-0.7058437792	 0.7769516469	-0.380589
C	 1.9498322239	-0.7572444971	-0.6328153952	 0.035454
N	 0.8516948821	-0.4035853836	-1.1858352497	-0.289258
H	 0.9072078844	 1.9983158357	 0.0126023652	 0.125252
H	-0.5350921134	 1.8976033927	-1.0113082645	 0.132875
H	-0.7016294961	 1.9293409739	 0.7585399588	 0.121223
H	-2.233357074	-0.0344229978	-0.2272320243	 0.100442
H	-1.4314148883	-1.6173699084	-0.2822750113	 0.114034
H	-1.8217272059	 0.1622985274	 2.1987290509	 0.109134
H	-2.0105427059	-1.5844971209	 2.0835670786	 0.11062
H	 2.6407968557	-1.2917616284	 1.303207688	 0.262859
H	 2.8325480708	-1.0769682761	-1.1781690502	 0.133941
169.8193	225.2381	227.1249	262.0742	324.8998	340.0909	480.3082	554.0778	607.6333	642.0481	678.9427	707.5595	758.4593	842.463	868.4202	920.9453	934.1849	942.8799	968.6213	992.3497	994.5708	1045.1946	1116.5078	1128.4303	1210.8726	1216.0438	1239.5082	1293.1825	1309.7883	1320.2614	1347.7436	1373.81	1399.9133	1479.9366	1488.3186	1494.6941	1507.3504	1648.7195	1768.3744	3023.4916	3042.1574	3059.1922	3084.2331	3113.3691	3118.387	3122.1068	3190.8081	3621.8077
CC12CCN=C1NC=N2	C[C@]12CC[N][C]1N[CH][N]2	
InChI=1S/C6H9N3/c1-6-2-3-7-5(6)8-4-9-6/h4H,2-3H2,1H3,(H,7,8,9)	InChI=1S/C6H9N3/c1-6-2-3-7-5(6)8-4-9-6/h4H,2-3H2,1H3,(H,7,8,9)/t6-/m0/s1
