20
gdb 121973	6.35457	0.54647	0.52248	4.4231	77.54	-0.2619	0.0267	0.2886	2068.6956	0.168299	-440.286154	-440.275324	-440.27438	-440.323277	37.036	
C	 0.053832249	 1.3769279271	-0.0590079653	-0.230053
O	 0.0237806303	-0.029883416	-0.0086424436	-0.233211
C	-1.2869127392	-0.5490491282	 0.0036858557	-0.056389
C	-1.1917706853	-2.0696673183	 0.0454240278	-0.226538
C	-2.5649879132	-2.7468062905	 0.0360111465	 0.122266
O	-3.3371171635	-2.3919355606	-1.0979353286	-0.415865
C	-2.4180701926	-4.2819807562	 0.1577279277	-0.370816
C	-3.7042885564	-4.9733556924	 0.1877534979	 0.272076
N	-4.71868928	-5.5247715284	 0.2231594585	-0.301747
H	 1.1030109658	 1.6815859156	-0.0719622055	 0.128545
H	-0.4409969199	 1.7642487859	-0.963660126	 0.105853
H	-0.436691604	 1.8280819619	 0.818081034	 0.105905
H	-1.8431296239	-0.1784604906	 0.8827634481	 0.088206
H	-1.8467128439	-0.2275558657	-0.8880847646	 0.100312
H	-0.6040940078	-2.412763933	-0.8174030281	 0.101792
H	-0.6350432921	-2.3669289529	 0.9416080899	 0.1132
H	-3.1541388715	-2.3924809095	 0.8898229158	 0.113957
H	-2.850303334	-2.6470255455	-1.8904903143	 0.284325
H	-1.8311124695	-4.662949097	-0.6879061761	 0.1433
H	-1.8602050384	-4.5337943855	 1.0666544503	 0.15488
47.1178	72.0237	83.4805	98.79	142.3164	176.2395	232.75	274.9332	292.7158	318.2945	397.1001	401.9493	453.1853	499.0526	612.9065	802.0798	862.6548	938.7935	941.2535	988.1878	1029.282	1074.4808	1100.4356	1122.9146	1165.2361	1179.4032	1199.0817	1221.8669	1229.8716	1277.507	1297.6192	1332.8563	1354.774	1379.0633	1421.0395	1429.5082	1459.5489	1481.2878	1485.5584	1485.7762	1505.902	1533.8326	2367.0886	2950.6705	2971.8671	3001.1412	3015.3221	3018.2847	3031.9551	3053.374	3071.6384	3084.5856	3115.8461	3790.2018
COCCC(O)CC#N	COCC[C@@H](O)CC#N	
InChI=1S/C6H11NO2/c1-9-5-3-6(8)2-4-7/h6,8H,2-3,5H2,1H3	InChI=1S/C6H11NO2/c1-9-5-3-6(8)2-4-7/h6,8H,2-3,5H2,1H3/t6-/m0/s1
