18
gdb 32229	2.63592	1.5311	0.97807	2.6329	85.13	-0.1902	0.0025	0.1927	1189.2951	0.151238	-398.191447	-398.183366	-398.182422	-398.223806	31.587	
C	-0.0179682286	 1.4421652692	 0.079878915	-0.324887
N	-0.0682389221	-0.004295578	-0.0282522315	-0.388717
C	 0.5865387156	-0.6391883713	-1.0873623593	 0.270489
C	 1.1538883754	 0.0081668156	-2.1772607678	-0.175337
C	 1.7784277288	-0.7476482109	-3.1754156721	-0.129434
C	 1.8226554089	-2.1228404303	-3.0378639029	-0.028137
N	 1.2610422549	-2.772694385	-2.0057387395	-0.328046
C	 0.6558082037	-2.0577804743	-1.0701291331	 0.292366
N	 0.1006393233	-2.735245525	 0.0216040735	-0.581877
H	 1.0058061844	 1.8491030072	 0.0961444786	 0.116441
H	-0.5486580948	 1.9006584787	-0.7610433449	 0.135711
H	-0.5256063456	 1.7453840832	 0.9983644496	 0.125274
H	 0.1081112685	-0.4769273634	 0.849740671	 0.24224
H	 1.1267529877	 1.0889226175	-2.2497145278	 0.09376
H	 2.228586079	-0.2631451572	-4.0342132406	 0.088258
H	 2.3119118873	-2.7450848173	-3.7820751294	 0.09617
H	 0.0990775279	-3.7343917092	-0.1414884347	 0.249135
H	-0.8218837842	-2.3980671794	 0.2724529257	 0.246592
106.0051	185.3675	212.5814	241.7822	318.7012	333.4886	389.9643	467.2054	517.1956	527.9107	587.3372	597.2061	681.9988	747.3468	789.9811	805.4603	842.0562	891.2117	920.4082	955.8541	1049.2748	1090.9852	1098.7388	1150.3232	1157.457	1181.3981	1250.71	1308.7951	1331.6586	1384.2812	1460.9112	1469.9533	1486.9881	1497.4838	1513.5332	1526.8236	1612.588	1628.2459	1650.2948	2976.4429	3068.5997	3120.3846	3161.3593	3190.1278	3205.756	3517.4738	3550.9448	3625.2333
CNC1=CC=CN=C1N	CNc1cccnc1N	
InChI=1S/C6H9N3/c1-8-5-3-2-4-9-6(5)7/h2-4,8H,1H3,(H2,7,9)	InChI=1S/C6H9N3/c1-8-5-3-2-4-9-6(5)7/h2-4,8H,1H3,(H2,7,9)
