22
gdb 101763	2.60345	0.9705	0.76564	6.9899	79.12	-0.2356	0.0378	0.2734	1525.8495	0.194531	-441.526871	-441.516764	-441.51582	-441.562385	37.136	
C	-0.794156743	 2.33582036	-0.2427187506	-0.400427
C	-0.0521947096	 0.9999458541	-0.0796245473	 0.028904
C	-1.08696037	-0.1344326295	-0.0305798039	-0.156828
N	-0.4850931293	-1.4538882822	 0.2397185926	-0.519023
H	-1.2064562741	-2.1698315461	 0.2463682902	 0.251423
H	 0.6456190203	-1.9372685126	-1.0201337859	 0.324998
H	-0.0659718804	-1.4641721151	 1.1660406134	 0.244341
C	 1.0081747118	 0.836654989	-1.1923530709	-0.193351
C	 2.2006447274	-0.1202552032	-0.8977255363	-0.329937
C	 2.2809848023	-1.3209981344	-1.8415797346	 0.38043
O	 1.2668040198	-2.1907871307	-1.7559644121	-0.387689
O	 3.1820475885	-1.4769662394	-2.6260982247	-0.334632
H	-0.0975084883	 3.1776454994	-0.1944708726	 0.121568
H	-1.3056594617	 2.3846203097	-1.2111680938	 0.122111
H	-1.547372517	 2.4773106196	 0.5392537081	 0.113017
H	 0.4697595378	 1.0228625294	 0.8895834191	 0.072708
H	-1.8579040599	 0.1201236263	 0.7118488548	 0.09627
H	-1.5907722856	-0.2004760264	-1.0027471402	 0.119905
H	 0.5034952522	 0.5353380979	-2.1186423167	 0.113532
H	 1.4234319986	 1.8281988027	-1.3966775703	 0.108684
H	 3.1470946453	 0.4114202192	-1.0031935963	 0.124499
H	 2.1499004346	-0.4840122179	 0.1351352981	 0.099498
53.0421	88.2064	109.4917	199.5903	201.8555	229.3351	261.2078	310.1061	343.585	364.5703	410.1328	468.0394	499.2559	615.8598	724.5335	768.9264	839.702	870.3297	912.506	936.8379	962.1007	982.1771	1018.6076	1037.0902	1060.4569	1071.0512	1108.1754	1140.7905	1186.353	1207.5938	1270.6199	1310.2844	1317.0458	1329.1629	1349.7775	1369.0917	1384.6755	1409.5362	1434.9484	1478.8101	1485.6059	1494.2612	1500.3616	1503.1606	1510.3719	1648.9545	1852.2782	2984.2809	2989.4459	3029.4502	3034.9116	3043.5281	3055.9504	3073.9807	3095.6724	3109.741	3121.1162	3173.6216	3486.0685	3560.9859
CC(C[NH3+])CCC([O-])=O	C[C@@H](CN)CCC(=O)O	
InChI=1S/C6H13NO2/c1-5(4-7)2-3-6(8)9/h5H,2-4,7H2,1H3,(H,8,9)	InChI=1S/C6H13NO2/c1-5(4-7)2-3-6(8)9/h5H,2-4,7H2,1H3,(H,8,9)/t5-/m1/s1
