22
gdb 123068	3.49702	0.53007	0.49088	3.7461	83.99	-0.2425	0.0316	0.2741	2291.1763	0.191641	-441.47223	-441.461059	-441.460115	-441.510296	38.521	
C	 0.2320920969	 1.311735673	 1.1709363176	-0.396163
C	 0.5683374504	 0.0982686072	 0.2969157002	-0.109085
N	 0.3921446866	-1.2355820776	 0.8453743994	-0.227978
C	-0.0392965782	-1.3984575064	 2.0133183588	 0.12375
O	-0.2329284394	-2.6476138247	 2.4959761833	-0.2007
C	-0.5769642997	-2.7496927387	 3.8757458791	-0.094622
C	 0.6613400907	-2.7963695344	 4.7668453369	-0.175142
C	 0.3143448169	-3.011295737	 6.2350714448	-0.074304
O	 1.5282285807	-3.0125942972	 6.9678628234	-0.416851
H	 0.8467269341	 1.3455991489	 2.077042602	 0.118273
H	 0.4211130636	 2.2310878448	 0.6085470906	 0.115122
H	-0.8208055803	 1.318878873	 1.4731384656	 0.11752
H	-0.0247307972	 0.1447798776	-0.6264552046	 0.111882
H	 1.6134336286	 0.1715880457	-0.0326536044	 0.112368
H	-0.3108676741	-0.6057892204	 2.7233965112	 0.072809
H	-1.2369308283	-1.9182804286	 4.1633143071	 0.102214
H	-1.1550932486	-3.6747026695	 3.9642258935	 0.119285
H	 1.319145225	-3.6032966308	 4.4279294241	 0.126707
H	 1.2255381891	-1.8614524206	 4.670179489	 0.112548
H	-0.3605375756	-2.2109627691	 6.5825824996	 0.085367
H	-0.2266541641	-3.9646139507	 6.3544403165	 0.089149
H	 1.3208960829	-3.1630318144	 7.8947328963	 0.287853
35.6329	59.9917	71.7485	110.8553	169.7651	178.4641	196.3549	240.3554	267.9049	318.2211	352.4967	359.0052	457.8896	524.2479	598.9363	768.1334	782.0298	878.5246	893.8995	984.5165	1016.4253	1030.9807	1053.2468	1083.4745	1085.8691	1100.1735	1148.3072	1170.4151	1209.5081	1240.4897	1265.1115	1307.1197	1315.7044	1319.127	1337.7457	1379.2093	1397.2546	1412.6987	1431.8447	1466.7144	1484.747	1494.7305	1495.3082	1506.9423	1508.9832	1530.039	1779.5651	2955.106	2979.954	3001.0181	3013.1252	3025.0242	3033.0264	3034.3543	3045.7091	3076.629	3098.7987	3100.4743	3106.5569	3830.364
CCN=COCCCO	CCN=COCCCO	
InChI=1S/C6H13NO2/c1-2-7-6-9-5-3-4-8/h6,8H,2-5H2,1H3	InChI=1S/C6H13NO2/c1-2-7-6-9-5-3-4-8/h6,8H,2-5H2,1H3
