18
gdb 6589	3.86299	1.82039	1.56564	1.7944	67.02	-0.2517	0.0748	0.3265	860.2554	0.154449	-384.93177	-384.924517	-384.923572	-384.962463	29.816	
O	-0.076370976	 1.3834459395	 0.0045135253	-0.483437
C	-0.0205212856	-0.0077001584	 0.0203109947	 0.425395
C	 0.2973469296	-0.8388790431	 1.3082663921	-0.325054
C	-0.4452120424	-1.9352432825	 0.5107898559	 0.425394
O	-0.9466770316	-3.029547677	 1.2105661118	-0.483437
C	-1.3509937954	-0.7909277742	-0.0556355785	-0.325055
C	 0.5193873884	-2.1978947059	-0.6673778641	-0.276056
C	 0.8432184922	-0.7188623402	-1.0453948461	-0.276057
H	 0.8252745815	 1.7224185702	 0.029309244	 0.276698
H	 1.342407867	-1.0172525265	 1.5789897432	 0.08316
H	-0.2779929538	-0.4930896706	 2.1686908271	 0.107365
H	-1.353235552	-3.6322185626	 0.5781262743	 0.276698
H	-2.0771358973	-0.4435329726	 0.6812167	 0.107365
H	-1.8169532025	-0.9209927062	-1.03707613	 0.08316
H	 1.3977125611	-2.7670942805	-0.3500736062	 0.103028
H	 0.033355611	-2.7450329847	-1.4827716259	 0.088902
H	 0.5327097917	-0.4520912555	-2.0595657101	 0.103028
H	 1.9071208541	-0.4795094691	-0.9392058574	 0.088902
243.489	245.8675	271.9859	295.4443	308.3825	412.9053	444.9092	467.3449	528.8403	561.1449	602.3001	700.3804	801.1437	842.3066	846.7595	953.364	963.2582	964.7131	977.6845	1006.8789	1025.0055	1107.0885	1109.8033	1149.133	1174.383	1174.7747	1224.2828	1226.8207	1238.0441	1255.9395	1309.8405	1336.0198	1384.7405	1395.5065	1482.239	1491.8651	1498.5726	1537.5009	3037.0234	3043.7305	3049.9196	3058.2904	3084.1126	3101.0278	3127.548	3134.3876	3799.1118	3799.6145
OC12CC(O)(C1)CC2	O[C@@]12C[C@@](O)(C1)CC2	
InChI=1S/C6H10O2/c7-5-1-2-6(8,3-5)4-5/h7-8H,1-4H2	InChI=1S/C6H10O2/c7-5-1-2-6(8,3-5)4-5/h7-8H,1-4H2/t5-,6+
