19
gdb 68941	2.55333	1.60446	1.34338	2.9961	80.69	-0.2414	-0.0232	0.2181	1037.9469	0.158592	-385.866519	-385.85827	-385.857326	-385.899008	32.017	
C	 0.1795816384	 1.4450914276	 0.1896084104	-0.491055
C	 0.012565909	-0.0392631959	 0.0292466339	 0.299486
C	 1.1275442632	-0.9339031931	-0.3910883533	-0.376362
C	 0.5670629839	-1.1654412522	 1.0009820896	 0.199218
C	 1.3590065818	-0.8821962985	 2.2033711154	 0.062368
O	 2.3752615085	-0.2200037327	 2.2210398246	-0.283197
C	-0.7701276085	-1.8629015553	 0.9377958292	-0.144081
C	-1.8870881031	-0.948610649	 1.373231599	-0.293271
C	-1.308322347	-0.7802423266	-0.0060568778	-0.105836
H	 1.1643241995	 1.679610582	 0.6044691901	 0.149737
H	 0.090632886	 1.951722254	-0.7787078432	 0.124501
H	-0.5817625566	 1.8622855422	 0.8565432871	 0.120542
H	 0.9635905388	-1.7075287615	-1.1361986659	 0.112183
H	 2.1150457231	-0.4835427369	-0.4003786674	 0.140012
H	 0.9363812789	-1.3050465307	 3.143051902	 0.070311
H	-0.9093594846	-2.9341236736	 0.8456606223	 0.093134
H	-2.8732983811	-1.4016998547	 1.4122333475	 0.115422
H	-1.7128660209	-0.1963710345	 2.1376616761	 0.113242
H	-1.9097606892	-0.9262889507	-0.8964495795	 0.093646
111.0424	162.3535	200.995	202.5654	230.6005	304.6986	396.1845	477.3174	501.12	540.3226	639.2437	695.7384	735.797	784.9438	823.352	868.5404	929.149	974.8683	986.0583	989.506	1008.0367	1040.5741	1056.2192	1075.0604	1088.812	1095.5395	1112.7852	1150.5097	1179.223	1251.0145	1272.0312	1337.8904	1344.9358	1364.5044	1418.1336	1432.3159	1479.4524	1487.3087	1492.0817	1495.0761	1781.3665	2871.4681	3028.1788	3089.0767	3113.4078	3115.8512	3117.6476	3168.2058	3176.7114	3202.5195	3213.4826
CC12CC1(C=O)C1CC21	C[C@@]12C[C@]1(C=O)[C@H]1C[C@@H]21	
InChI=1S/C8H10O/c1-7-3-8(7,4-9)6-2-5(6)7/h4-6H,2-3H2,1H3	InChI=1S/C8H10O/c1-7-3-8(7,4-9)6-2-5(6)7/h4-6H,2-3H2,1H3/t5-,6+,7+,8+/m1/s1
