14
gdb 45838	2.43719	1.81637	1.11847	2.6953	66.59	-0.2736	-0.032	0.2416	1016.5567	0.102933	-470.049854	-470.042422	-470.041477	-470.082523	27.181	
N	-0.2425065497	 1.374747218	 0.2901475397	-0.468687
C	-0.0528272886	 0.1870854678	-0.0756343089	 0.399208
C	-1.11249134	-0.8747651814	 0.0108168326	-0.253137
N	-1.5652328389	-1.3345256428	-1.2986022175	-0.218373
C	-0.7227796902	-1.9124889391	-2.0438057651	 0.100161
N	 0.6376848316	-2.1215216664	-1.8127466483	-0.374917
C	 1.5776417797	-1.3929976118	-1.0965585041	 0.468064
O	 2.723781641	-1.7387574464	-1.0311575708	-0.346088
O	 1.1953530571	-0.2006828335	-0.5567650461	-0.24479
H	 0.5950816587	 1.9426456311	 0.1494791688	 0.238969
H	-0.7220826804	-1.7239333339	 0.5936702901	 0.131368
H	-1.9559268878	-0.4438460228	 0.5483216235	 0.154231
H	-1.0570109067	-2.3484739048	-2.9853467116	 0.136684
H	 1.0840349441	-2.8588767942	-2.3405384023	 0.277307
64.9929	100.8482	166.8528	315.6423	382.0839	411.4934	501.5968	539.9704	571.1402	628.945	663.8254	733.7645	819.3927	885.9749	916.2371	952.421	960.8422	989.6471	1035.7214	1085.5792	1148.7756	1206.3304	1268.1705	1350.9058	1354.1312	1430.4821	1480.5398	1486.6679	1753.2509	1768.7492	1854.283	2992.0567	3135.0822	3142.2101	3477.6489	3606.2909
N=C1CN=CNC(=O)O1	[NH][C]1CN=CNC(=O)O1	
InChI=1S/C4H5N3O2/c5-3-1-6-2-7-4(8)9-3/h2,5H,1H2,(H,6,7,8)	InChI=1S/C4H5N3O2/c5-3-1-6-2-7-4(8)9-3/h2,5H,1H2,(H,6,7,8)
