17
gdb 128106	1.97513	1.78559	1.00201	1.9682	71.74	-0.2322	0.0047	0.2369	1175.5494	0.135451	-455.136458	-455.127321	-455.126377	-455.170863	32.765	
C	 0.2169446478	 1.4233728708	 0.2601551137	-0.329563
N	 0.0540538167	-0.0038535733	-0.0496058849	-0.398092
C	-1.2784153775	-0.4699856384	 0.0081876625	-0.062477
C	-1.8435001322	-1.2546095361	 0.970368728	 0.430719
C	-1.2826316418	-1.8633731604	 2.2019334438	-0.493451
O	-3.1392407218	-1.4776155482	 0.6879533786	-0.230347
N	-3.4738773115	-0.8328023621	-0.5170058829	-0.26573
C	-2.3682195854	-0.2451059679	-0.8919539754	 0.416533
O	-2.2823752513	 0.479261945	-2.0209544486	-0.425142
H	 1.2748260342	 1.6867038702	 0.170086409	 0.119734
H	-0.3678892964	 2.0891820875	-0.3916823189	 0.118516
H	-0.0901377914	 1.6034917491	 1.294456121	 0.127693
H	 0.4511543545	-0.197147465	-0.9627826408	 0.233946
H	-1.7423945729	-1.4404673874	 3.1016122608	 0.145897
H	-1.4563957065	-2.9439567294	 2.2185640479	 0.147251
H	-0.208030179	-1.6718182123	 2.2295510596	 0.15356
H	-3.1487770456	 0.4603462877	-2.4493526534	 0.310953
43.4168	139.1569	148.9083	178.7758	191.6443	256.0863	276.4237	369.9606	412.2313	483.9898	536.5681	580.7754	630.698	691.714	737.7191	785.7361	821.4062	937.5293	1006.0831	1046.0336	1067.9664	1070.1966	1156.8478	1178.1299	1220.1772	1272.1741	1340.1005	1408.8798	1454.2827	1468.4258	1478.6533	1482.9394	1491.7292	1515.5857	1531.502	1574.5512	1701.0733	2993.8773	3040.7841	3077.6695	3098.5092	3115.0599	3140.1568	3523.5946	3778.4032
CNC1=C(C)ON=C1O	CNc1c(C)onc1O	
InChI=1S/C5H8N2O2/c1-3-4(6-2)5(8)7-9-3/h6H,1-2H3,(H,7,8)	InChI=1S/C5H8N2O2/c1-3-4(6-2)5(8)7-9-3/h6H,1-2H3,(H,7,8)
