16
gdb 67615	2.74552	2.22068	1.70075	1.2598	65.2	-0.2308	0.0699	0.3007	821.6662	0.127413	-437.832461	-437.826485	-437.825541	-437.862443	25.727	
O	-0.0560025949	 1.3492316599	 0.0932458887	-0.471419
C	 0.0529705515	-0.0296288037	 0.0425745198	 0.353096
C	-0.3535141887	-0.9049866531	-1.1209372391	-0.015666
O	 0.4904911172	-2.0292242878	-1.2003534861	-0.236047
C	 0.7764283946	-2.2149231415	 0.1544267331	 0.097658
C	-0.5154557408	-2.059115786	 1.0400350189	-0.065678
N	 0.363095668	-1.4001007193	 2.0497653607	-0.308762
C	 1.0802802466	-0.8521774167	 0.8663784062	-0.145917
C	-1.1506156646	-0.9489989701	 0.1759770113	-0.174719
H	 0.6159112359	 1.7277214728	-0.484942507	 0.289097
H	-0.7378840486	-0.5464725828	-2.0673015051	 0.111531
H	 1.4362338349	-3.0590962702	 0.3267931355	 0.103358
H	-1.1399522179	-2.8892929043	 1.3663986591	 0.075389
H	-0.118292119	-0.6793403415	 2.5883759731	 0.2172
H	 2.076678686	-0.4336995749	 1.0094148231	 0.06928
H	-2.1731361101	-0.6072943708	 0.2544855677	 0.1016
237.2066	323.0128	325.3762	484.5237	490.7139	597.6086	604.2811	695.5129	727.6622	760.2597	811.8757	840.7187	852.852	895.9639	919.8629	934.9924	956.0282	964.3733	998.1851	1021.0821	1058.1982	1074.8133	1096.3196	1122.5651	1156.1908	1183.5897	1208.2352	1224.7466	1243.3238	1279.693	1293.0305	1316.4226	1329.3739	1349.5997	1449.9159	3118.4203	3130.7515	3184.5903	3203.3678	3221.1229	3449.2854	3792.0472
OC12C3OC4C(NC14)C23	O[C@@]12[C@H]3O[C@@H]4[C@@H](N[C@H]14)[C@@H]23	
InChI=1S/C6H7NO2/c8-6-1-2-3(4(6)7-2)9-5(1)6/h1-5,7-8H	InChI=1S/C6H7NO2/c8-6-1-2-3(4(6)7-2)9-5(1)6/h1-5,7-8H/t1-,2+,3-,4+,5+,6-/m1/s1
