14
gdb 50482	4.35943	0.97421	0.87641	3.3674	70.6	-0.252	-0.0619	0.1901	1257.8409	0.101475	-432.89055	-432.8825	-432.881556	-432.924092	28.278	
O	-0.8574082592	 0.9405567504	 0.4985483566	-0.231214
C	 0.1068394089	 0.9865247716	-0.2183127685	 0.15546
C	 1.3303304124	 1.8568198934	 0.0557085952	-0.075903
C	 1.3531112914	 2.4913049472	 1.4726530698	-0.205985
N	 2.720043189	 2.1646604745	 1.9067985881	-0.353021
C	 3.2081424152	 1.237141622	 1.0101165972	 0.289654
N	 2.5443442699	 1.0267028779	-0.0668013091	-0.311827
C	 4.4576280513	 0.58260482	 1.2941994573	 0.269692
N	 5.4564365298	 0.06795334	 1.5628648266	-0.309709
H	 0.1851186022	 0.3853763136	-1.1469428072	 0.111416
H	 1.3535534461	 2.6183559598	-0.738243463	 0.122604
H	 1.1943605469	 3.5713774106	 1.4593396693	 0.130559
H	 0.5904292886	 2.0305098674	 2.1104182436	 0.143354
H	 2.9296413874	 2.0604976514	 2.8886103939	 0.264921
51.8216	123.4805	146.9728	160.9712	253.9186	345.3898	448.2172	476.1004	559.7299	570.8957	644.7031	702.9654	725.8212	834.5831	935.0323	990.148	1021.814	1039.3641	1084.5021	1095.0825	1200.0039	1242.8676	1268.3912	1299.889	1350.9691	1405.4481	1464.6855	1531.4185	1662.2081	1834.5353	2368.5426	2934.7635	2997.8049	3047.7083	3104.9166	3616.8965
O=CC1CNC(=N1)C#N	O=C[C@H]1CN[C]([N]1)C#N	
InChI=1S/C5H5N3O/c6-1-5-7-2-4(3-9)8-5/h3-4H,2H2,(H,7,8)	InChI=1S/C5H5N3O/c6-1-5-7-2-4(3-9)8-5/h3-4H,2H2,(H,7,8)/t4-/m1/s1
