18
gdb 75821	2.60946	1.64667	1.23	2.3068	72.48	-0.2577	0.0112	0.2689	1050.1569	0.147646	-439.089458	-439.08116	-439.080216	-439.122155	32.085	
C	-0.4316672068	 1.4669722638	 0.0247893765	-0.493803
C	 0.0355195617	 0.0327211486	 0.0132610819	 0.31629
C	-0.6032236435	-1.0029092577	 0.9230240007	-0.352874
C	 0.8274264086	-0.5972901724	 1.126900444	 0.036706
O	 1.8054118867	-1.4908030894	 0.6009956616	-0.229709
C	 1.6235375218	-1.5985599236	-0.7413696603	 0.376904
N	 2.1277912319	-2.4699108893	-1.5011864261	-0.555833
C	 0.6584202976	-0.53045136	-1.2521457303	-0.029984
O	-0.2677059427	-1.0751946405	-2.162165868	-0.434714
H	 0.3613203572	 2.1453050117	-0.3098263314	 0.122053
H	-1.290289788	 1.5989457962	-0.6419768474	 0.139903
H	-0.7387945279	 1.7777864441	 1.0281895597	 0.116875
H	-1.3353563203	-0.6435865325	 1.6380823021	 0.120872
H	-0.8013585715	-1.9921620863	 0.524116399	 0.135419
H	 1.1814036551	-0.0784682183	 2.008447402	 0.113401
H	 2.7017975767	-3.1404817924	-0.9901091272	 0.231499
H	 1.2510992823	 0.265870765	-1.7345522315	 0.090411
H	 0.2093997711	-1.7749643572	-2.6308793952	 0.296584
74.9783	187.2948	197.7415	233.4986	278.7312	297.3579	407.6106	447.0128	473.5652	500.8092	558.6016	654.9569	696.7682	752.4696	849.4849	881.3771	890.9715	905.8293	967.5513	972.4543	1026.045	1042.3629	1051.5071	1097.9767	1116.5926	1132.7609	1149.3418	1226.9561	1259.7173	1291.6649	1335.3476	1360.864	1394.8928	1419.7794	1443.1543	1487.768	1488.6908	1502.2676	1780.5127	2954.992	3029.0328	3094.2529	3103.4253	3133.6956	3199.2849	3224.0352	3493.045	3739.9554
CC12CC1OC(=N)C2O	C[C@]12C[C@H]1O[C]([NH])[C@H]2O	
InChI=1S/C6H9NO2/c1-6-2-3(6)9-5(7)4(6)8/h3-4,7-8H,2H2,1H3	InChI=1S/C6H9NO2/c1-6-2-3(6)9-5(7)4(6)8/h3-4,7-8H,2H2,1H3/t3-,4-,6+/m1/s1
