19
gdb 32752	2.69152	1.32862	0.99587	1.2891	79.11	-0.1691	0.0549	0.224	1232.1327	0.159614	-419.226008	-419.216544	-419.2156	-419.260704	34.969	
C	-0.9165887046	 0.9587428423	 0.6724886754	-0.387683
C	 0.0294371629	 0.0560739961	-0.1067357575	-0.067239
O	-0.6661091309	-0.8305113036	-1.006195489	-0.289543
C	-1.2017203347	-1.9432827395	-0.4385544457	 0.270927
C	-2.4825566809	-2.2023946429	-0.0043228194	 0.170354
N	-3.54483347	-1.272885233	 0.0642583868	-0.618124
C	-2.50105685	-3.5598870667	 0.4360576917	-0.219039
C	-1.2396978904	-4.0793074321	 0.2534925897	-0.088049
N	-0.446046677	-3.0901863739	-0.2645946302	-0.296004
H	-0.34574732	 1.6150965368	 1.3381307463	 0.112819
H	-1.4970172098	 1.5870783945	-0.0103134683	 0.1185
H	-1.6116029807	 0.3707054009	 1.2775901778	 0.156398
H	 0.6920439432	 0.646770677	-0.7471908269	 0.104805
H	 0.6530244663	-0.5366925858	 0.5747230915	 0.098171
H	-3.3956045527	-0.512180905	-0.5893151649	 0.239509
H	-4.4327564643	-1.7084395633	-0.1569707896	 0.237904
H	-3.3488586198	-4.0832257083	 0.8518680542	 0.084811
H	-0.84820311	-5.0637533252	 0.4504408238	 0.113276
H	 0.4943377735	-3.1966915582	-0.6012759758	 0.258205
39.7559	92.7284	147.9857	202.0535	240.0245	250.376	278.6626	350.7173	374.3047	472.2703	482.3216	619.1994	645.9014	654.1717	702.4685	738.7966	793.1033	815.3031	838.8782	885.754	911.2617	1029.7845	1064.2851	1088.5671	1108.6863	1125.724	1190.7842	1245.4994	1256.8491	1320.5955	1339.2313	1393.9484	1413.4999	1442.2422	1485.5137	1488.0182	1495.8854	1513.9046	1519.4668	1644.3728	1670.9699	3021.612	3038.182	3079.4222	3106.9622	3129.5281	3241.4923	3271.3855	3511.6814	3598.9415	3689.2966
CCOC1=C(N)C=CN1	CCOc1c(N)cc[nH]1	
InChI=1S/C6H10N2O/c1-2-9-6-5(7)3-4-8-6/h3-4,8H,2,7H2,1H3	InChI=1S/C6H10N2O/c1-2-9-6-5(7)3-4-8-6/h3-4,8H,2,7H2,1H3
