22
gdb 96001	2.88335	1.32058	1.09549	2.482	81.17	-0.2359	0.0725	0.3085	1203.2272	0.195908	-404.329486	-404.320522	-404.319578	-404.363601	33.639	
C	 0.2597911868	 1.610883447	-0.1840803594	-0.395968
C	-0.0021881394	 0.1109607614	-0.002461188	-0.011692
C	 0.6706934211	-0.7406248334	-1.0985361593	-0.251308
C	 2.088050787	-0.9729433864	-0.5380187498	-0.064934
O	 2.0144439907	-0.7475829712	 0.8732144801	-0.280872
C	 0.6599012105	-0.5025081717	 1.2515001117	 0.107732
C	 0.6351645949	 0.3305352594	 2.5154139874	-0.013309
C	 1.6390527145	 0.1137685897	 3.5829051717	-0.245768
N	 1.6672155806	 1.3452793148	 2.7665752155	-0.321702
H	 1.3303785108	 1.8282471496	-0.2530876751	 0.121248
H	-0.2108107025	 1.9671296171	-1.106097283	 0.109843
H	-0.1386396041	 2.1951710933	 0.6491075791	 0.135657
H	-1.0824500228	-0.0660130311	 0.0223952636	 0.072437
H	 0.1472915327	-1.694662693	-1.2149445294	 0.104708
H	 0.6835219356	-0.2478364799	-2.0740952231	 0.104128
H	 2.4468096988	-1.9916952683	-0.7289989501	 0.101266
H	 2.8213074851	-0.2746031426	-0.9593704064	 0.103741
H	 0.1594683843	-1.4633895656	 1.4679066242	 0.067566
H	-0.3688666507	 0.6362997052	 2.8057974467	 0.086887
H	 1.365492967	 0.2590919586	 4.6241591938	 0.110611
H	 2.4066771132	-0.6324316618	 3.4027560992	 0.124073
H	 2.3878665962	 1.2239072387	 2.0571359206	 0.235653
61.5756	98.7717	124.9852	177.126	232.0807	247.0572	326.8417	345.7546	431.3139	604.6354	683.2929	721.1428	781.286	806.7403	850.2241	855.6218	906.4137	938.2434	957.5064	972.917	989.9172	1023.2138	1038.4804	1065.4025	1096.9591	1100.6412	1133.6038	1153.1008	1171.6023	1198.7217	1215.3381	1227.2416	1279.8221	1285.5347	1307.4782	1320.0046	1336.1763	1371.1222	1380.5961	1392.072	1416.6582	1429.3841	1490.9953	1497.0873	1503.7906	1505.6535	1531.8115	2934.7264	3018.9183	3039.9675	3043.6793	3051.7039	3062.1273	3103.7033	3104.7274	3113.3754	3119.0344	3121.583	3205.1328	3489.2595
CC1CCOC1C1CN1	C[C@H]1CCO[C@H]1[C@H]1CN1	
InChI=1S/C7H13NO/c1-5-2-3-9-7(5)6-4-8-6/h5-8H,2-4H2,1H3	InChI=1S/C7H13NO/c1-5-2-3-9-7(5)6-4-8-6/h5-8H,2-4H2,1H3/t5-,6+,7+/m0/s1
