20
gdb 6178	3.4074	1.2863	1.19417	1.1097	71.68	-0.2535	0.0717	0.3252	1137.6138	0.173358	-386.132218	-386.122357	-386.121413	-386.166712	35.765	
C	-0.3528831965	 1.4071345137	 0.1711702243	-0.406298
C	 0.1718762014	 0.0274664038	-0.2244146142	 0.095322
O	 0.9715861089	 0.0718883202	-1.4036275565	-0.428171
C	 0.9617357704	-0.5998192661	 0.9094399295	-0.002473
O	 0.2375459116	-1.0094577662	 2.0736263473	-0.302079
C	 0.932942595	-2.0182734082	 1.3081903835	 0.397958
C	 0.0532451924	-3.0368297365	 0.6172818812	-0.45643
C	 2.1455735637	-2.5972160153	 2.0071475928	-0.452085
H	 0.476458751	 2.0798192731	 0.4256543541	 0.104516
H	-0.9158039499	 1.8518649916	-0.6538537636	 0.122973
H	-1.0024204747	 1.3311879449	 1.047853008	 0.138717
H	-0.6750202067	-0.6144586794	-0.480921449	 0.09175
H	 1.6541727713	 0.7390637873	-1.2706395957	 0.278515
H	 1.8816611304	-0.0472958944	 1.134733857	 0.067792
H	-0.8589374896	-2.5877014619	 0.2228538047	 0.130055
H	 0.5922373367	-3.5147910471	-0.2074623333	 0.127456
H	-0.2385090702	-3.8199437659	 1.3256324	 0.122314
H	 1.8386198018	-3.3269554564	 2.7643623598	 0.123812
H	 2.7973343423	-3.1104883254	 1.2919343677	 0.122067
H	 2.7214300709	-1.8122930816	 2.5034084022	 0.12429
47.487	119.4748	148.7934	192.6608	207.7642	250.9024	257.0783	290.0827	367.3184	388.7431	404.0649	435.0366	502.6988	536.8602	711.9171	813.9591	882.9047	932.8212	947.6381	957.4458	1004.1065	1056.9227	1076.3703	1087.382	1147.1705	1152.9551	1178.428	1251.9919	1276.6358	1332.2899	1361.9323	1397.2229	1406.5101	1409.0858	1419.9868	1466.3057	1473.7898	1486.3021	1492.1216	1494.4036	1502.1889	1523.3557	3024.1597	3032.7067	3034.8688	3041.0632	3079.3041	3095.8304	3100.8871	3102.7326	3123.1484	3126.3994	3141.8448	3799.3049
CC(O)C1OC1(C)C	C[C@@H](O)[C@H]1OC1(C)C	
InChI=1S/C6H12O2/c1-4(7)5-6(2,3)8-5/h4-5,7H,1-3H3	InChI=1S/C6H12O2/c1-4(7)5-6(2,3)8-5/h4-5,7H,1-3H3/t4-,5-/m1/s1
