15
gdb 108745	2.72538	1.34135	0.90404	3.9452	73.59	-0.2276	-0.0636	0.164	1215.852	0.113372	-454.033002	-454.02447	-454.023525	-454.066762	30.45	
C	-0.0774444218	 1.4146410976	 0.1209052912	-0.327765
N	 0.0420056457	-0.0126312665	-0.0700924362	-0.368925
C	 0.6439810764	-0.577099271	-1.1230090228	 0.312165
C	 1.2662100771	-0.093320592	-2.2283842159	-0.418222
C	 1.729540845	-1.2322086279	-3.0279294374	 0.45204
O	 2.3242017622	-1.2651835893	-4.0774980135	-0.356893
N	 1.3355867731	-2.4074722926	-2.3148940123	-0.415369
C	 0.6771792407	-2.0941446168	-1.1587245246	 0.411608
O	 0.2073180723	-2.8273948317	-0.3171285976	-0.375298
H	 0.9096086708	 1.8902715451	 0.1793414767	 0.142924
H	-0.6320800658	 1.8786657742	-0.7042281473	 0.143082
H	-0.6122538549	 1.610170179	 1.0513164692	 0.142481
H	-0.3354998825	-0.6578033508	 0.6084157657	 0.269666
H	 1.4288239095	 0.9286638298	-2.5307087628	 0.116658
H	 1.5262682821	-3.342288187	-2.6368912222	 0.271847
78.6179	106.1178	139.033	157.3455	197.1507	330.9541	432.5585	461.0643	487.7797	528.6474	566.0325	622.8197	671.3818	735.4539	791.6142	806.6195	827.6157	921.3878	1043.4455	1124.9604	1157.4622	1180.6044	1276.5461	1283.4454	1326.4521	1365.5192	1460.859	1479.9586	1512.7933	1547.168	1709.0869	1821.7713	1853.2723	3015.601	3064.0265	3140.2106	3262.1346	3612.0518	3665.1784
CNC1=CC(=O)NC1=O	CNC1=CC(=O)NC1=O	
InChI=1S/C5H6N2O2/c1-6-3-2-4(8)7-5(3)9/h2H,1H3,(H2,6,7,8,9)	InChI=1S/C5H6N2O2/c1-6-3-2-4(8)7-5(3)9/h2H,1H3,(H2,6,7,8,9)
