23
gdb 116355	2.17728	1.37922	0.89633	1.4321	88.57	-0.2322	0.0273	0.2595	1372.9002	0.206145	-388.305996	-388.296491	-388.295547	-388.340219	36.18	
C	-0.0029287877	 1.5903034375	 0.0566923729	-0.391432
C	-0.0130939326	 0.0579601722	-0.0045049042	-0.186781
C	 0.7056054144	-0.5323059577	-1.2367673067	-0.089524
C	 2.1795936045	-0.0973278709	-1.2713487431	-0.087377
O	 2.9179907199	-0.7703222676	-2.2709900137	-0.248422
C	 3.0112044264	-2.156798523	-2.0162400684	-0.124328
C	 1.6937399494	-2.7691607677	-1.6361110032	-0.177413
C	 0.619418644	-2.0512377241	-1.3016934703	 0.321379
C	-0.7076177813	-2.7070745956	-1.0211559976	-0.484405
H	 1.0056133823	 1.9940377665	 0.1867004567	 0.122651
H	-0.4192644886	 2.0247326882	-0.8593358352	 0.116095
H	-0.6068365678	 1.9472475899	 0.8966945441	 0.113074
H	 0.4437233957	-0.3510908143	 0.9069918828	 0.097317
H	-1.053868189	-0.2817632696	-0.0015820663	 0.100815
H	 0.2081067188	-0.1269559135	-2.1326544398	 0.081769
H	 2.2701980226	 0.9675151407	-1.4991008673	 0.106225
H	 2.6316183653	-0.2697369788	-0.277925259	 0.081192
H	 3.3900695329	-2.6122258142	-2.9393505829	 0.113018
H	 3.7677589279	-2.3556364799	-1.2328321191	 0.091238
H	 1.6411649583	-3.8555191455	-1.6686172525	 0.079413
H	-0.6617134174	-3.7818207685	-1.2160074543	 0.117484
H	-1.0285354204	-2.5675707535	 0.0176024551	 0.126542
H	-1.4999852775	-2.2836053607	-1.6522726282	 0.12147
73.1751	98.6274	188.5495	212.1266	225.4853	262.6515	305.7613	313.7951	347.4291	425.2252	439.9631	507.345	565.218	727.9097	742.1319	790.1662	828.8001	901.2583	934.9519	960.8554	1010.5182	1017.4534	1041.7823	1049.8679	1061.7457	1094.1501	1123.7142	1141.315	1175.2866	1203.5096	1248.7455	1273.1221	1297.6333	1334.0546	1335.6405	1358.7766	1382.2726	1385.8757	1411.0741	1414.9089	1423.9752	1479.1738	1488.5703	1491.1634	1495.8119	1498.0708	1503.7241	1509.9142	1736.7992	2918.752	2944.7837	2975.0347	3018.0136	3019.92	3033.511	3044.6853	3065.6787	3070.6122	3091.1177	3099.0238	3109.0958	3110.6659	3146.4176
CCC1COCC=C1C	CC[C@H]1COCC=C1C	
InChI=1S/C8H14O/c1-3-8-6-9-5-4-7(8)2/h4,8H,3,5-6H2,1-2H3	InChI=1S/C8H14O/c1-3-8-6-9-5-4-7(8)2/h4,8H,3,5-6H2,1-2H3/t8-/m0/s1
