13
gdb 19814	4.31467	2.1478	1.90729	4.4204	56.81	-0.2464	0.0174	0.2638	703.7946	0.096422	-398.557464	-398.551654	-398.550709	-398.587283	22.87	
O	-0.0346370341	 0.0333635625	 0.1739691488	-0.34809
C	 0.0001185577	 1.2247538632	 0.0659930653	 0.434082
N	-0.9990559378	 2.1910444263	-0.0027741923	-0.310975
C	-0.0901431019	 3.3309926805	-0.0110611976	-0.024556
C	 0.4518091357	 3.8462038942	 1.3689311702	-0.002085
O	 0.5078073195	 2.7308319761	 2.2548281281	-0.222446
C	 1.571804177	 2.893800142	 1.3137524362	 0.031341
C	 1.0972484015	 2.3221704304	-0.0522124144	-0.250754
H	-1.9397534794	 2.1219273447	 0.3609483169	 0.252383
H	-0.2531181027	 4.0830368271	-0.7823525177	 0.097661
H	 0.366297496	 4.8344005863	 1.8058313219	 0.114577
H	 2.5805061962	 2.9474796412	 1.703567915	 0.119649
H	 1.8147438624	 2.2909243555	-0.8680902905	 0.109214
143.3112	255.7902	372.0264	470.1091	493.8625	611.5344	699.1269	732.9468	778.4387	812.2388	844.9104	871.7134	893.5835	928.45	987.7937	1003.4534	1018.0261	1053.1742	1122.8254	1133.1656	1191.0083	1208.4248	1236.9552	1256.2659	1306.9396	1349.0584	1381.9776	1904.2604	3121.0461	3160.5374	3183.4811	3204.6162	3593.1472
O=C1NC2C3OC3C12	O=C1N[C@H]2[C@H]3O[C@H]3[C@@H]12	
InChI=1S/C5H5NO2/c7-5-1-2(6-5)4-3(1)8-4/h1-4H,(H,6,7)	InChI=1S/C5H5NO2/c7-5-1-2(6-5)4-3(1)8-4/h1-4H,(H,6,7)/t1-,2+,3-,4+/m0/s1
