15
gdb 19237	3.18945	2.01967	1.56643	4.9832	64.64	-0.2762	0.0205	0.2967	836.4334	0.118586	-362.637604	-362.630352	-362.629407	-362.669138	26.776	
C	-0.1151300194	 1.5719673868	-0.1290785055	-0.411257
C	 0.012406163	 0.0608844567	-0.0325006908	-0.028664
C	 0.6964089807	-0.671844607	-1.2000625587	 0.025269
O	 2.0467114651	-0.1992251315	-1.267359339	-0.226636
C	 1.7444291492	-1.2295374446	-0.334450795	 0.021928
C	 1.1326982888	-0.5626651025	 0.9173283891	-0.213129
C	 1.9876095537	 0.3405609336	 1.6692986181	 0.297822
N	 2.6574312598	 1.0655438311	 2.2711863602	-0.332035
H	 0.836046385	 2.0200063021	-0.4258408327	 0.152362
H	-0.8729297381	 1.8428137545	-0.8715986586	 0.119707
H	-0.4122573805	 2.0049866051	 0.8306131411	 0.132688
H	-0.9463401428	-0.4047627579	 0.2130802378	 0.09312
H	 0.2588151472	-1.0560254215	-2.1136460632	 0.116587
H	 2.3161889715	-2.148027109	-0.3836662483	 0.122967
H	 0.6954367667	-1.299262716	 1.5962779056	 0.129272
110.6608	135.1974	217.1161	220.4858	311.4034	390.979	514.8291	547.5608	646.8179	721.0157	780.6584	853.7466	860.9039	891.478	897.9627	992.9114	1015.856	1049.7882	1069.6006	1106.678	1117.9355	1182.7218	1234.5242	1243.7389	1270.322	1326.695	1355.042	1392.5848	1413.0843	1488.9217	1500.3016	2356.0926	3042.3799	3068.8995	3087.354	3108.7733	3132.8856	3190.0787	3205.2365
CC1C2OC2C1C#N	C[C@H]1[C@H]2O[C@H]2[C@H]1C#N	
InChI=1S/C6H7NO/c1-3-4(2-7)6-5(3)8-6/h3-6H,1H3	InChI=1S/C6H7NO/c1-3-4(2-7)6-5(3)8-6/h3-6H,1H3/t3-,4+,5-,6+/m1/s1
