17
gdb 54132	2.86478	1.23613	1.09392	6.3777	70.28	-0.2379	0.009	0.247	1156.1682	0.135141	-455.182135	-455.173073	-455.172128	-455.215987	33.647	
C	-0.363696678	 1.720334912	-0.1143648005	-0.437889
C	 0.0378342795	 0.2536558416	-0.0545467514	 0.193113
C	 0.8631881868	-0.292742701	-1.2724419436	-0.399618
C	 1.8875531597	-0.4768182775	-0.1859497195	 0.416359
N	 3.1307515597	-1.0042911514	-0.2207783375	-0.582804
H	 3.6050589242	-1.0944306496	-1.1024197505	 0.269225
H	 3.7097860676	-0.911264135	 0.5995468033	 0.270154
N	 1.2169930378	-0.0344146237	 0.8360909622	-0.365698
C	-1.1708571688	-0.6152170441	 0.3100136689	 0.393667
O	-2.1743896257	-0.6646772493	-0.3505938335	-0.351359
O	-1.0145214171	-1.314450044	 1.4458893539	-0.371141
H	 0.4793984135	 2.334625618	-0.4443065176	 0.111429
H	-1.2007968148	 1.8502187478	-0.8051940793	 0.144907
H	-0.6724627577	 2.0709610016	 0.8753477298	 0.132527
H	 0.4858237661	-1.2055589836	-1.7394840644	 0.143945
H	 1.1003984583	 0.4417977316	-2.0470016935	 0.124967
H	-0.116994541	-1.1067720832	 1.7744160233	 0.308217
59.2924	101.2132	205.6803	235.9844	247.0102	288.9886	302.2059	374.0505	398.5792	433.4971	487.5334	561.0542	572.331	689.8442	749.6696	764.1362	784.1823	866.4494	912.9537	940.3342	967.6184	1080.8622	1095.5465	1146.4354	1163.1836	1179.2678	1238.951	1264.3181	1396.7976	1405.6012	1439.256	1474.3081	1485.5698	1493.1365	1617.4861	1693.6461	1861.2986	3039.6891	3063.7589	3110.7909	3121.4327	3128.5412	3560.0282	3595.875	3721.8679
CC1(CC(=[NH2+])N1)C([O-])=O	C[C@]1(C[C](N)[N]1)C(=O)O	
InChI=1S/C5H8N2O2/c1-5(4(8)9)2-3(6)7-5/h2H2,1H3,(H2,6,7)(H,8,9)	InChI=1S/C5H8N2O2/c1-5(4(8)9)2-3(6)7-5/h2H2,1H3,(H2,6,7)(H,8,9)/t5-/m0/s1
