21
gdb 82398	2.20017	1.79019	1.18002	2.8663	81.29	-0.235	-0.0108	0.2242	1116.4454	0.183921	-387.117603	-387.109105	-387.10816	-387.150818	32.999	
C	-0.1915184252	 1.5373456594	-0.0122187719	-0.390563
C	 0.0815505602	 0.0327617003	 0.0169108022	-0.100794
C	 0.7430956256	-0.4759986196	-1.2633012756	-0.017418
C	 2.1823847218	-0.1377561986	-1.5562179384	-0.287244
C	 1.799714831	-1.5622406495	-1.2264171582	-0.03892
C	 2.2388487824	-2.1784496421	 0.10207703	-0.235672
C	 1.269534154	-1.8625047568	 1.2634036078	-0.287449
C	 0.8739677815	-0.3956123517	 1.2537353209	 0.369849
O	 1.1575630614	 0.3688264244	 2.1475278235	-0.315271
H	 0.742834738	 2.0992151336	-0.0952239744	 0.125693
H	-0.8238579046	 1.7965367522	-0.8670443023	 0.104622
H	-0.6905749121	 1.8605341305	 0.9041633433	 0.126694
H	-0.8787906421	-0.5000453636	 0.1108421866	 0.093406
H	 0.0754561611	-0.4848916722	-2.1206609714	 0.085342
H	 2.4656497942	 0.1082628841	-2.5735751228	 0.110669
H	 2.7340085626	 0.4129704534	-0.7985176661	 0.120396
H	 1.7900624424	-2.2509969397	-2.0653441546	 0.086449
H	 2.3186622781	-3.2648205523	-0.0023034905	 0.106728
H	 3.2411437377	-1.8227313643	 0.3663038577	 0.116361
H	 0.3584865289	-2.4615027343	 1.1375245049	 0.11123
H	 1.7139436932	-2.1059159734	 2.2309625095	 0.115892
60.4974	123.2088	192.5636	204.1421	271.9141	343.1011	382.8256	417.6268	480.7206	537.0559	610.3437	675.1724	760.4061	778.5457	815.891	840.3774	857.7651	927.7776	944.4772	985.5337	1005.5641	1043.1508	1066.4965	1082.575	1106.5131	1128.3368	1137.0729	1147.0533	1164.2933	1224.9978	1238.1489	1238.4461	1303.618	1327.5581	1331.176	1370.8228	1380.4054	1407.485	1417.6224	1473.4411	1488.7647	1492.245	1493.5567	1504.0401	1811.1845	2976.5754	3029.1662	3038.5797	3045.9011	3077.9891	3111.9041	3115.0417	3119.7585	3128.8629	3134.8166	3151.6525	3207.0483
CC1C2CC2CCC1=O	C[C@H]1[C@H]2C[C@H]2CCC1=O	
InChI=1S/C8H12O/c1-5-7-4-6(7)2-3-8(5)9/h5-7H,2-4H2,1H3	InChI=1S/C8H12O/c1-5-7-4-6(7)2-3-8(5)9/h5-7H,2-4H2,1H3/t5-,6+,7+/m0/s1
