15
gdb 131943	2.81157	1.66665	1.05323	4.7537	75.35	-0.2437	-0.0719	0.1718	1062.1159	0.113642	-453.902298	-453.89464	-453.893696	-453.934848	28.138	
C	-0.0325769993	 1.4807264475	 0.0215039848	-0.325841
N	-0.0107143275	 0.022285757	 0.0524815058	-0.074213
C	-0.0264321946	-0.7632387712	-1.0596041571	-0.069337
C	 0.0019778986	-2.0984878749	-0.6897365073	-0.165837
C	 0.0367607322	-2.1377205207	 0.7134211789	-0.183249
C	 0.0281571727	-0.8223928958	 1.1452850934	 0.396226
N	 0.0544896838	-0.3691957872	 2.491360118	 0.342175
O	 0.0881366835	-1.2286402378	 3.3681309769	-0.373029
O	 0.0423610254	 0.8474572717	 2.7030777955	-0.401738
H	 0.8568534697	 1.8915823706	 0.4999773358	 0.163238
H	-0.0633118054	 1.7859763406	-1.0258125469	 0.131628
H	-0.9083320595	 1.8660214011	 0.5443669533	 0.163282
H	-0.056911019	-0.3095630765	-2.0380874728	 0.138178
H	-0.0022806367	-2.9395399044	-1.364579129	 0.117072
H	 0.0650969261	-2.99488427	 1.3648306907	 0.141446
71.6208	167.3672	194.5757	227.7106	244.7527	362.9325	445.3464	554.9478	610.2093	618.4956	704.0367	752.6977	767.1067	833.2898	837.0405	891.7925	899.3932	1038.3979	1070.6592	1115.5037	1152.8639	1185.3544	1257.1243	1324.7856	1398.9216	1401.1855	1437.1313	1460.3307	1474.0788	1508.3515	1530.0254	1559.4243	1602.9419	3068.9363	3151.1614	3153.5361	3251.8621	3269.1421	3287.9066
CN1C=CC=C1N(=O)=O	Cn1cccc1N(=O)=O	
InChI=1S/C5H6N2O2/c1-6-4-2-3-5(6)7(8)9/h2-4H,1H3	InChI=1S/C5H6N2O2/c1-6-4-2-3-5(6)7(8)9/h2-4H,1H3
