17
gdb 71367	3.00921	1.99872	1.60993	2.4375	69.97	-0.2529	0.0686	0.3215	862.4413	0.137849	-421.758802	-421.75258	-421.751636	-421.788928	27.015	
O	 0.1124670013	 1.3463373877	 0.1023253801	-0.479961
C	 0.0662154086	-0.0229155567	 0.0483778502	 0.446276
C	 0.6819241575	-0.9728249411	 1.0863031267	-0.293677
C	 0.0308443647	-1.8906917018	 0.0207965011	-0.078564
C	-1.2165864857	-0.9348971221	-0.0300049755	-0.134356
C	-1.7091307918	-0.8731112982	-1.4674776417	 0.015498
O	-1.2690570114	 0.315632737	-2.173838164	-0.281665
C	-0.4565090315	-0.8856888761	-2.2220576145	 0.015499
C	 0.5830269911	-0.9529675938	-1.1140954495	-0.134356
H	-0.3596679723	 1.6483125974	-0.686416119	 0.291943
H	 1.7731990141	-0.9884723087	 1.1478409196	 0.097565
H	 0.2260678801	-0.9729360127	 2.0798360475	 0.097565
H	 0.0119869868	-2.9787697999	 0.0076329546	 0.083609
H	-1.9279994769	-0.9314910053	 0.7957142424	 0.072094
H	-2.6480922104	-1.296430125	-1.8070712863	 0.105218
H	-0.3240946319	-1.3197591587	-3.2070551948	 0.105218
H	 1.6454532575	-0.967369902	-1.3569423567	 0.072094
234.7221	275.316	399.8622	434.5407	453.292	526.5206	540.3595	662.7361	734.7987	745.1143	762.2414	813.6153	816.0896	869.2097	913.1604	921.6451	954.3227	956.6899	987.9871	1014.8033	1021.2045	1030.3204	1051.3977	1105.8357	1120.7784	1139.6684	1177.7011	1186.3447	1207.9351	1241.2513	1266.6578	1288.8937	1309.7434	1344.5719	1385.9703	1427.4456	1523.292	3054.7182	3116.7046	3120.6306	3120.6733	3138.2574	3171.9517	3184.0409	3755.8858
OC12CC3C1C1OC1C23	O[C@@]12C[C@H]3[C@@H]1[C@H]1O[C@H]1[C@@H]23	
InChI=1S/C7H8O2/c8-7-1-2-3(7)5-6(9-5)4(2)7/h2-6,8H,1H2	InChI=1S/C7H8O2/c8-7-1-2-3(7)5-6(9-5)4(2)7/h2-6,8H,1H2/t2-,3+,4-,5+,6-,7-
