21
gdb 113206	3.16894	0.96496	0.84093	2.8283	79.49	-0.2586	0.0755	0.334	1431.6337	0.180529	-424.183095	-424.17319	-424.172246	-424.218144	36.288	
C	-0.034952472	 1.8252207941	 0.1156676639	-0.47037
C	-0.0554582738	 0.3093897885	 0.0229339478	 0.27406
C	 1.207261605	-0.4459347363	-0.3105620968	-0.32916
C	 0.6077795483	-0.5655728307	 1.0702435081	-0.011094
C	 1.3127922751	-0.0214784596	 2.2839321695	-0.112498
O	 2.2661614201	-0.9924676305	 2.7003968032	-0.416688
C	-1.3510272438	-0.2082335256	-0.5397064316	 0.021862
C	-1.5255588199	-0.5314362318	-1.9626648332	-0.178897
O	-1.3915797794	-1.5640800883	-0.9799005108	-0.236107
H	 0.9190702511	 2.2002354644	 0.4923660644	 0.1215
H	-0.1955354581	 2.2706214404	-0.8729213343	 0.119322
H	-0.8258831091	 2.1985215276	 0.7774134711	 0.116468
H	 1.1305611097	-1.3090677747	-0.9613805107	 0.12634
H	 2.1201209457	 0.1317867423	-0.4157306859	 0.105412
H	 0.0980629495	-1.5058431163	 1.2629997667	 0.104291
H	 1.8054046499	 0.9348337413	 2.0517010972	 0.079176
H	 0.5806615036	 0.1758260434	 3.0842374598	 0.084868
H	 2.6597556292	-0.6879559327	 3.5236117471	 0.283925
H	-2.2410954833	 0.0985049711	 0.0155959819	 0.087803
H	-2.5084954152	-0.4548869569	-2.4248200106	 0.114454
H	-0.6786079725	-0.4249449896	-2.6384791867	 0.115333
71.6989	80.0022	145.5359	158.938	198.4631	241.3747	263.6242	282.7633	332.215	356.5813	431.3977	510.8304	590.0468	676.3702	833.6222	857.3392	881.3057	896.0821	923.3906	935.0273	976.7824	1035.5267	1047.0101	1073.928	1084.8075	1095.0111	1117.8917	1138.2073	1154.0719	1172.5571	1176.4167	1248.0281	1255.9325	1284.5445	1290.0104	1324.3197	1404.6071	1415.4108	1432.6098	1466.005	1485.6094	1491.7227	1512.1357	1517.9972	1525.1477	2962.4256	2995.4314	3025.4858	3074.0712	3079.9848	3086.9902	3119.9244	3133.1011	3149.2757	3175.2118	3224.4961	3823.6954
CC1(CC1CO)C1CO1	C[C@]1(C[C@H]1CO)[C@H]1CO1	
InChI=1S/C7H12O2/c1-7(6-4-9-6)2-5(7)3-8/h5-6,8H,2-4H2,1H3	InChI=1S/C7H12O2/c1-7(6-4-9-6)2-5(7)3-8/h5-6,8H,2-4H2,1H3/t5-,6+,7+/m0/s1
