17
gdb 30475	3.86572	1.30977	1.00991	3.4849	78.91	-0.1866	0.0243	0.2109	1169.5763	0.136721	-417.983914	-417.975803	-417.974859	-418.017084	29.645	
C	-0.078459991	 1.5125061615	 0.0066767251	-0.320409
N	 0.0101675883	 0.0649874273	-0.0641371895	-0.373221
C	-1.0534428979	-0.608195019	-0.0331236802	 0.48893
O	-2.3606732353	-0.1184379567	 0.0918316159	-0.243375
C	-3.2636678186	-1.1630593956	-0.1514034578	-0.178263
C	-2.5597231554	-2.2913028273	-0.2477286506	 0.248245
C	-2.2495942603	-3.6629500481	-0.8164884375	-0.354022
C	-0.7599904317	-3.1504612882	-0.8693021121	-0.168354
N	-1.2073442719	-1.9842659569	-0.0719027587	-0.12911
H	 0.7881862513	 1.9482125841	-0.4996545883	 0.115203
H	-0.9911068781	 1.9193231345	-0.4489644028	 0.113345
H	-0.0504702854	 1.8558850616	 1.0500584309	 0.117667
H	-4.3012031826	-0.8918097941	-0.2256873987	 0.143043
H	-2.4024850859	-4.4950515864	-0.1260716529	 0.13636
H	-2.7106712154	-3.8963923097	-1.7764506956	 0.136929
H	-0.003193158	-3.7620155916	-0.3754420409	 0.132175
H	-0.425448572	-2.8758322254	-1.8740382561	 0.134857
69.6155	107.8735	156.9105	197.4703	253.7282	297.0256	366.2852	566.9378	601.4156	670.037	688.9801	720.1519	735.5559	785.1017	834.2035	900.6758	971.7216	1023.1871	1054.352	1068.0034	1094.8393	1127.7355	1140.1136	1165.923	1189.5623	1213.4084	1237.801	1283.2725	1334.16	1362.0324	1444.7716	1478.061	1492.6965	1500.8848	1514.395	1713.238	1810.0707	2997.0646	3046.5383	3060.5186	3082.7129	3087.1816	3122.3721	3142.5174	3302.4056
CN=C1OC=C2CCN12	CN=C1O[CH][C]2CCN12	
InChI=1S/C6H8N2O/c1-7-6-8-3-2-5(8)4-9-6/h4H,2-3H2,1H3	InChI=1S/C6H8N2O/c1-7-6-8-3-2-5(8)4-9-6/h4H,2-3H2,1H3
