17
gdb 97287	1.85592	1.20196	0.77591	3.5529	81.04	-0.2502	-0.0236	0.2266	1459.9265	0.133157	-417.991372	-417.981384	-417.98044	-418.027365	34.405	
C	 0.2156261758	 1.3990840311	-0.0612418261	-0.314013
N	-0.0437154816	-0.0247591131	-0.0519832027	-0.227873
C	 0.6454201476	-0.751221518	-0.8219137266	 0.126913
N	 0.5058424594	-2.1407190109	-0.8950339196	-0.114751
C	 1.2653841242	-2.8863088152	-1.9050710078	-0.332039
C	 2.7102698939	-2.7275709784	-1.7728854504	 0.305182
C	 3.8989722595	-2.5838565029	-1.6768944745	-0.445849
C	-0.3341805322	-2.8428365668	-0.044080727	 0.169785
O	-0.4949744456	-4.0409553916	-0.0975587775	-0.322708
H	 0.9980557521	 1.7021427312	-0.7753805918	 0.101669
H	-0.7067411274	 1.9380224633	-0.305557706	 0.13245
H	 0.5175051541	 1.7239218215	 0.9409952713	 0.133566
H	 1.4208716193	-0.3722205789	-1.4999465198	 0.107172
H	 0.9755714613	-3.9325241425	-1.7737588659	 0.186773
H	 0.9459073629	-2.5796736697	-2.9088944214	 0.147798
H	 4.9513977519	-2.4717254386	-1.5864880253	 0.20921
H	-0.8286407252	-2.1771850603	 0.6755588811	 0.136715
42.2372	71.5055	107.2649	163.2706	194.0849	201.1013	285.3855	299.1712	327.5747	368.8549	399.4977	439.3596	621.6583	625.2836	675.0447	742.8328	895.1429	972.7647	980.9171	997.3072	1044.0859	1054.0598	1141.5763	1156.3303	1231.4336	1254.921	1350.399	1390.3846	1425.2159	1430.0098	1449.6182	1478.1337	1479.8257	1504.0037	1759.6274	1793.8854	2242.8892	2974.2438	3028.4466	3038.8304	3062.8413	3064.2162	3080.5559	3099.8325	3503.5494
CN=CN(CC#C)C=O	CN=CN(CC#C)C=O	
InChI=1S/C6H8N2O/c1-3-4-8(6-9)5-7-2/h1,5-6H,4H2,2H3	InChI=1S/C6H8N2O/c1-3-4-8(6-9)5-7-2/h1,5-6H,4H2,2H3
