19
gdb 111537	3.44348	1.14583	1.05504	1.9905	75.62	-0.2321	0.0682	0.3003	1205.6918	0.15842	-422.953625	-422.945208	-422.944264	-422.986935	32.461	
O	 0.0874752273	 1.2985416744	-0.3950173552	-0.419917
C	 0.041113733	 0.0210865669	 0.2267678501	-0.096909
C	-1.3391226931	-0.5907057162	 0.1467670662	-0.066456
C	-1.848375422	-1.3220451853	-1.0607329277	 0.06121
O	-0.8004572034	-2.0429224318	-1.7275586841	-0.316365
C	-0.6433386273	-2.8729034573	-0.5604958949	 0.468887
C	-0.5327261223	-4.3541128628	-0.6880058973	-0.348782
C	 0.6530534754	-3.5206134623	-0.2120600291	-0.33146
C	-1.6501636939	-2.0788590167	 0.2353785061	-0.252646
H	-0.0925069759	 1.1621306041	-1.3311255667	 0.285708
H	 0.7826988067	-0.6608566162	-0.2056884266	 0.109052
H	 0.3151381146	 0.1899139431	 1.2733754203	 0.10732
H	-2.1145140611	 0.012200582	 0.6165412316	 0.097372
H	-2.7326604665	-1.0768566254	-1.6369297582	 0.106706
H	-1.0541167595	-4.9752385899	 0.0333539093	 0.116872
H	-0.4864149524	-4.7597273581	-1.6926420037	 0.128052
H	 1.4734351062	-3.3862396427	-0.9089926804	 0.127571
H	 0.9464121968	-3.5749365933	 0.8309347932	 0.120306
H	-2.3716995427	-2.4964687824	 0.9247493173	 0.103478
61.2579	106.7344	182.7904	252.4108	274.8516	308.1416	339.5809	426.9928	543.2929	587.6224	623.9632	744.4638	754.5101	810.2236	865.7121	869.5085	883.545	931.4176	967.6489	976.4326	997.2942	1031.5697	1048.8357	1050.8379	1057.9918	1070.4164	1071.5479	1085.2797	1168.6712	1187.0025	1197.7177	1240.9212	1263.1629	1318.5354	1378.2869	1399.0245	1416.1534	1443.8526	1448.0161	1498.4587	1504.5972	3035.8241	3080.254	3128.9191	3132.1453	3134.4253	3182.2429	3202.5599	3212.9528	3226.8789	3813.069
OCC1C2OC3(CC3)C12	OC[C@H]1[C@H]2OC3(CC3)[C@@H]12	
InChI=1S/C7H10O2/c8-3-4-5-6(4)9-7(5)1-2-7/h4-6,8H,1-3H2	InChI=1S/C7H10O2/c8-3-4-5-6(4)9-7(5)1-2-7/h4-6,8H,1-3H2/t4-,5+,6-/m1/s1
