21
gdb 81707	2.0972	1.77488	1.67915	0.9509	77.2	-0.2381	0.0814	0.3194	1001.5216	0.184827	-424.216094	-424.20825	-424.207305	-424.247884	31.629	
C	-0.2065481202	 1.6462635928	-0.041596594	-0.441378
C	 0.0121726315	 0.1410120504	-0.0206339917	 0.012001
C	 0.8235586521	-0.620262523	-1.1043570887	 0.082265
C	 1.9730408531	 0.1339858157	-1.7831486016	-0.233632
C	 3.1517139361	 0.4035845472	-0.8352495716	-0.06459
O	 2.7772811032	 1.0687589084	 0.3639314244	-0.248118
C	 2.2330158492	 0.233754546	 1.3713110764	-0.098639
C	 0.9968566227	-0.5561540964	 0.9504675087	 0.070487
O	 1.3310317727	-1.5222464393	-0.0822276823	-0.303143
H	 0.7333967044	 2.1969795039	-0.0845015253	 0.145494
H	-0.8212096373	 1.932123553	-0.9029076136	 0.112577
H	-0.7469023374	 1.9652562208	 0.8568778234	 0.113464
H	-0.9547933552	-0.3637018812	 0.07154235	 0.08403
H	 0.2245225774	-1.1595887631	-1.8459451823	 0.074143
H	 2.3533258454	-0.4564836709	-2.626106964	 0.101308
H	 1.5935778971	 1.074131408	-2.2014980858	 0.106233
H	 3.651012724	-0.5450235943	-0.5975403589	 0.105808
H	 3.8775520898	 1.0589318998	-1.3273409886	 0.10055
H	 2.9895002743	-0.4876912057	 1.7222337623	 0.100969
H	 1.983952402	 0.8983967682	 2.2065271099	 0.106379
H	 0.566643605	-1.0469488902	 1.8327844133	 0.07379
182.223	185.4477	217.6493	236.7847	321.1254	337.0377	377.1074	432.697	480.096	583.1416	657.6992	733.2227	785.5731	805.9491	878.0703	888.0453	910.7562	940.0944	972.976	1014.7715	1033.7828	1047.9898	1081.0296	1095.6467	1131.5119	1166.9381	1181.7465	1202.7536	1233.3144	1263.1258	1292.693	1320.8964	1329.107	1354.9863	1367.2075	1377.8182	1384.2318	1405.1769	1414.4547	1426.5239	1471.2029	1474.0528	1490.5166	1497.545	1516.3725	2974.0359	3017.087	3025.0749	3026.8201	3032.4099	3043.2325	3059.6223	3066.5351	3068.3275	3081.9581	3085.748	3147.7753
CC1C2CCOCC1O2	C[C@H]1[C@H]2CCOC[C@@H]1O2	
InChI=1S/C7H12O2/c1-5-6-2-3-8-4-7(5)9-6/h5-7H,2-4H2,1H3	InChI=1S/C7H12O2/c1-5-6-2-3-8-4-7(5)9-6/h5-7H,2-4H2,1H3/t5-,6+,7-/m0/s1
