16
gdb 32693	4.70672	0.98839	0.85911	3.3074	78.24	-0.2468	-0.0441	0.2027	1334.0441	0.125078	-434.088542	-434.080424	-434.07948	-434.122646	29.004	
C	-0.0750411293	 1.6177808977	-0.1034142001	-0.360663
C	-0.0596265263	 0.0862058941	-0.0601267896	-0.140263
N	-1.4174337793	-0.423585432	-0.1154759058	-0.278226
C	-1.7693679327	-1.2277687443	-1.0294214456	 0.384212
N	-0.9034156021	-1.7074011977	-2.0524653274	-0.28855
C	-1.3739165236	-2.5222144641	-2.8950705022	 0.129896
O	-2.653324932	-3.0009077855	-2.9301835117	-0.186379
C	-3.4574654624	-2.4980409132	-1.9337135581	 0.122004
N	-3.1119019961	-1.6822727332	-1.0356447221	-0.263042
H	 0.9375122642	 2.0130630124	 0.0250474362	 0.108277
H	-0.4621562655	 1.9749367894	-1.0628969469	 0.115975
H	-0.7125855549	 2.019686916	 0.68877272	 0.127642
H	 0.5825661879	-0.3127050882	-0.8540117633	 0.11176
H	 0.3619076843	-0.2343739763	 0.9020535946	 0.106961
H	-0.7844299607	-2.9383497897	-3.7076900939	 0.154421
H	-4.4624811115	-2.9006276553	-2.014772974	 0.155975
33.2106	70.4655	154.2755	201.2377	284.5953	377.1985	423.5544	471.6238	523.5965	591.2005	679.2803	777.4666	801.3837	825.9694	906.1878	946.2911	955.2787	965.9988	1004.3874	1060.48	1079.5036	1124.2352	1164.8295	1248.1934	1297.5357	1374.5854	1396.4771	1403.605	1413.1774	1487.9788	1492.9844	1509.5038	1650.1159	1726.5204	1764.4569	3012.3917	3038.8911	3057.3389	3109.2698	3121.4714	3180.6822	3195.2657
CCN=C1N=COC=N1	CCN=c1ncocn1	
InChI=1S/C5H7N3O/c1-2-6-5-7-3-9-4-8-5/h3-4H,2H2,1H3	InChI=1S/C5H7N3O/c1-2-6-5-7-3-9-4-8-5/h3-4H,2H2,1H3
