17
gdb 33949	3.1504	1.47238	1.27374	5.4577	76.29	-0.2555	0.0254	0.2809	1022.0747	0.13808	-380.843949	-380.836815	-380.835871	-380.875345	28.606	
N	 0.1012859063	-1.1252454132	 0.0442602534	-0.349999
C	 0.0479287608	 0.0300404754	 0.0421922428	 0.254105
C	 0.0074777014	 1.4688331954	 0.0131665218	 0.187682
C	 0.4158741231	 2.1714292015	-1.2753455639	-0.324947
C	 1.2868742699	 2.3020917027	-0.0609828912	-0.069364
C	 1.0831400725	 3.4851821266	 0.8874323476	-0.266056
C	-0.3077860356	 3.2915022423	 1.4976259176	-0.015099
C	-1.5176671819	 3.3611047549	 0.6376764827	-0.256218
N	-0.9283606023	 2.0572881853	 0.9698325392	-0.1487
H	 0.7701021455	 1.5255101222	-2.0709368911	 0.14266
H	-0.1671904207	 3.0147730749	-1.6228807196	 0.129667
H	 2.2542567723	 1.8140420979	-0.0752499165	 0.118634
H	 1.8376974138	 3.4531224896	 1.6780681976	 0.12471
H	 1.1891050582	 4.4500331285	 0.3800307903	 0.120688
H	-0.4097673768	 3.4541397297	 2.5671880075	 0.104787
H	-2.4913287512	 3.5309158027	 1.0885173938	 0.127889
H	-1.4258242055	 3.7566936635	-0.3682331119	 0.119561
129.4094	164.5311	268.7689	284.8702	417.6663	461.4368	504.008	543.3991	604.3081	665.0157	695.2444	794.7059	825.19	838.7516	862.7351	884.9527	923.5622	956.2232	1020.5985	1048.6097	1058.0468	1086.9778	1097.9037	1112.4017	1124.6694	1162.3047	1192.5607	1225.1096	1259.1988	1288.8648	1315.6735	1369.7742	1395.7137	1472.2478	1490.3404	1526.1673	2355.9877	3051.5179	3095.4096	3120.6313	3144.0739	3148.9058	3184.4082	3202.7743	3234.3504
N#CC12CC1CC1CN21	N#C[C@]12C[C@H]1C[C@H]1CN21	
InChI=1S/C7H8N2/c8-4-7-2-5(7)1-6-3-9(6)7/h5-6H,1-3H2	InChI=1S/C7H8N2/c8-4-7-2-5(7)1-6-3-9(6)7/h5-6H,1-3H2/t5-,6+,7-,9?/m1/s1
