15
gdb 131351	5.92761	0.90455	0.78857	2.18	72.95	-0.2188	0.0274	0.2461	1357.1285	0.112828	-416.797619	-416.78927	-416.788326	-416.831649	30.948	
O	-0.6964129479	 1.1687230862	-0.5149864389	-0.430251
C	-0.1841752397	-0.0007355716	-0.0790370765	 0.437035
N	 0.7818452845	-0.6256919807	-0.7378954723	-0.344065
N	 1.0082636376	-1.7354755091	 0.0103548297	-0.256087
C	 0.2174588452	-1.8128305417	 1.1016935879	 0.421445
C	 0.2939382523	-2.958969872	 2.0774186473	-0.476046
C	 1.2973460936	-3.9567685748	 1.7191048048	 0.282921
C	 2.1302237615	-4.7625628378	 1.4007226016	-0.424784
C	-0.5877435419	-0.6883337321	 1.0852917078	-0.420728
H	-0.2283356991	 1.3936636307	-1.3289082605	 0.302305
H	 1.709296644	-2.4012219682	-0.2686555852	 0.275499
H	 0.5102502262	-2.5703733919	 3.0810864213	 0.159351
H	-0.6889876562	-3.442294089	 2.1508839444	 0.159347
H	 2.8599323292	-5.4897076744	 1.1415483383	 0.206911
H	-1.3459361195	-0.4036057837	 1.7951103503	 0.107147
19.9403	118.1395	179.5107	275.4161	319.6543	361.1059	414.5461	416.1257	487.0721	488.7965	623.5367	662.2893	663.2606	681.3047	715.6655	777.0545	778.147	949.9646	958.4986	1007.8967	1044.7112	1144.2418	1182.8165	1216.4813	1232.9796	1294.7708	1337.0187	1446.5532	1465.0394	1541.1753	1563.9913	1610.3812	2240.6205	3020.1607	3043.8778	3274.9826	3503.1347	3670.2459	3794.7747
OC1=NNC(CC#C)=C1	Oc1n[nH]c(CC#C)c1	
InChI=1S/C6H6N2O/c1-2-3-5-4-6(9)8-7-5/h1,4H,3H2,(H2,7,8,9)	InChI=1S/C6H6N2O/c1-2-3-5-4-6(9)8-7-5/h1,4H,3H2,(H2,7,8,9)
