19
gdb 19976	3.3891	1.7518	1.30243	2.0305	71.76	-0.236	0.0791	0.3151	977.1379	0.166152	-365.015193	-365.007426	-365.006482	-365.04746	29.771	
O	 0.2857766281	 0.8296899989	-0.8184286953	-0.436264
C	 0.0546770902	-0.272084162	 0.0124237627	 0.157457
C	-0.0258812826	-0.0759546005	 1.5532894998	-0.252149
C	-1.2142334849	-1.0761777113	 1.5738512274	-0.240078
C	-1.3878073767	-0.8750256736	 0.0452245746	 0.003913
N	-2.347369506	 0.1802541995	-0.2527422863	-0.08621
C	-2.9315279727	 0.165026477	-1.5928908994	-0.219394
C	-3.7403676943	-0.2298708831	-0.4084168713	-0.22323
H	-0.4713252361	 1.4157223984	-0.6907192918	 0.286074
H	 0.7940397012	-1.0326093326	-0.2553209363	 0.084787
H	 0.8621414321	-0.3165099484	 2.1417966952	 0.096241
H	-0.3491356358	 0.9395883146	 1.7961126376	 0.106445
H	-0.9022210017	-2.096310278	 1.8115608217	 0.101839
H	-2.0773025746	-0.817616318	 2.1903663002	 0.104521
H	-1.5696490005	-1.7788562984	-0.5578540319	 0.047332
H	-3.0765275041	 1.1347261746	-2.0600010333	 0.117775
H	-2.6168813199	-0.6246351452	-2.2721554584	 0.118451
H	-3.970330675	-1.2873332412	-0.2920306187	 0.113974
H	-4.4834550069	 0.4464171693	 0.0039443932	 0.118516
79.501	113.7305	171.6847	263.7703	315.9239	386.0352	430.3139	484.2382	592.5642	666.1049	740.1597	757.3286	829.4991	895.0985	904.7974	928.3644	948.8507	965.7076	1027.8008	1052.4844	1071.8474	1113.1698	1118.3193	1123.3394	1144.3806	1167.1468	1178.1155	1207.4913	1232.9752	1256.4036	1275.0734	1282.5503	1320.9275	1337.3341	1371.2369	1444.8216	1472.851	1490.7133	1491.0305	1518.3517	2962.8774	3063.6037	3067.7949	3071.7213	3099.625	3104.5998	3113.9299	3128.8671	3181.5589	3195.9232	3769.9057
OC1CCC1N1CC1	O[C@H]1CC[C@H]1N1CC1	
InChI=1S/C6H11NO/c8-6-2-1-5(6)7-3-4-7/h5-6,8H,1-4H2	InChI=1S/C6H11NO/c8-6-2-1-5(6)7-3-4-7/h5-6,8H,1-4H2/t5-,6+/m1/s1
