16
gdb 75403	2.6288	1.64919	1.1125	2.5447	72.6	-0.2631	-0.0529	0.2102	1072.0486	0.124373	-437.923621	-437.915473	-437.914529	-437.95666	29.775	
C	 0.0012924329	 1.4981072794	 0.0980567801	-0.46845
C	 0.0047632823	-0.0057333766	 0.0021986558	 0.157809
C	-1.1126699083	-0.7405192691	 0.0702156926	-0.144102
C	-1.1758647575	-2.2443304394	 0.021023201	-0.233535
N	-0.5466484751	-2.8009110798	-1.179406844	-0.215119
C	 0.6673120145	-2.5615126574	-1.3833445491	 0.129063
O	 1.5643757621	-1.8462570872	-0.6179810207	-0.223412
C	 1.3660652198	-0.603212574	-0.0392303925	 0.370768
O	 2.3361086056	-0.0460270835	 0.3929447827	-0.300849
H	 0.5678655736	 1.8270486005	 0.9736281493	 0.155407
H	 0.4852920554	 1.9495087823	-0.7747825818	 0.139355
H	-1.0197611111	 1.8797988793	 0.1666057436	 0.121784
H	-2.0599955413	-0.2163183027	 0.1736575875	 0.111102
H	-0.6990800445	-2.6751587347	 0.9143149591	 0.134824
H	-2.217920257	-2.5698180973	 0.0305991708	 0.123152
H	 1.1889978586	-2.99606471	-2.2330572147	 0.142203
69.4765	127.6855	158.6053	228.2305	300.3297	327.5933	362.6968	396.2903	501.5074	564.2062	644.208	698.3926	765.6317	823.8528	882.8349	916.4736	946.3147	986.9489	1042.3413	1064.4687	1073.8793	1097.1016	1108.0124	1220.6044	1254.9461	1371.8026	1376.8437	1410.7213	1413.1622	1471.189	1489.102	1498.0363	1714.4258	1757.2184	1827.0596	2997.0923	3042.7831	3097.9085	3103.3658	3132.1587	3156.4279	3171.3576
CC1=CCN=COC1=O	CC1=CCN=COC1=O	
InChI=1S/C6H7NO2/c1-5-2-3-7-4-9-6(5)8/h2,4H,3H2,1H3	InChI=1S/C6H7NO2/c1-5-2-3-7-4-9-6(5)8/h2,4H,3H2,1H3
