17
gdb 76013	2.5268	1.20292	1.06515	2.8364	78.82	-0.2999	-0.0125	0.2874	1195.7028	0.134666	-380.896698	-380.88717	-380.886226	-380.930962	33.916	
C	-0.1170951008	 1.5512115909	-0.0378163247	-0.428767
C	 0.0248757426	 0.0489369775	 0.0363589721	-0.044388
C	 1.3497565911	-0.655302663	-0.2079251829	-0.234092
C	 2.5466738037	 0.1066750339	-0.4237670263	 0.30559
N	 3.5062547298	 0.7298408213	-0.5953803235	-0.33426
C	 0.7118014873	-0.6499612175	 1.1997549842	 0.114556
C	 1.3580042027	 0.1205046522	 2.3406344951	-0.462627
C	 0.1394219996	-1.9157774895	 1.5949314455	 0.25454
N	-0.324072379	-2.9252088176	 1.9176254271	-0.334666
H	 0.7875858244	 2.0735774621	 0.2781484587	 0.147541
H	-0.3274854347	 1.8525839527	-1.0684749747	 0.143316
H	-0.948579869	 1.8893564485	 0.5879227808	 0.138034
H	-0.8213518756	-0.4992977763	-0.3661074924	 0.127911
H	 1.3196552461	-1.5958120134	-0.7465045446	 0.156991
H	 1.8732549838	 1.0108148495	 1.9790265338	 0.152187
H	 0.6012097734	 0.4242259759	 3.0690900446	 0.144804
H	 2.0923802546	-0.5070332075	 2.852214217	 0.15333
109.6669	127.2986	148.4298	155.5654	159.2758	179.6959	261.0255	335.3106	365.7462	430.0523	502.3706	564.1657	586.8815	602.1062	689.7931	777.2472	837.2688	943.6074	961.3973	1016.116	1031.6477	1095.7127	1120.0041	1134.5035	1154.4778	1245.3311	1294.5933	1361.2929	1408.204	1426.5306	1431.0939	1479.8573	1490.0429	1496.3212	1509.3561	2351.2688	2354.2703	3049.1672	3056.6993	3111.5195	3124.0979	3136.3113	3151.0633	3164.3341	3180.7935
CC1C(C#N)C1(C)C#N	C[C@H]1[C@@H](C#N)[C@]1(C)C#N	
InChI=1S/C7H8N2/c1-5-6(3-8)7(5,2)4-9/h5-6H,1-2H3	InChI=1S/C7H8N2/c1-5-6(3-8)7(5,2)4-9/h5-6H,1-2H3/t5-,6+,7+/m0/s1
