21
gdb 68546	2.11238	1.89945	1.57804	1.6872	81.9	-0.2292	0.0022	0.2314	1016.1521	0.180663	-387.056122	-387.04733	-387.046385	-387.088494	35.475	
C	 0.0564547102	 1.5159981619	-0.0615475865	-0.519604
C	-0.0079068873	 0.0167859431	 0.0242064767	 0.340846
O	 0.3941539631	-0.7060910537	-1.1925051604	-0.320572
C	-0.2436738803	-1.8409906978	-0.5287768001	-0.027561
C	 0.6610631658	-2.0111660892	 0.701659115	-0.089127
C	 0.8206899222	-0.7428100443	 1.0819204596	-0.127608
C	-1.3531870756	-0.8418980357	-0.012908667	 0.296812
C	-2.130439038	-1.1262359561	 1.2676645462	-0.471689
C	-2.3139730804	-0.4018848265	-1.1193286434	-0.451159
H	 1.0806522413	 1.8408017332	-0.2708885449	 0.133966
H	-0.5913626526	 1.8960136705	-0.855594698	 0.130001
H	-0.2565738776	 1.9658944372	 0.8864005593	 0.121765
H	-0.4552550549	-2.6881403173	-1.181646201	 0.071383
H	 1.0252992001	-2.9330599859	 1.1307013822	 0.108561
H	 1.3588554983	-0.3120918449	 1.9143142892	 0.105334
H	-1.4888538702	-1.4449084666	 2.0899037	 0.117784
H	-2.676949227	-0.2311979189	 1.5872402148	 0.113052
H	-2.8772328876	-1.9095649951	 1.0932022118	 0.113433
H	-3.0684193181	-1.1766028719	-1.2979367828	 0.108973
H	-2.8525303167	 0.5067490188	-0.8255384059	 0.109986
H	-1.7855905546	-0.208448891	-2.0530858648	 0.135424
168.3919	186.5862	198.1979	219.6621	261.1598	290.0515	330.6252	371.7656	395.7883	513.3649	561.0649	605.4931	635.2022	638.3232	732.9961	743.3626	803.0105	855.6312	868.3678	898.5784	905.2272	946.34	957.5318	978.1614	1011.4082	1061.0495	1107.709	1142.6093	1162.2822	1183.3308	1235.7046	1256.4463	1271.2104	1297.8768	1334.6279	1393.9036	1411.191	1416.9706	1478.658	1480.7753	1492.4476	1494.8779	1501.7363	1518.0527	1618.1336	3026.1007	3032.6482	3039.7289	3079.2571	3085.4739	3107.3451	3119.7697	3120.7042	3135.1078	3144.4788	3223.3465	3252.1294
CC12OC(C=C1)C2(C)C	C[C@@]12O[C@@H](C=C1)C2(C)C	
InChI=1S/C8H12O/c1-7(2)6-4-5-8(7,3)9-6/h4-6H,1-3H3	InChI=1S/C8H12O/c1-7(2)6-4-5-8(7,3)9-6/h4-6H,1-3H3/t6-,8+/m0/s1
