13
gdb 9036	5.09196	1.18824	1.03069	2.0321	62.4	-0.2697	-0.0784	0.1913	1065.5828	0.094768	-394.804191	-394.796091	-394.795147	-394.837277	28.057	
N	-0.2097345612	 0.7215172842	-0.9638973043	-0.552173
C	-0.2425073724	-0.3019655244	-0.0725174615	 0.289713
C	 1.0984802809	-0.9488492678	 0.1618152491	 0.149872
O	 2.0909278571	-0.624050574	-0.4406144694	-0.258611
N	-1.2052237177	-0.7882218103	 0.6271516004	-0.28536
C	-2.5325090296	-0.2001366561	 0.5303115047	-0.284771
C	-3.0635903555	-0.0703832765	-0.8375934977	 0.248228
N	-3.4233645973	 0.04634306	-1.9305420285	-0.314565
H	 0.662904639	 0.8157831565	-1.46570114	 0.277533
H	-1.0469005752	 1.0201296301	-1.4388731121	 0.283677
H	 1.0743294442	-1.7428358059	 0.9296875171	 0.118679
H	-3.229341501	-0.8155694902	 1.1074249613	 0.166114
H	-2.5458617215	 0.8035358245	 0.9833673608	 0.161665
59.5835	95.8649	154.0419	221.3909	298.521	325.1093	372.9973	430.3068	458.3924	572.7763	598.9796	661.3303	703.3401	889.7032	921.3737	991.1678	1008.4494	1034.0071	1158.3574	1259.2783	1343.2273	1368.979	1389.3108	1462.2096	1622.7843	1728.6655	1815.6289	2345.4847	2988.3863	2996.6232	3079.614	3559.9458	3682.4752
NC(C=O)=NCC#N	NC(=NCC#N)C=O	
InChI=1S/C4H5N3O/c5-1-2-7-4(6)3-8/h3H,2H2,(H2,6,7)	InChI=1S/C4H5N3O/c5-1-2-7-4(6)3-8/h3H,2H2,(H2,6,7)
