23
gdb 36936	4.17427	0.84713	0.74648	1.6424	85.71	-0.2617	0.0838	0.3455	1580.0156	0.207003	-388.287795	-388.278597	-388.277652	-388.323296	34.003	
C	-0.0416084125	 1.5140123548	 0.2530435854	-0.246583
C	-0.0732868413	 0.0046892935	 0.2698921969	 0.097014
C	-1.2417408889	-0.7656917762	-0.1723744495	-0.183118
O	-0.0798947845	-0.6625598985	-0.9974580426	-0.231475
C	 1.3477002869	 2.0963810549	-0.028621879	 0.052907
C	 1.9128917387	 1.8171147919	-1.433040212	-0.193148
C	 3.0960499326	 2.7941526593	-1.546091772	-0.205051
C	 2.66108412	 4.0576580656	-0.7499911655	-0.205865
C	 1.4066021723	 3.6356427035	 0.0620004902	-0.217165
H	-0.7522298878	 1.8746250616	-0.5017289884	 0.097322
H	-0.3997088421	 1.8754841469	 1.2272423666	 0.096502
H	 0.5867429724	-0.4653475602	 1.0028676431	 0.086908
H	-1.4348023506	-1.7534781107	 0.2442878163	 0.111249
H	-2.1222273594	-0.238182629	-0.5381374632	 0.11068
H	 2.0518476298	 1.6804273768	 0.7085094811	 0.064176
H	 2.1953739061	 0.7730543962	-1.5873888117	 0.107699
H	 1.1464113872	 2.0538452321	-2.1829507779	 0.093366
H	 3.9855582146	 2.3490796359	-1.0860160074	 0.095312
H	 3.359116936	 3.0198728067	-2.5832109991	 0.092712
H	 3.4651518788	 4.4029259156	-0.0937138436	 0.096053
H	 2.4284852536	 4.8913595048	-1.4186872978	 0.097481
H	 0.5014400708	 4.054580078	-0.3953790462	 0.092686
H	 1.4291863673	 3.9925095065	 1.0962344663	 0.090338
40.298	63.6439	80.3126	124.8467	202.5895	278.205	342.2424	426.802	450.3989	582.8896	626.2255	771.3258	784.5976	812.0005	856.3158	871.9781	892.4695	908.1468	954.439	963.7228	971.3073	990.0526	1040.6577	1065.1359	1082.6706	1101.6705	1123.0946	1156.0659	1169.8984	1199.8662	1206.1001	1219.8933	1253.7717	1273.7761	1290.3539	1298.6058	1310.3338	1322.6154	1339.7266	1344.934	1363.4572	1394.4304	1447.7398	1467.4829	1484.476	1492.4418	1496.1608	1517.9059	1529.046	2983.2473	3009.1154	3022.5179	3028.6691	3038.6007	3052.299	3055.3389	3070.8815	3078.3957	3083.8714	3085.4037	3098.7148	3105.2191	3164.4159
C(C1CO1)C1CCCC1	C([C@H]1CO1)C1CCCC1	
InChI=1S/C8H14O/c1-2-4-7(3-1)5-8-6-9-8/h7-8H,1-6H2	InChI=1S/C8H14O/c1-2-4-7(3-1)5-8-6-9-8/h7-8H,1-6H2/t8-/m0/s1
