15
gdb 7623	5.30335	1.28687	1.06243	2.5844	63.76	-0.2507	-0.0424	0.2083	1052.6284	0.116768	-399.829824	-399.821658	-399.820714	-399.863288	28.21	
C	-0.1686264025	 1.4776364121	-0.0199426914	-0.489879
C	-0.1363866318	-0.0407579303	 0.0107269119	 0.374296
O	-0.1724221828	-0.6972738314	 1.034726827	-0.356382
N	-0.0777213697	-0.6474094361	-1.212746249	-0.087105
C	 0.3101171218	-0.1679084282	-2.547394704	-0.301228
C	 0.5734847501	-1.6535497408	-2.8970748891	 0.385362
O	 0.9187058039	-2.2294940403	-3.8800580251	-0.262649
C	 0.2000979443	-2.0675158565	-1.460207496	-0.283229
H	 0.7971351666	 1.8775156836	-0.3490996164	 0.139418
H	-0.9317005437	 1.8496187811	-0.7103549083	 0.13712
H	-0.3749860862	 1.8402278888	 0.98648991	 0.153053
H	-0.4886880026	 0.3088652599	-3.1275142184	 0.144407
H	 1.2056005394	 0.465698179	-2.5787477948	 0.142288
H	 1.0241861091	-2.4769421592	-0.8638602148	 0.15379
H	-0.6656100759	-2.7330025917	-1.3723103115	 0.150737
52.4612	94.7371	133.3924	168.4158	185.9554	368.0055	440.0783	449.3008	558.798	594.1092	630.8616	728.4986	773.849	916.1896	969.9956	1045.1822	1051.2129	1061.6407	1099.8096	1105.2161	1157.2304	1170.5494	1265.8244	1283.8334	1381.2286	1432.0452	1464.3771	1470.8121	1483.2487	1488.7576	1774.1758	1933.9276	3020.4476	3038.8694	3042.224	3069.0515	3083.3543	3104.6807	3162.9667
CC(=O)N1CC(=O)C1	CC(=O)N1CC(=O)C1	
InChI=1S/C5H7NO2/c1-4(7)6-2-5(8)3-6/h2-3H2,1H3	InChI=1S/C5H7NO2/c1-4(7)6-2-5(8)3-6/h2-3H2,1H3
