13
gdb 25096	3.22269	1.49806	1.12196	3.7875	70.76	-0.2721	-0.0808	0.1913	1014.7686	0.091644	-448.962838	-448.955716	-448.954772	-448.995088	26.142	
N	-0.1649289671	 1.1548423289	-0.5524204343	-0.476018
C	 0.0016431478	 0.0013330405	-0.0374771188	 0.29154
C	-1.2400414962	-0.7103719921	 0.398586264	 0.016874
N	-1.5211414484	-1.9460451725	 0.2977522295	-0.23358
C	-0.6961822039	-2.918655309	-0.2765308243	 0.437569
O	-1.1315512433	-3.8397994383	-0.9174100951	-0.32119
N	 0.680314214	-2.8856629328	 0.0456827584	-0.335555
C	 1.4943928316	-1.8084872601	 0.2849142642	 0.107589
N	 1.2524091974	-0.5542001312	 0.237589977	-0.294141
H	 0.7451800141	 1.5539072885	-0.7996262022	 0.23441
H	-1.9946293045	-0.0605517296	 0.8454422225	 0.157093
H	 1.138107542	-3.7708918675	-0.1333202635	 0.273838
H	 2.5146378066	-2.1126402646	 0.5209777026	 0.141569
58.268	117.8085	272.363	323.9076	385.0478	422.4358	476.7848	555.3663	627.0965	657.3171	723.0531	772.6937	811.6888	866.566	892.1821	935.6115	989.1375	992.1742	1056.1133	1152.5867	1220.7578	1357.5563	1389.943	1458.2879	1478.4115	1688.0264	1702.4606	1745.8089	1820.9477	3122.1973	3130.8647	3444.6806	3579.0757
N=C1C=NC(=O)NC=N1	[NH][C]1C=NC(=O)NC=N1	
InChI=1S/C4H4N4O/c5-3-1-6-4(9)8-2-7-3/h1-2H,(H2,5,7,8,9)	InChI=1S/C4H4N4O/c5-3-1-6-4(9)8-2-7-3/h1-2H,(H2,5,7,8,9)
