15
gdb 130067	4.37831	0.92405	0.80762	2.9864	70.07	-0.2213	-0.0366	0.1847	1358.1327	0.113063	-450.13145	-450.122988	-450.122044	-450.166282	29.575	
N	-0.2638614191	 1.3172158253	 0.0094802953	-0.59104
C	-0.0242120707	-0.0486096623	 0.01895708	 0.336634
N	-1.0067539671	-0.9430311326	-0.0971080733	-0.315288
N	-0.376068231	-2.1193591393	 0.0484785928	 0.130885
C	-1.0851124882	-3.3673405324	-0.0664962405	-0.224629
C	-1.5686691041	-3.6368740117	-1.4915618972	 0.157055
O	-2.4041997884	-4.4583532353	-1.7498812526	-0.225104
N	 0.934005899	-2.0494030146	 0.2245930275	-0.214831
C	 1.1890951025	-0.741128929	 0.2195682515	-0.120044
H	 0.4758610614	 1.862768043	-0.4089939149	 0.254065
H	-1.1632680534	 1.552068475	-0.3880755784	 0.259077
H	-0.3908290497	-4.1600869718	 0.2254262509	 0.171017
H	-1.9436464928	-3.3845604496	 0.6102546068	 0.161471
H	-1.0708414446	-3.0205543016	-2.2715381936	 0.100174
H	 2.1890599561	-0.3638519132	 0.3606095955	 0.120559
31.7055	59.8661	93.3612	249.6626	268.5543	311.5926	375.5774	429.9474	447.6125	641.716	663.8797	692.2428	728.8444	748.9949	835.6446	835.8657	1006.4031	1027.7991	1036.8972	1063.669	1131.2942	1179.9201	1239.8381	1327.5305	1371.5218	1381.6618	1408.7025	1431.3875	1437.8643	1492.6508	1588.763	1652.2014	1846.2048	2903.4267	3071.3202	3128.239	3270.2582	3559.2063	3657.0144
NC1=NN(CC=O)N=C1	Nc1nn(CC=O)nc1	
InChI=1S/C4H6N4O/c5-4-3-6-8(7-4)1-2-9/h2-3H,1H2,(H2,5,7)	InChI=1S/C4H6N4O/c5-4-3-6-8(7-4)1-2-9/h2-3H,1H2,(H2,5,7)
