21
gdb 109796	2.76651	1.05609	0.90441	2.3933	80.16	-0.2436	0.0757	0.3193	1388.1165	0.18045	-424.173362	-424.163436	-424.162492	-424.208939	35.52	
C	 0.446008321	 1.2456811047	 0.2937080177	-0.233803
O	-0.2623346567	 0.1564171541	-0.2665554239	-0.237314
C	 0.4544320024	-0.4967169474	-1.2679954705	 0.089905
C	 1.3496663453	-1.6639025048	-0.9109354894	-0.065307
C	 1.578591344	-2.0782454637	 0.527146298	-0.413575
C	 0.0095853121	-1.8929967995	-1.6078907356	-0.114679
C	-1.1447649704	-2.5121264033	-0.8947238479	 0.106037
C	-2.2888549363	-3.0689851891	-1.6275608178	-0.188912
O	-1.3034017121	-3.9305301349	-1.057390654	-0.247684
H	 1.3841309824	 0.9241566729	 0.7661947539	 0.113828
H	 0.6827937449	 2.0026678645	-0.4690885497	 0.108731
H	-0.2017881725	 1.695743259	 1.0494776526	 0.128584
H	 0.7592954531	 0.158410989	-2.0863393456	 0.083071
H	 2.2141140102	-1.7958621532	-1.55675133	 0.085742
H	 0.7669522735	-1.7445588714	 1.1775005157	 0.13013
H	 1.6563900061	-3.1665795244	 0.6163170495	 0.130307
H	 2.508740807	-1.6446336599	 0.9098078252	 0.112636
H	 0.0633863321	-2.1693836026	-2.657136436	 0.088598
H	-1.3255029512	-2.1584722631	 0.1170392854	 0.103811
H	-3.2716458509	-3.1011626724	-1.1583847133	 0.111835
H	-2.2994996539	-3.0264193444	-2.7165541641	 0.108059
44.8206	105.9899	110.8571	140.7806	176.2353	199.0238	253.4574	282.9301	331.1357	347.317	504.6861	605.0086	616.756	775.6698	789.3239	828.2737	853.8329	914.558	970.1564	992.5379	1004.2877	1063.3818	1098.5601	1107.3557	1120.8533	1146.0002	1153.6692	1168.3021	1172.8364	1183.5844	1191.2035	1237.1654	1265.2738	1290.7631	1317.7608	1369.763	1415.1675	1419.849	1471.8641	1485.8064	1487.38	1498.9039	1502.501	1509.4167	1532.3041	2987.2383	3037.0321	3042.6968	3076.2229	3077.7205	3094.3598	3119.8896	3120.3664	3136.9915	3143.136	3151.3112	3164.2473
COC1C(C)C1C1CO1	CO[C@H]1[C@@H](C)[C@H]1[C@H]1CO1	
InChI=1S/C7H12O2/c1-4-6(5-3-9-5)7(4)8-2/h4-7H,3H2,1-2H3	InChI=1S/C7H12O2/c1-4-6(5-3-9-5)7(4)8-2/h4-7H,3H2,1-2H3/t4-,5+,6-,7-/m0/s1
