16
gdb 127537	4.81768	1.28676	1.03668	1.6999	73.04	-0.216	-0.0019	0.2142	1123.2146	0.126923	-434.061629	-434.053981	-434.053037	-434.094673	27.362	
C	-0.0131930765	 1.377789123	 0.064014411	-0.306917
N	-0.0297441265	-0.0657991388	 0.0179094053	 0.118005
N	-0.0243172607	-0.7404560261	-1.1399829134	-0.331448
C	 0.0742205821	-2.0021490294	-0.7406800394	 0.238736
C	 0.0867836519	-3.4036296786	-1.2601964691	-0.3748
C	 0.3418876557	-4.1741165046	 0.0888450464	-0.090644
O	 0.2021393446	-3.2433830898	 1.211795624	-0.272795
C	 0.1299463048	-2.0244879451	 0.6461437713	 0.413357
N	 0.0730609361	-0.8065092845	 1.1496441652	-0.370225
H	 0.9910375872	 1.7540163461	 0.2866178115	 0.143937
H	-0.3314954826	 1.741892799	-0.9122799935	 0.158228
H	-0.7017272931	 1.722427374	 0.8379938815	 0.153013
H	-0.8655029728	-3.69453978	-1.7165439144	 0.132595
H	 0.8775752347	-3.6107584184	-1.9864478791	 0.132485
H	-0.3682127833	-4.9860848688	 0.2547717421	 0.129206
H	 1.3579287183	-4.577727408	 0.1271225806	 0.127266
62.4782	77.6415	147.3356	241.6907	300.3403	331.603	531.0338	576.0486	628.5576	721.1815	739.6549	748.3013	833.7138	856.4871	932.7821	977.3289	988.6534	1054.4837	1072.7488	1146.6678	1197.0472	1201.5861	1241.2055	1274.4264	1312.6439	1377.2231	1386.0964	1444.0577	1475.6747	1480.4419	1494.0153	1508.0976	1515.6743	1572.7596	1616.8609	3043.8248	3044.9439	3059.9763	3086.8334	3118.1021	3122.6152	3170.0517
CN1N=C2CCOC2=N1	Cn1nc2CCOc2n1	
InChI=1S/C5H7N3O/c1-8-6-4-2-3-9-5(4)7-8/h2-3H2,1H3	InChI=1S/C5H7N3O/c1-8-6-4-2-3-9-5(4)7-8/h2-3H2,1H3
