18
gdb 66008	2.25331	1.52732	1.39061	3.4235	71.78	-0.2436	0.0165	0.2601	1049.0151	0.146848	-439.084576	-439.07563	-439.074686	-439.118436	33.107	
O	-0.0272365927	 1.4438262653	-0.2639492856	-0.472579
C	-0.0348907977	 0.0555480119	-0.0370128622	 0.257776
C	 0.876840906	-0.8130580508	-0.9871824425	-0.214233
N	 1.6206329766	-1.2109683583	 0.2110079441	-0.322793
C	 0.9098542562	-0.4560578951	 1.1066737228	 0.336486
O	 1.0129251752	-0.2688541075	 2.291321118	-0.365861
C	-1.4724386055	-0.3799910624	 0.0560218952	-0.020794
C	-1.8760168602	-1.6473563796	 0.7678015178	-0.285705
C	-2.2064534009	-0.304143887	 1.3691950705	-0.264995
H	 0.8593334355	 1.7845298087	-0.1028843242	 0.288337
H	 0.3725789549	-1.6367336759	-1.5006247633	 0.117119
H	 1.4564471601	-0.2192756455	-1.7010694013	 0.108313
H	 2.3917780292	-1.8477745425	 0.3453400254	 0.253257
H	-2.039390379	-0.1202978342	-0.8342698161	 0.093963
H	-2.6762254207	-2.2348201703	 0.3317092393	 0.109168
H	-1.1066067996	-2.238486487	 1.2525200697	 0.124332
H	-1.6352141334	 0.0040251461	 2.2368679871	 0.147632
H	-3.2369040339	 0.0318318641	 1.3549410653	 0.110577
63.0648	106.3037	142.7631	198.7955	221.8033	278.2514	322.0284	350.1219	444.8739	495.0502	545.2199	678.384	744.4558	774.2246	792.8184	832.5056	885.9311	921.7304	957.9018	964.3688	997.3005	1061.3922	1072.2597	1089.7811	1134.0915	1146.1634	1159.0586	1174.2255	1196.4364	1214.7007	1234.1767	1277.8263	1366.953	1390.5609	1414.1496	1469.4262	1505.9508	1522.0163	1879.2388	3041.6499	3096.8441	3135.5826	3139.4466	3145.3854	3216.3712	3237.0893	3613.9445	3806.0991
OC1(CNC1=O)C1CC1	O[C@]1(CNC1=O)C1CC1	
InChI=1S/C6H9NO2/c8-5-6(9,3-7-5)4-1-2-4/h4,9H,1-3H2,(H,7,8)	InChI=1S/C6H9NO2/c8-5-6(9,3-7-5)4-1-2-4/h4,9H,1-3H2,(H,7,8)/t6-/m1/s1
