15
gdb 54235	2.32747	1.54176	1.33608	3.3371	62.35	-0.2609	-0.0238	0.237	1009.8467	0.112377	-491.100876	-491.092321	-491.091377	-491.134233	31.393	
N	-0.2164885205	 1.3501790638	 0.1186052513	-0.551403
C	 0.0659310973	 0.0009396373	-0.0588470497	 0.253061
N	 1.1837534702	-0.5580985052	-0.2951080778	-0.497084
C	-1.2148219417	-0.8166799621	-0.049990333	 0.210198
O	-2.0553463308	-0.4888040005	-1.1266139771	-0.462512
C	-1.0953781821	-2.3221365836	 0.2075552537	-0.120814
O	-1.7177038657	-2.1510521831	 1.5373583637	-0.239959
C	-1.8905058253	-0.8168096975	 1.3487715325	 0.413324
O	-2.3763559313	-0.0065246613	 2.0770473528	-0.346302
H	 0.581759846	 1.9597761828	 0.2296034493	 0.25421
H	-0.9669620852	 1.5506947826	 0.7716378841	 0.277686
H	 1.9565951682	 0.1109611125	-0.2754459356	 0.211849
H	-1.9206251135	 0.4441448525	-1.3322592569	 0.299425
H	-1.7285412718	-2.931709915	-0.436576904	 0.138713
H	-0.0828623338	-2.7100823132	 0.2954149368	 0.159609
70.9326	128.9465	144.5944	240.1508	249.4495	298.0032	346.6604	409.7217	473.9613	498.3231	586.4501	644.6059	681.3172	694.1829	780.4737	799.2069	881.6841	921.4109	927.2296	1030.7915	1087.347	1131.0515	1138.3441	1151.2419	1155.5206	1217.1148	1327.0348	1385.134	1432.4611	1500.5073	1650.6716	1743.2049	1913.1231	3105.0825	3187.1351	3446.4061	3516.2736	3638.5641	3793.2989
NC(=N)C1(O)COC1=O	NC(=N)[C@@]1(O)COC1=O	
InChI=1S/C4H6N2O3/c5-2(6)4(8)1-9-3(4)7/h8H,1H2,(H3,5,6)	InChI=1S/C4H6N2O3/c5-2(6)4(8)1-9-3(4)7/h8H,1H2,(H3,5,6)/t4-/m0/s1
