14
gdb 18973	4.77117	2.40969	1.95333	2.1816	60.28	-0.2468	0.0052	0.252	677.2938	0.111161	-378.659553	-378.654419	-378.653474	-378.688557	21.167	
N	-0.0640302806	 1.5472186268	-0.0353845143	-0.315996
C	 1.4097111779	 1.2277346863	-0.0077508616	-0.097987
C	 1.1434954677	 0.1314171896	 1.0613700265	 0.123702
O	 2.0592375178	-0.9536244665	 1.164694542	-0.239346
C	 2.4406989297	-1.4251580697	-0.0466850114	 0.123021
N	 2.0505464494	-0.9796250602	-1.1657758487	-0.290125
C	 1.1207379413	 0.1251410468	-1.0744278826	 0.070739
C	 0.0016431869	 0.0411284628	 0.010738185	-0.097987
H	-0.3543260188	 1.9059748353	 0.881193607	 0.211799
H	 2.1846686927	 1.993053249	-0.0251262642	 0.093108
H	 0.8898149302	 0.4482275177	 2.0743809298	 0.093432
H	 3.1388502205	-2.2521416444	 0.0470968057	 0.134543
H	 0.8017976545	 0.4884117112	-2.0496651033	 0.097988
H	-0.8840361792	-0.5930055146	 0.0151712999	 0.093108
280.4095	351.2958	449.5034	571.7691	584.0559	611.4233	791.0883	829.6846	850.086	888.8063	904.5766	921.7187	964.3837	986.5555	1015.7539	1016.2585	1095.6309	1128.7572	1130.0562	1161.6097	1167.4096	1173.2802	1211.4547	1251.8815	1290.4661	1290.9742	1324.7564	1378.1488	1403.3644	1709.0888	3108.0248	3125.1394	3127.6959	3140.287	3186.975	3371.7363
N1C2C3OC=NC2C13	N1[C@H]2[C@@H]3O[CH][N][C@H]2[C@H]13	
InChI=1S/C5H6N2O/c1-6-2-3-5(8-1)4(2)7-3/h1-5,7H	InChI=1S/C5H6N2O/c1-6-2-3-5(8-1)4(2)7-3/h1-5,7H/t2-,3-,4+,5+
