17
gdb 110242	2.13514	1.66585	1.10935	4.6309	69.8	-0.2669	0.0028	0.2697	1131.1094	0.133619	-458.950848	-458.942056	-458.941112	-458.984561	31.843	
C	 0.2774546733	 1.0034732139	 0.4402555869	-0.244277
O	-0.395025093	 0.0003521298	-0.3056425121	-0.228216
C	 0.3719042625	-0.5397014285	-1.3114120941	 0.074966
C	 1.4942085157	-1.5707073592	-1.0592897702	-0.406373
C	 1.0030348863	-2.5212066493	-0.0023279313	 0.474641
O	 1.4099573283	-3.0117748843	 0.9992654344	-0.330954
O	-0.2177601057	-2.7531951154	-0.6179494625	-0.278716
C	 0.1795252374	-1.9374163716	-1.7582766693	 0.396771
C	-0.1547535309	-2.462962765	-3.1126000479	-0.491563
H	 1.1742417115	 0.60115303	 0.9292748835	 0.128911
H	 0.5697282612	 1.8501424663	-0.19792195	 0.110517
H	-0.4231441064	 1.3532377263	 1.2001814849	 0.140754
H	 0.6446735782	 0.1566444967	-2.1105732589	 0.103516
H	 2.5091189092	-1.457803062	-1.4132208973	 0.124193
H	-1.2408167845	-2.5055736771	-3.2450037831	 0.149421
H	 0.2583597146	-1.8107395962	-3.8868647715	 0.132871
H	 0.2486040623	-3.4704915743	-3.2475016114	 0.143537
72.979	132.0105	171.1353	181.087	208.7386	246.4859	300.7424	328.8662	481.0818	511.2822	569.5918	673.364	703.052	767.5171	826.0569	909.8929	930.9091	959.6764	970.6302	1017.6356	1033.3827	1088.8501	1134.9982	1173.0231	1184.862	1199.4894	1240.0038	1260.4428	1331.0785	1415.969	1462.6447	1475.3841	1487.3113	1490.938	1500.5263	1517.0687	1943.8827	2993.8257	3042.3689	3054.7839	3063.5709	3111.5091	3125.1585	3136.319	3221.7718
COC1C2C(=O)OC12C	CO[C@H]1[C@H]2C(=O)O[C@@]12C	
InChI=1S/C6H8O3/c1-6-3(4(6)8-2)5(7)9-6/h3-4H,1-2H3	InChI=1S/C6H8O3/c1-6-3(4(6)8-2)5(7)9-6/h3-4H,1-2H3/t3-,4-,6+/m0/s1
