23
gdb 36947	4.33255	0.84501	0.75258	1.631	86.39	-0.2403	0.0862	0.3264	1585.0342	0.206598	-388.263711	-388.254598	-388.253654	-388.298794	33.803	
C	 0.0141388009	 1.5397458824	-0.2057223334	-0.235842
C	-0.0724090596	 0.0268940444	-0.0433421448	 0.065053
C	 0.2475762143	-0.6213713499	 1.3355010918	-0.200013
C	-0.9157079135	-1.6195844819	 1.093187677	-0.21537
C	-1.474699616	-0.6418106118	 0.0239766908	-0.238149
C	 1.435065972	 2.0764360206	-0.1846247975	 0.168068
C	 1.6426768844	 3.6064716918	-0.1125218799	-0.300511
C	 2.4427027398	 3.2934496727	 1.1669935078	-0.058169
O	 2.091584675	 1.896965626	 1.0984073214	-0.287755
H	-0.4437390634	 1.8355356402	-1.1613370632	 0.092127
H	-0.5623976158	 2.0317462258	 0.5895069337	 0.088576
H	 0.5259517547	-0.458759699	-0.8248242626	 0.064668
H	 1.2522791758	-1.019318799	 1.4901618176	 0.099316
H	 0.0269278835	 0.0715953795	 2.1523202141	 0.101001
H	-0.5642147774	-2.5525855132	 0.6423309284	 0.097598
H	-1.5603635687	-1.8680294804	 1.9397597924	 0.091838
H	-2.2154201604	 0.0409942051	 0.4544678757	 0.094066
H	-1.8869867578	-1.0617112926	-0.8975728577	 0.089822
H	 2.0263203199	 1.5969282123	-0.9797721295	 0.067414
H	 2.1964431815	 4.0619331699	-0.9347308395	 0.107355
H	 0.7210329907	 4.1680525423	 0.0559010612	 0.108067
H	 3.5268779026	 3.4460405063	 1.0833224085	 0.098264
H	 2.0926335276	 3.7607290886	 2.0948791878	 0.102579
57.8732	68.8094	93.8885	114.8137	189.1829	272.4137	325.9054	425.9751	464.8608	635.7367	731.637	763.2144	784.6716	814.9466	861.103	888.9002	901.4191	931.5512	936.6844	967.8334	975.7596	982.7339	1026.0071	1049.3919	1073.0576	1107.6533	1122.8563	1162.1864	1183.3509	1198.8466	1212.0375	1229.5338	1250.0609	1253.1267	1258.8412	1266.5763	1271.6524	1294.7742	1296.4203	1323.8468	1368.6425	1384.4097	1408.1347	1467.2569	1477.0365	1487.0112	1489.7231	1510.0245	1532.8547	2980.9339	3000.2019	3010.2166	3018.4919	3040.9544	3047.4802	3052.36	3053.9217	3064.7533	3073.835	3091.0709	3104.5899	3121.5642	3130.2705
C(C1CCC1)C1CCO1	C(C1CCC1)[C@H]1CCO1	
InChI=1S/C8H14O/c1-2-7(3-1)6-8-4-5-9-8/h7-8H,1-6H2	InChI=1S/C8H14O/c1-2-7(3-1)6-8-4-5-9-8/h7-8H,1-6H2/t8-/m1/s1
