17
gdb 130291	3.18105	1.51131	1.0486	3.5507	75.	-0.2258	0.0121	0.2378	1110.8528	0.139247	-418.013215	-418.005754	-418.004809	-418.045095	29.014	
N	-0.0402444489	 1.4042656701	 0.0439345407	-0.590553
C	 0.0418803405	 0.0238887045	-0.0373207718	 0.23803
N	-1.0531635829	-0.7065636402	-0.172933583	-0.236229
O	-0.6259485788	-2.0598603214	-0.1220542433	-0.243101
C	 0.6971103227	-2.0476769562	 0.0127616627	 0.403469
C	 1.2021046894	-0.7965088166	 0.0715751711	 0.13622
C	 2.6854025854	-0.8097607664	 0.2977103665	-0.36635
C	 3.0260845661	-2.3262450289	 0.0625422322	-0.198952
C	 1.6944053451	-3.1445572484	 0.1779498074	-0.352964
H	 0.7233611239	 1.8897583037	-0.4046827024	 0.252886
H	-0.9380117604	 1.7606118836	-0.2572449926	 0.258971
H	 3.2542828308	-0.1682625463	-0.3841180016	 0.105081
H	 2.9453992032	-0.4923336019	 1.3155778989	 0.116064
H	 3.4271087802	-2.4469514345	-0.9475749275	 0.116847
H	 3.788757289	-2.6876813113	 0.755902366	 0.108188
H	 1.58951488	-3.6308253495	 1.1559010635	 0.127069
H	 1.6196151448	-3.9306166503	-0.5794428768	 0.125326
117.1994	168.1201	228.178	249.629	321.6734	377.7335	501.4009	567.4958	612.7117	627.8577	669.2764	718.9451	748.4143	793.8336	830.9425	895.6305	907.5628	920.4206	989.2582	1060.8787	1072.7586	1136.3702	1157.205	1214.005	1221.4987	1239.5541	1286.4011	1317.5476	1342.7424	1378.8232	1482.8066	1493.6413	1511.2565	1517.668	1543.1892	1644.1262	1681.7844	3022.6997	3031.6669	3053.4349	3066.8199	3080.4548	3113.6974	3552.0253	3653.0536
NC1=NOC2=C1CCC2	Nc1noc2c1CCC2	
InChI=1S/C6H8N2O/c7-6-4-2-1-3-5(4)9-8-6/h1-3H2,(H2,7,8)	InChI=1S/C6H8N2O/c7-6-4-2-1-3-5(4)9-8-6/h1-3H2,(H2,7,8)
