16
gdb 71531	2.56559	1.58374	1.42647	4.4522	74.19	-0.2557	0.0104	0.2661	986.0365	0.123494	-400.678934	-400.671305	-400.670361	-400.710923	29.347	
C	 0.0246026961	 1.4566933698	-0.0958752057	-0.525215
C	 0.0207532185	-0.0322964316	-0.0109153587	 0.425713
O	 0.5893815791	-0.816713816	-1.1026915003	-0.342238
C	 0.1091549837	-1.8154562956	-0.1704345761	 0.052897
C	 0.5144802684	-1.0192122839	 1.1050308898	-0.148133
C	-0.8896989171	-1.1485144999	 1.7298968506	-0.324636
C	-1.1941079499	-1.0294938781	 0.2193110024	 0.161687
C	-2.4557549003	-1.0270919466	-0.4638154135	 0.150192
N	-3.4738855524	-1.0122730443	-1.0132712565	-0.344674
H	 1.0513060743	 1.8261521996	-0.1752763476	 0.145763
H	-0.5354476692	 1.7888791684	-0.9746531186	 0.154918
H	-0.4350988224	 1.8912273056	 0.7968609421	 0.137777
H	 0.2181306275	-2.8702897021	-0.4161767043	 0.116341
H	 1.4940394671	-1.0161147141	 1.5789384425	 0.099462
H	-1.1349694527	-2.1075496282	 2.1911815696	 0.120479
H	-1.2312645404	-0.3208649229	 2.3554534544	 0.119669
119.2542	146.6632	195.9066	249.3037	299.9799	427.558	441.322	528.2518	533.4909	645.0617	662.8724	718.9784	771.131	798.6065	857.6807	908.1333	930.7021	952.9584	1009.7543	1034.0886	1079.4168	1104.2917	1126.8847	1136.9042	1157.0627	1207.1575	1231.4982	1273.5356	1289.9196	1357.9934	1418.0726	1471.2924	1487.611	1514.397	2345.9035	3043.7743	3068.72	3119.615	3122.3483	3129.0854	3139.6194	3150.8594
CC12OC3C1CC23C#N	C[C@@]12O[C@H]3[C@@H]1C[C@@]23C#N	
InChI=1S/C7H7NO/c1-6-4-2-7(6,3-8)5(4)9-6/h4-5H,2H2,1H3	InChI=1S/C7H7NO/c1-6-4-2-7(6,3-8)5(4)9-6/h4-5H,2H2,1H3/t4-,5-,6+,7-/m0/s1
