16
gdb 37582	2.97429	2.61007	1.97513	0.7432	68.52	-0.1995	0.0574	0.257	748.2074	0.128134	-400.647716	-400.642502	-400.641558	-400.676921	23.393	
O	 0.0015453582	 1.4080162124	 0.0692127863	-0.270437
C	 1.2576944688	 2.0170717526	-0.0337943291	 0.112738
C	 2.2969551219	 1.590266226	-1.0299480027	-0.155401
C	 2.5091551061	 1.3982604183	 0.4952080139	-0.084895
N	 2.5190406801	-0.0830715138	 0.3374168977	-0.140675
C	 1.2154138869	-0.784096011	 0.5061262953	-0.084894
C	 0.0696075283	 0.0129542771	-0.0237496263	 0.112738
C	 0.938413375	-0.70135235	-1.0184783038	-0.155402
C	 2.2745973377	 0.0544743783	-1.1330368304	-0.010836
H	 1.1575013871	 3.0868912867	 0.1121350415	 0.109543
H	 2.7705637877	 2.2715552098	-1.7248756329	 0.092773
H	 3.1857669611	 1.8789590697	 1.1930022952	 0.095045
H	 1.1214817701	-1.6032029778	 1.2104213118	 0.095045
H	-0.9163935943	-0.4114435634	 0.1296653156	 0.109543
H	 0.5649426926	-1.4489254342	-1.706256602	 0.092773
H	 3.0346232029	-0.3992938309	-1.7735073503	 0.082341
331.7375	458.6	490.3881	598.4435	613.5278	699.2398	707.92	718.0611	764.4083	810.929	850.1051	853.8058	878.5787	951.6393	958.6944	980.3169	1001.5009	1020.3197	1032.936	1040.3847	1053.6318	1064.2026	1075.1216	1114.1281	1117.2216	1169.8398	1203.0166	1205.5244	1245.4595	1273.0651	1297.1382	1321.4411	1335.3782	1400.0265	1456.9552	3070.5245	3163.1638	3166.3297	3177.5128	3180.036	3195.4656	3197.6677
O1C2C3C2N2C4C1C4C32	O1[C@@H]2[C@H]3[C@@H]2N2[C@H]4[C@@H]1[C@H]4[C@@H]32	
InChI=1S/C7H7NO/c9-6-1-3-2-5(7(2)9)8(3)4(1)6/h1-7H	InChI=1S/C7H7NO/c9-6-1-3-2-5(7(2)9)8(3)4(1)6/h1-7H/t1-,2+,3-,4+,5-,6-,7+
