19
gdb 74386	2.96546	1.60551	1.22492	1.3918	80.25	-0.2114	0.023	0.2344	1060.3042	0.159439	-385.861672	-385.853884	-385.85294	-385.89334	31.768	
C	-0.0221142591	 1.523256258	 0.1024604544	-0.498188
C	-0.079516923	 0.0339886484	-0.005272579	 0.332479
C	-0.0073912258	-0.7321583033	-1.100966555	-0.281395
C	-0.0203945379	-2.1734473666	-0.7085746783	 0.392889
O	-0.4362893775	-3.1576595872	-1.6032272065	-0.482516
C	 0.9366486416	-2.6464670619	 0.424458164	-0.126807
C	 1.430985294	-1.4876611488	 1.2775717961	-0.236946
C	-0.0302411975	-0.8774623044	 1.2103173037	-0.163063
C	-0.5089353678	-2.2751837831	 0.7016511108	-0.11
H	 0.8726597645	 1.8534286511	 0.6466687333	 0.125082
H	-0.0098117787	 1.9981169236	-0.882497724	 0.123329
H	-0.8839397133	 1.9139212911	 0.6588384482	 0.123841
H	 0.0905521083	-0.3945972432	-2.1260784335	 0.086712
H	 0.3085513595	-3.381090665	-2.1709841054	 0.283871
H	 1.3751292848	-3.6352613949	 0.3493446984	 0.081902
H	 1.6587034239	-1.829664348	 2.290806798	 0.102815
H	 2.2504885273	-0.8608675721	 0.9082009958	 0.088076
H	-0.4291367937	-0.4705797894	 2.1392925127	 0.066047
H	-1.3526524597	-2.8724708541	 1.0241735463	 0.091869
161.4781	182.7342	255.9371	266.5863	314.1836	338.8351	399.5329	477.533	554.0237	570.6086	606.1004	709.842	788.7897	810.4143	839.6393	855.836	876.686	903.9052	924.3541	979.9291	993.786	1004.9219	1015.7854	1058.702	1078.517	1103.0151	1134.649	1169.6684	1183.3009	1214.0002	1234.0434	1262.9193	1285.7401	1332.7283	1334.9948	1411.7922	1414.7437	1478.7608	1488.0058	1489.7168	1694.2752	3012.2746	3033.094	3055.821	3094.6125	3107.3088	3111.8626	3172.7984	3192.9657	3199.9517	3804.0279
CC1=CC2(O)C3CC1C23	CC1=C[C@@]2(O)[C@H]3C[C@@H]1[C@@H]23	
InChI=1S/C8H10O/c1-4-3-8(9)6-2-5(4)7(6)8/h3,5-7,9H,2H2,1H3	InChI=1S/C8H10O/c1-4-3-8(9)6-2-5(4)7(6)8/h3,5-7,9H,2H2,1H3/t5-,6-,7+,8+/m0/s1
