14
gdb 16299	3.4139	1.81615	1.46776	3.5115	63.2	-0.2683	-0.0083	0.26	856.7626	0.107637	-378.680276	-378.673185	-378.672241	-378.711564	26.406	
O	 0.0919082238	 1.4680202693	 0.2051178007	-0.415153
C	-0.0038854359	 0.0790453933	 0.0526151732	 0.030343
C	 0.1895189328	-0.712727325	 1.3626318521	-0.176791
N	-1.1507790102	-1.3948744551	 1.2368934102	-0.148529
C	-2.1409933648	-0.3165315336	 1.2570435407	-0.270674
C	-1.4134403429	-0.5478157443	-0.0159688508	 0.180955
C	-2.0261479923	-1.0543684315	-1.2038207325	 0.191053
N	-2.4938375149	-1.4222318473	-2.1966218216	-0.334872
H	-0.0102328941	 1.886143157	-0.6568288099	 0.295484
H	 0.6305623702	-0.2931912922	-0.7594091686	 0.101887
H	 0.9936777796	-1.4477169059	 1.3255193326	 0.129417
H	 0.2836750631	-0.0988036987	 2.2622451846	 0.128395
H	-3.1635188428	-0.6751833816	 1.3064214248	 0.148133
H	-1.9326234715	 0.5978208054	 1.8076689244	 0.140352
122.0739	162.4734	194.274	307.9757	346.2241	434.8074	490.5612	528.7245	565.1638	655.3382	729.0362	788.8964	858.012	890.7595	968.9515	1004.6559	1039.5924	1111.0596	1133.6418	1139.6012	1202.1242	1216.5465	1238.6409	1282.5786	1301.328	1364.0994	1433.4402	1484.4333	1506.5289	2344.6738	3045.9216	3072.1061	3115.7468	3141.2112	3217.4306	3808.5993
OC1CN2CC12C#N	O[C@H]1CN2C[C@@]12C#N	
InChI=1S/C5H6N2O/c6-2-5-3-7(5)1-4(5)8/h4,8H,1,3H2	InChI=1S/C5H6N2O/c6-2-5-3-7(5)1-4(5)8/h4,8H,1,3H2/t4-,5-,7?/m0/s1
