22
gdb 15717	3.13205	1.58668	1.21491	1.3298	77.81	-0.2425	0.0794	0.3218	1100.3637	0.200827	-350.223651	-350.214674	-350.21373	-350.25769	33.04	
C	 0.0672223517	 1.6467404596	 0.0931220455	-0.383691
C	 0.0840738442	 0.1218827556	-0.0531066443	-0.198178
C	 0.6806961474	-0.5780304173	 1.1603898215	 0.14951
O	-0.1520896368	-0.3404668777	 2.2930420669	-0.264034
C	 0.2766531231	-1.2188061644	 3.3261899278	-0.066631
C	 0.9487785892	-2.4337482174	 2.6311460004	-0.254327
C	 0.8208970331	-2.1167587387	 1.1196935531	 0.002769
C	-0.378868463	-2.82652492	 0.4820492959	-0.395716
H	 1.0818661992	 2.0443877173	 0.2082055595	 0.109174
H	-0.3801085122	 2.1228769375	-0.7847182474	 0.106726
H	-0.508687878	 1.9401506181	 0.9745616714	 0.135827
H	-0.9356497055	-0.2447350348	-0.210385401	 0.105215
H	 0.6673571598	-0.1648781623	-0.9373271353	 0.092468
H	 1.683966987	-0.1504036052	 1.3515761783	 0.050296
H	 0.9870609669	-0.7060797924	 3.9920285667	 0.088716
H	-0.6023451132	-1.4897891855	 3.9188381109	 0.104018
H	 1.9978097885	-2.5151700849	 2.9286458534	 0.100644
H	 0.4632890499	-3.3783380311	 2.88986044	 0.101801
H	 1.7336059587	-2.3995289379	 0.5847088152	 0.067118
H	-1.3140694043	-2.5249017734	 0.9649646177	 0.126237
H	-0.4633749638	-2.6045854598	-0.586023508	 0.113836
H	-0.281079442	-3.9117986253	 0.5879926215	 0.108221
40.5262	108.2084	138.9539	182.8684	223.7828	258.713	304.4068	341.2788	416.2732	498.2348	687.1305	715.338	772.025	796.1665	820.6892	893.2656	926.6232	954.686	980.3661	997.2846	1036.4432	1042.5948	1075.5218	1109.5961	1132.7431	1168.9374	1180.7324	1233.4118	1246.2913	1266.8492	1299.8783	1312.7556	1325.9048	1352.5089	1376.1486	1393.2835	1408.6532	1413.2085	1421.8187	1474.6025	1493.2701	1497.6938	1502.5658	1505.4158	1509.617	1527.2623	2909.7983	2986.1687	3029.3604	3034.7301	3035.7498	3046.5174	3061.8489	3070.1303	3074.5721	3099.8126	3102.1317	3103.6415	3109.9562	3123.8851
CCC1OCCC1C	CC[C@H]1OCC[C@H]1C	
InChI=1S/C7H14O/c1-3-7-6(2)4-5-8-7/h6-7H,3-5H2,1-2H3	InChI=1S/C7H14O/c1-3-7-6(2)4-5-8-7/h6-7H,3-5H2,1-2H3/t6-,7-/m1/s1
