16
gdb 123554	3.98533	1.6035	1.24724	3.4664	73.87	-0.2117	0.0195	0.2311	965.3599	0.129039	-396.91267	-396.906361	-396.905416	-396.943175	25.743	
C	 0.0433487687	 1.4772849049	-0.0050752992	-0.246116
C	 1.2815846888	 0.6599636942	 0.0387470838	-0.013854
C	 1.9595685606	 0.358921359	 1.3971794567	-0.389364
C	 0.8391940354	-0.3762054052	 2.0692695231	 0.347254
C	-0.2391241567	-0.5518463215	 1.2392697758	 0.215311
C	-1.1924373559	-1.2571903499	 1.9944839485	-0.143021
N	-0.7224085835	-1.5000081726	 3.2232171751	-0.227707
N	 0.5172193813	-0.9503057127	 3.2489501019	-0.327044
N	-0.0619946776	-0.0011097579	-0.0669710066	-0.193103
H	-0.2921313087	 1.957979986	 0.9104452274	 0.12019
H	-0.2216048759	 1.9929619386	-0.9236551259	 0.12008
H	 1.899456978	 0.6004633714	-0.8510135766	 0.101321
H	 2.8531231564	-0.2605680132	 1.2525710473	 0.124725
H	 2.2781997228	 1.2690689076	 1.918668984	 0.124902
H	-2.1795394493	-1.5996878369	 1.7240845763	 0.114969
H	 1.0641431155	-1.0429376217	 4.0875566486	 0.271455
165.894	224.6237	342.6381	423.1226	453.9245	486.922	605.7305	683.4029	698.1497	724.2016	756.8294	784.3894	827.5025	881.8537	915.3182	963.1613	977.4312	1056.6278	1084.1916	1098.1139	1110.6592	1116.1312	1169.6816	1173.6359	1228.1057	1246.8155	1272.5852	1336.2777	1367.93	1402.9186	1447.248	1484.8093	1497.977	1547.3213	1601.8118	3026.0001	3056.5503	3107.0431	3164.9533	3198.922	3254.9753	3675.0747
C1C2CC3=C(C=NN3)N12	C1[C@H]2Cc3c(cn[nH]3)N12	
InChI=1S/C6H7N3/c1-4-3-9(4)6-2-7-8-5(1)6/h2,4H,1,3H2,(H,7,8)	InChI=1S/C6H7N3/c1-4-3-9(4)6-2-7-8-5(1)6/h2,4H,1,3H2,(H,7,8)/t4-,9?/m1/s1
