16
gdb 36995	3.03106	2.76078	2.46541	3.3957	73.98	-0.2058	-0.0608	0.145	689.3159	0.1264	-363.414711	-363.409418	-363.408474	-363.44387	23.536	
C	 0.3179685681	 1.4915639658	 0.1689469977	-0.049392
C	 1.5857210854	 1.9361696661	-0.359387688	-0.10529
C	 1.1518529623	 1.0901763476	 1.5185137837	-0.026963
C	 0.4511914498	-0.3032351672	 1.5006176692	-0.052691
C	 0.0041588778	-0.0298259115	 0.0262874136	-0.093629
C	 1.3575609894	-0.6266572773	-0.4948871446	-0.091038
C	 1.7777112013	-0.9056066353	 0.9744679298	 0.007765
N	 2.4788055912	 0.4534578876	 1.0497288194	-0.161213
C	 2.31585959	 0.6115733227	-0.4627356549	-0.01703
H	-0.48953856	 2.1923682503	 0.3685881103	 0.096295
H	 1.2191327906	 1.7931639623	 2.3432384495	 0.107304
H	-0.1891915317	-0.6760183582	 2.2975082376	 0.077568
H	-0.9438236036	-0.3646129804	-0.3883424665	 0.075497
H	 1.3652165473	-1.3489423811	-1.3095734071	 0.07132
H	 2.3126170131	-1.7801109272	 1.3457001586	 0.076726
H	 3.2541646791	 0.5742507358	-1.0133013784	 0.084771
224.4434	426.1888	569.299	643.1304	660.0508	709.5	751.3113	788.6598	797.85	821.9869	834.1891	855.2591	879.5014	888.8612	910.9655	933.7806	949.9158	969.8492	983.5633	1007.0686	1065.016	1109.0199	1131.0129	1154.2458	1167.2803	1170.1089	1181.8408	1186.7834	1195.901	1216.8558	1231.1515	1256.5172	1266.6084	1282.6935	1338.4554	3101.5055	3119.7754	3127.378	3129.9158	3139.5473	3148.1163	3158.1415
C1=C2C3C4C1C1C4N3C21	[C@@H]12[C][C@@H]3[C@@H]4[C@H]2[C@@H]2[C@H]1N3[C@H]42	
InChI=1S/C8H7N/c1-2-4-6-3(1)7-5(2)8(4)9(6)7/h1-2,4-8H	InChI=1S/C8H7N/c1-2-4-5-3(1)9-7(2)6(4)8(5)9/h2-8H/t2-,3+,4-,5+,6+,7-,8+/m0/s1
