17
gdb 90948	3.04483	1.83271	1.65066	0.5019	65.82	-0.2275	0.0687	0.2963	884.2942	0.137479	-458.936896	-458.930152	-458.929208	-458.967895	27.301	
C	-0.3606184043	 1.5243334846	 0.0599938522	-0.406992
C	 0.0798061424	 0.0705435629	-0.0254356971	 0.146963
O	 0.8954833197	-0.1040961805	-1.2009760993	-0.292796
C	 2.1421867411	-0.6879597863	-0.9666904565	 0.050594
C	 2.3045204226	-1.7158489421	 0.1344209439	-0.008295
O	 1.2161761671	-1.7612716048	 1.03150081	-0.251082
C	 0.8752076444	-0.3933716182	 1.1996926818	 0.107199
O	 2.1039164384	 0.3178401992	 1.2589899906	-0.25183
C	 2.9048800485	-0.3313957862	 0.2924237249	-0.006167
H	 0.5005171452	 2.1703817064	 0.24730507	 0.136184
H	-0.8305689118	 1.8251789446	-0.8796569156	 0.129223
H	-1.0881598606	 1.6606674119	 0.8676285563	 0.112512
H	-0.7946267646	-0.5883399376	-0.1223243894	 0.087758
H	 2.6911675365	-0.8235283397	-1.8923486543	 0.113233
H	 2.8335302449	-2.6552963512	 0.0436739958	 0.114823
H	 0.3314866138	-0.2644892517	 2.1374466332	 0.104243
H	 3.9528598066	-0.0679678713	 0.3480353934	 0.11443
113.3851	230.6646	258.6722	361.1779	397.8612	481.5154	580.5472	640.7366	718.5132	739.3136	740.8121	770.5676	804.5102	850.5078	908.2801	938.8726	968.4896	1027.7957	1046.2343	1054.4023	1087.0382	1098.3096	1109.9937	1118.4149	1138.7799	1150.3212	1213.7921	1256.0941	1301.9792	1337.3113	1338.3887	1377.6399	1386.3336	1405.3508	1423.8439	1486.4587	1498.6478	3006.1998	3041.8738	3107.7944	3115.1441	3135.2182	3170.8041	3199.6316	3208.2512
CC1OC2C3OC1OC23	C[C@H]1O[C@@H]2[C@@H]3O[C@H]1O[C@H]23	
InChI=1S/C6H8O3/c1-2-6-8-4-3(7-2)5(4)9-6/h2-6H,1H3	InChI=1S/C6H8O3/c1-2-6-8-4-3(7-2)5(4)9-6/h2-6H,1H3/t2-,3-,4+,5-,6+/m1/s1
