15
gdb 129861	5.35331	1.24777	1.01566	3.9921	74.65	-0.1807	0.0345	0.2152	1096.8499	0.116767	-413.007224	-412.999858	-412.998914	-413.038653	28.653	
N	 0.1706000909	 1.3887051561	 0.1031112056	-0.606714
C	-0.0048470892	-0.0019260733	 0.0021721166	 0.325536
C	-1.1229295172	-0.7934917472	-0.0195495762	-0.427146
C	-0.6604332616	-2.1600367304	-0.0001348651	 0.257582
C	 0.7270943114	-2.0995752004	 0.0275669829	 0.427501
N	 1.2182063104	-3.3586468517	-0.0305028623	-0.356903
N	 0.1948295157	-4.269034363	-0.0463262977	-0.233357
C	-0.9264837014	-3.5514277111	-0.0472785926	-0.157968
N	 1.157155908	-0.7958081143	-0.0144693025	-0.443302
H	 0.5380963743	 1.7996002158	-0.7507669679	 0.245589
H	-0.705015989	 1.8462860469	 0.3229479676	 0.250561
H	-2.1386118599	-0.4334710868	-0.0746300129	 0.090845
H	 2.1600909014	-3.6933490771	 0.0626093105	 0.265704
H	-1.8743618472	-4.0684034089	-0.0799458849	 0.103588
H	 2.0361159333	-0.4456522145	 0.3282026888	 0.258484
151.3705	177.5099	276.2525	304.7506	318.7933	367.5765	403.6846	513.8874	565.7756	628.9338	654.356	728.6231	758.8287	773.754	808.8865	842.8792	867.3855	966.4704	995.9389	1065.6999	1141.6676	1177.1838	1194.2846	1253.3727	1268.5587	1355.1724	1407.6046	1419.9425	1483.7053	1549.5314	1609.6112	1626.9194	1656.8124	3242.2707	3248.8214	3488.0829	3604.8953	3661.4358	3693.4826
NC1=CC2=C(NN=C2)N1	Nc1cc2c([nH]nc2)[nH]1	
InChI=1S/C5H6N4/c6-4-1-3-2-7-9-5(3)8-4/h1-2H,6H2,(H2,7,8,9)	InChI=1S/C5H6N4/c6-4-1-3-2-7-9-5(3)8-4/h1-2H,6H2,(H2,7,8,9)
