18
gdb 102287	2.26864	1.08966	0.78041	4.9187	70.82	-0.2438	-0.0432	0.2006	1425.0453	0.144422	-476.251619	-476.241199	-476.240255	-476.288812	35.643	
C	-0.5682867018	 0.7790694609	 0.7983260891	-0.253786
O	-0.0105312886	-0.4709035419	 0.4237695512	-0.248222
C	 0.5550014453	-0.4696917902	-0.8792438285	 0.012052
C	 1.4068956127	-1.7372245302	-1.056470579	-0.319234
C	 2.6994056712	-1.7903593479	-0.2283601741	 0.363842
N	 2.5415514096	-1.5334266712	 1.0981530273	-0.506324
O	 3.7658631441	-2.0786328912	-0.7334410336	-0.352335
C	-0.5594447353	-0.4888192002	-1.9262332768	 0.138961
O	-0.4617595935	-0.0311535718	-3.0325882526	-0.233398
H	 0.1965931287	 1.5681309929	 0.8166746495	 0.12523
H	-1.3711037917	 1.0890020201	 0.1151381549	 0.12752
H	-0.9859034925	 0.6566418906	 1.799608933	 0.139541
H	 1.1723552385	 0.4259519863	-1.0419150889	 0.105273
H	 0.789108947	-2.609058936	-0.8074296916	 0.132982
H	 1.7083606123	-1.8203535906	-2.1016980704	 0.152387
H	 1.6530746953	-1.2190260782	 1.4541467362	 0.267493
H	 3.3613554338	-1.5295411621	 1.6822561995	 0.257959
H	-1.480371765	-1.0079800293	-1.571219655	 0.090057
25.6137	59.5143	90.5774	103.4648	175.4325	224.7852	247.9172	268.3737	335.7155	362.1889	395.4608	491.8187	534.5477	556.6187	630.6545	726.0528	846.5452	856.6507	954.7073	1013.6678	1062.4519	1084.7696	1130.9303	1137.4526	1182.5079	1197.358	1250.3016	1271.371	1335.1017	1352.4758	1366.8833	1400.8424	1457.1495	1481.5894	1490.0304	1505.9995	1611.6298	1805.6595	1840.595	2867.195	2994.7975	3009.3529	3044.7175	3050.7561	3129.6643	3133.4947	3576.5293	3722.1144
COC(CC(N)=O)C=O	CO[C@@H](CC(=O)N)C=O	
InChI=1S/C5H9NO3/c1-9-4(3-7)2-5(6)8/h3-4H,2H2,1H3,(H2,6,8)	InChI=1S/C5H9NO3/c1-9-4(3-7)2-5(6)8/h3-4H,2H2,1H3,(H2,6,8)/t4-/m0/s1
