20
gdb 53960	2.46441	1.24714	1.1813	2.4013	74.93	-0.2351	0.029	0.264	1188.3123	0.169363	-440.30992	-440.300066	-440.299122	-440.344434	37.416	
C	 0.0690376833	 1.5783338416	-0.0332926193	-0.391731
C	-0.0014157511	 0.0474071345	 0.017334239	 0.20334
O	 0.7109977965	-0.3400394917	 1.1946363859	-0.472445
C	-1.4515316319	-0.4261849158	 0.0298944744	 0.028158
C	-1.8993973582	-1.6588472944	 0.7747554385	-0.301481
C	-2.3022336136	-0.2863194939	 1.2604609479	-0.276132
C	 0.6860309531	-0.493330333	-1.2632303191	 0.367476
N	 1.9344315591	-0.9981547112	-1.0608620858	-0.531805
O	 0.1416249556	-0.4492797385	-2.3501328642	-0.379748
H	 1.1100773953	 1.9144897576	-0.0230140611	 0.117199
H	-0.407750952	 1.9402177475	-0.9465832667	 0.139844
H	-0.4437288376	 2.0005893103	 0.8342136982	 0.125298
H	 0.6052976743	-1.2926826053	 1.2978436845	 0.28121
H	-1.9302512438	-0.2616303068	-0.928349889	 0.115608
H	-2.642086071	-2.2905278667	 0.3009472193	 0.120422
H	-1.1935166687	-2.212012768	 1.3877990844	 0.096025
H	-1.814969283	 0.0702703695	 2.1616359837	 0.120518
H	-3.3336222367	 0.0280681253	 1.1474021792	 0.113661
H	 2.3854009212	-0.845933048	-0.1742251439	 0.264643
H	 2.4858734691	-1.2334358732	-1.8700087661	 0.259939
64.929	80.5612	164.3619	225.6984	241.1261	248.7322	308.4642	318.7924	366.7513	392.1466	448.8448	491.3215	505.7259	595.0327	661.9916	678.1116	774.1925	788.1896	833.158	853.3253	915.1471	948.8081	976.8732	1054.8575	1064.432	1071.794	1086.2138	1092.3153	1150.4596	1159.4976	1196.139	1217.5737	1247.8857	1320.9318	1360.6133	1399.1363	1401.8703	1464.727	1485.8295	1492.4289	1507.1451	1585.9401	1793.9539	3049.1872	3122.2129	3123.1889	3135.2983	3142.3971	3184.3669	3204.5673	3224.8054	3591.3919	3729.1413	3799.0498
CC(O)(C1CC1)C(N)=O	C[C@@](O)(C1CC1)C(=O)N	
InChI=1S/C6H11NO2/c1-6(9,5(7)8)4-2-3-4/h4,9H,2-3H2,1H3,(H2,7,8)	InChI=1S/C6H11NO2/c1-6(9,5(7)8)4-2-3-4/h4,9H,2-3H2,1H3,(H2,7,8)/t6-/m1/s1
