15
gdb 45302	3.48798	1.53807	1.30048	2.4682	65.47	-0.2688	0.0009	0.2697	958.4723	0.115732	-453.98554	-453.978914	-453.977969	-454.017145	25.392	
N	 0.0201738521	 1.2240691541	-0.2710079591	-0.523887
C	-0.0117687009	-0.0052393162	-0.0068970607	 0.400931
C	-1.2357529437	-0.8929147044	-0.016544677	-0.307324
C	-0.6741453016	-2.3172459451	 0.0273713256	-0.058474
N	-0.5736567312	-2.9415218537	-1.3030329766	-0.256354
C	 0.6582949041	-3.1644377653	-1.4905881907	 0.113407
O	 1.5589125899	-2.8251069203	-0.5261837738	-0.21265
C	 0.8049717059	-2.120600839	 0.4640349108	 0.180773
O	 1.0890320444	-0.7406775921	 0.3875676996	-0.236616
H	 0.9666881857	 1.5941532836	-0.1714778317	 0.229443
H	-1.8413255549	-0.6726116147	 0.8679492512	 0.140146
H	-1.8496358302	-0.7143693563	-0.8987367885	 0.16011
H	-1.2398187315	-2.9744726597	 0.6913044577	 0.104661
H	 1.0940450415	-3.6266771055	-2.3686353084	 0.153612
H	 1.1129324604	-2.4908644852	 1.4420354915	 0.112222
79.6332	111.2717	315.2617	385.921	482.0483	518.5116	552.3514	623.9179	698.6896	822.156	848.3267	870.1675	891.4748	901.4021	917.1531	963.1005	986.3935	1018.9456	1044.759	1052.2653	1075.9416	1142.8076	1187.8312	1251.8748	1264.1539	1307.314	1313.4906	1333.2296	1357.8724	1396.729	1463.6394	1703.1431	1792.581	3067.9769	3087.423	3119.2636	3146.1353	3225.9693	3479.3532
N=C1CC2N=COC2O1	[NH][C]1C[C@H]2N=CO[C@H]2O1	
InChI=1S/C5H6N2O2/c6-4-1-3-5(9-4)8-2-7-3/h2-3,5-6H,1H2	InChI=1S/C5H6N2O2/c6-4-1-3-5(9-4)8-2-7-3/h2-3,5-6H,1H2/t3-,5+/m1/s1
