16
gdb 53861	3.543	0.90227	0.81348	1.3318	72.56	-0.2399	-0.0211	0.2189	1405.1593	0.123338	-434.071997	-434.062353	-434.061409	-434.107679	34.604	
N	-0.0083714443	 1.0066538613	 0.5725008997	-0.522524
C	-0.0798608765	-0.0520360273	-0.2538866151	 0.408335
O	 0.7180177067	-0.3252667539	-1.1375806449	-0.390153
C	-1.2973026055	-0.9398294237	 0.0093541528	 0.282732
N	-2.0853646759	-0.6382627425	 0.9733183311	-0.559651
N	-1.3510926158	-1.960079636	-0.8849603674	-0.290606
C	-2.366616588	-2.9893268063	-0.879703308	-0.344718
C	-2.261879377	-3.9426552214	 0.2311622289	 0.323626
C	-2.1816628838	-4.7189534649	 1.1443057014	-0.448597
H	 0.7645643211	 1.6453100948	 0.5041140577	 0.26517
H	-0.7218636629	 1.1023180538	 1.2793962011	 0.283159
H	-2.840189929	-1.31198728	 1.0966827118	 0.219861
H	-0.5486573874	-2.0240540032	-1.4963394799	 0.269599
H	-3.3599259721	-2.5185863717	-0.857450403	 0.14634
H	-2.3042740307	-3.5255022651	-1.8319124714	 0.150601
H	-2.104763799	-5.4044900938	 1.9519738353	 0.206827
33.6046	54.1001	92.5131	203.817	215.6248	313.7751	327.3328	336.4045	378.7643	475.7135	519.3141	537.9928	573.4491	630.2773	658.7739	671.2737	672.7542	800.151	824.6554	845.6003	924.8118	1004.2016	1063.6566	1102.6642	1194.5831	1263.787	1307.7336	1378.939	1395.398	1465.5782	1547.5129	1585.4822	1714.6509	1796.3721	2239.0722	3007.5124	3076.6851	3489.0713	3504.1645	3581.0385	3594.6617	3735.7988
NC(=O)C(=N)NCC#C	NC(=O)C(=N)NCC#C	
InChI=1S/C5H7N3O/c1-2-3-8-4(6)5(7)9/h1H,3H2,(H2,6,8)(H2,7,9)	InChI=1S/C5H7N3O/c1-2-3-8-4(6)5(7)9/h1H,3H2,(H2,6,8)(H2,7,9)
