18
gdb 105654	1.95624	1.42968	1.22371	5.7367	72.63	-0.2536	0.0116	0.2652	1141.419	0.148368	-435.237357	-435.227981	-435.227037	-435.271967	34.149	
N	 0.2669659012	 1.2064333552	-0.5538595938	-0.512299
C	 0.0281985042	-0.0760179254	 0.056129342	-0.047362
C	-0.1394277382	-0.2572348994	 1.5945746863	-0.18885
N	-1.4448971666	-0.9556442095	 1.4050380549	-0.370149
C	-1.4226532052	-0.6824367102	-0.0722338017	 0.137558
C	-2.556302086	 0.3040774053	-0.4079184795	-0.068689
O	-3.7860332511	-0.209987107	 0.037586164	-0.41573
C	-1.5069046156	-1.8849564098	-0.8960089837	 0.249492
N	-1.528008225	-2.8514943233	-1.5309194947	-0.341917
H	-0.0963655965	 1.970306287	 0.004741226	 0.23647
H	 1.25568499	 1.3721108508	-0.6956919284	 0.242603
H	 0.7539589044	-0.7852659961	-0.3459042494	 0.111418
H	 0.6332508698	-0.8469530756	 2.0964740861	 0.116109
H	-0.2624878368	 0.6860323519	 2.1400638137	 0.108229
H	-1.3877355285	-1.9466153639	 1.610843076	 0.243172
H	-2.3254212909	 1.2714478716	 0.0638592951	 0.07709
H	-2.62511289	 0.4644739333	-1.4861597023	 0.134406
H	-3.6396165392	-0.4470872149	 0.9647456893	 0.288448
48.5097	102.2194	155.6386	171.9177	192.6888	218.1117	306.0284	362.6115	418.4583	492.106	533.2215	554.8592	588.9421	664.993	732.4717	777.2522	820.0872	911.0851	935.2591	969.5281	1018.5924	1041.5173	1070.9925	1085.7571	1137.7581	1170.268	1199.6344	1235.1051	1261.4442	1269.9005	1311.5303	1379.3959	1390.4795	1428.4406	1439.5576	1495.7243	1509.0432	1666.0429	2345.4517	2985.5398	3028.3803	3080.4036	3100.1884	3109.4094	3522.7676	3546.5854	3606.1693	3733.7825
NC1CNC1(CO)C#N	N[C@H]1CN[C@]1(CO)C#N	
InChI=1S/C5H9N3O/c6-2-5(3-9)4(7)1-8-5/h4,8-9H,1,3,7H2	InChI=1S/C5H9N3O/c6-2-5(3-9)4(7)1-8-5/h4,8-9H,1,3,7H2/t4-,5-/m0/s1
