17
gdb 55550	3.31168	1.01148	0.85292	2.792	71.29	-0.2455	-0.0138	0.2317	1343.9131	0.135578	-455.180098	-455.171056	-455.170112	-455.215358	32.324	
N	 0.6371712005	 0.0524479166	-0.5985806973	-0.507108
C	-0.4059426396	 0.1129195229	 0.2698792404	 0.377284
O	-1.0207659588	 1.12616622	 0.5367947053	-0.358567
C	-0.7240994348	-1.2171326589	 0.9777362758	-0.402088
C	-0.7842303816	-2.4363915555	 0.0700031925	 0.370995
O	 0.0693050006	-2.6942299188	-0.7599310814	-0.357557
N	-1.8375087284	-3.2944645358	 0.331193145	-0.065839
C	-3.2473238859	-3.0100545868	 0.1358038193	-0.234033
C	-2.5316691781	-4.0471294029	-0.6838984579	-0.218361
H	 0.8217690597	 0.8722144894	-1.1543079333	 0.256348
H	 0.9402813488	-0.8561167833	-0.9252173023	 0.277748
H	 0.0793439517	-1.4052472432	 1.7011320079	 0.161762
H	-1.6491707523	-1.0807034743	 1.5361170787	 0.139237
H	-3.9103383158	-3.3141333135	 0.9406880693	 0.136409
H	-3.5126382451	-2.0762837039	-0.353643128	 0.145503
H	-2.2956453103	-3.81068377	-1.7176919687	 0.143389
H	-2.6887830505	-5.1001968417	-0.4708500652	 0.134877
32.2428	60.3188	112.9868	176.4977	211.2694	273.4139	374.0789	401.0853	471.8474	527.7286	586.1987	620.8783	634.6286	705.7691	801.274	817.2604	895.1716	942.5688	966.6883	986.3589	1051.1739	1111.4409	1130.0351	1136.3242	1151.4248	1172.5967	1176.2716	1197.7369	1302.8262	1348.6374	1417.4209	1453.1669	1496.799	1524.3641	1615.6253	1757.1536	1809.5058	3047.4124	3111.3288	3120.0811	3148.0499	3197.9494	3213.1093	3532.1197	3691.1077
NC(=O)CC(=O)N1CC1	NC(=O)CC(=O)N1CC1	
InChI=1S/C5H8N2O2/c6-4(8)3-5(9)7-1-2-7/h1-3H2,(H2,6,8)	InChI=1S/C5H8N2O2/c6-4(8)3-5(9)7-1-2-7/h1-3H2,(H2,6,8)
