19
gdb 107733	3.88633	1.16519	1.08127	2.0578	75.53	-0.2316	0.069	0.3005	1165.3073	0.158317	-422.965857	-422.957294	-422.95635	-422.998839	33.101	
O	 0.5630987756	-0.1047171971	-0.7529095883	-0.419377
C	-0.2405409004	 0.4016131737	 0.3048779856	-0.206402
C	-1.597777369	-0.2227197877	 0.2061191978	 0.362044
C	-2.7128061044	-0.1477378271	 1.2494287427	-0.370611
C	-3.368876514	-1.3133940735	 0.4497227168	 0.385483
O	-4.1536960353	-2.2740908456	 1.0677979659	-0.479872
C	-3.7672748187	-0.6609396784	-0.9063235488	-0.30753
C	-2.2627898449	-0.5369314816	-1.1447893658	-0.094155
C	-1.9497957619	-1.6435301618	-0.1611173857	-0.165859
H	 1.4241411904	 0.3198034485	-0.7050419041	 0.290292
H	 0.2021578432	 0.1659283219	 1.2872386853	 0.087353
H	-0.3292247175	 1.4999153985	 0.2445402511	 0.086796
H	-2.3654916725	-0.4984254489	 2.2260710432	 0.098623
H	-3.280019145	 0.7854966352	 1.3611455823	 0.07805
H	-4.990873369	-1.8673286801	 1.3188449525	 0.279423
H	-4.2137148565	-1.4016077159	-1.5759398079	 0.102045
H	-4.3857240638	 0.2451943364	-0.8779401006	 0.078524
H	-1.7409945567	-0.3307474425	-2.0685176849	 0.098401
H	-1.3629309597	-2.5455917941	-0.2427012372	 0.096771
82.1364	159.8373	178.1982	200.6949	252.9409	321.0374	366.8475	400.9367	450.046	489.0019	616.1668	631.938	738.5083	755.826	826.8304	871.4208	902.79	912.4855	959.5894	969.6668	1017.7842	1036.1732	1055.7513	1067.1079	1093.8608	1115.2889	1142.206	1149.8311	1188.0174	1197.1869	1227.2199	1251.7188	1257.5882	1280.77	1306.659	1378.2021	1417.6766	1472.3667	1491.2579	1509.006	1520.8648	2949.0464	2972.1143	3012.1088	3021.6179	3089.7081	3095.4025	3219.0427	3238.8178	3794.0506	3837.7775
OCC12CC3(O)CC1C23	OC[C@@]12C[C@@]3(O)C[C@@H]1[C@@H]23	
InChI=1S/C7H10O2/c8-3-6-2-7(9)1-4(6)5(6)7/h4-5,8-9H,1-3H2	InChI=1S/C7H10O2/c8-3-6-2-7(9)1-4(6)5(6)7/h4-5,8-9H,1-3H2/t4-,5+,6+,7+/m1/s1
