20
gdb 81174	2.83894	1.21792	1.02022	3.5547	82.21	-0.2551	0.0224	0.2775	1245.1419	0.170827	-403.099476	-403.09074	-403.089796	-403.133796	32.829	
C	-0.2328901875	 1.5879201149	-0.1777601057	-0.452793
C	-0.0259445328	 0.085972231	-0.0668498263	 0.00732
C	 1.219900856	-0.6352957666	-0.6818885866	-0.074709
C	 2.0972751938	-0.0710654836	 0.4755334952	-0.293968
C	 0.765183171	-0.5705882711	 1.1144024937	 0.414202
C	 0.8934107772	-1.8403160113	 0.2514777753	-0.273899
O	 0.3960656266	-0.6159847608	 2.4613800588	-0.236777
C	 0.6741715277	 0.459882279	 3.2281488963	 0.103543
N	 0.2529861494	 0.5082539191	 4.4168349392	-0.442979
H	 0.6760396563	 2.17127783	-0.0080934308	 0.116159
H	-0.6052553613	 1.8464011351	-1.1749327579	 0.123884
H	-0.9843480921	 1.9237446581	 0.5453418179	 0.129259
H	-0.9654598701	-0.4362745256	-0.2788428022	 0.073874
H	 1.491032635	-0.6816539478	-1.7335229611	 0.086691
H	 2.9915295242	-0.6459596456	 0.7277405666	 0.10301
H	 2.3051518249	 0.998947314	 0.4714562739	 0.098483
H	-0.0303064374	-2.3863805164	 0.0469386383	 0.101321
H	 1.7223720236	-2.5088935127	 0.493557847	 0.098941
H	 1.2824818168	 1.2165117285	 2.7183847858	 0.090172
H	 0.5674636987	 1.370136032	 4.8581827424	 0.228267
35.5654	90.1553	151.5994	176.4845	237.8609	325.9059	402.1448	412.0459	464.6534	551.7644	594.7548	736.0913	758.8291	807.2551	820.6255	829.4237	918.4997	950.6565	971.4584	999.4079	1003.7133	1043.7316	1046.9192	1079.6001	1101.6844	1117.4046	1141.331	1151.215	1164.7963	1182.3921	1217.5363	1235.0825	1239.3261	1278.3282	1296.247	1407.1748	1418.8078	1425.3504	1491.7113	1494.8216	1512.294	1547.3595	1742.4115	3034.8449	3044.6866	3049.0268	3063.1384	3074.3193	3092.9302	3111.615	3132.7841	3141.3321	3150.7236	3514.4776
CC1C2CC1(C2)OC=N	C[C@H]1[C@H]2C[C@@]1(C2)O[CH][NH]	
InChI=1S/C7H11NO/c1-5-6-2-7(5,3-6)9-4-8/h4-6,8H,2-3H2,1H3	InChI=1S/C7H11NO/c1-5-6-2-7(5,3-6)9-4-8/h4-6,8H,2-3H2,1H3/t5-,6-,7-/m0/s1
