14
gdb 7699	3.88552	1.86029	1.26096	6.9905	68.16	-0.2073	-0.0043	0.203	896.7107	0.110101	-378.780318	-378.773503	-378.772559	-378.811015	26.525	
N	-0.147556347	 0.9587832446	-0.6971373513	-0.587539
H	 0.0734251988	 0.0269815777	-0.3651960073	 0.250743
H	 0.69940963	 1.5034918258	-0.7850773495	 0.262403
C	-1.1199258569	 1.6135362518	 0.0625411868	 0.434988
C	-1.0347419998	 2.8903059774	 0.5244370739	-0.33791
H	-0.1221025554	 3.4569983857	 0.3803492101	 0.09208
C	-2.1316873035	 3.5378084535	 1.236357094	 0.392258
O	-2.0796772487	 4.6901946306	 1.6573211746	-0.410508
C	-3.3064046087	 2.6718723135	 1.4262684077	-0.246866
C	-3.3339630646	 1.4110800481	 0.9521370633	 0.021467
N	-2.2568342674	 0.8724502766	 0.284253035	-0.369528
H	-4.1554542254	 3.0773940892	 1.9618796051	 0.109183
H	-4.1814842286	 0.7452324592	 1.0636630564	 0.128885
H	-2.3614867628	-0.0008692837	-0.2054877288	 0.260344
166.9287	201.843	282.3891	340.505	406.7527	473.8518	490.0922	525.3188	538.82	626.0329	724.0662	740.8547	767.6296	826.713	867.886	931.6171	953.8279	997.3722	1079.8715	1140.9961	1232.7285	1239.1959	1264.4783	1389.2327	1431.6143	1536.7556	1633.6623	1653.7882	1697.1149	1730.276	3198.0573	3198.7465	3222.2817	3531.3205	3635.6593	3650.533
[NH2+]=C1[CH-]C(=O)C=CN1	Nc1cc(=O)cc[nH]1	
InChI=1S/C5H5N2O/c6-5-3-4(8)1-2-7-5/h1-3H,(H2,6,7)/q-1/p+1	InChI=1S/C5H6N2O/c6-5-3-4(8)1-2-7-5/h1-3H,(H3,6,7,8)
