12
gdb 25057	5.84652	1.06105	0.89806	2.7107	75.57	-0.2461	-0.0918	0.1543	1175.5809	0.076959	-435.490798	-435.483559	-435.482615	-435.522739	26.949	
O	-0.0459368498	-0.056813768	 0.0038242594	-0.316658
C	 0.0075853575	 1.1386606999	 0.0093184915	 0.411577
O	-1.1826926068	 1.8742268864	 0.0288880577	-0.195509
C	-1.1600777874	 3.2137553985	 0.0354845278	 0.01859
C	-0.0023500561	 3.9236399188	 0.0237738713	 0.08487
N	 1.2218252322	 3.264199427	 0.0041234514	-0.249484
C	 1.2136320135	 1.9765956905	-0.0024036263	-0.124744
C	-0.0109457998	 5.3454423138	 0.0312202371	 0.239274
C	-0.0278575488	 6.548248542	 0.037657321	-0.386083
H	-2.149464878	 3.6537867577	 0.0508855122	 0.162549
H	 2.158185089	 1.4383072449	-0.0177396741	 0.150668
H	-0.0356390357	 7.6103694284	 0.0432646911	 0.20495
79.1523	147.7837	211.6108	378.0265	414.2128	444.7372	459.8855	535.3999	561.6618	599.0853	630.6881	683.597	745.703	782.2188	782.672	901.085	936.7891	948.5336	1121.314	1242.3261	1256.8891	1318.6306	1387.805	1574.4324	1651.6146	1855.1963	2237.8499	3169.764	3220.8127	3501.7322
O=C1OC=C(N=C1)C#C	O=c1occ(nc1)C#C	
InChI=1S/C6H3NO2/c1-2-5-4-9-6(8)3-7-5/h1,3-4H	InChI=1S/C6H3NO2/c1-2-5-4-9-6(8)3-7-5/h1,3-4H
