20
gdb 60329	4.25761	0.69838	0.62903	2.5845	78.66	-0.2688	-0.075	0.1938	1788.3312	0.168138	-440.306993	-440.296584	-440.295639	-440.34338	36.465	
C	 0.0722509239	 1.5489922421	-0.0069373985	-0.383387
C	 0.0396415361	 0.0153870234	-0.026512131	 0.011894
C	-1.3920647634	-0.5204756484	 0.1053763692	-0.394082
C	 0.6769010417	-0.5446728251	-1.2932185566	-0.049845
O	 2.0595838051	-0.1446055983	-1.3234887024	-0.246567
C	 2.7744604009	-0.5387509743	-2.3845994544	 0.310386
N	 2.3188898375	-1.2287819356	-3.3453939766	-0.506751
C	 4.2018165535	-0.0458093956	-2.2752704364	 0.106616
O	 5.0244752547	-0.2821095359	-3.120463046	-0.235384
H	 1.0936879293	 1.9245895054	-0.1067321593	 0.124054
H	-0.5216515203	 1.9616859272	-0.8314534628	 0.113407
H	-0.3437479935	 1.9362614469	 0.9283930152	 0.114075
H	 0.628501451	-0.3551032731	 0.8233188314	 0.085123
H	-2.0150532551	-0.1917904747	-0.73465506	 0.119126
H	-1.4132303805	-1.6149159405	 0.1298741895	 0.116988
H	-1.8581304022	-0.1547285878	 1.0250588264	 0.118809
H	 0.6303949179	-1.6386852034	-1.3247971055	 0.121461
H	 0.1821842501	-0.1702768476	-2.1976014005	 0.122336
H	 3.0773994517	-1.3836984133	-4.0134717276	 0.246028
H	 4.4263144615	 0.5439726589	-1.364312864	 0.105714
48.6384	57.9742	109.4605	137.0109	205.5701	221.2807	237.3798	262.4373	268.8253	348.8091	409.9803	427.1653	521.053	570.6382	729.7871	834.4832	895.7391	917.1164	931.8592	942.2936	960.3249	979.2403	1011.2184	1040.3031	1129.2503	1155.0913	1188.8409	1200.6949	1275.1999	1326.2241	1343.467	1372.0102	1396.8669	1400.6896	1422.122	1447.3691	1488.5992	1490.2838	1503.2239	1505.7957	1513.9633	1715.9258	1831.0282	2944.7813	3017.5823	3028.7839	3031.1535	3037.9328	3080.1824	3094.0662	3099.6899	3108.4083	3120.2729	3466.1273
CC(C)COC(=N)C=O	CC(C)CO[C]([NH])C=O	
InChI=1S/C6H11NO2/c1-5(2)4-9-6(7)3-8/h3,5,7H,4H2,1-2H3	InChI=1S/C6H11NO2/c1-5(2)4-9-6(7)3-8/h3,5,7H,4H2,1-2H3
