17
gdb 54329	2.35164	1.54529	1.10582	3.1457	69.84	-0.2416	0.0023	0.2439	1105.2244	0.136267	-455.192835	-455.184067	-455.183122	-455.226576	32.7	
N	 0.088921122	 1.1590476985	-0.0165920405	-0.542356
C	 0.1683713109	-0.1922567629	 0.1264821617	 0.346081
O	 1.2051528785	-0.7906797657	 0.3507713942	-0.366184
C	-1.1496887073	-0.9388294684	-0.0374280921	 0.242554
C	-1.201022142	-1.8894112539	-1.2257746927	-0.266214
C	-1.0898798416	-2.4299845446	 0.1676215182	-0.30494
N	-2.3792883282	-0.300903186	 0.3628089565	-0.345908
C	-2.9834782172	 0.732736919	-0.271719724	 0.146352
O	-2.5419136519	 1.3196341446	-1.2434643234	-0.336044
H	 0.9743400011	 1.6406336137	-0.0566785325	 0.255628
H	-0.6890736143	 1.5461398151	-0.5399779699	 0.285159
H	-2.1515054196	-1.9671341815	-1.7395992861	 0.127927
H	-0.3232745343	-1.9228384031	-1.8599656982	 0.141336
H	-0.1299739493	-2.8101872228	 0.4930706267	 0.157231
H	-1.9648796941	-2.9031599828	 0.5998848786	 0.110503
H	-2.8049500407	-0.6232426265	 1.2191143909	 0.256794
H	-3.945781812	 1.0033230074	 0.2031272228	 0.092081
58.4239	92.076	195.8954	215.6115	255.7439	287.5184	342.0853	404.8713	490.1372	523.1176	552.9334	573.2065	660.9277	678.0262	765.6398	786.5976	819.6733	887.1135	947.0463	983.1852	1006.3498	1032.4151	1068.3484	1095.9131	1145.9762	1195.2691	1199.786	1249.8313	1312.5062	1395.9413	1428.9042	1449.1101	1483.9453	1516.7512	1634.0442	1782.4822	1788.8388	2956.0305	3142.4873	3149.4733	3237.5103	3249.8603	3496.4379	3610.1694	3666.2534
NC(=O)C1(CC1)NC=O	NC(=O)C1(CC1)NC=O	
InChI=1S/C5H8N2O2/c6-4(9)5(1-2-5)7-3-8/h3H,1-2H2,(H2,6,9)(H,7,8)	InChI=1S/C5H8N2O2/c6-4(9)5(1-2-5)7-3-8/h3H,1-2H2,(H2,6,9)(H,7,8)
