20
gdb 63554	2.54284	1.44696	1.12737	3.5014	80.97	-0.2433	0.0335	0.2768	1159.5785	0.169807	-403.167742	-403.158306	-403.157362	-403.20167	35.215	
C	-0.0423078396	 1.5293729869	-0.0192636649	-0.451374
C	-0.016853219	 0.0126505547	-0.0075956588	 0.274223
C	-1.2620250275	-0.6532678656	-0.5650709003	-0.463033
C	 1.3131589222	-0.667910259	-0.2211204587	-0.383986
C	 0.68357974	-0.6664812206	 1.1470193204	 0.146134
C	 1.2104999224	-0.1015392256	 2.4812352459	-0.24418
N	 0.6779140927	-1.3247588355	 3.0987485457	-0.349615
C	 0.2337622892	-1.8943757359	 1.9235085359	 0.405286
O	-0.2854783949	-2.9498874867	 1.6653978807	-0.3815
H	 0.8796212428	 1.9568263984	 0.3872027155	 0.112521
H	-0.1593740409	 1.9031450502	-1.0430103848	 0.121184
H	-0.8815212386	 1.91505829	 0.5709411928	 0.118738
H	-1.3838893414	-0.4105599648	-1.627113439	 0.110523
H	-1.2141296439	-1.7390346525	-0.4555383883	 0.152045
H	-2.1583996877	-0.3052702515	-0.0391224191	 0.114515
H	 1.3317633909	-1.617833074	-0.7465915776	 0.129178
H	 2.1920783472	-0.0480558804	-0.3703463637	 0.111743
H	 2.2994651396	-0.0032967539	 2.5473278567	 0.113185
H	 0.7336553075	 0.8184115474	 2.8348669784	 0.113867
H	 0.7689318688	-1.7011505817	 4.029777863	 0.250547
81.168	134.9975	153.4162	174.325	219.2923	249.0799	293.8593	334.9718	370.8437	401.2437	456.717	521.1561	631.3134	672.8427	763.7274	792.9385	874.3506	896.5117	924.323	974.9752	985.4483	1004.7053	1034.734	1059.6579	1082.7189	1129.2718	1148.8474	1152.4	1176.9342	1224.167	1280.1911	1304.6192	1374.6344	1411.601	1417.4633	1431.5948	1481.2676	1482.9011	1492.6013	1502.7256	1518.8534	1526.2564	1878.7702	3022.5845	3027.9022	3033.906	3079.3894	3083.2455	3086.4358	3099.1033	3119.27	3128.0478	3207.2696	3625.0667
CC1(C)CC11CNC1=O	CC1(C)C[C@]21CNC2=O	
InChI=1S/C7H11NO/c1-6(2)3-7(6)4-8-5(7)9/h3-4H2,1-2H3,(H,8,9)	InChI=1S/C7H11NO/c1-6(2)3-7(6)4-8-5(7)9/h3-4H2,1-2H3,(H,8,9)/t7-/m0/s1
