20
gdb 119489	4.11036	0.93454	0.8743	3.3839	78.78	-0.2163	0.0585	0.2749	1410.3422	0.169543	-403.048263	-403.039604	-403.03866	-403.082074	33.067	
C	 0.1022750255	 1.5837223172	 0.0829106517	-0.383298
C	 0.165049117	 0.055299383	 0.0440702861	-0.156343
C	 0.5589889842	-0.4920738934	-1.3381363239	-0.332797
C	 0.6033484577	-1.9881198783	-1.3876377812	 0.335478
N	 1.6825851482	-2.8064003901	-0.7851605503	-0.350738
C	 1.3597274595	-2.9431650274	-2.2298531967	-0.192512
C	 0.08530271	-3.8531745849	-2.349302267	 0.02583
O	-0.3429204148	-4.2370339231	-1.043412977	-0.211532
C	-0.6665690399	-2.9273629835	-1.5052983131	-0.022498
H	 1.0722696188	 2.0273953367	-0.1685823814	 0.113847
H	-0.6317437921	 1.9699933509	-0.633264184	 0.114089
H	-0.1805477651	 1.9447563318	 1.0763207235	 0.116053
H	 0.8812299872	-0.3093540368	 0.7901042097	 0.109211
H	-0.8076667704	-0.3629025923	 0.3319538368	 0.104108
H	-0.1531879027	-0.1258185493	-2.0912360535	 0.101269
H	 1.5402753564	-0.092252234	-1.6290453071	 0.094924
H	 2.5043935816	-2.2015263134	-0.7356472143	 0.225349
H	 2.0938153395	-2.7631417734	-3.0045956481	 0.096769
H	-0.2093633108	-4.4693676659	-3.1897581514	 0.108329
H	-1.7072018098	-2.6239531437	-1.5098188589	 0.104462
75.1457	83.5867	109.7646	244.2949	289.3697	293.5011	331.2639	423.5363	461.9941	625.8352	693.5507	736.8043	762.0084	794.3139	821.36	845.6809	864.9847	890.4559	908.0357	928.3756	941.4884	986.9099	1013.9079	1030.4569	1053.2033	1101.8149	1113.6362	1121.091	1202.6947	1211.5509	1244.3477	1279.0265	1305.0755	1318.1045	1348.9717	1364.9957	1387.5322	1412.5041	1441.2326	1473.6933	1490.8903	1500.1553	1508.7034	3001.0887	3027.1562	3029.8106	3033.5435	3063.1777	3095.8161	3104.6204	3179.3244	3194.3535	3203.1137	3452.9679
CCCC12NC1C1OC21	CCC[C@]12N[C@H]1[C@H]1O[C@@H]21	
InChI=1S/C7H11NO/c1-2-3-7-5(8-7)4-6(7)9-4/h4-6,8H,2-3H2,1H3	InChI=1S/C7H11NO/c1-2-3-7-5(8-7)4-6(7)9-4/h4-6,8H,2-3H2,1H3/t4-,5+,6-,7+/m1/s1
