18
gdb 107528	1.99564	1.64028	1.10755	4.5199	75.99	-0.2693	0.028	0.2973	1137.1654	0.148007	-401.93018	-401.921576	-401.920631	-401.963819	32.018	
O	 0.0478751856	 1.422085072	 0.145365541	-0.406615
C	 0.0359865565	 0.015835674	-0.043760567	-0.178093
C	-1.3558830771	-0.541447801	-0.0501022055	 0.334729
C	-2.0714563829	-1.0299770026	 1.1843554792	-0.343508
C	-1.8833989465	-1.9761783702	 0.0314663132	-0.111123
C	-2.9266447923	-1.6911933128	-1.0533412346	-0.245233
C	-2.3904365587	-0.2130278835	-1.150638588	-0.207998
C	-3.326672393	 0.868597138	-0.8764504346	 0.27918
N	-4.0826361805	 1.7082737047	-0.6296277737	-0.33834
H	-0.4411770326	 1.6152313847	 0.9526699846	 0.290047
H	 0.5223359277	-0.1486826022	-1.0124024534	 0.111244
H	 0.6377354133	-0.5092985438	 0.7161269536	 0.090885
H	-1.4262253395	-1.2083531244	 2.0392452781	 0.120181
H	-3.0607637949	-0.6579764728	 1.4397374092	 0.132524
H	-1.3184766665	-2.8949116304	 0.1289374752	 0.100617
H	-2.7590486535	-2.2341814628	-1.9845770959	 0.121099
H	-3.9727196667	-1.8029030415	-0.757113826	 0.122854
H	-1.9059084586	-0.0307759654	-2.1129380451	 0.127551
72.1144	92.2574	137.5507	215.7301	271.7231	312.4356	373.5444	403.7406	427.1334	536.7612	550.5324	678.0504	742.6452	802.886	856.2401	912.569	941.7579	952.5542	990.4549	1023.0244	1036.0458	1042.5934	1066.2736	1089.4934	1094.0941	1150.7358	1178.4965	1205.3857	1257.7584	1260.7396	1295.6347	1334.195	1362.0718	1405.317	1430.8144	1483.8339	1499.6319	1507.1336	2351.0448	2971.3059	3056.9467	3069.1335	3083.7426	3112.224	3129.1199	3189.5984	3202.2264	3808.1106
OCC12CC1CC2C#N	OC[C@]12C[C@H]1C[C@H]2C#N	
InChI=1S/C7H9NO/c8-3-6-1-5-2-7(5,6)4-9/h5-6,9H,1-2,4H2	InChI=1S/C7H9NO/c8-3-6-1-5-2-7(5,6)4-9/h5-6,9H,1-2,4H2/t5-,6+,7-/m1/s1
