24
gdb 64209	2.53716	1.25034	1.06765	0.9676	89.94	-0.229	0.0818	0.3108	1293.7157	0.21651	-368.379208	-368.369511	-368.368567	-368.413478	37.481	
C	-0.1403097735	 1.521901953	 0.072974698	-0.422539
C	-0.0188308711	-0.0024717946	 0.0126041253	 0.312309
C	-1.379388808	-0.6483915174	-0.232245235	-0.45486
C	 1.1422248838	-0.4562191869	-0.931790142	-0.25676
C	 2.0723683	-0.5901204476	 0.3029720322	-0.253324
C	 0.8155066065	-0.5938441313	 1.2040790462	 0.048257
N	 0.8906827553	 0.1795004196	 2.4273050611	-0.060763
C	-0.0537458163	-0.1738170545	 3.4849235789	-0.22622
C	 1.3861577068	-0.5278547488	 3.6055015328	-0.225203
H	 0.8254889646	 2.0024802539	 0.2491665831	 0.118441
H	-0.5453582484	 1.9036616077	-0.8714403961	 0.101479
H	-0.8095617892	 1.8338429452	 0.8808570012	 0.113705
H	-1.8095657582	-0.3119150375	-1.1830856131	 0.111003
H	-1.3013392337	-1.7404671362	-0.2709612749	 0.104131
H	-2.0913274461	-0.389391867	 0.5605128121	 0.110897
H	 0.9353998209	-1.4220593872	-1.4022957778	 0.092841
H	 1.443796622	 0.2499460163	-1.7097561681	 0.094308
H	 2.7300396794	-1.4607814174	 0.3542320799	 0.091389
H	 2.6676849562	 0.3101655384	 0.4739783601	 0.110661
H	 0.4888363212	-1.6315744404	 1.3992011722	 0.042255
H	-0.4674359261	 0.6582673414	 4.0474810956	 0.114647
H	-0.7515985049	-0.9883304533	 3.2959724226	 0.109974
H	 1.6497660058	-1.5788535661	 3.4958540924	 0.108578
H	 2.0431390529	 0.0405817206	 4.2575324131	 0.114795
72.1311	95.6988	164.5054	212.1068	231.8172	252.4752	300.4259	312.5971	346.9068	386.6769	446.7968	512.3771	599.9215	717.6713	762.1502	817.8746	870.9375	889.8798	895.2935	923.1397	950.359	965.2818	972.2419	998.9497	1014.1884	1050.0838	1076.7314	1109.3396	1115.2434	1129.0611	1171.4298	1183.5047	1187.5783	1214.2569	1233.6246	1254.3019	1267.244	1283.7205	1319.1023	1322.9597	1384.6204	1401.5584	1421.3742	1477.1459	1480.536	1489.6537	1490.5272	1498.652	1501.9984	1504.2025	1517.5212	2922.6719	3016.8134	3030.8355	3050.7036	3065.4572	3081.5965	3087.7457	3091.7605	3095.7594	3096.2435	3099.0373	3114.6538	3121.5947	3174.7122	3189.0211
CC1(C)CCC1N1CC1	CC1(C)CC[C@H]1N1CC1	
InChI=1S/C8H15N/c1-8(2)4-3-7(8)9-5-6-9/h7H,3-6H2,1-2H3	InChI=1S/C8H15N/c1-8(2)4-3-7(8)9-5-6-9/h7H,3-6H2,1-2H3/t7-/m1/s1
