18
gdb 125085	2.82013	1.49479	1.02583	3.2096	79.35	-0.201	0.0343	0.2353	1155.1807	0.149119	-398.119428	-398.110883	-398.109938	-398.153586	31.048	
C	-0.4252441823	 1.4260468258	-0.1499438374	-0.516423
C	-0.1086619298	-0.034747898	-0.0478456281	 0.121667
C	 0.142730697	-0.928431771	-1.0785431219	 0.31762
N	 0.4027205978	-2.1300512802	-0.4986439125	-0.257578
N	 0.349377125	-2.0899274972	 0.8535921273	-0.24314
C	 0.0345761439	-0.8264460172	 1.1158172868	-0.06876
N	 0.2493027124	-0.7307252656	-2.458854615	-0.156789
C	-0.4554844591	-1.6390888283	-3.3664389612	-0.237575
C	-0.9145083218	-0.2343477724	-3.1940073307	-0.21967
H	-0.3223541377	 1.9080887308	 0.8264869514	 0.126449
H	 0.2502020683	 1.9389336581	-0.8432364918	 0.129656
H	-1.4487511545	 1.616524008	-0.4964833647	 0.119192
H	 0.6811806992	-2.9795992429	-0.959078041	 0.268054
H	-0.0811480249	-0.5071917048	 2.142726337	 0.102498
H	 0.0997939047	-1.93224193	-4.2519185624	 0.128231
H	-1.0720746604	-2.418869271	-2.9248767552	 0.12563
H	-1.8335240182	-0.0793307553	-2.6352954091	 0.132473
H	-0.6977015999	 0.5112410612	-3.9523140715	 0.128463
49.004	61.4222	157.3931	171.0681	253.657	291.9717	377.8793	463.1649	495.418	571.9696	683.443	686.6965	715.7347	823.5533	884.2865	904.8903	914.2079	951.669	1000.2112	1038.2698	1065.6406	1112.0488	1124.0133	1134.5055	1154.0036	1175.6871	1197.5476	1242.5581	1273.7601	1341.2491	1374.3882	1420.1032	1449.6815	1486.8961	1489.3038	1498.5396	1514.5269	1542.2396	1629.5854	3020.7161	3071.2578	3105.9983	3107.3301	3116.8968	3195.3831	3211.4544	3229.3026	3675.0587
CC1=C(NN=C1)N1CC1	Cc1c([nH]nc1)N1CC1	
InChI=1S/C6H9N3/c1-5-4-7-8-6(5)9-2-3-9/h4H,2-3H2,1H3,(H,7,8)	InChI=1S/C6H9N3/c1-5-4-7-8-6(5)9-2-3-9/h4H,2-3H2,1H3,(H,7,8)
