17
gdb 8395	4.03011	1.68669	1.46879	3.4559	69.01	-0.2373	0.0272	0.2645	896.4065	0.143159	-363.847903	-363.840231	-363.839287	-363.88143	28.373	
N	 0.090228523	 1.1261038876	 0.5059596688	-0.534642
C	-0.096317415	 0.0769292537	-0.3462254201	 0.255144
O	 0.6984565515	-0.2170471716	-1.2192847604	-0.368121
C	-1.3666148955	-0.7028586103	-0.13188328	 0.282813
C	-2.472632671	-0.9397827223	-1.2074277538	-0.234993
C	-2.9199093116	-1.7478632029	 0.044038897	-0.058813
C	-1.4471060553	-2.2333384481	 0.1639155269	-0.234988
C	-2.5181783129	-0.5156889471	 0.9059236605	-0.290647
H	 0.9231056931	 1.6836560041	 0.4092262623	 0.259638
H	-0.5745459468	 1.3575254775	 1.2220082025	 0.261875
H	-3.0780954724	-0.0701552825	-1.4776682283	 0.092078
H	-2.1689434462	-1.5114132662	-2.0865126852	 0.109107
H	-3.8225733841	-2.3492031825	 0.1518570115	 0.076772
H	-1.074538196	-2.8918355754	-0.6230804528	 0.109104
H	-1.1100120307	-2.5525515547	 1.1540355744	 0.092078
H	-2.2732395772	-0.7120932066	 1.9543094023	 0.091788
H	-3.138486133	 0.3793485372	 0.7973048444	 0.091808
14.8695	108.2585	175.5908	200.4897	375.3673	448.0491	524.1646	563.0701	589.3698	647.9348	734.1593	808.1256	816.9986	884.4545	947.0628	958.5248	962.8412	965.4975	995.873	1077.9366	1099.9851	1101.1041	1132.6424	1143.6896	1162.2382	1165.2633	1195.0119	1233.756	1234.7657	1260.565	1388.7982	1498.3494	1499.6531	1554.1409	1610.9467	1789.2897	3037.3519	3054.3486	3058.5564	3102.3947	3111.7818	3126.7437	3130.7521	3603.7844	3744.885
NC(=O)C12CC(C1)C2	NC(=O)[C@@]12C[C@@H](C1)C2	
InChI=1S/C6H9NO/c7-5(8)6-1-4(2-6)3-6/h4H,1-3H2,(H2,7,8)	InChI=1S/C6H9NO/c7-5(8)6-1-4(2-6)3-6/h4H,1-3H2,(H2,7,8)/t4-,6-
