21
gdb 39025	3.00135	1.66112	1.24534	0.4392	88.11	-0.2124	0.0244	0.2369	1069.7737	0.18577	-349.96899	-349.961677	-349.960733	-350.000371	30.538	
C	-0.0275890295	 1.470774871	 0.0700974183	-0.328013
C	 1.3120769849	 0.7734356892	 0.00747717	-0.138301
C	 1.975943837	 0.412509107	 1.3458854462	-0.264968
C	 0.995406262	-0.5482709119	 2.003571928	-0.263186
C	-0.0378250044	-0.8042725588	 1.2001591364	 0.343302
C	-1.1881631164	-1.7792763369	 1.1360733167	-0.342322
C	-1.800893463	-1.5341512742	-0.2772763494	-0.200831
C	-0.677413264	-0.8708800292	-1.1221435918	-0.338217
C	 0.034136595	-0.0337529084	-0.0776164915	 0.33503
H	-0.3634879841	 1.8910743463	 1.0141400355	 0.104245
H	-0.3137734245	 2.0410507072	-0.8094374863	 0.101636
H	 1.9402780007	 0.95917118	-0.8565438915	 0.081916
H	 2.9481129105	-0.0757703865	 1.1897402517	 0.102603
H	 2.1786730747	 1.3031757654	 1.9560706081	 0.104318
H	 1.1712629351	-0.9740917322	 2.9852297471	 0.083587
H	-0.825901449	-2.8090748009	 1.2385873191	 0.113682
H	-1.9282823916	-1.6309255376	 1.9294773841	 0.111194
H	-2.1875518116	-2.4497917697	-0.732613496	 0.094082
H	-2.6407449019	-0.8361465501	-0.1919751316	 0.105207
H	-0.0062580844	-1.6394746879	-1.5265351712	 0.099337
H	-1.0718888054	-0.2971542517	-1.965147152	 0.095698
132.0313	179.1441	263.5888	284.9297	386.443	407.2251	542.8845	557.0779	642.1116	661.2952	740.5325	791.3875	815.0339	841.3527	858.8173	866.9718	901.9226	912.9957	953.4146	963.5428	991.0883	1001.7094	1035.6602	1071.4185	1078.8215	1083.0111	1107.8314	1151.9753	1185.1229	1187.4197	1232.2412	1245.9139	1260.3903	1291.4805	1298.0929	1322.5467	1338.8677	1361.1297	1394.83	1473.1838	1475.5861	1484.979	1490.0054	1503.4744	1718.5804	3005.4897	3024.0271	3031.0567	3033.7785	3045.0838	3067.5808	3088.3759	3100.0085	3106.1774	3168.7345	3190.3343	3195.0778
C1C2CC=C3CCCC123	C1[C@H]2CC=C3CCC[C@]123	
InChI=1S/C9H12/c1-2-7-3-4-8-6-9(7,8)5-1/h3,8H,1-2,4-6H2	InChI=1S/C9H12/c1-2-7-3-4-8-6-9(7,8)5-1/h3,8H,1-2,4-6H2/t8-,9-/m1/s1
