19
gdb 75839	2.53047	1.72603	1.21982	3.8464	75.67	-0.222	0.0571	0.2791	1063.1793	0.159989	-419.246657	-419.237969	-419.237025	-419.279582	33.101	
C	 0.1124927614	 1.3876002021	 0.0447244005	-0.350293
N	-0.1673790213	-0.0300908318	 0.0385987752	-0.136575
C	-0.0743260609	-0.7674389498	-1.1336655961	 0.425719
O	 0.0408486253	-0.3292518038	-2.258310762	-0.416495
N	-0.1360196457	-2.1135550488	-0.7708223506	-0.358014
C	 0.0246631347	-2.2652445496	 0.6441918564	-0.051125
C	 1.2486750898	-1.6595797043	 1.3186974267	-0.358338
C	-0.0471090015	-0.8685497852	 1.2037069902	 0.336989
C	-0.8546167923	-0.4821547457	 2.4162797825	-0.472192
H	 1.1073475014	 1.604000097	 0.4591198746	 0.115556
H	 0.0800523181	 1.7282963463	-0.9915469444	 0.165016
H	-0.6330429473	 1.9390924491	 0.62707176	 0.123004
H	 0.2625468844	-2.769571899	-1.4239291145	 0.253409
H	-0.500603702	-3.0909747461	 1.1113007297	 0.107312
H	 1.5058901293	-2.0485714048	 2.2982441711	 0.11553
H	 2.0903454842	-1.3725033092	 0.6973448689	 0.119348
H	-0.4877657557	 0.4498051729	 2.8601494663	 0.127001
H	-1.9085830682	-0.3447649976	 2.1538362706	 0.130963
H	-0.7879564038	-1.2592367218	 3.1826855149	 0.123186
111.8301	145.7157	166.6429	218.6391	248.1178	267.0884	331.2553	410.6754	464.2943	495.4783	511.6055	594.1359	702.8795	726.2403	770.8904	814.6532	835.8502	901.1321	960.1826	991.1924	1018.0327	1032.0563	1084.5667	1125.135	1148.0443	1158.798	1194.5828	1201.7255	1276.2899	1338.5688	1377.3363	1399.8808	1405.9184	1425.1408	1449.3538	1472.727	1484.7089	1493.1212	1504.6125	1520.9617	1830.218	3002.9177	3034.0587	3068.5861	3097.9573	3115.4682	3127.9221	3142.7504	3166.2	3222.4934	3638.6199
CN1C(=O)NC2CC12C	CN1C(=O)N[C@H]2C[C@@]12C	
InChI=1S/C6H10N2O/c1-6-3-4(6)7-5(9)8(6)2/h4H,3H2,1-2H3,(H,7,9)	InChI=1S/C6H10N2O/c1-6-3-4(6)7-5(9)8(6)2/h4H,3H2,1-2H3,(H,7,9)/t4-,6+/m0/s1
