20
gdb 81845	1.94521	1.71113	1.09241	2.8057	80.63	-0.2155	-0.0321	0.1833	1178.4937	0.168808	-403.107022	-403.0977	-403.096756	-403.141118	34.577	
C	-0.6118859235	 1.4255094026	 0.3414878267	-0.336208
N	-0.1210109461	 0.0766962067	 0.1167560965	-0.086666
C	 0.3499558326	-0.3104362047	-1.2081232304	-0.048206
C	 1.6729265901	 0.3115713754	-1.5723083705	-0.35587
C	 1.6389169401	-0.877745566	-0.6332437858	 0.298259
C	 2.3527878871	-2.1727326915	-0.8848942867	-0.496701
C	 1.1246236961	-0.431910258	 0.7592788415	-0.106598
C	 2.0362713612	 0.5077006433	 1.5129030746	 0.14945
O	 2.6191149976	 0.1939635324	 2.5216395479	-0.255269
H	 0.0469194452	 2.2302466535	-0.0252055305	 0.100249
H	-1.5780838178	 1.5351139741	-0.1627967386	 0.126875
H	-0.7769176253	 1.5794297445	 1.4129791225	 0.129173
H	-0.3361123339	-0.7245322756	-1.9402138154	 0.096767
H	 2.0352703489	 0.0701585599	-2.5675175455	 0.116531
H	 1.9353753413	 1.3122195337	-1.2434531509	 0.111489
H	 2.3890818325	-2.3963405391	-1.9559242241	 0.122528
H	 3.3857685252	-2.1351544203	-0.5201705152	 0.131853
H	 1.8515139251	-3.0072562667	-0.3828814744	 0.126962
H	 0.9128540177	-1.2828148938	 1.416926656	 0.098758
H	 2.1769243956	 1.5160147797	 1.0668747125	 0.076624
60.6617	122.2641	193.0682	200.7655	221.8282	226.6501	254.0556	324.7895	406.6442	446.5797	493.1486	509.1439	602.1025	684.5477	805.7843	846.0872	895.7278	959.2055	975.1042	1002.939	1029.2592	1034.5946	1063.2698	1091.1237	1104.0739	1123.412	1152.9283	1191.7057	1219.9604	1236.4926	1261.6966	1304.8198	1308.9247	1392.5944	1424.0295	1436.1519	1450.4341	1484.3356	1485.3406	1496.3765	1498.9505	1512.6781	1813.3341	2892.1542	2961.5346	3026.8984	3042.784	3057.3105	3088.451	3099.4221	3101.4076	3121.0933	3158.212	3201.286
CN1C2CC2(C)C1C=O	CN1[C@H]2C[C@@]2(C)[C@H]1C=O	
InChI=1S/C7H11NO/c1-7-3-5(7)8(2)6(7)4-9/h4-6H,3H2,1-2H3	InChI=1S/C7H11NO/c1-7-3-5(7)8(2)6(7)4-9/h4-6H,3H2,1-2H3/t5-,6+,7+/m0/s1
