21
gdb 85913	2.51748	1.3498	1.11982	2.5618	80.96	-0.2423	0.009	0.2512	1206.976	0.181121	-424.248166	-424.238563	-424.237619	-424.281783	37.254	
C	-0.2022512437	 1.5946355237	 0.1548727748	-0.501355
C	-0.1791784963	 0.1029964599	 0.101289776	 0.310299
C	-0.3971470288	-0.701155886	-0.9421989584	-0.238748
C	-0.1444204632	-2.1597881329	-0.6018443878	 0.350126
C	-1.083690189	-3.1520428869	-1.2789937379	-0.445959
O	 1.2339618798	-2.5023123893	-0.9140557904	-0.471439
C	-0.2140700137	-2.1398228307	 0.9365188529	-0.263536
C	 0.2630591351	-0.7225104227	 1.3074673327	 0.045389
O	 1.6767907431	-0.6353986081	 1.4748732984	-0.446113
H	 0.7713313789	 1.9684610862	 0.4931996798	 0.145317
H	-0.4300490391	 2.0404574544	-0.8171091459	 0.11928
H	-0.9444097189	 1.9528787629	 0.8796452411	 0.126717
H	-0.6510654006	-0.376893021	-1.9480348236	 0.084179
H	-0.9780596024	-3.1052409164	-2.3695318571	 0.103602
H	-0.8550721937	-4.1734901413	-0.9612433892	 0.125103
H	-2.1279681183	-2.9325032106	-1.0352726604	 0.118911
H	 1.3867485385	-2.2869238885	-1.8409169672	 0.274312
H	-1.2498432129	-2.2855747595	 1.2578773957	 0.097901
H	 0.4071728412	-2.9175063824	 1.3866800141	 0.110863
H	-0.1625341434	-0.3637768486	 2.2503238758	 0.073074
H	 2.0544716872	-1.0774882522	 0.7015883365	 0.282076
111.4565	132.8636	188.6028	225.2033	236.5211	261.4067	293.3401	309.945	363.9813	428.3602	446.4349	475.6133	536.3489	583.5209	609.8201	666.5863	810.5746	857.114	873.727	896.3659	910.0322	949.3734	992.1017	1015.3455	1037.0493	1063.2662	1108.6005	1117.7096	1165.0239	1190.9366	1229.8789	1280.9258	1306.0449	1319.4924	1342.5498	1374.5235	1403.8694	1407.3986	1455.8571	1472.4232	1476.6048	1487.8529	1489.6159	1491.4341	1713.9913	3021.5871	3027.0931	3053.3136	3066.1504	3074.3443	3093.2287	3112.3123	3114.2756	3118.4992	3163.4644	3747.3979	3801.5598
CC1=CC(C)(O)CC1O	CC1=C[C@@](C)(O)C[C@H]1O	
InChI=1S/C7H12O2/c1-5-3-7(2,9)4-6(5)8/h3,6,8-9H,4H2,1-2H3	InChI=1S/C7H12O2/c1-5-3-7(2,9)4-6(5)8/h3,6,8-9H,4H2,1-2H3/t6-,7-/m1/s1
