17
gdb 115088	2.42889	1.618	1.17602	0.7024	70.96	-0.2477	-0.0251	0.2226	1073.4555	0.137092	-455.177082	-455.168683	-455.167739	-455.210473	30.464	
C	-0.1172714889	 1.4004706016	 0.1643022726	-0.243071
O	-0.0510419137	 0.0013514021	-0.0581490754	-0.250765
C	-1.3117255886	-0.6496286143	-0.0950956804	-0.011879
C	-1.1083590784	-2.0278154292	-0.7273412569	-0.188104
N	-0.4720481657	-3.0251314039	 0.1258605115	-0.228811
C	-0.6492348531	-2.9000711966	 1.3730316892	 0.101727
N	-1.3729615809	-1.8827723788	 1.9987188359	-0.33195
C	-1.8274006181	-0.754017583	 1.3445709491	 0.410957
O	-2.4855899298	 0.0986881652	 1.9008698253	-0.358881
H	 0.9106296531	 1.7684847023	 0.1320016288	 0.129275
H	-0.7034476442	 1.8981464374	-0.6225241066	 0.110026
H	-0.5638419369	 1.6464255395	 1.1350270352	 0.134835
H	-2.0359351929	-0.0572548945	-0.6716836313	 0.092545
H	-2.0833380713	-2.4249712355	-1.0451437492	 0.120454
H	-0.50541184	-1.9011112181	-1.6315847775	 0.127504
H	-0.2335841649	-3.6327050589	 2.0633000558	 0.126423
H	-1.5519681557	-1.9275626855	 2.9922885238	 0.259717
75.5609	115.8639	149.6063	180.137	250.1439	285.7502	388.572	437.3997	488.2252	525.591	624.5155	639.2412	755.1702	812.1263	849.9556	910.8706	946.3189	1004.6516	1034.8287	1058.8957	1102.0819	1134.425	1187.4139	1214.9615	1250.0598	1287.7901	1313.244	1364.0564	1385.5063	1418.9595	1452.2339	1462.6923	1477.8331	1485.8596	1513.2185	1746.7217	1808.7225	2993.698	3006.0658	3019.475	3063.9437	3081.5103	3124.3706	3145.2193	3603.107
COC1CN=CNC1=O	CO[C@H]1CN=CNC1=O	
InChI=1S/C5H8N2O2/c1-9-4-2-6-3-7-5(4)8/h3-4H,2H2,1H3,(H,6,7,8)	InChI=1S/C5H8N2O2/c1-9-4-2-6-3-7-5(4)8/h3-4H,2H2,1H3,(H,6,7,8)/t4-/m0/s1
