14
gdb 127610	4.91579	0.94137	0.80269	3.9112	66.95	-0.2603	-0.0236	0.2367	1338.448	0.101113	-470.02426	-470.016033	-470.015089	-470.058726	27.658	
C	 0.0302299346	 1.4045651174	 0.0458801737	-0.311693
N	 0.0495335406	-0.0440340426	 0.0329068362	 0.16016
N	-0.1829148169	-0.7468603593	-1.0659950887	-0.209903
C	-0.092832846	-2.0174449493	-0.667048438	-0.14567
C	 0.2035120707	-2.0090050215	 0.7006061746	 0.386477
O	 0.4164023123	-3.0932757716	 1.4922337742	-0.221136
C	 0.0138999869	-3.0298232139	 2.8034570903	 0.164726
O	 0.2562706177	-3.9102620431	 3.5641419818	-0.25066
N	 0.2976521726	-0.7541072216	 1.1326640418	-0.323562
H	 0.9804472707	 1.7845743273	 0.427236165	 0.159879
H	-0.1228429991	 1.7340360548	-0.9804589017	 0.169642
H	-0.7829740163	 1.7659159815	 0.6805621692	 0.155808
H	-0.2320778755	-2.8432055493	-1.3438257223	 0.143811
H	-0.5375452324	-2.1040629489	 3.026156184	 0.122119
42.3065	72.9623	118.1353	144.2567	208.1501	339.399	400.2686	449.3796	526.5104	672.8889	715.3517	726.9383	853.3243	865.3251	1012.7015	1037.2599	1046.6867	1098.734	1103.0369	1151.0402	1196.6766	1356.8171	1366.6489	1409.5567	1426.4776	1451.3866	1467.3142	1477.4006	1510.6664	1555.6196	1882.0876	3039.2398	3060.544	3129.8764	3180.2821	3288.2275
CN1N=CC(OC=O)=N1	Cn1ncc(OC=O)n1	
InChI=1S/C4H5N3O2/c1-7-5-2-4(6-7)9-3-8/h2-3H,1H3	InChI=1S/C4H5N3O2/c1-7-5-2-4(6-7)9-3-8/h2-3H,1H3
