15
gdb 49366	1.87812	1.87508	1.51747	5.506	67.96	-0.258	-0.042	0.216	962.1851	0.109098	-457.76571	-457.756994	-457.75605	-457.799461	30.245	
O	-0.582659903	 0.8989275247	 0.5309498685	-0.243709
C	 0.0699186333	 1.3294686493	-0.3860277855	 0.155126
C	 1.3522595413	 2.0931050695	-0.2064311021	-0.134771
C	 1.3541620172	 3.5976687895	-0.0401098171	-0.13431
C	 0.0561419569	 4.3514720068	-0.1228238454	 0.154084
O	-0.9457048528	 3.8991044446	-0.616660309	-0.243175
C	 1.6723735509	 2.705337118	 1.1403467462	-0.134666
C	 0.703774381	 2.6225370906	 2.287058113	 0.154749
O	-0.158769813	 3.4392549058	 2.4900079572	-0.24353
H	-0.2055018012	 1.1289417495	-1.4402870557	 0.103551
H	 2.1780650854	 1.6827340521	-0.7833731826	 0.11974
H	 2.1957012493	 4.1501584116	-0.452201108	 0.119815
H	 0.1015171869	 5.394485945	 0.2481532183	 0.103698
H	 2.7116469943	 2.634433343	 1.4535957072	 0.119784
H	 0.8816589632	 1.7795356201	 2.9836697249	 0.103615
103.4305	105.619	146.5495	162.2999	163.156	191.5196	354.5993	355.3051	366.2473	704.585	705.3634	709.822	777.3296	777.4726	824.8529	953.5376	953.9425	997.5322	1008.9721	1009.3125	1099.2088	1099.4053	1116.3568	1183.4474	1357.4705	1357.9562	1401.5147	1408.5583	1408.9952	1418.5609	1804.3172	1804.5003	1824.8362	2937.3538	2938.1454	2938.5695	3134.4041	3134.8149	3148.6811
O=CC1C(C=O)C1C=O	O=C[C@H]1[C@@H](C=O)[C@H]1C=O	
InChI=1S/C6H6O3/c7-1-4-5(2-8)6(4)3-9/h1-6H	InChI=1S/C6H6O3/c7-1-4-5(2-8)6(4)3-9/h1-6H/t4-,5+,6-
