14
gdb 23428	2.8849	1.28787	1.07771	2.8846	70.95	-0.2533	-0.0242	0.2291	1101.5679	0.100551	-432.777022	-432.769254	-432.76831	-432.809641	28.777	
O	-0.1194510312	 1.3164924448	-0.0079962582	-0.381023
N	 0.0307520677	-0.0735005929	-0.0147728434	-0.245685
C	-1.0940638384	-0.6486716023	-0.0769053684	 0.446691
C	-2.5592071761	-0.273493188	 0.032539503	-0.274049
N	-2.9107489764	-1.7396965029	 0.2243438005	-0.135434
C	-2.4851125816	-2.4471248716	-1.0011980386	-0.163176
C	-2.5503415119	-1.8458562025	-2.3108425564	 0.31205
N	-2.6295494082	-1.3759574086	-3.364406953	-0.331551
C	-1.4399370049	-2.0884949623	 0.0085908318	-0.139522
H	 0.7923207027	 1.6246404201	 0.041232892	 0.315976
H	-2.7878964251	 0.2830805292	 0.9437423974	 0.152602
H	-3.0417422206	 0.2007869835	-0.8248013535	 0.158491
H	-2.7992730818	-3.4873755295	-0.9880492626	 0.153313
H	-0.9204431242	-2.8561104971	 0.5706727294	 0.131318
71.9027	166.6816	189.9898	214.0225	325.2673	402.0454	405.6055	484.9179	525.0833	584.5386	610.7397	724.9253	752.1362	786.2609	904.9826	919.0529	978.2519	1010.6177	1013.7902	1044.0727	1076.6379	1156.0406	1183.2797	1217.3556	1262.6069	1316.4964	1381.3354	1424.7618	1477.3409	1799.3253	2355.1519	3077.965	3135.1307	3155.6886	3189.4271	3813.5095
ON=C1CN2C(C#N)C12	ON=C1CN2[C@@H](C#N)[C@@H]12	
InChI=1S/C5H5N3O/c6-1-4-5-3(7-9)2-8(4)5/h4-5,9H,2H2	InChI=1S/C5H5N3O/c6-1-4-5-3(7-9)2-8(4)5/h4-5,9H,2H2/t4-,5+,8?/m0/s1
