16
gdb 20271	4.48375	2.60546	2.37334	1.7369	65.76	-0.2371	0.079	0.3161	650.9147	0.134142	-346.542499	-346.537635	-346.53669	-346.571111	21.555	
C	-0.0426758599	 1.5925817594	 0.0497664461	-0.248331
C	 1.4969451954	 1.4077926668	 0.0126987045	-0.050419
C	 1.8579571678	 0.6770116072	 1.3221510129	 0.090983
O	 2.9444237561	-0.2248372472	 0.9832350677	-0.299271
C	 1.945569328	-0.9455005934	 0.2426617896	 0.085299
C	 1.3030309806	 0.0546831445	-0.7808969763	-0.066088
C	-0.0700902445	 0.0537131443	-0.0242341346	-0.059853
C	 0.791356541	-0.4702578294	 1.1632222883	-0.089115
H	-0.4803683824	 2.0877715696	 0.924005141	 0.091475
H	-0.4286778403	 2.0564320963	-0.8624962839	 0.102339
H	 2.1752910642	 2.1925960974	-0.3184980362	 0.071464
H	 2.027434126	 1.2491825496	 2.2334540855	 0.080201
H	 2.2154507228	-1.9641350045	-0.0324045139	 0.079436
H	 1.4281442189	 0.024967407	-1.8603615907	 0.07011
H	-0.9415411517	-0.5217325328	-0.3320316553	 0.067195
H	 0.4185154182	-1.0025391749	 2.0352760254	 0.074574
371.073	449.239	523.6449	692.3331	712.1024	795.6094	803.8109	821.1744	846.0422	856.6321	874.2007	890.1695	920.9729	941.2798	953.137	960.2185	1001.1469	1017.4232	1058.693	1080.5068	1101.404	1128.0693	1143.7227	1170.0862	1178.8555	1220.6412	1228.4588	1232.809	1255.122	1277.2111	1298.5937	1304.4457	1334.365	1498.3702	3036.3137	3095.9079	3123.0788	3125.5031	3128.2724	3131.4536	3145.9117	3153.4537
C1C2C3OC4C2C1C34	C1[C@H]2[C@@H]3O[C@@H]4[C@H]2[C@H]1[C@H]34	
InChI=1S/C7H8O/c1-2-4-3(1)6-5(2)7(4)8-6/h2-7H,1H2	InChI=1S/C7H8O/c1-2-4-3(1)6-5(2)7(4)8-6/h2-7H,1H2/t2-,3+,4-,5+,6-,7+/m0/s1
