16
gdb 9923	3.25155	1.4971	1.45412	4.9009	66.01	-0.2493	0.0295	0.2787	942.0939	0.130154	-379.913551	-379.904983	-379.904039	-379.946365	31.158	
C	-0.028207337	 1.546186971	 0.0880622684	-0.460425
C	 0.0138997357	 0.0284040298	 0.0220209645	 0.086067
C	-1.1419472206	-0.6426821933	 0.5531456027	 0.24119
N	-2.0659191887	-1.1916424987	 0.984116176	-0.347875
C	 0.6927174088	-0.7066173425	-1.1472163881	-0.125033
N	 1.3582904845	 0.1118474804	-2.1308971713	-0.528744
C	 1.361595686	-0.7084328136	 0.200686929	 0.117229
O	 2.5121553727	 0.0365900261	 0.3498272712	-0.422619
H	 0.9657914161	 1.9629394408	-0.0739963632	 0.136731
H	-0.7151154507	 1.9636820465	-0.6547250422	 0.125759
H	-0.3692140389	 1.8642451296	 1.0766150964	 0.145441
H	 0.1967168847	-1.6178907909	-1.4761349694	 0.108066
H	 1.8737232972	-0.4719628908	-2.7816492619	 0.251439
H	 0.6993851528	 0.6607521613	-2.6730623959	 0.251567
H	 1.354272489	-1.6105912118	 0.8025664625	 0.127112
H	 2.6664130286	 0.4480058961	-0.5179538289	 0.294095
99.0331	135.3082	162.8106	204.5589	238.1075	245.8758	305.7658	432.4376	456.322	558.6048	569.2976	615.0173	648.2057	693.7745	794.9108	870.4924	904.4896	964.5044	1020.2547	1073.9625	1093.2168	1139.3248	1180.0318	1224.9824	1261.5156	1291.7838	1343.7835	1395.032	1419.1668	1459.8194	1485.3233	1500.1699	1653.6491	2341.2186	3050.2218	3114.2298	3116.3818	3153.9601	3176.63	3506.7416	3582.1345	3647.7334
CC1(C#N)C(N)C1O	C[C@@]1(C#N)[C@@H](N)[C@H]1O	
InChI=1S/C5H8N2O/c1-5(2-6)3(7)4(5)8/h3-4,8H,7H2,1H3	InChI=1S/C5H8N2O/c1-5(2-6)3(7)4(5)8/h3-4,8H,7H2,1H3/t3-,4+,5+/m0/s1
