15
gdb 26605	2.42962	1.90465	1.07158	1.698	76.21	-0.1862	-0.0297	0.1565	1045.629	0.115276	-450.16761	-450.159756	-450.158812	-450.19965	30.337	
N	-0.0003801289	 1.3762755046	-0.1136305293	-0.575556
C	-0.0339432111	-0.0033603041	-0.0543462177	 0.291723
C	-1.2091877904	-0.6941205125	 0.0227793891	 0.157467
N	-2.4553105967	-0.0445617574	 0.1070465357	-0.614098
C	-1.180058792	-2.1321090359	 0.0738113434	 0.347835
N	-2.2201721832	-2.8591734142	 0.170256528	-0.574945
O	 0.0990058477	-2.702636591	 0.0244168257	-0.217243
C	 1.1829723198	-1.9137674726	-0.0855910614	 0.11468
N	 1.1954584608	-0.6399931792	-0.1291134094	-0.324376
H	 0.9067333777	 1.7629026033	 0.1051979307	 0.257811
H	-0.7643187399	 1.8258389188	 0.3751100502	 0.259799
H	-2.6179826075	 0.5808157178	-0.6760545676	 0.245533
H	-3.1933901265	-0.7408106414	 0.1445984576	 0.265789
H	-1.9872875881	-3.8494709006	 0.1987146631	 0.22257
H	 2.0953425183	-2.4985597655	-0.1352664183	 0.14301
131.5437	179.5659	211.3688	274.5954	295.3931	340.4319	468.2621	509.908	527.1845	534.0336	542.1589	631.8681	693.3557	700.2164	760.8442	790.5623	847.7467	902.512	921.4675	952.8322	1025.4192	1116.4139	1164.6043	1245.8163	1298.9306	1344.8287	1415.2991	1439.2179	1621.5124	1637.2514	1642.5712	1701.5571	1733.0571	3201.0205	3491.2648	3521.9085	3541.1032	3583.2994	3659.4181
NC1=C(N)C(=N)OC=N1	N[C@H]1C(=C([NH])OC=N1)N	
InChI=1S/C4H6N4O/c5-2-3(6)8-1-9-4(2)7/h1,7H,5-6H2	InChI=1S/C4H7N4O/c5-2-3(6)8-1-9-4(2)7/h1,3,7H,5-6H2/t3-/m1/s1
