19
gdb 58878	2.6288	1.43429	1.09609	1.0929	70.75	-0.2547	0.0683	0.3229	1144.0289	0.157639	-460.124544	-460.115537	-460.114593	-460.158122	34.338	
C	-0.0697382553	 1.5632647523	 0.2221150928	-0.40522
C	 0.0253396907	 0.045807684	 0.0248310615	-0.01363
O	 0.6707497031	-0.5938330832	 1.1135723954	-0.431575
C	-1.3355534596	-0.5590684586	-0.1916509148	 0.394056
O	-2.1222853151	-0.7775967515	 1.0055337775	-0.321242
C	-1.882530656	-1.8902914715	 0.1114237867	-0.051795
C	-2.9397000913	-1.7891262333	-0.987902622	-0.291121
C	-2.3829373938	-0.3447049605	-1.30564302	 0.063314
O	-3.2320971941	 0.7575909213	-1.1579771381	-0.430833
H	 0.9296296403	 1.9841689919	 0.356427704	 0.123511
H	-0.5494545013	 2.0443613262	-0.6360386928	 0.130368
H	-0.664771268	 1.7921125503	 1.1127410916	 0.119583
H	 0.6430143268	-0.1671394579	-0.8567118208	 0.095996
H	 0.0218277057	-0.6150959847	 1.8291028178	 0.287507
H	-1.393830888	-2.7583733257	 0.5357456276	 0.117669
H	-2.7906172039	-2.4897670665	-1.8128253473	 0.113418
H	-3.9769792541	-1.8329009798	-0.6472799725	 0.111996
H	-1.9430122051	-0.282772994	-2.3041576901	 0.098913
H	-3.5228176711	 0.7486307113	-0.2368352666	 0.289084
76.7892	122.2095	175.0136	194.875	244.305	310.8641	317.3335	411.4391	437.1763	462.3409	488.7801	527.1007	649.7625	695.1867	713.1449	822.9267	882.4111	899.7131	923.5481	925.6771	996.6029	1042.3712	1057.5249	1084.424	1106.0574	1128.632	1148.2871	1154.7346	1197.2742	1243.9246	1266.7438	1303.0352	1314.5797	1349.3231	1403.8265	1419.2874	1435.9633	1452.5511	1478.2663	1489.6666	1499.9112	3035.32	3038.7167	3067.3873	3088.2695	3109.4112	3127.5333	3127.8008	3204.2593	3769.7415	3773.6193
CC(O)C12OC1CC2O	C[C@@H](O)[C@]12O[C@H]1C[C@H]2O	
InChI=1S/C6H10O3/c1-3(7)6-4(8)2-5(6)9-6/h3-5,7-8H,2H2,1H3	InChI=1S/C6H10O3/c1-3(7)6-4(8)2-5(6)9-6/h3-5,7-8H,2H2,1H3/t3-,4-,5+,6-/m1/s1
