21
gdb 108767	2.81719	1.10318	0.86688	4.0886	87.86	-0.2298	-0.0412	0.1885	1397.5769	0.183387	-387.145141	-387.136137	-387.135192	-387.179274	33.9	
C	 0.0561891874	 1.5649904075	-0.1138343452	-0.375086
C	-0.0407879674	 0.0349376399	 0.038905026	-0.27646
C	 0.6806707724	-0.4837220416	 1.2572739672	 0.328119
C	 0.0176042731	-0.8633478325	 2.3641198177	-0.257326
C	 0.6733368591	-1.4069506241	 3.5681026697	 0.379498
O	 0.0394236487	-1.7101962683	 4.5609170259	-0.338474
C	 2.1827031734	-1.6084642809	 3.4814715824	-0.305177
C	 2.8500032618	-0.5782720942	 2.5647176832	-0.224782
C	 2.1878364735	-0.565704178	 1.1823118676	-0.293115
H	 1.0949507289	 1.9012992467	-0.1880809063	 0.122048
H	-0.4641041006	 1.8923132187	-1.0187453198	 0.121544
H	-0.3994805038	 2.0694332251	 0.7433039799	 0.129218
H	-1.0949366826	-0.2561864935	 0.0866748104	 0.112113
H	 0.3821367796	-0.4397494567	-0.856808796	 0.107165
H	-1.0664281457	-0.8024142083	 2.4167317082	 0.092685
H	 2.5895782214	-1.5935345473	 4.4956906459	 0.12018
H	 2.3501666429	-2.6212109641	 3.0857668079	 0.119313
H	 2.7556166776	 0.4187040334	 3.0127042184	 0.109669
H	 3.9214357938	-0.7830384954	 2.4709206614	 0.101015
H	 2.45336323	-1.4798845253	 0.6280656617	 0.118729
H	 2.5765057463	 0.2622436289	 0.5783182637	 0.109125
62.4617	97.618	136.6521	198.1575	245.7761	278.496	319.537	426.8942	454.4194	483.4138	545.3661	576.9223	655.354	762.4331	784.7764	842.8427	865.0035	899.7536	932.2181	957.5537	983.3706	1051.1246	1064.5758	1076.1335	1092.1729	1147.8403	1165.6284	1208.7063	1258.1737	1266.9815	1277.0515	1341.307	1345.4933	1350.7704	1374.5058	1394.4679	1408.4566	1458.605	1471.9185	1483.6486	1496.1101	1498.954	1507.1123	1684.3617	1771.7662	2990.8226	3010.2734	3018.8704	3031.3734	3039.9479	3056.604	3073.7	3076.8906	3101.0874	3111.1516	3116.6077	3165.4468
CCC1=CC(=O)CCC1	CCC1=CC(=O)CCC1	
InChI=1S/C8H12O/c1-2-7-4-3-5-8(9)6-7/h6H,2-5H2,1H3	InChI=1S/C8H12O/c1-2-7-4-3-5-8(9)6-7/h6H,2-5H2,1H3
