13
gdb 33582	2.2098	1.65022	1.20899	4.154	62.88	-0.3127	-0.0405	0.2722	1015.5681	0.089229	-452.742018	-452.734122	-452.733177	-452.775145	27.617	
N	 0.0873913677	-1.1713794894	 0.0106214636	-0.311911
C	 0.0438437706	-0.0180708792	-0.0093515673	 0.294287
C	-0.0235264591	 1.4578736478	 0.0059885888	 0.091226
C	-0.6166900782	 1.9941494529	 1.3607531112	-0.149408
O	 0.54570235	 2.2210706903	 2.1177687821	-0.216925
C	 1.4745463757	 2.7290570948	 1.2036523231	 0.012107
O	 1.2884527406	 1.9936232143	-0.0125557286	-0.268802
C	-0.8025995531	 1.938331075	-1.1497582543	 0.283736
N	-1.4323193822	 2.3417187373	-2.0291128388	-0.310869
H	-1.1738935752	 2.9199930381	 1.1646003796	 0.138076
H	-1.2500148247	 1.2687727507	 1.8695633271	 0.167958
H	 1.3058138401	 3.7991496725	 1.0058852335	 0.118703
H	 2.4851333377	 2.5504596751	 1.57511252	 0.151821
63.1715	128.6671	166.3198	185.0545	265.4546	299.1486	474.9743	507.9193	511.8819	586.7743	587.7533	734.4472	778.0413	934.8892	973.036	993.6598	1053.4509	1099.9988	1118.1308	1166.9312	1185.1477	1218.169	1279.4535	1357.7909	1423.6579	1503.256	1542.4125	2366.7252	2370.1483	2988.2421	3023.9406	3125.0276	3153.5002
N#CC1(COCO1)C#N	N#CC1(COCO1)C#N	
InChI=1S/C5H4N2O2/c6-1-5(2-7)3-8-4-9-5/h3-4H2	InChI=1S/C5H4N2O2/c6-1-5(2-7)3-8-4-9-5/h3-4H2
