19
gdb 38090	2.74229	2.16674	1.84045	0.0741	82.96	-0.2223	0.0064	0.2286	856.1305	0.163764	-348.746521	-348.740494	-348.73955	-348.776305	27.072	
C	-0.038745908	 1.541549788	 0.0566891438	-0.226674
C	 1.5211047991	 1.4919127137	 0.0102119574	-0.094767
C	 1.9648263894	 1.2499647374	 1.4256369429	-0.043742
C	 1.4080488083	 0.220481035	 2.0710855955	-0.076541
C	 0.5485077039	-0.7284502962	 1.2464108412	-0.126822
C	 1.5900224119	-1.6723725717	 0.6340643549	-0.07497
C	 2.0810120415	-1.1377647464	-0.4906839088	-0.078655
C	 1.3275077343	 0.1079053865	-0.8214476763	-0.040984
C	 0.001093433	 0.0029596109	-0.0243773166	-0.022322
H	-0.4928787705	 2.0245550066	 0.9246353926	 0.092392
H	-0.4602107863	 1.954813273	-0.864997242	 0.092407
H	 2.0565751585	 2.3013393591	-0.4867654964	 0.059297
H	 2.6842706867	 1.9150029497	 1.8931185087	 0.083229
H	 1.6422940311	-0.0306619083	 3.100695621	 0.086109
H	-0.22436691	-1.2239171787	 1.8390119335	 0.063388
H	 1.962769293	-2.5530167018	 1.1446704741	 0.093129
H	 2.9197488637	-1.5199834467	-1.061027822	 0.08894
H	 1.2232962781	 0.3354742608	-1.8845161859	 0.067219
H	-0.8413039479	-0.536985731	-0.4648634675	 0.059369
291.3647	312.4043	390.9042	428.331	523.6212	585.6796	643.2759	668.6075	719.8243	734.988	773.4402	797.1087	843.397	871.6219	905.1333	933.3355	950.1126	955.1878	966.4028	970.5184	980.1295	1013.248	1056.7073	1072.1942	1105.1622	1111.7077	1126.8115	1167.301	1200.9645	1229.7731	1246.4555	1259.7905	1283.9112	1311.3717	1321.8903	1333.1357	1368.725	1392.4539	1488.7523	1640.8537	1674.7033	3048.0565	3065.5689	3077.2304	3085.2996	3101.8236	3110.6467	3162.2571	3184.4929	3186.8007	3210.3919
C1C2C=CC3C=CC2C13	C1[C@H]2C=C[C@@H]3C=C[C@H]2[C@H]13	
InChI=1S/C9H10/c1-2-7-5-9-6(1)3-4-8(7)9/h1-4,6-9H,5H2	InChI=1S/C9H10/c1-2-7-5-9-6(1)3-4-8(7)9/h1-4,6-9H,5H2/t6-,7-,8-,9-/m1/s1
