19
gdb 89201	2.53652	1.57335	1.22214	3.377	76.96	-0.2331	0.0264	0.2595	1098.7601	0.158893	-419.185045	-419.176371	-419.175426	-419.218039	33.142	
C	-0.7582889291	 1.227072086	-0.1223330868	-0.393268
C	 0.0410806517	-0.0528523313	 0.0376169168	 0.025533
N	 1.2897153249	-0.1350630881	-0.7846045318	-0.363791
C	 2.0934227892	-0.5791910935	 0.3967246392	 0.200842
C	 2.8892602351	-1.851617586	 0.2855197728	-0.507087
C	 0.8811787127	-0.2637749144	 1.3152679074	 0.034835
O	 1.5560885468	 0.9406426059	 1.7893023188	-0.280603
C	 2.704064841	 0.6469146123	 1.0623082758	 0.45171
N	 3.8183168793	 1.215056662	 1.0311951904	-0.557737
H	-0.1326698847	 2.0947282497	 0.0978983048	 0.138502
H	-1.1273400498	 1.3194839212	-1.1484732691	 0.1193
H	-1.6211997804	 1.2340585995	 0.5525204202	 0.11363
H	-0.6059302223	-0.9307946899	-0.1026135685	 0.073795
H	 1.2528068304	-0.8339300371	-1.5183141872	 0.219655
H	 3.6834000494	-1.7272158543	-0.4582908513	 0.149473
H	 3.3642918436	-2.1041521848	 1.2376799846	 0.136691
H	 2.2545534479	-2.6895043928	-0.0216500984	 0.116584
H	 0.5020695059	-0.8600170915	 2.1442029078	 0.0938
H	 3.8384624085	 2.0413220471	 1.6318555746	 0.228136
95.0881	172.4338	195.3977	211.5315	222.6952	260.8969	285.1426	403.1693	417.7582	566.3662	602.4826	661.2837	690.4505	767.5735	788.582	844.6816	866.2105	893.8417	905.2998	952.0065	983.2163	993.0164	1048.9126	1102.5644	1114.293	1146.0094	1168.2968	1194.9368	1236.1882	1250.8744	1323.4237	1335.7499	1372.0812	1400.7683	1409.0344	1420.3082	1485.2263	1486.5921	1489.1232	1494.4023	1829.5428	2996.3955	3034.6375	3039.3818	3103.9882	3104.9642	3115.2502	3123.4715	3134.4965	3471.5797	3534.476
CC1NC2(C)C1OC2=N	C[C@H]1N[C@]2(C)[C@H]1O[C]2[NH]	
InChI=1S/C6H10N2O/c1-3-4-6(2,8-3)5(7)9-4/h3-4,7-8H,1-2H3	InChI=1S/C6H10N2O/c1-3-4-6(2,8-3)5(7)9-4/h3-4,7-8H,1-2H3/t3-,4+,6-/m1/s1
