18
gdb 71686	2.74662	2.28477	1.70309	1.1264	73.66	-0.2194	0.067	0.2864	846.4092	0.150177	-401.879726	-401.873344	-401.8724	-401.909965	27.424	
O	-0.1288134938	 1.3430382619	 0.079231615	-0.49439
C	-0.0257994933	-0.0434361776	 0.0084380535	 0.406779
C	 0.4303203585	-0.812562401	-1.2627249262	-0.311465
C	-0.4081203821	-1.932480341	-0.6471863857	 0.002798
C	-1.349221191	-0.9128222672	 0.0469338206	-0.109392
C	-1.1650035889	-1.6603429553	 1.3846466316	 0.001907
C	-0.3435725926	-0.7862756632	 2.3352668345	-0.253303
C	 0.6461864614	-0.8152031607	 1.1593418481	-0.064745
N	 0.1324639938	-2.2104386325	 0.763204692	-0.165421
H	 0.7596937475	 1.7149226656	 0.1175462164	 0.280592
H	-0.0409825315	-0.4121672504	-2.1645738588	 0.10795
H	 1.5006831059	-0.9755933776	-1.4273728643	 0.0936
H	-0.7139049219	-2.8299938711	-1.1810058872	 0.077547
H	-2.2695262796	-0.4935308174	-0.3566885272	 0.073527
H	-1.921376499	-2.3715440197	 1.7183822026	 0.073713
H	-0.738665462	 0.1845865756	 2.6422284294	 0.10727
H	 0.0173410925	-1.3538940392	 3.1956351608	 0.109501
H	 1.723753436	-0.6943335492	 1.2920224149	 0.063532
218.8542	273.4031	291.2875	415.0432	434.8787	483.203	590.4662	707.7499	728.5116	772.8146	805.4239	819.5143	846.6553	873.3882	913.8996	921.8832	956.9315	971.7767	982.897	994.3846	1010.0502	1039.58	1070.8394	1102.9503	1133.8327	1148.3111	1170.5571	1193.352	1209.8689	1228.1866	1238.7761	1246.6596	1264.9069	1277.939	1308.2407	1325.0623	1376.5101	1478.4613	1485.9513	3043.2107	3068.2274	3086.7613	3108.0826	3109.9816	3126.2495	3132.2197	3137.5073	3794.9732
OC12CC3C1C1CC2N31	O[C@]12C[C@@H]3[C@H]1[C@@H]1C[C@H]2N31	
InChI=1S/C7H9NO/c9-7-2-4-6(7)3-1-5(7)8(3)4/h3-6,9H,1-2H2	InChI=1S/C7H9NO/c9-7-2-4-6(7)3-1-5(7)8(3)4/h3-6,9H,1-2H2/t3-,4+,5+,6+,7-/m0/s1
