18
gdb 27542	4.89133	0.99207	0.86065	1.5332	80.99	-0.1709	0.0562	0.2271	1337.1435	0.149242	-398.12157	-398.112971	-398.112027	-398.155168	32.411	
N	 0.0320304308	 1.4061313494	-0.2853423048	-0.609398
C	-0.0164477065	 0.0112268015	-0.0793919726	 0.316068
C	-1.0317849159	-0.9131152657	-0.1884038378	-0.324877
C	-0.4579849445	-2.2000001405	 0.0572674608	 0.290409
C	 0.8818684222	-2.0190546804	 0.3143411423	-0.186266
N	 1.1339123205	-0.6591284775	 0.2364669764	-0.275869
N	-1.1837425236	-3.4071080918	 0.1292402594	-0.148506
C	-1.7457241074	-3.9561276848	-1.1034657919	-0.222851
C	-0.5872494869	-4.6108147595	-0.4327255038	-0.224224
H	 0.0846251417	 1.9211482963	 0.5893924777	 0.24285
H	-0.79821161	 1.7194923996	-0.7730462455	 0.245745
H	-2.0713544374	-0.7023757573	-0.3868297176	 0.081492
H	 1.651355406	-2.7208705217	 0.587949585	 0.108236
H	 2.0427532823	-0.2308364388	 0.2375375477	 0.25533
H	-2.7434988748	-4.3767840507	-1.0173680118	 0.112561
H	-1.5444523371	-3.4221687104	-2.0295158268	 0.11533
H	 0.3812331516	-4.51271531	-0.9191863631	 0.111198
H	-0.7246005909	-5.5203987076	 0.1450369765	 0.112773
54.6595	120.1235	144.4653	184.2039	256.2868	352.0488	368.4654	458.1951	499.9266	548.0502	625.4116	657.1447	689.7117	710.4901	769.6278	823.1709	833.2909	891.5457	911.9211	989.4828	1009.8528	1035.6946	1109.6774	1115.8567	1127.2226	1145.1648	1167.2807	1173.4987	1187.9942	1260.2771	1287.1127	1361.7124	1427.7223	1487.4339	1488.8813	1514.5681	1566.1737	1627.5943	1657.4049	3098.9389	3103.7131	3181.4085	3196.036	3248.2272	3273.9125	3487.2134	3595.4729	3685.5575
NC1=CC(=CN1)N1CC1	Nc1cc(c[nH]1)N1CC1	
InChI=1S/C6H9N3/c7-6-3-5(4-8-6)9-1-2-9/h3-4,8H,1-2,7H2	InChI=1S/C6H9N3/c7-6-3-5(4-8-6)9-1-2-9/h3-4,8H,1-2,7H2
