23
gdb 118297	4.65551	0.52915	0.49499	2.9351	85.03	-0.249	-0.0195	0.2294	2217.0933	0.202207	-425.430563	-425.419142	-425.418197	-425.468756	39.055	
C	 0.0071507622	 1.4067141633	 0.0697932503	-0.22855
O	 0.0345141651	 0.0003171457	 0.052060387	-0.234244
C	-1.2519601795	-0.5768571658	 0.0111197	-0.055551
C	-1.1182293094	-2.1013704994	 0.0284773906	 0.00932
C	-0.4156230491	-2.5701365889	 1.3090347406	-0.393851
C	-2.5052520384	-2.7403125506	-0.1655630244	-0.20149
C	-2.4712517953	-4.2646707577	-0.3776689149	-0.283288
C	-3.8628714036	-4.8362517651	-0.5153650173	 0.161418
O	-4.2600620826	-5.4804497381	-1.4515817807	-0.238072
H	 1.0425103036	 1.7548524256	 0.1001051639	 0.127698
H	-0.4794655513	 1.8178604141	-0.8290842207	 0.104145
H	-0.5247258615	 1.7947771319	 0.9531674398	 0.103729
H	-1.8518593332	-0.2380182611	 0.8756964915	 0.080602
H	-1.7854024724	-0.2519246609	-0.898991521	 0.083139
H	-0.4904872056	-2.3711645752	-0.8317864194	 0.087058
H	 0.5259266563	-2.0324621639	 1.4382964605	 0.137883
H	-1.0403621685	-2.3744938745	 2.1896191569	 0.107301
H	-0.1933326514	-3.6408114575	 1.2859989414	 0.112768
H	-3.1352790573	-2.5093968927	 0.7051550956	 0.100384
H	-2.9958090857	-2.2788103923	-1.0320997492	 0.107998
H	-1.8928429103	-4.5337199563	-1.2665899993	 0.121776
H	-2.0066159678	-4.7478996745	 0.492669755	 0.121944
H	-4.5355756341	-4.6072994759	 0.3460346634	 0.067885
47.3283	60.1933	76.6784	93.9506	121.6536	131.8441	230.1779	233.9494	252.093	281.2377	327.7492	382.2002	441.536	523.1216	542.0832	763.8872	832.9883	876.1345	931.4701	943.4511	990.9528	1012.4096	1021.1011	1060.5255	1134.2819	1158.856	1161.944	1171.3617	1190.4613	1216.1432	1230.1327	1260.2405	1280.2116	1319.0084	1324.2739	1382.8322	1384.5447	1407.1065	1425.6228	1431.1121	1464.9168	1480.8164	1485.9072	1491.9939	1496.4893	1503.7286	1509.9516	1527.9818	1837.0562	2843.5225	2935.1325	2965.8148	2970.1455	3007.1247	3012.46	3018.307	3025.2842	3031.6149	3050.4444	3098.371	3099.8127	3113.6197	3131.3747
COCC(C)CCC=O	COC[C@@H](C)CCC=O	
InChI=1S/C7H14O2/c1-7(6-9-2)4-3-5-8/h5,7H,3-4,6H2,1-2H3	InChI=1S/C7H14O2/c1-7(6-9-2)4-3-5-8/h5,7H,3-4,6H2,1-2H3/t7-/m0/s1
