15
gdb 19032	4.13964	2.18561	1.86214	2.6566	64.05	-0.2452	-0.023	0.2223	735.9862	0.121184	-362.649267	-362.643467	-362.642523	-362.679065	23.359	
O	 0.0138674251	 0.003511683	-0.1004653338	-0.321907
C	-0.0239768993	 1.2013292718	 0.0165153995	 0.412908
C	-1.2698878671	 2.0936904124	 0.0723375969	-0.329168
C	-0.6957302464	 3.4275101797	 0.5260032695	-0.003189
C	-0.0568588377	 3.3428733027	 1.9376485	-0.258747
C	 1.253457481	 3.1091320575	 1.2059283893	-0.020134
C	 1.1465272934	 2.1354912888	 0.069110752	-0.1522
N	 0.7062677451	 3.5433087089	-0.1160982306	-0.14696
H	-1.6850180414	 2.1649440407	-0.9407214646	 0.139066
H	-2.0387551218	 1.6778600313	 0.7283988798	 0.131678
H	-1.3122716707	 4.2984188703	 0.313076635	 0.093827
H	-0.0527428786	 4.3121083799	 2.4404993737	 0.121387
H	-0.4233604708	 2.5792798096	 2.6303347945	 0.110952
H	 2.2382608214	 3.4163959561	 1.5451759021	 0.10628
H	 2.0661005178	 1.8473365273	-0.4271550534	 0.116205
129.2941	314.2135	368.6048	449.7087	560.3528	608.8884	652.8556	751.9035	776.2645	809.4078	826.5645	867.1277	880.8255	957.2302	980.8028	1009.2365	1046.2132	1062.5033	1080.6465	1127.0611	1157.646	1162.7162	1191.0138	1239.8076	1262.3548	1290.1116	1317.7864	1351.5274	1369.0087	1447.9851	1498.7041	1843.8239	3041.9603	3054.8686	3108.1618	3114.0941	3134.4636	3156.8709	3191.0337
O=C1CC2CC3C1N23	O=C1C[C@H]2C[C@H]3[C@@H]1N23	
InChI=1S/C6H7NO/c8-5-2-3-1-4-6(5)7(3)4/h3-4,6H,1-2H2	InChI=1S/C6H7NO/c8-5-2-3-1-4-6(5)7(3)4/h3-4,6H,1-2H2/t3-,4+,6+,7?/m1/s1
