21
gdb 91387	2.80288	1.38682	1.16562	1.3744	78.39	-0.248	0.0775	0.3254	1163.5109	0.182774	-424.227541	-424.21894	-424.217996	-424.261017	32.961	
C	 0.2385313786	 1.5592920223	-0.1086286465	-0.400846
C	 0.0516172507	 0.0718040783	 0.0840413667	 0.133298
O	 0.8277108643	-0.7290651873	-0.8500639713	-0.317198
C	 1.3480830627	-1.5586498464	 0.2144098487	 0.111468
C	 2.8653343244	-1.4563574783	 0.4102794059	-0.272052
C	 3.0040053816	-0.6743966094	 1.734894958	 0.155166
C	 4.1899842765	 0.2697143318	 1.8177894213	-0.403529
O	 1.7960739852	 0.0920226076	 1.8546110433	-0.273294
C	 0.7300148521	-0.634520464	 1.282136897	 0.027985
H	 1.2761081881	 1.8419514943	 0.0773744862	 0.12882
H	-0.0315225599	 1.8372008009	-1.1320532003	 0.122884
H	-0.4042985095	 2.117588324	 0.5802091689	 0.116451
H	-1.0108117637	-0.2016547888	 0.0117424802	 0.069353
H	 0.9700382669	-2.5837369299	 0.1444802334	 0.07421
H	 3.3587978457	-2.4304476151	 0.4575654277	 0.101411
H	 3.2896602931	-0.8916116364	-0.4248544978	 0.11829
H	 3.0502276278	-1.3906618586	 2.5724741413	 0.067596
H	 4.1606714639	 0.9909377067	 0.9951979951	 0.12541
H	 4.1806981043	 0.8206031843	 2.7623469883	 0.126356
H	 5.1274733741	-0.291628278	 1.7560434077	 0.117056
H	 0.075493163	-1.0592739582	 2.0511781062	 0.071164
70.811	82.7671	200.9021	222.7126	250.2719	306.9826	376.1554	400.5799	451.2278	534.6616	588.1637	647.4469	805.7454	830.2122	842.0705	867.7878	897.5436	915.4451	936.8652	968.2027	1011.8038	1042.704	1084.2794	1099.3483	1123.1816	1144.0558	1156.5779	1162.2611	1216.0626	1236.641	1252.3311	1294.0597	1314.706	1341.8682	1342.981	1377.4071	1387.9707	1394.1633	1409.7218	1413.8691	1479.8957	1482.3036	1485.2349	1492.1135	1497.5401	2955.3353	2998.383	3038.3123	3040.3108	3043.1709	3053.1438	3062.9841	3109.2144	3111.8063	3115.3015	3119.7036	3141.0285
CC1OC2CC(C)OC12	C[C@H]1O[C@H]2C[C@@H](C)O[C@@H]12	
InChI=1S/C7H12O2/c1-4-3-6-7(8-4)5(2)9-6/h4-7H,3H2,1-2H3	InChI=1S/C7H12O2/c1-4-3-6-7(8-4)5(2)9-6/h4-7H,3H2,1-2H3/t4-,5-,6+,7+/m1/s1
