21
gdb 86001	1.92672	1.47074	1.36589	1.5168	78.36	-0.2462	-0.0342	0.2121	1142.0491	0.179637	-424.229999	-424.22001	-424.219066	-424.264424	37.364	
C	-0.4744913311	 1.4263236975	-0.1285557928	-0.41049
C	-0.0727341306	-0.0403969738	 0.0026850471	 0.008611
C	 1.0959564033	-0.4752289531	-0.930706673	-0.299476
C	 2.0545612062	-0.555324849	 0.2913407997	 0.286666
O	 2.7450665789	-1.7707315103	 0.5182420772	-0.479053
C	 3.0318208439	 0.5996230613	 0.4137873808	 0.090702
O	 2.9133355922	 1.6814976909	-0.1051894107	-0.247458
C	 0.809421384	-0.4310062026	 1.2366138994	-0.000434
C	 0.856459276	 0.454333726	 2.4743001627	-0.434356
H	 0.3988216195	 2.0840935196	-0.1221250869	 0.145011
H	-1.002122742	 1.5868876849	-1.0751494924	 0.111476
H	-1.1465861602	 1.7327575359	 0.680241635	 0.109462
H	-0.9648943497	-0.6662875286	-0.0888242384	 0.070589
H	 0.9573533015	-1.462971567	-1.3756426946	 0.10196
H	 1.3842671799	 0.2452384124	-1.6996153703	 0.113318
H	 3.3705061294	-1.9089497634	-0.2022120428	 0.281284
H	 3.910984724	 0.3517694	 1.0520923424	 0.086174
H	 0.5817593241	-1.4600613216	 1.5319780218	 0.093417
H	 1.1045851201	 1.4920906454	 2.2340677417	 0.1319
H	-0.1153931096	 0.4552087399	 2.9791808218	 0.119027
H	 1.5984515502	 0.0855654657	 3.1908084221	 0.121669
71.1844	100.7577	211.5936	215.8833	227.5974	245.593	252.8505	276.2441	314.2873	346.4316	390.7999	452.2641	508.2602	578.5434	631.3793	760.9073	785.7908	849.0524	873.0601	903.2685	979.2095	994.2163	1036.3121	1058.8007	1064.2054	1115.5022	1147.1683	1184.3881	1201.2441	1204.7154	1251.1898	1278.6991	1293.8046	1331.0633	1360.8176	1370.2224	1403.9209	1409.4404	1415.422	1463.2795	1492.0694	1496.7327	1508.2056	1512.2194	1817.843	2874.4983	3031.532	3034.8331	3049.8192	3060.7439	3068.388	3092.4227	3096.5761	3112.7893	3120.7872	3128.5178	3794.3794
CC1CC(O)(C=O)C1C	C[C@H]1C[C@@](O)(C=O)[C@H]1C	
InChI=1S/C7H12O2/c1-5-3-7(9,4-8)6(5)2/h4-6,9H,3H2,1-2H3	InChI=1S/C7H12O2/c1-5-3-7(9,4-8)6(5)2/h4-6,9H,3H2,1-2H3/t5-,6-,7+/m0/s1
