17
gdb 41252	2.99045	2.15807	1.72596	1.6444	70.64	-0.2251	0.0449	0.27	825.4705	0.139883	-417.882309	-417.876438	-417.875494	-417.912199	25.351	
C	 0.0376422668	 1.5048007737	-0.0993186112	-0.213304
O	 1.4721655087	 1.4023483923	 0.1923237582	-0.320063
C	 1.2472837312	 0.0694369372	 0.7479676786	 0.174117
C	 1.8582171795	-1.224301443	 0.1952635527	-0.101505
N	 1.9572665273	-1.0121993556	-1.2700678536	-0.303872
C	 0.4956074353	-0.940631448	-1.2379507791	-0.049792
C	 0.4113366645	-1.9355281959	-0.0787656173	-0.011229
N	-0.7116229843	-1.186019569	 0.6163146723	-0.398756
C	-0.0359182488	-0.0230961525	-0.0398152026	 0.216922
H	-0.4938699944	 2.0367488815	 0.699560901	 0.11595
H	-0.1481233623	 1.9854336705	-1.0651240069	 0.110768
H	 1.1371933772	 0.1033032007	 1.8347466642	 0.089755
H	 2.6868450356	-1.723608867	 0.6951514469	 0.075578
H	 2.4100369879	-0.1255414147	-1.4944316008	 0.225774
H	-0.0858650467	-0.9868948732	-2.1604829747	 0.076524
H	 0.357151579	-3.01882459	-0.1569212327	 0.093506
H	-1.5539333165	-1.4490634169	 0.099059595	 0.219626
256.4212	265.9206	391.7877	458.2172	503.9264	596.0936	689.8151	699.8416	753.2548	790.4154	844.7956	867.944	894.8449	906.3606	933.9488	946.7298	992.9035	1004.4804	1021.8196	1034.0887	1053.6792	1078.777	1098.1591	1129.521	1151.0688	1177.064	1201.679	1223.801	1243.0252	1256.6384	1278.5461	1308.4431	1321.6427	1342.232	1361.2237	1364.0198	1507.4939	3021.8488	3081.2626	3083.0186	3102.3852	3131.0188	3154.7736	3422.4857	3454.3411
C1OC2C3NC4C3NC124	C1O[C@@H]2[C@@H]3N[C@H]4[C@@H]3N[C@@]124	
InChI=1S/C6H8N2O/c1-6-4-2(8-6)3(7-4)5(6)9-1/h2-5,7-8H,1H2	InChI=1S/C6H8N2O/c1-6-4-2(8-6)3(7-4)5(6)9-1/h2-5,7-8H,1H2/t2-,3-,4+,5-,6-/m1/s1
