17
gdb 72824	2.86278	1.56947	1.28147	3.7763	67.37	-0.2661	0.0024	0.2685	1015.0339	0.13638	-458.993554	-458.985783	-458.984839	-459.025977	29.274	
C	-0.0946354977	 1.4899779967	 0.0380551192	-0.463609
C	 0.028718225	-0.0191198602	 0.038145502	 0.404833
C	-1.2951819377	-0.7746041562	-0.1347471016	-0.121695
O	-1.1932776358	-1.9845146043	 0.6297153658	-0.224677
C	-0.1103613114	-1.9862042634	 1.4562029482	 0.447748
O	 0.0958583238	-2.8669150517	 2.2387488258	-0.34212
C	 0.746377364	-0.7606816775	 1.1834767066	-0.2887
C	 1.8478029807	-1.0293268662	 0.1355273142	-0.08935
O	 1.0238336043	-0.4826179772	-0.9158817844	-0.322013
H	 0.8842628963	 1.9559651817	 0.1779530092	 0.132047
H	-0.4982624419	 1.8356951553	-0.9196413982	 0.136501
H	-0.7623119376	 1.8308773158	 0.8357459559	 0.12552
H	-2.1505214213	-0.2013350166	 0.2396701862	 0.114041
H	-1.4616595353	-1.0360707907	-1.1827124996	 0.136405
H	 1.0252703608	-0.2439759187	 2.1002240779	 0.113369
H	 2.7600721829	-0.4404622299	 0.287990477	 0.112608
H	 2.1156248609	-2.0762006468	-0.0385364544	 0.129094
83.4382	153.188	217.9602	222.8453	279.1323	342.8524	381.0473	491.7163	577.5698	641.169	706.8554	753.9264	797.5635	874.1698	899.8613	940.051	971.7885	990.764	1009.2955	1069.3255	1074.3284	1120.9386	1157.7586	1160.5977	1180.8149	1237.6346	1252.6255	1254.6618	1308.91	1345.5498	1404.5042	1412.2953	1483.9885	1490.5893	1503.6254	1527.3723	1880.5748	3026.9399	3036.5359	3044.8359	3083.0801	3106.0553	3109.8922	3121.0079	3134.139
CC12COC(=O)C1CO2	C[C@]12COC(=O)[C@H]1CO2	
InChI=1S/C6H8O3/c1-6-3-8-5(7)4(6)2-9-6/h4H,2-3H2,1H3	InChI=1S/C6H8O3/c1-6-3-8-5(7)4(6)2-9-6/h4H,2-3H2,1H3/t4-,6+/m1/s1
