18
gdb 69584	3.68669	1.32249	1.1847	2.504	78.09	-0.2383	-0.0037	0.2346	1097.3484	0.147634	-401.910893	-401.90309	-401.902146	-401.942849	30.939	
C	-0.1056628806	 1.530072511	 0.0549976014	-0.49148
C	 0.1305649067	 0.04841364	-0.0083579241	 0.378959
O	-0.6844525666	-0.7723321436	 0.8709267167	-0.298048
C	 0.7388289701	-0.7800133518	 1.0484469183	-0.153402
C	 1.4456646539	-1.9295903075	 0.3744031666	 0.33069
C	 2.7336861063	-2.4543695805	 0.9129626424	-0.289675
N	 1.5256905461	-3.2836818739	 0.9559535408	-0.354903
C	 1.1373087799	-1.769711032	-1.0776832085	-0.139325
C	 0.4350948172	-0.6560053892	-1.3029337248	-0.154192
H	 0.7459660096	 2.0775409944	-0.3622684106	 0.126937
H	-0.9955027311	 1.8028002522	-0.5232081212	 0.130386
H	-0.2606709013	 1.8510740567	 1.0877238616	 0.131765
H	 1.0981333858	-0.3869028422	 1.9975079262	 0.090724
H	 3.503794972	-2.7990199547	 0.2283695202	 0.121255
H	 3.1093055809	-2.0114042167	 1.8333294803	 0.113348
H	 1.1182990439	-3.2795311946	 1.8881945011	 0.240955
H	 1.4317645929	-2.5115219572	-1.8101106374	 0.113245
H	 0.0860210543	-0.3006249304	-2.264933939	 0.10276
113.1451	190.8352	218.8042	244.6577	316.4732	356.7764	415.086	464.545	537.2047	612.128	633.8522	742.3787	771.4664	837.5292	854.6241	882.0226	906.5341	922.7783	949.275	956.2524	982.4959	1019.2025	1044.6633	1077.1486	1095.2507	1113.4087	1144.212	1226.4326	1248.7306	1274.8301	1324.4585	1347.3904	1380.0301	1414.2604	1451.6112	1483.9318	1494.7448	1507.8794	1656.768	3035.7653	3097.2826	3098.2968	3126.202	3129.5022	3186.3103	3196.9028	3220.7752	3499.1103
CC12OC1C1(CN1)C=C2	C[C@]12O[C@H]1[C@]1(CN1)C=C2	
InChI=1S/C7H9NO/c1-6-2-3-7(4-8-7)5(6)9-6/h2-3,5,8H,4H2,1H3	InChI=1S/C7H9NO/c1-6-2-3-7(4-8-7)5(6)9-6/h2-3,5,8H,4H2,1H3/t5-,6-,7-/m1/s1
