22
gdb 105897	2.09411	1.80596	1.20679	1.6204	86.3	-0.225	0.0822	0.3072	1147.3949	0.193929	-367.127162	-367.118425	-367.117481	-367.160331	34.04	
C	-0.0474055372	 1.4919138268	-0.0212704601	-0.379056
C	 0.0207892922	-0.0397761107	-0.0627734515	-0.326646
C	 0.798062589	-0.5543211517	-1.2433904944	 0.386202
C	 2.2561587647	-0.2586895395	-1.6541742436	-0.041566
C	 3.4004234772	-0.8245376639	-0.8295922827	-0.432014
C	 1.6532658065	-1.0853583147	-2.7941455529	-0.015364
C	 0.8020798564	-1.9972909152	-1.8621904352	-0.130058
C	-0.4312538269	-1.6382698881	-2.6799712888	-0.197782
N	 0.3136159783	-0.3080758746	-2.7134428566	-0.195371
H	 0.9503304423	 1.9309333588	 0.0810012183	 0.11689
H	-0.4883696399	 1.8803929165	-0.9434553271	 0.139365
H	-0.6516637755	 1.8348331203	 0.8236868663	 0.109914
H	 0.4856317552	-0.4244153102	 0.8547213096	 0.10262
H	-0.9935913264	-0.4578347356	-0.0888569463	 0.102385
H	 2.4236866301	 0.7896920052	-1.9278585532	 0.077646
H	 3.2252948578	-1.8708057413	-0.5570917737	 0.115457
H	 4.3443030128	-0.7786112973	-1.3834521043	 0.119182
H	 3.5369774903	-0.2571226171	 0.0974318571	 0.118806
H	 2.0715971715	-1.3455671808	-3.7691446484	 0.074379
H	 1.0864858003	-2.9414163341	-1.3851147739	 0.061127
H	-0.5416277873	-2.0952551606	-3.669293462	 0.096567
H	-1.4022655117	-1.5909709424	-2.1764947267	 0.097315
78.007	171.9178	176.6378	217.9275	220.1438	237.4247	306.394	403.7929	490.2805	534.8984	623.5131	707.5985	736.8714	770.2132	846.0726	858.748	885.4894	908.1853	920.4416	925.1631	984.0674	1026.3769	1041.0486	1057.5144	1084.624	1097.8442	1112.1054	1121.1007	1155.8359	1170.0154	1175.0728	1225.0685	1241.5305	1264.7667	1281.2042	1295.7117	1311.3246	1369.2844	1405.8413	1410.8511	1418.5249	1474.4505	1495.6397	1497.1746	1501.9834	1508.0968	1520.1391	3018.2485	3028.9497	3031.3102	3039.7752	3042.5611	3045.9509	3050.8046	3089.6414	3090.0754	3092.8788	3099.511	3107.3136	3121.0663
CCC12C(C)C3C1CN23	CC[C@@]12[C@@H](C)[C@H]3[C@@H]1CN23	
InChI=1S/C8H13N/c1-3-8-5(2)7-6(8)4-9(7)8/h5-7H,3-4H2,1-2H3	InChI=1S/C8H13N/c1-3-8-5(2)7-6(8)4-9(7)8/h5-7H,3-4H2,1-2H3/t5-,6-,7-,8+/m0/s1
