21
gdb 92955	2.54721	1.58144	1.18003	1.6306	83.71	-0.2349	0.0157	0.2506	1128.7503	0.183293	-387.090344	-387.081925	-387.080981	-387.123526	32.729	
C	-0.5733714977	 1.3600599603	-0.1588955354	-0.426454
C	 0.1436374458	 0.0139155231	-0.1889994486	-0.020521
C	 1.3813833562	-0.0509614857	-1.1182777415	-0.281737
C	 2.2628712981	-1.0713861236	-0.4416489593	-0.080016
C	 1.8461743035	-1.3491845363	 0.7922562254	-0.124464
C	 0.6287813836	-0.5512726969	 1.1721433328	 0.418234
C	 0.7745090885	 0.356352266	 2.4317609563	-0.346391
C	-0.2806410637	-0.5671806005	 3.0604740728	-0.070278
O	-0.4130825233	-1.322591975	 1.8409269754	-0.325615
H	 0.097159214	 2.1718464634	 0.1447501273	 0.113653
H	-0.9627454537	 1.6131387843	-1.1505471946	 0.113701
H	-1.4220940622	 1.3415286575	 0.53288451	 0.120421
H	-0.5675975045	-0.7467454042	-0.5348934236	 0.096932
H	 1.1226915396	-0.3227090777	-2.1484011702	 0.104203
H	 1.887946109	 0.923653389	-1.1776084693	 0.104191
H	 3.1431165002	-1.4925845529	-0.9158472042	 0.095556
H	 2.3192436734	-2.0292037759	 1.4923021678	 0.094339
H	 1.7620099721	 0.3396964119	 2.895870818	 0.106637
H	 0.4623208916	 1.3920232377	 2.2939220226	 0.110605
H	 0.074383776	-1.1886838265	 3.8926108432	 0.097829
H	-1.2263780164	-0.0959117781	 3.3544961952	 0.099177
73.2832	83.285	235.18	246.6249	254.2887	286.494	398.3859	447.9735	472.7182	532.9013	646.3404	745.6326	765.8897	789.9252	852.62	880.8413	922.1098	953.0145	957.4084	976.6181	981.7499	982.0641	1024.9043	1052.4819	1096.0247	1114.2001	1142.3278	1161.9618	1194.1566	1200.6113	1207.6108	1237.8417	1261.075	1300.6242	1313.0765	1351.5318	1371.9688	1375.5309	1409.356	1484.58	1487.2043	1501.6294	1502.4062	1533.1716	1681.8503	3002.1777	3010.7529	3026.4464	3029.4622	3048.2765	3052.817	3082.6467	3093.6651	3098.8513	3138.2452	3177.8505	3203.7715
CC1CC=CC11CCO1	C[C@H]1CC=C[C@]21CCO2	
InChI=1S/C8H12O/c1-7-3-2-4-8(7)5-6-9-8/h2,4,7H,3,5-6H2,1H3	InChI=1S/C8H12O/c1-7-3-2-4-8(7)5-6-9-8/h2,4,7H,3,5-6H2,1H3/t7-,8+/m0/s1
