19
gdb 42058	2.57174	1.57182	1.04554	1.1505	93.38	-0.2077	-0.0358	0.1719	1157.2212	0.161512	-348.731848	-348.723779	-348.722834	-348.764238	31.568	
C	-0.0728049556	 1.2125332814	 0.501084748	-0.182795
C	 1.216172091	 2.0458457382	 0.2278382315	-0.256356
C	 2.4415376463	 1.5231890258	 0.9362065076	-0.035237
C	 3.5848559453	 0.9717006132	 0.4896104048	-0.086109
C	 4.0264845604	 0.5031436648	-0.8223071226	-0.068036
C	 3.298479655	-0.1343337136	-1.7687439355	-0.239707
C	 1.9102101008	-0.3137982393	-1.6120834896	 0.185132
C	 0.7548996523	-0.2831134242	-1.2572873508	-0.048386
C	-0.4620679646	 0.2391940048	-0.6531463712	-0.32871
H	 0.0645453497	 0.6342621791	 1.420677568	 0.109247
H	-0.9205650867	 1.8830782156	 0.6755024959	 0.098869
H	 1.3874838867	 2.1419398464	-0.845732295	 0.1211
H	 1.0468070616	 3.0611851453	 0.6092768106	 0.099559
H	 2.4039780846	 1.6883754325	 2.0139344359	 0.086835
H	 4.3502829535	 0.8243859843	 1.2528419264	 0.087902
H	 5.0982655864	 0.5781510296	-0.9975348324	 0.095809
H	 3.794170566	-0.5087697007	-2.6595863492	 0.107823
H	-1.1291992246	-0.5482935733	-0.283948329	 0.122638
H	-1.0328886781	 0.7896361801	-1.4130993536	 0.130421
93.8571	170.9942	205.3809	254.2444	299.3424	329.6666	384.9252	448.4588	528.8835	553.704	618.7041	697.8209	733.9159	786.3245	816.443	841.7038	863.0986	888.272	974.6685	990.739	997.5018	1013.8436	1043.1716	1077.9797	1173.7343	1192.0921	1220.4234	1245.4439	1259.1225	1322.5257	1327.0107	1343.6534	1370.5028	1422.0179	1460.1058	1475.9898	1484.8027	1490.6908	1622.5655	1688.7907	2322.2075	3016.2227	3020.3199	3041.0046	3052.6479	3085.3327	3096.7379	3110.9492	3125.8642	3141.9206	3169.1194
C1CC=CC=CC#CC1	C1CC=CC=CC#CC1	
InChI=1S/C9H10/c1-2-4-6-8-9-7-5-3-1/h1-4H,5,7,9H2/b3-1-,4-2-	InChI=1S/C9H10/c1-2-4-6-8-9-7-5-3-1/h1-4H,5,7,9H2/b3-1-,4-2-
