17
gdb 34600	3.82249	1.1809	0.9819	1.8091	82.97	-0.2296	-0.0158	0.2137	1191.3804	0.136125	-384.660178	-384.652357	-384.651413	-384.692512	30.427	
C	 0.0359446517	-1.2645752354	-0.3395680122	-0.42001
C	-0.0467468305	-0.0807284978	-0.1300366328	 0.227831
C	-0.0761869	 1.3195793317	 0.1269721773	 0.152114
C	-1.2189236012	 2.0166441732	 0.0380166884	-0.139977
C	-1.3452276614	 3.4928345781	 0.2732327517	-0.292848
C	-0.1095395244	 4.1303310386	 0.8629747222	 0.051284
O	 0.3344371275	 3.6049805167	 2.1175376398	-0.256412
C	 1.1499177652	 3.3809125748	 0.9631807824	 0.045104
C	 1.2557520718	 1.9539863616	 0.4812990047	-0.337897
H	 0.0888167554	-2.3085898078	-0.5252372976	 0.193319
H	-2.1292183392	 1.4893349515	-0.2312486651	 0.097951
H	-1.5829312923	 3.99836518	-0.675146943	 0.119569
H	-2.2039563419	 3.6920754759	 0.9297713102	 0.126273
H	-0.0657387442	 5.2178828609	 0.7969065445	 0.089555
H	 2.0878144391	 3.9373958806	 0.9693321019	 0.088867
H	 1.7554902552	 1.3472019545	 1.2468521003	 0.131764
H	 1.9150368491	 1.925117273	-0.3969520724	 0.123513
83.9449	153.4129	182.7912	317.5039	340.2562	364.4141	451.0686	524.1249	536.9017	587.8758	591.0456	640.9908	695.5749	780.3914	819.4869	842.8937	906.4452	938.3632	957.1798	976.0875	1038.7096	1066.6607	1087.7982	1148.8665	1155.8295	1234.3419	1245.836	1294.7642	1319.2956	1371.5665	1383.3651	1396.969	1460.3749	1465.3149	1487.4259	1704.2342	2219.7082	2998.6035	3019.8114	3025.2408	3051.0403	3097.343	3110.1011	3174.408	3503.5228
C#CC1=CCC2OC2C1	C#CC1=CC[C@H]2O[C@H]2C1	
InChI=1S/C8H8O/c1-2-6-3-4-7-8(5-6)9-7/h1,3,7-8H,4-5H2	InChI=1S/C8H8O/c1-2-6-3-4-7-8(5-6)9-7/h1,3,7-8H,4-5H2/t7-,8+/m1/s1
