23
gdb 92576	2.59609	1.49103	1.20678	0.2152	90.36	-0.2313	0.0284	0.2597	1159.2877	0.208302	-351.167536	-351.159198	-351.158254	-351.200243	33.534	
C	-0.5599198379	 1.4082413243	-0.1108063529	-0.398649
C	-0.0997237544	-0.0439769947	-0.0353134759	 0.014043
C	 1.063160764	-0.4344572336	-1.000474722	-0.256781
C	 2.0439752332	-0.5439572028	 0.2032316331	 0.005854
C	 3.038671856	 0.6116849207	 0.3555048505	-0.216264
C	 3.4058127116	 0.8538122799	 1.8287701584	-0.255868
C	 2.1665110186	 1.0122515825	 2.676822519	-0.060706
C	 0.9962761674	 0.4565643112	 2.3572499514	-0.066515
C	 0.8284959057	-0.4421167744	 1.1742260288	-0.037182
H	 0.2722804351	 2.1086436141	 0.0092613889	 0.120591
H	-1.0301881718	 1.6101406823	-1.0798747934	 0.109031
H	-1.2938523289	 1.6360412215	 0.6699885317	 0.110516
H	-0.9747067115	-0.695035504	-0.1257590324	 0.063613
H	 0.8951744039	-1.3862211024	-1.5112952177	 0.093222
H	 1.3231517471	 0.3154757127	-1.7545140701	 0.090487
H	 2.5807242462	-1.4954230431	 0.2708796596	 0.05932
H	 3.9370365479	 0.4190932522	-0.2425676219	 0.089277
H	 2.595829689	 1.534051352	-0.0390186613	 0.099555
H	 4.0205232637	 0.0239832089	 2.2087653422	 0.10556
H	 4.0338569676	 1.7483073305	 1.916366741	 0.097076
H	 2.2511433134	 1.614192632	 3.5785233234	 0.081203
H	 0.1273620192	 0.6176779893	 2.9928890886	 0.078941
H	 0.5363666848	-1.4385887791	 1.528331371	 0.073678
76.3533	150.769	205.2154	223.2298	313.1558	348.8269	377.0638	444.015	485.0663	508.8655	694.0587	729.2236	743.4488	781.546	800.3498	841.426	885.5255	910.7358	955.8651	976.7468	992.2602	999.0572	1004.6944	1042.5469	1065.9324	1095.4176	1101.7722	1136.3839	1143.3406	1182.4792	1223.0473	1235.7742	1255.9217	1268.8631	1276.4767	1294.48	1328.9678	1340.9061	1358.665	1365.5054	1387.5254	1408.387	1418.115	1478.9216	1482.6311	1488.8102	1493.7094	1498.2803	1709.5925	2996.1955	3012.8125	3024.7933	3028.3063	3040.3903	3043.5614	3048.6057	3052.3937	3069.0361	3090.0071	3098.268	3107.6545	3132.1938	3159.7284
CC1CC2CCC=CC12	C[C@H]1C[C@H]2CCC=C[C@@H]12	
InChI=1S/C9H14/c1-7-6-8-4-2-3-5-9(7)8/h3,5,7-9H,2,4,6H2,1H3	InChI=1S/C9H14/c1-7-6-8-4-2-3-5-9(7)8/h3,5,7-9H,2,4,6H2,1H3/t7-,8+,9-/m0/s1
