17
gdb 15063	2.43847	2.00169	1.39948	1.3828	69.8	-0.2445	0.0408	0.2853	945.4323	0.140536	-363.782148	-363.773546	-363.772602	-363.815345	31.446	
O	-0.3704374774	 1.6530440633	-0.2673768525	-0.415656
C	 0.035494234	 0.3426379472	 0.0619842669	-0.06556
C	-1.1324753198	-0.6667599747	 0.0600020969	-0.131753
C	-2.0830558253	-0.4117118596	 1.1481669007	 0.346888
C	-2.8759017894	-0.213856805	 2.0308695505	-0.49072
N	-1.7073956154	-0.6856016151	-1.298008878	-0.100377
C	-2.9839330233	-1.3619076885	-1.5062446862	-0.227157
C	-2.8985355989	 0.1205511816	-1.5796387788	-0.231929
H	-0.6581798959	 1.6339180508	-1.1858803763	 0.295218
H	 0.7968796536	-0.0329656483	-0.6364523894	 0.096949
H	 0.4742689399	 0.3898537482	 1.06273834	 0.116003
H	-0.6926462029	-1.6612468939	 0.2176157046	 0.11152
H	-3.5627260794	-0.0336134934	 2.8209094739	 0.201397
H	-3.0491034911	-1.9622707213	-2.4090072826	 0.117719
H	-3.4866940399	-1.7750837627	-0.6348080307	 0.125752
H	-3.3432082892	 0.6798151807	-0.7613917857	 0.13845
H	-2.8967789997	 0.6236403109	-2.5428588434	 0.113255
80.3719	93.631	144.0195	176.3252	259.4368	325.1519	351.3978	388.8677	428.4721	581.0562	623.2263	656.0198	666.1944	786.7765	824.2163	840.6162	894.3287	952.319	1026.3341	1050.7043	1058.6886	1104.4145	1121.295	1129.4243	1176.7454	1184.2849	1238.1135	1293.7049	1313.4718	1337.9618	1403.1184	1418.8615	1484.8907	1491.4416	1512.0779	2222.9048	3002.121	3018.5292	3094.4536	3106.3048	3110.336	3189.9263	3203.9813	3500.4736	3821.2985
OCC(C#C)N1CC1	OC[C@@H](C#C)N1CC1	
InChI=1S/C6H9NO/c1-2-6(5-8)7-3-4-7/h1,6,8H,3-5H2	InChI=1S/C6H9NO/c1-2-6(5-8)7-3-4-7/h1,6,8H,3-5H2/t6-/m1/s1
