18
gdb 110893	2.87069	1.51795	1.2024	3.1933	72.39	-0.218	-0.0201	0.198	1072.8649	0.148353	-439.047353	-439.039388	-439.038444	-439.080029	30.115	
C	-0.1038878911	 1.3587604262	-0.0781212747	-0.248016
O	 0.1379913056	-0.0316541046	 0.0574097893	-0.251567
C	 0.6982673579	-0.6189997414	-1.0824417715	 0.081996
C	 1.0582944024	-2.0923412844	-0.8507826333	-0.061599
C	 1.3224041385	-2.6039116252	-2.2923070217	-0.253467
C	-0.2196104509	-2.3997879234	-2.3708108092	-0.121488
N	-0.3178862882	-2.7316692225	-0.8890946263	-0.322339
C	-0.3171833835	-0.8796559717	-2.242695823	 0.441671
O	-1.0010391354	-0.0953417578	-2.8400717502	-0.333444
H	 0.8295483216	 1.9062152757	-0.2848708833	 0.1009
H	-0.8202298283	 1.5717130562	-0.8790688253	 0.141612
H	-0.5109265369	 1.7001734822	 0.8761466227	 0.127608
H	 1.5610260944	-0.0369857597	-1.446982849	 0.078916
H	 1.7038084174	-2.3162582401	-0.0031508613	 0.087241
H	 1.981338704	-2.0376512733	-2.9608725876	 0.10633
H	 1.5855712899	-3.66438481	-2.3095157264	 0.112461
H	-0.8825818362	-2.8974506847	-3.0755734459	 0.091342
H	-0.1804257013	-3.7406309514	-0.8096932831	 0.221842
94.8035	126.8328	174.4955	204.8477	256.9297	364.7421	440.1484	459.3925	527.2464	641.9047	682.4597	803.8863	824.5779	849.3423	870.8979	909.3697	948.7818	983.1913	1001.7014	1023.8299	1065.1829	1083.4132	1132.4161	1155.1141	1176.5571	1184.8482	1187.524	1228.8286	1237.0575	1265.8522	1273.7519	1325.5341	1348.7127	1396.9054	1478.6488	1485.5299	1495.009	1515.6736	1879.1859	2967.6632	2981.1903	3034.5452	3070.4262	3109.8359	3126.5148	3136.1272	3147.635	3440.4071
COC1C2CC(N2)C1=O	CO[C@H]1[C@@H]2C[C@@H](N2)C1=O	
InChI=1S/C6H9NO2/c1-9-6-4-2-3(7-4)5(6)8/h3-4,6-7H,2H2,1H3	InChI=1S/C6H9NO2/c1-9-6-4-2-3(7-4)5(6)8/h3-4,6-7H,2H2,1H3/t3-,4+,6+/m1/s1
