19
gdb 37455	2.76367	2.08468	1.79233	1.5925	75.88	-0.2221	0.0773	0.2994	864.2318	0.163372	-385.860087	-385.853963	-385.853019	-385.890146	26.931	
C	 0.0187290549	 1.5476985149	 0.1520864372	-0.30902
C	 1.3095071694	 0.7722678191	 0.0403801113	-0.028969
C	-0.0060132526	 0.0348538124	 0.0189920395	-0.049194
C	-0.1551018927	-0.6235051456	-1.3718527328	-0.07152
C	-0.9311045614	 0.2592082533	-2.362565702	-0.089776
O	-0.0020621555	 1.2826905561	-2.7531213603	-0.261487
C	 1.2929180938	 0.7378628815	-2.6483582459	 0.084859
C	 1.9774638529	 0.529332267	-1.2979599458	-0.091687
C	 1.2630084851	-0.6104624237	-2.0124582075	-0.125234
H	-0.2260921062	 1.9438904455	 1.1330450568	 0.100252
H	-0.2895824245	 2.1710204875	-0.6753149956	 0.144516
H	 1.9613987187	 0.7251759255	 0.9063229446	 0.079573
H	-0.3359631353	-0.5395707792	 0.8777580925	 0.079879
H	-0.5806355208	-1.6255973401	-1.295671797	 0.07262
H	-1.2488794621	-0.3122169429	-3.2473314588	 0.092435
H	-1.8047963194	 0.7476250813	-1.9222931818	 0.111241
H	 1.9202953143	 0.9761284861	-3.5017595039	 0.096054
H	 3.0605239384	 0.5930568253	-1.3285011612	 0.081292
H	 1.726517063	-1.503375214	-2.4144013093	 0.084166
221.1893	266.4205	323.8831	461.7252	577.8356	605.2302	692.4249	698.6982	739.2193	753.8897	776.0861	804.7876	816.4003	875.416	909.7358	938.971	949.102	975.4128	997.7058	1028.2323	1040.4431	1051.4109	1057.835	1086.8621	1097.725	1110.3779	1114.6184	1120.0308	1166.8565	1210.3371	1218.2003	1241.4679	1274.1502	1303.0982	1316.3936	1357.699	1371.7082	1376.3532	1414.656	1483.1954	1511.8707	2993.0953	3091.5796	3097.787	3135.3741	3148.8966	3153.8233	3160.7902	3167.8074	3179.6331	3245.4006
C1C2C1C1COC3C2C13	C1[C@H]2[C@@H]1[C@H]1CO[C@H]3[C@@H]2[C@@H]13	
InChI=1S/C8H10O/c1-3-4(1)6-7-5(3)2-9-8(6)7/h3-8H,1-2H2	InChI=1S/C8H10O/c1-3-4(1)6-7-5(3)2-9-8(6)7/h3-8H,1-2H2/t3-,4+,5-,6+,7-,8+/m1/s1
