12
gdb 133310	2.33414	1.9141	1.05227	4.564	63.1	-0.2365	-0.0618	0.1748	1005.8313	0.076431	-513.893328	-513.885821	-513.884877	-513.925308	27.905	
N	 0.0311590159	 1.3744315713	 0.1525732951	-0.559372
C	-0.0215602442	 0.0188409132	 0.0581558909	 0.356099
C	-1.1773839919	-0.7086084395	 0.0288945681	 0.035511
F	-2.3349985729	-0.0338349913	 0.0375812002	-0.075274
C	-1.1493129791	-2.1360774506	-0.0137382308	 0.268629
O	-2.1013166464	-2.9011671873	-0.0469373642	-0.379611
C	 0.2571769499	-2.623816201	-0.0213567566	-0.052982
N	 1.3423488298	-1.9396246275	-0.0038559611	-0.056719
O	 1.1981594329	-0.5491544607	 0.03548109	-0.265063
H	 0.8900311949	 1.8158672048	-0.1366489589	 0.280429
H	-0.8219269905	 1.8659839081	-0.0612224088	 0.284953
H	 0.4075522717	-3.7000600096	-0.0506932739	 0.163401
114.6119	179.3351	267.0153	276.4503	312.6315	384.3324	444.6773	483.3244	498.2132	522.5551	572.586	660.6454	672.7841	736.5318	852.871	914.1651	949.9456	1038.5995	1132.9691	1244.5974	1279.5381	1364.555	1448.9846	1619.1424	1640.2419	1690.8638	1759.0676	3181.3325	3593.684	3712.9134
NC1=C(F)C(=O)C=NO1	Nc1c(F)c(=O)cno1	
InChI=1S/C4H3FN2O2/c5-3-2(8)1-7-9-4(3)6/h1H,6H2	InChI=1S/C4H3FN2O2/c5-3-2(8)1-7-9-4(3)6/h1H,6H2
