18
gdb 71359	2.88708	1.99488	1.56596	0.6957	73.79	-0.2302	0.0628	0.293	899.5097	0.148968	-401.853288	-401.846525	-401.845581	-401.884015	28.139	
C	 0.0156359983	 1.5659632795	-0.0541799695	-0.525031
C	 0.0049256776	 0.0579015932	-0.0104445399	 0.325365
C	 0.5630946668	-0.9345836138	-1.0456027379	-0.225819
N	 0.0150621719	-1.8987430489	 0.0010541559	-0.165605
C	 0.5900471433	-0.9142792865	 1.0639505074	-0.072327
C	-0.3580865469	-1.0066643309	 2.2490788358	 0.026223
O	-1.2533364861	 0.1138514273	 2.3571923163	-0.254809
C	-1.6503279166	-1.0173856713	 1.5625808726	 0.026225
C	-1.2002133468	-0.9291438773	 0.1128780697	-0.072329
H	 1.0439063696	 1.9409592432	-0.1106549431	 0.115936
H	-0.5169657694	 1.9279568634	-0.9409982535	 0.115928
H	-0.4602971287	 1.9844370231	 0.8339768072	 0.147748
H	 0.058627834	-1.0055258841	-2.0143784542	 0.096814
H	 1.6490832924	-0.9923320706	-1.1694556043	 0.096815
H	 1.666745612	-0.9890030558	 1.2236147606	 0.072273
H	-0.1280081634	-1.5368732358	 3.166042451	 0.110161
H	-2.5320284871	-1.5568240198	 1.8889109934	 0.11016
H	-1.9341784207	-1.018912515	-0.6893640275	 0.072273
178.8491	233.4734	234.6396	359.5162	415.0725	466.5631	517.1605	637.8787	732.0821	738.9525	767.4072	804.7216	816.7329	880.0233	895.3007	910.3469	940.5018	940.922	964.2513	1016.1423	1018.2238	1031.4324	1072.348	1111.118	1129.1186	1143.5574	1186.8319	1196.1185	1238.6473	1244.6174	1278.9766	1304.9451	1306.6177	1349.0875	1402.218	1415.0917	1484.7967	1500.3034	1532.3923	3031.1902	3040.0934	3089.1943	3099.0415	3108.3818	3110.9969	3141.4382	3180.1274	3192.017
CC12CN3C1C1OC1C23	C[C@@]12CN3[C@@H]1[C@H]1O[C@H]1[C@@H]23	
InChI=1S/C7H9NO/c1-7-2-8-5(7)3-4(9-3)6(7)8/h3-6H,2H2,1H3	InChI=1S/C7H9NO/c1-7-2-8-5(7)3-4(9-3)6(7)8/h3-6H,2H2,1H3/t3-,4+,5+,6-,7+
