21
gdb 41484	3.09069	1.56628	1.23619	1.96	81.08	-0.2366	0.0635	0.3002	1070.1062	0.185258	-387.071927	-387.064542	-387.063598	-387.103799	30.041	
C	-0.1414006879	 1.3698138938	-0.2841484004	-0.263266
C	 1.3999242437	 1.4548631062	-0.0455069374	-0.037241
C	 2.3248244376	 1.4799794555	-1.2776549652	-0.232281
C	 3.3559523869	 0.3696865129	-0.9936868483	-0.195023
C	 2.5236486633	-0.7658966069	-0.3528521168	-0.336912
C	 1.4230038137	-0.0381950864	 0.4210037574	 0.331391
C	 1.0922034016	-0.2839385936	 1.8968393729	-0.149658
O	-0.3292203599	-0.1905724919	 1.6449070617	-0.295693
C	-0.1244839052	-0.0904277099	 0.2185933593	 0.06546
H	-0.7653010994	 2.0267581651	 0.3254698446	 0.109349
H	-0.4259817028	 1.4809135249	-1.3351064023	 0.095376
H	 1.7159609167	 2.1839111672	 0.706952097	 0.064469
H	 1.7553861157	 1.2286081806	-2.1815403648	 0.094895
H	 2.7844288262	 2.4574455678	-1.4504302243	 0.097922
H	 3.9020315966	 0.0515112091	-1.8865458922	 0.095377
H	 4.0989846699	 0.7327528123	-0.2729438882	 0.099538
H	 2.0894390586	-1.4053737495	-1.1307093548	 0.103007
H	 3.1254092664	-1.4171362743	 0.2893139085	 0.097823
H	 1.3660809694	-1.2845759737	 2.2612974847	 0.093295
H	 1.440048741	 0.4656740249	 2.6204739711	 0.095087
H	-0.6722438122	-0.8606870842	-0.3341976625	 0.067083
76.7409	192.9274	214.533	326.2962	347.4022	434.8431	446.4863	543.8078	667.5092	700.8199	797.6827	804.4091	843.3547	860.9571	884.6593	906.6829	942.8722	964.1282	988.1291	1000.6115	1010.9454	1017.3377	1057.5871	1096.1931	1130.4929	1134.437	1165.4804	1175.4599	1204.8664	1219.7284	1238.1565	1254.3583	1266.8663	1279.4357	1303.7681	1312.321	1333.1561	1343.5343	1351.6063	1371.7588	1461.8106	1485.4788	1492.6213	1505.8809	1521.0206	2988.0936	3024.8438	3031.3302	3032.3669	3034.2908	3045.9385	3052.0454	3059.1477	3074.1939	3086.4189	3093.0597	3117.9615
C1C2CCCC22COC12	C1[C@@H]2CCC[C@]32CO[C@@H]13	
InChI=1S/C8H12O/c1-2-6-4-7-8(6,3-1)5-9-7/h6-7H,1-5H2	InChI=1S/C8H12O/c1-2-6-4-7-8(6,3-1)5-9-7/h6-7H,1-5H2/t6-,7-,8+/m0/s1
