21
gdb 62953	2.06717	1.81436	1.41474	1.7938	81.91	-0.2472	0.0834	0.3307	1061.4728	0.180733	-387.041252	-387.032455	-387.031511	-387.073902	34.961	
C	-0.0366642661	 1.5498287404	-0.0542851566	-0.4467
C	-0.0159668173	 0.0266033967	 0.0045817262	 0.189849
C	-1.3949750202	-0.5873965592	-0.2281380119	-0.444598
C	 1.0629978991	-0.6521722468	-0.8828149782	 0.010658
O	 2.3498919934	-0.1872017886	-0.4707372993	-0.255532
C	 1.7316362469	-1.2470654763	 0.2829581555	-0.086494
C	 0.7382464106	-0.6077207074	 1.2276749175	 0.344752
C	 1.0183648869	-0.0342138418	 2.5823158328	-0.322881
C	 0.1326678632	-1.2521977782	 2.4391825294	-0.338237
H	 0.9759672861	 1.9475411187	 0.0441196854	 0.135423
H	-0.4580686229	 1.9006445935	-1.0034094374	 0.108724
H	-0.651163734	 1.9664295183	 0.7521940125	 0.10767
H	-1.7951806172	-0.2822965986	-1.201880361	 0.112564
H	-1.3562730378	-1.6812748767	-0.2045904752	 0.115997
H	-2.106632532	-0.260791286	 0.5377538941	 0.115758
H	 0.9604261777	-1.0105291202	-1.9018926058	 0.096447
H	 2.2897175642	-2.1707016406	 0.3904520344	 0.10137
H	 2.0123198921	-0.159380448	 2.9993052458	 0.115752
H	 0.5431679943	 0.9064048493	 2.8423001701	 0.11446
H	-0.9325034832	-1.1331249104	 2.6094050056	 0.112857
H	 0.5244874761	-2.2138065781	 2.7566307562	 0.112163
118.6161	207.8661	217.5697	229.752	252.2711	263.8955	291.9858	331.045	393.5031	525.5308	541.4031	596.3551	649.4266	776.192	829.1269	843.2876	859.1784	877.0459	926.7418	952.1494	956.7947	968.7041	985.3953	991.8318	1031.1985	1051.5358	1057.2154	1080.0445	1178.7101	1185.8284	1193.2406	1207.9836	1232.0218	1238.3597	1302.4914	1368.2046	1389.8577	1395.9427	1419.2443	1465.9087	1484.8076	1485.5738	1498.6699	1504.5066	1511.5765	3023.5734	3028.3319	3083.7773	3091.0836	3099.9066	3122.6431	3124.9477	3127.5288	3165.9174	3182.3918	3199.2317	3214.4899
CC1(C)C2OC2C11CC1	CC1(C)[C@H]2O[C@H]2C21CC2	
InChI=1S/C8H12O/c1-7(2)5-6(9-5)8(7)3-4-8/h5-6H,3-4H2,1-2H3	InChI=1S/C8H12O/c1-7(2)5-6(9-5)8(7)3-4-8/h5-6H,3-4H2,1-2H3/t5-,6+/m0/s1
