13
gdb 14592	8.24468	0.85754	0.7836	3.7404	63.92	-0.2757	-0.0307	0.245	1335.4549	0.092443	-398.577922	-398.56949	-398.568546	-398.611774	28.274	
O	 0.0397229641	 0.2597195262	-0.4289485845	-0.248306
C	 0.2816446081	 1.4182726997	-0.3095630979	 0.181716
O	 1.1412560199	 1.8578810083	 0.6719306302	-0.198
C	 1.5233016076	 3.1711303793	 0.691543647	 0.157853
N	 1.4126578468	 3.9322907189	-0.3020508571	-0.250514
C	 1.8442359583	 5.3239672681	-0.2006133584	-0.261791
C	 2.4027544798	 5.7678542239	 1.0776751239	 0.281193
C	 2.8583424232	 6.1117142322	 2.1356534669	-0.451617
H	-0.1306468114	 2.2415493333	-0.9062664128	 0.131461
H	 1.9411285791	 3.4231422106	 1.6671265602	 0.139072
H	 2.5779869513	 5.4932641371	-0.998838762	 0.155284
H	 0.9822044097	 5.9518357251	-0.4596417197	 0.15363
H	 3.2645476636	 6.434478877	 3.0628182742	 0.210019
50.4744	91.7092	123.8136	181.1487	197.3809	312.5429	327.8248	350.0057	496.5902	606.1701	629.3001	677.5793	781.8782	921.884	954.5611	1005.5759	1021.9964	1044.8275	1081.3776	1207.8146	1267.4387	1348.8777	1390.9789	1402.0915	1465.7314	1750.615	1875.9372	2232.0659	3026.8641	3048.8822	3075.7206	3127.2061	3500.9032
O=COC=NCC#C	O=COC=NCC#C	
InChI=1S/C5H5NO2/c1-2-3-6-4-8-5-7/h1,4-5H,3H2	InChI=1S/C5H5NO2/c1-2-3-6-4-8-5-7/h1,4-5H,3H2
