23
gdb 38314	3.2777	1.52967	1.33963	0.0628	87.79	-0.2889	0.0854	0.3743	1066.3702	0.211326	-351.165382	-351.158549	-351.157605	-351.196218	29.966	
C	-0.0581703878	 1.5910800951	 0.1589324183	-0.229122
C	 1.4856281228	 1.4250924502	 0.0594789543	-0.032986
C	 1.2813672195	 0.126388797	 0.8994814568	-0.229236
C	-0.0355580677	 0.0380481189	 0.0676933014	-0.032987
C	 0.5208969917	-0.2245567681	-1.3480399826	 0.032416
C	-0.3654218659	 0.1067494141	-2.5667415446	-0.242471
C	 0.5636666093	 0.8873722725	-3.5187604131	-0.191084
C	 1.4321457571	 1.745690164	-2.576449342	-0.242474
C	 1.6875736872	 0.8391950401	-1.3543272227	 0.032418
H	-0.370578649	 1.9395404804	 1.1462311215	 0.092902
H	-0.583702903	 2.1628751242	-0.6105869658	 0.087608
H	 2.1678333398	 2.2148594403	 0.3781778442	 0.053664
H	 2.0148777826	-0.6787309682	 0.7861170709	 0.083072
H	 1.103714718	 0.3275038306	 1.9590227037	 0.090358
H	-0.8828665421	-0.5668250504	 0.3946514757	 0.053664
H	 0.9054565478	-1.2465188346	-1.4239546389	 0.06056
H	-0.7910693009	-0.7867163564	-3.032984451	 0.089187
H	-1.2086745951	 0.741031796	-2.268587027	 0.095548
H	 1.2019791035	 0.184025011	-4.0685332766	 0.094376
H	 0.0211013611	 1.4780391466	-4.2636795057	 0.089293
H	 2.3582586411	 2.084685515	-3.0499857	 0.089188
H	 0.8799974337	 2.6453926324	-2.2798827035	 0.095547
H	 2.6693203261	 0.3617316593	-1.433438343	 0.060561
167.1775	190.8584	330.5882	357.6939	458.8806	516.0809	567.9857	572.2564	666.1393	773.0157	822.6059	837.1726	848.6946	866.1461	876.1194	881.7676	914.1847	920.3635	974.0704	986.6956	993.2871	1031.1352	1044.2764	1051.1493	1060.3375	1066.5292	1096.2035	1110.4178	1131.2217	1183.0468	1192.3619	1194.6501	1226.882	1246.9571	1248.799	1262.4003	1289.2689	1298.5322	1310.291	1315.1887	1342.5976	1344.927	1355.9709	1369.2356	1484.2085	1492.1965	1493.3833	1508.0831	1530.0345	3025.111	3034.0332	3034.8071	3039.0423	3042.6647	3052.5088	3059.6422	3077.5015	3083.3052	3090.7853	3098.1433	3101.2182	3107.1766	3113.4767
C1C2CC1C1CCCC21	C1[C@H]2C[C@@H]1[C@H]1CCC[C@@H]21	
InChI=1S/C9H14/c1-2-8-6-4-7(5-6)9(8)3-1/h6-9H,1-5H2	InChI=1S/C9H14/c1-2-8-6-4-7(5-6)9(8)3-1/h6-9H,1-5H2/t6-,7+,8-,9+
