22
gdb 26211	3.83142	0.90652	0.87665	2.0295	90.9	-0.1973	0.0472	0.2445	1486.1199	0.194113	-367.257984	-367.248059	-367.247114	-367.293255	36.547	
C	 0.0353401684	 1.5484539805	-0.0091810091	-0.375701
C	-0.0084565597	 0.0102530279	 0.0449141993	-0.079586
C	 0.792790975	-0.5159892782	 1.2496789017	-0.375629
C	-1.4238149242	-0.5084877477	 0.0475622625	 0.290791
C	-2.0073176929	-1.2901778181	-0.9258408008	-0.220283
N	-3.3132284081	-1.5406959121	-0.5769351609	 0.023597
C	-4.2228306846	-2.4061308083	-1.2948426288	-0.333499
C	-3.5711932652	-0.9312643452	 0.6247223593	-0.085128
C	-2.4299121616	-0.2841978696	 1.0364851455	-0.279218
H	 1.0685566386	 1.9106760086	-0.0530275964	 0.101776
H	-0.4993014911	 1.9267146295	-0.8854996342	 0.111735
H	-0.4339884681	 1.9841751337	 0.8797747474	 0.112177
H	 0.4756735837	-0.367256505	-0.8658700312	 0.064608
H	 0.3552330075	-0.1683785704	 2.1920730393	 0.112297
H	 0.7991999638	-1.6097773304	 1.2707282317	 0.111588
H	 1.8304527018	-0.1659188492	 1.2141717653	 0.101835
H	-1.5982157319	-1.6881814192	-1.8421039147	 0.107564
H	-4.0884859688	-3.4600221569	-1.0223660415	 0.13537
H	-5.2531776362	-2.1185194319	-1.0725891468	 0.138131
H	-4.0629598632	-2.3025184589	-2.3713398284	 0.138159
H	-4.5458484225	-1.0114432173	 1.080672672	 0.110061
H	-2.3313630308	 0.3011046482	 1.9384695188	 0.089354
43.1711	85.6196	124.1713	175.5104	188.9681	231.4465	259.8473	290.7022	370.295	406.6675	476.4577	613.5261	616.7507	671.2022	694.7209	701.7145	772.2109	812.5433	877.7738	927.3517	960.2732	980.8836	1016.7643	1064.2025	1081.4568	1109.97	1123.2184	1147.824	1164.6381	1208.2918	1268.1367	1339.5801	1341.327	1378.1592	1394.6696	1405.1284	1417.0996	1426.4943	1455.0477	1485.773	1488.5526	1490.0462	1500.7127	1508.2124	1514.987	1544.9954	1599.7161	3009.1407	3024.8367	3025.0188	3029.7352	3090.0034	3093.2374	3096.7284	3105.4348	3107.8812	3127.2989	3236.3137	3244.1029	3259.2227
CC(C)C1=CN(C)C=C1	CC(C)c1cn(C)cc1	
InChI=1S/C8H13N/c1-7(2)8-4-5-9(3)6-8/h4-7H,1-3H3	InChI=1S/C8H13N/c1-7(2)8-4-5-9(3)6-8/h4-7H,1-3H3
