14
gdb 129119	5.20338	1.33615	1.07033	4.5959	70.65	-0.2295	-0.0183	0.2112	1032.1736	0.104068	-429.04906	-429.042043	-429.041099	-429.081758	25.909	
N	-0.1346232641	 1.259367282	-0.0117464904	-0.531806
C	-0.0089696219	 0.0003259288	-0.012743407	 0.386534
C	-1.2114459156	-0.9631861903	 0.0180204037	-0.24907
N	-0.5423200777	-2.249629606	 0.0037584893	 0.036724
N	-0.9397034737	-3.545371886	 0.0154252038	-0.16745
N	 0.1524680034	-4.2515064491	-0.0100177429	-0.178215
C	 1.2600317836	-3.4390614349	-0.0381805763	-0.196478
C	 0.8008864461	-2.1455692346	-0.0290332282	 0.414913
N	 1.1383249032	-0.8013483332	-0.0392781483	-0.470642
H	 0.7633843228	 1.7431222792	-0.0343318061	 0.219105
H	-1.8079325379	-0.8170738159	 0.9218599119	 0.171098
H	-1.8511828647	-0.8198543554	-0.8562005097	 0.1711
H	 2.2593340959	-3.8368215643	-0.0618436508	 0.123172
H	 2.0760739106	-0.4415830201	-0.062854079	 0.271015
21.7029	166.6066	236.758	338.0872	343.0064	511.5581	538.5556	562.4991	689.9981	709.6201	774.2305	787.9467	844.0252	844.8097	864.4846	1003.1144	1011.3305	1070.4979	1104.048	1158.7844	1186.6432	1231.3055	1277.7607	1291.5663	1314.7774	1344.8079	1384.9359	1481.8816	1527.8121	1635.8373	1771.328	3074.778	3119.9874	3290.2031	3479.0424	3686.1217
N=C1CN2N=NC=C2N1	[NH][C]1Cn2nncc2N1	
InChI=1S/C4H5N5/c5-3-2-9-4(7-3)1-6-8-9/h1H,2H2,(H2,5,7)	InChI=1S/C4H5N5/c5-3-2-9-4(7-3)1-6-8-9/h1H,2H2,(H2,5,7)
