16
gdb 128022	4.9817	0.91952	0.77998	2.6254	77.31	-0.21	0.003	0.213	1410.6363	0.126064	-430.248066	-430.239816	-430.238872	-430.281386	29.907	
C	-0.2666395512	 1.6226998175	 0.0696498239	-0.312867
N	-0.0005126636	 0.2005457324	 0.0317386934	-0.222742
C	-0.9966988969	-0.5744557844	-0.1165626068	 0.099489
N	-0.8920275402	-1.9396611048	-0.169822041	-0.413627
C	 0.2774027405	-2.6733959752	-0.0741592847	 0.410279
C	 1.5872181482	-2.2806948771	 0.0912871513	-0.159178
N	 2.25142414	-3.4668109415	 0.1087876114	-0.153801
N	 1.4293577158	-4.5124875164	-0.0333406817	-0.115673
N	 0.220164776	-4.0325074302	-0.1456721467	-0.277702
H	 0.28555939	 2.1291005764	-0.7314132767	 0.122956
H	-1.3340880817	 1.877833497	-0.0376463412	 0.094498
H	 0.0900183698	 2.0459996082	 1.0165797604	 0.122954
H	-2.0347250192	-0.2291996438	-0.2161593532	 0.086523
H	-1.7289727401	-2.4862969025	-0.2893808968	 0.265859
H	 2.0436326738	-1.3149895041	 0.1884591491	 0.170299
H	 3.2401030987	-3.6296771214	 0.2115507996	 0.282731
68.3954	132.6413	150.0473	206.1966	274.9667	315.126	368.9041	382.5848	498.4781	567.7374	668.1238	688.3847	730.838	782.9555	800.1242	976.7479	985.2553	1022.9525	1045.3452	1073.6627	1132.8639	1140.6211	1152.6507	1218.0904	1268.7567	1305.2684	1350.7519	1408.4985	1449.3468	1467.6951	1480.4088	1505.768	1569.4102	1634.5155	1751.2945	2964.3782	3026.8306	3048.4593	3064.7578	3337.8159	3656.3727	3661.6327
CN=CNC1=CNN=N1	CN=CNc1c[nH]nn1	
InChI=1S/C4H7N5/c1-5-3-6-4-2-7-9-8-4/h2-3H,1H3,(H2,5,6,7,8,9)	InChI=1S/C4H7N5/c1-5-3-6-4-2-7-9-8-4/h2-3H,1H3,(H2,5,6,7,8,9)
