19
gdb 40847	4.11702	1.09515	0.94679	3.3574	79.86	-0.2044	0.0519	0.2564	1278.5857	0.161545	-419.203081	-419.194883	-419.193939	-419.236301	30.998	
C	 0.9962595371	 0.6020948367	 0.5050567521	-0.273355
C	 0.5122140203	 0.2177248492	-0.8724551838	-0.272156
C	-0.4868324095	 0.4237749972	 0.2478169405	 0.062418
N	-1.301396433	-0.5964417678	 0.8206255669	-0.394246
C	-0.9489935283	-1.7892273832	 1.006314486	 0.494926
N	-1.7791826372	-2.7895534235	 1.5060290529	-0.352211
C	-0.9651288914	-3.8840276673	 2.0067012612	-0.183209
C	 0.2425018392	-3.7455562159	 1.069509735	-0.080766
O	 0.2849961637	-2.3477776109	 0.7545009987	-0.256048
H	 1.5004797692	-0.1641394004	 1.07987559	 0.118401
H	 1.3603942273	 1.6103342714	 0.6723082128	 0.10193
H	 0.5395157065	 0.9577723421	-1.6653120627	 0.102402
H	 0.7017349637	-0.7986361609	-1.1930492238	 0.119126
H	-1.041945666	 1.354643031	 0.1839171459	 0.083693
H	-2.5592033431	-2.4552937544	 2.0502979433	 0.255077
H	-0.669781985	-3.7581500469	 3.0594398634	 0.108794
H	-1.4644348594	-4.8506210017	 1.8980825029	 0.120007
H	 1.1914294526	-4.0290688356	 1.5285263713	 0.124179
H	 0.0998603434	-4.3180212391	 0.1455124874	 0.12104
70.1421	121.5375	152.3127	197.5799	223.4757	328.7628	436.2813	531.7733	549.9114	685.6398	711.9787	720.0684	772.6276	819.0644	836.3218	898.1828	908.0853	921.9179	954.5975	1000.0485	1049.917	1055.3317	1071.2111	1090.1388	1141.5081	1146.7605	1180.5126	1201.7989	1213.6418	1228.6179	1243.8613	1270.4	1345.2735	1403.6452	1412.6107	1437.5391	1460.2537	1494.1516	1516.7368	1529.0957	1820.2136	2986.1807	3038.4209	3084.5833	3116.042	3137.3918	3139.3576	3147.1563	3229.2183	3242.0163	3636.0011
C1CC1N=C1NCCO1	C1CC1N=C1NCCO1	
InChI=1S/C6H10N2O/c1-2-5(1)8-6-7-3-4-9-6/h5H,1-4H2,(H,7,8)	InChI=1S/C6H10N2O/c1-2-5(1)8-6-7-3-4-9-6/h5H,1-4H2,(H,7,8)
