22
gdb 119152	3.02443	0.98582	0.85924	2.2213	78.85	-0.2452	0.0795	0.3248	1454.9425	0.192954	-441.447221	-441.4369	-441.435955	-441.482757	37.825	
C	 1.5578586531	 1.4898190593	-0.1374522299	-0.227335
O	 1.6537622233	 0.087163675	-0.2283015441	-0.24491
C	 0.4111011821	-0.5419265181	-0.4595069111	-0.144452
C	 0.5999285034	-2.048944534	-0.4804694177	 0.27766
C	 1.8428159795	-2.6087465701	-1.060286753	-0.281502
N	 1.6302076672	-2.6206447389	 0.4038434752	-0.363603
C	-0.7266469147	-2.8079130924	-0.4232092742	 0.083412
C	-0.6492530659	-4.268050287	-0.8656771055	-0.421313
O	-1.240533111	-2.7019798627	 0.9024910572	-0.439797
H	 1.1785573811	 1.9316083248	-1.0716373112	 0.109454
H	 0.8930985084	 1.7981858081	 0.683769747	 0.11174
H	 2.562321705	 1.874549706	 0.053822734	 0.129964
H	-0.3063665188	-0.2854529884	 0.3360683461	 0.110752
H	-0.0194116208	-0.2042602529	-1.4179627281	 0.093397
H	 1.8435447772	-3.5857018555	-1.5321854629	 0.113477
H	 2.5667670605	-1.9022298053	-1.4542047754	 0.122309
H	 2.1616235986	-1.8523054392	 0.8082130337	 0.241126
H	-1.4577153306	-2.2843519682	-1.0529076094	 0.078721
H	 0.1158378565	-4.8040150563	-0.2946606464	 0.132037
H	-1.6142502115	-4.747156827	-0.6825434196	 0.121314
H	-0.4152989698	-4.3550478777	-1.9313932739	 0.111158
H	-0.5242382928	-3.0102352594	 1.4740471993	 0.286389
56.8759	86.5021	106.6581	152.1218	229.9594	260.607	270.0283	292.599	323.0133	350.5363	370.8066	449.5876	487.4714	506.5539	632.9522	721.7375	851.8547	881.2575	926.885	960.6363	985.8135	1004.2361	1024.0991	1055.3614	1102.4977	1107.4692	1128.4092	1148.3713	1162.6395	1187.7855	1225.1003	1255.2043	1280.6108	1295.8432	1319.8597	1371.9128	1388.7292	1407.044	1424.6245	1430.0264	1479.257	1485.8792	1490.6047	1501.1528	1503.441	1512.8917	1530.1201	2954.6114	2979.1937	2999.9064	3025.8203	3027.2178	3037.7879	3110.676	3117.7373	3122.9974	3125.8839	3213.7463	3496.4996	3757.2146
COCC1(CN1)C(C)O	COC[C@]1(CN1)[C@@H](C)O	
InChI=1S/C6H13NO2/c1-5(8)6(3-7-6)4-9-2/h5,7-8H,3-4H2,1-2H3	InChI=1S/C6H13NO2/c1-5(8)6(3-7-6)4-9-2/h5,7-8H,3-4H2,1-2H3/t5-,6-/m1/s1
