20
gdb 74521	4.06902	1.10896	1.02342	0.9567	81.17	-0.2355	0.0287	0.2642	1253.9897	0.17162	-403.169624	-403.161063	-403.160119	-403.203596	32.03	
C	 0.2992459954	 1.4948005619	-0.0690834804	-0.476475
C	 0.0454423679	 0.0264717189	-0.0581710489	 0.389215
N	-1.0511990781	-0.5532959324	 0.2224445509	-0.341727
C	-0.8286801111	-1.9930547713	 0.1028282392	 0.321793
C	-1.2674877711	-2.8691800692	 1.3139580639	-0.268221
C	-1.9058141666	-3.8824239167	 0.3268474087	-0.213929
C	-1.8469127954	-2.7858748777	-0.7698010046	-0.268269
C	 0.6626013181	-2.1076932934	-0.3164801106	-0.172164
O	 1.1210480465	-0.7426388669	-0.3875300994	-0.254572
H	 1.0993248301	 1.7461240915	 0.6343442937	 0.144495
H	 0.6287863359	 1.8148726547	-1.0625902199	 0.144489
H	-0.6107930414	 2.0271511159	 0.2048349922	 0.151256
H	-0.4769137595	-3.2259729168	 1.980596354	 0.091393
H	-2.0171918334	-2.3383517053	 1.9053549494	 0.116247
H	-1.2427914462	-4.7246793103	 0.1088018069	 0.099751
H	-2.8899246895	-4.2783644667	 0.5846745073	 0.101578
H	-2.7830634988	-2.2282482257	-0.8489197243	 0.116259
H	-1.5206385182	-3.0759497	-1.7728576872	 0.091382
H	 1.2809044158	-2.6384448141	 0.4147587329	 0.113773
H	 0.8039914099	-2.5675010964	-1.3000164937	 0.113727
41.3356	95.8669	138.2343	171.297	289.2897	307.802	404.1494	428.9348	450.4948	629.6774	665.5406	692.0341	788.6638	827.22	860.5747	903.5732	916.5587	939.208	940.8429	970.483	1021.5867	1042.4159	1045.1632	1066.8254	1136.7191	1167.4969	1187.6052	1200.4631	1227.8355	1242.8097	1251.3523	1272.8631	1285.4722	1310.1558	1381.0584	1413.6825	1469.6314	1475.6201	1476.5756	1482.8738	1503.8706	1520.5467	1731.1116	3038.1651	3050.5335	3051.2366	3053.5401	3063.0732	3082.3912	3102.9581	3107.4072	3115.082	3126.0662	3166.339
CC1=NC2(CCC2)CO1	CC1=NC2(CCC2)CO1	
InChI=1S/C7H11NO/c1-6-8-7(5-9-6)3-2-4-7/h2-5H2,1H3	InChI=1S/C7H11NO/c1-6-8-7(5-9-6)3-2-4-7/h2-5H2,1H3
