21
gdb 58431	2.85429	1.28304	1.24499	1.6974	77.88	-0.2527	0.0748	0.3275	1152.6314	0.18118	-424.161355	-424.152478	-424.151534	-424.194562	35.047	
C	-0.1192704373	 1.5172031482	 0.0949401227	-0.389662
C	-0.1753126246	-0.0178661706	 0.0378763392	-0.04856
C	-1.6252477275	-0.5243744414	-0.0251608622	-0.389666
C	 0.6252804408	-0.5383042921	-1.1541326267	 0.505237
O	 0.0439089805	-0.0407369074	-2.3214888476	-0.501396
C	 2.1985906274	-0.5738888051	-1.1701542534	-0.034429
C	 2.2123860471	-1.7656741531	-0.1927522201	-0.239949
C	 1.1269956452	-2.0265304062	-1.2556434956	-0.03443
O	 2.0957521381	-1.5561725217	-2.2906633709	-0.342721
H	 0.9107504656	 1.8770789244	 0.1908709787	 0.106845
H	-0.543882004	 1.9519830044	-0.8132290265	 0.138057
H	-0.6849287503	 1.8901041255	 0.9545503149	 0.107297
H	 0.2769747519	-0.4055079499	 0.9559706202	 0.073317
H	-2.1147628144	-0.1777590449	-0.9385782832	 0.138059
H	-1.6679885994	-1.618778075	-0.0146422168	 0.106845
H	-2.1968687311	-0.1593876234	 0.8339024455	 0.107298
H	 0.5897650003	-0.4013359929	-3.0365632613	 0.285619
H	 2.9176111828	 0.2370189764	-1.293479091	 0.094946
H	 3.0882254973	-2.4057207537	-0.2955044445	 0.1153
H	 1.9230330126	-1.6134102141	 0.8469693845	 0.107045
H	 0.5742470591	-2.9396096174	-1.4804239859	 0.094946
69.1486	159.9227	211.7836	224.2197	252.5387	296.6364	321.4478	381.8217	459.236	467.1292	531.9694	628.0724	635.0508	716.2405	752.8467	817.3669	870.3542	882.337	904.3397	910.8087	934.2935	972.3441	1012.8154	1029.9648	1038.9675	1073.3672	1126.9624	1129.1579	1141.7932	1165.5518	1197.9077	1206.2119	1225.9863	1271.1549	1286.907	1343.5834	1347.6232	1396.9262	1417.717	1440.9265	1485.4803	1491.7884	1494.8074	1501.623	1517.2623	3035.1027	3038.1424	3057.1136	3090.8668	3097.2927	3100.5708	3110.6306	3118.684	3124.0943	3129.6616	3163.7014	3718.4262
CC(C)C1(O)C2CC1O2	CC(C)[C@@]1(O)[C@H]2C[C@@H]1O2	
InChI=1S/C7H12O2/c1-4(2)7(8)5-3-6(7)9-5/h4-6,8H,3H2,1-2H3	InChI=1S/C7H12O2/c1-4(2)7(8)5-3-6(7)9-5/h4-6,8H,3H2,1-2H3/t5-,6+,7-
