21
gdb 86231	1.98229	1.54033	1.16387	1.6947	83.35	-0.2466	0.0499	0.2965	1185.145	0.181765	-387.071911	-387.0624	-387.061456	-387.106211	36.391	
C	-0.3071434855	 1.5142088692	-0.0392307113	-0.414966
C	-0.0328890488	 0.0150345096	 0.0235947978	 0.035503
C	 0.7797004434	-0.5430330561	-1.1609919606	-0.219747
C	 1.428053342	-1.8594518447	-0.6742807458	 0.136649
O	 2.8195575327	-1.7791302273	-0.9604167417	-0.432136
C	 1.1196850225	-1.9308343296	 0.8447706633	-0.251076
C	 0.7631278998	-0.4833689042	 1.267703482	-0.188403
C	 1.9445351368	 0.3237728181	 1.5580716235	 0.37151
C	 2.9113772594	 0.9922434389	 1.8127307964	-0.505143
H	 0.6283065544	 2.0814901503	-0.0402296428	 0.132458
H	-0.8618385574	 1.7688957179	-0.9484008609	 0.11068
H	-0.9020183659	 1.84782047	 0.8177840335	 0.11025
H	-0.9952742822	-0.5141561911	 0.0619554899	 0.070704
H	 0.1676683275	-0.6774316231	-2.0566677461	 0.094738
H	 1.593475516	 0.143296922	-1.4156796148	 0.126627
H	 0.9956883177	-2.7316223695	-1.1857685953	 0.060613
H	 3.2353601342	-2.5882981684	-0.6462357678	 0.278316
H	 0.2432463	-2.5665273817	 1.0144951837	 0.095601
H	 1.9534373091	-2.3512666284	 1.4129233602	 0.099608
H	 0.1211590028	-0.4830423487	 2.1564153642	 0.094485
H	 3.7712568716	 1.5755711767	 2.0307350826	 0.193728
51.9508	101.0143	149.2664	213.487	228.2498	287.3047	318.7393	376.3658	419.2887	434.6296	455.9536	550.8425	603.9124	615.6308	630.7031	726.8041	782.3337	834.4988	860.6072	912.3435	951.3607	976.0915	997.0828	1030.7794	1062.2753	1068.0594	1119.1247	1164.5558	1184.6621	1214.291	1231.3624	1267.3123	1287.9198	1315.7704	1328.3928	1356.3449	1375.9241	1381.4057	1413.7059	1426.0641	1474.5068	1485.7677	1496.7319	1499.1526	2229.7258	2983.0709	3002.9959	3031.7202	3033.8107	3047.3873	3058.05	3096.556	3101.8897	3104.903	3113.1783	3504.2045	3815.5283
CC1CC(O)CC1C#C	C[C@H]1C[C@@H](O)C[C@H]1C#C	
InChI=1S/C8H12O/c1-3-7-5-8(9)4-6(7)2/h1,6-9H,4-5H2,2H3	InChI=1S/C8H12O/c1-3-7-5-8(9)4-6(7)2/h1,6-9H,4-5H2,2H3/t6-,7+,8+/m0/s1
