21
gdb 72172	2.27874	2.11659	1.66095	1.2033	80.29	-0.2519	0.0773	0.3292	941.675	0.186321	-387.096495	-387.089439	-387.088495	-387.127298	30.425	
O	-0.0729267756	 1.3894268911	 0.0429236859	-0.498164
C	-0.006523895	-0.0031568993	-0.0285846361	 0.433494
C	 0.2578536367	-0.7884004772	-1.3363445152	-0.307543
C	-0.4206982777	-1.9316992334	-0.532223322	-0.041372
C	 0.6474869737	-2.203356846	 0.5489767535	-0.221048
C	 0.746329387	-0.7559236432	 1.1171117673	-0.077644
C	-0.2251077409	-0.6259151466	 2.3037021998	-0.210033
C	-1.6019127947	-0.9578408012	 1.6514040761	-0.247777
C	-1.3085938076	-0.8236931497	 0.1501496365	-0.026204
H	 0.825689279	 1.7366025813	 0.0485210483	 0.275919
H	-0.3604305962	-0.4133290929	-2.1553637486	 0.098273
H	 1.2879203128	-0.9403807141	-1.6750411654	 0.079092
H	-0.8701070598	-2.7886204274	-1.0328277195	 0.060194
H	 0.3371640231	-2.9268805423	 1.3091458871	 0.091714
H	 1.5827398515	-2.5614182744	 0.1083538172	 0.091286
H	 1.7629928439	-0.4076414058	 1.3191423408	 0.045908
H	 0.0329504994	-1.2927541969	 3.1317686255	 0.087319
H	-0.2207730794	 0.400119953	 2.684700064	 0.100569
H	-1.950799212	-1.9631595495	 1.9100720873	 0.096123
H	-2.3803879615	-0.2597939396	 1.9708870015	 0.101954
H	-2.1382578467	-0.5022080859	-0.4806737741	 0.067941
222.8847	240.1378	256.282	308.8162	421.4143	427.4812	460.1365	556.1177	630.9965	690.4057	708.4801	796.7755	818.0234	848.5151	865.4656	885.9865	910.0906	934.074	964.7099	971.17	1003.3224	1034.0813	1044.4341	1063.943	1073.2334	1093.4719	1141.0173	1149.9505	1169.2139	1193.1836	1206.3884	1221.6321	1251.5769	1267.6325	1282.8394	1301.7638	1311.8177	1313.3432	1331.4588	1354.0162	1392.7765	1483.0617	1494.6904	1502.9532	1521.1602	3042.5785	3043.6958	3046.4146	3050.3331	3071.6006	3081.5106	3087.6937	3099.2511	3107.8167	3112.1412	3120.8812	3800.5763
OC12CC3CC1CCC23	O[C@@]12C[C@H]3C[C@@H]1CC[C@@H]23	
InChI=1S/C8H12O/c9-8-4-5-3-6(8)1-2-7(5)8/h5-7,9H,1-4H2	InChI=1S/C8H12O/c9-8-4-5-3-6(8)1-2-7(5)8/h5-7,9H,1-4H2/t5-,6+,7-,8+/m1/s1
