18
gdb 8797	4.89181	1.14292	0.94253	2.0608	71.27	-0.2336	-0.0466	0.187	1252.7813	0.151999	-381.154436	-381.144684	-381.14374	-381.189908	33.296	
C	 0.0589692582	 1.5481028655	 0.0434906434	-0.383447
C	 0.0848552591	 0.0230428831	-0.0067798329	-0.272136
C	 0.7762384149	-0.5203147039	-1.2347233741	 0.374484
O	 1.263763659	 0.1877360161	-2.0923531116	-0.332307
C	 0.8551978251	-2.0361362255	-1.3855939703	 0.256885
N	 0.3345572293	-2.7717186333	-0.4709265288	-0.536014
N	 1.4978469551	-2.4026429874	-2.5240490933	-0.295368
C	 1.7115336109	-3.7727422492	-2.9143320729	-0.33659
H	 1.0716177082	 1.9603622129	 0.0398408296	 0.127187
H	-0.462366226	 1.9627973182	-0.823518644	 0.127101
H	-0.4497822682	 1.8916582008	 0.9482616388	 0.111392
H	 0.5812470272	-0.4111722591	 0.8692969445	 0.143152
H	-0.922425581	-0.4091978653	 0.0223317636	 0.143279
H	 0.4456661083	-3.7662310244	-0.6745023282	 0.209408
H	 1.8247033459	-1.639833346	-3.0972896391	 0.261783
H	 2.3098867648	-4.3182972215	-2.1717401275	 0.132429
H	 0.7625494438	-4.3111556031	-3.0432855374	 0.132427
H	 2.2468666653	-3.7953341778	-3.8649095797	 0.136337
48.5825	63.8644	86.0528	134.5729	163.8644	197.603	270.0497	334.0517	371.142	414.6497	491.3874	523.2863	658.6028	683.6179	800.3421	820.5344	861.3515	955.4684	1008.2359	1079.0817	1089.8363	1141.8131	1159.7585	1185.3511	1205.3965	1260.1411	1318.5897	1384.5013	1415.2448	1434.2127	1455.0728	1480.8794	1493.9432	1498.8715	1518.6341	1549.7018	1701.2172	1785.7563	3000.4597	3042.024	3049.4856	3050.4721	3072.171	3121.5572	3122.1749	3132.3267	3463.3258	3620.5713
CCC(=O)C(=N)NC	CCC(=O)C(=N)NC	
InChI=1S/C5H10N2O/c1-3-4(8)5(6)7-2/h3H2,1-2H3,(H2,6,7)	InChI=1S/C5H10N2O/c1-3-4(8)5(6)7-2/h3H2,1-2H3,(H2,6,7)
