21
gdb 120950	4.4039	0.93479	0.90789	2.4335	79.1	-0.2374	0.09	0.3273	1398.8875	0.182973	-424.197284	-424.188823	-424.187878	-424.230897	32.299	
C	 0.0285511364	 1.4675679385	-0.0515876368	-0.38409
C	-0.1060386879	-0.0415975195	-0.1652838504	-0.03921
O	 0.8621420239	-0.5081231587	-1.0844946627	-0.26108
C	 0.8692227307	-1.901893997	-1.2544931173	 0.177482
C	-0.2751859578	-2.4717566715	-2.1640850492	-0.263691
C	 0.6326377087	-3.0420297474	-3.274484928	 0.079343
C	 1.7419107637	-3.7856818793	-2.496035252	-0.235744
C	 2.050766625	-2.310669387	-2.1557139974	 0.037627
O	 1.5750191195	-1.9461914391	-3.4871438674	-0.291261
H	 1.0305107986	 1.7377574784	 0.293703868	 0.125928
H	-0.1364880133	 1.9405447822	-1.0236735101	 0.129803
H	-0.7038303234	 1.8640577534	 0.6580439649	 0.112436
H	 0.0456057737	-0.5200612543	 0.8178183676	 0.082627
H	-1.1207529953	-0.3121678168	-0.4998575095	 0.087646
H	 0.9118436704	-2.4020706253	-0.2745293546	 0.06048
H	-0.8978657441	-3.2267643011	-1.677128839	 0.095414
H	-0.9080934325	-1.667306006	-2.5446203147	 0.11656
H	 0.1769616795	-3.4210403121	-4.1892559086	 0.079512
H	 1.4667479831	-4.4797801337	-1.6967314151	 0.092709
H	 2.4946188682	-4.2128023528	-3.1586761487	 0.113668
H	 3.038858073	-1.9259464209	-1.9070160191	 0.083843
70.9985	97.7818	120.1235	225.1855	251.777	337.1379	358.8417	429.5603	527.1168	583.678	721.1487	821.6264	824.6478	848.0208	850.2573	874.5763	880.727	914.0874	950.7082	971.3983	990.8456	1033.3478	1041.7666	1085.7478	1094.0902	1135.8367	1154.1499	1187.9971	1195.2014	1205.9817	1227.1508	1232.6546	1265.4043	1296.6369	1303.9427	1311.6586	1331.8701	1377.8795	1404.3786	1441.7541	1471.1597	1482.9507	1491.3265	1500.3355	1529.6725	2953.1104	2979.8025	2984.9745	3045.0445	3061.147	3067.9716	3119.1986	3121.13	3122.4216	3124.847	3136.7803	3146.3446
CCOC1CC2CC1O2	CCO[C@H]1C[C@@H]2C[C@H]1O2	
InChI=1S/C7H12O2/c1-2-8-6-3-5-4-7(6)9-5/h5-7H,2-4H2,1H3	InChI=1S/C7H12O2/c1-2-8-6-3-5-4-7(6)9-5/h5-7H,2-4H2,1H3/t5-,6+,7-/m1/s1
