17
gdb 17021	4.08484	1.63935	1.36253	1.7068	75.75	-0.2296	0.0267	0.2562	943.4314	0.141916	-326.608684	-326.601284	-326.600339	-326.640017	28.883	
C	-0.0677614708	 1.6649783094	 0.0510872045	-0.446996
C	 0.0259302777	 0.1554646632	-0.0444234183	 0.09128
C	 0.8032373373	-0.5973394745	-1.1567605061	-0.085497
C	 2.0747940774	-0.1633615359	-0.4044537826	-0.180585
N	 1.1467699058	-0.5696463009	 0.7578403273	-0.166031
C	 0.815491533	-1.7891850679	-0.1566527906	-0.158602
C	-0.3801638362	-2.5511295498	 0.1361859984	 0.339148
C	-1.3457123308	-3.2326906725	 0.3595194683	-0.436205
H	 0.8353561822	 2.1957615159	-0.2568754561	 0.120398
H	-0.8910840599	 2.0179104854	-0.5793352862	 0.123185
H	-0.2937901751	 1.9543905421	 1.0826776226	 0.135175
H	-0.9475694658	-0.2791077953	 0.1968953776	 0.090774
H	 0.6098515617	-0.63432224	-2.2347596914	 0.069344
H	 2.9617321775	-0.7971790897	-0.4904083226	 0.101488
H	 2.3549391557	 0.888368878	-0.4005179306	 0.105752
H	 1.6768187425	-2.4589568197	-0.2383442683	 0.100521
H	-2.2024249021	-3.8262053782	 0.5638441541	 0.19685
146.4836	152.6694	173.4281	283.9999	336.9778	453.9751	490.7446	533.7442	621.5731	629.7551	652.345	742.1018	767.3886	790.9642	840.6231	895.1646	911.4073	1023.7775	1034.4683	1054.7646	1075.4189	1122.3026	1144.6	1146.0995	1165.5595	1192.2379	1222.3626	1249.1412	1275.1743	1388.4919	1408.2095	1435.9595	1493.7524	1494.2103	1545.8997	2230.3222	3038.0958	3040.9286	3061.6873	3069.6774	3076.0142	3101.0501	3125.337	3153.1019	3501.7211
CC1C2CN1C2C#C	C[C@H]1[C@H]2CN1[C@H]2C#C	
InChI=1S/C7H9N/c1-3-7-6-4-8(7)5(6)2/h1,5-7H,4H2,2H3	InChI=1S/C7H9N/c1-3-7-6-4-8(7)5(6)2/h1,5-7H,4H2,2H3/t5-,6+,7-/m0/s1
