20
gdb 85053	2.25372	1.54638	1.14105	4.3849	75.08	-0.2368	0.0349	0.2717	1140.9968	0.170925	-440.335893	-440.326402	-440.325458	-440.369973	35.499	
C	 0.7575363729	 1.5245048367	-0.0214689208	-0.376074
C	 0.0824497855	 0.150178746	 0.0144209831	-0.026746
N	 0.4652695434	-0.7104115974	-1.0931659921	-0.304275
C	 1.3605941702	-1.704394645	-0.7979081816	 0.408337
O	 1.8840857164	-2.4467400961	-1.6000869703	-0.390535
C	 1.5872236886	-1.6832773584	 0.718656585	-0.133425
C	 3.0286515419	-1.2637284895	 1.042303386	-0.393608
C	 0.4812612821	-0.7420699995	 1.2395077684	 0.091314
O	 0.9195303331	-0.0196923789	 2.372359463	-0.415788
H	 1.846571122	 1.4359277479	-0.0246915274	 0.134413
H	 0.4551543996	 2.0709645689	-0.9209337489	 0.111286
H	 0.4701319429	 2.1199781011	 0.8493636911	 0.112881
H	-1.0058033251	 0.2981205542	 0.0068399701	 0.077879
H	 0.2639239238	-0.4894549952	-2.0567054967	 0.246775
H	 1.4360535498	-2.6982803862	 1.0969775366	 0.10131
H	 3.2626609086	-0.2663146336	 0.6598621538	 0.122426
H	 3.1908690681	-1.2541419083	 2.1217559313	 0.129801
H	 3.7182727571	-1.9741249416	 0.5794574795	 0.134853
H	-0.3949250339	-1.353049049	 1.4967750327	 0.0808
H	 0.1560726529	 0.3960508037	 2.7844169871	 0.288375
74.6828	97.867	196.0535	218.6757	239.4646	248.9705	266.1206	282.9003	371.4558	428.3889	503.6833	531.3662	535.5842	667.6628	715.1279	743.6863	746.1476	834.1044	874.24	972.1272	1041.7456	1049.4282	1068.8188	1104.0863	1116.1559	1140.3374	1159.5889	1242.523	1261.402	1284.3689	1303.1325	1349.8644	1363.7232	1394.127	1399.4329	1410.5708	1432.2305	1441.9914	1484.0389	1488.1794	1497.3919	1500.9091	1826.6636	2990.766	3011.735	3042.7529	3052.5314	3068.3233	3110.5787	3122.9874	3132.4748	3138.2451	3623.5996	3824.46
CC1NC(=O)C(C)C1O	C[C@H]1NC(=O)[C@@H](C)[C@H]1O	
InChI=1S/C6H11NO2/c1-3-5(8)4(2)7-6(3)9/h3-5,8H,1-2H3,(H,7,9)	InChI=1S/C6H11NO2/c1-3-5(8)4(2)7-6(3)9/h3-5,8H,1-2H3,(H,7,9)/t3-,4+,5+/m0/s1
