18
gdb 37973	2.68014	1.99367	1.44688	0.8477	69.58	-0.241	0.0654	0.3065	923.0232	0.151234	-439.023324	-439.01677	-439.015826	-439.053956	27.217	
C	-0.0637750039	 1.4365517666	-0.1682204249	-0.226436
C	 1.4743403743	 1.5322448688	 0.0713471434	 0.109003
O	 2.0465910477	 2.3455049734	 1.0693459101	-0.249939
C	 1.3844108561	 2.4015072737	 2.3081534733	 0.007623
O	 1.2816631634	 1.1761442375	 2.973736505	-0.226502
C	 0.2138848843	 0.3364221297	 2.5550910825	-0.128754
C	 0.4806448899	-0.4243997384	 1.2590893082	-0.024907
C	 1.4570917926	 0.0122903332	 0.2443007357	-0.068072
N	-0.0334401806	-0.0616541587	-0.0865403251	-0.150054
H	-0.7365407875	 1.9190130326	 0.5446412774	 0.106774
H	-0.3535578547	 1.7444035798	-1.1740632519	 0.119699
H	 1.9906137962	 1.8134156233	-0.8485615332	 0.102665
H	 2.0044040488	 3.0487231426	 2.9324469408	 0.120113
H	 0.382748888	 2.8488542726	 2.1913862765	 0.081211
H	 0.0866979571	-0.3901808752	 3.3617608421	 0.119669
H	-0.7215483958	 0.9122851255	 2.4917138916	 0.106498
H	 0.4237679819	-1.5042672484	 1.3738380541	 0.104568
H	 2.1787330022	-0.6684295086	-0.1960236656	 0.09684
204.0328	237.4096	287.6506	418.5898	421.9114	437.4788	484.4185	630.5227	648.8744	710.4793	761.3682	806.2871	850.8364	892.2308	956.707	971.939	984.6272	1012.8057	1020.1105	1062.687	1069.3641	1100.0457	1117.0057	1168.7844	1186.9547	1217.6172	1247.2135	1259.5114	1291.495	1293.0914	1334.7842	1358.6916	1398.9571	1404.5527	1432.711	1449.6823	1484.5097	1501.5426	1521.4624	2959.1014	2997.9107	3074.0044	3089.3462	3091.477	3107.0928	3124.1231	3137.3393	3164.545
C1C2OCOCC3C2N13	C1[C@H]2OCOC[C@@H]3[C@H]2N13	
InChI=1S/C6H9NO2/c1-5-6-4(7(1)6)2-8-3-9-5/h4-6H,1-3H2	InChI=1S/C6H9NO2/c1-5-6-4(7(1)6)2-8-3-9-5/h4-6H,1-3H2/t4-,5-,6-,7?/m1/s1
