15
gdb 10669	2.83959	2.10567	1.33427	2.7673	68.54	-0.2469	0.0245	0.2714	903.0607	0.117495	-362.657487	-362.649239	-362.648294	-362.689938	30.805	
N	 0.0001103107	 1.2533826505	 0.3583789996	-0.569586
C	-0.012224859	 0.0066713876	-0.1746140521	 0.386098
O	 0.9483447916	-0.4950931064	-0.73170381	-0.379338
C	-1.322445685	-0.7473166436	-0.0345461935	 0.055987
C	-1.6249261481	-1.7072492935	-1.1911476208	-0.281634
C	-1.1646027729	-2.265887187	 0.1066440768	-0.281602
C	-2.4194675631	-0.1052786197	 0.631069102	 0.183067
C	-3.3248562458	 0.4554254703	 1.193752694	-0.39453
H	 0.8462274285	 1.7931703448	 0.291055188	 0.26163
H	-0.8108468884	 1.6377402211	 0.8120388092	 0.267942
H	-2.6669448826	-1.8114516946	-1.467307285	 0.129854
H	-0.9100341243	-1.6742044346	-2.0042059493	 0.149423
H	-0.1394500083	-2.6099621133	 0.1687928541	 0.149411
H	-1.8818492599	-2.7641227675	 0.7471574985	 0.129857
H	-4.1343570333	 0.9340386159	 1.6870262184	 0.193421
66.8367	157.7428	205.7287	234.6618	267.7135	273.6942	419.8665	506.2848	518.0064	540.9639	574.1412	612.5596	660.7368	667.2988	762.048	791.4934	869.2721	891.2913	980.429	994.3226	1073.4017	1101.191	1102.046	1208.9788	1229.0549	1304.1713	1374.2617	1445.4056	1476.5909	1609.2786	1785.7337	2225.1	3150.23	3151.3717	3243.2329	3256.7655	3500.2623	3602.3128	3739.8466
NC(=O)C1(CC1)C#C	NC(=O)C1(CC1)C#C	
InChI=1S/C6H7NO/c1-2-6(3-4-6)5(7)8/h1H,3-4H2,(H2,7,8)	InChI=1S/C6H7NO/c1-2-6(3-4-6)5(7)8/h1H,3-4H2,(H2,7,8)
