17
gdb 31776	3.33493	1.20492	0.89506	3.8024	71.1	-0.1922	0.0529	0.2451	1244.7596	0.13583	-455.174842	-455.165369	-455.164425	-455.210515	32.863	
C	-0.0184537832	 1.4524882314	-0.0424674144	-0.350452
N	 0.021872214	 0.0050528885	-0.0347279515	-0.123903
C	 0.0235863126	-0.8575935333	-1.1353456788	 0.268955
C	-0.0195554829	-0.3602509014	-2.5413164241	-0.19085
O	 0.0003753831	-1.4891579716	-3.3941887525	-0.406676
C	 0.0701061224	-2.1152933148	-0.6121017979	-0.169005
N	 0.0978822654	-2.0746274718	 0.7756301346	-0.379294
C	 0.0677186447	-0.8033926219	 1.0594786038	 0.428342
O	 0.0776618795	-0.2525517077	 2.2897436175	-0.433236
H	 0.8537600737	 1.8688398282	-0.5578082097	 0.138109
H	-0.9248887778	 1.8185657255	-0.5362994159	 0.138037
H	-0.0159206003	 1.8044622038	 0.989028491	 0.165861
H	-0.9270202244	 0.249285975	-2.7071309556	 0.09391
H	 0.8397653218	 0.3062558908	-2.7409813122	 0.09382
H	-0.0325496995	-1.1763605087	-4.3022923972	 0.292111
H	 0.0853594107	-3.04764743	-1.1514863001	 0.120817
H	 0.11067241	-0.9927432321	 2.9083487532	 0.313452
24.6826	65.8771	134.1076	171.8203	188.3775	240.879	283.4152	327.4536	366.0426	395.5214	541.7729	627.5329	630.8236	716.1878	750.9586	783.7775	831.876	976.9982	1051.8396	1089.4487	1123.6335	1153.7704	1178.0937	1207.9354	1233.2915	1239.504	1282.9562	1303.1465	1379.2901	1455.6721	1477.7427	1490.5975	1506.6453	1521.4598	1578.3385	1602.7417	1630.1248	2922.5416	2929.894	3032.9697	3086.713	3156.8131	3276.9849	3808.9429	3843.2348
CN1C(CO)=CN=C1O	Cn1c(CO)cnc1O	
InChI=1S/C5H8N2O2/c1-7-4(3-8)2-6-5(7)9/h2,8H,3H2,1H3,(H,6,9)	InChI=1S/C5H8N2O2/c1-7-4(3-8)2-6-5(7)9/h2,8H,3H2,1H3,(H,6,9)
