14
gdb 5106	3.44856	2.18043	1.35164	5.6733	59.58	-0.1964	0.0429	0.2393	852.6429	0.107918	-415.905685	-415.89803	-415.897086	-415.937585	27.558	
C	-0.1128557514	 1.4491819957	 0.0267066765	-0.349641
N	-0.0012380505	 0.0077269778	 0.0427638492	-0.150691
C	 0.0064641161	-0.7623407147	-1.106807267	 0.487215
O	-0.0170270087	-0.3974239155	-2.2539644858	-0.418385
O	 0.0408593222	-2.0679899509	-0.6948118247	-0.216562
C	 0.06772255	-2.0902107064	 0.6957725789	-0.114391
C	 0.0281642989	-0.8309721356	 1.1602234796	 0.260814
N	-0.0869103435	-0.2935632741	 2.4419741799	-0.601331
H	 0.8215932087	 1.9339346327	 0.3332811665	 0.128983
H	-0.3347689637	 1.7405060634	-1.001068772	 0.17494
H	-0.9181438836	 1.7771208115	 0.6896648089	 0.147418
H	 0.0932397556	-3.0529036501	 1.1720511595	 0.13927
H	-0.1263200499	-1.0173742225	 3.1482391727	 0.257517
H	 0.66180832	 0.3523877189	 2.6714304078	 0.254844
113.6938	136.7825	186.2178	232.772	268.871	340.9318	363.598	588.0385	596.6021	606.7722	629.4507	736.0011	759.3183	779.4161	805.1322	982.2388	1064.4223	1116.6172	1148.0261	1159.705	1240.9941	1287.9318	1351.3778	1425.6695	1484.7682	1501.3185	1515.6374	1640.1914	1728.3909	1872.5331	3028.8073	3096.4293	3151.573	3308.1077	3508.4354	3613.6187
CN1C(=O)OC=C1N	Cn1c(=O)occ1N	
InChI=1S/C4H6N2O2/c1-6-3(5)2-8-4(6)7/h2H,5H2,1H3	InChI=1S/C4H6N2O2/c1-6-3(5)2-8-4(6)7/h2H,5H2,1H3
