25
gdb 116203	2.12683	1.41598	0.95994	0.2028	92.3	-0.2567	0.0846	0.3413	1356.8287	0.230558	-352.366426	-352.357123	-352.356179	-352.400749	36.68	
C	 0.0273840964	 1.6044009675	 0.0851757427	-0.389369
C	-0.0060278283	 0.0728148765	 0.0389085246	-0.194467
C	 0.7054641434	-0.5205145991	-1.1813736836	-0.023105
C	 2.2123365864	-0.1937161221	-1.2662052549	-0.211894
C	 2.7726338546	-1.267269232	-2.2096569772	-0.214344
C	 2.0467020176	-2.5447601651	-1.7540570162	-0.280707
C	 0.6556222568	-2.0645067757	-1.3093578817	 0.372388
C	-0.1644033472	-2.9430269316	-0.3959372219	-0.316257
C	-0.585319511	-2.7445834768	-1.8304665035	-0.308815
H	 1.051386723	 1.9833138543	 0.1612515107	 0.118316
H	-0.4189422092	 2.0368695216	-0.8176491353	 0.112024
H	-0.5308365024	 1.9847268718	 0.9464190028	 0.10912
H	 0.4455582896	-0.3342728956	 0.9530321735	 0.094483
H	-1.0538072679	-0.2550526205	 0.0445477793	 0.092387
H	 0.2281326524	-0.099964943	-2.0793117185	 0.065561
H	 2.4077412176	 0.8257666294	-1.6100235376	 0.092484
H	 2.6701734781	-0.2972959056	-0.2724823775	 0.091521
H	 2.5033361924	-1.0267747153	-3.2455990498	 0.096516
H	 3.8620372112	-1.3560216158	-2.1685132477	 0.090244
H	 1.9992711815	-3.3111833199	-2.5340512734	 0.091774
H	 2.5813386981	-2.9863261969	-0.9034241844	 0.095665
H	 0.2591241434	-3.9028399898	-0.1151369008	 0.102337
H	-0.7674044442	-2.4859131682	 0.3805575629	 0.107891
H	-1.4612331087	-2.1295095468	-2.0179743356	 0.102689
H	-0.4688232036	-3.5713337513	-2.524445327	 0.103556
38.47	115.4893	183.0893	210.2704	251.9931	282.8688	294.071	364.2419	422.6966	474.4293	492.2807	563.5766	703.0567	776.2539	790.0282	832.7771	861.4746	878.0027	920.4641	931.1935	933.3587	950.7463	977.1106	1005.3319	1020.0552	1027.9064	1057.1235	1071.7015	1081.1764	1131.7636	1146.3325	1182.1832	1191.9426	1208.3162	1242.5094	1267.3917	1290.6076	1306.5915	1319.5647	1329.0678	1344.3539	1356.6668	1374.2337	1388.7547	1414.131	1466.9375	1486.9412	1489.4522	1492.3572	1502.0235	1504.6982	1508.0164	1509.3327	2981.1377	3011.4232	3015.0644	3020.9399	3031.3571	3032.1471	3047.0957	3072.9025	3086.1833	3091.3022	3096.8253	3106.0073	3113.2841	3125.9802	3193.0886	3213.193
CCC1CCCC11CC1	CC[C@H]1CCCC21CC2	
InChI=1S/C9H16/c1-2-8-4-3-5-9(8)6-7-9/h8H,2-7H2,1H3	InChI=1S/C9H16/c1-2-8-4-3-5-9(8)6-7-9/h8H,2-7H2,1H3/t8-/m0/s1
