17
gdb 31197	2.11203	1.62699	0.93774	3.262	86.97	-0.172	0.0329	0.2049	1225.2591	0.136111	-380.870994	-380.861884	-380.86094	-380.90537	33.727	
C	 0.1976301792	 1.2632806718	 0.2631311515	-0.338684
N	-0.2870954014	-0.0243593316	-0.2168864704	-0.39895
C	 0.4768434206	-0.7384738707	-1.1250672611	 0.27632
C	 0.6719776072	-2.1152739755	-1.2159358467	 0.097538
C	 1.4722453161	-2.3403175813	-2.3895541317	-0.266031
C	 1.740928312	-1.1270402964	-2.9517411	-0.090274
N	 1.1320487942	-0.1529294475	-2.169308831	-0.303611
C	 0.1615471381	-3.0511828247	-0.2942890004	 0.196213
C	-0.2848680801	-3.8260214772	 0.5173780904	-0.45356
H	 1.2192467832	 1.2280774666	 0.6716460701	 0.120902
H	 0.1767749202	 2.0061876552	-0.5424823344	 0.121518
H	-0.4787161164	 1.6236112199	 1.0413100753	 0.135083
H	-0.5979596805	-0.636170229	 0.5265017797	 0.249705
H	 1.8066276033	-3.301607438	-2.7455373991	 0.099531
H	 2.3150461256	-0.8525098052	-3.8205688477	 0.118315
H	 1.116290877	 0.8290005178	-2.3788453898	 0.261424
H	-0.6781779983	-4.5210839041	 1.2159510252	 0.17456
34.3137	120.0658	160.1672	167.4737	223.3912	306.9344	397.9028	425.1087	426.6515	498.0665	523.7788	597.5444	620.8017	642.2589	655.584	663.9048	737.5376	768.724	823.4286	912.4609	1034.0608	1085.3316	1090.6211	1147.0484	1164.6991	1193.4819	1278.0753	1323.9054	1381.9127	1449.8939	1463.8099	1491.9599	1512.6948	1549.0591	1553.4843	1627.4926	2212.6358	2984.7812	3058.2198	3121.1294	3258.9985	3282.3718	3505.598	3576.2306	3692.2458
CNC1=C(C=CN1)C#C	CNc1c(cc[nH]1)C#C	
InChI=1S/C7H8N2/c1-3-6-4-5-9-7(6)8-2/h1,4-5,8-9H,2H3	InChI=1S/C7H8N2/c1-3-6-4-5-9-7(6)8-2/h1,4-5,8-9H,2H3
