15
gdb 128074	4.59225	1.043	0.85455	3.6104	69.59	-0.2521	-0.0318	0.2203	1284.0763	0.115121	-450.164703	-450.156448	-450.155504	-450.198528	28.669	
C	-0.0055870683	 1.4211027263	-0.0757327341	-0.336226
N	 0.1076970742	-0.0187375391	 0.0257967407	-0.327725
C	 0.5688301877	-0.6393789347	 1.1434011399	 0.331938
O	 0.930474029	-0.066566685	 2.159196177	-0.384543
C	 0.6088955483	-2.1228850465	 1.0517211754	 0.239858
N	 0.2291371729	-2.8177476975	-0.0266232563	-0.3041
N	 0.432619692	-4.072301842	 0.3366615242	-0.065869
N	 0.9134583812	-4.2687805221	 1.5601056749	-0.195821
C	 1.0342297705	-3.0316570522	 2.0370574437	-0.09815
H	 0.6150231586	 1.812936341	-0.8893269928	 0.127704
H	-1.0431939053	 1.7280091068	-0.2488443248	 0.127689
H	 0.3374918781	 1.8440049234	 0.8692079515	 0.171405
H	-0.1628318032	-0.6013003625	-0.7510360582	 0.262567
H	 0.2335554287	-4.8426286716	-0.2821680929	 0.298478
H	 1.4057260657	-2.8346379143	 3.0283145919	 0.152793
71.9081	87.6555	113.6614	150.8053	241.6847	311.4223	392.8847	502.1229	525.9604	548.7374	674.0975	724.7709	800.3273	818.0121	918.604	986.3734	1006.0893	1052.8488	1147.1927	1153.8435	1175.6267	1197.4261	1235.7802	1258.6887	1365.4804	1403.5407	1440.5419	1474.7962	1499.3672	1500.8935	1548.2035	1586.9218	1771.3746	3027.0866	3078.3174	3152.7734	3293.7035	3633.0116	3659.7995
CNC(=O)C1=NNN=C1	CNC(=O)c1n[nH]nc1	
InChI=1S/C4H6N4O/c1-5-4(9)3-2-6-8-7-3/h2H,1H3,(H,5,9)(H,6,7,8)	InChI=1S/C4H6N4O/c1-5-4(9)3-2-6-8-7-3/h2H,1H3,(H,5,9)(H,6,7,8)
