18
gdb 9663	3.54591	1.29553	1.10898	2.4971	70.11	-0.246	-0.0248	0.2212	1125.9919	0.151015	-384.940873	-384.931848	-384.930904	-384.974512	32.6	
C	-0.1025111365	 1.4976628596	-0.2030551416	-0.376112
C	-0.1035638931	 0.0583169114	 0.326024201	-0.198127
C	-1.4367550087	-0.6267919019	 0.1182012186	-0.004592
C	-1.7816747473	-1.2847312834	-1.1825355315	-0.337938
C	-1.516319413	-2.1486298294	 0.0426929082	 0.242491
O	-0.316116307	-2.8567257081	 0.1510810708	-0.459863
C	-2.6860685638	-2.7881655369	 0.7046260394	 0.105547
O	-3.8082589845	-2.3406945749	 0.6968388388	-0.271001
H	 0.8681096394	 1.9747975498	-0.0366711026	 0.114188
H	-0.3124285403	 1.5239778922	-1.2774046028	 0.117601
H	-0.8636883152	 2.1057865914	 0.2974551356	 0.117923
H	 0.682570241	-0.526193111	-0.1613542238	 0.109173
H	 0.1368331602	 0.0593412397	 1.3962480193	 0.105265
H	-2.2798368837	-0.1859929154	 0.6445233968	 0.111271
H	-2.8064352814	-1.2467766086	-1.5349211409	 0.136954
H	-1.0127753366	-1.3160044042	-1.9484199499	 0.116498
H	-0.2808498299	-3.5083685252	-0.5568353019	 0.291182
H	-2.4295469696	-3.7356640251	 1.2297972566	 0.079541
75.0417	114.0137	148.14	190.8482	242.1878	254.4736	283.7851	316.6415	389.6242	445.7443	509.0936	632.2035	718.8946	776.6378	799.7284	861.9894	933.7403	960.5884	984.9346	1040.6135	1062.0104	1072.4587	1105.6625	1131.3988	1199.1461	1243.399	1266.1465	1290.8357	1330.4854	1353.0426	1406.8902	1411.02	1417.302	1461.9252	1489.779	1498.6309	1508.957	1808.5515	2885.5232	3033.2337	3035.8006	3079.4805	3105.28	3106.8906	3126.4438	3147.0105	3225.1967	3806.5263
CCC1CC1(O)C=O	CC[C@H]1C[C@]1(O)C=O	
InChI=1S/C6H10O2/c1-2-5-3-6(5,8)4-7/h4-5,8H,2-3H2,1H3	InChI=1S/C6H10O2/c1-2-5-3-6(5,8)4-7/h4-5,8H,2-3H2,1H3/t5-,6-/m0/s1
