19
gdb 38565	2.64192	2.3332	1.7664	1.7537	76.17	-0.2394	0.0724	0.3118	852.3172	0.164042	-385.888833	-385.882918	-385.881974	-385.918799	26.011	
C	-0.0530952156	 1.4929931786	-0.2324136442	-0.239771
C	 1.3511287044	 2.0064182578	 0.0615356858	-0.055604
C	 2.1271500894	 1.6720668066	 1.3253060544	-0.055604
C	 1.5889149095	 0.7855277046	 2.4416429949	-0.239771
C	 1.0375235642	-0.4744006883	 1.7556776445	 0.102852
O	-0.3552571201	-0.3368529436	 1.4037677924	-0.302903
C	-0.01786002	-0.0196853333	 0.0369593726	 0.102852
C	 1.4801822538	-0.4001489389	 0.2599653313	-0.10464
C	 2.3314746701	 0.8492866847	 0.0677869974	-0.08423
H	-0.8415919494	 1.9597253897	 0.3670857104	 0.111625
H	-0.2807021245	 1.6863259324	-1.2878037212	 0.096496
H	 1.6398836939	 2.9416541174	-0.4081154239	 0.081339
H	 2.8740051515	 2.4099289637	 1.6016836173	 0.081339
H	 2.4190323274	 0.5231376529	 3.1087912078	 0.096496
H	 0.8073407497	 1.2492763343	 3.0524169139	 0.111625
H	 1.2087982634	-1.3935006585	 2.3241831917	 0.073458
H	-0.6247008686	-0.6035313937	-0.6617152159	 0.073458
H	 1.8444994969	-1.3136995955	-0.2054391464	 0.071044
H	 3.2525368441	 0.8352580893	-0.5015053229	 0.07994
167.3507	366.706	407.8274	428.847	608.5089	627.3417	669.8148	730.1284	733.3739	790.1532	827.6327	844.2313	850.5727	900.656	925.0291	942.5581	973.533	985.8312	1012.1777	1012.6878	1042.6584	1050.1047	1056.4872	1072.4184	1103.2368	1163.4206	1164.2152	1199.7948	1203.0539	1244.7901	1250.0429	1282.9004	1305.8896	1307.9566	1330.182	1345.8563	1365.4627	1367.0633	1418.888	1472.3645	1478.5782	3030.1676	3031.109	3059.2163	3063.129	3080.2577	3082.658	3134.6776	3148.7797	3159.2851	3186.4983
C1C2C3CC4OC1C4C23	C1[C@H]2[C@H]3C[C@H]4O[C@@H]1[C@H]4[C@@H]23	
InChI=1S/C8H10O/c1-3-4-2-6-8(7(3)4)5(1)9-6/h3-8H,1-2H2	InChI=1S/C8H10O/c1-3-4-2-6-8(7(3)4)5(1)9-6/h3-8H,1-2H2/t3-,4+,5-,6+,7-,8+
