23
gdb 112542	2.67273	1.04161	0.92774	2.5463	86.7	-0.2292	-0.0138	0.2155	1439.7861	0.203088	-388.318161	-388.307546	-388.306601	-388.353992	38.817	
C	 0.0541924885	-0.4746614567	-2.4686915181	-0.384473
C	-0.0926232016	-0.124968601	-0.9848822442	-0.189436
C	-1.1286767638	-0.9824909055	-0.2626370817	-0.091925
C	-0.8248478392	-2.4809450675	 0.066433196	-0.298971
C	-1.2964634938	-2.2798100445	 1.5499647628	 0.203741
C	-2.7155392143	-2.8044555194	 1.8083158456	-0.435258
C	-0.3309850623	-2.7079055133	 2.6529546708	-0.441643
C	-1.2996072652	-0.7644184131	 1.2491207052	 0.365271
O	-1.301505605	 0.2104313889	 1.9471727487	-0.319017
H	 0.8078124542	 0.1559446923	-2.9504569275	 0.116006
H	 0.3574940305	-1.5184090486	-2.604385522	 0.118792
H	-0.8917897222	-0.3331777404	-3.0031881147	 0.115028
H	 0.8763787101	-0.232998119	-0.4806800691	 0.097617
H	-0.376783093	 0.9278624496	-0.8723232687	 0.116067
H	-2.1033249799	-0.8824602942	-0.7590284868	 0.097327
H	-1.3777489441	-3.2248821954	-0.5102740702	 0.100887
H	 0.2436720166	-2.705705081	 2.6547*^-6	 0.103223
H	-2.7150155105	-3.8997944496	 1.8383565238	 0.118848
H	-3.0962494562	-2.4364594333	 2.7663017777	 0.130295
H	-3.4150092907	-2.4917264802	 1.0260122448	 0.116042
H	 0.6823962228	-2.3402262334	 2.4634176649	 0.115433
H	-0.6534359121	-2.3112359246	 3.6208353238	 0.13152
H	-0.2864105689	-3.8001227402	 2.7294173941	 0.114627
46.6052	84.6301	134.1876	170.632	188.6315	219.3149	235.2637	274.2894	282.6001	327.2469	351.5509	385.7725	550.5151	569.9837	703.0466	754.4799	771.9393	794.4435	888.2902	909.0688	937.9545	961.5765	983.5999	995.8179	1002.4953	1045.398	1086.0243	1133.0658	1156.2628	1196.385	1219.4408	1226.0029	1253.581	1281.8273	1296.0233	1326.1574	1372.7116	1396.9773	1412.0612	1417.3139	1479.9559	1482.516	1483.548	1491.2663	1499.5831	1501.2603	1504.8547	1506.6563	1875.676	3017.6435	3025.864	3027.2123	3029.6848	3031.3555	3059.1721	3062.3479	3094.0255	3097.3497	3098.9779	3103.6632	3103.822	3107.6869	3117.8698
CCC1CC(C)(C)C1=O	CC[C@H]1CC(C)(C)C1=O	
InChI=1S/C8H14O/c1-4-6-5-8(2,3)7(6)9/h6H,4-5H2,1-3H3	InChI=1S/C8H14O/c1-4-6-5-8(2,3)7(6)9/h6H,4-5H2,1-3H3/t6-/m0/s1
