17
gdb 69732	3.81668	1.57228	1.39199	2.1927	70.01	-0.2368	0.0663	0.3031	948.0119	0.136051	-421.736082	-421.729367	-421.728422	-421.766858	27.706	
C	-0.0859788464	 1.5270826866	 0.1087819871	-0.493547
C	 0.0839315375	 0.0422163335	-0.0104212486	 0.401558
O	-0.5680532983	-0.7828932395	 0.9824371183	-0.298325
C	 0.869647407	-0.8344942133	 0.8680265888	-0.05825
C	 1.3624866135	-1.9132971676	-0.0789364457	-0.084988
C	 0.2209085115	-2.2020026511	-1.0965770127	 0.070918
O	 1.193109337	-2.4247281206	-2.1826365969	-0.320302
C	 1.6787159928	-1.2473052104	-1.468925884	 0.051904
C	 0.2204809666	-0.6692074596	-1.3529109508	-0.12977
H	 0.6814504087	 2.0532836204	-0.4693085023	 0.125691
H	-1.0637602678	 1.839196469	-0.2744303468	 0.132221
H	-0.0146060074	 1.8397066179	 1.1535211262	 0.133359
H	 1.4309110093	-0.4945811399	 1.7326242	 0.10131
H	 1.9842777435	-2.7384134596	 0.2624701389	 0.085596
H	-0.6200606246	-2.886899408	-1.0112192052	 0.105899
H	 2.5948456776	-0.7759034703	-1.8285937037	 0.09531
H	-0.2632948203	-0.2848348775	-2.2493526324	 0.081414
185.8107	199.8106	255.4596	337.2985	436.6555	518.0134	545.6782	567.5193	721.4465	752.7436	760.6327	831.8117	855.8784	869.4277	893.9426	911.675	939.8352	962.4572	970.248	998.2019	1020.2864	1058.8611	1103.7563	1120.9719	1149.8336	1162.6873	1174.7541	1196.2703	1220.5231	1261.7115	1297.2073	1306.2008	1333.9814	1410.178	1453.0231	1485.2119	1495.64	3034.0135	3094.846	3104.4363	3122.1645	3136.776	3142.9259	3150.6529	3167.9582
CC12OC1C1C3OC1C23	C[C@]12O[C@H]1[C@H]1[C@@H]3O[C@H]1[C@H]23	
InChI=1S/C7H8O2/c1-7-3-4-2(5(3)8-4)6(7)9-7/h2-6H,1H3	InChI=1S/C7H8O2/c1-7-3-4-2(5(3)8-4)6(7)9-7/h2-6H,1H3/t2-,3+,4-,5+,6-,7+/m0/s1
