16
gdb 19440	4.06641	1.95846	1.62381	2.1561	63.65	-0.234	0.0786	0.3126	813.3726	0.131126	-383.69833	-383.691816	-383.690872	-383.728886	25.675	
C	-0.0188693137	 1.4779178214	 0.0249678848	-0.252643
O	 1.1772663429	 0.6947539325	-0.0845298105	-0.275724
C	-0.080385766	 0.0162424145	-0.0128297133	 0.418826
C	-0.3544204278	-0.8553272681	 1.2132996285	-0.167303
O	-0.3582213951	-2.2068489857	 0.7547734973	-0.259647
C	-0.6028354772	-2.2116723367	-0.6295849841	 0.124172
C	-1.8222519045	-1.5003559493	-1.1445665563	-0.340638
C	-0.4568367917	-0.8249553926	-1.1953599864	-0.161736
H	-0.1463796113	 2.0052254435	 0.9706240425	 0.113295
H	-0.2872154725	 2.0522628942	-0.860839148	 0.116119
H	 0.4263829727	-0.7386329602	 1.969475245	 0.128944
H	-1.3238736462	-0.6024991292	 1.666161932	 0.102966
H	-0.2266027831	-3.1076463708	-1.1075034955	 0.108844
H	-2.2290566959	-1.8339920651	-2.0928672271	 0.119797
H	-2.5652714527	-1.1423134464	-0.4398172117	 0.120487
H	 0.0185963022	-0.6087990519	-2.1434968171	 0.104241
116.9312	214.1041	300.6647	359.608	389.6773	476.2361	539.444	707.4629	749.2199	796.9053	812.4641	855.5083	889.7233	946.0094	969.4471	983.8368	1006.3161	1031.4507	1060.1536	1084.0491	1095.0299	1125.696	1155.3132	1167.242	1187.8842	1225.2633	1250.1488	1304.726	1329.6475	1386.8819	1446.8777	1475.8869	1508.2315	1536.9882	2997.6172	3075.5697	3093.9948	3133.7128	3160.6732	3190.7294	3198.5562	3221.8191
C1OC11COC2CC12	C1O[C@]21CO[C@H]1C[C@@H]21	
InChI=1S/C6H8O2/c1-4-5(1)7-2-6(4)3-8-6/h4-5H,1-3H2	InChI=1S/C6H8O2/c1-4-5(1)7-2-6(4)3-8-6/h4-5H,1-3H2/t4-,5+,6+/m1/s1
