17
gdb 88349	2.13759	1.31899	0.9023	4.8311	77.09	-0.3093	-0.0063	0.303	1284.2133	0.135187	-380.879008	-380.86974	-380.868796	-380.913793	32.907	
C	 0.1822293076	 1.556255558	-0.3359995438	-0.421015
C	 0.0526707666	 0.0731551253	-0.0612397215	-0.003569
C	 1.257429163	-0.8359660449	-0.0645704757	-0.307207
C	 0.5150433461	-0.5779964283	 1.2226580097	 0.010247
C	 1.1812545719	 0.2330897341	 2.3370983068	-0.329582
C	 0.1782265726	 0.8977071869	 3.1863081394	 0.306775
N	-0.6309053215	 1.4265490698	 3.8173804386	-0.305997
C	 2.0686248535	-0.6151628953	 3.1497356939	 0.3063
N	 2.7740857543	-1.2972731256	 3.7576077312	-0.301945
H	 1.1454602491	 1.9596170411	-0.0078787575	 0.116268
H	 0.1096581496	 1.7480803559	-1.4112117318	 0.132726
H	-0.6092987564	 2.1267458648	 0.1606157364	 0.142676
H	-0.8610041641	-0.3619546905	-0.4568033208	 0.10523
H	 1.1866478076	-1.8235714675	-0.5050459917	 0.131466
H	 2.2307922405	-0.3687358164	-0.1827926799	 0.123642
H	-0.1002456183	-1.3832289389	 1.6093854819	 0.122744
H	 1.8039679979	 1.0194654115	 1.8944097148	 0.171243
45.9184	102.8065	130.5829	163.5123	190.7268	240.8414	305.548	383.4842	397.4586	441.1166	521.5662	558.3238	587.8338	776.6783	831.7747	856.8113	890.8441	935.7253	984.2785	1031.7805	1057.3536	1077.8602	1107.2079	1145.826	1153.7712	1195.6394	1247.0658	1250.9169	1305.4391	1384.0645	1415.2412	1426.6574	1491.7602	1493.2036	1506.1224	2367.9122	2373.5414	3035.9707	3052.9841	3099.7749	3104.9909	3131.8918	3147.3087	3170.2	3219.9562
CC1CC1C(C#N)C#N	C[C@H]1C[C@H]1C(C#N)C#N	
InChI=1S/C7H8N2/c1-5-2-7(5)6(3-8)4-9/h5-7H,2H2,1H3	InChI=1S/C7H8N2/c1-5-2-7(5)6(3-8)4-9/h5-7H,2H2,1H3/t5-,7+/m0/s1
