18
gdb 105932	3.87614	1.41933	1.3184	2.7565	74.3	-0.2155	0.063	0.2785	1007.9716	0.14888	-401.846466	-401.839228	-401.838284	-401.878298	28.619	
O	 0.075160147	 1.0194693918	 0.8632064643	-0.418524
C	-0.0800898536	 0.1289936356	-0.2341910445	-0.231716
C	-1.4613440935	-0.4396705229	-0.1697192663	 0.361055
C	-2.7061984537	 0.3590905489	 0.2697776378	-0.129991
C	-2.2812538947	-0.8804638713	 1.0048423512	-0.075255
N	-3.1527345078	-1.7200408515	 0.0774441921	-0.186124
C	-3.7843307493	-0.4262356628	-0.4901248773	-0.011498
C	-3.2502438496	-0.7770648057	-1.8899100904	-0.248023
C	-2.150221034	-1.4768493426	-1.0722599366	-0.08626
H	 0.9771329903	 1.3522023719	 0.8554644714	 0.291875
H	 0.0667714018	 0.6500617011	-1.1960373164	 0.089236
H	 0.6621621979	-0.685418683	-0.1908997375	 0.09188
H	-2.6520770225	 1.3952130619	 0.5729736492	 0.100035
H	-2.0545378631	-1.0938971318	 2.0412220644	 0.0974
H	-4.8382839407	-0.2333089542	-0.2884164659	 0.075348
H	-3.8932122256	-1.5047008578	-2.3926292823	 0.111919
H	-2.9751332479	 0.0316989267	-2.5714706044	 0.096876
H	-1.578781601	-2.3268523042	-1.4481675588	 0.071768
76.7823	166.9568	209.1177	263.5254	357.7253	448.7532	549.3628	637.1122	734.663	777.0296	790.6184	810.4098	876.7222	882.3006	900.5486	915.4352	919.5234	946.9929	994.8055	1017.3714	1024.2031	1058.3951	1075.7467	1081.0389	1105.9107	1129.6084	1159.4153	1185.1988	1204.6868	1231.1162	1241.4842	1246.5778	1255.6385	1299.317	1307.6949	1429.3953	1473.5017	1480.5767	1521.7767	2948.0665	2972.1758	3058.7361	3102.4965	3111.0306	3121.2042	3195.7118	3219.0025	3835.1178
OCC12C3C1N1C3CC21	OC[C@]12[C@@H]3[C@H]1N1[C@@H]3C[C@@H]21	
InChI=1S/C7H9NO/c9-2-7-4-1-3-5(7)6(7)8(3)4/h3-6,9H,1-2H2	InChI=1S/C7H9NO/c9-2-7-4-1-3-5(7)6(7)8(3)4/h3-6,9H,1-2H2/t3-,4+,5+,6-,7+/m1/s1
