15
gdb 132967	3.25873	1.36814	0.96936	2.0864	74.48	-0.2016	-0.0617	0.1399	1123.9805	0.113359	-458.118374	-458.110723	-458.109779	-458.150662	28.783	
C	-0.3503428577	 1.3884592129	 0.0378661241	-0.325998
N	-0.0002309425	-0.0239301524	-0.0027294718	-0.081279
C	 0.1939658904	-0.67563125	-1.1897951457	-0.146228
C	 0.5189248035	-1.9914235373	-1.1845856616	 0.263651
F	 0.7122337709	-2.6441354995	-2.330673859	-0.075162
N	 0.6651680051	-2.7112217438	-0.0537552176	-0.275131
C	 0.4821272607	-2.0980494071	 1.0742586761	-0.066412
C	 0.1294620869	-0.6877846319	 1.224481584	 0.343612
N	-0.0646873646	-0.0253158534	 2.3120119828	-0.57646
H	 0.404146257	 1.9403154705	 0.6048760311	 0.161259
H	-0.4161642049	 1.7709955669	-0.9811930001	 0.128559
H	-1.3038447984	 1.5183391998	 0.5567798985	 0.161247
H	 0.0775492021	-0.1016283189	-2.0986410783	 0.146914
H	 0.5984556992	-2.6726203289	 1.9912697304	 0.126673
H	 0.0632728621	-0.6344481869	 3.1179901769	 0.214755
98.0973	156.1942	184.8822	322.5178	340.3812	364.791	414.1876	453.4533	548.621	567.1769	583.7645	750.346	754.1472	777.6482	823.8167	857.2407	928.3142	964.3365	1073.6254	1102.6506	1152.4809	1169.0072	1293.2675	1316.8936	1369.5528	1406.139	1450.0044	1458.0145	1459.499	1512.0688	1564.1088	1647.6745	1694.9377	3051.5954	3115.6132	3149.1708	3153.0071	3228.6418	3500.7809
CN1C=C(F)N=CC1=N	CN1CC(=NC=C1[NH])F	
InChI=1S/C5H6FN3/c1-9-3-4(6)8-2-5(9)7/h2-3,7H,1H3	InChI=1S/C5H7FN3/c1-9-3-4(6)8-2-5(9)7/h2,7H,3H2,1H3
