17
gdb 46096	4.3532	0.88216	0.80365	3.5924	82.31	-0.2359	-0.0435	0.1924	1408.8032	0.134908	-384.699448	-384.690781	-384.689837	-384.733707	31.823	
O	-0.1639606004	-0.0613525306	 0.2938222549	-0.334317
C	-0.0499584059	 1.1291690185	 0.1168216831	 0.397518
C	-1.1953773909	 2.1110914454	-0.1869533597	-0.335187
C	-0.5244150564	 3.4903479675	-0.3189400809	-0.311232
C	 0.9466678807	 3.2185980474	-0.0877193124	 0.346533
C	 1.9622419792	 4.333705134	-0.1089500429	-0.449713
C	 1.9279644936	 5.1163501648	-1.3430829174	 0.30858
C	 1.8895268905	 5.7498007172	-2.3631371983	-0.451825
C	 1.1975467657	 1.9234487122	 0.147960139	-0.303148
H	-1.7091800663	 1.7950242901	-1.0992538943	 0.135698
H	-1.9312748353	 2.067102595	 0.6209655871	 0.133825
H	-0.6748556036	 3.9491630707	-1.3021846466	 0.135446
H	-0.8999695717	 4.2164669662	 0.4132452497	 0.11794
H	 1.7656663311	 5.004470513	 0.7410995691	 0.148713
H	 2.9668324273	 3.9250104994	 0.0466155368	 0.146375
H	 1.8651561569	 6.3138705888	-3.2626384619	 0.204416
H	 2.1658163055	 1.4768188205	 0.3375991745	 0.110377
42.6029	94.	106.2371	185.0235	276.7092	334.964	392.8722	457.0559	503.7844	552.2901	626.7948	630.8427	649.6313	675.6902	828.6829	835.5951	861.2739	878.9423	954.5637	967.9388	1006.202	1016.9502	1136.32	1156.2562	1180.0723	1205.5026	1234.0207	1258.6787	1302.5365	1322.9475	1355.2236	1451.1071	1456.5969	1482.9545	1680.4217	1814.7933	2241.1925	2999.5913	3032.0461	3063.8507	3067.1574	3069.7857	3108.9521	3214.5563	3504.6699
O=C1CCC(CC#C)=C1	O=C1CCC(=C1)CC#C	
InChI=1S/C8H8O/c1-2-3-7-4-5-8(9)6-7/h1,6H,3-5H2	InChI=1S/C8H8O/c1-2-3-7-4-5-8(9)6-7/h1,6H,3-5H2
