17
gdb 75647	3.13703	1.54742	1.25671	3.7321	75.49	-0.2334	-0.0133	0.2202	1020.3345	0.135848	-417.863659	-417.856038	-417.855093	-417.895731	29.253	
C	 0.4239719653	 1.2854041747	 0.0283147093	-0.353992
N	-0.241204888	-0.0010664567	-0.0107355226	-0.172147
C	-0.1350294961	-0.9471373534	-1.0708533439	 0.329118
O	 0.1723049489	-0.8008169299	-2.2154138267	-0.334916
C	-0.6969394201	-2.0663922228	-0.090883291	-0.127559
N	-0.130004681	-3.0235160388	 1.0688203338	-0.160536
C	 0.9854490061	-1.9840115046	 1.1858395255	-0.200835
C	-0.2640411499	-1.1013298775	 0.9649061934	 0.258774
C	-0.9533797453	-2.0711866504	 1.9912074912	-0.23678
H	 1.4022742673	 1.2208714491	 0.5239979729	 0.125158
H	 0.5763419773	 1.614215576	-1.0029546869	 0.15923
H	-0.1882668284	 2.0262123667	 0.5502830999	 0.134746
H	-1.7589146678	-2.2491224304	-0.2588071709	 0.112119
H	 1.469327842	-1.9766630342	 2.1647090841	 0.10413
H	 1.7126876519	-2.0409934781	 0.3710572931	 0.122439
H	-2.0328472013	-2.2119435975	 1.9262038588	 0.12437
H	-0.5919264908	-2.0835064521	 3.0224796102	 0.116679
136.5219	142.9896	158.2115	228.6577	275.0221	425.3418	504.9776	548.8305	580.2159	600.1877	726.5893	740.8305	808.6567	846.1352	860.3186	887.2656	946.2789	975.4396	994.655	1037.0074	1066.9813	1112.4241	1131.5663	1147.138	1163.2641	1184.5922	1199.1807	1250.3248	1258.4925	1294.7265	1315.5971	1440.2089	1483.5688	1501.6934	1506.7071	1538.1456	1879.5583	3010.0418	3056.1858	3067.6373	3085.9968	3105.1869	3127.6784	3128.8153	3150.5196
CN1C(=O)C2N3CC12C3	CN1C(=O)[C@H]2N3C[C@@]12C3	
InChI=1S/C6H8N2O/c1-7-5(9)4-6(7)2-8(4)3-6/h4H,2-3H2,1H3	InChI=1S/C6H8N2O/c1-7-5(9)4-6(7)2-8(4)3-6/h4H,2-3H2,1H3/t4-/m1/s1
