23
gdb 112902	1.97385	1.55329	1.12985	3.1931	80.38	-0.2442	0.0645	0.3086	1209.8455	0.20697	-425.436388	-425.426941	-425.425996	-425.470205	36.843	
C	-0.5186331278	 1.4827811479	-0.1363857418	-0.419738
C	-0.1165835472	 0.0132004297	 0.0013390274	 0.041741
C	 0.8525625383	-0.5012516185	-1.1019556424	-0.251374
C	 1.6925498049	-1.6366270198	-0.4511946028	 0.119365
O	 3.0667309554	-1.2645365103	-0.2540907624	-0.437559
C	 1.0845356106	-1.8138015423	 0.9458732085	-0.227813
C	 0.577553857	-0.4099280578	 1.3213975593	-0.025015
C	 1.7253356105	 0.5546449266	 1.7331606082	-0.063272
O	 2.7966943085	-0.0753722039	 2.4100778816	-0.432697
H	 0.347602	 2.1512293288	-0.1018766118	 0.118846
H	-1.0291963813	 1.6586422304	-1.0894841811	 0.111265
H	-1.2037690777	 1.7817086515	 0.6641653881	 0.114666
H	-1.0353452302	-0.5844860583	-0.0698532131	 0.071105
H	 0.3081161724	-0.8472395369	-1.9858133842	 0.098154
H	 1.5234422354	 0.2991720849	-1.436113928	 0.092453
H	 1.6595149797	-2.5621175332	-1.0403309952	 0.065898
H	 3.4303011437	-0.9733612438	-1.095996124	 0.284534
H	 0.2340791456	-2.5017976266	 0.886574316	 0.093432
H	 1.8033604898	-2.2279553703	 1.6544016314	 0.114032
H	-0.1429705355	-0.4717276384	 2.1436338103	 0.061797
H	 2.1028345153	 1.0842743772	 0.84795307	 0.078995
H	 1.3321523551	 1.3164087417	 2.414440217	 0.100884
H	 3.2894766574	-0.5456661785	 1.724294049	 0.290299
83.8757	126.5376	186.1864	201.4038	232.3385	284.6047	298.3849	314.6137	400.4555	445.6286	464.6247	513.6052	594.7314	603.8037	744.9844	793.4137	818.991	832.9548	885.554	944.1693	948.7297	990.9164	1002.9471	1028.2307	1053.3105	1076.4042	1093.4067	1112.9351	1163.3625	1178.7916	1206.3599	1230.8479	1249.8593	1270.7372	1297.9503	1324.1911	1342.9888	1356.9348	1371.3512	1383.7314	1408.4971	1413.5908	1419.8398	1446.0167	1475.1108	1489.7712	1497.3593	1500.4673	1505.7348	3002.2304	3005.3443	3011.0091	3029.817	3035.2722	3042.3117	3056.4021	3072.9235	3084.3104	3092.9717	3102.2904	3124.238	3755.8549	3823.0128
CC1CC(O)CC1CO	C[C@H]1C[C@@H](O)C[C@H]1CO	
InChI=1S/C7H14O2/c1-5-2-7(9)3-6(5)4-8/h5-9H,2-4H2,1H3	InChI=1S/C7H14O2/c1-5-2-7(9)3-6(5)4-8/h5-9H,2-4H2,1H3/t5-,6-,7+/m0/s1
