16
gdb 131202	3.1697	1.61466	1.09391	4.0832	71.52	-0.1972	0.0322	0.2294	1049.9185	0.128035	-434.066879	-434.059482	-434.058538	-434.098812	28.011	
O	-0.0291591584	 1.3973160428	 0.1312222579	-0.452304
C	 0.0332702852	 0.0380237106	 0.0070443065	 0.101923
C	 0.0556095934	-0.7545619286	-1.1242562027	 0.286405
N	 0.0898171844	-0.6709815549	-2.5320909732	-0.433427
C	 0.4213258109	-2.0616620298	-2.9632261165	-0.17818
C	 0.0935074191	-3.0038495499	-1.7650101183	-0.181675
N	 0.1164049946	-2.0362096412	-0.687654227	 0.053969
N	 0.1106292191	-2.1612530043	 0.6471349909	-0.306858
C	 0.058101453	-0.8929025637	 1.0744251392	-0.054767
H	 0.3536494697	 1.7931133266	-0.658648316	 0.298912
H	-0.8071145149	-0.3786958932	-2.9093399163	 0.240935
H	-0.1238537043	-2.3243011454	-3.8709987574	 0.120214
H	 1.4924513867	-2.1084061314	-3.1820922198	 0.13307
H	-0.8916581956	-3.4807254474	-1.8457170696	 0.121579
H	 0.8482049892	-3.7814246867	-1.6290508214	 0.136084
H	 0.0548667277	-0.6729090634	 2.1315592038	 0.114119
112.7427	162.9973	221.4731	251.4583	268.6899	358.2541	528.155	606.4148	630.0976	645.7501	664.0642	764.3222	791.0205	822.57	853.9105	916.455	937.7061	992.1235	1066.2984	1127.0063	1139.7884	1190.0335	1222.4574	1249.8169	1272.9941	1314.7756	1353.1539	1369.0669	1401.7395	1412.1125	1454.836	1498.1098	1520.9709	1545.396	1663.6199	3023.0736	3058.1073	3104.6761	3126.4781	3250.1755	3492.2623	3815.8491
OC1=C2NCCN2N=C1	Oc1c2NCCn2nc1	
InChI=1S/C5H7N3O/c9-4-3-7-8-2-1-6-5(4)8/h3,6,9H,1-2H2	InChI=1S/C5H7N3O/c9-4-3-7-8-2-1-6-5(4)8/h3,6,9H,1-2H2
