20
gdb 71357	2.86334	1.89996	1.50577	1.7263	81.56	-0.2191	0.0825	0.3016	955.7713	0.173068	-365.930611	-365.923471	-365.922527	-365.961863	29.813	
C	 0.0812648853	 1.5859156263	-0.1995729986	-0.529139
C	 0.0321845061	 0.0821587059	-0.0243607026	 0.284985
C	 0.5280905	-0.9406600942	-1.054596117	-0.215361
N	 0.0404747708	-1.8692500634	 0.0461657379	-0.16189
C	 0.6661291589	-0.8592942278	 1.0545237205	-0.032917
C	-0.1834025902	-0.9619050649	 2.3064686842	-0.047806
C	-1.1758065032	 0.1360484414	 2.5960449689	-0.318894
C	-1.5625358866	-0.9906782813	 1.6712817435	-0.047811
C	-1.1666842758	-0.8975403459	 0.2103922455	-0.03289
H	 1.1168853763	 1.911618164	-0.3507508525	 0.121943
H	-0.4879771316	 1.8778263545	-1.0896241772	 0.121948
H	-0.3203383226	 2.1463795336	 0.6471711667	 0.12616
H	-0.0296039448	-1.0353604384	-1.9921010146	 0.091238
H	 1.6057248768	-1.0011974705	-1.2388474008	 0.091242
H	 1.7524220498	-0.9262728358	 1.1467260293	 0.066528
H	 0.1093215318	-1.6500307671	 3.0899815595	 0.094578
H	-1.6294259304	 0.1120416836	 3.5820778586	 0.112563
H	-1.0217491743	 1.1364898185	 2.2162376731	 0.114418
H	-2.3241753931	-1.7007927525	 1.9691708102	 0.094578
H	-1.9397979333	-1.003371356	-0.5538782846	 0.066529
97.8678	210.7098	267.5975	333.4652	386.2251	455.2226	504.141	631.3834	677.5672	686.2691	742.8967	804.417	819.1775	829.9625	885.7541	891.5746	907.7109	940.6297	959.4639	1004.1023	1010.7769	1025.7665	1047.5236	1068.0916	1075.983	1093.0973	1115.3309	1138.688	1154.4086	1188.6149	1189.1352	1208.2278	1246.9254	1288.4203	1288.8651	1333.017	1352.1686	1389.496	1407.4367	1478.4726	1487.4677	1500.6753	1531.208	3030.5482	3035.4493	3088.5616	3090.642	3094.6407	3096.6638	3120.2148	3144.3412	3182.6745	3191.389	3236.9042
CC12CN3C1C1CC1C23	C[C@@]12CN3[C@@H]1[C@H]1C[C@H]1[C@@H]23	
InChI=1S/C8H11N/c1-8-3-9-6(8)4-2-5(4)7(8)9/h4-7H,2-3H2,1H3	InChI=1S/C8H11N/c1-8-3-9-6(8)4-2-5(4)7(8)9/h4-7H,2-3H2,1H3/t4-,5+,6+,7-,8+
