14
gdb 16922	3.89639	2.27415	2.08438	4.2681	60.36	-0.2489	-0.0246	0.2242	697.2327	0.110118	-382.573991	-382.568506	-382.567562	-382.603408	22.418	
O	-0.0141545577	 0.0126220585	-0.0080897602	-0.35009
C	 0.0158085939	 1.2073748446	-0.0022526191	 0.456528
O	-1.1000530526	 1.9962429289	 0.0090257732	-0.246366
C	-0.6153883191	 3.3882320924	 0.0441880973	 0.062555
C	 0.6047287283	 3.2904095111	-0.8857479952	-0.231509
C	 1.2230248186	 2.17058505	-0.002450034	-0.203617
C	 1.1634511989	 2.8459663121	 1.3702565789	-0.081429
C	 0.0584067335	 3.5950565234	 1.3973746065	-0.077007
H	-1.4486730803	 4.02978723	-0.2301018781	 0.095334
H	 0.33968159	 2.9703577068	-1.8973310938	 0.120697
H	 1.2128856655	 4.1953406072	-0.9107869172	 0.118035
H	 2.156350496	 1.6993303514	-0.2971593202	 0.097327
H	 1.86429876	 2.6515970718	 2.1704506808	 0.122543
H	-0.353990225	 4.1609804618	 2.220668281	 0.116998
169.8273	399.277	459.1549	462.9598	524.7966	658.3726	707.3272	747.7445	777.5477	836.2689	867.6099	899.4275	911.8663	931.5722	946.8813	970.3615	977.6728	1023.0693	1083.8571	1126.1138	1154.6461	1187.8042	1245.6033	1274.9383	1284.686	1338.4451	1344.3524	1491.6709	1636.9129	1891.4646	3069.787	3140.0776	3160.5697	3165.77	3221.5976	3246.3733
O=C1OC2CC1C=C2	O=C1O[C@@H]2C[C@H]1C=C2	
InChI=1S/C6H6O2/c7-6-4-1-2-5(3-4)8-6/h1-2,4-5H,3H2	InChI=1S/C6H6O2/c7-6-4-1-2-5(3-4)8-6/h1-2,4-5H,3H2/t4-,5+/m1/s1
