16
gdb 67981	3.19097	1.73332	1.28825	1.8754	70.	-0.2515	0.0076	0.2591	962.2099	0.124503	-437.835634	-437.828708	-437.827764	-437.866676	27.964	
C	 0.0341545046	 1.4919969341	-0.1119616527	-0.506759
C	 0.0371231445	-0.0017305436	-0.0124916016	 0.409011
O	 0.438028795	-0.6526459111	-1.2232973155	-0.291709
C	 0.3678112309	-1.9972799555	-0.9049551501	 0.421412
N	 0.6332633091	-2.9620725744	-1.6677835176	-0.550062
C	-0.0860294074	-2.0091471886	 0.5202769641	-0.163235
C	 0.6090193392	-0.7895384243	 1.2111436092	 0.009333
O	-0.5905411841	-0.4799065321	 1.992239788	-0.31831
C	-1.1032124101	-0.8292910853	 0.6655845646	 0.009325
H	 1.0331090308	 1.8655016137	-0.3546286293	 0.136622
H	-0.6548176723	 1.826291791	-0.8929002006	 0.136625
H	-0.2811316823	 1.9106822422	 0.8462618605	 0.149768
H	 0.9191095612	-2.624769839	-2.5894796276	 0.227446
H	-0.2300316652	-2.9498458761	 1.040770844	 0.111651
H	 1.5795505652	-0.7358689564	 1.7038663618	 0.109442
H	-2.1811534192	-0.8231834945	 0.5056080227	 0.109442
161.3212	234.5663	262.8082	271.8448	375.3711	439.0913	535.8098	616.7878	664.0912	669.9169	710.5618	782.3354	830.311	873.3735	893.6969	903.1659	908.2995	934.2312	958.1826	1022.1789	1033.1097	1091.533	1138.5912	1153.6244	1157.5803	1176.0631	1201.1634	1252.4117	1291.4888	1326.1873	1354.6179	1416.7573	1485.8047	1492.8179	1807.9921	3049.9208	3117.9322	3125.077	3129.2534	3139.8479	3195.2227	3465.4807
CC12OC(=N)C3C1OC23	C[C@@]12O[C]([NH])[C@H]3[C@@H]1O[C@@H]23	
InChI=1S/C6H7NO2/c1-6-3-2(4(6)8-3)5(7)9-6/h2-4,7H,1H3	InChI=1S/C6H7NO2/c1-6-3-2(4(6)8-3)5(7)9-6/h2-4,7H,1H3/t2-,3-,4+,6+
