19
gdb 90737	3.2663	1.3384	1.1081	2.1527	75.58	-0.2383	-0.0241	0.2142	1134.4545	0.159471	-423.039258	-423.031075	-423.030131	-423.072374	31.023	
C	 0.1178303506	 1.6180125028	-0.0122371254	-0.40685
C	 0.0843499048	 0.0991743852	 0.0136555039	 0.024061
C	 1.0196717417	-0.7018697269	-0.940489883	-0.259623
C	 1.341793606	-1.6844283375	 0.2407931982	-0.150552
C	 0.7306660987	-0.6482026933	 1.2100221585	 0.089532
O	 1.8476937455	 0.0787824736	 1.7374748065	-0.269597
C	 3.0090905617	-0.7278871103	 1.7286284461	-0.183363
C	 2.796313922	-1.7991980683	 0.6507322838	 0.368614
O	 3.6259496416	-2.5705638957	 0.2463236388	-0.307464
H	 1.1273525068	 1.9832840759	 0.1916151665	 0.129783
H	-0.1974709569	 1.9953188259	-0.9909554541	 0.113269
H	-0.5519881237	 2.0444422349	 0.7422415793	 0.117175
H	-0.9437520395	-0.262302921	-0.1025479265	 0.076592
H	 0.5619822313	-1.1588620831	-1.819133255	 0.114766
H	 1.8936898639	-0.129906561	-1.2639132145	 0.113699
H	 0.8602356253	-2.6579641581	 0.1541271556	 0.100706
H	 0.0781924504	-0.9824589717	 2.0254885737	 0.070907
H	 3.8861578235	-0.1084905336	 1.5163718245	 0.136874
H	 3.1738542264	-1.2299887978	 2.696556493	 0.121472
64.2408	112.7054	181.3129	218.1019	249.3722	333.4493	404.687	514.918	550.4054	571.1874	645.1597	727.2733	775.3251	852.7195	865.7864	908.813	918.5488	932.0645	957.3952	987.0962	1068.905	1078.1541	1110.3014	1127.4035	1171.3437	1186.1335	1207.8514	1221.4218	1242.0811	1264.8549	1284.7775	1287.2202	1325.9312	1360.4476	1372.0818	1408.9273	1484.6836	1487.6322	1489.954	1502.0094	1851.3067	2973.2235	3026.2242	3034.7149	3045.7732	3066.2052	3080.4811	3096.5412	3117.0646	3124.628	3130.6394
CC1CC2C1OCC2=O	C[C@H]1C[C@@H]2[C@H]1OCC2=O	
InChI=1S/C7H10O2/c1-4-2-5-6(8)3-9-7(4)5/h4-5,7H,2-3H2,1H3	InChI=1S/C7H10O2/c1-4-2-5-6(8)3-9-7(4)5/h4-5,7H,2-3H2,1H3/t4-,5-,7-/m0/s1
