15
gdb 96967	2.75644	1.34883	0.99641	4.2028	74.75	-0.2739	-0.0087	0.2651	1171.9299	0.111833	-416.782437	-416.774167	-416.773223	-416.815734	29.701	
C	-0.0932627783	 1.4247445778	-0.0006277273	-0.345045
N	-0.0468948451	-0.0264409461	 0.104570088	-0.327274
C	-1.088556191	-0.6934631255	-0.0094090153	 0.449578
O	-2.4253368558	-0.3003507817	-0.2143801783	-0.279157
C	-2.8693112625	-1.6585280284	-0.0476432293	 0.061858
C	-2.3212554278	-2.5131801083	-1.1219454412	-0.324915
C	-1.4279788321	-2.1536940408	 0.0865137767	 0.020736
C	-0.833848849	-3.1281842503	 0.9346511098	 0.215587
N	-0.3601543404	-3.9284019447	 1.62261831	-0.344062
H	 0.526771138	 1.7359584676	-0.8476901137	 0.139351
H	-1.1023014447	 1.8316498058	-0.1298741923	 0.13288
H	 0.3540613541	 1.856071631	 0.9003315	 0.140984
H	-3.732151373	-1.8382466342	 0.5782174784	 0.151762
H	-2.6428546891	-3.5494985064	-1.1250305879	 0.157423
H	-2.0917149936	-2.0821425956	-2.0906211776	 0.150293
99.8151	105.2636	152.7869	161.5574	222.6308	305.0734	409.2031	458.022	514.2591	561.0846	635.1771	704.4052	731.7671	840.6145	885.0089	899.377	960.4151	1012.8424	1037.2301	1065.1083	1075.2693	1092.7029	1133.8555	1168.3667	1235.9596	1287.6439	1381.5769	1440.3491	1474.8214	1491.008	1497.6666	1870.3478	2358.4898	3025.2916	3096.5073	3100.1061	3135.0008	3227.2092	3235.2539
CN=C1OC2CC12C#N	CN=C1O[C@H]2C[C@@]12C#N	
InChI=1S/C6H6N2O/c1-8-5-6(3-7)2-4(6)9-5/h4H,2H2,1H3	InChI=1S/C6H6N2O/c1-8-5-6(3-7)2-4(6)9-5/h4H,2H2,1H3/t4-,6-/m0/s1
