16
gdb 49826	2.37394	1.52896	1.12733	3.9369	70.84	-0.2545	-0.0424	0.2121	1090.0625	0.123179	-437.896025	-437.887689	-437.886744	-437.929402	30.327	
O	-0.0184749621	-0.0175853846	-0.2675239067	-0.242782
C	 0.0133927951	 1.1467193965	 0.0355222438	 0.158395
C	 1.268886513	 1.9877261964	 0.0244023672	-0.142377
N	 2.4705587722	 1.3039681312	-0.4601046141	-0.352285
C	 2.5613115906	 2.0446521554	-1.6349192297	 0.409027
O	 3.2700085711	 1.9693618784	-2.5993274691	-0.354853
C	 1.4150329234	 2.9374664758	-1.1942307081	 0.165716
C	 0.3862452277	 3.563187971	-2.0958055583	-0.317565
C	 1.3271084512	 4.4309772256	-1.3057921807	-0.320751
H	-0.9021014987	 1.6908883709	 0.3602168579	 0.082977
H	 1.3876627878	 2.4758739652	 1.0012061223	 0.110398
H	 2.6759464525	 0.3212136642	-0.3422448275	 0.262045
H	 0.5537414775	 3.454283914	-3.1619248722	 0.147023
H	-0.6542012359	 3.5270332548	-1.7922767751	 0.125999
H	 0.9285404201	 4.9781177772	-0.4580710505	 0.125308
H	 2.1363411245	 4.9272025681	-1.8308778592	 0.143725
82.9766	91.2252	192.4152	198.5186	227.5778	252.4501	367.3239	436.9385	499.0156	624.8228	709.0452	732.3815	774.4642	780.5691	824.2981	908.918	931.8195	952.7963	1002.3721	1058.0859	1064.3171	1086.0185	1087.3754	1147.6474	1188.9445	1193.3626	1260.0228	1322.8419	1367.3405	1380.5066	1416.9485	1457.6365	1495.8488	1831.1827	1899.9734	2879.6581	3020.4337	3133.0269	3137.3151	3216.1659	3230.3496	3604.5447
O=CC1NC(=O)C11CC1	O=C[C@H]1NC(=O)C21CC2	
InChI=1S/C6H7NO2/c8-3-4-6(1-2-6)5(9)7-4/h3-4H,1-2H2,(H,7,9)	InChI=1S/C6H7NO2/c8-3-4-6(1-2-6)5(9)7-4/h3-4H,1-2H2,(H,7,9)/t4-/m1/s1
