17
gdb 55966	3.55661	1.0239	0.86109	2.937	71.81	-0.2657	0.0145	0.2802	1340.2668	0.135134	-455.14643	-455.137483	-455.136539	-455.181193	31.617	
C	 0.207437787	 1.4226003232	 0.0954505759	-0.462214
C	-0.158703715	-0.0338339719	 0.0027017681	 0.395439
N	-1.1383096105	-0.653537548	 0.5192169681	-0.521659
O	 0.7425539944	-0.6939168075	-0.7647961275	-0.239618
C	 0.5576199983	-2.0919434777	-0.8576543614	 0.025233
C	-0.5330896278	-2.6137279381	-1.8101240074	-0.097214
O	 0.4978838861	-3.2816773945	-2.6119199006	-0.25508
C	 1.510779624	-2.7572883363	-1.8360820717	 0.406289
N	 2.7557913898	-2.8359669191	-1.9367634721	-0.539005
H	 1.1935242747	 1.5320571962	 0.5566806139	 0.156605
H	 0.269858292	 1.8584918902	-0.9060365673	 0.152854
H	-0.5284871709	 1.9736253195	 0.6825766062	 0.130146
H	-1.7169732722	-0.0242636898	 1.0702490852	 0.22598
H	 0.5298767924	-2.5401433945	 0.1376559615	 0.130294
H	-1.2437772072	-3.3294805687	-1.3959585242	 0.132444
H	-1.0418055715	-1.8408819783	-2.3889032157	 0.12815
H	 3.0298551464	-3.3823242347	-2.755442901	 0.231356
59.1236	84.2966	112.3523	130.1695	158.6687	258.1327	352.2814	409.8914	489.0976	578.5204	607.5148	653.1724	731.8577	857.6806	863.5719	880.4841	909.8005	951.6561	985.7014	1015.0346	1023.8368	1069.4831	1087.568	1095.1723	1145.2586	1170.2854	1212.994	1245.0414	1332.9297	1365.6973	1396.4991	1425.306	1470.3003	1480.8405	1502.5222	1727.7187	1833.4688	3051.5966	3082.602	3097.6463	3116.0704	3147.3705	3150.8343	3475.6083	3521.4911
CC(=N)OC1COC1=N	C[C]([NH])O[C@H]1CO[C]1[NH]	
InChI=1S/C5H8N2O2/c1-3(6)9-4-2-8-5(4)7/h4,6-7H,2H2,1H3	InChI=1S/C5H8N2O2/c1-3(6)9-4-2-8-5(4)7/h4,6-7H,2H2,1H3/t4-/m0/s1
