14
gdb 49263	2.93798	1.3653	0.94562	5.0014	68.25	-0.2496	-0.0816	0.1679	1142.6397	0.10159	-473.885835	-473.878201	-473.877257	-473.91856	27.611	
O	 0.051349821	-0.037301307	-0.0869148768	-0.276229
C	 0.0144221873	 1.1698855651	-0.016742653	 0.099289
C	 1.2284646016	 2.0037874753	-0.002463107	 0.296109
C	 1.2075404233	 3.3407337792	 0.0682109793	-0.198057
C	 2.5218035987	 4.0517247256	 0.0305485871	-0.11948
O	 3.6018096862	 3.2392040209	 0.5250580433	-0.246152
C	 3.6411204017	 1.8994489866	 0.3056412479	 0.473877
O	 4.6509071114	 1.2732662948	 0.4717354908	-0.365249
N	 2.4390165645	 1.3278443045	-0.073689484	-0.451078
H	-0.937470107	 1.7346559461	 0.0329265417	 0.098772
H	 0.2791140343	 3.8934737188	 0.1312611121	 0.125332
H	 2.7637513206	 4.3715161352	-0.9953707863	 0.137563
H	 2.5228545442	 4.9460689531	 0.6594802613	 0.144561
H	 2.4060756424	 0.3180145017	-0.0941518762	 0.280743
96.9632	129.7467	148.2857	189.8285	305.5111	407.587	510.0372	550.2071	570.5718	621.0481	642.5077	747.1563	768.7866	778.5916	870.0257	974.5668	1013.5882	1018.6028	1063.8105	1114.9621	1201.4829	1230.0275	1256.6589	1331.6129	1405.3601	1428.0092	1494.1174	1496.6578	1725.6051	1787.9195	1865.5106	2941.1468	2982.7602	3088.6528	3221.1635	3613.9273
O=CC1=CCOC(=O)N1	O=CC1=CCOC(=O)N1	
InChI=1S/C5H5NO3/c7-3-4-1-2-9-5(8)6-4/h1,3H,2H2,(H,6,8)	InChI=1S/C5H5NO3/c7-3-4-1-2-9-5(8)6-4/h1,3H,2H2,(H,6,8)
