16
gdb 73663	2.50357	1.66718	1.42343	3.315	64.66	-0.2511	0.0115	0.2626	961.267	0.124958	-475.03888	-475.030971	-475.030027	-475.071405	29.59	
O	 0.0979217139	 1.3838658973	-0.1811642176	-0.474062
C	 0.0190994158	 0.0015558754	-0.0404814208	 0.242295
C	 0.7506672204	-0.7070044954	-1.189890326	-0.130108
O	 0.1116639002	-1.9605126364	-1.3667761498	-0.248536
C	-1.2793702885	-1.7540303005	-1.1486983211	-0.102864
C	-1.3612945203	-0.7737126883	 0.0155638091	-0.051673
N	-0.9168791936	-1.2893174221	 1.3157151868	-0.324286
C	 0.2788789267	-0.6185664141	 1.3620895813	 0.349849
O	 1.1521477425	-0.5325498064	 2.1838132006	-0.363153
H	 0.1093865876	 1.7856891926	 0.6938441548	 0.300515
H	 0.6606969591	-0.0680231054	-2.0833517544	 0.106244
H	 1.8079628889	-0.8886192196	-0.9855091144	 0.133293
H	-1.7604999133	-1.3088148759	-2.0352239457	 0.100859
H	-1.736828178	-2.7282335129	-0.9550464171	 0.112766
H	-2.2685926385	-0.1678850491	 0.0543921499	 0.094648
H	-1.270976153	-2.0387582692	 1.8923704246	 0.254214
81.9023	145.2027	203.0253	253.1196	289.6717	321.2454	378.9314	435.0825	532.1979	599.6521	669.2964	735.4238	756.4738	803.2251	878.4803	901.979	951.5498	1004.0605	1064.3504	1076.3827	1107.7263	1124.9867	1144.1428	1199.4522	1225.3882	1268.6144	1280.4831	1339.1709	1351.2232	1369.1778	1381.1064	1404.2319	1494.2071	1508.3013	1891.1142	2974.4789	2982.4122	3090.5691	3096.4107	3110.9423	3606.6308	3818.1063
OC12COCC1NC2=O	O[C@]12COC[C@H]1NC2=O	
InChI=1S/C5H7NO3/c7-4-5(8)2-9-1-3(5)6-4/h3,8H,1-2H2,(H,6,7)	InChI=1S/C5H7NO3/c7-4-5(8)2-9-1-3(5)6-4/h3,8H,1-2H2,(H,6,7)/t3-,5-/m1/s1
