16
gdb 28633	5.52571	0.98026	0.83689	5.1296	88.1	-0.2567	-0.0471	0.2095	1323.9224	0.126154	-363.708107	-363.700078	-363.699133	-363.742596	29.292	
C	-0.0085916577	 1.5276033109	 0.0103448979	-0.494353
C	-0.0091972438	 0.020734728	 0.0022703502	 0.300473
C	-0.0055923895	-0.690449748	-1.2027409222	-0.17315
C	 0.0216904566	-2.0775550807	-1.2193006507	-0.182521
C	 0.0436570154	-2.7906863726	-0.0133287525	 0.17158
C	 0.0355902461	-2.090732681	 1.2004747093	-0.182531
C	 0.0082058521	-0.7034970466	 1.1993182396	-0.173247
C	 0.0686407829	-4.2203578239	-0.0212567453	 0.203416
N	 0.0886473753	-5.3781946898	-0.0276768769	-0.335669
H	 1.0157018739	 1.9202607477	 0.0024811474	 0.144148
H	-0.5169806233	 1.9335982121	-0.8686419376	 0.133522
H	-0.4999051727	 1.9241202491	 0.9032273033	 0.133427
H	-0.0264017795	-0.1475852773	-2.1423274741	 0.104364
H	 0.0225583271	-2.6169512618	-2.1590574843	 0.123081
H	 0.0472201033	-2.6403086176	 2.1342423665	 0.123081
H	-0.0017704964	-0.1708879286	 2.1449273093	 0.104379
10.9126	102.9075	153.6107	251.6492	340.8193	409.6911	414.5818	452.7301	565.3381	578.5254	660.3791	692.0802	734.7994	829.0334	843.0521	861.5114	956.7938	976.3592	1007.7801	1034.6604	1062.1646	1140.0092	1202.0003	1226.374	1234.9215	1324.1373	1336.7099	1413.9371	1435.3499	1487.6657	1488.7463	1540.2041	1598.7712	1650.955	2342.0657	3031.5037	3090.9587	3119.5753	3178.3958	3179.1079	3206.7315	3207.8825
CC1=CC=C(C=C1)C#N	Cc1ccc(cc1)C#N	
InChI=1S/C8H7N/c1-7-2-4-8(6-9)5-3-7/h2-5H,1H3	InChI=1S/C8H7N/c1-7-2-4-8(6-9)5-3-7/h2-5H,1H3
