20
gdb 64343	2.46935	1.42776	1.14395	3.7566	75.9	-0.2354	0.0298	0.2653	1156.3524	0.171125	-440.330607	-440.321677	-440.320733	-440.363892	34.425	
C	-0.0377047468	 1.5374768587	-0.0173045276	-0.421365
C	-0.0179972307	 0.0039934489	-0.0182877117	 0.236265
C	-1.448146967	-0.5630055278	 0.0289588169	-0.398397
C	 0.7206389263	-0.5119051564	-1.2634449297	-0.091325
O	 0.9477448758	-1.9030596232	-1.1759221633	-0.24708
C	 1.8698879871	-2.2119028086	-0.147886067	-0.194726
C	 1.5985000997	-1.5264856535	 1.1907792683	 0.373368
O	 2.148970063	-1.8975196871	 2.2105035534	-0.376233
N	 0.74946526	-0.4608142573	 1.1451341501	-0.327244
H	 0.9781014706	 1.9431027179	-0.0275920644	 0.126674
H	-0.575387997	 1.9179068393	-0.8913105957	 0.124652
H	-0.5479012523	 1.9171923076	 0.8746920542	 0.119481
H	-2.0544826251	-0.1629562548	-0.7904787567	 0.114895
H	-1.4240087763	-1.6518991026	-0.0558925851	 0.136752
H	-1.9369505619	-0.2984775891	 0.9719377268	 0.112347
H	 0.1121621412	-0.3445194774	-2.1561966212	 0.114332
H	 1.6731518977	 0.03010938	-1.3832255583	 0.092653
H	 1.834967657	-3.2910402081	 0.0133478942	 0.143535
H	 2.8980256127	-1.949323445	-0.4478128805	 0.120956
H	 0.546648126	-0.0500599818	 2.0472192474	 0.240458
83.8182	116.7511	234.8225	254.7983	265.0169	303.9515	323.1322	386.3982	448.4293	455.0085	474.6653	507.997	533.551	620.8466	648.8426	821.6678	854.864	920.6218	938.2493	972.8487	996.9609	1010.8163	1028.2347	1066.0582	1146.5044	1206.3773	1212.7184	1255.3416	1279.5105	1327.7017	1354.625	1380.6594	1394.9216	1402.5661	1422.8278	1449.8837	1471.0097	1481.706	1484.1841	1495.5201	1503.9284	1510.2578	1793.4136	2972.702	2979.2533	3032.7549	3038.7491	3094.9965	3100.3423	3106.741	3117.0646	3118.7641	3130.3617	3581.4596
CC1(C)COCC(=O)N1	CC1(C)COCC(=O)N1	
InChI=1S/C6H11NO2/c1-6(2)4-9-3-5(8)7-6/h3-4H2,1-2H3,(H,7,8)	InChI=1S/C6H11NO2/c1-6(2)4-9-3-5(8)7-6/h3-4H2,1-2H3,(H,7,8)
