21
gdb 111415	2.00742	1.42925	0.96242	1.7987	77.63	-0.253	0.0622	0.3152	1291.2039	0.181342	-424.180814	-424.171276	-424.170331	-424.215574	35.16	
C	 0.1425465403	 1.528960088	-0.2002631469	-0.390583
C	 0.031043098	 0.0007392725	-0.2315474076	-0.187599
C	-1.3766298443	-0.5256520034	 0.039661923	-0.037946
C	-1.5788456808	-2.0476285954	 0.0000481419	 0.012606
O	-0.8704424878	-2.6184011251	 1.1095151632	-0.253094
C	-2.1770151328	-2.0681068723	 1.3404369652	-0.001009
C	-2.0037952599	-0.5471918836	 1.5054599042	-0.050812
C	-1.1882700337	-0.1052431305	 2.7146930911	-0.091252
O	-1.8728040013	-0.3820024387	 3.9318061517	-0.42629
H	 1.1616780978	 1.8530656385	-0.4325905778	 0.115637
H	-0.5280736309	 1.9885197401	-0.9351416914	 0.113488
H	-0.1171380921	 1.9372136476	 0.781510957	 0.123809
H	 0.3372559924	-0.3576901947	-1.2238893369	 0.09465
H	 0.7329355707	-0.4478146032	 0.4786277384	 0.113086
H	-2.0891422418	-0.0406035219	-0.6375934856	 0.075944
H	-1.7441285016	-2.6915183485	-0.8568401962	 0.101219
H	-2.9246479876	-2.7295588483	 1.7634258978	 0.102814
H	-2.9722137011	-0.0387562688	 1.5191984451	 0.083268
H	-0.2005982558	-0.5833709444	 2.6989793453	 0.10624
H	-1.0362375875	 0.9784477666	 2.700093058	 0.10916
H	-1.8497966005	-1.3345338345	 4.0665203508	 0.286666
71.3037	90.8669	124.5809	156.7855	216.9613	229.3871	274.8826	294.7394	341.1908	480.5911	521.5521	610.7215	709.1751	774.759	810.3799	860.7868	866.8828	872.8028	916.8213	972.7846	989.1218	1013.9395	1039.0005	1054.3555	1064.7791	1080.9061	1140.7623	1152.5975	1198.8245	1200.2667	1237.1586	1245.8778	1279.9319	1281.6068	1329.57	1349.3332	1381.9567	1393.0609	1405.0912	1412.5294	1417.755	1487.8703	1501.4447	1502.1988	1507.0667	3017.0992	3024.5561	3032.58	3039.1659	3070.0019	3073.5458	3088.2495	3101.5498	3107.2507	3172.2596	3187.9208	3820.9099
CCC1C2OC2C1CO	CC[C@H]1[C@H]2O[C@H]2[C@H]1CO	
InChI=1S/C7H12O2/c1-2-4-5(3-8)7-6(4)9-7/h4-8H,2-3H2,1H3	InChI=1S/C7H12O2/c1-2-4-5(3-8)7-6(4)9-7/h4-8H,2-3H2,1H3/t4-,5+,6-,7+/m1/s1
