18
gdb 93988	2.80638	1.27999	0.93075	11.7378	81.87	-0.1832	-0.0055	0.1777	1245.9104	0.148178	-439.073359	-439.064663	-439.063719	-439.106887	31.96	
C	-0.0626345292	 1.5930376491	-0.0307019387	-0.416491
C	 0.0229135301	 0.0830088405	-0.0166331914	-0.106607
N	 0.8744431767	-0.4918533725	-1.1331676425	-0.246366
H	 0.3932521786	-0.5272883711	-2.0348706494	 0.284839
H	 1.706984928	 0.0938533453	-1.222901402	 0.29416
C	 1.3051125286	-1.8657841766	-0.6151546659	-0.312165
C	 1.5394364848	-1.5884406216	 0.8311859378	 0.032151
C	 2.5030946375	-2.3351787026	 1.5842640317	 0.043511
O	 2.7766025877	-2.2263494276	 2.7669261373	-0.31412
C	 0.740924804	-0.4957828163	 1.2619588707	 0.311929
O	 0.553083851	 0.0543393892	 2.3361887973	-0.383208
H	 0.9344543132	 2.0448066426	-0.09050178	 0.127484
H	-0.6865005891	 1.9891292619	-0.8374497286	 0.113643
H	-0.4834649081	 1.8855821879	 0.9350932864	 0.18426
H	-0.9640181707	-0.3809985029	-0.1345453845	 0.125193
H	 0.4560105795	-2.5228202579	-0.8737392526	 0.121842
H	 2.1766512161	-2.2087719332	-1.1813274452	 0.137253
H	 3.0536876313	-3.0874451142	 0.9546754698	 0.002692
77.3549	145.1033	166.1368	204.1427	233.3642	262.7115	286.6568	398.1425	451.7924	483.8005	554.1767	658.0565	699.739	737.0141	817.8918	865.069	909.125	978.3105	1000.4888	1019.3307	1064.346	1072.0274	1114.7866	1155.7817	1210.1635	1242.6406	1303.0725	1335.0048	1352.227	1388.9941	1403.5784	1423.7522	1464.4039	1485.8528	1489.6347	1516.5123	1606.631	1723.3483	1792.7192	2735.6464	2938.4662	3032.5919	3044.8785	3072.8312	3103.2057	3130.8496	3403.4136	3486.778
CC1[NH2+]C[C-](C=O)C1=O	C[C@H]1[NH2]C[C](C=O)C1=O	
InChI=1S/C6H8NO2/c1-4-6(9)5(3-8)2-7-4/h3-4,7H,2H2,1H3/q-1/p+1	InChI=1S/C6H9NO2/c1-4-6(9)5(3-8)2-7-4/h3-4H,2,7H2,1H3/t4-/m1/s1
