19
gdb 71616	2.88601	1.81558	1.6567	1.6492	74.08	-0.2241	0.0905	0.3147	921.5672	0.161313	-423.015486	-423.008594	-423.00765	-423.046301	28.81	
C	-0.1183993184	 1.5108064874	 0.0137952282	-0.503961
C	 0.0719906046	 0.0226389014	 0.0102531747	 0.400121
C	 1.0060105808	-0.7711205392	-0.9395169385	-0.289926
C	 0.7339182527	-1.9059056529	 0.0739046578	-0.115976
C	 0.6898475305	-0.8267519609	 1.1885920975	 0.090052
O	-0.1904671108	-1.2130130688	 2.216699983	-0.278368
C	-1.0968401527	-2.1636922499	 1.6270115898	-0.07623
C	-0.8130820881	-2.0206430084	 0.1334592899	 0.057638
O	-1.1866531209	-0.6618952413	-0.1907410649	-0.316754
H	 0.8424988474	 2.0217367381	 0.12358242	 0.116874
H	-0.5834292132	 1.8425432772	-0.9200086858	 0.128922
H	-0.768102602	 1.8058101716	 0.843337125	 0.13539
H	 0.6609171859	-0.8912673888	-1.967957709	 0.105073
H	 2.0456091518	-0.4354657875	-0.9121688782	 0.101481
H	 1.3179085868	-2.8218212886	 0.1455439456	 0.075812
H	 1.6303774696	-0.4627230691	 1.6007663947	 0.085852
H	-0.8918925517	-3.173838338	 2.0123208553	 0.08898
H	-2.1263968927	-1.88453459	 1.8686190186	 0.115017
H	-1.3121080696	-2.7315213424	-0.5265907936	 0.080003
204.7135	214.7522	249.2504	326.0045	389.3662	443.524	507.5337	591.0967	650.0331	730.855	764.4691	814.3624	863.3316	877.845	883.9014	902.9834	931.6586	958.7292	971.1165	998.6123	1010.1099	1032.7298	1078.7139	1114.887	1118.095	1141.6812	1184.2232	1194.9116	1204.472	1229.3281	1266.1454	1282.1514	1311.4399	1324.3115	1343.3507	1392.4197	1417.1972	1480.7124	1487.0847	1492.9342	1506.9662	2993.0526	3039.7389	3068.3046	3086.5031	3108.4688	3110.5914	3117.1016	3126.3	3132.8372	3137.4091
CC12CC3C1OCC3O2	C[C@@]12C[C@H]3[C@@H]1OC[C@H]3O2	
InChI=1S/C7H10O2/c1-7-2-4-5(9-7)3-8-6(4)7/h4-6H,2-3H2,1H3	InChI=1S/C7H10O2/c1-7-2-4-5(9-7)3-8-6(4)7/h4-6H,2-3H2,1H3/t4-,5-,6+,7-/m1/s1
