15
gdb 5547	3.36517	2.00889	1.32765	2.0238	63.87	-0.1839	0.0418	0.2256	896.982	0.120297	-395.997177	-395.989201	-395.988257	-396.029983	28.375	
C	 0.0915564899	 0.8431098812	 0.561459158	-0.257875
O	-0.3385399326	 0.5588274335	-0.7750546896	-0.277563
C	 0.4262599491	-0.3482464154	-1.4248471963	 0.317573
C	 0.8330654126	-1.6329049131	-1.152451746	 0.149781
N	 0.592823091	-2.3817633678	 0.0200270352	-0.604775
N	 1.590063516	-2.11381592	-2.1954802288	-0.299101
C	 1.6314760931	-1.150954384	-3.0898311782	-0.001868
N	 0.935217419	-0.0555055	-2.6757040599	-0.30241
H	 0.1518424742	-0.0739063516	 1.1558882648	 0.15034
H	 1.0733608473	 1.3317559402	 0.5561337428	 0.117966
H	-0.6533430333	 1.519234397	 0.9850095957	 0.127364
H	-0.3835178033	-2.6473485761	 0.1037388866	 0.241995
H	 1.1408623366	-3.2343812865	-0.0228357273	 0.244792
H	 2.1354772847	-1.1915610611	-4.0431095232	 0.126572
H	 0.7929599755	 0.8116848837	-3.1656841538	 0.267207
45.4474	157.0425	172.6464	186.3701	285.0446	291.1261	420.3176	472.2166	493.6993	649.3197	677.3795	713.9267	745.3539	764.781	866.5161	951.9212	1031.8413	1092.9825	1112.7755	1183.6464	1197.991	1234.1439	1288.5244	1328.6134	1388.5237	1460.3097	1483.9059	1502.6536	1511.3675	1520.0113	1641.2348	1674.6161	3021.0477	3094.2887	3137.8862	3255.2979	3497.808	3584.476	3667.3183
COC1=C(N)N=CN1	COc1c(N)nc[nH]1	
InChI=1S/C4H7N3O/c1-8-4-3(5)6-2-7-4/h2H,5H2,1H3,(H,6,7)	InChI=1S/C4H7N3O/c1-8-4-3(5)6-2-7-4/h2H,5H2,1H3,(H,6,7)
