21
gdb 120659	3.10389	0.97415	0.85327	1.5074	80.07	-0.2135	0.0705	0.284	1453.8696	0.180615	-424.1792	-424.169655	-424.16871	-424.214444	34.703	
C	 0.0744306843	 1.4456037794	 0.1506658729	-0.386665
C	-0.1263305999	-0.038220983	 0.4045850995	-0.036005
O	 1.1047393424	-0.5847973651	 0.8569927008	-0.244519
C	 1.0295205452	-1.9475002475	 1.1342023551	 0.035261
C	 2.1467330733	-2.5391284945	 1.9603188597	-0.399036
C	 0.7688367612	-2.4084944366	 2.5372289628	 0.421544
C	 0.2933248405	-1.6053904723	 3.7395091596	-0.349291
C	-0.6203098913	-2.8280911246	 3.9819767201	-0.071863
O	-0.0544442659	-3.5327782101	 2.8499357409	-0.305202
H	 0.8554322521	 1.6033590272	-0.598431814	 0.129202
H	-0.8527494371	 1.8992852399	-0.2119797577	 0.115486
H	 0.3748399406	 1.9562895805	 1.0701244511	 0.125152
H	-0.9166224679	-0.2047520291	 1.1527840206	 0.089339
H	-0.4443518582	-0.5506950037	-0.5180056125	 0.091379
H	 0.6274206294	-2.5661319754	 0.3290501982	 0.090646
H	 2.4985157118	-3.5280763097	 1.6864109072	 0.124718
H	 2.9071922737	-1.858030868	 2.3294735098	 0.124786
H	 1.0489959971	-1.4355875575	 4.5089854302	 0.115249
H	-0.2092950352	-0.6634363859	 3.5145684029	 0.117258
H	-0.4584603434	-3.3729195582	 4.918147708	 0.107913
H	-1.6936066827	-2.6477179259	 3.8501606949	 0.104648
59.1488	75.0609	113.3203	127.1592	179.0903	247.8777	279.1791	333.0281	414.1339	457.6682	501.1686	609.7973	786.6517	803.4192	820.7275	866.1575	872.2916	891.2176	923.98	967.5958	1011.2864	1018.6167	1048.446	1075.3333	1105.2317	1118.987	1156.9813	1162.683	1184.2574	1189.5717	1206.6039	1208.6952	1245.3066	1293.7995	1324.0318	1363.5985	1389.1202	1405.3142	1431.8444	1482.2931	1483.4451	1492.18	1500.5352	1527.0763	1533.8455	2970.1437	2999.3555	3026.0121	3045.1804	3070.355	3078.3207	3081.9897	3119.2623	3122.1115	3127.8901	3130.8619	3221.6878
CCOC1CC11CCO1	CCO[C@H]1C[C@]21CCO2	
InChI=1S/C7H12O2/c1-2-8-6-5-7(6)3-4-9-7/h6H,2-5H2,1H3	InChI=1S/C7H12O2/c1-2-8-6-5-7(6)3-4-9-7/h6H,2-5H2,1H3/t6-,7-/m0/s1
