13
gdb 25214	2.64115	1.77347	1.06102	5.0857	74.7	-0.2467	-0.1001	0.1467	1023.7085	0.090933	-452.781703	-452.774476	-452.773532	-452.814826	26.281	
O	-0.0712251903	-0.1081518825	-0.0384453341	-0.306021
C	-0.014073611	 1.096758191	-0.0172843239	 0.323492
N	-1.1911912409	 1.8261070881	 0.1572749653	-0.361819
C	-1.48158426	 3.1607789135	 0.2280752699	 0.031678
C	-0.6504671703	 4.228549229	 0.1432187907	-0.035421
N	 0.7030605411	 4.279569147	-0.0355013484	-0.230881
C	 1.5158836237	 3.2916983401	-0.1678340791	-0.061666
C	 1.3375607492	 1.8189841786	-0.180463809	 0.239236
O	 2.3099245614	 1.1110073422	-0.3279982489	-0.273551
H	-1.9764196078	 1.1924718811	 0.2467976063	 0.272527
H	-2.5392132635	 3.3519817874	 0.3734664192	 0.142174
H	-1.1229954943	 5.2016847963	 0.2295648362	 0.12268
H	 2.5701520926	 3.5404245583	-0.3019201242	 0.137572
23.634	103.7785	337.5926	345.1196	351.6759	398.6973	449.6027	533.491	625.5132	634.0926	737.521	770.382	788.4865	834.3556	866.205	953.3806	957.8714	1016.1488	1076.1491	1216.7295	1268.6461	1361.7716	1409.4705	1451.6871	1514.2351	1599.0632	1668.9319	1752.9012	1800.0064	3118.6331	3175.6305	3199.5552	3573.9236
O=C1NC=CN=CC1=O	O=c1[nH]ccncc1=O	
InChI=1S/C5H4N2O2/c8-4-3-6-1-2-7-5(4)9/h1-3H,(H,7,8,9)	InChI=1S/C5H4N2O2/c8-4-3-6-1-2-7-5(4)9/h1-3H,(H,7,8,9)
