15
gdb 42195	3.03531	1.3608	1.02712	4.1762	74.16	-0.2658	-0.0705	0.1953	1125.5291	0.110187	-420.558782	-420.550587	-420.549643	-420.592254	30.118	
O	-0.1129963331	 0.0774053289	-0.7789735492	-0.287585
C	-0.102274844	 1.1933387799	-0.3070160524	 0.146798
C	 1.1378442494	 1.8734227389	 0.0350561403	 0.265568
C	 2.170295792	 2.4281904555	 0.3100753918	-0.44168
C	-1.3422133301	 1.958723935	-0.0023423335	 0.325446
C	-1.5447591454	 3.4078178875	 0.4727040815	-0.3195
C	-2.77677881	 2.9212196463	 1.3130060865	-0.241022
C	-2.5202690082	 1.5008506875	 0.7950835874	-0.018705
O	-2.5577688056	 1.5345235764	-0.6193345216	-0.255771
H	 3.0904184697	 2.9050526557	 0.5475585334	 0.218505
H	-0.7264923561	 3.767759785	 1.0978498213	 0.124771
H	-1.7419155798	 4.1241587433	-0.3271279814	 0.119943
H	-2.6173076815	 3.0227766846	 2.3883844886	 0.116356
H	-3.7526052044	 3.3323784232	 1.0457884686	 0.122104
H	-2.6860126729	 0.5418597522	 1.2730999587	 0.124774
42.0877	124.6495	157.2049	233.838	255.1196	326.3586	413.3393	480.007	513.5525	655.1039	662.8422	704.913	745.4897	753.7941	775.5286	877.1869	887.7859	930.4673	936.0557	990.1926	1058.7333	1097.4337	1130.3717	1184.3983	1213.8194	1227.6225	1272.5799	1280.2178	1406.7999	1464.9162	1484.9015	1755.5896	2211.4718	3073.543	3082.5887	3127.6691	3146.1866	3189.848	3492.1581
O=C(C#C)C12CCC1O2	O=C(C#C)[C@]12CC[C@H]1O2	
InChI=1S/C7H6O2/c1-2-5(8)7-4-3-6(7)9-7/h1,6H,3-4H2	InChI=1S/C7H6O2/c1-2-5(8)7-4-3-6(7)9-7/h1,6H,3-4H2/t6-,7-/m1/s1
