19
gdb 56741	2.86532	1.36288	1.1086	1.8707	81.11	-0.236	0.0519	0.2878	1153.3468	0.157198	-385.790159	-385.781421	-385.780477	-385.82366	33.642	
C	 0.1157246116	 1.5649759437	 0.0510690567	-0.393322
C	 0.0713120204	 0.0230451679	 0.0344212042	-0.306668
C	 0.6936175184	-0.522232385	-1.1716853327	 0.340733
C	 1.2040708271	-0.9613187186	-2.1670015478	-0.47757
C	 0.7077758964	-0.5541413915	 1.2839111179	 0.45825
C	 0.3327083414	-0.3199977789	 2.7749038515	-0.27434
C	 1.6795507117	-1.0725714872	 2.6937684175	 0.047041
C	 1.09231478	-2.0180532624	 1.6225515605	-0.265676
O	 2.1024435469	-0.1506496223	 1.6134211718	-0.342128
H	 1.1504062365	 1.9094872749	 0.1066159042	 0.150583
H	-0.3422784813	 1.9688187708	-0.8545547268	 0.12494
H	-0.4263212149	 1.9510822678	 0.9188943795	 0.11746
H	-0.98040414	-0.2979601764	 0.0515822269	 0.112791
H	 1.657687909	-1.3499470911	-3.0448719446	 0.196554
H	 0.4010757726	 0.7127784394	 3.1181181821	 0.108705
H	-0.534493609	-0.8510412067	 3.1765109909	 0.094328
H	 2.4018285771	-1.2804840715	 3.4820464318	 0.097568
H	 0.2944323506	-2.7040750343	 1.9187773152	 0.092958
H	 1.8197315954	-2.4659020985	 0.9461006315	 0.117794
55.2462	119.7693	180.9389	204.3655	233.5187	310.9334	378.481	440.555	515.5619	545.4385	605.6167	624.3951	640.5919	674.7521	739.8202	807.1652	852.1904	909.4483	911.2326	947.7363	980.3865	986.5736	1018.001	1065.8859	1094.0192	1100.8708	1116.5267	1139.7169	1163.5792	1212.4081	1233.8161	1244.6187	1274.0881	1315.8123	1353.0942	1406.3473	1466.2272	1493.3961	1498.6403	1512.7369	2238.1078	3005.349	3051.9107	3058.6071	3068.0179	3125.8241	3128.4343	3142.0459	3146.5318	3157.6639	3505.0664
CC(C#C)C12CC(C1)O2	C[C@@H](C#C)[C@@]12C[C@@H](C1)O2	
InChI=1S/C8H10O/c1-3-6(2)8-4-7(5-8)9-8/h1,6-7H,4-5H2,2H3	InChI=1S/C8H10O/c1-3-6(2)8-4-7(5-8)9-8/h1,6-7H,4-5H2,2H3/t6-,7-,8+/m0/s1
