18
gdb 97336	5.33468	0.72207	0.65828	2.2736	82.17	-0.2432	-0.0044	0.2388	1712.7682	0.147173	-435.278494	-435.269067	-435.268123	-435.313686	33.036	
C	-0.0732084758	 1.6528732476	 0.3037076652	-0.311038
N	-0.4672984668	 0.30157179	 0.6455229981	-0.243279
C	 0.2926155772	-0.6378131319	 0.2706604513	 0.126053
N	-0.0168503813	-1.9577764237	 0.5580416088	-0.358144
C	 0.7892943054	-3.0228817467	 0.2086349359	 0.452595
O	 1.8489083217	-2.9070851842	-0.3681722737	-0.367795
N	 0.25498201	-4.2459817217	 0.6587563709	-0.144247
C	 0.5605551514	-5.4463221776	-0.0936204446	-0.209493
C	-0.82763454	-4.8977179381	-0.0876630574	-0.239072
H	 0.0357449967	 2.2466295492	 1.2188077931	 0.127837
H	 0.8692703317	 1.7126921119	-0.2631883849	 0.102645
H	-0.8639062162	 2.1280221328	-0.2887325435	 0.126313
H	 1.226204502	-0.5329968323	-0.2902303191	 0.129431
H	-0.8471505276	-2.1265021425	 1.1067916532	 0.264782
H	 1.15537718	-5.3170092615	-0.9927383332	 0.147104
H	 0.7992685145	-6.3195077031	 0.505459336	 0.129182
H	-1.6028524009	-5.3579955577	 0.5178176477	 0.130407
H	-1.1771586519	-4.4089589405	-0.9935900338	 0.136718
55.6432	75.0197	120.93	141.0117	209.2516	224.9949	259.1058	339.6327	369.984	399.6344	568.929	626.5405	635.7818	779.9003	825.1581	857.6425	938.5438	997.0204	1010.2488	1046.5721	1066.4786	1121.5023	1137.024	1143.4196	1143.6153	1172.5779	1180.1453	1190.3985	1259.235	1337.7973	1372.0886	1447.6156	1480.5031	1490.821	1496.1259	1513.3271	1525.5668	1762.2479	1799.1076	2977.5345	3059.2058	3074.0663	3092.4813	3111.1545	3125.1698	3198.5255	3218.1773	3623.8476
CN=CNC(=O)N1CC1	CN=CNC(=O)N1CC1	
InChI=1S/C5H9N3O/c1-6-4-7-5(9)8-2-3-8/h4H,2-3H2,1H3,(H,6,7,9)	InChI=1S/C5H9N3O/c1-6-4-7-5(9)8-2-3-8/h4H,2-3H2,1H3,(H,6,7,9)
