21
gdb 116329	2.98772	1.28487	0.99731	1.7352	78.91	-0.2409	0.0802	0.321	1238.9006	0.183414	-424.201982	-424.193402	-424.192457	-424.23534	32.861	
C	 0.0489173786	 1.3494799671	-0.1134419147	-0.237523
O	 0.0061843779	-0.0404105627	 0.1113871183	-0.246163
C	-1.2963391407	-0.6046516004	 0.0639099255	 0.122673
C	-1.8769392756	-0.6726369073	-1.3603614415	-0.250165
C	-3.068358386	-1.6287008068	-1.3892493989	-0.071995
O	-2.6605682069	-2.9592777118	-1.1139457203	-0.256096
C	-1.9944157698	-3.1237458814	 0.1063622716	 0.092441
C	-0.4911326958	-3.1258897728	 0.0894744888	-0.298407
C	-1.2375228139	-1.967944611	 0.7184227156	-0.070344
H	 1.0787699854	 1.6713564228	 0.0608123746	 0.126911
H	-0.2306060595	 1.6239139202	-1.1413058293	 0.105336
H	-0.6127998943	 1.8948668886	 0.5788709681	 0.100407
H	-1.9753715998	 0.0227988505	 0.668729808	 0.06068
H	-2.1884042766	 0.3222321463	-1.6953982342	 0.096954
H	-1.1094959967	-1.0319665998	-2.0551164914	 0.114038
H	-3.8378137547	-1.2996485347	-0.6707073549	 0.086864
H	-3.5279414016	-1.6590174849	-2.3810841576	 0.108852
H	-2.5134023369	-3.8081189519	 0.7737311138	 0.090865
H	 0.0460388022	-3.8000091184	 0.7473491827	 0.110092
H	-0.0234666333	-2.9631982409	-0.8747041232	 0.124251
H	-1.2173305421	-1.9314531607	 1.803142949	 0.09033
81.3574	106.025	177.0747	206.2443	274.301	295.6833	367.788	419.6845	437.9394	500.9075	591.8935	659.2063	758.1357	803.2833	834.2135	886.1805	933.9363	961.761	999.0339	1023.324	1046.2725	1051.6226	1078.9988	1096.5814	1128.4326	1138.1119	1175.1651	1181.9005	1191.9176	1224.5662	1227.3824	1246.1705	1283.9217	1339.6567	1355.0582	1375.0309	1395.1521	1411.821	1417.7444	1476.7588	1479.3028	1489.2235	1493.3706	1505.0103	1511.9266	2935.5203	2966.7139	2971.7493	3020.7444	3043.2507	3087.6788	3089.8636	3109.9972	3124.3542	3138.8526	3153.2894	3228.5007
COC1CCOC2CC12	CO[C@H]1CCO[C@H]2C[C@@H]12	
InChI=1S/C7H12O2/c1-8-6-2-3-9-7-4-5(6)7/h5-7H,2-4H2,1H3	InChI=1S/C7H12O2/c1-8-6-2-3-9-7-4-5(6)7/h5-7H,2-4H2,1H3/t5-,6-,7-/m0/s1
