19
gdb 65357	3.32772	0.94753	0.8999	1.9387	83.77	-0.2519	0.0293	0.2812	1394.2811	0.156238	-385.824754	-385.81527	-385.814325	-385.859318	35.339	
C	-0.0390898103	 1.5411550335	-0.1559367472	-0.47088
C	-0.0622764295	 0.0453863808	 0.0849670385	 0.164158
O	 1.2032404385	-0.6376347649	-0.0454235951	-0.287048
C	 0.6018341276	-0.5945192758	 1.2503337627	 0.028452
C	 1.3095998202	 0.1375073662	 2.3370888959	-0.018193
C	 0.7887083536	 0.0207480075	 3.7518185665	-0.268342
C	 2.0756286361	-0.657609325	 3.3707711559	-0.266057
C	-1.1888779099	-0.6410124341	-0.5103507265	 0.291325
C	-2.1403569383	-1.1831276243	-1.0065171121	-0.430907
H	 0.8479334455	 1.9971016221	 0.2856232846	 0.129764
H	-0.031051028	 1.7430867785	-1.2309351935	 0.138255
H	-0.9316717661	 2.0093221244	 0.2697786142	 0.133046
H	 0.1803975713	-1.5520316982	 1.5663800827	 0.09193
H	 1.7397967801	 1.0901654283	 2.0513663123	 0.091617
H	 0.8309012649	 0.9027833142	 4.3803461719	 0.118069
H	-0.08436355	-0.6014869482	 3.9191341629	 0.118727
H	 2.0735025209	-1.7384562599	 3.2767112205	 0.120301
H	 3.0087376415	-0.2440785637	 3.7357495429	 0.118387
H	-2.9753044181	-1.6717368313	-1.4446537471	 0.197396
59.5616	104.9077	122.8877	158.6802	210.7177	252.4595	308.702	370.9275	412.0172	461.0608	545.0379	583.339	618.5339	659.6072	688.9417	769.5496	826.4008	839.6635	883.0448	898.8738	924.4416	967.818	1022.6725	1063.8418	1081.2277	1098.3232	1119.797	1129.6856	1193.5426	1198.3297	1222.9311	1244.3306	1328.3477	1346.0662	1411.2197	1467.8991	1471.7695	1483.2375	1497.4914	1511.2556	2235.6751	3050.1629	3078.5595	3115.8032	3134.5324	3138.514	3144.631	3179.1715	3213.5259	3228.7916	3502.1521
CC1(OC1C1CC1)C#C	C[C@]1(O[C@H]1C1CC1)C#C	
InChI=1S/C8H10O/c1-3-8(2)7(9-8)6-4-5-6/h1,6-7H,4-5H2,2H3	InChI=1S/C8H10O/c1-3-8(2)7(9-8)6-4-5-6/h1,6-7H,4-5H2,2H3/t7-,8-/m0/s1
