21
gdb 74792	2.60079	1.62409	1.47229	1.8078	82.38	-0.2366	0.0137	0.2503	1031.9108	0.185592	-387.108897	-387.101285	-387.100341	-387.140516	31.217	
C	-0.0889556053	 1.5105793407	 0.0562473558	-0.509672
C	-0.0774140178	 0.0183516041	-0.0129984348	 0.344093
C	-0.0938435234	-0.76530456	-1.0968802163	-0.20617
C	 0.0392502049	-2.2211343258	-0.670521688	 0.088992
C	-0.5942497328	-2.1735977325	 0.7295277123	-0.220087
C	 0.0518061106	-0.8653221653	 1.2324589039	-0.101778
C	 1.5453752665	-1.1874717152	 1.4948361163	-0.226962
C	 2.2154628861	-1.711700976	 0.2050804603	-0.055278
O	 1.4154231129	-2.6264357958	-0.5386608369	-0.279544
H	 0.8137155452	 1.8934203694	 0.5496822011	 0.128693
H	-0.148979482	 1.9625157536	-0.9375697549	 0.125747
H	-0.9394648201	 1.8708538152	 0.6492225306	 0.127421
H	-0.0904252581	-0.4301661557	-2.1277120658	 0.088055
H	-0.403367545	-2.9476847715	-1.3546134346	 0.069663
H	-1.6820417589	-2.0786446159	 0.6629139747	 0.092413
H	-0.3409115759	-3.0537164914	 1.3269824608	 0.092332
H	-0.4195015312	-0.4388527657	 2.1231408418	 0.056316
H	 2.0983356361	-0.3056810466	 1.8405711133	 0.092388
H	 1.6059158855	-1.9381097772	 2.2910097131	 0.101343
H	 2.4849976101	-0.854548834	-0.4274060262	 0.090825
H	 3.1389449027	-2.2497572845	 0.4387625735	 0.101209
143.1738	177.2143	236.9728	280.0897	330.4687	413.3274	450.3228	453.6597	571.7232	590.8482	663.202	770.1822	812.2598	839.2407	847.9094	869.7542	902.7482	920.1171	942.8414	996.4717	1019.1376	1037.9979	1043.376	1059.4617	1087.4025	1097.8525	1152.2004	1179.758	1222.2748	1243.2194	1272.9657	1294.2171	1308.702	1320.0583	1337.2673	1367.3219	1373.4951	1412.5415	1415.1472	1475.5114	1479.5406	1484.9204	1493.5422	1500.414	1699.0326	3003.0444	3015.5921	3027.3188	3049.8706	3060.6844	3062.1648	3067.7	3082.2215	3095.1425	3106.7472	3110.2383	3194.8349
CC1=CC2CC1CCO2	CC1=C[C@@H]2C[C@H]1CCO2	
InChI=1S/C8H12O/c1-6-4-8-5-7(6)2-3-9-8/h4,7-8H,2-3,5H2,1H3	InChI=1S/C8H12O/c1-6-4-8-5-7(6)2-3-9-8/h4,7-8H,2-3,5H2,1H3/t7-,8-/m1/s1
