17
gdb 90794	2.42434	2.0517	1.41125	3.1722	71.4	-0.241	-0.0039	0.2371	943.2129	0.136438	-421.820955	-421.813753	-421.812809	-421.852518	28.559	
C	-0.0435098013	 1.5624484676	-0.0419163509	-0.404039
C	 0.0153172698	 0.0459355065	 0.0203583938	 0.126378
O	 0.7630259024	-0.4562211053	-1.1078136299	-0.276503
C	 1.5108475228	-1.5531443837	-0.66301697	 0.114642
C	 1.21469072	-1.9446692162	 0.7212346449	-0.135724
C	 2.6223013223	-1.3366977317	 0.3831311814	-0.239999
C	 2.2534821889	-0.1616180861	 1.2213685613	 0.456805
O	 2.8867130993	 0.6635476475	 1.8197923487	-0.344592
C	 0.7506874778	-0.5510802407	 1.2332729944	-0.215576
H	 0.9550969393	 1.9971281082	 0.0493632588	 0.143749
H	-0.480322134	 1.8835582768	-0.9912366724	 0.129892
H	-0.6661983779	 1.9492535439	 0.7708226706	 0.119777
H	-1.0024208715	-0.3722596154	-0.0241434736	 0.078547
H	 1.7296251298	-2.2749970897	-1.4408027473	 0.12187
H	 0.9847734292	-2.9181791084	 1.1288412401	 0.11542
H	 3.5890811732	-1.818286561	 0.2984801876	 0.109828
H	 0.2345770998	-0.4615990923	 2.1876853925	 0.099526
125.6347	134.7994	222.209	310.6711	407.3787	429.7256	514.1256	546.1196	662.0367	713.0021	735.2907	800.1841	838.0648	844.0595	859.466	882.2442	929.6379	945.7928	982.1807	1010.8919	1048.636	1062.3713	1099.5175	1120.1865	1133.3248	1147.7297	1179.4964	1240.5542	1246.5485	1299.2883	1343.8957	1377.7738	1397.9574	1415.0913	1486.0318	1497.2552	1871.6539	2978.9616	3046.6866	3118.1167	3131.7005	3141.3426	3189.5813	3196.7504	3225.5012
CC1OC2C3C2C(=O)C13	C[C@H]1O[C@@H]2[C@H]3[C@@H]2C(=O)[C@@H]13	
InChI=1S/C7H8O2/c1-2-3-4-5(6(3)8)7(4)9-2/h2-5,7H,1H3	InChI=1S/C7H8O2/c1-2-3-4-5(6(3)8)7(4)9-2/h2-5,7H,1H3/t2-,3+,4-,5-,7-/m1/s1
