18
gdb 114484	3.26144	1.35428	1.18838	2.1665	71.63	-0.2431	0.0207	0.2638	1094.291	0.148602	-439.070262	-439.062335	-439.061391	-439.103818	29.261	
C	 0.1765218256	 1.0782137503	-0.3078298791	-0.238302
O	-0.0136878511	-0.2138661798	 0.2267673824	-0.230982
C	-1.3498019919	-0.6201710686	 0.2202338953	 0.113705
C	-1.97233972	-1.071330058	-1.1462612801	-0.265814
C	-2.2123456636	-2.4898568128	-0.5567173473	-0.023493
N	-1.3000525615	-3.512715248	-1.0892761595	-0.263838
C	-0.3577288179	-3.6039120172	-0.2456173235	 0.121808
O	-0.3725462969	-2.8517282354	 0.8854551448	-0.211991
C	-1.5605954701	-2.0488059658	 0.7923314767	 0.046318
H	 1.2440820122	 1.2997726285	-0.2432261356	 0.132208
H	-0.1347749913	 1.1392789674	-1.3611071599	 0.111697
H	-0.3819646791	 1.8373876235	 0.2620630197	 0.105716
H	-1.9831194155	 0.1165804285	 0.7404582618	 0.06643
H	-2.8706741184	-0.5278788499	-1.4482034615	 0.102958
H	-1.2584695772	-1.0813607376	-1.9726352361	 0.117162
H	-3.2432377785	-2.8483431959	-0.5579119092	 0.083176
H	 0.4999560253	-4.2619993831	-0.3276822305	 0.14278
H	-2.0988448703	-2.1212845163	 1.7382544616	 0.090462
32.1117	109.6919	173.3534	201.078	304.5107	340.0276	431.7017	495.2747	605.3127	679.1215	751.2825	813.5716	856.6998	868.0684	914.4091	921.4093	965.7689	1007.471	1039.3894	1067.2859	1085.5756	1112.6615	1129.7948	1181.3159	1185.9394	1192.535	1242.6676	1246.6347	1271.2034	1296.914	1307.1937	1320.1907	1359.9788	1385.4031	1465.6118	1481.7863	1487.9843	1508.5925	1689.4445	2965.6795	2978.1407	3026.7728	3066.4392	3088.7023	3104.3411	3120.2123	3128.997	3220.4025
COC1CC2N=COC12	CO[C@H]1C[C@H]2N=CO[C@@H]12	
InChI=1S/C6H9NO2/c1-8-5-2-4-6(5)9-3-7-4/h3-6H,2H2,1H3	InChI=1S/C6H9NO2/c1-8-5-2-4-6(5)9-3-7-4/h3-6H,2H2,1H3/t4-,5+,6-/m1/s1
