19
gdb 40592	4.95964	1.18693	1.13129	1.9938	79.76	-0.2301	0.0748	0.3049	1127.875	0.160579	-381.924644	-381.917509	-381.916565	-381.956408	28.531	
C	-0.0343961331	 1.2697039125	-0.392094064	-0.223004
C	 1.3194637775	 0.9507312668	 0.138834403	-0.221299
N	 0.2992590659	-0.0861286356	 0.0355915795	-0.099421
C	-0.2431202471	-0.6150455175	 1.2628028405	 0.054011
C	-1.1483793662	 0.1757798697	 2.2405490631	-0.059214
C	-2.4441065953	-0.0039718926	 1.383307823	-0.064209
C	-3.1371010174	-0.6072997985	 2.5968719481	-0.185761
N	-1.7259695186	-1.1628863372	 2.7800823343	-0.164189
C	-1.6062986527	-1.3119890684	 1.2364030846	-0.027909
H	-0.6794345605	 1.8748384051	 0.2400107795	 0.117048
H	-0.1941565855	 1.3980792939	-1.4589863732	 0.117715
H	 2.1687556687	 0.8456089869	-0.5304776123	 0.117684
H	 1.5629099756	 1.3348218309	 1.1283738069	 0.111689
H	 0.529331772	-1.2041401587	 1.768437029	 0.093692
H	-0.9224360882	 0.9847017902	 2.9389616134	 0.078855
H	-2.8367637344	 0.6433367651	 0.5936027084	 0.069837
H	-3.449490896	 0.0621650946	 3.4054295389	 0.099449
H	-3.8904863572	-1.3847261384	 2.4309641692	 0.101373
H	-1.9038086674	-2.2410602186	 0.7470519881	 0.083653
84.8959	160.6967	176.5738	338.6927	361.0768	477.4009	539.2424	703.3621	781.2722	805.9686	811.9799	839.2075	847.1979	883.8968	894.55	917.7724	930.7459	956.5815	1027.4163	1028.5999	1039.4576	1068.8616	1080.4563	1102.0008	1114.2084	1124.1372	1141.3892	1165.3167	1166.3407	1175.1602	1184.4503	1199.5435	1232.1199	1259.0241	1275.5115	1309.9028	1341.8316	1393.115	1492.5769	1521.0089	1522.2534	3033.0311	3056.8482	3060.291	3088.1026	3091.9739	3094.4366	3105.0639	3108.1022	3177.5766	3194.8216
C1CN1C1C2C3CN2C13	C1CN1[C@H]1[C@H]2[C@@H]3CN2[C@H]13	
InChI=1S/C7H10N2/c1-2-8(1)7-5-4-3-9(5)6(4)7/h4-7H,1-3H2	InChI=1S/C7H10N2/c1-2-8(1)7-5-4-3-9(5)6(4)7/h4-7H,1-3H2/t4-,5+,6-,7-
