17
gdb 18110	3.57308	2.3414	1.78315	1.7059	66.68	-0.246	0.0247	0.2707	776.0616	0.146251	-363.900523	-363.894355	-363.89341	-363.93087	24.436	
C	-0.0437668259	 1.4251189273	 0.2479136105	-0.213912
C	 1.3862778832	 1.9696803037	 0.0724774564	-0.221713
C	 2.2960395454	 0.7626366489	 0.33468154	 0.090023
O	 2.6453327691	 0.6684847517	 1.7450249379	-0.235451
C	 2.0467232425	-0.4582609633	 2.1954489951	 0.114446
N	 1.371034359	-1.1829035534	 1.4061527254	-0.270045
C	 1.4234903671	-0.5138164099	 0.0908118493	-0.003691
C	 0.039887046	 0.0098877125	-0.3506326456	-0.20617
H	-0.2987399494	 1.3698257385	 1.3118924774	 0.113895
H	-0.7982366186	 2.0504383596	-0.236174461	 0.09808
H	 1.5362262689	 2.3039379311	-0.9612495834	 0.101817
H	 1.6314927208	 2.8074556808	 0.7298063841	 0.112239
H	 3.2357628825	 0.7994046452	-0.219899513	 0.088737
H	 2.207787355	-0.6577558396	 3.2496749174	 0.137789
H	 1.848286269	-1.2073084271	-0.6398963347	 0.083293
H	-0.7587096238	-0.6570295229	-0.0190881013	 0.115085
H	 0.0013745393	 0.0636435367	-1.4451740744	 0.095577
104.0366	201.2205	339.2977	393.4052	518.5303	576.5764	622.7077	792.6668	807.3509	835.5788	844.0664	890.9384	920.2125	937.1184	953.1325	965.476	977.411	1037.1228	1056.6009	1112.934	1129.5083	1161.2295	1187.5608	1221.009	1281.9001	1298.8826	1312.7174	1319.67	1340.6262	1348.2114	1361.0756	1373.6047	1473.3905	1484.0413	1500.4987	1701.9425	3036.9587	3038.4639	3050.8864	3066.3871	3091.4042	3099.77	3106.7887	3114.2621	3209.5182
C1CC2OC=NC2C1	C1C[C@H]2OC=N[C@H]2C1	
InChI=1S/C6H9NO/c1-2-5-6(3-1)8-4-7-5/h4-6H,1-3H2	InChI=1S/C6H9NO/c1-2-5-6(3-1)8-4-7-5/h4-6H,1-3H2/t5-,6+/m0/s1
