19
gdb 106252	2.45667	1.35471	1.0861	4.3835	76.26	-0.2691	0.0052	0.2742	1202.6487	0.157781	-423.040052	-423.031018	-423.030074	-423.073913	33.486	
C	 0.0942192852	 1.5169717664	 0.0953243259	-0.379593
C	-0.128456645	 0.0118055997	-0.1080886594	-0.289411
C	 0.6808710114	-0.5387028732	-1.2374492312	 0.458221
O	 0.3220035919	-0.084576496	-2.5853355093	-0.299105
C	 0.4218891068	-1.3894224629	-3.0582334573	 0.459699
O	 0.1239552447	-1.7837909859	-4.1384052095	-0.328335
C	 0.9238788576	-1.9442434514	-1.7570487956	-0.370531
C	 2.0803232578	-1.0457698178	-1.2584287948	-0.067381
C	 3.1924262546	-0.5194460175	-2.1364705285	-0.424483
H	 1.1390135312	 1.7322625352	 0.3404680045	 0.120508
H	-0.1605067643	 2.0705899134	-0.8126534789	 0.142808
H	-0.530283301	 1.8926443109	 0.9105780625	 0.118999
H	 0.1361127228	-0.5381571417	 0.802559138	 0.109997
H	-1.1883778229	-0.1869249438	-0.3052225943	 0.119499
H	 0.7076013117	-2.9188864063	-1.343327848	 0.12307
H	 2.4053315214	-1.3840089209	-0.2745898068	 0.103426
H	 2.8024856177	-0.1134131941	-3.0719849712	 0.149561
H	 3.7351162835	 0.2813958474	-1.6233062492	 0.124535
H	 3.9080613151	-1.3121653614	-2.374576677	 0.128516
79.3301	121.7835	141.6646	190.625	203.2863	263.9636	293.0095	359.09	433.4014	485.2566	547.9627	649.7388	699.1544	757.7125	781.8994	825.9203	891.6426	905.4254	925.2831	971.8628	991.601	1032.9503	1061.9548	1077.4414	1106.6655	1139.3372	1141.3052	1210.3287	1234.7204	1299.5582	1333.7457	1367.2325	1410.4799	1416.0333	1471.0181	1477.7161	1491.8592	1498.138	1505.473	1513.104	1938.7225	3034.7057	3042.2452	3043.4162	3072.8532	3103.4467	3114.3429	3116.4112	3123.2166	3137.6257	3222.3863
CCC12OC(=O)C1C2C	CC[C@]12OC(=O)[C@H]1[C@H]2C	
InChI=1S/C7H10O2/c1-3-7-4(2)5(7)6(8)9-7/h4-5H,3H2,1-2H3	InChI=1S/C7H10O2/c1-3-7-4(2)5(7)6(8)9-7/h4-5H,3H2,1-2H3/t4-,5-,7-/m1/s1
