24
gdb 118851	3.98261	0.74715	0.70443	0.4841	88.14	-0.2224	0.0831	0.3055	1755.8376	0.214428	-405.513844	-405.502695	-405.50175	-405.550539	39.909	
C	 0.407441061	 1.56143362	-0.0242863731	-0.37219
C	-0.1503717837	 0.1417785352	-0.1023023774	-0.113891
N	 0.4865765135	-0.5853718893	-1.1957105549	-0.118643
C	 1.6779958473	-1.3760182324	-0.8930003608	-0.285273
C	 0.3998958696	-2.047070331	-1.2720196376	 0.301701
C	-0.3629045488	-2.8679073043	-0.2505463655	-0.471613
C	 0.2369056518	-2.531909972	-2.6988522602	-0.100193
O	 0.7250225397	-3.8551085857	-2.7940871693	-0.236465
C	 0.564756523	-4.4052436103	-4.0783010125	-0.221307
H	 1.4805286839	 1.546121453	 0.1931328129	 0.117716
H	 0.2641297051	 2.0828959461	-0.9746815937	 0.124854
H	-0.0904609033	 2.1303381349	 0.7671796982	 0.108653
H	-0.0244934205	-0.3530333515	 0.8746166547	 0.082223
H	-1.2276228122	 0.176697099	-0.3054241947	 0.100383
H	 2.5009930334	-1.300988151	-1.5996976594	 0.109041
H	 1.9834055454	-1.4518980788	 0.1506055519	 0.101513
H	-0.134781226	-2.5796630924	 0.777128069	 0.115735
H	-1.4449971103	-2.7715300725	-0.4017473203	 0.114198
H	-0.1032733473	-3.9221926503	-0.3757172249	 0.141555
H	-0.8295365599	-2.4970318999	-2.986836787	 0.0791
H	 0.7808315762	-1.8587694181	-3.3786549105	 0.092491
H	 1.1074339186	-3.8261011555	-4.8425279197	 0.103315
H	 0.9677565051	-5.4208461952	-4.0540699114	 0.124876
H	-0.4954798415	-4.450275978	-4.375565464	 0.102222
58.1818	73.3159	95.3083	120.9346	174.2193	211.1764	227.0804	237.0786	280.7073	314.6445	330.1332	375.7828	432.575	442.0489	595.6819	715.2328	786.4375	810.6007	903.4038	937.4789	957.554	987.6206	995.5677	1027.3316	1078.3836	1098.6642	1106.9583	1119.3362	1156.1385	1175.5568	1187.7044	1208.8348	1227.8806	1241.3342	1301.2643	1307.5049	1376.2278	1389.1805	1404.3062	1413.8062	1422.3244	1480.4547	1484.6131	1485.0062	1488.5382	1491.258	1500.8475	1505.5333	1510.1148	1515.6499	1525.2076	2941.3084	2962.9086	2967.7168	3004.7204	3010.0676	3034.523	3038.04	3045.489	3081.6007	3105.1364	3107.0059	3111.0882	3119.3809	3133.6486	3167.7748
CCN1CC1(C)COC	CCN1C[C@]1(C)COC	
InChI=1S/C7H15NO/c1-4-8-5-7(8,2)6-9-3/h4-6H2,1-3H3	InChI=1S/C7H15NO/c1-4-8-5-7(8,2)6-9-3/h4-6H2,1-3H3/t7-,8?/m1/s1
