21
gdb 58342	2.07778	1.34534	1.00234	1.4103	82.44	-0.2481	-0.013	0.2352	1303.6016	0.18096	-420.447372	-420.436923	-420.435979	-420.483952	37.61	
C	-0.0178102331	 1.5431244541	-0.0212026213	-0.392283
C	-0.0340821702	 0.0125939638	 0.0599451329	 0.026787
C	 0.7585572983	-0.5362771743	 1.251597909	-0.392726
N	-1.4263505917	-0.5241775578	 0.0308410427	-0.118768
C	-2.2544304303	-0.1949732053	 1.0842338541	 0.164217
O	-3.4088137852	-0.5192289068	 1.253769882	-0.335615
C	-1.8139419448	-1.3272932298	-1.0709344932	 0.368318
C	-3.2208965522	-1.8763167356	-1.0954188371	-0.446097
N	-0.944919944	-1.540061482	-1.9814219386	-0.502363
H	 1.0138054479	 1.8930517021	-0.1266418123	 0.123349
H	-0.5840907986	 1.8902731661	-0.8899482766	 0.1303
H	-0.4358275885	 2.0173671606	 0.8728230858	 0.117516
H	 0.4134499262	-0.3783473476	-0.8521433534	 0.149113
H	 0.3872152736	-0.1665615009	 2.2129772896	 0.117774
H	 0.7247227896	-1.6292186124	 1.2685447922	 0.129857
H	 1.8058617087	-0.2305370604	 1.1652390642	 0.123571
H	-1.7245921649	 0.4405133745	 1.8140096881	 0.09196
H	-3.9637716564	-1.0769613498	-1.0779129982	 0.158045
H	-3.3450255022	-2.4721033156	-2.002961516	 0.107917
H	-3.4256041385	-2.495499656	-0.2202820575	 0.157437
H	-1.3406749836	-2.1267686768	-2.7122272963	 0.221691
21.9468	46.8636	132.3121	211.9928	234.1644	234.6413	253.6216	264.0295	299.1397	331.5942	414.7523	436.4108	476.8161	573.8653	598.5277	633.6589	790.013	851.5756	874.8719	934.0204	952.8989	973.1591	1037.0938	1071.8915	1082.1072	1106.8066	1133.7271	1155.5444	1204.5981	1276.4471	1380.6841	1381.4405	1403.1539	1417.1713	1425.0766	1441.5734	1462.4722	1469.1389	1474.8713	1484.094	1491.7185	1506.3328	1507.2739	1693.8038	1800.1146	2982.7454	3036.2955	3040.2937	3057.877	3099.8052	3102.345	3116.7867	3118.4458	3138.8103	3139.5239	3141.0155	3510.4291
CC(C)N(C=O)C(C)=N	CC(C)N(C=O)C(=N)C	
InChI=1S/C6H12N2O/c1-5(2)8(4-9)6(3)7/h4-5,7H,1-3H3	InChI=1S/C6H12N2O/c1-5(2)8(4-9)6(3)7/h4-5,7H,1-3H3
