17
gdb 95139	2.3331	1.76516	1.47111	1.6521	68.05	-0.2564	-0.025	0.2314	973.6571	0.135844	-458.954881	-458.947242	-458.946298	-458.986914	29.391	
C	-0.5262531539	 1.5342438268	 0.1583194396	-0.408549
C	 0.2002819089	 0.2145519852	-0.0441899245	 0.12801
O	 1.2255000644	 0.4454657993	-1.0207926984	-0.285958
C	 2.2800806378	-0.5124280709	-1.0484131944	-0.078241
C	 2.6246435307	-0.9473083156	 0.3730536142	-0.063747
O	 1.4482301627	-1.62156958	 0.9132855257	-0.300605
C	 0.8478288348	-0.3314760214	 1.2346569494	-0.071103
C	 2.2872354334	 0.2145214192	 1.333445922	 0.446902
O	 2.8761965327	 1.0323125345	 1.9648857156	-0.304276
H	 0.1421757535	 2.2815320811	 0.5959240998	 0.140112
H	-0.8820223005	 1.9127773572	-0.8030146944	 0.13627
H	-1.3872094375	 1.3999744244	 0.8200285633	 0.120617
H	-0.4918826341	-0.5607529101	-0.4079004474	 0.088741
H	 1.9986633775	-1.4047783699	-1.626953846	 0.112415
H	 3.1265322464	-0.0208709091	-1.5380741366	 0.12472
H	 3.5445459253	-1.5266525921	 0.4720971465	 0.108252
H	 0.1872402477	-0.3639509686	 2.1033798155	 0.106439
116.9034	147.9779	219.1174	245.9677	312.718	389.1245	452.3178	485.5962	496.8587	578.1047	660.4833	787.0116	815.3671	861.0842	878.663	921.8301	956.2807	1000.2678	1023.6969	1052.458	1074.467	1098.9444	1137.9975	1153.1585	1181.5941	1225.9894	1257.2991	1283.1794	1306.7502	1349.8436	1363.2709	1395.4574	1412.687	1485.2114	1486.7873	1499.4361	1928.8975	2987.475	3001.7065	3046.1259	3085.8335	3105.197	3109.3041	3120.8673	3129.0952
CC1OCC2OC1C2=O	C[C@H]1OC[C@@H]2O[C@H]1C2=O	
InChI=1S/C6H8O3/c1-3-6-5(7)4(9-6)2-8-3/h3-4,6H,2H2,1H3	InChI=1S/C6H8O3/c1-3-6-5(7)4(9-6)2-8-3/h3-4,6H,2H2,1H3/t3-,4+,6-/m1/s1
