16
gdb 87022	2.14953	1.58735	1.06146	2.4622	71.19	-0.2752	-0.0102	0.2651	1136.082	0.123825	-434.097556	-434.08836	-434.087416	-434.131487	33.283	
C	-0.1835684045	 1.5948226726	 0.2209682073	-0.408557
C	-0.150488999	 0.0892833103	 0.1845058735	-0.01411
N	 1.043133851	-0.5516973371	-0.3375151825	-0.343076
C	 0.7460046266	-0.7205235452	 1.0991987218	 0.040385
C	 1.6257222118	-0.0636700957	 2.0331352748	 0.263124
N	 2.2908558536	 0.4227241584	 2.8455460248	-0.359605
C	 0.2001311052	-2.0850443411	 1.4947164935	 0.396126
N	 0.3504704439	-2.4349962231	 2.7913960547	-0.558865
O	-0.3421958624	-2.7802638739	 0.6539958867	-0.376614
H	 0.8005791162	 2.0049082154	 0.4577631759	 0.149561
H	-0.4877890046	 1.9795282519	-0.7577062609	 0.136003
H	-0.9030816592	 1.9502743005	 0.9648806305	 0.131186
H	-1.095413985	-0.4108778975	-0.0185708189	 0.123679
H	 0.7847687691	-1.4396430191	-0.7728155265	 0.260224
H	 0.8601303082	-1.863140974	 3.4443064715	 0.286581
H	 0.023496939	-3.3420595622	 3.080968174	 0.273956
75.2963	138.1108	156.1345	176.2383	193.1226	257.2305	311.6391	349.5331	414.8979	450.5941	521.1739	564.38	575.3257	617.9782	667.8833	746.7093	833.43	882.0183	972.4788	1031.4646	1046.7724	1091.3948	1111.9939	1142.022	1231.0731	1266.9791	1349.2117	1378.784	1409.6195	1445.9042	1483.941	1495.0947	1621.3968	1789.1425	2346.1647	3044.6364	3110.8181	3128.9488	3146.1698	3450.79	3597.3873	3729.2223
CC1NC1(C#N)C(N)=O	C[C@H]1N[C@]1(C#N)C(=O)N	
InChI=1S/C5H7N3O/c1-3-5(2-6,8-3)4(7)9/h3,8H,1H3,(H2,7,9)	InChI=1S/C5H7N3O/c1-3-5(2-6,8-3)4(7)9/h3,8H,1H3,(H2,7,9)/t3-,5+/m1/s1
