19
gdb 75553	2.48457	1.47381	1.01384	1.4671	84.27	-0.2422	0.0172	0.2594	1202.9717	0.158364	-385.862251	-385.853418	-385.852474	-385.895631	33.733	
C	-0.1139046289	 1.5330393005	 0.023799498	-0.481961
C	 0.0145472571	 0.0379314271	-0.0464294742	 0.29602
C	 0.0352437825	-0.6473823637	-1.1896622735	-0.164842
C	 0.0787371047	-2.150193304	-1.2446964719	-0.257532
C	-0.3372295255	-2.7179302709	 0.1098447644	-0.072284
O	 0.3804577638	-2.0865226561	 1.1577939259	-0.263923
C	 0.0705479446	-0.7062548041	 1.2880388236	-0.114819
C	 1.0593698371	-0.1242689012	 2.1996581937	 0.318299
C	 1.8527101765	 0.3711290285	 2.9529868509	-0.445642
H	 0.7539163812	 1.986294413	 0.5143382531	 0.141685
H	-0.2155125376	 1.9629063753	-0.9759377524	 0.120491
H	-0.9938441158	 1.8281449721	 0.6105382954	 0.123376
H	-0.0036765339	-0.106678008	-2.1328435234	 0.084275
H	-0.5933973559	-2.5228206902	-2.0280707319	 0.102731
H	 1.086073255	-2.5006435693	-1.5077180866	 0.118345
H	-1.4221765208	-2.5849563821	 0.2544600768	 0.089948
H	-0.1113453305	-3.7842688004	 0.1938457694	 0.108164
H	-0.9244330618	-0.6018352088	 1.7656158614	 0.099791
H	 2.5598216583	 0.7996206123	 3.6195858314	 0.197877
67.0128	146.7919	182.0531	203.1983	265.5841	322.8409	327.6395	403.4424	432.3052	478.7513	546.0501	597.7761	618.0004	655.9285	670.0932	788.2729	872.5986	898.7087	930.9085	942.1931	1023.8946	1047.0205	1068.5211	1075.5109	1098.9695	1130.3814	1178.2363	1233.7468	1289.0564	1305.1852	1341.0635	1360.1681	1366.7295	1410.6632	1415.8827	1471.6485	1477.6042	1492.49	1498.861	1743.0091	2242.2016	2896.1631	2971.3536	3014.804	3021.8242	3049.9991	3078.7062	3091.6729	3117.515	3146.9145	3503.6248
CC1=CCCOC1C#C	CC1=CCCO[C@H]1C#C	
InChI=1S/C8H10O/c1-3-8-7(2)5-4-6-9-8/h1,5,8H,4,6H2,2H3	InChI=1S/C8H10O/c1-3-8-7(2)5-4-6-9-8/h1,5,8H,4,6H2,2H3/t8-/m0/s1
