23
gdb 121380	4.09274	0.84334	0.74385	0.884	89.45	-0.2369	0.0246	0.2615	1623.7351	0.206466	-388.306253	-388.29682	-388.295876	-388.341066	35.43	
C	-0.0184438929	 1.5276757709	-0.0625821977	-0.382917
C	 0.080601353	 0.013781974	 0.0320205334	-0.040554
O	 0.6190513052	-0.4721674522	-1.1804868835	-0.260562
C	 0.7294495699	-1.8911797547	-1.26258948	 0.109795
C	 0.7224680321	-2.2657488698	-2.7451131374	-0.221052
C	 1.1171492442	-3.7336634144	-2.9400340243	-0.214504
C	 2.5363531243	-3.9999378838	-2.4150512862	-0.237985
C	 2.7893639996	-3.313967381	-1.0981978982	-0.054531
C	 1.9834905597	-2.388471893	-0.5793397976	-0.067942
H	 0.9712054354	 1.9675171764	-0.215542782	 0.126245
H	-0.6541949165	 1.8172792529	-0.90411522	 0.124944
H	-0.444871133	 1.94149772	 0.8562351233	 0.111763
H	 0.7102997168	-0.2700778718	 0.8908196674	 0.085906
H	-0.9151381538	-0.4289442959	 0.2071120053	 0.08315
H	-0.1548183205	-2.3379101508	-0.7723686139	 0.06554
H	-0.2647285313	-2.0588963469	-3.169964191	 0.093754
H	 1.4370536082	-1.6102455885	-3.257520271	 0.108236
H	 0.4069858217	-4.373980953	-2.4003958548	 0.098787
H	 1.0448596046	-4.0105658553	-3.996955354	 0.093908
H	 2.7103476692	-5.078783308	-2.3134106731	 0.100874
H	 3.2813889518	-3.653814037	-3.1474541456	 0.109315
H	 3.691319228	-3.6012249274	-0.5613829757	 0.0837
H	 2.2231974344	-1.9368167809	 0.3799725968	 0.084131
60.389	77.1165	100.9995	192.5885	247.9318	267.9392	304.1728	331.9987	382.7461	469.5036	524.4908	561.1898	682.6497	738.9103	818.0311	825.7397	866.7585	895.9597	921.6263	939.3286	976.8517	1003.6034	1052.6217	1066.0996	1076.808	1104.0015	1128.4891	1149.7241	1160.1816	1188.0632	1223.745	1249.0004	1272.2547	1296.5042	1337.7394	1342.7315	1370.8463	1374.6988	1378.7415	1401.6848	1422.1542	1437.3074	1475.6556	1483.3048	1491.1931	1499.2693	1500.3551	1529.7422	1721.2523	2926.918	2954.7111	2982.4168	2996.1276	3019.9918	3037.2672	3039.9037	3044.075	3072.3629	3085.0124	3118.2381	3120.8887	3138.7248	3166.9173
CCOC1CCCC=C1	CCO[C@H]1CCCC=C1	
InChI=1S/C8H14O/c1-2-9-8-6-4-3-5-7-8/h4,6,8H,2-3,5,7H2,1H3	InChI=1S/C8H14O/c1-2-9-8-6-4-3-5-7-8/h4,6,8H,2-3,5,7H2,1H3/t8-/m1/s1
