18
gdb 112105	2.80274	1.42903	1.00073	3.2756	76.03	-0.2281	0.0049	0.233	1183.8742	0.14841	-439.112684	-439.103986	-439.103041	-439.146928	31.632	
C	-0.0402776403	 1.2427190165	 0.6837933157	-0.238462
O	-0.1960432365	 0.3618913032	-0.4181945078	-0.252374
C	-1.2916000642	-0.5346417932	-0.3211983931	-0.048702
C	-1.6818410756	-0.9086652931	-1.7201408986	-0.057717
C	-1.7517551599	-2.1614419935	-2.1528366357	-0.063953
C	-1.4433649401	-3.3480845809	-1.2983791436	-0.202072
N	-1.0247006683	-2.9749185554	 0.0377665091	-0.325289
C	-0.9303152576	-1.7284850335	 0.5790897425	 0.405231
O	-0.5672472014	-1.5606217549	 1.731339102	-0.382406
H	 0.7765568093	 1.9204622608	 0.4228542436	 0.119141
H	-0.9543975012	 1.834918164	 0.8481092171	 0.097156
H	 0.1999941575	 0.7013491669	 1.6026868643	 0.147386
H	-2.1354561492	-0.0243803809	 0.1759282064	 0.093324
H	-1.8941181019	-0.0750678893	-2.3829112515	 0.106111
H	-2.0405351057	-2.3831170294	-3.1758547681	 0.10418
H	-2.3267797466	-4.0041487832	-1.2464507294	 0.124114
H	-0.6552845095	-3.9462738183	-1.7814359647	 0.12693
H	-0.7716414187	-3.7132816259	 0.6795371618	 0.247404
34.3657	116.1473	128.2757	198.1326	244.9602	284.3687	366.2703	440.9056	464.5395	524.458	569.4756	602.1365	696.6708	724.2219	826.034	918.8573	945.2298	996.6118	999.3683	1026.7405	1030.5593	1132.6457	1138.7664	1180.1707	1181.9903	1211.9621	1245.7669	1323.0831	1347.7354	1358.4604	1391.6455	1426.2498	1469.931	1477.5852	1486.9066	1519.9457	1523.5795	1748.4871	1777.8323	2945.985	2977.4571	2982.8736	2992.2599	3084.3096	3127.7488	3166.299	3187.4507	3598.8957
COC1C=CCNC1=O	CO[C@H]1C=CCNC1=O	
InChI=1S/C6H9NO2/c1-9-5-3-2-4-7-6(5)8/h2-3,5H,4H2,1H3,(H,7,8)	InChI=1S/C6H9NO2/c1-9-5-3-2-4-7-6(5)8/h2-3,5H,4H2,1H3,(H,7,8)/t5-/m0/s1
