18
gdb 76314	2.67925	1.35962	1.15691	2.1976	71.61	-0.2653	0.0167	0.282	1105.8201	0.146851	-439.087858	-439.078651	-439.077707	-439.121581	34.212	
C	 0.70703515	 1.564602892	-0.0370537345	-0.411636
C	 0.1182344303	 0.1623232491	 0.0416851099	-0.06148
C	 0.7669470132	-0.8903098558	-0.926792291	 0.146588
O	 1.4748617074	-0.4542700306	-2.0438300677	-0.428302
C	 1.6004999388	-1.4641789929	 0.2538475141	 0.058927
O	 2.8782731469	-0.8731513061	 0.1939023803	-0.435829
C	 0.6156339516	-0.7356784727	 1.2353951019	-0.195288
C	 1.2401674578	-0.1136044345	 2.3853109126	 0.273494
N	 1.8050375885	 0.364984862	 3.274779222	-0.338377
H	 1.7930183821	 1.5559428731	 0.0831789063	 0.131287
H	 0.4766452701	 2.0065522394	-1.0103484022	 0.13241
H	 0.287874151	 2.2075999473	 0.7425335745	 0.128587
H	-0.9717181048	 0.2114960912	-0.0208607914	 0.085965
H	 0.0202801529	-1.612890836	-1.269232208	 0.09352
H	 2.3324609729	-0.1451120846	-1.7239240135	 0.301335
H	 1.6666040167	-2.5531843456	 0.3638545043	 0.085271
H	 3.2691964001	-0.8547760758	 1.0754795898	 0.307326
H	-0.1671816055	-1.4202047498	 1.5729921727	 0.126201
79.1535	124.3882	165.0194	212.1321	242.6768	268.917	287.8718	343.8639	379.5913	437.3155	488.7102	513.6199	593.9627	658.6542	755.4059	792.7822	829.5598	881.6673	906.2806	999.3506	1042.7751	1090.0289	1112.8771	1127.9296	1146.4629	1173.0376	1218.3006	1252.7238	1270.1466	1301.7521	1325.1609	1340.7157	1372.2235	1400.1814	1417.1376	1448.7075	1492.5996	1506.0319	2344.7376	3029.121	3047.936	3064.0114	3072.4503	3085.1904	3117.7996	3129.8503	3773.9374	3795.3918
CC1C(O)C(O)C1C#N	C[C@H]1[C@@H](O)[C@@H](O)[C@H]1C#N	
InChI=1S/C6H9NO2/c1-3-4(2-7)6(9)5(3)8/h3-6,8-9H,1H3	InChI=1S/C6H9NO2/c1-3-4(2-7)6(9)5(3)8/h3-6,8-9H,1H3/t3-,4+,5-,6+/m1/s1
