20
gdb 12133	4.53766	1.5277	1.39142	0.3718	80.03	-0.2356	0.0968	0.3323	989.9384	0.177064	-311.831667	-311.823982	-311.823037	-311.863109	30.784	
C	-0.0155386994	 1.5337164892	 0.0571131024	-0.493869
C	 0.0591559225	 0.0351900663	 0.0051137759	 0.374769
C	-0.8376282538	-0.8639500774	 0.8132969425	-0.326735
C	 0.6553476213	-0.9627143681	 1.0087223989	-0.178081
C	 1.2599649133	-1.752318801	-0.1338500591	 0.410451
C	 2.6362120688	-2.3399212925	-0.1707763945	-0.341002
C	 1.4194784852	-3.2412171483	-0.2456646752	-0.32355
C	 0.6697406405	-0.7645147742	-1.1632754764	-0.375777
H	 0.9462261041	 1.9922592001	-0.2009804085	 0.114446
H	-0.7645234779	 1.9199193409	-0.6457182715	 0.117313
H	-0.2943802218	 1.8822283985	 1.057231396	 0.115158
H	-1.379153321	-0.3704771816	 1.615232012	 0.103238
H	-1.3810649125	-1.682610609	 0.3459722087	 0.102173
H	 1.1287473572	-0.7718410176	 1.9658501648	 0.078638
H	 3.2303301917	-2.2048525496	-1.0695826748	 0.107652
H	 3.2162221154	-2.344437225	 0.7471477961	 0.109124
H	 1.1812175627	-3.8512506116	 0.6199664226	 0.109245
H	 1.1951572797	-3.7116333986	-1.1979185139	 0.107788
H	-0.0396355272	-1.1676129299	-1.8953318565	 0.089926
H	 1.4457617213	-0.2050068004	-1.6951226995	 0.099092
108.4464	205.4678	219.5179	270.5371	320.7855	354.2319	395.7032	466.956	522.8668	651.8055	772.4668	780.7601	812.5909	857.3353	872.5596	919.7532	939.5087	954.3526	965.0351	994.6461	1015.6881	1030.0834	1048.4921	1071.9071	1074.0152	1090.8128	1128.9007	1159.3853	1186.8961	1215.2377	1226.6146	1259.6623	1292.0036	1379.2113	1402.4093	1423.6417	1463.4624	1479.6649	1486.0696	1496.2236	1501.2228	1508.8479	3016.2926	3028.9984	3073.0897	3081.8211	3092.2159	3100.3808	3117.2401	3123.3478	3165.7485	3191.0189	3195.1491	3211.2149
CC12CC1C1(CC1)C2	C[C@]12C[C@H]1C1(CC1)C2	
InChI=1S/C8H12/c1-7-4-6(7)8(5-7)2-3-8/h6H,2-5H2,1H3	InChI=1S/C8H12/c1-7-4-6(7)8(5-7)2-3-8/h6H,2-5H2,1H3/t6-,7-/m1/s1
