24
gdb 10360	2.42731	1.49015	1.11782	0.9744	81.71	-0.2426	0.0789	0.3216	1228.325	0.220664	-351.408406	-351.397541	-351.396597	-351.444109	38.867	
C	-0.6301728939	 1.157603102	-0.2755131072	-0.390701
C	-0.1720109043	-0.2904535207	-0.085020127	-0.178586
C	 0.7529270517	-0.4815071599	 1.1232616319	 0.134558
O	 0.0269399562	-0.1659007407	 2.3161495541	-0.256131
C	 0.5436969275	 0.9009756559	 3.0784070697	-0.234881
C	 1.3391674281	-1.9069196522	 1.2327476021	 0.039172
C	 2.3852661193	-1.9841979272	 2.3533225569	-0.400298
C	 0.2551583086	-2.9757694993	 1.4360979949	-0.386844
H	 0.2201358824	 1.8292504673	-0.4411910706	 0.107042
H	-1.2973672104	 1.2497422372	-1.1380471995	 0.109633
H	-1.1730342076	 1.5089836068	 0.6065048559	 0.127987
H	-1.0500137043	-0.9335527793	 0.0390365767	 0.107216
H	 0.3517432182	-0.6394295866	-0.984074934	 0.089193
H	 1.5971735236	 0.2191895348	 1.0232446154	 0.057463
H	 0.5571662327	 1.8450139083	 2.5137346584	 0.104003
H	-0.1129814968	 1.0244586606	 3.944550381	 0.122207
H	 1.5632648077	 0.7017019341	 3.4396018049	 0.104387
H	 1.848686301	-2.1042524515	 0.2789082318	 0.065471
H	 1.9212464331	-1.79655026	 3.3267935936	 0.125028
H	 2.8460647313	-2.9765954601	 2.390026577	 0.10754
H	 3.1856276481	-1.2496916982	 2.2100304781	 0.102448
H	-0.4255740383	-3.0433791394	 0.5827470187	 0.10992
H	 0.7099565037	-3.9622171285	 1.572525342	 0.104129
H	-0.3389502177	-2.7484573136	 2.3261559349	 0.130042
68.7107	77.0705	102.606	164.3595	184.5931	212.5053	230.8301	255.4712	274.5559	302.3317	334.9227	354.8843	433.3855	497.8383	598.4316	760.8638	821.152	894.0588	923.8206	929.7745	968.5845	983.4346	1034.288	1062.404	1107.5196	1132.0011	1147.2757	1179.5629	1181.3269	1204.7305	1225.6931	1295.4149	1307.8679	1348.206	1357.8838	1385.8326	1392.7036	1399.6979	1406.9864	1418.159	1476.4277	1482.128	1485.6984	1490.8252	1496.0522	1498.2313	1505.0811	1508.0845	1513.4323	1519.1542	2968.8842	2984.0665	3003.8066	3027.1973	3029.2388	3030.1413	3032.206	3039.8605	3072.3694	3093.6216	3098.1141	3101.5899	3103.3959	3106.2518	3114.8713	3117.8307
CCC(OC)C(C)C	CC[C@@H](OC)C(C)C	
InChI=1S/C7H16O/c1-5-7(8-4)6(2)3/h6-7H,5H2,1-4H3	InChI=1S/C7H16O/c1-5-7(8-4)6(2)3/h6-7H,5H2,1-4H3/t7-/m1/s1
