21
gdb 67583	2.23821	2.1356	1.48478	0.2635	85.28	-0.2076	0.0948	0.3024	1001.45	0.183355	-349.927263	-349.919368	-349.918424	-349.95897	32.312	
C	 0.0399140119	 1.5320938084	 0.0753102139	-0.516127
C	-0.0071396248	 0.0377336637	-0.0285187957	 0.298474
C	 1.0550530516	-0.8413183626	-0.6648088482	-0.124818
C	 0.4292036419	-1.9236841077	-1.5231560316	-0.237714
C	-0.8451240514	-2.1326366515	-0.7279262137	-0.124818
C	-0.5968997911	-1.9004711669	 0.7555755172	-0.138449
C	 0.6808582242	-1.0321219657	 0.7980197142	-0.138447
C	-1.3007639565	-0.8413887416	-0.0714789699	 0.298475
C	-2.7111130636	-0.3374556053	-0.016042105	-0.516127
H	 1.0656770498	 1.8769010994	 0.2439882519	 0.117241
H	-0.3231490712	 2.0144150977	-0.8408412865	 0.116135
H	-0.5713639238	 1.901108439	 0.9072642071	 0.116717
H	 2.017533462	-0.4041543008	-0.9068595986	 0.076778
H	 0.2316831101	-1.5830147597	-2.5465044874	 0.093956
H	 1.0459421026	-2.8287683947	-1.5731973226	 0.095255
H	-1.5936325349	-2.8582205971	-1.0268116286	 0.076778
H	-0.9858675264	-2.5279226679	 1.5465546786	 0.078299
H	 1.3706763848	-0.9264406632	 1.6248338471	 0.078299
H	-2.8673111832	 0.3408224056	 0.8310240814	 0.116717
H	-2.9843492004	 0.2059125996	-0.929209813	 0.116135
H	-3.4156906813	-1.1685600785	 0.0951790394	 0.117241
172.1324	194.2551	211.0479	217.0373	250.742	350.6599	413.9075	519.4124	587.5336	604.87	699.0271	738.7966	774.4081	836.3116	841.6888	852.2335	883.7359	889.2087	924.4305	957.2943	965.4706	995.8086	1012.9809	1018.1419	1040.5795	1069.681	1105.2409	1116.161	1158.9992	1181.4242	1210.6599	1211.0245	1232.3796	1268.1724	1302.9043	1307.0416	1408.3901	1414.8795	1429.3777	1446.6742	1481.3329	1489.5164	1492.304	1497.7185	1503.3002	3014.2423	3017.9401	3029.6334	3069.0473	3069.4498	3073.5807	3089.6671	3091.5311	3174.8057	3178.325	3193.1622	3203.3742
CC12C3CC4C(C13)C24C	C[C@@]12[C@@H]3C[C@H]4[C@@H]([C@H]13)[C@@]24C	
InChI=1S/C9H12/c1-8-4-3-5-7(6(4)8)9(5,8)2/h4-7H,3H2,1-2H3	InChI=1S/C9H12/c1-8-4-3-5-7(6(4)8)9(5,8)2/h4-7H,3H2,1-2H3/t4-,5+,6-,7+,8-,9+
