16
gdb 10125	3.06409	1.31983	1.10054	3.3591	61.66	-0.2516	-0.0269	0.2247	1091.9366	0.126954	-420.887053	-420.877884	-420.876939	-420.922005	30.76	
O	 0.3666449576	 1.3203442115	 0.0059939566	-0.41152
C	 0.1549059478	-0.0757014993	 0.1100790102	-0.093028
C	-1.3381530348	-0.4626948066	 0.0393693437	-0.103993
C	-1.5699382141	-1.9714953591	 0.0530480085	-0.316314
C	-2.9154412834	-2.3725419111	-0.5166167052	 0.171624
O	-3.6375137708	-1.6377765894	-1.1401288635	-0.242568
C	-2.1109859701	 0.2179008418	 1.1582963721	 0.170027
O	-2.8321840037	-0.3625615863	 1.9308188358	-0.252845
H	 0.1201245775	 1.5950198746	-0.8833715121	 0.287969
H	 0.7057128578	-0.6292594107	-0.6654323043	 0.100067
H	 0.5774271444	-0.3697938549	 1.077191081	 0.125367
H	-1.7437210622	-0.0539508801	-0.8985643562	 0.112477
H	-0.8075317812	-2.4978815099	-0.5406558711	 0.122505
H	-1.4988921866	-2.3752211124	 1.0692830532	 0.140921
H	-3.1937011503	-3.434720277	-0.3396223115	 0.087218
H	-1.9487554479	 1.3123026387	 1.2285955729	 0.102092
51.0084	75.4915	103.9472	135.3198	167.765	225.1609	288.3514	341.9392	378.3297	448.1471	600.0731	692.5317	749.4943	832.1569	902.6804	930.3453	986.1937	1050.9436	1080.7987	1099.8323	1141.3847	1182.5563	1231.2474	1274.3692	1340.7138	1367.4814	1400.9951	1409.6469	1416.2853	1418.0987	1440.2996	1509.9904	1819.0019	1832.3319	2891.9317	2936.1587	2987.8941	3008.6928	3014.524	3071.5939	3077.403	3813.3882
OCC(CC=O)C=O	OC[C@@H](CC=O)C=O	
InChI=1S/C5H8O3/c6-2-1-5(3-7)4-8/h2-3,5,8H,1,4H2	InChI=1S/C5H8O3/c6-2-1-5(3-7)4-8/h2-3,5,8H,1,4H2/t5-/m0/s1
