18
gdb 76977	2.50094	1.2725	1.0931	1.6659	74.98	-0.2377	-0.0421	0.1956	1181.6482	0.145462	-439.028251	-439.019197	-439.018253	-439.062428	32.468	
C	-0.357870663	 1.4270802268	-0.1570044274	-0.330983
N	-0.0036431871	 0.0207200486	 0.0375410022	-0.104187
C	 1.31373007	-0.5019868102	-0.3563573454	-0.127377
C	 2.4236574701	 0.3449789529	-0.8622344292	 0.152323
O	 2.6217718951	 1.5097759945	-0.5901533995	-0.277916
C	 0.8686455146	-0.3997616873	 1.0997742343	-0.039956
C	 1.5161635779	 0.5335829682	 2.074427832	 0.051772
C	 1.0291391294	 0.5845133629	 3.4619070382	-0.182321
O	 2.2227275879	-0.1228397625	 3.1340855572	-0.231041
H	 0.4743278573	 2.1311725812	-0.072069745	 0.151453
H	-0.7961749683	 1.5291313727	-1.1539210175	 0.129044
H	-1.1281857171	 1.6798093414	 0.5776256149	 0.127603
H	 1.2735319056	-1.4840207994	-0.8237223762	 0.10352
H	 3.1027287672	-0.1934756084	-1.559174049	 0.090379
H	 0.5881490202	-1.3456340419	 1.563944115	 0.111709
H	 2.0211015716	 1.4027817868	 1.6643998692	 0.137214
H	 1.164876699	 1.4952917061	 4.0430275081	 0.12187
H	 0.1844202995	-0.0364219823	 3.758524128	 0.116893
62.2199	136.5826	147.7009	177.0166	184.7392	240.5314	275.4465	329.8948	381.8674	455.7486	542.7163	693.9428	779.1641	823.5532	857.8004	865.2658	927.1028	973.2983	982.5041	1037.4734	1074.6825	1103.7196	1138.445	1150.3566	1160.086	1169.1363	1180.5213	1201.7994	1284.4105	1315.8549	1340.9257	1384.9686	1429.5017	1448.2612	1465.4039	1484.6326	1516.8501	1526.169	1787.0926	2890.6522	3038.7099	3082.4899	3105.5693	3110.8611	3115.9703	3128.4309	3164.4325	3175.7352
CN1C(C=O)C1C1CO1	CN1[C@@H](C=O)[C@H]1[C@H]1CO1	
InChI=1S/C6H9NO2/c1-7-4(2-8)6(7)5-3-9-5/h2,4-6H,3H2,1H3	InChI=1S/C6H9NO2/c1-7-4(2-8)6(7)5-3-9-5/h2,4-6H,3H2,1H3/t4-,5+,6-,7?/m0/s1
