18
gdb 48777	3.42043	1.38518	1.21663	3.8962	75.62	-0.2314	-0.0332	0.1983	1058.3835	0.148367	-401.916379	-401.90884	-401.907896	-401.948471	29.537	
O	 0.045667758	-0.0726186139	-0.2489473942	-0.25153
C	 0.1453775232	 1.0181737445	 0.2517504174	 0.087027
C	 1.3281385048	 1.9173529924	 0.0751568891	 0.23492
C	 2.2678323704	 1.6420476735	-1.0545339344	-0.281874
N	 2.6751875572	 1.2800307888	 0.2940105194	-0.117301
C	 3.5103402986	 2.2762348902	 1.0129721244	-0.189523
C	 2.6650122581	 3.5091425337	 1.340028297	-0.035096
C	 2.1677123423	 4.392743629	 0.2253383251	-0.308232
C	 1.294945034	 3.2738251796	 0.7377765742	-0.118697
H	-0.6677256647	 1.4347856966	 0.8892409431	 0.07083
H	 2.0448906468	 0.7917193703	-1.69341992	 0.138788
H	 2.7385115349	 2.4842367291	-1.5532707952	 0.114438
H	 3.8467982957	 1.8073263116	 1.9425708444	 0.119579
H	 4.4029054449	 2.5062869815	 0.4198112618	 0.113395
H	 2.7761950523	 3.9452282744	 2.3269454545	 0.095292
H	 1.8727669543	 5.4014806731	 0.4962123709	 0.11807
H	 2.6128759685	 4.3239379579	-0.7600224974	 0.118535
H	 0.3873013209	 3.5271734078	 1.2748823599	 0.091379
79.5469	169.3172	209.0478	259.1408	326.9315	411.0374	448.0898	528.6912	673.3348	680.3528	724.3518	741.5436	809.251	819.1091	860.5416	903.0301	938.3382	993.0914	997.6037	1024.4832	1048.5594	1061.9321	1072.1936	1107.536	1121.715	1135.5664	1172.6414	1196.1526	1208.4646	1239.3443	1324.1509	1344.1173	1354.4757	1399.2402	1434.9717	1479.3789	1498.7375	1517.8843	1823.5814	2866.8109	3040.3177	3081.6026	3111.3566	3136.258	3162.4429	3170.4538	3199.3241	3219.6771
O=CC12CN1CC1CC21	O=C[C@]12CN1C[C@H]1C[C@@H]21	
InChI=1S/C7H9NO/c9-4-7-3-8(7)2-5-1-6(5)7/h4-6H,1-3H2	InChI=1S/C7H9NO/c9-4-7-3-8(7)2-5-1-6(5)7/h4-6H,1-3H2/t5-,6-,7+,8?/m1/s1
