16
gdb 29454	3.34169	1.60826	1.09308	1.1042	76.72	-0.1888	0.0353	0.2242	1061.2118	0.126521	-400.790012	-400.782586	-400.781642	-400.82162	28.954	
C	-0.017281022	 1.519786614	-0.0066826947	-0.501695
C	-0.0069155345	 0.0249638866	 0.046110203	 0.082065
C	-0.0318188831	-0.8215339536	-1.0207723736	-0.121757
O	-0.0131515919	-2.165815565	-0.6436016242	-0.226966
C	 0.0243818556	-2.1051673966	 0.696642895	 0.410356
C	 0.0312695479	-0.831213172	 1.2127109163	 0.180205
C	 0.0721328719	-0.9877701243	 2.6365677122	-0.342593
C	 0.0870657336	-2.341106691	 2.8853532186	-0.066793
N	 0.0573248236	-3.0429151238	 1.677421185	-0.405895
H	 0.8760852579	 1.9414947691	 0.4684635174	 0.129474
H	-0.0510253694	 1.8810069505	-1.038359739	 0.122172
H	-0.884738597	 1.9311194201	 0.5224583965	 0.12945
H	-0.0628184994	-0.656049085	-2.084682106	 0.128885
H	 0.0888129408	-0.2190282025	 3.3933764373	 0.094737
H	 0.1164421214	-2.8815481965	 3.8173593506	 0.11948
H	 0.0607556945	-4.0411737101	 1.5711487558	 0.268875
151.0273	170.7169	235.6109	235.672	323.0256	398.4665	512.9034	581.5912	594.5114	603.4919	667.4496	686.2976	690.1244	753.7312	782.1902	807.6116	926.2439	1007.7276	1044.8277	1059.9126	1063.4111	1091.2146	1145.5039	1211.5378	1253.4374	1318.1128	1357.0691	1418.983	1463.2058	1480.0708	1495.091	1511.6822	1564.9891	1591.5505	1626.3897	3026.3525	3075.8756	3109.2167	3248.621	3273.7329	3280.9597	3696.2417
CC1=COC2=C1C=CN2	Cc1coc2c1cc[nH]2	
InChI=1S/C7H7NO/c1-5-4-9-7-6(5)2-3-8-7/h2-4,8H,1H3	InChI=1S/C7H7NO/c1-5-4-9-7-6(5)2-3-8-7/h2-4,8H,1H3
