13
gdb 14606	8.89247	0.65539	0.65221	3.9073	68.05	-0.2696	-0.07	0.1996	1612.2711	0.093528	-398.594376	-398.585643	-398.584698	-398.629899	27.954	
O	 0.1780528328	 0.4333730461	-1.1948231991	-0.312054
C	 0.0954886877	 1.3431319365	-0.3995751177	 0.164044
N	 1.1025669372	 1.7511657266	 0.4237327644	-0.271446
C	 2.4218818159	 1.1389535847	 0.3760139435	-0.301445
C	 3.4918164273	 2.0954552366	 0.1251542968	 0.10681
C	 4.3912299802	 2.8804232793	-0.0577509913	 0.011879
C	 5.4394382568	 3.8406624753	-0.2952213316	 0.024858
O	 6.6202352741	 3.6016388342	-0.1943907735	-0.223577
H	-0.8232839544	 1.9416111901	-0.2512177887	 0.08992
H	 0.954259536	 2.5436608186	 1.0277132053	 0.259015
H	 2.6337934015	 0.5929148654	 1.3050507222	 0.156094
H	 2.3788309589	 0.3957639894	-0.428485874	 0.193273
H	 5.073178146	 4.8460981472	-0.5862262865	 0.102629
31.3442	41.971	87.2174	164.6289	189.608	260.5567	275.4924	387.9269	503.8705	515.9684	606.388	754.836	847.3565	963.5726	1020.0611	1032.642	1037.1397	1153.898	1199.977	1259.3934	1367.8662	1421.8012	1425.0028	1464.3372	1518.8469	1769.6142	1807.1277	2329.9288	2920.7186	2957.0391	3018.7563	3076.6789	3642.6859
O=CNCC#CC=O	O=CNCC#CC=O	
InChI=1S/C5H5NO2/c7-4-2-1-3-6-5-8/h4-5H,3H2,(H,6,8)	InChI=1S/C5H5NO2/c7-4-2-1-3-6-5-8/h4-5H,3H2,(H,6,8)
