14
gdb 133504	4.09552	0.66966	0.66523	3.6186	64.89	-0.2682	0.0094	0.2776	1656.7322	0.096521	-531.009824	-531.00121	-531.000266	-531.046691	30.032	
F	-0.4618168673	 0.1771775513	-0.3356687289	-0.072761
C	-0.0179928462	 1.3907113193	 0.0246504501	 0.258536
F	 1.3123651721	 1.3010843174	 0.1799088433	-0.07377
F	-0.240540364	 2.221409062	-1.0060484759	-0.073765
C	-0.671320354	 1.8556559732	 1.2399766159	-0.182538
C	-1.2094964607	 2.2437327784	 2.243646527	 0.162073
C	-1.8521236416	 2.7002993094	 3.4366911871	-0.174396
C	-1.0872074974	 3.5651379499	 4.4292982622	-0.251058
C	-2.1777127129	 4.1779025084	 3.6071841902	-0.251048
H	-2.5652680855	 2.0002720481	 3.8607754321	 0.125919
H	-1.2688474101	 3.3764299163	 5.4809453923	 0.129003
H	-0.0613124632	 3.8083613399	 4.1808371791	 0.137392
H	-1.896951542	 4.8397701329	 2.7969639635	 0.137412
H	-3.1207330671	 4.4169533134	 4.084818312	 0.129001
5.2596	79.5952	83.1429	190.4461	203.8141	381.1824	431.3081	451.736	527.2074	545.5468	612.079	618.7156	732.7845	792.7374	824.1209	866.1447	891.6843	995.7991	1066.9705	1086.4011	1114.424	1136.869	1172.6019	1176.847	1201.6641	1211.4362	1301.1346	1395.5326	1468.3822	1498.1449	2376.4617	3145.5411	3148.8211	3157.0439	3230.6748	3245.3825
FC(F)(F)C#CC1CC1	FC(F)(F)C#CC1CC1	
InChI=1S/C6H5F3/c7-6(8,9)4-3-5-1-2-5/h5H,1-2H2	InChI=1S/C6H5F3/c7-6(8,9)4-3-5-1-2-5/h5H,1-2H2
