15
gdb 42586	3.64049	1.83078	1.58096	2.0091	66.22	-0.2363	-0.0241	0.2121	834.1181	0.1156	-420.60745	-420.601861	-420.600916	-420.637325	23.769	
O	-0.0621590476	-0.0609390126	 0.0045452532	-0.333154
C	-0.0504444302	 1.1415097064	 0.011476052	 0.44129
C	-1.2023601952	 2.1010388133	 0.0321982899	-0.200023
C	-0.7273175223	 3.3399807262	 0.7821209346	-0.082594
C	-0.7487723306	 3.3476127699	-0.7183729101	-0.082487
C	 0.7868265647	 3.2813984239	-0.9590745486	 0.061173
O	 1.3283878348	 4.2272534505	 0.0066535547	-0.292135
C	 0.8146037355	 3.2717305269	 0.9780265246	 0.061196
C	 1.1253367069	 2.10025623	-0.0010462401	-0.198139
H	-2.2312614421	 1.7669829321	 0.0450765149	 0.111628
H	-1.3828186135	 3.9311633659	 1.4052743161	 0.109241
H	-1.4217055261	 3.9450511695	-1.3164773556	 0.109269
H	 1.1820472238	 3.3869518945	-1.967375219	 0.095423
H	 1.2385957037	 3.3672491024	 1.9755827066	 0.095416
H	 2.1365607083	 1.7090277611	-0.0175805935	 0.103896
154.1069	391.727	461.6907	550.2403	582.8407	655.7308	709.4365	758.5985	786.608	807.7428	847.4705	850.3128	873.6425	904.3177	913.125	944.0597	944.7621	961.3608	999.4798	1031.2325	1069.1928	1074.2768	1134.2714	1165.7136	1197.7986	1218.7949	1229.245	1274.4946	1276.7805	1294.8232	1317.4052	1358.1681	1863.1563	3145.6633	3147.175	3191.7694	3209.5551	3217.6395	3228.0406
O=C1C2C3C2C2OC3C12	O=C1[C@H]2[C@@H]3[C@H]2[C@H]2O[C@@H]3[C@@H]12	
InChI=1S/C7H6O2/c8-5-1-2-3(1)7-4(5)6(2)9-7/h1-4,6-7H	InChI=1S/C7H6O2/c8-5-1-2-3(1)7-4(5)6(2)9-7/h1-4,6-7H/t1-,2+,3-,4+,6-,7+
