14
gdb 34553	4.32642	1.38394	1.2669	5.5302	71.49	-0.2718	-0.0707	0.201	969.1678	0.103276	-395.692204	-395.685886	-395.684942	-395.722974	24.9	
N	 0.0465461872	-1.0612944545	 0.18916656	-0.319169
C	-0.0245554538	 0.0882356668	 0.0896724371	 0.276923
C	-0.0840954485	 1.5144150364	-0.0296259605	 0.250449
N	-1.1731052662	 2.179519692	-0.0743503373	-0.235523
C	-0.7360328227	 3.5822129374	-0.0333233815	-0.045604
C	-0.1629887993	 3.8010173855	 1.4151900364	-0.238185
C	 1.2070551601	 3.4139360983	 0.8622491246	-0.045303
C	 0.7442344473	 3.5851903581	-0.5388754774	-0.051702
N	 1.1505854433	 2.2424865782	-0.1017711879	-0.185373
H	-1.4789742147	 4.2751965172	-0.4170892952	 0.100819
H	-0.163879118	 4.8618929016	 1.6745106812	 0.128975
H	-0.6129808061	 3.2111919345	 2.2173946809	 0.124797
H	 2.1756072864	 3.5789343444	 1.3156359813	 0.122923
H	 1.196091975	 4.035186944	-1.4147557915	 0.115973
126.4593	172.0515	369.9254	396.0067	491.7463	527.1882	579.5734	660.5696	715.1149	778.645	820.6662	840.0449	868.589	905.7568	920.5759	945.5839	975.6483	1004.1679	1039.7454	1091.1165	1131.4645	1157.2788	1189.3086	1214.6647	1252.5041	1274.4462	1293.2957	1333.7336	1483.1521	1651.23	2360.759	3068.5026	3130.4854	3164.9583	3187.8591	3210.2133
N#CC1=NC2CC3C2N13	N#C[C]1[N][C@H]2C[C@@H]3[C@H]2N13	
InChI=1S/C6H5N3/c7-2-5-8-3-1-4-6(3)9(4)5/h3-4,6H,1H2	InChI=1S/C6H5N3/c7-2-5-8-3-1-4-6(3)9(4)5/h3-4,6H,1H2/t3-,4+,6-,9?/m0/s1
