18
gdb 38156	2.31194	1.99147	1.35508	1.5403	85.24	-0.2079	-0.0432	0.1647	989.6703	0.150687	-364.786213	-364.778969	-364.778025	-364.81746	29.423	
N	 0.0605895584	 1.3219651201	-0.2883810826	-0.352861
C	 1.3690463577	 0.6957839674	-0.0516473359	-0.066318
C	 2.1991834883	 0.9255804924	 1.1601206284	-0.027881
C	 1.8702345392	 1.4130188174	 2.3622790654	-0.115473
C	 0.5527115651	 1.8214440338	 2.876629898	-0.121927
C	-0.5703219817	 1.0897383879	 2.8828936096	-0.121929
C	-0.7329689383	-0.2830863917	 2.376797867	-0.115473
C	-0.4293775625	-0.7870504317	 1.1747826151	-0.027881
C	 0.1066772589	-0.1267078357	-0.0446064634	-0.066318
H	-0.2470183896	 1.8012869501	 0.5531394727	 0.244623
H	 1.9652488126	 0.6256451743	-0.959474031	 0.094283
H	 3.2503082334	 0.6936682533	 1.0005076701	 0.092058
H	 2.687780759	 1.5674497705	 3.0661665516	 0.099403
H	 0.52686257	 2.7920434347	 3.3717388727	 0.099974
H	-1.4438513251	 1.5080364717	 3.3827304566	 0.099974
H	-1.198975256	-0.9649509557	 3.0878444593	 0.099403
H	-0.6430934175	-1.8430688126	 1.0222255176	 0.092058
H	-0.077115292	-0.7050490563	-0.9480818212	 0.094283
166.9627	207.0579	253.3826	264.4032	355.509	360.8171	496.0768	590.403	651.7267	667.1541	723.4109	759.6557	795.0626	810.0458	825.9566	871.8433	891.64	941.2403	954.3185	987.0105	996.9564	1005.399	1048.4496	1070.7842	1138.336	1197.6903	1205.6102	1239.6221	1246.8889	1282.1919	1330.7886	1385.651	1420.8935	1430.7179	1435.185	1458.1223	1693.4322	1708.0412	1721.3087	3110.9656	3113.4978	3116.6138	3122.6188	3123.8609	3138.3064	3151.6369	3153.8819	3523.0142
N1C2C=CC=CC=CC12	N1[C@H]2C=CC=CC=C[C@@H]12	
InChI=1S/C8H9N/c1-2-4-6-8-7(9-8)5-3-1/h1-9H/b2-1-,5-3-,6-4-	InChI=1S/C8H9N/c1-2-4-6-8-7(9-8)5-3-1/h1-9H/b2-1-,5-3-,6-4-/t7-,8+
