17
gdb 30256	2.78721	1.53019	1.04999	3.0381	76.43	-0.1914	0.038	0.2293	1127.1448	0.137796	-418.01295	-418.005059	-418.004114	-418.045529	29.886	
C	-0.2983412716	 1.5322800435	 0.0810281226	-0.394808
C	-0.0379972555	 0.0327664308	-0.0078019123	-0.166231
C	 0.7453585885	-0.4743195865	-1.287500568	-0.186132
N	 1.7915597294	-0.9607848036	-0.3621848815	-0.00466
C	 2.9431188802	-1.5734554695	-0.0143966323	-0.040199
N	 3.0626729176	-1.551683643	 1.3114258706	-0.351963
C	 1.9577215006	-0.917454808	 1.8114705188	 0.181238
O	 1.7834698036	-0.7385102873	 3.1412185896	-0.437301
C	 1.1441750575	-0.5364376163	 0.7714820438	 0.240583
H	 0.6192324405	 2.1020752452	-0.0961811182	 0.12345
H	-1.0492117542	 1.8452074932	-0.6526273637	 0.115571
H	-0.6695458188	 1.7971424352	 1.0756893868	 0.134069
H	-0.9709087388	-0.5211058899	 0.1407695992	 0.096579
H	 0.2634987051	-1.2706911388	-1.8596088447	 0.130246
H	 1.0930787796	 0.3143067081	-1.9600215877	 0.128596
H	 3.6501662513	-2.0054741073	-0.7039091599	 0.132359
H	 2.556233205	-1.1321425958	 3.5643066469	 0.298602
86.5571	120.1452	210.1849	257.5871	329.7809	366.818	370.7531	439.4092	541.2208	646.8415	661.6443	690.8874	714.7072	760.801	785.3573	855.5855	913.7941	1028.9162	1078.981	1086.3762	1091.6122	1130.0015	1173.8657	1207.2251	1233.7945	1263.8604	1302.5254	1348.6447	1359.0897	1381.109	1410.1998	1445.063	1469.4293	1493.5894	1497.1513	1511.0958	1674.8466	3033.1134	3047.8885	3060.906	3103.5881	3111.6456	3119.693	3267.0586	3802.069
CC1CN2C=NC(O)=C12	C[C@H]1Cn2cnc(O)c12	
InChI=1S/C6H8N2O/c1-4-2-8-3-7-6(9)5(4)8/h3-4,9H,2H2,1H3	InChI=1S/C6H8N2O/c1-4-2-8-3-7-6(9)5(4)8/h3-4,9H,2H2,1H3/t4-/m0/s1
