18
gdb 13697	4.30751	0.92963	0.81862	1.938	78.66	-0.2378	0.0328	0.2706	1413.27	0.152374	-347.760782	-347.751514	-347.75057	-347.795947	32.588	
C	-0.3058946553	 1.4760255288	 0.2035739679	-0.406972
C	 0.0032933407	 0.0012967454	 0.0998034512	 0.01729
C	 1.3692830987	-0.479604274	-0.2870144827	-0.284839
C	 0.8772728004	-0.70030202	 1.1401307871	-0.191301
C	 1.4634349709	 0.0278954562	 2.2255183318	 0.071521
C	 1.9619301377	 0.6389889339	 3.139382401	 0.04521
C	 2.5116420269	 1.3719362176	 4.2772415624	-0.190666
O	 1.5983606756	 2.2951231645	 4.8595619866	-0.404357
H	 0.5414518773	 2.0287023892	 0.6178042451	 0.133141
H	-0.5376054012	 1.8935445312	-0.7822187995	 0.11678
H	-1.1675174408	 1.6547901058	 0.8555965344	 0.119661
H	-0.8237638019	-0.6098456393	-0.2520663402	 0.090443
H	 1.4649674595	-1.3539867749	-0.9211041427	 0.116213
H	 2.1465729361	 0.2646122354	-0.4202441225	 0.124622
H	 0.5853897441	-1.7185641644	 1.3816387728	 0.106823
H	 2.8815800863	 0.6524742272	 5.0259372557	 0.115364
H	 3.3754563159	 1.9697093203	 3.9646146256	 0.13616
H	 0.771409409	 1.823258737	 5.0028315559	 0.284905
28.9332	75.1515	114.6597	169.7301	207.0539	245.8136	315.0125	356.6773	365.9582	466.4559	524.3175	610.4258	719.1196	762.6849	851.6168	877.5531	930.4067	977.1491	990.7702	1037.7412	1068.0507	1069.4649	1103.9574	1143.5673	1178.6298	1199.92	1215.4059	1243.1199	1353.7483	1379.1439	1403.293	1419.9286	1424.5119	1483.1922	1491.9075	1493.456	1501.5252	2347.9601	2970.7195	3034.6861	3056.6788	3094.5396	3115.658	3136.1034	3137.1861	3147.0454	3226.3604	3817.357
CC1CC1C#CCO	C[C@H]1C[C@H]1C#CCO	
InChI=1S/C7H10O/c1-6-5-7(6)3-2-4-8/h6-8H,4-5H2,1H3	InChI=1S/C7H10O/c1-6-5-7(6)3-2-4-8/h6-8H,4-5H2,1H3/t6-,7+/m0/s1
