17
gdb 56524	2.67064	1.2376	1.0588	0.2736	76.39	-0.2548	0.0194	0.2743	1181.7273	0.130019	-421.743622	-421.732977	-421.732033	-421.778598	39.019	
C	-0.0626291908	 1.5732427861	 0.1273102025	-0.418973
C	-0.0348422077	 0.0459439473	 0.026791688	 0.147995
O	 0.6900836816	-0.4226077341	 1.1615212511	-0.443902
C	-1.3937893824	-0.5097427593	 0.0203011515	 0.314947
C	-2.4847410829	-1.0136013523	 0.0448728107	-0.46727
C	 0.7011992086	-0.4333047442	-1.2787676584	-0.067506
O	 0.0152973981	-0.0222673099	-2.4515511694	-0.41734
C	 2.1026026777	-0.0146818424	-1.2904688159	 0.312075
C	 3.2400604762	 0.3684592597	-1.3570464402	-0.455552
H	 0.9609506239	 1.9541057625	 0.1608240486	 0.138107
H	-0.5876778734	 2.0022880748	-0.7290646014	 0.124044
H	-0.5823131762	 1.8701811213	 1.0399484711	 0.13734
H	 0.5078645176	-1.3632954787	 1.2638736688	 0.286687
H	-3.4555843002	-1.4444428623	 0.0599509614	 0.200361
H	 0.6527938529	-1.5293704781	-1.2767260552	 0.11471
H	 0.3429625517	 0.8508405294	-2.6916604435	 0.291842
H	 4.2514299851	 0.6901256104	-1.40272851	 0.202434
67.1845	117.1941	166.0774	176.4656	206.2927	225.9037	252.9083	270.7894	279.0758	338.4036	381.3088	425.0092	487.8152	553.6247	578.0352	624.7528	639.6718	642.9039	664.2108	669.6665	760.533	898.5887	950.4184	977.4281	1079.8139	1082.2652	1158.9031	1194.4774	1261.5143	1290.1366	1379.5642	1410.1921	1411.8242	1488.6859	1491.1474	2230.5829	2234.4136	3033.6066	3057.7904	3139.7996	3143.7128	3500.3633	3501.9013	3807.7786	3818.8247
CC(O)(C#C)C(O)C#C	C[C@@](O)(C#C)[C@@H](O)C#C	
InChI=1S/C7H8O2/c1-4-6(8)7(3,9)5-2/h1-2,6,8-9H,3H3	InChI=1S/C7H8O2/c1-4-6(8)7(3,9)5-2/h1-2,6,8-9H,3H3/t6-,7+/m0/s1
