21
gdb 96018	3.03859	1.15029	0.96469	1.6841	78.4	-0.2404	0.0681	0.3085	1289.855	0.183138	-424.209588	-424.200601	-424.199657	-424.243769	33.593	
O	-0.0816675182	 1.4692261017	 0.3219772454	-0.435645
C	-0.0826944066	 0.0803142061	 0.0128625558	 0.078883
C	 0.6682866262	-0.7504584653	 1.0617404536	-0.085295
O	-0.2611622797	-1.0703529244	 2.0926233283	-0.266233
C	-1.561597653	-0.6177581883	 1.7195969645	-0.073579
C	-1.5235081434	-0.4303439473	 0.1947981352	-0.027696
C	-2.6059165963	 0.4516529516	-0.3752954489	 0.022172
C	-3.0626740273	 0.2766683821	-1.8020996179	-0.275674
C	-3.9724978877	-0.1196517542	-0.66601644	-0.278814
H	 0.8315326887	 1.7683551689	 0.3626443439	 0.28481
H	 0.3006510447	-0.0939920406	-1.001941654	 0.06567
H	 1.0642483522	-1.6772033431	 0.6201616429	 0.092206
H	 1.5145706462	-0.1915263934	 1.4851394583	 0.086578
H	-2.2933460952	-1.3648575164	 2.0418412782	 0.101619
H	-1.7932647772	 0.3350279734	 2.2171038336	 0.098656
H	-1.5789868654	-1.4210823409	-0.2752961169	 0.071926
H	-2.5780185463	 1.4715697933	-0.0080204093	 0.101986
H	-3.3071467714	 1.1640975018	-2.3749500666	 0.112252
H	-2.6114016812	-0.5177566418	-2.3880536151	 0.106299
H	-4.1289590588	-1.1795516193	-0.491717224	 0.108326
H	-4.8421465602	 0.4946862661	-0.4609968371	 0.11155
77.2373	89.6728	124.2438	156.0035	236.9583	262.1673	305.5626	400.567	420.9765	490.0306	662.029	753.8222	785.4979	831.1775	862.1543	866.2524	906.569	923.5393	941.7354	989.7135	1002.0445	1020.0728	1056.6604	1073.145	1081.3788	1117.6957	1135.7435	1142.1557	1183.6309	1198.5955	1200.8959	1222.0343	1232.0399	1254.1681	1293.447	1312.5544	1342.5838	1365.882	1390.0903	1418.1969	1440.3457	1470.1946	1506.6483	1510.5937	1523.4736	2984.7714	2999.9962	3010.5632	3021.1576	3028.0352	3076.2889	3127.5577	3132.6103	3172.6275	3205.677	3221.4952	3827.334
OC1COCC1C1CC1	O[C@H]1COC[C@H]1C1CC1	
InChI=1S/C7H12O2/c8-7-4-9-3-6(7)5-1-2-5/h5-8H,1-4H2	InChI=1S/C7H12O2/c8-7-4-9-3-6(7)5-1-2-5/h5-8H,1-4H2/t6-,7-/m0/s1
