17
gdb 55207	2.74058	1.5962	1.02125	3.7281	78.12	-0.2432	-0.0416	0.2016	1123.6348	0.136854	-418.067901	-418.059698	-418.058754	-418.100876	30.635	
C	 0.0668016703	 1.4970905588	 0.0077156807	-0.461911
C	 0.0215495187	-0.0096149216	 0.0031705587	 0.393486
O	 1.0202216166	-0.7032753263	-0.0076781189	-0.354321
N	-1.2249973916	-0.636891336	 0.0116859217	-0.142913
C	-1.2608689981	-2.0995207049	 0.007086027	-0.205374
C	-2.7287311374	-2.395968344	 0.0183271624	-0.101337
C	-3.4330938802	-1.2637813739	 0.027992025	-0.145756
C	-2.5264678377	-0.0976203327	 0.0243384748	 0.371944
N	-2.7915232112	 1.1511210796	 0.0307535281	-0.551355
H	 1.1159508483	 1.7928997878	-0.0002983736	 0.130329
H	-0.4601250427	 1.9072506711	-0.8566814899	 0.156046
H	-0.4452070123	 1.9015274946	 0.8836982146	 0.156038
H	-0.7489901021	-2.500940739	-0.8761098455	 0.145699
H	-0.7343893915	-2.5068259751	 0.8789352276	 0.145691
H	-3.1170774545	-3.4059919768	 0.0181972881	 0.125711
H	-4.5092103348	-1.1522548729	 0.0373455845	 0.117196
H	-3.8010749397	 1.2873287415	 0.0396164647	 0.220827
84.9388	110.4348	179.3934	225.7868	247.0508	364.2245	382.5744	395.1618	584.2336	602.6896	628.0634	658.466	711.5746	786.7821	816.3335	848.3088	961.0142	965.583	996.6818	1015.1691	1022.9609	1063.5455	1103.8762	1116.4778	1193.5759	1220.5683	1298.4032	1328.5768	1372.1316	1404.8261	1421.3286	1443.9163	1469.9963	1492.3529	1660.0417	1718.7261	1770.8147	3034.7738	3057.549	3065.1417	3134.2713	3165.6837	3215.1273	3237.7191	3495.0756
CC(=O)N1CC=CC1=N	CC(=O)N1C[CH]C=C1[NH]	
InChI=1S/C6H8N2O/c1-5(9)8-4-2-3-6(8)7/h2-3,7H,4H2,1H3	InChI=1S/C6H8N2O/c1-5(9)8-4-2-3-6(8)7/h2-3,7H,4H2,1H3
