15
gdb 61126	3.66789	0.87806	0.76672	3.911	72.17	-0.2701	-0.0101	0.26	1418.063	0.112163	-413.018234	-413.008892	-413.007948	-413.053661	32.437	
N	-0.2341985992	 0.2492037126	-1.1119136848	-0.548885
C	-0.3677473137	-0.3976832137	 0.0846199458	 0.389013
C	 0.8865059738	-1.1092132944	 0.5956117674	-0.394417
C	 1.6983635917	-1.7125451389	-0.4570700817	 0.255034
N	 2.3290024832	-2.1522792449	-1.3199186884	-0.304274
N	-1.370273964	-0.4138660703	 0.8799841931	-0.293128
C	-2.5596919122	 0.3587333204	 0.5524714249	-0.290225
C	-3.1710803314	 0.0462574773	-0.7518300889	 0.247376
N	-3.5962020509	-0.1978180042	-1.7994396487	-0.313568
H	 0.5340429157	-0.0232084672	-1.7075067969	 0.280709
H	-1.0700983016	 0.5139405484	-1.6121218726	 0.282614
H	 1.5055303668	-0.3842552849	 1.1378944024	 0.180578
H	 0.5677286168	-1.8646042926	 1.3157672391	 0.189108
H	-3.3116640229	 0.1763848656	 1.3261763711	 0.165313
H	-2.3516612722	 1.4400008368	 0.5637519883	 0.154751
37.1669	61.9734	99.5277	163.2212	228.5831	280.134	362.7797	374.6374	386.0177	443.8829	457.036	541.7752	560.2735	666.1677	704.1637	859.8478	905.5218	943.4159	951.3226	1000.533	1018.6486	1160.7804	1217.5004	1268.3417	1307.3013	1347.0661	1372.0171	1447.1471	1467.0407	1667.2893	1735.2657	2344.3596	2362.1305	2995.2359	3051.9744	3078.8276	3128.8053	3566.7103	3669.5977
NC(CC#N)=NCC#N	NC(=NCC#N)CC#N	
InChI=1S/C5H6N4/c6-2-1-5(8)9-4-3-7/h1,4H2,(H2,8,9)	InChI=1S/C5H6N4/c6-2-1-5(8)9-4-3-7/h1,4H2,(H2,8,9)
