22
gdb 110145	1.97013	1.16822	0.85268	1.0491	79.54	-0.2263	0.052	0.2782	1437.9883	0.191911	-441.434817	-441.423934	-441.42299	-441.471359	38.812	
C	 1.9242182395	 2.5773265879	-3.1394719856	-0.380576
C	 2.0558690674	 1.8414939104	-1.807195024	-0.123883
N	 1.7221436755	 0.4278476757	-1.979716494	-0.099497
C	 1.6315335019	-0.4532001286	-0.8202770402	-0.056142
C	 1.8752943473	 0.0207649358	 0.5973157936	-0.081686
O	 3.254437233	 0.2690168888	 0.8457692076	-0.416627
C	 0.4056493326	-0.1153111596	-1.6123037711	-0.057594
C	-0.7423734749	 0.7093091669	-1.0677985888	-0.087757
O	-1.5636216516	 1.2238922197	-2.106119348	-0.41906
H	 2.556194803	 2.1106983987	-3.8996289325	 0.132202
H	 0.8934744434	 2.5537713331	-3.5132189166	 0.102203
H	 2.214502774	 3.6270700401	-3.0331516266	 0.115608
H	 3.0912901518	 1.8811318262	-1.4545287562	 0.123826
H	 1.4552354859	 2.3571368042	-1.0426399274	 0.08538
H	 2.0747370379	-1.4366463837	-1.0011930393	 0.080348
H	 1.3692079789	 0.9636981285	 0.8115176276	 0.110253
H	 1.4740607724	-0.7291681871	 1.2976614653	 0.094446
H	 3.741303252	-0.5338914306	 0.6311926448	 0.283262
H	 0.0488270973	-0.8652334688	-2.3185665301	 0.097591
H	-1.3955531722	 0.0583001887	-0.476120437	 0.117603
H	-0.3990966164	 1.5098198883	-0.3995687826	 0.092586
H	-1.0180096588	 1.7924844154	-2.6588322088	 0.287513
58.6439	84.1889	85.855	114.1843	184.678	201.2188	223.719	279.0376	295.5176	314.9075	335.8558	381.2944	512.953	550.4141	583.2593	720.865	785.5159	812.3403	845.4988	947.9004	1001.2039	1015.5387	1052.4536	1066.9411	1068.8474	1098.7031	1112.9823	1145.485	1154.0118	1176.2545	1222.3354	1228.4858	1301.2022	1333.8833	1343.4819	1358.0415	1384.2749	1394.0557	1406.9728	1416.9951	1419.4035	1459.4362	1482.5405	1487.6378	1496.9384	1504.8417	1519.7913	2978.3833	2981.831	3017.0324	3029.2981	3054.5758	3067.2234	3072.471	3097.4545	3105.1244	3115.2692	3123.864	3807.3879	3818.5338
CCN1C(CO)C1CO	CCN1[C@@H](CO)[C@H]1CO	
InChI=1S/C6H13NO2/c1-2-7-5(3-8)6(7)4-9/h5-6,8-9H,2-4H2,1H3	InChI=1S/C6H13NO2/c1-2-7-5(3-8)6(7)4-9/h5-6,8-9H,2-4H2,1H3/t5-,6+,7?
