17
gdb 25831	3.69637	1.21581	0.92011	2.903	84.2	-0.2461	-0.0531	0.1931	1232.2667	0.137633	-384.78501	-384.777229	-384.776284	-384.817607	29.622	
C	 0.0202230409	 1.513999628	 0.007963765	-0.497563
C	 0.0329123326	-0.0055138173	 0.0028185738	 0.324848
O	 1.0831708821	-0.6154880555	-0.0074823545	-0.303819
C	-1.2766047222	-0.7349706353	 0.0106723437	 0.190996
C	-2.5122277726	-0.0776332548	 0.0222474483	-0.206627
C	-3.6981141046	-0.8063349705	 0.0290946307	-0.094419
C	-3.660301322	-2.1985281257	 0.0244627906	-0.109746
C	-2.4332844922	-2.8628764865	 0.0129383403	-0.099092
C	-1.25105902	-2.1358215915	 0.0060889416	-0.163132
H	 1.049848068	 1.8718298868	 0.0015648519	 0.141492
H	-0.5072692749	 1.9044640097	-0.8688492257	 0.140796
H	-0.4943937041	 1.8987284003	 0.8948914628	 0.140776
H	-2.5552787045	 1.0056017357	 0.0259542725	 0.099348
H	-4.6509366929	-0.2876921142	 0.038039715	 0.101368
H	-4.5853136292	-2.7658976163	 0.0298190901	 0.104078
H	-2.4028784415	-3.9474196689	 0.0093247799	 0.103807
H	-0.2850971232	-2.627050404	-0.0029100358	 0.12689
68.4395	155.5585	181.1957	218.8829	364.5007	414.2513	434.2874	463.9535	592.7337	608.2932	627.6318	713.7019	738.7928	787.9871	874.1535	946.4008	955.554	977.028	1005.9433	1014.5052	1046.2362	1050.756	1091.4311	1106.4652	1183.6112	1200.5741	1278.5368	1334.622	1351.1982	1383.8485	1469.8324	1477.4894	1479.8543	1521.1082	1619.6675	1638.8934	1775.5928	3040.5755	3102.99	3155.6981	3172.3007	3182.5637	3192.7503	3201.9846	3211.4299
CC(=O)C1=CC=CC=C1	CC(=O)c1ccccc1	
InChI=1S/C8H8O/c1-7(9)8-5-3-2-4-6-8/h2-6H,1H3	InChI=1S/C8H8O/c1-7(9)8-5-3-2-4-6-8/h2-6H,1H3
