19
gdb 52193	3.33442	0.72111	0.6296	2.6026	83.63	-0.2453	-0.0209	0.2244	1732.9975	0.15632	-385.854702	-385.844878	-385.843934	-385.890844	35.058	
O	-0.4381692253	 0.6033975894	 0.8476879531	-0.235983
C	 0.0691683256	 1.0069324447	-0.1665624183	 0.157771
C	 1.3753877309	 1.7625058044	-0.246150591	-0.267948
C	 1.209446079	 3.1156310875	-0.9641921018	-0.229568
C	 2.5270127018	 3.8369202994	-1.1420251349	 0.003988
C	 3.4350524963	 3.515618286	-2.2937311627	-0.289668
C	 2.7208539902	 4.8610561603	-2.2561571531	-0.207135
C	 1.6709715565	 5.1483029096	-3.1891929752	 0.33415
C	 0.7905542529	 5.4013359612	-3.9696284468	-0.470405
H	-0.4222628579	 0.8438012214	-1.1556258614	 0.070445
H	 1.7707097832	 1.8851879695	 0.7665587203	 0.120278
H	 2.0834624558	 1.1434763962	-0.8160372572	 0.121057
H	 0.744017148	 2.9618285666	-1.9444244484	 0.117194
H	 0.5190207967	 3.7486842106	-0.3933943913	 0.118497
H	 3.0222700174	 4.1001386999	-0.2106961033	 0.096376
H	 4.5080373348	 3.5137000226	-2.1391622034	 0.121522
H	 3.0825935945	 2.8038870587	-3.0325360486	 0.12593
H	 3.339106593	 5.7164545621	-1.9997368521	 0.116007
H	 0.0169825866	 5.6266331197	-4.6610215438	 0.197491
50.8368	61.5559	81.1791	113.2617	173.9731	212.6851	298.5976	343.496	403.622	508.5333	525.9258	581.5302	616.0448	652.0319	757.2303	777.3734	811.5133	848.4863	871.991	953.9381	959.4321	1012.0707	1054.8447	1070.7521	1092.2272	1125.1034	1137.4036	1168.2742	1219.2731	1235.8881	1266.7622	1313.1367	1356.4154	1380.0874	1419.1022	1430.8298	1463.5286	1484.3774	1495.0698	1836.8692	2234.2907	2846.9139	3013.9438	3033.4217	3070.3237	3098.5564	3136.1036	3137.7644	3149.5535	3225.921	3504.5722
O=CCCC1CC1C#C	O=CCC[C@H]1C[C@H]1C#C	
InChI=1S/C8H10O/c1-2-7-6-8(7)4-3-5-9/h1,5,7-8H,3-4,6H2	InChI=1S/C8H10O/c1-2-7-6-8(7)4-3-5-9/h1,5,7-8H,3-4,6H2/t7-,8+/m1/s1
