20
gdb 93634	1.93224	1.62471	1.32461	4.0352	77.3	-0.2319	0.0184	0.2503	1102.7581	0.173534	-399.33568	-399.326612	-399.325668	-399.369459	34.331	
C	 0.457354416	 1.6483299712	 0.0481345419	-0.417615
C	 0.2396231767	 0.135036943	-0.0427724748	 0.018229
C	 1.0942916929	-0.5231464547	-1.1685396424	-0.193134
N	 1.8152383058	-1.682529009	-0.602006406	-0.279744
C	 1.960487519	-1.3902652421	 0.8232228939	-0.201018
C	 3.1302640127	-0.5300595392	 1.0685780609	 0.315914
N	 4.0107411511	 0.1836278861	 1.2974433743	-0.336126
C	 0.633821273	-0.65430297	 1.24844944	 0.012516
N	 0.6303551647	 0.1377634152	 2.4628372051	-0.515009
H	 1.5131421555	 1.8946865702	 0.2069555846	 0.131992
H	 0.1473282422	 2.1304708484	-0.8846639659	 0.114658
H	-0.1239416288	 2.0803633842	 0.8661993694	 0.133738
H	-0.8231875723	-0.0425914727	-0.2334792457	 0.079154
H	 0.501295981	-0.8453617572	-2.027510473	 0.107727
H	 1.8338853554	 0.1965709033	-1.5386312424	 0.123692
H	 1.2491859601	-2.5194770524	-0.6919447876	 0.227877
H	 2.1080262708	-2.3149230661	 1.3897545757	 0.115291
H	-0.0963181988	-1.4589584568	 1.3909698773	 0.084011
H	 0.7635394326	-0.4539373915	 3.2765026551	 0.231955
H	 1.3924599503	 0.8097635702	 2.4617741397	 0.245893
62.4703	112.7752	143.4791	255.0995	266.9857	283.9452	305.6337	357.541	376.5501	486.1781	521.3453	577.6812	665.4872	701.65	764.5469	771.9437	852.789	876.1273	911.5891	921.996	979.0633	1027.4736	1068.812	1077.9245	1112.9251	1121.8876	1166.0353	1213.5611	1241.6201	1243.7535	1307.0423	1316.4933	1351.2601	1359.8009	1381.6891	1407.2712	1422.9876	1467.8987	1499.4357	1502.9147	1511.6807	1665.8628	2349.1056	3031.7298	3034.3105	3039.3548	3053.3462	3070.8156	3098.5596	3103.8339	3124.3651	3498.3067	3528.8047	3577.0744
CC1CNC(C#N)C1N	C[C@H]1CN[C@@H](C#N)[C@H]1N	
InChI=1S/C6H11N3/c1-4-3-9-5(2-7)6(4)8/h4-6,9H,3,8H2,1H3	InChI=1S/C6H11N3/c1-4-3-9-5(2-7)6(4)8/h4-6,9H,3,8H2,1H3/t4-,5-,6-/m0/s1
