18
gdb 19052	3.60046	2.1992	2.028	1.5362	70.01	-0.2344	0.0899	0.3243	774.5876	0.155851	-347.779499	-347.773066	-347.772122	-347.809689	26.372	
C	-0.2616753614	 1.5593330324	 0.0039827819	-0.396001
C	 0.0374459827	 0.062666528	-0.0170139023	 0.115504
O	 0.7091440451	-0.3248119964	-1.2318630191	-0.282482
C	 1.9987383841	-0.8069656273	-0.88765132	 0.091511
C	 2.8958746575	 0.3218854608	-0.2869174028	-0.249354
C	 2.4246306595	-0.1295328063	 1.0981323542	-0.080545
C	 1.9010063333	-1.4429594212	 0.5248656096	-0.097103
C	 0.9361077488	-0.4574047961	 1.0999509751	-0.062699
H	 0.6546055454	 2.1533625664	 0.0447745969	 0.120969
H	-0.8219233222	 1.8462788581	-0.8905282745	 0.123391
H	-0.8695643428	 1.8078307596	 0.8810687856	 0.109127
H	-0.9175735893	-0.4826509055	 0.0119312185	 0.074629
H	 2.3902163585	-1.3824926555	-1.7254483643	 0.079768
H	 3.9589473976	 0.1013730094	-0.4253364172	 0.098533
H	 2.6895614946	 1.3410201037	-0.6270671309	 0.095762
H	 2.9508482779	 0.0269204473	 2.0327699948	 0.083719
H	 2.0397751686	-2.471604758	 0.8277097375	 0.087542
H	 0.4930821319	-0.6558661693	 2.0693982969	 0.087731
160.9876	216.089	256.1851	395.533	447.1518	516.4763	657.7395	675.5823	755.4298	780.1127	820.8313	839.4932	854.9753	895.4595	939.2625	964.2975	987.7348	1001.2493	1018.1253	1050.2556	1062.2656	1101.5868	1113.3147	1119.7584	1146.4489	1161.4257	1202.4491	1228.1244	1283.6095	1300.068	1338.3425	1356.8761	1384.9641	1399.6348	1407.9805	1484.7139	1493.9003	1499.2529	2988.4338	3038.6258	3044.31	3094.9535	3107.1602	3126.0592	3127.7778	3173.3809	3182.7372	3209.6464
CC1OC2CC3C2C13	C[C@H]1O[C@H]2C[C@@H]3[C@H]2[C@H]13	
InChI=1S/C7H10O/c1-3-6-4-2-5(8-3)7(4)6/h3-7H,2H2,1H3	InChI=1S/C7H10O/c1-3-6-4-2-5(8-3)7(4)6/h3-7H,2H2,1H3/t3-,4+,5+,6-,7-/m1/s1
