13
gdb 129169	5.40758	1.33995	1.07492	2.5434	68.53	-0.1943	-0.0015	0.1928	1011.6376	0.092599	-445.09501	-445.088014	-445.08707	-445.126287	26.666	
N	-0.103057663	 1.2973544513	-0.0486040772	-0.587731
C	 0.0138567437	 0.0323251181	 0.0132356941	 0.419677
N	-1.1153226475	-0.8235440154	 0.0664301816	-0.446067
C	-0.6703497683	-2.1205657688	-0.0308825422	 0.445751
C	 0.6992048179	-2.1363019925	-0.0360552914	 0.362725
N	 1.1374734744	-0.8133854409	 0.0538085134	-0.459275
N	 1.161030049	-3.3955656358	-0.0339404319	-0.293569
N	 0.1191109928	-4.2000320736	-0.042374426	-0.147771
N	-1.0184437165	-3.4159308044	-0.0154137881	-0.342969
H	 0.7992490571	 1.7641168772	-0.0680114819	 0.216353
H	-2.030573093	-0.4530693792	-0.1221570276	 0.278118
H	 2.0556146191	-0.4795555827	-0.1817033212	 0.27107
H	-1.9183105955	-3.8650070132	-0.0315492315	 0.283689
120.1415	186.3455	276.5625	334.6426	357.9367	406.0851	482.8336	554.266	593.6292	670.4631	704.7073	722.0329	751.1572	788.3521	889.342	932.7321	949.0974	1026.8829	1057.2844	1190.9248	1212.3382	1297.8359	1305.1811	1363.2789	1375.731	1519.4154	1585.6755	1649.2665	1759.3325	3536.7189	3680.0264	3682.3377	3683.7223
N=C1NC2=C(N1)N=NN2	[NH][C@@H]1N[C@H]2C(=N[N]N2)N1	
InChI=1S/C3H4N6/c4-3-5-1-2(6-3)8-9-7-1/h(H4,4,5,6,7,8,9)	InChI=1S/C3H6N6/c4-3-5-1-2(6-3)8-9-7-1/h1,3-5H,(H2,6,7,8)/t1-,3-/m1/s1
