19
gdb 111565	3.25764	1.50619	1.27823	0.8804	74.19	-0.2318	0.0731	0.3049	1041.3574	0.160785	-422.96551	-422.958217	-422.957273	-422.997372	28.963	
C	 0.0531585648	 1.3259059564	-0.0386563375	-0.241351
O	-0.0872763518	-0.0733888011	 0.0726994453	-0.254511
C	 0.6566541732	-0.6338909692	 1.1251108966	 0.179791
C	 0.3510686465	-2.1313151748	 1.3095757554	-0.148716
C	 0.6913970116	-2.7036626742	-0.0931097963	-0.244203
C	 2.1390758631	-2.3369511171	 0.2780435667	-0.07205
C	 1.8241438939	-2.5590117264	 1.7709342983	 0.114302
O	 2.5521615326	-1.3941591093	 2.1898402382	-0.295029
C	 2.1737465887	-0.8775046904	 0.8776409421	 0.013334
H	 1.0842396397	 1.6260901769	-0.2766225095	 0.107813
H	-0.6015350086	 1.6513762089	-0.8505720402	 0.128382
H	-0.247880598	 1.8376232531	 0.8882511212	 0.10959
H	 0.5316459552	-0.0524422339	 2.0482035638	 0.073276
H	-0.5502551616	-2.4088486579	 1.8519154734	 0.070975
H	 0.5719930105	-3.790154738	-0.1324591202	 0.097204
H	 0.2160772579	-2.2377008049	-0.955361214	 0.119442
H	 3.0321674522	-2.7095478623	-0.2198864097	 0.076223
H	 1.9834806849	-3.4613522613	 2.3590275307	 0.087053
H	 2.8141063953	-0.0773147246	 0.5101036158	 0.078476
91.8983	167.9637	187.0212	274.1274	378.3493	463.7988	514.3169	524.0794	697.7922	744.9537	784.3612	840.8883	844.4944	870.9481	898.5981	939.0187	959.4966	989.1342	1001.1739	1005.2592	1041.5198	1069.7454	1079.9222	1117.079	1154.8429	1169.3646	1183.2299	1184.8906	1209.1308	1219.2071	1235.9269	1248.2118	1264.2789	1312.7602	1314.0338	1333.6023	1382.7135	1481.0455	1488.3289	1494.3431	1509.2929	2980.3409	3020.716	3028.6902	3067.4987	3115.8723	3129.2531	3133.1955	3139.4005	3143.1926	3147.1008
COC1C2CC3C2OC13	CO[C@H]1[C@H]2C[C@@H]3[C@H]2O[C@H]13	
InChI=1S/C7H10O2/c1-8-6-3-2-4-5(3)9-7(4)6/h3-7H,2H2,1H3	InChI=1S/C7H10O2/c1-8-6-3-2-4-5(3)9-7(4)6/h3-7H,2H2,1H3/t3-,4+,5-,6-,7-/m0/s1
