14
gdb 129890	5.44862	1.33642	1.07687	5.2418	69.89	-0.2078	0.0233	0.2311	1034.5598	0.105225	-429.07401	-429.067077	-429.066133	-429.105139	26.709	
N	 0.1418767484	 1.3673789406	 0.1255048628	-0.603389
C	-0.0031832068	-0.0184693951	 0.0156025632	 0.311365
C	-1.1059931693	-0.8211667492	-0.0475661052	-0.204435
N	-0.617874396	-2.1261148075	-0.0303235603	 0.057256
N	-1.0813619347	-3.404895368	-0.0662985859	-0.293327
C	 0.0677667591	-4.0832286355	-0.027419157	 0.027389
N	 1.2258277663	-3.3579726337	 0.0241953453	-0.404977
C	 0.7338763135	-2.1300646392	 0.0207025645	 0.49948
N	 1.1413567982	-0.821897606	 0.0327209572	-0.448529
H	 0.5649083582	 1.7876486375	-0.6965230753	 0.256118
H	-0.7443506679	 1.8212156618	 0.3046426478	 0.258498
H	-2.1511752123	-0.5810649272	-0.1184179208	 0.145102
H	 0.0678456756	-5.1631685098	-0.0371495444	 0.119557
H	 2.0572583476	-0.4960491886	 0.2881472682	 0.27989
149.3182	179.9338	290.0176	320.7194	337.7901	389.5823	525.1107	588.4986	629.0801	658.8175	681.3252	759.709	787.62	807.8638	867.9824	887.3329	982.6019	1013.417	1138.8676	1152.1685	1198.4695	1221.8835	1264.2897	1282.0594	1409.7393	1425.0165	1445.9836	1481.0357	1629.8327	1639.185	1675.0649	3258.4219	3304.0279	3503.7052	3615.5914	3686.1651
NC1=CN2N=CN=C2N1	Nc1cn2ncnc2[nH]1	
InChI=1S/C4H5N5/c5-3-1-9-4(8-3)6-2-7-9/h1-2H,5H2,(H,6,7,8)	InChI=1S/C4H5N5/c5-3-1-9-4(8-3)6-2-7-9/h1-2H,5H2,(H,6,7,8)
