21
gdb 80899	2.03368	1.66134	1.42834	1.8473	79.	-0.2484	0.0676	0.316	1079.1677	0.180356	-424.169687	-424.159916	-424.158972	-424.203889	37.351	
C	-0.1099882744	 1.5807309863	 0.1230206259	-0.461888
C	-0.0514972425	 0.0510496203	-0.0073019557	 0.286497
C	-1.50281087	-0.4160530162	-0.1882205378	-0.483424
C	 1.0908926765	-0.587543415	-0.8859661316	-0.162517
C	 2.1205070609	-0.1328036195	 0.1971503759	-0.282354
C	 0.9246878957	-0.7318379684	 0.9782689529	 0.338156
O	 0.8653282438	-0.8089525509	 2.3568162056	-0.474292
C	 1.0252830342	-1.9064867634	-0.0355213541	 0.073828
O	-0.0252339573	-2.8409745955	-0.0894306621	-0.440416
H	 0.848354382	 2.0782145673	 0.2680394131	 0.112796
H	-0.5721434136	 2.0139334824	-0.7713022206	 0.111354
H	-0.7461821456	 1.8503075755	 0.9735701535	 0.118187
H	-1.9553114602	 0.1110779203	-1.0367820561	 0.104385
H	-1.6044970985	-1.483934563	-0.3499350236	 0.141142
H	-2.0914276509	-0.1425721745	 0.696627819	 0.10395
H	 1.2133292098	-0.508212221	-1.9649121065	 0.071449
H	 3.0529062504	-0.7001704203	 0.2464651256	 0.092082
H	 2.3123393971	 0.9300819314	 0.294813139	 0.106411
H	 0.1193687911	-1.3733715054	 2.5895483536	 0.290026
H	 1.9847863726	-2.4375262814	 0.0067952704	 0.067882
H	 0.1879751888	-3.4889342989	-0.7674870761	 0.286746
54.8771	147.5007	164.9847	182.8734	224.748	242.911	282.8116	306.5544	388.5864	432.4607	457.1102	489.5461	550.4765	655.6288	662.5778	670.6003	760.2522	778.3087	896.2809	937.0598	952.5945	954.9012	968.1147	1012.4046	1032.2873	1081.1336	1104.2051	1135.5035	1149.4679	1169.294	1178.5134	1206.7041	1227.0693	1260.7839	1303.3432	1321.3779	1376.2801	1401.1662	1421.0594	1466.0091	1489.0305	1490.327	1507.026	1522.9272	1551.1424	3015.0481	3022.5843	3036.0786	3068.8429	3079.9441	3086.4868	3131.2483	3138.6903	3190.5646	3199.8269	3802.5378	3826.4813
CC1(C)C2CC1(O)C2O	CC1(C)[C@H]2C[C@]1(O)[C@H]2O	
InChI=1S/C7H12O2/c1-6(2)4-3-7(6,9)5(4)8/h4-5,8-9H,3H2,1-2H3	InChI=1S/C7H12O2/c1-6(2)4-3-7(6,9)5(4)8/h4-5,8-9H,3H2,1-2H3/t4-,5-,7-/m0/s1
