18
gdb 64135	2.97651	1.30278	1.15287	3.9508	71.29	-0.2861	0.0144	0.3005	1127.5497	0.146429	-439.103019	-439.094078	-439.093134	-439.137022	32.946	
C	-0.0854734138	 1.4510895772	-0.1760202412	-0.418034
C	 0.0242299444	-0.0567620554	 0.0470579355	 0.36008
C	-1.328969509	-0.7064846761	 0.3186614113	-0.429517
C	 0.8169538268	-0.7596975122	-1.0807038691	-0.159337
O	 2.1588370035	-0.7855282338	-0.5920999728	-0.231046
C	 2.0245606547	-0.9651034434	 0.7879050746	 0.047579
O	 0.8893398359	-0.258555535	 1.2029683358	-0.283119
C	 1.8869356285	-2.4184559213	 1.1264225104	 0.278094
N	 1.7855680947	-3.5386913507	 1.3897940819	-0.327843
H	 0.8945359385	 1.8735739017	-0.4148201855	 0.129553
H	-0.7729739105	 1.6724031901	-0.9987169137	 0.118433
H	-0.4607217465	 1.9391476493	 0.7274154315	 0.131754
H	-1.9785415934	-0.6198920162	-0.5588229295	 0.12153
H	-1.208557299	-1.7661700538	 0.5585964259	 0.13951
H	-1.8265322471	-0.2164692457	 1.1599037773	 0.13256
H	 0.4519560219	-1.7809977135	-1.2526648845	 0.119181
H	 0.8164402704	-0.2089988363	-2.0222257841	 0.129744
H	 2.91613435	-0.5703808448	 1.2848420761	 0.140881
39.097	119.8456	190.7276	217.7545	260.6334	275.5709	330.0318	341.6128	387.773	441.1903	527.2012	572.9389	625.3205	786.7913	800.3295	872.4299	911.9777	936.1541	960.3976	983.693	991.5939	1038.5245	1052.8882	1131.2784	1185.0452	1220.9658	1258.1881	1291.3605	1327.3148	1370.252	1382.849	1402.9376	1421.2089	1476.5995	1485.7751	1496.8065	1504.4583	1516.3741	2352.9762	3021.8271	3038.957	3044.0015	3074.5528	3111.6093	3116.8295	3122.727	3127.0686	3128.4695
CC1(C)COC(O1)C#N	CC1(C)CO[C@@H](O1)C#N	
InChI=1S/C6H9NO2/c1-6(2)4-8-5(3-7)9-6/h5H,4H2,1-2H3	InChI=1S/C6H9NO2/c1-6(2)4-8-5(3-7)9-6/h5H,4H2,1-2H3/t5-/m0/s1
