13
gdb 64578	2.70426	1.51077	1.26142	3.6726	60.43	-0.2502	-0.0731	0.1771	980.4568	0.086127	-493.661828	-493.654018	-493.653074	-493.694405	28.395	
O	-0.0938003312	 1.4624502777	 0.0968481032	-0.461293
C	-0.0554146106	 0.0894793703	 0.0173088961	 0.198824
C	 0.9114120538	-0.4919237627	 1.0281846308	 0.107254
O	 1.5722389619	 0.2306316003	 1.7342969884	-0.266379
C	-1.4017874	-0.672350718	-0.0262342956	-0.020813
O	-2.0646124058	-0.2673790844	-1.2092777837	-0.216121
C	-1.1042285971	-1.3381723691	-1.3236328318	-0.111089
C	 0.2316501182	-0.6197090362	-1.4048990981	 0.354773
O	 1.1726687855	-0.6378544869	-2.1312367043	-0.274438
H	 0.5703970442	 1.7095974135	 0.7627779554	 0.30133
H	 0.9861808045	-1.5949176678	 1.0824283429	 0.112263
H	-2.0043440037	-1.0408869422	 0.7954454045	 0.135956
H	-1.4388646898	-2.2829325346	-1.7321202878	 0.139731
100.5459	120.3257	191.4841	223.6696	296.0623	309.0331	410.0244	483.2219	549.2693	604.5844	655.4075	765.5673	799.6143	841.5728	853.5626	877.8564	955.1419	1005.735	1020.2037	1057.9303	1070.5316	1207.135	1235.7732	1279.9607	1334.2192	1385.1276	1439.9344	1798.2287	1910.1942	2951.9604	3194.2534	3215.3941	3661.8311
OC1(C=O)C2OC2C1=O	O[C@@]1(C=O)[C@H]2O[C@H]2C1=O	
InChI=1S/C5H4O4/c6-1-5(8)3(7)2-4(5)9-2/h1-2,4,8H	InChI=1S/C5H4O4/c6-1-5(8)3(7)2-4(5)9-2/h1-2,4,8H/t2-,4-,5+/m0/s1
