21
gdb 86997	6.26331	0.61169	0.58923	2.9851	80.53	-0.2553	-0.0267	0.2286	1898.4963	0.179531	-424.216497	-424.206422	-424.205478	-424.253184	35.393	
C	-0.3983142352	 1.347438608	 0.0952082181	-0.391151
C	 0.0184721369	-0.1206109857	 0.127230294	 0.020684
C	 1.1021463982	-0.5107482816	-0.9248678721	-0.26888
C	 2.1684488573	-0.4313754538	 0.1831674386	 0.175284
C	 1.0389660513	-0.4802192049	 1.2515331538	-0.264616
O	 3.1062454493	-1.4809303219	 0.1477310637	-0.257392
C	 4.0592768552	-1.4272397095	 1.1780744036	-0.1569
C	 5.0293058094	-2.5800548269	 0.9868944167	 0.138814
O	 5.9415279594	-2.8158602341	 1.7332537694	-0.23869
H	 0.4707481728	 2.015336013	 0.1074831943	 0.113966
H	-0.9745374544	 1.5730955641	-0.8087352252	 0.11641
H	-1.020360418	 1.5991071349	 0.9610862907	 0.115869
H	-0.8736649373	-0.7519377024	 0.110613646	 0.074308
H	 0.9953351491	-1.5435550961	-1.2662502568	 0.112121
H	 1.2260799305	 0.1418939534	-1.7926067989	 0.098604
H	 2.6949778834	 0.5348686213	 0.193133414	 0.067711
H	 1.1073266114	 0.2014602064	 2.1035879604	 0.095813
H	 0.9037628949	-1.5021955167	 1.6170418963	 0.10586
H	 4.629204183	-0.4818012331	 1.1642723179	 0.120437
H	 3.6028591408	-1.5111333835	 2.1778014941	 0.125324
H	 4.8184987321	-3.191605081	 0.0818727415	 0.096424
41.7358	54.7515	71.5609	103.4238	144.6879	240.5795	272.4611	293.3583	360.4808	406.6318	455.7698	557.8509	680.6433	741.612	801.566	818.9645	892.6016	900.32	942.5538	966.516	1022.2098	1044.7466	1070.3032	1098.9044	1114.9026	1137.2541	1161.536	1194.5263	1211.7679	1237.5307	1245.7476	1271.0871	1274.3539	1299.9908	1342.7735	1367.2266	1393.4199	1412.4995	1418.2184	1464.9832	1481.5816	1492.3437	1496.3052	1499.9487	1844.7819	2898.5171	2960.1466	2984.0072	2995.564	3024.7558	3051.7817	3058.2818	3066.6264	3093.4235	3094.8412	3110.8351	3119.1408
CC1CC(C1)OCC=O	C[C@H]1C[C@@H](C1)OCC=O	
InChI=1S/C7H12O2/c1-6-4-7(5-6)9-3-2-8/h2,6-7H,3-5H2,1H3	InChI=1S/C7H12O2/c1-6-4-7(5-6)9-3-2-8/h2,6-7H,3-5H2,1H3/t6-,7-
