20
gdb 121483	2.28913	0.74873	0.59823	3.3653	87.29	-0.2395	0.0291	0.2687	1912.8244	0.167622	-403.121886	-403.110734	-403.10979	-403.160592	37.371	
C	-0.1656105228	 0.9612831515	-1.1696647202	-0.375432
C	-0.3586584998	-0.3110544271	-0.3550992058	-0.068951
O	 0.8132414488	-1.1294930287	-0.3646656548	-0.202919
C	 0.9240836464	-2.0032078766	-1.3841921709	 0.140209
N	 1.9834840659	-2.6669056606	-1.5322752445	-0.246362
C	 2.072861629	-3.6377979475	-2.6173752821	-0.262313
C	 0.9222067123	-3.7835998786	-3.5165738762	 0.070227
C	-0.0274744678	-3.8958010196	-4.2500308367	 0.022084
C	-1.161213165	-4.0516736729	-5.1510338062	-0.497318
H	 0.7003874704	 1.5203849443	-0.8049655592	 0.137488
H	-0.0037100299	 0.7300849759	-2.2270875549	 0.126989
H	-1.0514931553	 1.5997290307	-1.0902962576	 0.119303
H	-0.5389372216	-0.0765141275	 0.6974900966	 0.120994
H	-1.2195210095	-0.8865549115	-0.7212808675	 0.107087
H	 0.0350740822	-2.0825327913	-2.023312042	 0.088123
H	 2.961604044	-3.38305308	-3.2106706096	 0.137065
H	 2.3017327973	-4.6130507819	-2.1662461043	 0.137591
H	-0.9447734792	-4.7906915282	-5.9303855855	 0.151962
H	-2.0555242981	-4.3896389816	-4.6159020745	 0.147389
H	-1.4089490572	-3.1088458189	-5.6511441942	 0.146782
34.7907	36.0346	64.6722	75.3438	152.2653	179.2414	218.7805	242.8376	269.685	314.1255	376.9369	393.7059	433.8119	510.4279	619.8705	782.0622	803.692	902.8081	955.7114	1016.4614	1020.1644	1052.0852	1054.8575	1068.988	1113.7429	1149.862	1171.919	1247.0905	1265.6942	1336.5087	1348.7224	1393.8087	1408.3269	1415.231	1424.7253	1471.2713	1478.2998	1479.9073	1486.1377	1493.3912	1513.1452	1772.3039	2361.4212	3010.6298	3017.8377	3026.9694	3027.5216	3037.4176	3041.009	3086.9775	3088.3679	3089.7494	3114.4992	3125.7888
CCOC=NCC#CC	CCOC=NCC#CC	
InChI=1S/C7H11NO/c1-3-5-6-8-7-9-4-2/h7H,4,6H2,1-2H3	InChI=1S/C7H11NO/c1-3-5-6-8-7-9-4-2/h7H,4,6H2,1-2H3
