19
gdb 67876	2.37024	1.8814	1.41788	1.2277	80.85	-0.2338	0.0046	0.2383	993.3897	0.160569	-385.911456	-385.903574	-385.90263	-385.944017	31.009	
O	-0.0627632359	 1.3899683144	 0.1225304448	-0.479683
C	 0.0656836856	-0.0354137272	 0.0024340105	 0.349385
C	 0.6725935434	-0.4332485483	-1.326093901	-0.148958
C	-0.2187524041	-1.0001450646	-2.1369655601	-0.054685
C	-1.5917629159	-1.0946326984	-1.5150311132	-0.293627
C	-1.3553559885	-0.6806763403	-0.0413873536	-0.030437
C	-1.3084349605	-1.8463589011	 0.9844018402	-0.283358
C	-0.0316644584	-1.6129231462	 1.7555213074	-0.062583
C	 0.7179692476	-0.6543793156	 1.2182318783	-0.13723
H	 0.7866470675	 1.7850883462	-0.100440515	 0.27133
H	 1.7162740339	-0.2502276587	-1.5638606859	 0.084893
H	-0.0126177278	-1.344702084	-3.1454784865	 0.093674
H	-2.2920607121	-0.4203200526	-2.0254011058	 0.11158
H	-2.0222929329	-2.0992646548	-1.6018199041	 0.102138
H	-2.07834888	 0.0693220467	 0.2848357622	 0.089887
H	-2.1918370474	-1.8713259285	 1.6334563619	 0.10454
H	-1.2757623891	-2.8212451966	 0.4786446065	 0.106214
H	 0.2336974402	-2.2006453024	 2.6283484639	 0.092968
H	 1.6901259243	-0.3311869478	 1.5762601395	 0.083953
56.3845	137.2415	196.7208	269.2075	305.1907	424.8611	449.6685	477.6413	610.0636	618.4007	699.6815	728.9039	785.051	800.9546	812.1432	884.0477	927.6917	944.2084	964.2649	973.757	976.2237	1025.8729	1050.6631	1071.4608	1098.2527	1115.2659	1135.6838	1158.6827	1163.398	1222.6554	1250.5083	1309.0602	1316.0813	1320.8235	1348.1709	1374.9898	1383.7577	1479.6387	1489.7717	1675.0395	1693.3926	3010.9936	3019.8868	3045.5584	3051.4122	3093.4454	3165.2029	3171.1992	3191.8874	3197.3239	3809.2636
OC12C=CCC1CC=C2	O[C@]12C=CC[C@H]1CC=C2	
InChI=1S/C8H10O/c9-8-5-1-3-7(8)4-2-6-8/h1-2,5-7,9H,3-4H2	InChI=1S/C8H10O/c9-8-5-1-3-7(8)4-2-6-8/h1-2,5-7,9H,3-4H2/t7-,8-
