20
gdb 57848	2.22855	1.29238	0.96418	3.1697	83.25	-0.2387	0.021	0.2597	1313.4203	0.167667	-403.143971	-403.133016	-403.132072	-403.180372	38.441	
C	-1.301323164	 1.4613148488	-0.6641780392	-0.378986
C	-0.1316498986	 0.5338945435	-0.2892104926	-0.273724
C	-0.5777197031	-0.5658784945	 0.5642842773	 0.347691
C	-0.9612467517	-1.4716951512	 1.2561369658	-0.494159
C	 0.5476175522	-0.0064797203	-1.5799487086	 0.424039
O	-0.0117216619	 0.112967404	-2.6556298341	-0.375581
N	 1.7787959589	-0.5895307277	-1.4501603656	-0.085999
C	 2.4615582055	-1.0533388488	-2.6482884292	-0.344428
C	 2.5218891587	-0.7475354982	-0.2134684872	-0.342719
H	-0.9385594278	 2.3024605099	-1.2589967264	 0.124315
H	-2.0369416951	 0.920080767	-1.2596148258	 0.148192
H	-1.778675475	 1.8409622759	 0.2424671197	 0.114912
H	 0.6101346574	 1.1221499755	 0.2662080943	 0.116591
H	-1.3027991926	-2.2704741569	 1.8668683466	 0.200345
H	 3.4178019203	-0.5295459007	-2.7736355857	 0.119622
H	 2.6672581925	-2.1287366058	-2.5804922002	 0.122936
H	 1.8231498509	-0.8572313036	-3.5073458225	 0.170595
H	 2.9309077394	-1.7635457796	-0.1625716057	 0.129904
H	 3.3654682284	-0.0448977697	-0.1596529488	 0.121182
H	 1.8860076257	-0.6127007878	 0.6580919676	 0.155272
50.456	88.3349	91.3006	138.5373	155.9447	206.8822	225.5971	238.4256	253.7149	341.1854	390.5431	421.9279	458.0331	558.1599	588.8181	624.1612	637.1878	704.8731	792.9073	872.209	964.346	1032.147	1083.879	1086.3455	1117.4125	1130.3563	1162.6533	1178.7349	1274.7118	1293.5219	1327.9918	1406.4538	1421.6906	1433.7737	1475.9105	1485.4465	1488.0628	1490.4393	1503.2348	1503.9085	1540.6492	1759.7333	2229.9456	3003.698	3015.9489	3021.9066	3058.913	3059.6449	3062.8578	3133.986	3155.9593	3174.3943	3175.7808	3503.5965
CC(C#C)C(=O)N(C)C	C[C@@H](C#C)C(=O)N(C)C	
InChI=1S/C7H11NO/c1-5-6(2)7(9)8(3)4/h1,6H,2-4H3	InChI=1S/C7H11NO/c1-5-6(2)7(9)8(3)4/h1,6H,2-4H3/t6-/m0/s1
