18
gdb 87016	2.09958	1.56894	1.04807	2.7525	79.95	-0.245	0.0257	0.2707	1181.8938	0.145353	-401.950054	-401.940249	-401.939305	-401.98443	36.43	
C	-0.1556260971	 1.5275086314	 0.0834537054	-0.417179
C	-0.0182565971	 0.0246153349	 0.0621786085	-0.014712
C	 1.259141803	-0.6429412159	-0.3021149584	-0.310933
C	 0.7813086867	-0.7140176077	 1.1557423809	 0.030356
C	 1.4841141571	 0.0437844365	 2.1497876096	 0.188025
C	 2.0651349344	 0.6585439092	 3.0078545889	-0.399981
C	 0.1939784663	-2.0553288138	 1.5546724308	 0.385559
N	 0.3691442384	-2.4060489248	 2.8531152778	-0.57035
O	-0.396059314	-2.7528120878	 0.7475283866	-0.379362
H	 0.7668031309	 2.0108431363	 0.4161126883	 0.127714
H	-0.3906820678	 1.8977929188	-0.9201643383	 0.123535
H	-0.9607236978	 1.8434883567	 0.7547136781	 0.125071
H	-0.9096174089	-0.5304063388	-0.2135331217	 0.123076
H	 1.2115821448	-1.5809638396	-0.8420426281	 0.145159
H	 2.131879297	-0.0256198265	-0.4833830843	 0.124131
H	 2.5848019002	 1.2116552898	 3.7506302425	 0.192386
H	 0.8727594307	-1.8156645081	 3.4925707313	 0.266816
H	 0.0013362234	-3.2898563108	 3.1618711221	 0.260689
64.4667	140.6362	156.83	177.1423	195.623	223.0096	250.4839	337.1552	401.662	423.9607	512.621	537.2034	562.1722	576.3804	611.3899	660.7774	663.5767	732.7709	826.4788	885.8548	913.7563	928.7424	1028.7665	1059.9087	1085.2268	1100.9793	1134.7494	1202.2004	1212.0173	1302.3102	1362.5228	1394.427	1422.2556	1469.2033	1490.7556	1499.0143	1607.2438	1782.4154	2221.0562	3036.5541	3098.7333	3115.8778	3141.9552	3168.3752	3241.6363	3499.0748	3602.4012	3740.1485
CC1CC1(C#C)C(N)=O	C[C@H]1C[C@]1(C#C)C(=O)N	
InChI=1S/C7H9NO/c1-3-7(6(8)9)4-5(7)2/h1,5H,4H2,2H3,(H2,8,9)	InChI=1S/C7H9NO/c1-3-7(6(8)9)4-5(7)2/h1,5H,4H2,2H3,(H2,8,9)/t5-,7-/m0/s1
