19
gdb 19077	5.659	1.35778	1.31517	1.1519	76.31	-0.1966	0.0761	0.2727	1029.5061	0.164866	-327.835439	-327.827882	-327.826938	-327.866603	30.087	
C	-0.18035147	 1.328966446	-0.0836996862	-0.427737
C	 0.0467750951	-0.1644844275	 0.0110469385	-0.005807
C	 1.4648204388	-0.653440317	-0.1564929726	-0.094144
C	 0.8012413474	-0.6671857775	 1.2177399571	-0.09418
C	 0.9392828344	-2.2173403622	 1.2437337786	-0.047488
C	 1.5828359735	-2.2040434761	-0.0901298159	-0.047566
N	 0.2415669307	-2.80130082	 0.0790622013	-0.100277
C	 0.2676083177	-4.2600852364	 0.0772041698	-0.321212
H	 0.6636834687	 1.8929408049	 0.3290070984	 0.110206
H	-0.310193774	 1.6408332385	-1.1257770852	 0.117643
H	-1.0790662808	 1.6250046225	 0.4683157778	 0.117639
H	-0.7510700431	-0.7842990133	-0.3804438684	 0.109636
H	 2.2631947935	-0.0131353338	-0.5103803387	 0.082779
H	 1.0155608902	-0.0389432763	 2.0733134282	 0.08277
H	 1.1516478099	-2.8234299236	 2.115721289	 0.088085
H	 2.4022014864	-2.7976123752	-0.4762928943	 0.088088
H	 1.1839306703	-4.6928802189	 0.51504115	 0.095217
H	-0.5903893175	-4.6346820835	 0.6446399386	 0.123179
H	 0.1806708886	-4.6188476007	-0.9534234357	 0.123169
171.3143	219.328	235.5609	244.952	304.0106	314.3312	402.9607	403.1451	569.5018	752.1206	768.9314	789.1903	808.1273	837.5187	855.7451	875.821	932.785	984.3945	1001.4835	1005.239	1029.1241	1069.586	1109.1294	1124.4802	1142.7172	1153.5223	1160.2738	1191.9876	1233.1323	1235.5561	1275.1613	1279.5679	1353.0679	1411.0937	1417.387	1455.295	1492.969	1497.2419	1500.3742	1500.6813	2952.2216	3025.3907	3063.0589	3089.9083	3091.1401	3101.0831	3177.5639	3182.6507	3187.3706	3189.0683	3199.5003
CC1C2C1C1C2N1C	C[C@H]1[C@H]2[C@@H]1[C@@H]1[C@H]2N1C	
InChI=1S/C7H11N/c1-3-4-5(3)7-6(4)8(7)2/h3-7H,1-2H3	InChI=1S/C7H11N/c1-3-4-5(3)7-6(4)8(7)2/h3-7H,1-2H3/t3-,4-,5+,6-,7+,8?
