14
gdb 67147	2.1473	1.87564	1.55077	2.5354	62.1	-0.2236	-0.0037	0.2199	911.1195	0.100047	-473.7473	-473.73969	-473.738746	-473.779202	29.112	
O	-0.2605839037	 1.3482908246	 0.0562172233	-0.438122
C	 0.0217882575	 0.0231634841	 0.0054298748	 0.31239
C	 0.0826396131	-1.0503193452	-1.0362463195	-0.165254
N	 1.3217890193	-1.6094086517	-0.4779621002	-0.299861
C	 0.954656796	-0.9575230918	 0.815200304	-0.241398
C	-0.3874834922	-1.6071815179	 1.2729077736	 0.347371
O	-0.8126407557	-1.9952594566	 2.327881442	-0.349674
C	-1.0404079854	-1.1582651403	 0.0057896809	 0.227668
O	-2.3488785069	-1.1431873601	-0.3653597809	-0.45229
H	 0.471723777	 1.8400301458	-0.3361891727	 0.307021
H	-0.1563318449	-1.0264430408	-2.0932150568	 0.122956
H	 1.3063728642	-2.6309592527	-0.4115200498	 0.218116
H	 1.7395002821	-0.714646842	 1.5269072249	 0.102568
H	-2.8785768203	-0.8953367153	 0.4031316464	 0.308507
114.0034	166.0159	216.201	311.5513	350.2073	358.1431	393.8274	445.1001	553.3417	629.6445	635.253	663.9727	714.2929	788.6315	801.9211	905.724	943.5917	979.4799	1013.777	1046.4861	1098.6616	1128.9278	1142.1031	1195.6741	1245.0292	1284.9175	1346.1284	1349.4068	1433.1805	1502.9098	1859.9703	3159.4026	3189.7672	3404.328	3769.4056	3774.7092
OC12C3NC1C(=O)C23O	O[C@@]12[C@H]3N[C@@H]1C(=O)[C@@]23O	
InChI=1S/C5H5NO3/c7-2-1-4(8)3(6-1)5(2,4)9/h1,3,6,8-9H	InChI=1S/C5H5NO3/c7-2-1-4(8)3(6-1)5(2,4)9/h1,3,6,8-9H/t1-,3-,4-,5+/m1/s1
