19
gdb 127421	2.36423	1.57941	0.96406	2.4691	80.28	-0.2047	0.0466	0.2513	1235.3526	0.157738	-419.24279	-419.232455	-419.231511	-419.278601	35.73	
C	 0.0313749806	 1.4077858053	-0.0736486841	-0.323795
N	-0.0067615106	-0.0335870568	 0.0041079653	-0.02669
N	-0.1064502588	-0.7905408144	-1.1242215522	-0.354176
C	-0.0483819338	-2.0492085881	-0.701430254	 0.306947
C	-0.1433880219	-3.1800724407	-1.6754695857	-0.492268
C	 0.1021086639	-2.1337370945	 0.7093219784	-0.020826
C	 0.2014641115	-3.3509305495	 1.5750966663	-0.519348
C	 0.1259766312	-0.8092067419	 1.1029123464	 0.383827
O	 0.2568175205	-0.2106671788	 2.3115507833	-0.438129
H	 1.0457264222	 1.7750006351	-0.267872723	 0.135494
H	-0.6214183423	 1.725142557	-0.8880689029	 0.150544
H	-0.3225590897	 1.8284255031	 0.8691603116	 0.147263
H	 0.7353558857	-3.8338039484	-1.621827853	 0.121422
H	-1.0217801542	-3.8079151803	-1.4838639684	 0.122088
H	-0.2178859873	-2.7864694963	-2.6914309025	 0.138838
H	 0.5238373565	-3.0998367692	 2.593712097	 0.097434
H	-0.7520199418	-3.8866675525	 1.6656454802	 0.129996
H	 0.9350096275	-4.0660371051	 1.1857386809	 0.133656
H	 0.2384989108	-0.8922696839	 2.9910890564	 0.307723
61.4562	65.3936	122.5774	130.3704	171.2343	220.6493	228.2498	272.8852	285.8727	293.0989	373.6589	563.5941	571.3788	618.0012	659.133	703.4948	749.1776	867.3959	1006.8572	1013.7951	1049.2618	1069.6631	1077.682	1139.5776	1154.4435	1251.1875	1286.5148	1321.8609	1404.0979	1424.1251	1433.57	1449.6119	1476.1893	1482.5599	1484.516	1489.1036	1502.7172	1508.9494	1516.9309	1593.3327	1640.8823	3009.2123	3024.9973	3035.6551	3058.194	3071.4237	3074.466	3113.4819	3129.607	3155.2599	3831.5279
CN1N=C(C)C(C)=C1O	Cn1nc(C)c(C)c1O	
InChI=1S/C6H10N2O/c1-4-5(2)7-8(3)6(4)9/h9H,1-3H3	InChI=1S/C6H10N2O/c1-4-5(2)7-8(3)6(4)9/h9H,1-3H3
