26
gdb 60392	3.57322	0.66915	0.60628	1.182	94.33	-0.2194	0.0849	0.3043	1985.7535	0.238636	-369.594637	-369.583419	-369.582474	-369.631851	41.147	
C	-0.090261295	 1.5479324774	-0.3016942609	-0.387102
C	 0.0531931928	 0.0610616658	 0.0513464038	 0.040692
C	 0.7917079218	-0.1050544006	 1.3878537453	-0.38069
C	-1.323794882	-0.625316821	 0.0495034294	-0.16006
C	-1.2828505441	-2.1487573126	 0.1979717472	-0.154214
N	-2.6358259726	-2.6898970077	 0.1183367952	-0.078932
C	-3.1228308773	-3.1213902906	-1.1882894884	-0.254052
C	-2.8482811212	-4.1195669185	-0.1143536812	 0.031213
C	-1.721126699	-5.1228141881	-0.2362255262	-0.411309
H	 0.886180295	 2.0418084104	-0.3472973866	 0.106643
H	-0.5813379334	 1.683075717	-1.271208082	 0.108134
H	-0.6916971695	 2.0719298215	 0.4508952824	 0.112
H	 0.6646765711	-0.4110526397	-0.7322084612	 0.067234
H	 0.2060523764	 0.3216488837	 2.2113428834	 0.112137
H	 0.9840519312	-1.1553192493	 1.6262914097	 0.11263
H	 1.7581606403	 0.409756316	 1.3679564822	 0.108076
H	-1.949013014	-0.2094161406	 0.8499218223	 0.100057
H	-1.8368748508	-0.3894814461	-0.892054961	 0.09092
H	-0.6039625532	-2.565686152	-0.566265377	 0.076464
H	-0.8728758304	-2.427466842	 1.1754646456	 0.101189
H	-4.1387383167	-2.8326800071	-1.4466764048	 0.109582
H	-2.4210355417	-3.0977683635	-2.0231514569	 0.100068
H	-3.7055763968	-4.5011129316	 0.4402203776	 0.086544
H	-0.9047136184	-4.7627248092	-0.8664017691	 0.120399
H	-1.3066375687	-5.3737302688	 0.7467660585	 0.121443
H	-2.0972174941	-6.0506184626	-0.6804553774	 0.120934
33.7282	65.432	103.0376	116.9444	191.0368	223.3071	231.3951	255.218	263.9148	326.2465	380.8093	414.3895	427.6432	449.4261	534.4314	751.6193	781.5862	799.5083	852.4082	902.8271	928.0259	947.7715	948.5558	965.2522	994.1176	1030.6061	1049.2122	1067.978	1113.0177	1141.8679	1147.653	1154.4034	1190.7555	1191.882	1198.6353	1254.0812	1299.1427	1321.081	1338.0202	1363.3037	1370.6949	1396.4811	1401.398	1408.7818	1421.9474	1423.9064	1478.7508	1488.5237	1492.7207	1495.8757	1498.5498	1503.6348	1505.7589	1510.5777	1516.9564	2944.7241	2990.5351	3016.7973	3022.3648	3028.3014	3034.7023	3046.1653	3066.3015	3076.3183	3086.4907	3091.2315	3092.7848	3096.379	3096.5225	3103.6553	3126.3303	3164.7401
CC(C)CCN1CC1C	CC(C)CCN1C[C@H]1C	
InChI=1S/C8H17N/c1-7(2)4-5-9-6-8(9)3/h7-8H,4-6H2,1-3H3	InChI=1S/C8H17N/c1-7(2)4-5-9-6-8(9)3/h7-8H,4-6H2,1-3H3/t8-,9?/m1/s1
