15
gdb 25251	3.08396	1.68853	1.10594	4.3359	74.85	-0.2402	-0.0457	0.1945	1026.0043	0.115205	-420.685275	-420.678524	-420.67758	-420.716716	25.97	
O	 0.0031714105	-0.054299948	 0.0034277294	-0.340084
C	 0.0123095722	 1.1542958779	 0.0094477542	 0.286606
C	-1.2349188969	 2.0787267852	 0.0317232556	-0.319033
C	-0.7382897192	 3.55728812	 0.0324369391	-0.37135
C	 0.7551630158	 3.4053092552	 0.0106253758	 0.25265
C	 1.1257202367	 2.0935667966	-0.0013528318	 0.22258
O	 2.4755278593	 1.9539522721	-0.0210253771	-0.186824
C	 2.9624999588	 3.2221400983	-0.0214360896	 0.008964
C	 1.9641617976	 4.1586950693	-0.0024657367	-0.353868
H	-1.856471093	 1.8476367222	-0.8382170141	 0.137099
H	-1.8319483838	 1.838520507	 0.9162447514	 0.1371
H	-1.1069930863	 4.1126311457	-0.836809246	 0.125432
H	-1.0822727494	 4.1034539432	 0.9174896226	 0.125436
H	 4.0380248728	 3.3043629034	-0.036184676	 0.149476
H	 2.1013391148	 5.2287283518	 0.0011512133	 0.125815
102.1835	158.5539	253.9778	291.2715	515.6716	536.8505	596.7885	616.6411	635.504	681.8401	725.4945	782.4025	841.0437	845.3581	918.6812	968.6795	1009.8466	1028.1564	1058.4101	1087.8468	1158.9183	1170.9951	1227.7124	1255.7621	1261.8051	1304.807	1373.7646	1454.6543	1459.3529	1489.0989	1505.988	1618.6588	1814.6525	3042.256	3066.5759	3070.4521	3108.4744	3253.5193	3276.3391
O=C1CCC2=C1OC=C2	O=C1CCc2c1occ2	
InChI=1S/C7H6O2/c8-6-2-1-5-3-4-9-7(5)6/h3-4H,1-2H2	InChI=1S/C7H6O2/c8-6-2-1-5-3-4-9-7(5)6/h3-4H,1-2H2
