17
gdb 30050	2.76014	1.55851	1.00653	1.9352	78.85	-0.2162	-0.0118	0.2044	1136.4475	0.137691	-418.08398	-418.075441	-418.074497	-418.117353	31.856	
C	-0.0190157056	 1.4323211822	 0.0275186007	-0.317767
N	-0.0219319945	-0.0244398829	 0.0417948658	-0.058307
C	-0.1191101862	-0.7969578893	-1.0760324494	-0.087089
C	-0.0951516611	-2.1297105458	-0.7117693603	-0.163389
C	 0.0257820988	-2.1633800188	 0.690930267	-0.24631
C	 0.0727558606	-0.8511605592	 1.1473391775	 0.228394
C	 0.181777444	-0.3164626398	 2.511584353	 0.303716
N	 0.4282788422	-1.2560191917	 3.4880121139	-0.535605
O	 0.0350196112	 0.8664313945	 2.7883137422	-0.390936
H	 0.8834611417	 1.8226396797	 0.5001315211	 0.152521
H	-0.057738356	 1.7575203638	-1.0140483	 0.121043
H	-0.8760915737	 1.8271015497	 0.5738018162	 0.159335
H	-0.1977278171	-0.3361769575	-2.0485241048	 0.122782
H	-0.1625434164	-2.9715933239	-1.3828297325	 0.101348
H	 0.0420511742	-3.0473613446	 1.3107410026	 0.098284
H	 0.8712108215	-2.1257966944	 3.2437339419	 0.255544
H	 0.6499256363	-0.8756643418	 4.394788255	 0.256435
61.1229	126.2511	171.1944	214.2582	223.789	345.8872	380.4819	425.2728	498.7584	517.5745	621.4863	635.4045	677.9098	713.2632	744.113	763.7651	811.0195	850.6	900.4431	1031.9072	1081.9318	1087.6993	1118.5174	1153.3371	1161.7125	1257.2753	1306.7955	1380.5877	1410.8218	1450.442	1457.3502	1472.7104	1498.7905	1521.9153	1570.5046	1616.9454	1754.7228	3064.327	3142.9475	3149.2722	3237.7118	3249.7284	3267.6891	3592.3811	3718.9508
CN1C=CC=C1C(N)=O	Cn1cccc1C(=O)N	
InChI=1S/C6H8N2O/c1-8-4-2-3-5(8)6(7)9/h2-4H,1H3,(H2,7,9)	InChI=1S/C6H8N2O/c1-8-4-2-3-5(8)6(7)9/h2-4H,1H3,(H2,7,9)
