19
gdb 94299	3.14947	1.2116	1.03729	4.2768	75.57	-0.2711	0.0143	0.2854	1204.8236	0.158849	-423.055599	-423.047232	-423.046288	-423.088712	32.001	
C	-0.453226569	 1.4467910515	-0.1832363852	-0.429012
C	 0.1536096261	 0.053619841	-0.1848628401	-0.015545
C	 1.6018884007	-0.1674833425	-0.7142221162	-0.240162
C	 1.8117596628	-1.2258705935	 0.4046656048	-0.296528
C	 0.604971597	-0.6143482233	 1.1342059175	 0.436326
C	 0.7725485554	 0.1667441484	 2.4513621883	-0.494341
C	-0.2121428616	-0.8656934105	 2.9972468967	 0.433523
O	-0.7476033092	-1.1200891949	 4.027209266	-0.318468
O	-0.3367577175	-1.522744459	 1.8000176272	-0.272969
H	 0.2178832152	 2.1764754296	 0.283087417	 0.115887
H	-0.6456493258	 1.7857117848	-1.2064727585	 0.124372
H	-1.4066616626	 1.4680849652	 0.3559659486	 0.127671
H	-0.5226165651	-0.6506322176	-0.6828629796	 0.09698
H	 1.7124359014	-0.5002610393	-1.7474479128	 0.108971
H	 2.2254541688	 0.7185328636	-0.5620352097	 0.106411
H	 1.5770366212	-2.2366632877	 0.0613534054	 0.125923
H	 2.7666971592	-1.2421123559	 0.934872061	 0.106304
H	 1.7623123525	 0.1334371836	 2.9104785055	 0.141001
H	 0.3949785505	 1.1903810865	 2.4664815641	 0.143655
84.1943	100.629	211.253	218.3025	261.95	314.7548	417.4296	440.8521	484.2802	524.3924	544.0464	675.4937	783.4589	801.9266	854.8329	872.8838	895.367	931.8461	947.3535	977.942	1027.4582	1048.7494	1079.4703	1133.7059	1156.0784	1173.1605	1183.5095	1204.4839	1232.2022	1250.2898	1272.2672	1292.7122	1305.8929	1376.6568	1411.1401	1453.8178	1478.2479	1496.1553	1496.4653	1499.0004	1939.489	3028.1266	3045.9263	3062.3866	3066.6161	3087.0214	3096.5322	3099.2818	3114.881	3128.2517	3143.5954
CC1CCC11CC(=O)O1	C[C@H]1CC[C@]21CC(=O)O2	
InChI=1S/C7H10O2/c1-5-2-3-7(5)4-6(8)9-7/h5H,2-4H2,1H3	InChI=1S/C7H10O2/c1-5-2-3-7(5)4-6(8)9-7/h5H,2-4H2,1H3/t5-,7+/m0/s1
