17
gdb 126459	3.29237	1.24947	0.9213	5.7281	70.24	-0.2465	0.0047	0.2512	1243.8206	0.13551	-455.181196	-455.172238	-455.171294	-455.215349	31.543	
C	-0.0620935135	 1.5347910076	 0.1028384299	-0.37627
C	 0.014849403	 0.0109296372	-0.0201163031	-0.30702
C	 0.7182984804	-0.4506651385	-1.2543632584	 0.413155
N	 1.2178054525	 0.3426071366	-2.1455910841	-0.188597
O	 1.7830272729	-0.5092127925	-3.1313338267	-0.238239
C	 1.5953063262	-1.8141299558	-2.7837624818	 0.502797
O	 1.9572698586	-2.7723376075	-3.4100242391	-0.405741
N	 0.9097751275	-1.7725835122	-1.5753187267	-0.189043
C	 0.5089800989	-2.9623057177	-0.8539151586	-0.353758
H	 0.9367551613	 1.9762728642	 0.1259240418	 0.145095
H	-0.5952341228	 1.9692219468	-0.745774304	 0.145235
H	-0.5862045544	 1.8085377448	 1.0217713262	 0.11851
H	 0.5281278376	-0.4186461063	 0.850541612	 0.131572
H	-0.9928938569	-0.4255454156	-0.0138950675	 0.131678
H	 0.8482806374	-3.8148358753	-1.4448502102	 0.181323
H	 0.9741356521	-3.0021299378	 0.1355292717	 0.144662
H	-0.5782510307	-3.0113450779	-0.7423484213	 0.144642
69.8587	115.4653	138.1407	174.8962	188.6691	233.7457	277.3077	345.2429	373.5917	564.3713	634.1397	639.5091	728.2454	765.5416	795.4499	807.0059	914.716	976.6012	1018.142	1088.8861	1114.2087	1137.9817	1159.1904	1192.132	1288.149	1322.8305	1362.3653	1419.4274	1438.1616	1469.9614	1492.4743	1494.0399	1495.7132	1506.1041	1513.411	1652.6508	1880.6983	3020.7421	3042.2847	3047.036	3058.4213	3105.924	3132.5735	3137.2671	3148.9067
CCC1=NOC(=O)N1C	CCc1noc(=O)n1C	
InChI=1S/C5H8N2O2/c1-3-4-6-9-5(8)7(4)2/h3H2,1-2H3	InChI=1S/C5H8N2O2/c1-3-4-6-9-5(8)7(4)2/h3H2,1-2H3
