16
gdb 113634	3.69518	0.86104	0.81795	3.2226	72.77	-0.2766	-0.0879	0.1887	1403.1106	0.122634	-437.88407	-437.874724	-437.87378	-437.919347	32.406	
O	-0.1713326596	 1.4231735301	-0.3309934032	-0.421459
C	 0.0083077006	 0.0903181799	 0.1293207398	-0.117236
C	-1.3528147862	-0.5595918512	 0.0867717202	 0.019885
C	-1.8684592583	-1.204047337	-1.1467166858	-0.274699
C	-1.5331020939	-2.0875227087	 0.0528174215	-0.160921
C	-0.3665684179	-2.988866891	-0.042835336	 0.304173
O	 0.5990636075	-2.8404577986	-0.7580569411	-0.30105
C	-0.4410826623	-4.1759722303	 0.8401748433	 0.221794
N	-0.5013772955	-5.1015364107	 1.5307930916	-0.30127
H	 0.68951589	 1.8521052665	-0.3402182747	 0.291584
H	 0.7133841633	-0.4665993402	-0.4989958651	 0.124518
H	 0.3915327634	 0.074337673	 1.1620928882	 0.094103
H	-2.085870736	-0.0640370221	 0.7167521033	 0.116891
H	-2.9169052471	-1.1107451378	-1.4036776798	 0.133544
H	-1.1853951496	-1.2908264645	-1.9848546503	 0.150189
H	-2.3542940485	-2.4760723473	 0.6435369881	 0.119953
38.8164	77.5852	127.1817	163.0024	211.8659	230.3608	275.1536	294.8953	404.2772	414.1516	521.4367	600.0462	749.6388	793.5323	805.139	865.1672	899.915	954.3799	985.3037	1064.8044	1073.5977	1098.3694	1122.9464	1134.4777	1174.965	1221.552	1264.8942	1282.7479	1384.9054	1418.5811	1469.1273	1488.8533	1529.8871	1767.7951	2336.8243	2976.8457	3055.1557	3142.523	3157.6146	3185.045	3237.4091	3829.532
OCC1CC1C(=O)C#N	OC[C@H]1C[C@H]1C(=O)C#N	
InChI=1S/C6H7NO2/c7-2-6(9)5-1-4(5)3-8/h4-5,8H,1,3H2	InChI=1S/C6H7NO2/c7-2-6(9)5-1-4(5)3-8/h4-5,8H,1,3H2/t4-,5-/m1/s1
