21
gdb 114775	3.40633	1.31165	1.2462	1.5375	81.14	-0.2344	0.0874	0.3218	1128.0063	0.184313	-387.068239	-387.06048	-387.059535	-387.100476	31.242	
C	 0.1443216293	 1.6521578435	-0.0592081476	-0.380044
C	 0.1259999466	 0.1219313152	-0.1022387208	-0.182099
C	 0.6511381089	-0.5138651289	 1.1869770971	 0.112722
O	-0.1084619526	-0.0958774405	 2.3393407116	-0.282867
C	-0.7389987185	-1.2418487744	 2.8908491727	 0.091389
C	-1.802624125	-1.8427443912	 1.917169572	-0.250585
C	-0.7043931755	-2.7726395187	 1.3946568655	-0.080335
C	 0.1740959931	-2.4635706323	 2.6027085311	-0.102463
C	 0.6218620401	-2.0368712631	 1.2422199918	-0.069895
H	 1.1620683734	 2.0308663744	 0.0884392425	 0.110064
H	-0.2392315503	 2.0801556246	-0.9904196866	 0.106181
H	-0.4701008538	 2.0177222856	 0.7677304798	 0.133305
H	-0.8886834144	-0.2390119506	-0.3008811251	 0.100027
H	 0.751793323	-0.2383345297	-0.9299293656	 0.089659
H	 1.685972691	-0.1698430705	 1.3419271068	 0.070441
H	-1.0478223909	-1.0120795653	 3.9097520508	 0.079903
H	-2.5638948835	-2.410036435	 2.4618144318	 0.098541
H	-2.2916047564	-1.1411370146	 1.2348546854	 0.096133
H	-0.8567722608	-3.7296519403	 0.909123899	 0.083752
H	 0.7074804966	-3.1013176868	 3.2938525432	 0.087935
H	 1.4178562697	-2.5863284812	 0.7523572045	 0.088233
88.2193	149.1753	186.4852	245.8321	329.021	413.	465.3035	497.9609	661.0215	693.8418	742.1005	771.8229	798.0657	834.9062	852.7482	873.7501	900.6109	947.7373	963.3876	978.9849	995.4461	1008.1905	1037.4233	1059.5705	1065.5757	1096.0855	1119.3861	1128.2937	1150.8085	1164.7341	1201.8981	1227.0085	1281.6664	1289.7151	1297.3752	1323.3439	1339.2652	1367.0939	1400.0303	1403.5264	1410.1696	1475.978	1496.9561	1498.0195	1510.4288	2975.0482	3022.4902	3035.0549	3044.7648	3072.4168	3096.3712	3101.4377	3121.9488	3126.0545	3173.5671	3182.6486	3210.3915
CCC1OC2CC3C2C13	CC[C@H]1O[C@H]2C[C@@H]3[C@H]2[C@H]13	
InChI=1S/C8H12O/c1-2-5-7-4-3-6(9-5)8(4)7/h4-8H,2-3H2,1H3	InChI=1S/C8H12O/c1-2-5-7-4-3-6(9-5)8(4)7/h4-8H,2-3H2,1H3/t4-,5+,6-,7-,8+/m0/s1
