19
gdb 33527	2.18601	1.55948	1.11808	1.0601	80.93	-0.2579	0.0445	0.3024	1151.3624	0.158011	-385.820432	-385.811644	-385.8107	-385.853982	33.373	
C	 0.2995021767	-1.3072867654	-0.0920500462	-0.476461
C	 0.1453178191	-0.1152723927	-0.0423043172	 0.311905
C	-0.0496964842	 1.3261302542	-0.0023560814	 0.121241
C	-0.31930204	 1.872113606	 1.4445716949	-0.26694
C	 1.1836839035	 2.22821673	 1.5669157717	-0.21356
C	 1.3091116446	 2.1206526359	 0.0268038672	-0.256877
C	-1.0197927888	 1.7362000457	-1.0963650525	-0.010991
C	-2.4519062105	 1.9305291969	-0.8564106804	-0.175889
O	-1.568429633	 3.0495828518	-1.0072248401	-0.23867
H	 0.4380265708	-2.359418405	-0.1291437241	 0.19452
H	-0.9437861809	 2.7665080195	 1.3876624764	 0.124062
H	-0.7404274867	 1.1665621851	 2.1619992522	 0.105446
H	 1.4314999073	 3.1894309929	 2.0209999006	 0.102444
H	 1.7477741531	 1.4427799996	 2.0755106681	 0.113242
H	 2.18172601	 1.612015825	-0.3852555461	 0.107488
H	 1.1832733819	 3.0891038334	-0.4638821769	 0.120826
H	-0.7024758392	 1.4522002123	-2.1008774981	 0.100734
H	-3.1628211162	 1.7851525545	-1.6676822876	 0.119903
H	-2.8516924075	 1.7875939105	 0.1459025796	 0.117578
82.7872	113.0935	147.2475	183.2944	206.3179	271.4754	403.2646	454.6621	510.1908	544.6412	607.8502	617.0139	638.0063	697.1297	796.4972	854.8702	876.0965	885.8173	921.4146	948.66	952.4599	976.6646	1055.0715	1074.9365	1097.0024	1153.0291	1166.8593	1183.3848	1203.1024	1214.7988	1263.7165	1266.7948	1280.3855	1300.5563	1304.5524	1423.4786	1467.7313	1481.5109	1501.2663	1528.4513	2228.7112	3067.5723	3069.4393	3074.8412	3090.6605	3101.2841	3115.175	3133.2396	3140.8754	3179.0085	3501.7365
C#CC1(CCC1)C1CO1	C#CC1(CCC1)[C@H]1CO1	
InChI=1S/C8H10O/c1-2-8(4-3-5-8)7-6-9-7/h1,7H,3-6H2	InChI=1S/C8H10O/c1-2-8(4-3-5-8)7-6-9-7/h1,7H,3-6H2/t7-/m1/s1
