19
gdb 77625	2.13358	1.42803	1.28156	3.7544	82.29	-0.2323	0.0171	0.2493	1134.9906	0.159233	-382.052886	-382.043799	-382.042855	-382.086331	33.998	
C	 0.0038135556	 1.5556914675	-0.018267687	-0.426318
C	 0.0841269125	 0.0463204942	-0.0610025198	-0.090474
C	 0.6940960723	-0.7481925097	-1.1703877763	 0.294756
C	 0.0147062254	-1.8368988618	-1.9389130763	-0.501388
N	 1.8218263818	 0.0123673392	-1.7408797043	-0.356988
C	 2.5718025604	-0.0913145951	-0.447853465	-0.23453
C	 1.3622390626	-0.7436643685	 0.2377204328	 0.106062
C	 1.429448576	-1.7473670531	 1.2403967348	 0.184939
N	 1.4846986175	-2.5784789004	 2.0466862899	-0.360905
H	 0.8034900876	 2.0108974204	-0.6057162582	 0.145585
H	-0.9489132547	 1.8911722195	-0.4411789235	 0.123792
H	 0.0619498303	 1.925002355	 1.0103591795	 0.125748
H	-0.7747398843	-0.4631128092	 0.3711325714	 0.107698
H	-0.5172685636	-1.4172556495	-2.8009166683	 0.139572
H	 0.7348239812	-2.5744956631	-2.3102008084	 0.12763
H	-0.7146718521	-2.3586731982	-1.3138722067	 0.143114
H	 2.2871009101	-0.5238848597	-2.4655743064	 0.227836
H	 3.4193654689	-0.7791235698	-0.5001264326	 0.126369
H	 2.9100193923	 0.8700400324	-0.0482558454	 0.117502
108.6387	145.5182	168.9031	192.0037	219.9298	239.5225	262.3314	334.0742	424.4406	512.3941	547.7982	557.46	598.5876	700.8823	742.3877	760.3729	802.6269	937.3537	972.7747	999.0557	1017.851	1033.7411	1088.7399	1109.6157	1124.1616	1157.2207	1171.7534	1242.8287	1266.0567	1282.3045	1333.6165	1370.9893	1410.604	1412.9208	1479.6481	1483.0609	1490.9857	1495.7851	1513.676	1518.208	2331.4273	3028.306	3042.044	3047.6963	3088.5299	3101.2435	3102.7388	3118.6626	3129.9875	3145.3321	3528.4342
CC1C2(C)NCC12C#N	C[C@H]1[C@@]2(C)NC[C@@]12C#N	
InChI=1S/C7H10N2/c1-5-6(2)7(5,3-8)4-9-6/h5,9H,4H2,1-2H3	InChI=1S/C7H10N2/c1-5-6(2)7(5,3-8)4-9-6/h5,9H,4H2,1-2H3/t5-,6+,7-/m0/s1
