21
gdb 109940	2.41345	1.33376	0.99131	2.0998	78.97	-0.2224	0.0672	0.2896	1264.1793	0.180736	-424.189768	-424.180163	-424.179219	-424.224577	35.867	
C	 0.2409585628	 1.5257610743	-0.2039053426	-0.403324
C	 0.0053530839	 0.0589897007	 0.0909358065	 0.15276
O	 0.6959681564	-0.8147583735	-0.8478652985	-0.326772
C	 1.2937728728	-1.5441426218	 0.2204811395	 0.458097
C	 1.4061677684	-3.0326195089	 0.1821364594	-0.335885
C	 2.650249181	-2.1576016439	 0.0821327994	-0.341383
C	 0.709980154	-0.6312313783	 1.2951603283	-0.154199
C	 1.7014902928	 0.1758841073	 2.1113625628	-0.094476
O	 0.9592012745	 1.0854376456	 2.9126683274	-0.422985
H	 1.3086669939	 1.7553283596	-0.2565320572	 0.115963
H	-0.2062141287	 1.7866866041	-1.168166167	 0.119865
H	-0.2118892762	 2.1445285451	 0.5758012246	 0.130393
H	-1.0713103373	-0.1549490403	 0.0738263937	 0.07763
H	 1.2389163143	-3.5938313553	 1.0962483829	 0.111412
H	 1.0705165033	-3.5257856467	-0.7237908781	 0.122916
H	 3.124536996	-2.0742959416	-0.8899976332	 0.12382
H	 3.3345442706	-2.1287620628	 0.9241223126	 0.11115
H	 0.0116891805	-1.1230989595	 1.9772402028	 0.085387
H	 2.2960603916	-0.5108772396	 2.7359687664	 0.08675
H	 2.405610782	 0.701871684	 1.4502139296	 0.094729
H	 1.5796879832	 1.6301774515	 3.4056595406	 0.288152
38.9944	110.2835	149.2778	192.3906	232.1807	249.7753	276.5389	309.8447	372.13	393.2156	479.1493	512.7552	619.0881	758.3501	776.5933	820.3963	872.4408	879.3764	925.0886	961.8249	996.6553	1000.9982	1034.9869	1053.6256	1066.7934	1077.7676	1085.0311	1139.575	1162.6596	1188.0976	1215.23	1223.0583	1250.7907	1273.8961	1323.0018	1349.7411	1377.2482	1402.753	1414.1874	1446.9083	1460.6892	1477.1598	1495.8883	1500.7278	1525.9728	2967.0804	3007.2826	3012.4369	3043.3241	3077.4313	3113.6038	3124.8046	3126.2336	3128.6228	3208.3958	3222.8202	3828.7325
CC1OC2(CC2)C1CO	C[C@H]1OC2(CC2)[C@H]1CO	
InChI=1S/C7H12O2/c1-5-6(4-8)7(9-5)2-3-7/h5-6,8H,2-4H2,1H3	InChI=1S/C7H12O2/c1-5-6(4-8)7(9-5)2-3-7/h5-6,8H,2-4H2,1H3/t5-,6+/m1/s1
