16
gdb 23964	3.46896	1.35199	0.98501	3.1066	87.7	-0.1988	0.0218	0.2206	1157.4628	0.125342	-363.586918	-363.579216	-363.578272	-363.619433	29.41	
C	-0.0143673144	-1.2177157442	-0.0502922528	-0.4947
C	-0.0133890638	-0.0126144959	-0.0244628345	 0.261194
C	-0.0034761127	 1.3991469042	 0.0047931141	-0.004228
C	-1.0730193567	 2.271902481	 0.1359957614	 0.241473
C	-2.5193022635	 2.7019900778	 0.2972778874	-0.392435
C	-1.9368416575	 4.1694176713	 0.2675183494	-0.168978
N	-0.6116796838	 3.5445012717	 0.1148050841	 0.013995
C	 0.7499296334	 3.5854484958	-0.0275097332	-0.144097
C	 1.1489010147	 2.2641566752	-0.0978174735	-0.247161
H	-0.0177681337	-2.2785960765	-0.0728198367	 0.178589
H	-3.189171692	 2.4628805043	-0.5324590027	 0.131357
H	-3.0031118697	 2.4249189685	 1.2372362587	 0.131356
H	-2.2381413075	 4.7800972568	-0.5877891739	 0.131177
H	-2.0510499712	 4.7419377751	 1.1918771512	 0.131176
H	 1.3157580954	 4.5012506898	-0.067347848	 0.126689
H	 2.1652639129	 1.9196297153	-0.2120794608	 0.104593
68.7609	135.2769	160.8894	240.2275	402.1576	467.1316	513.1145	553.8811	568.2844	610.5647	642.3756	668.6772	706.2205	724.5516	801.0035	809.8459	839.632	903.9672	1042.5447	1056.0879	1077.4653	1116.3291	1138.659	1177.0154	1221.3941	1232.4445	1279.484	1321.2265	1416.607	1434.2995	1476.5467	1487.522	1523.7093	1592.2549	2228.595	3057.1111	3066.18	3104.2054	3118.4873	3251.3982	3276.5323	3506.2831
C#CC1=C2CCN2C=C1	C#Cc1c2CCn2cc1	
InChI=1S/C8H7N/c1-2-7-3-5-9-6-4-8(7)9/h1,3,5H,4,6H2	InChI=1S/C8H7N/c1-2-7-3-5-9-6-4-8(7)9/h1,3,5H,4,6H2
