20
gdb 69656	4.08737	1.11392	1.03737	1.7068	78.89	-0.246	0.0603	0.3063	1222.243	0.171081	-403.08619	-403.077826	-403.076882	-403.11937	31.985	
C	 0.1313779704	 1.5686471542	 0.0178646868	-0.483341
C	-0.0180085512	 0.0789785072	 0.0787754545	 0.355007
C	-1.3398954701	-0.7074352705	-0.0274996985	-0.390285
C	-0.7659940586	-1.7607001963	 0.9669628549	 0.29733
C	-1.5061495889	-2.104048892	 2.2754169459	-0.133652
O	-1.3615276638	-3.518061672	 2.0403879432	-0.272924
C	-0.7678770822	-3.2878967433	 0.7463364835	-0.138008
C	 0.5338017223	-0.9534069485	 1.026391617	-0.166032
N	 1.1054867174	-0.7700460876	-0.306805894	-0.360594
H	 1.1508361899	 1.8597628476	 0.2834586876	 0.134469
H	-0.0711614756	 1.9402061143	-0.9938238689	 0.122115
H	-0.5661503707	 2.0642760344	 0.7014393378	 0.116248
H	-2.1988608211	-0.1775024123	 0.3955168828	 0.108373
H	-1.6064073926	-1.0581748846	-1.0316296718	 0.095633
H	-1.0154562668	-1.7871833533	 3.2050534785	 0.103124
H	-2.5606969772	-1.7967435728	 2.3069461146	 0.096181
H	-1.4167752089	-3.6400036796	-0.0675645266	 0.097483
H	 0.216572456	-3.7641945609	 0.6507158721	 0.104039
H	 1.1899392215	-0.8559142351	 1.8858097452	 0.091687
H	 0.8504208103	-1.5157312388	-0.9532866148	 0.223148
69.3571	100.7399	198.796	211.9429	287.8006	325.3585	372.7367	413.5655	443.0724	538.9483	662.5566	793.7178	817.7519	854.3168	863.6546	898.6581	932.0193	974.2862	985.2452	993.3227	1009.5255	1039.3995	1051.5944	1106.1375	1142.9217	1149.0988	1152.941	1159.8274	1187.0885	1203.6492	1227.2808	1245.0658	1284.9492	1306.1568	1312.944	1382.4313	1401.7311	1448.6828	1483.3214	1485.0442	1495.4755	1506.6346	1531.9502	2991.2377	3002.9848	3027.5936	3031.0267	3040.6417	3042.7779	3086.8563	3089.335	3121.2385	3160.9324	3449.5904
CC12CC3(COC3)C1N2	C[C@]12CC3(COC3)[C@H]1N2	
InChI=1S/C7H11NO/c1-6-2-7(3-9-4-7)5(6)8-6/h5,8H,2-4H2,1H3	InChI=1S/C7H11NO/c1-6-2-7(3-9-4-7)5(6)8-6/h5,8H,2-4H2,1H3/t5-,6-/m0/s1
