21
gdb 90977	2.59333	1.85791	1.33937	1.3175	82.12	-0.2592	0.0784	0.3376	1023.3953	0.183939	-387.058341	-387.050465	-387.049521	-387.090185	32.297	
C	-0.1293663484	 1.5024877763	 0.0359699698	-0.5126
C	-0.0202343367	-0.0070979109	 0.0428187571	 0.391805
C	 1.1326813213	-0.7773405241	-0.6969283532	-0.107799
C	 2.108342903	-0.4122916314	 0.4475130007	-0.254608
C	 0.7816920328	-0.7906874516	 1.1495720145	-0.083693
C	 0.6368284348	-1.9885276507	 0.1575273813	 0.001809
C	-0.83791336	-2.2340313817	-0.136450817	-0.290524
C	-1.329348383	-0.7644488434	-0.203448417	 0.055588
O	-2.2481303152	-0.408951152	 0.8242246846	-0.444821
H	 0.8134185691	 1.9965286879	 0.2848543691	 0.112647
H	-0.4428494476	 1.8626240551	-0.9513528509	 0.109618
H	-0.8855841607	 1.823651147	 0.7579087707	 0.136539
H	 1.3300927051	-0.7752163059	-1.772199084	 0.058719
H	 2.9492024789	-1.0953278189	 0.6000458625	 0.085523
H	 2.4412750371	 0.625318186	 0.5178944089	 0.090577
H	 0.5651567947	-0.800017192	 2.2191355687	 0.069382
H	 1.3029329765	-2.845256777	 0.2772907338	 0.059264
H	-0.9940006465	-2.7818572595	-1.0719971199	 0.090632
H	-1.3467268794	-2.7754855971	 0.6678297198	 0.094463
H	-1.7510519994	-0.5134575178	-1.1891000313	 0.055571
H	-3.0749255565	-0.8721148083	 0.659846582	 0.281908
112.3823	199.6098	260.1934	272.3562	297.4237	335.6914	391.6424	487.8896	490.883	620.0496	680.1294	712.3943	769.3395	822.1484	860.7522	882.6504	894.0904	910.7644	949.8659	994.0356	1008.406	1013.9845	1047.8504	1063.5267	1070.4583	1110.0516	1121.0634	1124.4978	1176.3338	1183.4689	1208.8757	1215.4255	1227.7157	1247.8059	1262.1882	1274.2371	1295.2517	1335.2661	1364.5305	1411.2986	1425.9807	1484.5521	1489.8094	1498.2845	1528.2451	2975.548	3032.0691	3039.5312	3052.9789	3074.2872	3084.5627	3092.8704	3095.1544	3103.2649	3112.1546	3119.8303	3824.3947
CC12C3CC1C3CC2O	C[C@@]12[C@H]3C[C@@H]1[C@H]3C[C@H]2O	
InChI=1S/C8H12O/c1-8-5-3-6(8)4(5)2-7(8)9/h4-7,9H,2-3H2,1H3	InChI=1S/C8H12O/c1-8-5-3-6(8)4(5)2-7(8)9/h4-7,9H,2-3H2,1H3/t4-,5-,6+,7-,8+/m1/s1
