22
gdb 57656	3.17524	1.04058	0.97008	3.7181	82.86	-0.2443	0.0327	0.277	1331.4771	0.192931	-404.367599	-404.357575	-404.356631	-404.402229	37.895	
C	 0.1245188757	 1.5097867756	 0.0532533055	-0.410649
C	 0.068514563	-0.0294846622	 0.0936256119	 0.263797
C	 0.7586758536	-0.5390409877	 1.3715345759	-0.43476
N	-1.3437864976	-0.4782069621	 0.0854683088	-0.29469
C	-2.2948485937	-0.1565598072	 0.996324704	 0.15909
O	-2.15965311	 0.5903917691	 1.9461867313	-0.337506
C	 0.6743872462	-0.5767395667	-1.1986130453	-0.009468
C	 2.1130595835	-0.9945793308	-1.3338167575	-0.274101
C	 1.0220816229	-2.0352200585	-1.3950098374	-0.292343
H	 1.1665004542	 1.8410418435	 0.0106631694	 0.112591
H	-0.3931646778	 1.8897301517	-0.833058656	 0.107373
H	-0.3512585698	 1.9322336209	 0.9390380591	 0.153093
H	 0.2049876237	-0.179254167	 2.2402756628	 0.157173
H	 0.7836621725	-1.6319965998	 1.4120781037	 0.109871
H	 1.7831493532	-0.1628434816	 1.4377216322	 0.115955
H	-1.5892107484	-1.1687622517	-0.6068177051	 0.244429
H	-3.255682569	-0.6649391371	 0.7716660016	 0.07265
H	 0.2570323939	-0.0877334211	-2.0762749101	 0.088315
H	 2.6328035429	-0.7334649387	-2.2486545402	 0.11519
H	 2.7397448039	-0.983454379	-0.4501443877	 0.120259
H	 0.927431878	-2.7086134527	-0.5503261196	 0.120226
H	 0.793037789	-2.4909306567	-2.3520902574	 0.113506
66.0878	93.512	168.0528	214.864	236.2417	240.5108	274.9395	294.8128	329.7213	366.616	419.0526	467.9724	491.7264	547.6639	667.5068	789.1107	821.6135	837.6011	843.378	922.9715	938.5358	958.2653	997.7741	1026.7771	1031.1746	1057.9533	1085.5241	1093.0488	1150.7092	1187.0766	1189.9997	1201.3996	1226.5938	1233.9539	1293.4925	1388.9539	1395.7667	1421.3243	1434.2876	1467.2208	1476.2108	1487.2878	1500.2825	1509.3675	1521.7498	1522.5513	1793.6449	2913.3934	3041.9387	3048.688	3108.7272	3116.5004	3125.9242	3136.4198	3142.0012	3145.9385	3149.9325	3215.2772	3232.4297	3624.7891
CC(C)(NC=O)C1CC1	CC(C)(NC=O)C1CC1	
InChI=1S/C7H13NO/c1-7(2,8-5-9)6-3-4-6/h5-6H,3-4H2,1-2H3,(H,8,9)	InChI=1S/C7H13NO/c1-7(2,8-5-9)6-3-4-6/h5-6H,3-4H2,1-2H3,(H,8,9)
