21
gdb 101183	3.35265	1.01767	0.9171	2.8119	79.25	-0.2339	0.0783	0.3122	1366.649	0.180738	-424.139336	-424.13007	-424.129125	-424.174303	34.218	
C	 0.1124748352	 1.3026053423	-0.2607807037	-0.233803
O	-0.0689667747	-0.0573321522	 0.0560648001	-0.247565
C	-1.4014206482	-0.5378674749	-0.0949922042	 0.078054
C	-1.7991293601	-0.7031898461	-1.5661772106	-0.405335
C	-1.4259373965	-1.8744019575	 0.6300567697	 0.058137
C	-1.4015044841	-2.0055499326	 2.1772373829	 0.029759
C	-2.8782683317	-1.5506116808	 2.2693596929	-0.235369
C	-2.726370723	-2.5747790749	 1.1179850946	 0.02257
O	-1.8871590772	-3.4003233284	 2.0170707175	-0.311201
H	 1.1392475623	 1.5602517238	 0.0114582948	 0.128455
H	-0.0243055209	 1.5140761274	-1.3312023986	 0.107208
H	-0.5756599143	 1.9488251848	 0.3075165169	 0.101272
H	-2.0904385595	 0.1789931961	 0.3785115521	 0.061837
H	-1.7795432865	 0.2505779855	-2.1005364758	 0.117105
H	-1.1152893007	-1.3944074242	-2.0685750984	 0.126737
H	-2.815145184	-1.1036460653	-1.6433827629	 0.118835
H	-0.7366181236	-2.5786897968	 0.1567410116	 0.088031
H	-0.5767893475	-1.8370978717	 2.8689246128	 0.097204
H	-3.4147334004	-1.9276917382	 3.1405465086	 0.109256
H	-3.1335393119	-0.5157681675	 2.0343181471	 0.097258
H	-3.4959795027	-3.0894434289	 0.5410959426	 0.091553
40.0886	71.0646	133.8211	187.1453	207.6263	252.8499	289.0298	374.216	420.0486	476.1338	559.9036	631.2495	729.7786	819.0458	857.0312	869.1349	888.0989	900.8835	924.9707	992.7392	1009.2762	1048.7915	1056.9532	1099.9846	1114.6308	1131.5074	1150.5198	1170.3652	1179.4622	1188.8809	1202.0848	1217.9584	1226.6312	1261.5287	1282.1917	1317.0862	1365.4496	1399.5705	1422.6409	1476.4117	1481.7505	1491.6576	1494.3027	1504.2772	1512.3802	2971.9487	2979.8244	3024.6284	3040.2795	3075.149	3085.5915	3108.7463	3109.4015	3110.5627	3117.8789	3128.4367	3151.1489
COC(C)C1C2CC1O2	CO[C@@H](C)[C@H]1[C@H]2C[C@@H]1O2	
InChI=1S/C7H12O2/c1-4(8-2)7-5-3-6(7)9-5/h4-7H,3H2,1-2H3	InChI=1S/C7H12O2/c1-4(8-2)7-5-3-6(7)9-5/h4-7H,3H2,1-2H3/t4-,5-,6+,7+/m0/s1
