19
gdb 69083	2.56647	1.56056	1.19642	0.7506	82.24	-0.2243	0.0481	0.2724	1096.4555	0.158244	-385.855961	-385.847316	-385.846372	-385.888686	33.852	
C	-0.0182655258	 1.5877858993	 0.0266126384	-0.46133
C	 0.1614604674	 0.0986578425	 0.0001845338	 0.410456
C	-0.6917925327	-0.8355845834	 0.8115134689	-0.394669
C	 0.8098821858	-0.7240899273	 1.1148378253	 0.099517
C	 1.7038267748	-1.729604451	 0.3910220416	-0.303249
C	 1.2019104804	-1.6592756589	-1.0662656527	-0.108412
O	 0.6302667149	-0.3641478031	-1.2402419015	-0.292641
C	 1.2493015078	-0.1540515126	 2.3488941182	 0.188012
C	 1.6246311441	 0.3296005521	 3.3856652413	-0.401549
H	 0.9029549788	 2.0858105569	-0.2896750764	 0.12938
H	-0.8229438198	 1.8908127821	-0.6507385395	 0.127738
H	-0.2661422993	 1.9231330403	 1.0362354987	 0.130509
H	-1.3562307917	-0.3891008756	 1.5423134453	 0.126262
H	-1.0600926529	-1.754991234	 0.3688820237	 0.116657
H	 2.7438630444	-1.4000445639	 0.4707429631	 0.120327
H	 1.6368005504	-2.742295291	 0.7985096858	 0.112245
H	 1.9988173825	-1.7745697222	-1.805422928	 0.115132
H	 0.4495462029	-2.436169117	-1.2597107872	 0.101437
H	 1.9550505081	 0.7522648367	 4.3016533814	 0.184179
126.4343	138.6622	188.7047	210.171	235.6135	319.2896	389.5695	435.2277	488.613	526.1707	557.8663	574.8131	645.2737	652.7296	691.9918	726.4434	830.4326	887.2689	914.5005	937.9959	954.9705	964.1004	1049.2858	1071.1301	1086.5981	1107.6814	1144.9524	1214.8645	1230.7601	1247.1541	1263.1369	1340.8814	1373.6738	1392.0346	1423.4489	1474.8145	1478.5766	1495.0296	1502.9867	1529.9628	2230.3951	3005.62	3043.5373	3056.7698	3089.0563	3105.1526	3109.9328	3131.6392	3135.5681	3226.1326	3503.6564
CC12CC1(CCO2)C#C	C[C@]12C[C@]1(CCO2)C#C	
InChI=1S/C8H10O/c1-3-8-4-5-9-7(8,2)6-8/h1H,4-6H2,2H3	InChI=1S/C8H10O/c1-3-8-4-5-9-7(8,2)6-8/h1H,4-6H2,2H3/t7-,8+/m0/s1
