20
gdb 37221	3.27687	1.50083	1.21041	1.455	85.14	-0.2198	0.0207	0.2405	1078.4134	0.174024	-365.9668	-365.959397	-365.958453	-365.998784	29.963	
C	-0.0643342687	 1.5094864839	 0.0848384069	-0.185133
C	 1.3164406528	 2.2190948552	 0.0677578076	-0.245367
C	 2.2525478369	 1.5735224943	 1.0727723809	-0.267481
C	 2.2260172406	 0.2504848599	 1.0923661911	 0.439634
C	 2.6096025456	-0.9584391798	 1.8878769669	-0.212351
N	 1.2924962264	-1.4817877724	 2.400735189	-0.331252
C	 1.7227648785	-1.8085541411	 1.0277565523	-0.081519
C	 1.3947927471	-0.5887476266	 0.1338384259	-0.065026
C	-0.0159800047	-0.0365356121	-0.1274071516	-0.23123
H	-0.5158725452	 1.7141992402	 1.0609528859	 0.107767
H	-0.7182368415	 1.9666771533	-0.6654875277	 0.088368
H	 1.7451265279	 2.1804402667	-0.9445728136	 0.102137
H	 1.1780322169	 3.2806315598	 0.2965962861	 0.096975
H	 2.839811883	 2.1807565478	 1.7548287286	 0.08538
H	 3.5280736616	-1.1981128043	 2.4082701906	 0.09678
H	 1.5163112047	-2.292139837	 2.9807718525	 0.226742
H	 1.851040489	-2.8372052476	 0.7135810975	 0.089875
H	 1.9471744273	-0.6938700607	-0.8090563611	 0.0839
H	-0.7248880806	-0.5112776833	 0.5566384157	 0.113862
H	-0.3345792673	-0.2886034263	-1.1442734134	 0.08794
67.2278	174.3349	204.4194	311.1569	383.3303	451.4791	512.4651	586.5216	633.5693	679.0113	751.5931	796.6487	822.4162	830.5778	853.379	871.3585	899.1335	940.5063	951.9956	992.3489	1011.9913	1052.2104	1066.326	1079.9989	1100.1986	1114.9957	1123.0343	1173.1665	1195.1912	1228.7154	1256.7333	1282.9526	1299.3765	1311.7686	1337.8339	1347.042	1356.6019	1373.4412	1374.3914	1480.6047	1483.3698	1500.7153	1778.85	2997.1428	3016.2535	3035.1717	3046.3607	3070.618	3075.2592	3097.4824	3170.8272	3184.4882	3199.9764	3451.2309
C1CC=C2C3NC3C2C1	C1CC=C2[C@H]3N[C@H]3[C@H]2C1	
InChI=1S/C8H11N/c1-2-4-6-5(3-1)7-8(6)9-7/h3,6-9H,1-2,4H2	InChI=1S/C8H11N/c1-2-4-6-5(3-1)7-8(6)9-7/h3,6-9H,1-2,4H2/t6-,7+,8-/m0/s1
