16
gdb 79732	2.51081	1.88128	1.50155	4.8288	67.53	-0.2205	-0.0256	0.195	912.2605	0.125013	-437.821317	-437.814254	-437.81331	-437.852715	28.2	
O	 0.1324552954	 1.4361021143	 0.2207218894	-0.425854
C	 0.005420777	 0.0659805137	 0.0240000847	 0.0282
C	-1.4062938028	-0.6213186341	 0.0537554145	-0.0897
C	-2.575573227	 0.168923866	-0.5741807186	-0.045889
N	-1.9966315245	 0.9944456654	-1.6665979294	-0.360634
C	-2.3213496461	-0.4395057519	-1.9063921645	-0.041565
C	-1.1410509266	-1.2751050932	-1.352422549	-0.186956
C	 0.2185856093	-0.5330940818	-1.4060313808	 0.377704
O	 1.0919194551	-0.4559552528	-2.2160550488	-0.299395
H	-0.3829896132	 1.8398962577	-0.4937608037	 0.296816
H	 0.6849991644	-0.4387471657	 0.7227821566	 0.113014
H	-1.6581909105	-1.227200821	 0.9214810023	 0.081529
H	-3.5026625416	 0.4621315971	-0.0981785734	 0.105825
H	-2.7482671267	 1.5497754789	-2.0713831478	 0.241652
H	-2.9982559306	-0.7146717957	-2.7049006124	 0.108281
H	-1.1754967116	-2.347767317	-1.5349114391	 0.096971
107.2752	208.399	228.6723	283.4312	387.6739	495.9455	564.8731	577.9339	630.6045	699.851	747.3219	793.4884	803.497	815.3666	869.734	898.1103	929.1936	961.8676	993.8703	1024.1999	1033.8004	1081.7339	1097.4335	1113.1782	1149.4993	1176.9542	1192.7181	1216.0187	1249.2253	1285.2375	1302.6322	1329.7044	1370.9625	1448.1535	1896.4342	3035.9816	3133.4548	3141.9535	3190.3541	3203.8871	3490.8944	3712.8254
OC1C2C3NC3C2C1=O	O[C@H]1[C@H]2[C@H]3N[C@H]3[C@H]2C1=O	
InChI=1S/C6H7NO2/c8-5-1-2(6(5)9)4-3(1)7-4/h1-5,7-8H	InChI=1S/C6H7NO2/c8-5-1-2(6(5)9)4-3(1)7-4/h1-5,7-8H/t1-,2+,3-,4+,5+/m1/s1
