21
gdb 121247	3.33918	0.81082	0.70156	2.6159	75.65	-0.2473	0.0677	0.315	1638.9889	0.1813	-461.320517	-461.310409	-461.309465	-461.35691	35.251	
C	-0.2756553146	 1.3550278264	 0.1292109176	-0.228499
O	-0.2287712778	-0.040283895	-0.0549634566	-0.235976
C	 0.8058722069	-0.4481532155	-0.9247413403	-0.082851
C	 0.7213619329	-1.9579836413	-1.042707182	-0.073149
C	-0.4359959458	-2.5427612892	-1.8775945706	-0.072705
O	 0.4805404597	-3.2924302127	-2.7101954324	-0.308885
C	 1.6344755433	-2.7154975028	-2.0422522828	 0.095743
C	 2.4762406101	-1.9566687779	-3.0588697384	-0.069953
O	 2.8633776237	-2.8360169661	-4.0967250707	-0.423754
H	 0.6583955163	 1.7401056494	 0.5679417934	 0.105922
H	-0.4532802735	 1.887174048	-0.8187188289	 0.105871
H	-1.1007799595	 1.5669547901	 0.8132507365	 0.13009
H	 0.6876585071	 0.0364478545	-1.9081825661	 0.089979
H	 1.7893127015	-0.1415973568	-0.5273828882	 0.090077
H	 0.7689304932	-2.3821752385	-0.0374553121	 0.09442
H	-1.1348636565	-3.2005408218	-1.3506970134	 0.110503
H	-1.0071347798	-1.8044404116	-2.454811855	 0.103477
H	 2.2489638037	-3.506453283	-1.5941938868	 0.085759
H	 1.9139395769	-1.0977078182	-3.4572418137	 0.083175
H	 3.394265787	-1.5760594512	-2.5971730171	 0.106909
H	 2.0483701753	-3.2620275768	-4.3919407924	 0.293843
54.7755	70.29	103.4674	107.5862	114.5348	216.0527	233.3495	293.9762	343.5489	427.4654	477.551	492.2376	523.9313	788.2776	849.2165	890.0779	921.0134	942.8479	985.5355	1013.5645	1045.4441	1080.5465	1111.5909	1135.1287	1152.7697	1158.9777	1173.6384	1193.439	1211.2115	1226.6645	1257.2508	1266.2423	1294.1144	1333.9306	1349.0386	1377.9343	1401.502	1430.9732	1439.4317	1481.3633	1485.8832	1499.2053	1503.6611	1522.4424	1533.1999	2947.3852	2972.2272	2973.8863	2987.6748	3015.927	3018.9641	3027.5197	3069.1637	3069.3275	3092.5313	3116.4632	3775.6918
COCC1COC1CO	COC[C@H]1CO[C@H]1CO	
InChI=1S/C6H12O3/c1-8-3-5-4-9-6(5)2-7/h5-7H,2-4H2,1H3	InChI=1S/C6H12O3/c1-8-3-5-4-9-6(5)2-7/h5-7H,2-4H2,1H3/t5-,6-/m0/s1
