19
gdb 14426	3.99766	1.8759	1.682	0.7427	75.69	-0.2025	0.0948	0.2974	875.5479	0.165861	-327.86004	-327.852644	-327.8517	-327.891128	29.171	
C	-0.044964813	 1.5341654978	 0.0131264244	-0.326855
N	 0.0957256862	 0.0846985665	 0.0164172544	-0.075519
C	 0.765369514	-0.569890623	-1.0997413178	-0.070174
C	 2.2996584794	-0.6114528531	-0.8287676922	-0.137449
C	 2.5042786269	 0.0452628302	 0.5325154547	-0.249098
C	 1.1118476611	-0.5548968675	 0.8992013328	-0.070969
C	 1.3458917168	-1.6396584141	-0.2363391268	 0.334205
C	 1.2793815177	-3.1297168576	-0.2579633141	-0.531615
H	 0.8733158177	 2.089319	-0.2343537712	 0.100488
H	-0.8101806403	 1.811855775	-0.7199573159	 0.117268
H	-0.3930375708	 1.8632932779	 0.9982505953	 0.115737
H	 0.3422952374	-0.631374865	-2.0960754263	 0.087156
H	 3.0186546521	-0.7585395763	-1.625736827	 0.078867
H	 3.29270833	-0.4604207844	 1.0967708731	 0.099013
H	 2.6443042194	 1.1290009841	 0.605917224	 0.088101
H	 0.8204181771	-0.7246179113	 1.9357462154	 0.070318
H	 0.2927865588	-3.4899652525	 0.0547754416	 0.128116
H	 1.4670264025	-3.5088130295	-1.268574211	 0.122552
H	 2.0266866671	-3.5794485073	 0.4061725864	 0.119859
160.4733	197.5108	209.8072	227.3802	299.3878	332.379	483.8114	575.2118	626.6269	664.355	741.6064	783.1839	860.9052	877.4853	905.3949	921.8163	965.4952	973.2122	1012.3989	1022.7778	1066.6909	1111.5565	1119.0013	1132.7097	1156.5304	1167.737	1173.4518	1214.5615	1237.1573	1244.075	1268.7109	1325.9153	1410.6942	1443.2612	1466.2529	1481.7046	1484.7434	1495.1744	1499.2697	1517.6572	2978.9585	3021.3967	3041.408	3059.9201	3081.0788	3091.3819	3094.9159	3096.5451	3114.3145	3176.481	3190.303
CN1C2C3CC1C23C	CN1[C@H]2[C@H]3C[C@@H]1[C@@]23C	
InChI=1S/C7H11N/c1-7-4-3-5(7)8(2)6(4)7/h4-6H,3H2,1-2H3	InChI=1S/C7H11N/c1-7-4-3-5(7)8(2)6(4)7/h4-6H,3H2,1-2H3/t4-,5-,6+,7+/m1/s1
