16
gdb 14804	2.55368	2.07527	1.30549	0.9194	76.03	-0.2511	0.0361	0.2872	950.4122	0.128743	-309.388089	-309.380005	-309.379061	-309.420499	30.434	
C	-0.5379983136	-1.0977574899	-0.6130531839	-0.443604
C	-0.3041507361	 0.0279771669	-0.2610418216	 0.323704
C	-0.0219539635	 1.375815737	 0.1759527528	-0.169959
C	 0.2420065603	 1.6568128672	 1.6874825191	-0.219034
C	 1.3137677499	 2.6960082866	 1.279073764	-0.229211
C	 1.3827052872	 2.0422910655	-0.1432972102	-0.201198
C	 2.4811422223	 1.1139914951	-0.3140197401	 0.363109
C	 3.4009221512	 0.3504519268	-0.4435708216	-0.484136
H	-0.7396241062	-2.0917308943	-0.9268418713	 0.193774
H	-0.7980460544	 2.0556480082	-0.1917780875	 0.107406
H	-0.6090715737	 1.998277497	 2.2793455442	 0.106828
H	 0.6870308244	 0.7838500931	 2.1690040432	 0.125788
H	 0.9101162098	 3.7101867787	 1.2224104314	 0.106697
H	 2.2442166462	 2.7116991787	 1.8465983069	 0.117335
H	 1.3548416793	 2.742325377	-0.9829406018	 0.105947
H	 4.2083289969	-0.3279989733	-0.5657614837	 0.196555
86.1586	108.2892	182.8668	203.4548	263.3598	416.7556	472.3561	510.0071	586.5585	617.3431	623.4665	628.9306	634.783	682.6589	749.4889	801.4915	902.0533	933.3053	956.204	1012.6906	1067.0872	1090.799	1102.3995	1195.4419	1230.2243	1237.9373	1265.3496	1271.1196	1334.1735	1360.3873	1481.5322	1495.9906	2234.3873	2235.9181	3044.6607	3062.0952	3072.4871	3076.4785	3127.5276	3141.8552	3505.5815	3506.1431
C#CC1CCC1C#C	C#C[C@H]1CC[C@H]1C#C	
InChI=1S/C8H8/c1-3-7-5-6-8(7)4-2/h1-2,7-8H,5-6H2	InChI=1S/C8H8/c1-3-7-5-6-8(7)4-2/h1-2,7-8H,5-6H2/t7-,8+
