17
gdb 99592	2.34324	1.13071	0.81481	1.8471	71.26	-0.2637	-0.042	0.2217	1361.8403	0.131858	-458.923148	-458.913011	-458.912067	-458.958673	35.812	
O	-0.0704334757	 1.4824941435	-0.0090648926	-0.418857
C	 0.0203281323	 0.0703639642	 0.0031400333	-0.08317
C	-1.4135483945	-0.4837526593	-0.0346583153	-0.195458
C	-2.0967071527	-0.1287513738	-1.2755838065	 0.333845
C	-2.6484230027	 0.1153375039	-2.3153783601	-0.461764
C	-1.3900927365	-2.0295028431	 0.1632818015	 0.026617
O	-0.6992275876	-2.376812069	 1.3281834032	-0.429185
C	-2.8010265591	-2.591726348	 0.2156830146	 0.135362
O	-3.171784578	-3.2409161439	 1.1649157575	-0.265561
H	 0.819236295	 1.8401869106	 0.0617084434	 0.29121
H	 0.5750237597	-0.310977949	-0.868674282	 0.092068
H	 0.5043497825	-0.303409915	 0.9133398252	 0.120693
H	-1.9471224825	-0.0437816854	 0.8179084344	 0.12505
H	-3.1386001395	 0.3589751678	-3.2255653083	 0.201479
H	-0.9021998868	-2.4680903105	-0.7255389447	 0.105863
H	-1.3316745322	-2.8884087781	 1.8604266961	 0.296573
H	-3.4570397917	-2.3769989148	-0.6459983995	 0.125235
61.2451	93.8442	119.5846	140.5006	179.8155	221.1158	235.2415	321.1717	339.6264	361.2096	448.8091	500.2915	507.5046	570.5412	642.8492	650.9297	772.9333	827.9711	870.6559	966.4735	1052.3979	1065.9462	1087.361	1103.6817	1159.6175	1216.0075	1245.6225	1277.9611	1280.5583	1339.1847	1355.3282	1389.5532	1440.4354	1451.904	1524.7063	1807.8249	2234.4642	2953.0471	2979.3681	2993.7244	3032.5617	3056.5609	3502.835	3660.5663	3835.3408
OCC(C#C)C(O)C=O	OC[C@@H](C#C)[C@@H](O)C=O	
InChI=1S/C6H8O3/c1-2-5(3-7)6(9)4-8/h1,4-7,9H,3H2	InChI=1S/C6H8O3/c1-2-5(3-7)6(9)4-8/h1,4-7,9H,3H2/t5-,6+/m1/s1
