15
gdb 67772	3.21094	1.6671	1.3484	2.4808	69.35	-0.2226	-0.0177	0.205	930.5277	0.112551	-420.607892	-420.601025	-420.60008	-420.638806	28.025	
O	-0.0830522862	 1.3381545755	-0.0366949759	-0.476743
C	-0.0092088902	-0.0455198463	-0.0602848764	 0.395035
C	 0.9535445672	-0.75852164	-0.9681822013	-0.171677
C	 0.5118238212	-1.9990792541	-1.181938706	-0.086165
C	-0.7282482065	-2.2372488111	-0.3465242924	-0.233466
C	-1.2753136832	-0.8128061605	-0.0225939021	-0.111957
C	-0.4074001837	-0.76289863	 1.2704469187	-0.275444
C	-0.2772979009	-2.240527407	 1.1608354932	 0.437253
O	-0.1255790727	-3.1258106791	 1.9539813046	-0.32947
H	 0.6827030163	 1.6779693842	 0.4389567689	 0.292763
H	 1.864183223	-0.3034430781	-1.3349070991	 0.107869
H	 1.0135768289	-2.7839991976	-1.7318396944	 0.118801
H	-1.4033992325	-3.0368252611	-0.644792783	 0.096965
H	-2.2758287751	-0.4253305133	-0.1563542868	 0.12224
H	-0.5456763155	-0.1754116014	 2.1688642222	 0.113996
143.7132	249.3953	299.1905	361.2879	375.438	437.8611	504.62	580.5836	617.6399	695.3143	734.126	781.0021	801.5355	819.3403	838.8894	877.9003	915.5375	929.3741	951.5559	961.1151	986.5381	1075.8899	1097.1101	1118.3786	1146.4128	1211.2036	1228.8741	1259.6472	1289.3993	1355.7127	1420.0193	1648.1725	1869.6675	3142.7116	3205.7576	3212.6644	3219.3667	3236.9172	3804.4559
OC12C=CC3C1C2C3=O	O[C@]12C=C[C@@H]3[C@H]1[C@H]2C3=O	
InChI=1S/C7H6O2/c8-6-3-1-2-7(9)4(3)5(6)7/h1-5,9H	InChI=1S/C7H6O2/c8-6-3-1-2-7(9)4(3)5(6)7/h1-5,9H/t3-,4+,5+,7-/m1/s1
