19
gdb 61417	2.99567	0.9753	0.8142	7.2145	75.39	-0.2407	0.0084	0.2491	1434.5441	0.15751	-456.402164	-456.391923	-456.390979	-456.437721	36.782	
C	 0.0947538791	 1.5288864484	 0.1158686171	-0.388008
C	-0.0020676633	-0.0071375183	 0.0931032471	-0.141199
N	-1.374124959	-0.4893080379	 0.0890953927	-0.292322
C	-2.0517380928	-0.5796085448	 1.172070469	 0.372435
C	-3.4647858789	-1.1023281524	 1.1238940416	-0.463945
N	-1.6241661418	-0.1964998873	 2.4202146031	-0.534242
H	-2.1310342288	-0.5317276691	 3.2223093372	 0.26136
H	-0.6446697121	-0.020760746	 2.5729642316	 0.2659
C	 0.6993500852	-0.5349727271	-1.1782974997	 0.430332
O	 1.8672736887	-0.3480776118	-1.3987878159	-0.356166
O	-0.1121932178	-1.1993973455	-2.0049339094	-0.367178
H	 1.1384881668	 1.829530752	 0.0035494653	 0.148248
H	-0.4847114562	 1.9524008975	-0.709540418	 0.13163
H	-0.2995461494	 1.9361022669	 1.0509002897	 0.11286
H	 0.5848867662	-0.4138961193	 0.9333537259	 0.087465
H	-0.9874753852	-1.1826013289	-1.5504758836	 0.302574
H	-3.73664839	-1.321411907	 0.0926234561	 0.152013
H	-3.560745763	-2.0167896621	 1.7206056932	 0.135621
H	-4.1639299078	-0.3652937574	 1.5329159473	 0.142621
65.9113	83.7392	113.7046	138.3376	172.4015	231.8203	251.6782	323.8652	360.0641	380.0106	425.0629	463.6197	500.2348	597.8571	625.1368	654.1952	741.0421	836.3803	844.1544	871.5897	933.669	1003.7394	1057.4079	1058.9647	1094.5877	1115.549	1182.7508	1237.6353	1304.8199	1340.92	1356.265	1398.6602	1413.8198	1450.1895	1478.1441	1483.2772	1491.9798	1502.2149	1648.4049	1738.8688	1865.6939	2961.7795	3039.1506	3048.4319	3096.5104	3118.9806	3140.5718	3167.7839	3411.6183	3601.4229	3714.3062
CC(NC(C)=[NH2+])C([O-])=O	C[C@@H](N=C(C)N)C(=O)O	
InChI=1S/C5H10N2O2/c1-3(5(8)9)7-4(2)6/h3H,1-2H3,(H2,6,7)(H,8,9)	InChI=1S/C5H10N2O2/c1-3(5(8)9)7-4(2)6/h3H,1-2H3,(H2,6,7)(H,8,9)/t3-/m1/s1
