19
gdb 78330	2.86835	1.3952	1.19397	1.8056	74.31	-0.2265	0.0644	0.2908	1095.2521	0.158301	-422.957089	-422.948863	-422.947919	-422.989249	33.044	
O	 0.1411283005	 1.2854165711	-0.0736977596	-0.445631
C	 0.0233830294	-0.1074054567	 0.0097249097	 0.143522
C	-0.4432611035	-0.6992281899	 1.3102780217	-0.134944
C	-1.3546225371	-0.6961026618	 0.0555158846	-0.159682
C	-1.3612782007	-2.2363985366	 0.0525437481	 0.42158
O	-2.6759061614	-2.7057954618	 0.0437518681	-0.48459
C	-0.2729459033	-3.0074399483	-0.7605737856	-0.306716
C	 0.6676383539	-2.9863360087	 0.4910721589	-0.245694
C	-0.4303144258	-2.2432348817	 1.3122594709	-0.09999
H	-0.5835295457	 1.6853864836	 0.4190513151	 0.284185
H	 0.8202324827	-0.5557574573	-0.5749224237	 0.102937
H	-0.4903255127	-0.0764831959	 2.1977561676	 0.082861
H	-2.2320788407	-0.1027426606	-0.1786501072	 0.089103
H	-2.6571261127	-3.6618580506	 0.1603721368	 0.276659
H	-0.6069213037	-4.0160020437	-1.0260398426	 0.090232
H	 0.0939807603	-2.5258438777	-1.6705981283	 0.108137
H	 0.8967862685	-3.9821000255	 0.8770751915	 0.098403
H	 1.6096683179	-2.448053527	 0.3679285682	 0.108862
H	-0.7626855158	-2.698798211	 2.2457539657	 0.070765
171.9429	189.2964	199.7673	244.1242	292.6656	311.4522	353.3066	392.1935	456.4285	499.6108	604.8152	705.3723	737.2701	795.331	824.3111	854.3989	888.0305	916.201	934.6272	943.527	987.7542	1022.247	1056.847	1071.7989	1096.9687	1098.794	1105.3044	1119.7709	1136.0371	1203.6082	1215.4348	1233.1613	1250.3753	1268.5407	1296.1879	1309.8357	1346.1929	1392.754	1455.8272	1472.5941	1493.6105	3045.4454	3069.1669	3096.9186	3104.3515	3121.6785	3157.0443	3159.5788	3171.8034	3802.8571	3808.8933
OC1C2C1C1(O)CCC21	O[C@H]1[C@H]2[C@@H]1[C@@]1(O)CC[C@@H]21	
InChI=1S/C7H10O2/c8-6-4-3-1-2-7(3,9)5(4)6/h3-6,8-9H,1-2H2	InChI=1S/C7H10O2/c8-6-4-3-1-2-7(3,9)5(4)6/h3-6,8-9H,1-2H2/t3-,4+,5-,6-,7+/m0/s1
