17
gdb 117071	4.63769	0.73046	0.63853	0.6412	66.6	-0.2536	-0.0713	0.1823	1697.6193	0.132267	-496.131245	-496.120776	-496.119832	-496.168502	34.652	
C	 0.2903679533	 1.4039754761	 0.09132115	-0.243057
O	 0.2432925383	-0.0294869162	 0.0318747865	-0.208258
C	 0.8485339368	-0.5752678659	-1.021804096	 0.381955
O	 1.4129367476	 0.0330601184	-1.8974710542	-0.349775
C	 0.746570255	-2.1196521458	-1.0011015968	 0.249755
O	 0.1742469877	-2.6935393291	-0.1089626635	-0.278894
C	 1.4123057468	-2.8036329738	-2.1683036813	-0.278773
C	 1.2909425338	-4.3185511933	-2.1109528855	-0.080486
O	 1.9519443763	-4.8311310995	-3.2566066732	-0.422798
H	 1.3261171169	 1.75056873	 0.1293970543	 0.146223
H	-0.1947577237	 1.8384243342	-0.7863428883	 0.146176
H	-0.241632645	 1.6790438045	 1.0011268546	 0.143829
H	 0.9823040608	-2.4135027063	-3.0992234671	 0.150246
H	 2.4654015546	-2.4980283747	-2.2038515154	 0.15021
H	 1.7407356671	-4.6903557845	-1.1788107619	 0.102339
H	 0.2289941222	-4.6035929015	-2.08978465	 0.10239
H	 1.8861708913	-5.7901395426	-3.2353537523	 0.288916
31.5008	65.6305	95.3679	112.8011	123.944	157.1405	234.4349	273.7424	301.4346	340.5974	395.2297	437.4691	522.3086	687.2017	753.6799	820.3606	856.0993	953.4854	1035.2614	1065.0769	1067.4221	1109.8462	1177.7274	1201.4429	1209.9135	1252.8757	1294.2365	1296.1927	1364.2766	1436.3895	1469.8335	1473.5156	1483.0265	1493.2835	1523.0398	1807.0396	1818.2233	2991.4005	3019.4808	3045.6686	3054.1952	3075.1863	3129.5031	3168.7703	3833.1598
COC(=O)C(=O)CCO	COC(=O)C(=O)CCO	
InChI=1S/C5H8O4/c1-9-5(8)4(7)2-3-6/h6H,2-3H2,1H3	InChI=1S/C5H8O4/c1-9-5(8)4(7)2-3-6/h6H,2-3H2,1H3
