19
gdb 23119	1.96207	1.53897	0.91899	1.9583	84.66	-0.1833	-0.0061	0.1772	1286.6745	0.159465	-419.187307	-419.178142	-419.177198	-419.221304	34.208	
C	-0.2514827302	 1.5399955411	-0.0628915072	-0.372125
C	 0.0998947973	 0.0445518963	 0.0265844378	-0.302961
C	 0.7626012311	-0.487309115	-1.2075543927	 0.203536
C	 2.019286131	-0.9722209703	-1.3409283759	-0.113636
N	 2.2936707458	-1.5093653018	-2.5931108375	-0.316714
C	 1.1589125445	-1.1915906916	-3.4703793703	-0.25982
C	 0.1298190586	-0.6182622414	-2.5122568827	 0.337491
N	-1.0905945578	-0.3218524369	-2.7733109387	-0.268121
O	-1.3612652633	-0.5677350359	-4.1408308946	-0.402191
H	 0.6494255609	 2.1455469106	-0.2060186381	 0.107098
H	-0.9226855782	 1.7243959263	-0.9050996173	 0.140475
H	-0.7467717283	 1.8774959649	 0.8531171677	 0.105277
H	 0.7527743458	-0.1321725648	 0.889249246	 0.092259
H	-0.8226139939	-0.5211421336	 0.2113537211	 0.112026
H	 2.7804146367	-1.0254984539	-0.5717227397	 0.119852
H	 3.2188536459	-1.3585412741	-2.968104987	 0.241111
H	 1.4218850528	-0.4579004513	-4.2431601157	 0.131874
H	 0.7742339195	-2.0796379135	-3.9826892623	 0.141176
H	-2.2928746182	-0.3349835153	-4.2070131429	 0.303395
69.0703	135.9847	157.4595	171.4226	240.1987	276.7989	313.9459	356.7995	387.6082	471.8791	537.4356	552.7825	588.5229	658.5444	728.1152	787.3741	865.3027	896.9425	946.9675	978.5251	980.6018	1014.5014	1056.3099	1091.7291	1128.1385	1161.2521	1184.0786	1244.8047	1281.2914	1325.4256	1348.8467	1370.1774	1401.8618	1422.0892	1440.5798	1477.7422	1482.2606	1496.5221	1511.4191	1669.389	1709.6498	3018.7358	3028.6637	3037.4149	3058.7271	3070.8692	3103.295	3128.2782	3210.2607	3594.6687	3825.8982
CCC1=CNCC1=NO	CCC1=C(CN[CH]1)[N]O	
InChI=1S/C6H10N2O/c1-2-5-3-7-4-6(5)8-9/h3,7,9H,2,4H2,1H3	InChI=1S/C6H10N2O/c1-2-5-3-7-4-6(5)8-9/h3,7,9H,2,4H2,1H3
