19
gdb 126228	3.15714	1.2062	0.92455	4.9044	79.85	-0.2139	0.0175	0.2313	1303.5043	0.159691	-415.395284	-415.385572	-415.384627	-415.430564	34.331	
C	-0.386787732	 1.6073676713	 0.1051849702	-0.363519
C	 0.1594545347	 0.1806701702	-0.0588536495	-0.297132
C	 0.9262348475	-0.2927011313	 1.1370464628	 0.280509
C	 2.2109772474	-0.7968258453	 1.2234843625	 0.200636
N	 3.1904269207	-1.1117667205	 0.2767104339	-0.612969
N	 2.3835022562	-1.0718421731	 2.5413735076	 0.033696
C	 3.5393302095	-1.6354930579	 3.1991310588	-0.336815
N	 1.2712828652	-0.7406014976	 3.2457716397	-0.170124
N	 0.399261734	-0.2879753758	 2.395711132	-0.262043
H	 0.4278378641	 2.3287653416	 0.2243989789	 0.111382
H	-0.9809839102	 1.9013642748	-0.7655588858	 0.105631
H	-1.0184434533	 1.6685200502	 0.9946569525	 0.146772
H	-0.6754925212	-0.5034461792	-0.2574389945	 0.119534
H	 0.8056566815	 0.132103699	-0.9453330745	 0.080743
H	 2.8629790605	-0.937241788	-0.6647986562	 0.255816
H	 4.0625748003	-0.6126792349	 0.4167390716	 0.252718
H	 4.3471527258	-0.9011374901	 3.2948137081	 0.134934
H	 3.2272020516	-1.9502271852	 4.1948977357	 0.167949
H	 3.9051804378	-2.4956179583	 2.6319284562	 0.152284
35.2903	107.6689	117.3418	182.4316	191.2336	222.6548	263.0258	282.768	295.9277	391.6703	519.07	598.8314	668.8046	720.828	746.3504	766.8188	792.9819	807.126	973.0217	1022.6109	1053.1646	1064.3347	1093.2856	1152.6833	1216.4689	1243.1815	1261.1419	1309.0271	1334.7889	1360.7593	1393.0593	1409.218	1439.5323	1479.7914	1484.8765	1495.0634	1506.6175	1508.2589	1542.8544	1620.5397	1661.9028	3014.1717	3035.4563	3039.1382	3044.3183	3103.8448	3107.2275	3128.7308	3161.4578	3513.5407	3611.3624
CCC1=C(N)N(C)N=N1	CCc1c(N)n(C)nn1	
InChI=1S/C5H10N4/c1-3-4-5(6)9(2)8-7-4/h3,6H2,1-2H3	InChI=1S/C5H10N4/c1-3-4-5(6)9(2)8-7-4/h3,6H2,1-2H3
