17
gdb 29190	3.09691	1.35333	0.94795	5.2816	81.13	-0.1978	-0.0141	0.1837	1195.6563	0.138197	-418.091852	-418.083674	-418.08273	-418.124127	32.082	
C	 0.0006599186	 1.5482874452	 0.0083560874	-0.519725
C	 0.0060621665	 0.0441198615	 0.0016664152	 0.197569
C	-0.0497210997	-0.6655031546	-1.1565692232	-0.033077
N	-0.0317346867	-2.0235291086	-1.1750394851	-0.378255
C	 0.0443531846	-2.8457789137	-0.027299807	 0.430765
O	 0.0510554434	-4.0618780314	-0.1574101928	-0.419951
C	 0.0984426364	-2.0922218289	 1.1947277049	-0.365711
C	 0.0862139875	-0.7173629212	 1.2269224568	 0.303446
N	 0.2044439946	-0.0257088262	 2.4174814185	-0.581388
H	 0.893043127	 1.957421161	 0.4976079283	 0.136973
H	-0.0267153905	 1.9404518112	-1.0116435386	 0.127517
H	-0.8731200598	 1.9604332374	 0.5323518583	 0.12276
H	-0.1096811793	-0.1777170538	-2.1232340444	 0.123335
H	-0.0736367378	-2.5278329385	-2.048528633	 0.255522
H	 0.1543244115	-2.6707323848	 2.109783973	 0.09122
H	 0.0316689928	-0.5566502526	 3.2571534337	 0.256128
H	-0.1798154192	 0.9050186181	 2.4474410379	 0.252871
119.6129	197.3046	210.2806	290.1227	305.5373	355.3542	393.9863	428.0566	450.4399	519.957	530.3431	570.3546	636.8151	725.0415	742.2045	744.8248	776.1024	850.633	889.7407	926.1564	1017.7705	1066.1278	1102.5573	1188.2909	1228.7417	1246.1238	1277.2332	1357.8935	1419.9469	1444.2413	1481.9671	1486.5538	1514.0246	1579.5359	1654.4818	1699.0698	1777.2877	3005.4893	3055.8038	3110.8318	3191.5945	3195.1841	3585.7992	3620.758	3691.4332
CC1=CNC(=O)C=C1N	Cc1c[nH]c(=O)cc1N	
InChI=1S/C6H8N2O/c1-4-3-8-6(9)2-5(4)7/h2-3H,1H3,(H3,7,8,9)	InChI=1S/C6H8N2O/c1-4-3-8-6(9)2-5(4)7/h2-3H,1H3,(H3,7,8,9)
