23
gdb 120035	2.35541	1.13899	0.89782	2.2405	82.81	-0.2419	0.0769	0.3188	1430.1575	0.203217	-425.414772	-425.404187	-425.403242	-425.451074	38.034	
C	 0.1035498071	 1.4983610957	-0.0542215167	-0.386716
C	 0.0732791458	-0.0041961043	 0.1650913339	-0.042324
O	-1.2144198218	-0.4819640896	-0.1910051934	-0.246079
C	-1.3664459319	-1.871555201	-0.0906220084	 0.04585
C	-1.9347116594	-2.4372854595	 1.2466871854	 0.130936
C	-2.1634228379	-1.4866517542	 2.4042291778	-0.404159
O	-3.1716418095	-2.8056562963	 0.590075822	-0.315066
C	-2.6888379953	-2.3842042565	-0.70809903	 0.122485
C	-3.6078374217	-1.3873183829	-1.384340609	-0.392646
H	 1.0896513181	 1.8998515458	 0.1975291564	 0.116261
H	-0.1139676656	 1.7372932688	-1.0990221	 0.128104
H	-0.6430267677	 1.993629582	 0.5729860762	 0.128697
H	 0.8371418088	-0.5037811259	-0.4533747003	 0.090748
H	 0.298864966	-0.2444979125	 1.215328861	 0.093222
H	-0.4624199266	-2.3807331742	-0.4506470158	 0.065701
H	-1.401405035	-3.3368230634	 1.5868700017	 0.064883
H	-2.5626311873	-0.533430335	 2.0503268611	 0.12903
H	-2.8805008113	-1.9303919561	 3.1017932702	 0.125947
H	-1.2319420429	-1.2990375405	 2.9495075233	 0.109891
H	-2.5337334349	-3.2575513127	-1.3575601707	 0.06966
H	-3.7171205441	-0.4834523309	-0.7824768698	 0.130383
H	-3.2120307042	-1.1049734696	-2.3652138409	 0.114588
H	-4.5937484788	-1.8404250872	-1.5273691239	 0.120603
50.1043	64.8322	98.9889	139.9691	203.9089	210.8325	227.1747	260.6354	276.8909	367.7936	394.0713	403.2493	526.0339	568.5513	761.1697	807.9578	821.5537	870.3357	888.1461	909.8579	944.3568	1002.8235	1024.1438	1076.7292	1090.9671	1115.3364	1135.8881	1146.4697	1172.2048	1188.441	1201.471	1257.0891	1281.5132	1297.4612	1336.4366	1358.6051	1373.0372	1395.4919	1400.4059	1404.1686	1414.8776	1444.4303	1480.6167	1483.1463	1486.1077	1488.1673	1494.3853	1499.9697	1527.9264	2967.3485	2989.769	2992.7932	3001.8933	3016.9202	3038.2726	3044.3367	3045.6088	3104.831	3110.9229	3120.1802	3122.9392	3130.6672	3140.6451
CCOC1C(C)OC1C	CCO[C@H]1[C@@H](C)O[C@H]1C	
InChI=1S/C7H14O2/c1-4-8-7-5(2)9-6(7)3/h5-7H,4H2,1-3H3	InChI=1S/C7H14O2/c1-4-8-7-5(2)9-6(7)3/h5-7H,4H2,1-3H3/t5-,6+,7+
