17
gdb 48910	3.08969	1.58219	1.32159	2.7933	77.21	-0.2236	-0.0369	0.1867	986.5839	0.136668	-384.639705	-384.632693	-384.631749	-384.671345	27.825	
O	-0.0318686221	-0.042033839	 0.0572455515	-0.248197
C	 0.0361340178	 1.1626268644	 0.0055286813	 0.020226
C	 1.312013947	 1.9299331131	 0.0033913841	 0.266555
C	 2.7553075988	 1.3935605265	 0.062575222	-0.294427
C	 2.9083488401	 2.9322624561	-0.0018141606	-0.051849
C	 1.753731387	 3.0184815315	-1.0673618096	-0.100573
C	 0.9665884471	 4.2879710252	-0.7775186163	-0.110338
C	 0.9338970426	 4.3469717795	 0.5551338392	-0.110339
C	 1.7031222348	 3.109686601	 0.9941101114	-0.10059
H	-0.8819350637	 1.7900002605	-0.0453142372	 0.077426
H	 3.0544122967	 0.9056828747	 0.9932096323	 0.102212
H	 3.0985667012	 0.8259974803	-0.8055296835	 0.102213
H	 3.8298629354	 3.5199000361	-0.0051964093	 0.076565
H	 1.9361269936	 2.6979578397	-2.0935688319	 0.075869
H	 0.5488578842	 4.9626419078	-1.5111402617	 0.109688
H	 0.4822385079	 5.0828810553	 1.2049931744	 0.10969
H	 1.8343504117	 2.8814417973	 2.0523131339	 0.075867
78.2576	151.4365	253.1407	330.0019	423.7692	504.2926	505.8049	648.037	712.483	750.8675	752.1042	786.5527	830.2772	891.4212	909.6102	914.4638	935.353	958.6763	990.6979	1021.0924	1050.113	1051.0311	1069.1093	1124.9439	1138.9866	1139.7218	1198.6294	1199.0898	1216.8348	1255.3953	1307.0453	1317.3796	1328.0063	1422.4073	1519.5487	1634.3425	1809.889	2880.4599	3061.6811	3084.1489	3115.9245	3119.5829	3123.0068	3224.0262	3250.6801
O=CC12CC3C1C=CC23	O=C[C@@]12C[C@H]3[C@@H]1C=C[C@@H]23	
InChI=1S/C8H8O/c9-4-8-3-5-6(8)1-2-7(5)8/h1-2,4-7H,3H2	InChI=1S/C8H8O/c9-4-8-3-5-6(8)1-2-7(5)8/h1-2,4-7H,3H2/t5-,6-,7+,8-
