21
gdb 105541	2.57883	1.3191	1.07203	2.8735	78.	-0.2638	0.0678	0.3316	1204.0318	0.181819	-424.183902	-424.174635	-424.173691	-424.217962	34.691	
O	 0.0562512086	 1.4932987211	-0.1933579288	-0.42364
C	 0.1199555113	 0.0766492068	-0.116849805	-0.138309
C	-1.2911680701	-0.4840121043	 0.0382597894	 0.320917
C	-2.1125051289	 0.1766231338	 1.1902173193	-0.267197
C	-2.9106416362	 0.9927110582	 0.1386402791	-0.202
C	-2.3173375724	 0.105357222	-0.9873786173	-0.259998
C	-1.2036121149	-1.9934530308	 0.0438917299	-0.001673
C	-1.0916452992	-2.7948855644	 1.2697625402	-0.186546
O	-2.3242054237	-2.7216576189	 0.5482393376	-0.239882
H	 0.950415737	 1.8301091283	-0.2966447076	 0.289771
H	 0.5814622873	-0.3433216318	-1.0268025991	 0.08353
H	 0.732687899	-0.2436621777	 0.7420481315	 0.08693
H	-2.7335068151	-0.558247273	 1.7069058001	 0.112729
H	-1.536635015	 0.7499665742	 1.9198425035	 0.09607
H	-3.9978576102	 0.9819725307	 0.242175979	 0.091731
H	-2.5670732712	 2.0256289549	 0.0710321657	 0.114191
H	-1.8904705844	 0.6265447224	-1.8468243151	 0.100226
H	-3.0158643365	-0.657733308	-1.3404981315	 0.106268
H	-0.7890476293	-2.4238360374	-0.8717287498	 0.087591
H	-0.5924059087	-3.7624208115	 1.2454971926	 0.114807
H	-1.0925051772	-2.2958725146	 2.2377349162	 0.114484
87.4013	117.8797	124.4094	190.5091	218.2279	239.313	265.3099	317.8774	396.0281	469.0201	549.193	606.7911	723.6305	786.1839	843.8378	863.1023	880.3969	910.2999	934.0037	956.7221	970.4367	1003.4295	1074.732	1083.6011	1099.1574	1133.4642	1158.7685	1170.1494	1177.9499	1201.2864	1222.3713	1262.5576	1268.4766	1272.3193	1278.1119	1292.3816	1300.8795	1327.7768	1430.3772	1457.1954	1462.0595	1471.2069	1499.4992	1513.2992	1527.3217	2950.3002	2981.1692	3060.1989	3065.2829	3070.7035	3074.8047	3085.4337	3111.5928	3121.5701	3139.3517	3171.0019	3838.7751
OCC1(CCC1)C1CO1	OCC1(CCC1)[C@H]1CO1	
InChI=1S/C7H12O2/c8-5-7(2-1-3-7)6-4-9-6/h6,8H,1-5H2	InChI=1S/C7H12O2/c8-5-7(2-1-3-7)6-4-9-6/h6,8H,1-5H2/t6-/m1/s1
