21
gdb 59673	2.53393	1.34184	0.9842	2.3836	78.63	-0.2235	0.0642	0.2877	1258.8153	0.180726	-424.18982	-424.180348	-424.179404	-424.224192	35.753	
C	 0.0745344354	 1.5013450101	-0.0771318094	-0.407315
C	-0.0167053764	 0.0025476569	 0.2087385956	 0.118434
O	 0.4637225543	-0.3061350457	 1.5177785191	-0.429956
C	-1.4268937312	-0.5462755974	 0.0117113628	-0.147899
C	-1.9675870951	-0.6435148807	-1.4344982483	-0.097927
O	-2.1391231896	-2.0721383075	-1.3261297437	-0.30768
C	-1.6010144088	-2.0650146908	 0.0005985132	 0.462148
C	-0.6893117758	-3.1438460202	 0.4862769312	-0.337227
C	-2.0983495893	-2.9968235129	 1.0512587648	-0.337118
H	 1.0946399624	 1.8566169283	 0.0909248015	 0.127984
H	-0.2059324112	 1.7290421641	-1.1107250895	 0.122037
H	-0.5981746196	 2.0645938801	 0.5821544821	 0.10684
H	 0.6628932959	-0.5361899928	-0.4624721912	 0.095723
H	-0.0669934179	 0.1920315497	 2.1497605024	 0.276764
H	-2.116659746	-0.0372969797	 0.6959615765	 0.068236
H	-2.9149607205	-0.1307176222	-1.6337119039	 0.103809
H	-1.2446633935	-0.3792055342	-2.2177417123	 0.098968
H	-0.5109454322	-3.9737787374	-0.1891439298	 0.118355
H	 0.1472705572	-2.858328536	 1.1128772763	 0.136723
H	-2.2143261559	-2.6250320392	 2.0646065183	 0.108732
H	-2.8385417121	-3.7288212025	 0.7458814142	 0.120371
61.565	94.9953	143.7613	207.5998	242.9963	263.4821	307.7472	323.4443	370.088	419.4674	464.9192	517.3751	603.2154	762.7826	782.2199	870.5573	873.3698	895.2865	912.1693	966.9067	974.2951	1000.9889	1019.2071	1049.1535	1058.4101	1070.1888	1084.2067	1116.0529	1159.0416	1186.7829	1191.432	1221.611	1238.8999	1263.9586	1325.8853	1353.4511	1369.0321	1402.6931	1408.3134	1421.1045	1442.931	1490.4162	1492.4015	1494.6707	1525.7068	3008.52	3022.8757	3025.7744	3046.9208	3063.2416	3093.7538	3119.3769	3124.3557	3137.774	3211.8311	3234.8725	3795.358
CC(O)C1COC11CC1	C[C@@H](O)[C@H]1COC21CC2	
InChI=1S/C7H12O2/c1-5(8)6-4-9-7(6)2-3-7/h5-6,8H,2-4H2,1H3	InChI=1S/C7H12O2/c1-5(8)6-4-9-7(6)2-3-7/h5-6,8H,2-4H2,1H3/t5-,6-/m1/s1
