18
gdb 53736	3.75858	0.73798	0.65111	4.2476	85.84	-0.2479	-0.015	0.2328	1719.3324	0.145826	-401.946811	-401.936707	-401.935763	-401.983276	35.828	
C	-0.0521008945	 1.4965675135	-0.0161467836	-0.456015
C	 0.0055723972	-0.0243409074	-0.0004955398	 0.166475
C	 1.3555042053	-0.7019246033	-0.2137642839	-0.284244
C	 0.7344168002	-0.7113518326	 1.1500779284	-0.284024
C	-1.1521417425	-0.6867158502	-0.5311245939	-0.006076
C	-2.1425238673	-1.2094504243	-0.9837921563	 0.067943
C	-3.3603013264	-1.7709530386	-1.5418031993	 0.248807
N	-3.3815095003	-3.1393847126	-1.5647935314	-0.521648
O	-4.2852234443	-1.0862536666	-1.936550521	-0.336744
H	 0.8659548733	 1.9178479585	 0.404668687	 0.114647
H	-0.1650312756	 1.8724357021	-1.0373643209	 0.134553
H	-0.8983565641	 1.8610181894	 0.5736785764	 0.135163
H	 1.3701968025	-1.6260421069	-0.7787609615	 0.124732
H	 2.2008515677	-0.0468136288	-0.3939831376	 0.122918
H	 1.1499647606	-0.0626297528	 1.9134352277	 0.123045
H	 0.3222065164	-1.6416983899	 1.5214388823	 0.126359
H	-2.5574858149	-3.6755237901	-1.356018759	 0.26105
H	-4.1541424734	-3.5871675992	-2.0303879536	 0.263058
23.4458	72.3941	99.0808	176.6267	181.4801	211.6166	259.3946	277.0226	340.7616	435.2494	518.4342	542.0575	566.8186	581.5467	644.5755	769.9777	781.2935	802.4725	833.2883	942.0926	954.2726	1004.6232	1047.8561	1076.4131	1078.5204	1089.4722	1117.7445	1194.066	1288.1107	1309.7651	1374.4346	1416.1143	1465.486	1486.5889	1495.8573	1502.3018	1606.9914	1769.1398	2330.8669	3037.7075	3111.503	3111.7711	3138.3947	3142.6118	3223.4978	3237.9058	3598.8738	3739.7536
CC1(CC1)C#CC(N)=O	CC1(CC1)C#CC(=O)N	
InChI=1S/C7H9NO/c1-7(4-5-7)3-2-6(8)9/h4-5H2,1H3,(H2,8,9)	InChI=1S/C7H9NO/c1-7(4-5-7)3-2-6(8)9/h4-5H2,1H3,(H2,8,9)
