17
gdb 106189	2.81005	1.5232	1.36459	1.4297	66.68	-0.2212	0.0606	0.2817	995.9871	0.136492	-458.899465	-458.891979	-458.891035	-458.93175	28.749	
O	 0.1212864921	 1.3920883181	-0.0821462222	-0.41055
C	 0.0372598986	-0.0133830348	 0.121680226	-0.211148
C	-1.3732356949	-0.5079399288	 0.0616140943	 0.206018
C	-2.0683924731	-1.847585176	-0.0514248631	-0.004369
O	-2.9862751701	-1.5902507039	 1.0082897889	-0.302441
C	-2.5536973508	-0.190677788	 1.0157376136	 0.018254
C	-3.5396241973	 0.5804154955	 0.1554670249	-0.079938
O	-3.4365473644	-0.0475273612	-1.1334830652	-0.267609
C	-2.2447628233	-0.7937066708	-1.134336027	 0.017688
H	-0.2442082678	 1.5809509717	-0.9532173585	 0.286727
H	 0.6553160289	-0.5685290471	-0.6017254092	 0.093926
H	 0.4671441283	-0.1893243846	 1.1138770543	 0.119634
H	-1.7032244215	-2.8598781581	-0.1864619687	 0.10909
H	-2.3610350877	 0.1881808978	 2.0199153342	 0.095269
H	-4.5688268939	 0.4795373377	 0.5107196341	 0.122763
H	-3.2712838143	 1.6462238188	 0.0914947404	 0.098854
H	-1.8266744688	-0.9595303862	-2.1210884567	 0.107832
81.7257	111.6701	242.5945	270.3457	340.4745	396.5165	406.2832	552.7067	623.5635	713.3036	777.3202	781.0939	859.0756	905.392	912.5878	935.1203	970.3427	994.7808	1018.0203	1028.306	1036.2333	1051.9823	1087.5024	1110.1162	1148.881	1184.6375	1233.9949	1241.9764	1267.9234	1280.8166	1315.895	1364.7018	1377.9223	1417.9289	1460.6092	1497.6026	1501.1826	2979.2731	2990.3859	3065.7565	3094.6434	3118.2474	3172.7795	3184.4874	3806.2728
OCC12C3OC1COC23	OC[C@@]12[C@H]3O[C@@H]1CO[C@@H]23	
InChI=1S/C6H8O3/c7-2-6-3-1-8-4(6)5(6)9-3/h3-5,7H,1-2H2	InChI=1S/C6H8O3/c7-2-6-3-1-8-4(6)5(6)9-3/h3-5,7H,1-2H2/t3-,4-,5+,6-/m1/s1
