17
gdb 45313	3.58368	1.4186	1.20578	4.2098	72.78	-0.2422	0.0086	0.2509	1033.8753	0.139892	-418.072447	-418.06534	-418.064396	-418.104034	28.218	
O	 0.0274375608	-0.1066545349	-0.0635928381	-0.411152
C	 0.0032085964	 1.1029152538	-0.0185887448	 0.431303
N	-1.1221140111	 1.9075975164	 0.0507675496	-0.34038
C	-0.8296692502	 3.327051454	-0.0385867755	 0.002102
C	-1.4678690815	 4.153643095	 1.1057865153	-0.266856
C	-0.3710262781	 4.2272103534	 2.1400910153	-0.05287
C	 0.7989734143	 3.7927673921	 1.6784664592	-0.082522
C	 0.7128909056	 3.3367446107	 0.2366319131	-0.025485
N	 1.0980976689	 1.9585536889	-0.0372396259	-0.350867
H	-1.9972073869	 1.5209558669	-0.261546448	 0.251207
H	-1.0792414107	 3.7324256912	-1.0260925648	 0.082467
H	-1.7566771549	 5.1554266179	 0.7606270572	 0.109553
H	-2.3783114591	 3.6749197313	 1.4829016982	 0.112747
H	-0.5411873347	 4.6159944686	 3.1382363876	 0.10195
H	 1.7310376479	 3.7748514171	 2.2326153735	 0.097595
H	 1.2535529377	 4.0185642746	-0.4309160538	 0.091883
H	 1.9744388058	 1.5857818231	 0.2916656019	 0.249325
112.0175	125.2697	295.6759	343.3179	425.3185	453.2198	485.6165	528.9408	608.9456	685.3542	744.6197	764.909	788.9947	827.7081	873.4369	917.3118	958.2076	977.3678	987.824	1007.8271	1042.5959	1092.6036	1109.5906	1135.602	1193.0584	1235.8301	1254.5551	1306.8367	1320.1868	1354.688	1364.2265	1389.9936	1418.0567	1428.099	1478.1605	1687.4121	1848.6743	3015.0863	3022.0453	3036.571	3065.7041	3182.3119	3207.2666	3645.5588	3658.9989
O=C1NC2CC=CC2N1	O=C1N[C@H]2CC=C[C@H]2N1	
InChI=1S/C6H8N2O/c9-6-7-4-2-1-3-5(4)8-6/h1-2,4-5H,3H2,(H2,7,8,9)	InChI=1S/C6H8N2O/c9-6-7-4-2-1-3-5(4)8-6/h1-2,4-5H,3H2,(H2,7,8,9)/t4-,5+/m1/s1
