18
gdb 106884	2.84876	1.16689	0.9868	2.3888	74.31	-0.2521	-0.0338	0.2183	1229.9119	0.14692	-439.050968	-439.042143	-439.041199	-439.085014	32.388	
O	 0.117582221	 1.2873771987	-0.3252520115	-0.411784
C	 0.0428454521	 0.0061828203	 0.2826874685	-0.153857
C	-1.3686178793	-0.5088632867	 0.2838194235	 0.256734
C	-2.5055879415	-0.093326097	 1.2315265021	-0.284367
C	-3.0591504364	-1.5549245703	 1.1848212866	-0.302731
C	-1.9252510399	-1.9397201406	 0.2291530748	 0.17838
N	-1.8820938054	-1.0697713273	-0.9509018829	-0.399334
C	-1.1935573835	-3.2188916295	 0.2001039767	 0.084854
O	-1.3893041595	-4.1184374096	 0.9827314994	-0.265459
H	-0.141236677	 1.1734865228	-1.2466842686	 0.290827
H	 0.6995574587	-0.7188565826	-0.2179197839	 0.100916
H	 0.4000502913	 0.13648791	 1.3089757621	 0.116838
H	-2.1504909753	 0.1890646408	 2.2247402595	 0.120317
H	-3.1553840755	 0.7018646559	 0.8538227023	 0.108255
H	-2.9793866075	-2.0715010094	 2.1420055155	 0.136736
H	-4.069679685	-1.696242278	 0.7895764769	 0.105877
H	-2.8105133532	-0.7296972216	-1.1970407625	 0.235937
H	-0.4286783541	-3.288044406	-0.6030600187	 0.08186
62.7774	87.3303	153.0663	209.7307	217.5766	291.1496	323.9436	406.8607	458.9152	477.8337	507.8059	687.5617	757.2464	772.1609	801.5729	818.4168	928.542	945.3762	991.3058	1039.247	1058.4265	1084.1571	1089.6165	1103.003	1145.4106	1181.2406	1208.1698	1232.2737	1252.4804	1285.7134	1353.6591	1374.721	1393.5739	1422.0045	1461.0536	1478.8287	1491.8634	1499.9985	1803.084	2903.8985	3009.5438	3055.0668	3062.67	3086.3831	3114.0723	3135.8257	3462.3934	3803.0851
OCC12CCC1(N2)C=O	OC[C@]12CC[C@]1(N2)C=O	
InChI=1S/C6H9NO2/c8-3-5-1-2-6(5,4-9)7-5/h3,7,9H,1-2,4H2	InChI=1S/C6H9NO2/c8-3-5-1-2-6(5,4-9)7-5/h3,7,9H,1-2,4H2/t5-,6+/m0/s1
