18
gdb 23476	2.93039	1.28974	1.05644	1.1042	75.84	-0.2451	-0.0028	0.2424	1166.3245	0.146355	-439.01187	-439.003419	-439.002474	-439.045102	32.019	
C	-0.5827600635	 1.437047513	 0.1961480298	-0.40295
C	 0.0433242497	 0.0698041191	 0.0337705082	 0.149475
O	 1.1961147748	 0.0581253312	-0.8536377062	-0.311228
C	 1.9993857781	-0.6543411	 0.1020292564	 0.118312
C	 2.9080358705	 0.2899287564	 0.933583968	-0.339607
C	 1.7703111429	 0.3852982942	 1.9394913627	 0.431712
N	 1.5903117377	 0.9390072972	 3.0645812132	-0.244648
O	 2.7073869997	 1.711378625	 3.4282651037	-0.389927
C	 0.8718029184	-0.5673970355	 1.1833746055	-0.216465
H	 0.1321353346	 2.1570088011	 0.6020884777	 0.130367
H	-0.935806679	 1.8040592739	-0.7727377215	 0.127383
H	-1.4408861292	 1.3814087569	 0.874468684	 0.122541
H	-0.7036221207	-0.646998629	-0.3357639645	 0.080254
H	 2.4214669124	-1.5793011957	-0.2957442334	 0.083042
H	 3.8003837699	-0.1863299132	 1.3547292046	 0.126703
H	 3.2004695742	 1.2129061888	 0.4273194398	 0.134448
H	 2.4481256503	 2.0501946132	 4.2920141911	 0.307663
H	 0.4306695493	-1.4017619766	 1.7263999709	 0.092923
75.972	106.7265	199.4159	214.7079	269.9148	338.8045	386.2974	395.4066	455.7506	480.4057	614.0293	639.61	742.1831	797.2306	836.622	873.5261	906.8145	952.1753	964.3427	999.2552	1023.0327	1058.2082	1092.6219	1115.2182	1132.7554	1168.3626	1172.0658	1220.3106	1241.1807	1269.1094	1303.9614	1335.4781	1384.9298	1405.9161	1412.9713	1438.6958	1481.4305	1490.8619	1775.7606	2998.1203	3039.7333	3050.1323	3090.924	3108.6709	3113.339	3125.4871	3127.8052	3816.2087
CC1OC2CC(=NO)C12	C[C@H]1O[C@H]2CC(=NO)[C@@H]12	
InChI=1S/C6H9NO2/c1-3-6-4(7-8)2-5(6)9-3/h3,5-6,8H,2H2,1H3	InChI=1S/C6H9NO2/c1-3-6-4(7-8)2-5(6)9-3/h3,5-6,8H,2H2,1H3/t3-,5+,6-/m1/s1
