23
gdb 63463	2.64641	1.30668	1.03031	1.5992	85.74	-0.2389	0.0703	0.3092	1269.9872	0.20437	-384.425538	-384.415242	-384.414298	-384.460353	38.723	
C	 0.0514817879	 1.3765408481	-0.3692199493	-0.43792
C	 0.0867696131	-0.0669649768	 0.1021137658	 0.29174
C	-0.8949928652	-0.9432140025	-0.6566481555	-0.46704
N	 1.4407901121	-0.5975680984	 0.3884918973	-0.41599
C	 0.4850836693	-0.4215464619	 1.5062007499	 0.227546
C	 0.8612508283	 0.6569387687	 2.5114680619	-0.44
C	-0.1317460253	-1.6149889941	 2.1962597863	-0.042323
C	 0.1697676099	-3.0311848693	 1.87579959	-0.254195
N	 0.6840698524	-2.4342504694	 3.1197239047	-0.326258
H	 0.8553034794	 1.9709619533	 0.0645108384	 0.127658
H	 0.165643057	 1.4140713454	-1.4586469681	 0.11609
H	-0.9067143751	 1.846684087	-0.120342038	 0.113205
H	-0.6351128139	-0.9622781784	-1.7217649015	 0.11821
H	-0.9124640432	-1.970401458	-0.2904748831	 0.125507
H	-1.9120962141	-0.5420750572	-0.5794148401	 0.120971
H	 1.4896731945	-1.5743643414	 0.1065734756	 0.217867
H	 1.4011584687	 1.4782914733	 2.0412246827	 0.127623
H	-0.0328812904	 1.0590113163	 3.0011126483	 0.116414
H	 1.5040789312	 0.2404621071	 3.2940836083	 0.120962
H	-1.1191202817	-1.4061742041	 2.6075336851	 0.095318
H	-0.598582396	-3.788257354	 2.0091609964	 0.121675
H	 0.8766144861	-3.2576336867	 1.0812335788	 0.108112
H	 1.6662039753	-2.1981465569	 2.9864328461	 0.234825
74.214	130.4005	144.2196	149.6707	178.3674	198.976	278.7128	299.1485	327.8548	382.512	390.7259	467.3179	504.0483	551.396	659.6111	708.9989	815.1092	845.0226	861.1158	939.0261	952.7608	964.5975	985.0437	990.4339	1020.7316	1048.6713	1067.8514	1097.0903	1120.7666	1154.8117	1160.9238	1179.5719	1213.8316	1234.4766	1276.2929	1305.4642	1319.0583	1404.6447	1409.0722	1416.0567	1418.8519	1422.7056	1476.2145	1482.6019	1488.168	1495.3026	1507.3741	1514.3942	1514.6806	3028.3713	3033.7458	3039.173	3081.5922	3088.7387	3094.5741	3102.9001	3106.6181	3138.356	3140.9295	3155.2702	3183.1923	3478.716	3486.7804
CC1(C)NC1(C)C1CN1	CC1(C)N[C@]1(C)[C@H]1CN1	
InChI=1S/C7H14N2/c1-6(2)7(3,9-6)5-4-8-5/h5,8-9H,4H2,1-3H3	InChI=1S/C7H14N2/c1-6(2)7(3,9-6)5-4-8-5/h5,8-9H,4H2,1-3H3/t5-,7-/m1/s1
