18
gdb 88021	2.99531	1.32626	1.15016	1.7317	72.41	-0.2335	0.0514	0.285	1114.4445	0.146677	-439.004713	-438.996415	-438.995471	-439.037605	31.926	
O	 0.0584797281	 1.3175648292	-0.0136111742	-0.433742
C	 0.0831307805	-0.0675493388	 0.1058951101	 0.058653
C	-0.5316352117	-0.7333680493	 1.3328736476	-0.396937
C	-1.232621694	-0.7729219927	 0.0096115156	 0.358686
O	-2.3808141178	 0.049380415	-0.2437025935	-0.33652
C	-2.9156199983	-0.9303308386	-1.1826879256	-0.131781
C	-1.7605343539	-1.8767516322	-0.8712578885	 0.184959
C	-1.0405877991	-2.888710732	-1.6641565708	-0.308195
N	-1.9232296741	-3.2829177687	-0.5438985492	-0.355577
H	-0.8331845538	 1.546623202	-0.3141615055	 0.296263
H	 0.969728985	-0.5230601999	-0.329640526	 0.098212
H	-0.0745332624	-1.6454684309	 1.7074760202	 0.110787
H	-0.95916804	-0.0824764112	 2.0887314259	 0.134649
H	-3.9031129555	-1.286626353	-0.8754993215	 0.125815
H	-2.9534478027	-0.5312610023	-2.2019859614	 0.114828
H	-1.3998615996	-3.1729671222	-2.6496097805	 0.126432
H	 0.0375278427	-2.9602523914	-1.5381082098	 0.117906
H	-1.3752957732	-3.5200192231	 0.2808306369	 0.235561
83.1808	131.6936	172.9975	242.813	285.1249	322.754	402.9569	440.7691	457.8606	554.4066	568.3969	662.9527	811.3139	826.8039	858.313	889.1635	916.2274	932.0751	971.8958	995.5122	999.9118	1022.3723	1048.2382	1083.9452	1096.6641	1123.3589	1146.2684	1161.2599	1174.9343	1256.4618	1265.345	1304.9753	1322.4055	1373.2483	1412.4691	1442.7676	1482.5455	1513.9835	1529.0676	3038.8475	3098.5908	3101.5416	3115.5166	3130.4799	3186.557	3214.3706	3486.9362	3723.5431
OC1CC11OCC11CN1	O[C@H]1C[C@]21OC[C@]12CN1	
InChI=1S/C6H9NO2/c8-4-1-6(4)5(2-7-5)3-9-6/h4,7-8H,1-3H2	InChI=1S/C6H9NO2/c8-4-1-6(4)5(2-7-5)3-9-6/h4,7-8H,1-3H2/t4-,5-,6+/m0/s1
