19
gdb 102249	1.85779	1.29917	0.88551	4.5044	77.82	-0.28	0.0133	0.2933	1386.729	0.157117	-419.237661	-419.227299	-419.226355	-419.274007	36.006	
C	 0.1129765561	 1.4973910934	-0.0901996517	-0.396494
C	-0.0038163287	-0.0276988149	-0.0744946771	-0.191803
C	-1.4563428989	-0.5011176858	 0.0501538466	-0.012032
O	-2.1573465731	-0.0742770961	-1.1244150932	-0.248718
C	-3.5120052333	 0.0261870973	-1.0357097489	 0.40337
C	-4.0761655689	 0.454725291	-2.3632683638	-0.464318
N	-4.111023162	-0.2271202639	 0.0501233623	-0.50742
C	-1.5299282339	-1.9679741898	 0.1744293916	 0.290317
N	-1.5392883856	-3.1188080944	 0.2728806694	-0.323676
H	 1.1601422668	 1.7998279113	-0.1763605456	 0.12351
H	-0.4346150972	 1.9230413965	-0.934709455	 0.132821
H	-0.2879749912	 1.9354570981	 0.8302408845	 0.122522
H	 0.4241394359	-0.4584321009	-0.9857372769	 0.126308
H	 0.554214579	-0.4481500136	 0.7687354105	 0.124764
H	-1.9409581357	-0.0663155116	 0.9300854864	 0.151783
H	-3.626500917	 1.4014270673	-2.6772893267	 0.149373
H	-3.8351291412	-0.2889400638	-3.1287820485	 0.156999
H	-5.15905982	 0.5720817967	-2.3058187896	 0.133151
H	-5.115177871	-0.101240617	-0.0455608844	 0.229542
49.6436	72.8162	106.5008	117.5006	145.0454	180.637	243.8256	262.0718	316.4458	396.1677	429.7203	542.9211	553.7524	580.3587	644.8186	773.2671	854.2811	879.5451	906.4459	974.7781	978.7023	1037.5321	1068.8784	1070.4842	1086.2037	1123.4909	1160.895	1274.7531	1311.2559	1345.8579	1379.8522	1390.7259	1410.6036	1417.8953	1470.8345	1479.2189	1481.0391	1496.8554	1508.6071	1739.1557	2361.6493	3042.2849	3050.8632	3051.229	3070.2143	3091.0605	3112.9092	3115.5001	3128.3619	3148.4079	3530.5897
CCC(OC(C)=N)C#N	CC[C@@H](O[C](C)[NH])C#N	
InChI=1S/C6H10N2O/c1-3-6(4-7)9-5(2)8/h6,8H,3H2,1-2H3	InChI=1S/C6H10N2O/c1-3-6(4-7)9-5(2)8/h6,8H,3H2,1-2H3/t6-/m1/s1
