17
gdb 37274	3.64686	1.97724	1.87855	1.7779	72.05	-0.246	0.0739	0.3199	797.9068	0.139162	-384.613985	-384.608501	-384.607556	-384.64344	24.55	
O	-0.0231244871	 1.4340304597	 0.0473316605	-0.244937
C	 1.269687565	 0.8126936031	 0.0401317535	 0.022134
C	 0.0379740279	 0.000944176	 0.0480575163	 0.022136
C	-0.0433592604	-0.6539389047	-1.333314795	-0.074901
C	-0.2231320275	 0.3183191128	-2.5113355203	-0.046901
C	 1.0580855935	 1.1626491966	-2.5195997463	-0.046898
C	 1.0106811383	-0.1666898785	-3.232775495	-0.129683
C	 1.4309730234	-0.7909798563	-1.8580977478	-0.073279
C	 1.8911580125	 0.620960441	-1.345760554	-0.074906
H	 1.8792847334	 1.001569604	 0.920115439	 0.091814
H	-0.3680846974	-0.4795338222	 0.9345735652	 0.091812
H	-0.6536008549	-1.5559738883	-1.3900686349	 0.063713
H	-1.1449049517	 0.7048443751	-2.9248603449	 0.087936
H	 1.0627213994	 2.1596764846	-2.9391048224	 0.087936
H	 1.1861921511	-0.4430854266	-4.261029175	 0.090995
H	 2.0237589017	-1.6888609587	-1.6938048666	 0.069318
H	 2.9601932328	 0.8256111723	-1.4133159521	 0.063711
282.2828	305.8041	532.9102	532.9459	676.6825	688.6062	758.0128	764.502	802.7681	819.3394	833.2315	846.2257	874.1042	880.1538	920.6589	936.2437	948.8562	971.9087	1000.2526	1012.2246	1020.4423	1032.8469	1045.5052	1072.5935	1097.3146	1125.0393	1169.2364	1171.9569	1213.5314	1236.5728	1256.18	1261.6212	1296.0676	1304.1887	1334.5718	1365.7433	1413.0081	3106.8938	3106.9182	3133.7106	3138.7312	3150.9482	3200.4283	3207.3721	3235.7754
O1C2C1C1C3C4C3C1C24	O1[C@H]2[C@@H]1[C@H]1[C@H]3[C@@H]4[C@H]3[C@H]1[C@H]24	
InChI=1S/C8H8O/c9-7-5-2-1-3(2)6(4(1)5)8(7)9/h1-8H	InChI=1S/C8H8O/c9-7-5-2-1-3(2)6(4(1)5)8(7)9/h1-8H/t1-,2+,3-,4+,5-,6+,7-,8+
