21
gdb 80532	2.34064	1.56177	1.25187	3.0158	82.23	-0.2287	0.0007	0.2294	1117.8953	0.18353	-387.100096	-387.091619	-387.090675	-387.132665	33.414	
C	-0.125591512	 1.6118720659	-0.0601314726	-0.440532
C	-0.0094220471	 0.0926002713	-0.0144866331	 0.031754
C	 1.0602317975	-0.6625562413	-0.8871105617	-0.158579
C	 2.3991460065	-0.1299705438	-0.3234169268	-0.24988
C	 2.1295807431	-0.2496576721	 1.2228804109	 0.046038
C	 2.4497841784	 0.9849455098	 2.0660367693	-0.428271
C	 0.6445939867	-0.7050205984	 1.1764909706	-0.174887
C	 0.7800921107	-1.8066490623	 0.1048728799	 0.431659
O	 0.6092176404	-2.9877815963	 0.046170261	-0.330311
H	 0.8393969088	 2.1206864778	-0.07204795	 0.125226
H	-0.6641796583	 1.9137292753	-0.9648373146	 0.120543
H	-0.6920422241	 1.9864081481	 0.7989454934	 0.123067
H	-0.998379598	-0.3373618463	-0.2073179855	 0.09195
H	 0.960005513	-0.7817348919	-1.9646739716	 0.078458
H	 3.2506736451	-0.7334595362	-0.6476112759	 0.110086
H	 2.5915740883	 0.9025141225	-0.6298950117	 0.10485
H	 2.726040027	-1.0767269685	 1.626087967	 0.088201
H	 1.8717512422	 1.8631209013	 1.7708292351	 0.121153
H	 2.2448762875	 0.794303964	 3.1248801472	 0.117391
H	 3.5119879101	 1.2394753547	 1.9766810402	 0.116945
H	 0.1282379342	-0.8727207336	 2.1206222185	 0.075141
142.405	164.4976	185.1433	238.7096	252.6957	272.4126	303.2938	408.8307	493.0977	523.3682	628.0348	671.9674	705.2818	748.4933	773.923	823.4634	895.3965	929.6306	948.1148	998.8014	1006.4536	1032.8377	1044.6771	1082.286	1093.552	1100.5167	1129.8244	1146.9969	1183.4257	1195.3016	1214.3968	1249.9265	1266.877	1311.2496	1328.6147	1389.728	1405.9585	1414.6219	1419.7185	1489.5079	1492.8293	1499.9813	1511.721	1512.7841	1901.1744	3024.4285	3036.4819	3038.2068	3046.963	3056.5786	3093.0441	3095.6215	3100.7131	3127.2709	3132.076	3136.3611	3140.2771
CC1C2CC(C)C1C2=O	C[C@H]1[C@H]2C[C@@H](C)[C@@H]1C2=O	
InChI=1S/C8H12O/c1-4-3-6-5(2)7(4)8(6)9/h4-7H,3H2,1-2H3	InChI=1S/C8H12O/c1-4-3-6-5(2)7(4)8(6)9/h4-7H,3H2,1-2H3/t4-,5+,6-,7+/m1/s1
