18
gdb 104538	2.65236	1.23203	1.03765	3.4149	71.41	-0.2622	0.0124	0.2746	1186.5613	0.147058	-439.068162	-439.059031	-439.058087	-439.102772	32.717	
O	 0.282326029	 1.277471738	-0.4764470452	-0.416466
C	 0.0951883333	 0.0017118911	 0.0994023754	-0.135792
C	-1.3602292924	-0.4917447141	 0.0417733463	 0.249079
C	-2.262207693	 0.1397294713	 1.1173113329	-0.423926
C	-2.250503782	 1.6026863389	 1.1219313101	 0.267479
N	-2.208939495	 2.7584749553	 1.124921191	-0.314424
C	-1.9057100451	-0.5344895973	-1.4056085477	-0.107268
O	-1.7766497382	-1.9728490862	-1.4493419651	-0.26791
C	-1.4751223359	-2.0342414729	-0.0457553457	-0.125193
H	-0.1265929615	 1.9464845281	 0.084052008	 0.302642
H	 0.7125245278	-0.6819708207	-0.4925375767	 0.123758
H	 0.4641530494	-0.0418162765	 1.1375028925	 0.092807
H	-3.296951545	-0.1960105277	 0.987059892	 0.158942
H	-1.9421091365	-0.2008507491	 2.1103872226	 0.1583
H	-2.9504991747	-0.2139696047	-1.5163114234	 0.099942
H	-1.2907784766	-0.0323308411	-2.1572299035	 0.13313
H	-0.5616136403	-2.6045468204	 0.1630493211	 0.109586
H	-2.3023336634	-2.4644618019	 0.5371240155	 0.095316
53.3364	80.0668	132.2565	148.013	234.7512	302.7915	324.8132	376.7907	395.2298	432.8497	478.1756	520.8184	733.2951	842.9793	890.4374	913.3692	923.562	962.2269	996.5036	999.9631	1039.0626	1077.6335	1105.3374	1151.4757	1157.2082	1160.8809	1191.7948	1294.4864	1304.894	1311.1581	1332.6036	1380.7353	1398.4711	1432.0671	1459.2751	1498.2985	1515.578	1539.6907	2351.4785	2970.9388	2992.5764	3012.5898	3033.5148	3047.2735	3074.2895	3077.011	3095.6301	3802.6452
OCC1(CC#N)COC1	OCC1(CC#N)COC1	
InChI=1S/C6H9NO2/c7-2-1-6(3-8)4-9-5-6/h8H,1,3-5H2	InChI=1S/C6H9NO2/c7-2-1-6(3-8)4-9-5-6/h8H,1,3-5H2
