19
gdb 68260	2.38885	1.48947	1.44466	0.8931	82.32	-0.2497	0.0369	0.2866	1056.3319	0.157232	-385.80957	-385.800701	-385.799756	-385.84236	34.948	
C	-0.0143439469	 1.4748853805	 0.0608304714	-0.520588
C	 0.052021268	-0.0266092553	 0.0192229764	 0.295089
C	 0.7243142308	-0.9427913301	-1.0511618902	-0.281935
C	 0.0884423462	-1.9246569462	-0.0287386129	-0.116482
C	 0.6501481286	-1.0018599914	 1.0898740441	-0.291163
C	-1.1785709878	-0.9961888092	-0.0442007898	 0.291277
O	-1.9853833492	-0.9508722033	 1.117454097	-0.493961
C	-2.0197151963	-0.9963944351	-1.2354207046	 0.244443
C	-2.7720827482	-1.0204090059	-2.1742454187	-0.456077
H	 0.9882859866	 1.9103518876	 0.1269117573	 0.118495
H	-0.4973089095	 1.868829307	-0.8398437273	 0.125627
H	-0.5897817815	 1.8113114459	 0.9292787991	 0.131871
H	 0.3087991888	-0.9230883713	-2.0603117351	 0.107522
H	 1.8161807941	-0.9214113467	-1.0634676732	 0.092577
H	 0.0919005093	-3.0145120896	-0.064037103	 0.073425
H	 1.7389199457	-0.9824076677	 1.1821097013	 0.08648
H	 0.1570083145	-1.0364613289	 2.0594368945	 0.114977
H	-2.7477791047	-1.5190654458	 0.9689954304	 0.284762
H	-3.4257204684	-1.0327682545	-3.0114079367	 0.19366
114.1912	163.6208	192.3059	211.7778	243.3599	291.7609	347.4042	373.7408	503.3671	515.0421	525.5575	592.7477	619.7356	656.3804	665.5627	679.4345	801.5266	802.2887	906.2224	912.0702	947.9552	995.9655	1019.0787	1027.6289	1067.838	1094.7599	1109.497	1165.2975	1185.5127	1187.9438	1220.1646	1229.6074	1232.4526	1305.5484	1372.2113	1408.2029	1486.3076	1491.6348	1493.6081	1535.4849	2223.1737	3030.8686	3066.5323	3071.003	3099.2289	3104.3522	3110.9968	3133.5649	3158.4661	3499.5955	3824.3914
CC12CC(C1)C2(O)C#C	C[C@@]12C[C@@H](C1)[C@]2(O)C#C	
InChI=1S/C8H10O/c1-3-8(9)6-4-7(8,2)5-6/h1,6,9H,4-5H2,2H3	InChI=1S/C8H10O/c1-3-8(9)6-4-7(8,2)5-6/h1,6,9H,4-5H2,2H3/t6-,7+,8-/m1/s1
