18
gdb 88710	3.48698	0.97823	0.82918	1.917	79.8	-0.2504	0.0321	0.2825	1398.3829	0.145423	-401.862976	-401.853753	-401.852809	-401.897746	33.865	
C	-0.2365089988	 1.502140534	-0.018338968	-0.421826
C	-0.1074585587	 0.0094715878	 0.1462138713	 0.076841
O	 1.1726112509	-0.5814960708	-0.1088778619	-0.264764
C	 0.6428308312	-0.6659587161	 1.2191909833	 0.067327
C	 1.401517964	 0.059553414	 2.2803754786	-0.053596
N	 0.8545468829	-0.0355830365	 3.637531683	-0.332957
C	 2.1570842449	-0.6782676825	 3.3489914385	-0.250475
C	 2.2194365207	-2.1125908934	 3.4126295509	 0.382286
C	 2.3049430039	-3.310614435	 3.4620832575	-0.434852
H	 0.6030704601	 2.0396142438	 0.4271547753	 0.12226
H	-0.2749877619	 1.7614111361	-1.0814624424	 0.131421
H	-1.1632874984	 1.8557413311	 0.4462436435	 0.126491
H	-0.9358629456	-0.5588864473	-0.2827754025	 0.091024
H	 0.3156392736	-1.6615801768	 1.5176565871	 0.106703
H	 1.8495730323	 0.9984524135	 1.9656856589	 0.098098
H	 1.0038037699	 0.8313287213	 4.1468237739	 0.241008
H	 3.0500163759	-0.1747654153	 3.7141420989	 0.113951
H	 2.3729932731	-4.369427248	 3.5064778241	 0.20106
36.124	95.6535	144.4092	178.4149	211.4832	246.0546	316.1376	392.671	442.7271	507.2207	554.5092	610.7697	631.7009	665.1752	771.6872	796.81	854.1829	862.8475	928.3511	961.5138	982.2046	994.9097	1036.9994	1092.7269	1124.2884	1162.2664	1170.3884	1195.8932	1221.4109	1248.1735	1300.9128	1341.2843	1409.194	1414.6802	1438.2308	1479.279	1491.0081	1520.409	2241.6538	3040.0817	3080.7076	3101.3619	3120.97	3123.8139	3130.0995	3148.4374	3504.0003	3509.6339
CC1OC1C1NC1C#C	C[C@H]1O[C@H]1[C@H]1N[C@H]1C#C	
InChI=1S/C7H9NO/c1-3-5-6(8-5)7-4(2)9-7/h1,4-8H,2H3	InChI=1S/C7H9NO/c1-3-5-6(8-5)7-4(2)9-7/h1,4-8H,2H3/t4-,5+,6+,7-/m1/s1
