17
gdb 32869	5.84379	0.7971	0.72957	1.4029	72.18	-0.2166	0.004	0.2206	1539.5975	0.136468	-455.162504	-455.153716	-455.152772	-455.196903	31.577	
C	 0.2352036645	 1.4429615284	 0.0732341022	-0.307336
N	 0.1639495717	-0.0113343933	 0.0511947399	-0.289055
C	 0.4606045848	-0.5683791816	-1.2647516498	-0.246608
C	 0.484338233	-2.0583742691	-1.2268202717	 0.410565
N	-0.1727293642	-2.8991492977	-1.968720214	-0.388542
C	 0.2375999552	-4.1417032156	-1.5281103629	 0.320608
O	-0.2397177706	-5.2740576453	-2.0746688132	-0.429386
C	 1.1350139089	-4.0030139141	-0.5218330233	-0.153209
O	 1.300170214	-2.6456938651	-0.32858228	-0.181124
H	 1.1944831228	 1.8555770535	-0.289242287	 0.095075
H	-0.5602368881	 1.858024167	-0.5562768568	 0.125295
H	 0.0716773434	 1.7998920567	 1.0936896862	 0.122948
H	 0.8153637034	-0.399142489	 0.725093214	 0.229548
H	-0.3216025702	-0.273427201	-1.9706787513	 0.137952
H	 1.4216332574	-0.2028208947	-1.6793649803	 0.100122
H	-0.8667468648	-5.0074200793	-2.7577565926	 0.307382
H	 1.6955350088	-4.6664558197	 0.1092245806	 0.145764
42.162	89.4971	114.3325	239.0455	264.1294	309.6377	332.1771	355.8969	384.6415	482.6067	645.2505	667.5422	707.6347	738.698	776.1347	803.4584	956.6807	981.4483	1013.0655	1032.5637	1116.8596	1136.1433	1154.1158	1177.2567	1189.8891	1264.1879	1270.819	1347.616	1377.7273	1411.1567	1459.4555	1484.8303	1491.8135	1503.2895	1518.1879	1615.3106	1701.6457	2898.74	2940.5248	3056.4341	3084.2431	3109.3842	3317.4851	3531.0376	3807.7134
CNCC1=NC(O)=CO1	CNCc1nc(O)co1	
InChI=1S/C5H8N2O2/c1-6-2-5-7-4(8)3-9-5/h3,6,8H,2H2,1H3	InChI=1S/C5H8N2O2/c1-6-2-5-7-4(8)3-9-5/h3,6,8H,2H2,1H3
