20
gdb 101088	2.14475	1.36942	0.9603	2.6435	75.99	-0.2466	-0.0242	0.2224	1282.4743	0.16893	-440.270033	-440.260048	-440.259104	-440.304985	36.328	
C	 0.0618830902	 1.4368047403	-0.0924083089	-0.412858
C	-0.0006637713	-0.093706715	-0.1161369522	-0.18823
C	-1.409164794	-0.6470245457	 0.151557344	 0.019677
O	-2.346386033	-0.1978269347	-0.8264448026	-0.451323
C	-1.4428084427	-2.1693862191	 0.1093377773	 0.222498
C	-2.6958833706	-2.8763485014	-0.3197513915	-0.274043
N	-1.5268442585	-2.8686967875	-1.1943162637	-0.352977
C	-0.6241334401	-2.8999342466	 1.1175209881	 0.132604
O	-0.1115636379	-2.396856294	 2.0880349595	-0.278218
H	 1.0896082173	 1.7855239122	-0.2267475248	 0.126712
H	-0.5304009763	 1.8876150439	-0.897643167	 0.107189
H	-0.3000674355	 1.8361574708	 0.862036429	 0.122644
H	 0.3456437804	-0.4677595768	-1.0874394646	 0.101392
H	 0.668988331	-0.497510385	 0.6480422152	 0.133868
H	-1.7265144952	-0.3305649267	 1.1571207628	 0.089167
H	-2.3554008836	 0.7629850176	-0.8122117326	 0.293114
H	-2.9426317533	-3.8420046008	 0.1135580389	 0.121429
H	-3.536477589	-2.2365129614	-0.5629346662	 0.14527
H	-1.6642479636	-2.1517562598	-1.9052904441	 0.250924
H	-0.5413587342	-3.9882859303	 0.9040554833	 0.091161
69.9568	94.7105	139.1799	180.3421	204.1356	224.0499	265.4583	291.7421	331.2295	344.7301	427.0031	460.889	503.4634	629.4231	754.3183	794.8432	824.9554	893.003	916.9255	980.6373	996.0693	998.0985	1047.4248	1066.2838	1088.4101	1127.1867	1145.1264	1150.8952	1213.0977	1273.3197	1297.6687	1320.4577	1336.8912	1364.8158	1386.0492	1410.953	1420.0913	1443.5594	1482.7968	1496.3233	1499.9003	1513.2245	1813.1206	2899.1871	2988.0201	3025.0842	3039.4353	3080.4974	3108.4676	3110.2003	3118.1641	3220.7782	3492.3773	3846.9247
CCC(O)C1(CN1)C=O	CC[C@@H](O)[C@]1(CN1)C=O	
InChI=1S/C6H11NO2/c1-2-5(9)6(4-8)3-7-6/h4-5,7,9H,2-3H2,1H3	InChI=1S/C6H11NO2/c1-2-5(9)6(4-8)3-7-6/h4-5,7,9H,2-3H2,1H3/t5-,6+/m1/s1
