19
gdb 6126	2.93487	1.69807	1.47529	2.4935	72.24	-0.2361	-0.0201	0.216	982.458	0.163141	-365.072619	-365.063483	-365.062539	-365.105968	33.408	
C	-0.7646716291	 1.2067287089	-0.3923872413	-0.388236
C	 0.0871775026	-0.0422437418	-0.2196157502	-0.066257
N	 1.3670432537	-0.0780620112	-0.9873186291	-0.368863
C	 2.1840139959	-0.4665267343	 0.2112923575	 0.202373
C	 2.5755494994	-1.9481237598	 0.2601329972	-0.438774
C	 3.3783737278	 0.4490813781	 0.4635142637	-0.414576
C	 0.9291420926	-0.1713240652	 1.0602553991	 0.356015
O	 0.7164747308	-0.0439141863	 2.2297959156	-0.305258
H	-0.1571417695	 2.1062738192	-0.2621986863	 0.125789
H	-1.2106806663	 1.2382160268	-1.3913104949	 0.119915
H	-1.5720421946	 1.2177360245	 0.3466156474	 0.129109
H	-0.5339119494	-0.9423756837	-0.3505234783	 0.092651
H	 1.3803420389	-0.7735998147	-1.7258272614	 0.213898
H	 3.3044618385	-2.1703646468	-0.527934568	 0.122002
H	 3.0324736585	-2.198350101	 1.2223402718	 0.136422
H	 1.7078515325	-2.6007124585	 0.1177596181	 0.117078
H	 3.0848675348	 1.4982391179	 0.38094613	 0.123816
H	 3.7869497994	 0.2766771783	 1.4642262507	 0.126977
H	 4.1691866236	 0.2593277595	-0.2704095716	 0.11592
72.4121	158.4596	186.0401	190.6144	208.3085	221.7066	277.4292	314.7502	365.6895	416.0105	530.5172	594.3122	686.0258	721.2872	767.6467	851.1819	940.7681	946.7928	962.5226	990.8119	1007.8831	1037.9481	1079.2027	1126.6187	1182.3929	1196.3602	1258.9541	1275.8643	1349.1871	1367.0345	1392.5146	1403.9157	1413.064	1475.6994	1480.9622	1484.0292	1495.8101	1498.5504	1502.6529	1904.9856	2979.2646	3025.841	3035.5095	3039.6275	3093.9397	3104.2267	3110.1874	3110.9381	3122.2295	3125.105	3526.6506
CC1NC(C)(C)C1=O	C[C@H]1NC(C)(C)C1=O	
InChI=1S/C6H11NO/c1-4-5(8)6(2,3)7-4/h4,7H,1-3H3	InChI=1S/C6H11NO/c1-4-5(8)6(2,3)7-4/h4,7H,1-3H3/t4-/m1/s1
