20
gdb 114493	2.69455	1.2889	1.01571	2.022	78.74	-0.232	-0.0301	0.2019	1239.2967	0.170498	-403.122327	-403.113654	-403.11271	-403.156271	32.518	
C	-0.2269305032	 1.5249263491	 0.0868068625	-0.383466
C	-0.0767857498	 0.0018239992	 0.0141794998	-0.200529
C	 0.7812255233	-0.5552156254	 1.1450133589	 0.022166
C	 0.2159805418	-0.5736917075	 2.5946785398	-0.195277
N	 0.5598072285	-2.0256342824	 2.7690517272	-0.126141
C	-0.6158247241	-2.9226662491	 2.5477057446	-0.306048
C	-0.295127255	-2.9707964703	 1.039318064	 0.396738
O	-0.7839669304	-3.485522736	 0.0784152635	-0.290395
C	 0.942703183	-2.0928217841	 1.2988231299	-0.148696
H	 0.7471904374	 2.0225316734	 0.0247910056	 0.117184
H	-0.8464121453	 1.9000045489	-0.733055392	 0.119111
H	-0.6974377074	 1.8350843813	 1.0264684945	 0.118957
H	-1.0673127776	-0.4688010916	 0.0344272504	 0.105178
H	 0.3705568311	-0.2811074872	-0.9469512368	 0.10885
H	 1.7691039627	-0.0843213238	 1.1181379787	 0.085837
H	 0.7285172764	 0.0649019607	 3.3185616994	 0.112092
H	-0.8611242029	-0.3708344777	 2.6579782552	 0.097959
H	-0.4965562142	-3.8936045894	 3.0423946471	 0.13752
H	-1.5912774826	-2.507777273	 2.8256170474	 0.12851
H	 1.9028718382	-2.5392792352	 1.0234105102	 0.100449
69.5967	91.1339	96.3949	205.8246	250.4497	372.5024	375.8553	403.2034	426.4591	544.7197	632.2464	704.5596	749.1665	781.3004	856.3557	895.3735	921.9674	933.6848	967.1895	981.9876	996.9125	1039.5497	1054.7428	1100.2725	1128.103	1166.9747	1168.3366	1185.5118	1198.3075	1228.1739	1253.9535	1282.8139	1307.3016	1310.9357	1345.3925	1391.4159	1413.4108	1449.9947	1483.612	1500.8191	1505.563	1511.1431	1895.2883	3017.8066	3026.235	3031.4938	3032.6228	3044.9412	3061.0088	3069.4614	3082.1664	3089.7228	3097.9165	3107.8862
CCC1CN2CC(=O)C12	CC[C@H]1CN2CC(=O)[C@@H]12	
InChI=1S/C7H11NO/c1-2-5-3-8-4-6(9)7(5)8/h5,7H,2-4H2,1H3	InChI=1S/C7H11NO/c1-2-5-3-8-4-6(9)7(5)8/h5,7H,2-4H2,1H3/t5-,7+/m0/s1
