16
gdb 17372	4.27108	1.74666	1.40288	3.5264	65.26	-0.2298	0.0525	0.2823	886.3552	0.13193	-379.918411	-379.911175	-379.910231	-379.949988	27.58	
N	-0.1315860847	 1.2557529385	-0.2516800808	-0.554425
C	-0.0532847621	-0.1167786882	-0.0538782851	 0.405864
O	 0.956285842	-0.7639226768	-0.2540878107	-0.388188
N	-1.2309144938	-0.6860943084	 0.3950161055	-0.111566
C	-2.6262110513	-0.2960626934	 0.0659500443	-0.198393
C	-2.9677335757	-1.7824543889	-0.0956855823	-0.084151
C	-2.0512361599	-2.4178314052	-1.1147718576	-0.277825
C	-1.5202377464	-2.1065600627	 0.2525203694	 0.011027
H	 0.7757774693	 1.6900316097	-0.3288252618	 0.259697
H	-0.792349221	 1.7727331749	 0.3087015944	 0.252131
H	-3.1308627815	 0.1856359455	 0.910637923	 0.111855
H	-2.7261135186	 0.3318435266	-0.8270301717	 0.119171
H	-3.873431844	-2.2519083453	 0.2607544245	 0.101592
H	-2.2435997801	-3.4688534308	-1.306185798	 0.119591
H	-1.6996768106	-1.855718922	-1.9756579758	 0.121913
H	-1.0940111516	-2.8357216235	 0.9286645828	 0.111707
96.3355	110.8459	203.2143	341.008	416.2713	443.2498	454.4375	545.1281	578.0454	679.9366	770.3069	788.7322	793.6334	845.9758	937.0883	957.4589	987.1801	1026.6544	1055.8642	1073.2869	1093.9916	1102.8064	1142.6173	1169.2871	1187.3574	1223.6884	1273.1541	1310.1029	1367.6582	1419.3764	1477.4367	1511.5943	1621.8044	1797.4913	3024.9911	3072.4122	3117.6541	3200.7143	3207.53	3220.9093	3573.8649	3689.2673
NC(=O)N1CC2CC12	NC(=O)N1C[C@H]2C[C@@H]12	
InChI=1S/C5H8N2O/c6-5(8)7-2-3-1-4(3)7/h3-4H,1-2H2,(H2,6,8)	InChI=1S/C5H8N2O/c6-5(8)7-2-3-1-4(3)7/h3-4H,1-2H2,(H2,6,8)/t3-,4-/m1/s1
