15
gdb 81278	2.73997	1.50827	1.30125	1.7009	61.1	-0.2399	-0.036	0.204	987.8631	0.111663	-494.865347	-494.857556	-494.856612	-494.897596	29.485	
O	-0.0123207699	 1.3863383088	 0.0693138596	-0.432237
C	 0.0585426268	-0.0065002319	 0.0232709383	 0.141122
C	-1.3334898436	-0.6314007212	-0.1880175833	 0.029448
O	-1.2154984587	-0.3893610083	-1.6265794644	-0.294343
C	 0.2136358441	-0.6255197589	-1.4175542985	-0.103202
C	 0.1843430633	-2.107359158	-1.0665505592	 0.401722
O	 0.95835445	-3.0018219381	-1.2756072543	-0.334628
C	-1.0828000045	-2.1531502882	-0.1693682452	 0.021117
O	-0.801071469	-2.691560816	 1.1000755383	-0.440215
H	 0.8824854658	 1.7379815005	 0.1134609403	 0.294049
H	 0.6773457853	-0.4327133771	 0.8219753213	 0.098742
H	-2.2326910201	-0.2255902649	 0.2718364029	 0.104928
H	 0.8797628894	-0.2421016808	-2.1874469231	 0.10622
H	-1.9153105328	-2.6659627587	-0.6707869917	 0.108492
H	-0.2471140963	-3.4702058773	 0.960123059	 0.298786
99.9243	172.5662	226.4711	265.3287	306.8824	321.3177	344.4884	473.9151	521.6905	555.4608	633.5	727.8476	770.283	856.8897	899.8164	915.613	956.9654	977.3366	993.7842	1094.8808	1130.5844	1144.8946	1149.3048	1173.1151	1200.5693	1219.4301	1271.4127	1297.2455	1309.7047	1330.032	1394.3353	1451.743	1872.0307	3014.8165	3039.5385	3146.8975	3156.4626	3774.3861	3823.0881
OC1C2OC1C(=O)C2O	O[C@H]1[C@H]2O[C@@H]1C(=O)[C@H]2O	
InChI=1S/C5H6O4/c6-1-2(7)5-3(8)4(1)9-5/h1,3-6,8H	InChI=1S/C5H6O4/c6-1-2(7)5-3(8)4(1)9-5/h1,3-6,8H/t1-,3+,4+,5-/m1/s1
