20
gdb 53313	5.11518	0.81309	0.77306	1.7319	89.43	-0.2245	0.0407	0.2652	1567.6956	0.169399	-365.951202	-365.941515	-365.940571	-365.986987	35.011	
C	 0.0667506611	 1.5469576065	-0.1905737315	-0.498273
C	 0.0511615492	 0.0976718938	-0.0555791242	 0.035675
C	 0.0416073363	-1.1035661917	 0.0429135956	 0.131904
C	 0.0266993392	-2.5474990168	 0.1760812019	-0.144136
C	 0.2631651077	-3.1753278875	 1.5869925759	-0.322148
C	-1.126255534	-3.7980341871	 1.449426862	 0.367663
C	-1.4662757216	-5.2140385047	 1.8075332096	-0.490833
C	-2.1302442964	-2.7470325095	 1.1918922147	-0.283368
N	-1.3283687882	-3.2322067829	 0.0471781947	-0.17206
H	 0.8822217424	 1.8764227591	-0.8438962086	 0.149793
H	-0.8710681004	 1.9126558535	-0.6232467778	 0.151704
H	 0.19831642	 2.0391900357	 0.779429858	 0.14693
H	 0.6850344811	-2.9968909826	-0.5722033493	 0.107044
H	 1.0719823638	-3.9090186277	 1.5801536033	 0.108745
H	 0.4128996773	-2.4858071739	 2.4215005136	 0.107513
H	-1.5248556026	-5.3367301214	 2.8957411215	 0.120971
H	-2.4326134041	-5.500254985	 1.3823270164	 0.129191
H	-0.7095469022	-5.911350554	 1.431444704	 0.119961
H	-3.1698759061	-3.0535912339	 1.1250268335	 0.115394
H	-1.9783569526	-1.7292897796	 1.5435029766	 0.118333
23.3334	76.8091	89.7071	185.8726	192.3878	262.8607	292.1652	343.6702	376.7961	438.4597	471.0493	540.4394	636.7737	711.2761	763.9514	778.7582	871.5565	924.3479	961.1774	975.6407	992.7096	1045.064	1051.7024	1053.5709	1080.2943	1120.4448	1123.1281	1148.1477	1193.1544	1237.5008	1250.9687	1310.6761	1353.0694	1382.5291	1414.2072	1422.8532	1477.2382	1478.4164	1482.3416	1487.1548	1492.8711	1511.7198	2362.1103	3025.2321	3026.1608	3061.2381	3064.1751	3085.6565	3086.4736	3087.9533	3107.3303	3110.3651	3118.1287	3196.0723
CC#CC1CC2(C)CN12	CC#C[C@H]1C[C@@]2(C)CN12	
InChI=1S/C8H11N/c1-3-4-7-5-8(2)6-9(7)8/h7H,5-6H2,1-2H3	InChI=1S/C8H11N/c1-3-4-7-5-8(2)6-9(7)8/h7H,5-6H2,1-2H3/t7-,8-,9?/m0/s1
