14
gdb 12632	3.47806	1.9961	1.3656	1.4688	58.4	-0.2723	-0.042	0.2303	854.4587	0.106014	-419.687847	-419.680281	-419.679336	-419.719713	27.652	
O	 0.3923691955	 1.3311222171	-0.2552857701	-0.439464
C	 0.1290636553	-0.017060939	 0.0403796614	 0.02592
C	 0.7623766351	-0.5306889924	 1.3169134008	-0.100135
C	-0.0754604154	-1.2839075684	 2.0357199047	-0.100135
C	-1.4348162268	-1.4229952954	 1.3820808307	 0.02592
O	-2.530643408	-1.2966782444	 2.2524556472	-0.439464
C	-1.3412475156	-0.2659856945	 0.3846477622	 0.302184
O	-2.2490211598	 0.4767746023	 0.1048710006	-0.324917
H	-0.4671641643	 1.7545952625	-0.3888633521	 0.297524
H	 0.4153422761	-0.6515310079	-0.8175626886	 0.105848
H	 1.7917609593	-0.3038379842	 1.567052666	 0.121674
H	 0.1531217203	-1.7769806376	 2.9728924204	 0.121674
H	-1.5038024113	-2.3768506115	 0.8289319999	 0.105849
H	-3.1038575606	-0.6158007467	 1.8732441668	 0.297524
75.7989	204.102	222.3564	264.007	298.2303	305.4314	340.5747	498.9938	546.5042	640.7101	693.6263	745.7969	756.3507	917.8335	982.4195	998.6908	1000.439	1022.3926	1111.2728	1154.8911	1167.015	1209.1654	1232.7071	1320.339	1349.4071	1378.6969	1394.8623	1405.0249	1662.1258	1839.7719	2940.1683	2943.4795	3200.6948	3222.4478	3742.1646	3746.0933
OC1C=CC(O)C1=O	O[C@H]1C=C[C@@H](O)C1=O	
InChI=1S/C5H6O3/c6-3-1-2-4(7)5(3)8/h1-4,6-7H	InChI=1S/C5H6O3/c6-3-1-2-4(7)5(3)8/h1-4,6-7H/t3-,4+
