18
gdb 124617	2.6455	1.37719	1.12995	0.9086	75.23	-0.2129	-0.0135	0.1994	1150.9266	0.147625	-431.428423	-431.419286	-431.418342	-431.463124	33.153	
C	-0.0515354803	 1.4979628851	 0.0769743755	-0.388357
C	-0.0138099447	-0.0332715649	 0.0625117095	 0.040696
C	 0.7923281854	-0.6164708813	 1.2271214302	-0.388354
N	-1.3694976421	-0.5810568447	 0.0501823577	-0.046448
N	-2.2438930149	-0.3757289803	 1.0688443208	-0.11075
N	-3.3367934144	-0.9570445317	 0.8021224747	-0.075198
N	-3.191396111	-1.5618976909	-0.4160288948	-0.324517
C	-1.9323826622	-1.3536614506	-0.9567083057	 0.489077
N	-1.3476784256	-1.707687081	-2.03600226	-0.605228
H	 0.9660607103	 1.8962189299	 0.0300421602	 0.121553
H	-0.6112704691	 1.8825974929	-0.7798867131	 0.128428
H	-0.5238127206	 1.8649275139	 0.9928183667	 0.138428
H	 0.4062099329	-0.3813738392	-0.8855792128	 0.138375
H	 0.3514130267	-0.3282437415	 2.1857592291	 0.138424
H	 0.8218004597	-1.7081181566	 1.1732664361	 0.128434
H	 1.8196095945	-0.2424687591	 1.1934804143	 0.12155
H	-3.9568966819	-2.08066596	-0.8080322442	 0.281574
H	-1.9505793626	-2.2707193301	-2.6284917542	 0.212314
26.4773	103.6038	184.8684	189.3239	222.3548	257.0242	295.9537	349.4442	414.7672	441.7652	549.276	638.7442	669.0799	697.0136	721.5608	777.2264	889.6058	938.4386	952.5096	977.9921	1024.4844	1075.7046	1103.0601	1151.0962	1168.9081	1225.3093	1237.2584	1358.7139	1368.0049	1399.7505	1402.89	1420.5904	1424.2888	1484.3748	1489.0591	1498.6952	1505.4058	1512.043	1753.1226	3043.1239	3046.7895	3081.6653	3117.8103	3122.657	3123.0675	3128.3919	3536.478	3699.9704
CC(C)N1N=NNC1=N	CC(C)N1N=NN[C@@H]1[NH]	
InChI=1S/C4H9N5/c1-3(2)9-4(5)6-7-8-9/h3H,1-2H3,(H2,5,6,8)	InChI=1S/C4H10N5/c1-3(2)9-4(5)6-7-8-9/h3-5H,1-2H3,(H,6,8)/t4-/m0/s1
