16
gdb 54111	2.98943	1.6637	1.21585	4.7939	65.2	-0.2712	0.0026	0.2737	988.8804	0.125252	-474.991812	-474.984756	-474.983812	-475.023271	28.202	
O	 0.0676964566	 1.3931964534	 0.0032422592	-0.488603
C	-0.0258505538	 0.0184560187	-0.013645612	 0.342226
C	-0.2331207036	-0.7071403768	 1.3664046643	-0.086351
C	-1.6395720732	-0.0534435877	 1.4395929159	-0.24912
C	-1.4693154656	-0.6061227461	-0.0013623592	-0.086327
N	-0.8204370328	-1.863004262	 0.5656002587	-0.373196
H	 0.3841220894	-2.2284110078	-0.5507636592	 0.323886
H	-1.4921065682	-2.3803018311	 1.1344571435	 0.230108
C	 1.0219844457	-0.5394886552	-1.0016542575	 0.372137
O	 1.088139391	-1.8479176654	-1.1592834958	-0.366396
O	 1.7352748307	 0.2439409009	-1.5895805953	-0.370642
H	 0.7832495234	 1.5920988173	-0.62824069	 0.301896
H	 0.4960048634	-0.8768649588	 2.159191589	 0.103941
H	-2.3686874107	-0.5839102059	 2.059401058	 0.099358
H	-1.6918764716	 1.0265236272	 1.5666302662	 0.14313
H	-2.1926965208	-0.6571475107	-0.8156470758	 0.103954
109.459	175.1707	308.5292	372.8656	381.9193	425.7103	470.6774	563.4732	614.9951	642.4329	691.2157	749.818	814.2586	816.674	883.1319	912.6378	937.9626	994.6304	1017.127	1036.486	1070.5869	1106.9345	1126.6288	1137.2063	1147.5163	1206.8495	1247.471	1267.4039	1268.2858	1277.4847	1340.2955	1452.6482	1502.2532	1535.9286	1823.8055	3031.0613	3061.2393	3116.9743	3121.4393	3160.5822	3443.3408	3613.9771
OC1(C2CC1[NH2+]2)C([O-])=O	O[C@]1([C@H]2C[C@@H]1N2)C(=O)O	
InChI=1S/C5H7NO3/c7-4(8)5(9)2-1-3(5)6-2/h2-3,6,9H,1H2,(H,7,8)	InChI=1S/C5H7NO3/c7-4(8)5(9)2-1-3(5)6-2/h2-3,6,9H,1H2,(H,7,8)/t2-,3+,5+
