19
gdb 68606	2.31372	1.88784	1.48322	0.4547	74.59	-0.2534	0.084	0.3374	985.3702	0.159209	-422.989577	-422.98173	-422.980786	-423.021475	31.144	
C	 0.0647286756	 1.5411244723	 0.1321837145	-0.50495
C	-0.0135386003	 0.0461118639	 0.0354668617	 0.313342
C	 0.7434527458	-0.7058073309	-1.0872127385	-0.253823
C	 0.5055838185	-2.1670160872	-0.5840228891	-0.225756
C	-0.3182209271	-1.8161306058	 0.6714725084	-0.026653
O	 0.426015142	-0.6904108806	 1.2333143552	-0.338347
C	-1.3055855585	-0.7796360188	 0.139536779	 0.463619
C	-2.6675195559	-0.431116621	 0.4982729996	-0.296962
O	-2.3229723628	-0.9382789158	-0.8162365695	-0.287643
H	 1.1064609146	 1.8687584115	 0.2081188392	 0.131775
H	-0.3700541975	 1.998024756	-0.7626943324	 0.130886
H	-0.4762348203	 1.9051477141	 1.0098652517	 0.128463
H	 0.3110337879	-0.5152794438	-2.0729236587	 0.111656
H	 1.7996069535	-0.4273038556	-1.1020884807	 0.104238
H	-0.0570403686	-2.7810662266	-1.2917489301	 0.113146
H	 1.4317339109	-2.6819911975	-0.3218043424	 0.107355
H	-0.5714628747	-2.5935637041	 1.3908694077	 0.084586
H	-3.2610461244	-1.106796971	 1.1117430746	 0.1231
H	-2.9790591187	 0.6117824011	 0.5204789797	 0.121966
154.7808	176.4956	219.5007	233.5487	254.7244	326.5928	429.084	454.0752	580.7388	613.5546	629.7507	760.3433	808.6662	830.5614	859.3695	880.6876	913.1598	918.1201	944.5363	965.7819	999.4039	1006.2505	1091.8087	1111.4164	1133.273	1142.8496	1169.9466	1195.1174	1200.3333	1246.8113	1265.6122	1280.4003	1305.2921	1350.7829	1415.4419	1463.4558	1471.8116	1484.7243	1492.7699	1496.4127	1561.7693	3039.6036	3064.0629	3073.4409	3088.754	3108.3077	3112.009	3118.6035	3128.7794	3136.0133	3175.5336
CC12CCC(O1)C21CO1	C[C@@]12CC[C@@H](O1)[C@]12CO1	
InChI=1S/C7H10O2/c1-6-3-2-5(9-6)7(6)4-8-7/h5H,2-4H2,1H3	InChI=1S/C7H10O2/c1-6-3-2-5(9-6)7(6)4-8-7/h5H,2-4H2,1H3/t5-,6+,7+/m1/s1
