19
gdb 71249	2.29102	2.08358	1.61999	2.1861	74.18	-0.2317	0.0707	0.3024	932.7042	0.159438	-422.992492	-422.984869	-422.983925	-423.023883	31.383	
C	-0.1304472291	 1.4702700971	 0.0837678064	-0.504311
C	 0.0283364048	-0.0190761061	 0.031227635	 0.371421
C	 0.5327551571	-0.7574421692	-1.2274036939	-0.23971
C	 0.7370303286	-2.0937951465	-0.4849529245	-0.095765
C	 1.8704500585	-1.7283024431	 0.5121492832	-0.321205
C	 0.7850072671	-0.852829146	 1.1569595537	 0.361535
O	 0.8799100834	-0.2032402619	 2.3751686495	-0.482289
C	-0.3258053408	-1.8283197221	 0.6906938835	 0.025404
O	-1.20274467	-0.7762037007	 0.2980716475	-0.326039
H	 0.8177161807	 1.9641556858	-0.1504882925	 0.120308
H	-0.8786848143	 1.7975801317	-0.6455343971	 0.126842
H	-0.4487982821	 1.7847815114	 1.080395569	 0.142491
H	-0.2429709417	-0.7736859209	-1.9957985658	 0.104625
H	 1.4629489686	-0.3628894882	-1.6459972966	 0.093889
H	 0.7559921387	-3.0226634549	-1.0493739801	 0.072482
H	 2.1385991488	-2.5631190216	 1.1695728955	 0.089394
H	 2.7774559273	-1.2657791333	 0.1120745286	 0.097807
H	 1.1478575482	-0.8397312976	 3.0461016397	 0.28374
H	-0.7767277439	-2.654924224	 1.238459889	 0.079379
181.7947	215.8765	218.5401	263.5596	354.1319	356.6194	455.5453	475.9416	530.3396	598.8519	660.899	694.6532	726.2621	784.9057	832.7748	883.6484	894.5566	928.373	936.4809	969.8585	1012.0837	1027.8607	1037.9348	1082.0201	1106.9409	1122.607	1151.9207	1166.2712	1189.5429	1230.3245	1245.4225	1269.7464	1295.8108	1300.5375	1349.7403	1387.3577	1414.0359	1476.4911	1478.3672	1490.2186	1503.4727	3037.9885	3041.172	3061.1429	3094.5732	3109.1483	3119.3748	3128.6429	3128.8539	3149.9315	3811.9961
CC12CC3CC1(O)C3O2	C[C@@]12C[C@H]3C[C@]1(O)[C@H]3O2	
InChI=1S/C7H10O2/c1-6-2-4-3-7(6,8)5(4)9-6/h4-5,8H,2-3H2,1H3	InChI=1S/C7H10O2/c1-6-2-4-3-7(6,8)5(4)9-6/h4-5,8H,2-3H2,1H3/t4-,5-,6+,7-/m0/s1
