21
gdb 78908	3.26001	1.75848	1.56604	0.0892	84.05	-0.2523	0.0961	0.3483	957.0259	0.18653	-349.949176	-349.942576	-349.941632	-349.979697	28.818	
C	-0.1181688599	 1.5858746182	-0.0333536612	-0.403661
C	-0.0184413127	 0.0595655251	-0.0258219426	-0.001583
C	 0.8570929038	-0.524158543	-1.1252647634	-0.071975
C	 2.2845032758	-0.605860151	-0.6115889122	-0.059849
C	 1.4132579741	-1.8500159904	-0.6496219913	-0.07443
C	 1.1203840765	-2.0194058947	 0.8541802226	-0.060705
C	 2.4977120044	-1.7502009003	 1.5263378186	-0.229993
C	 2.3041802097	-0.3359820905	 0.9041312642	-0.04959
C	 0.7636551745	-0.5225644744	 1.1484813725	-0.027899
H	 0.8755522741	 2.044338963	 0.0081530442	 0.117234
H	-0.61268135	 1.9463137545	-0.9416659435	 0.109787
H	-0.6938255745	 1.950213848	 0.8243759306	 0.108709
H	-1.0267343699	-0.3754250025	-0.0645716644	 0.065407
H	 0.6544580336	-0.3484250814	-2.1758660095	 0.073483
H	 3.1490042994	-0.4664720269	-1.2467405072	 0.077774
H	 1.5988653535	-2.6855092962	-1.3114613084	 0.078867
H	 0.4720205448	-2.8418475026	 1.1576584615	 0.055918
H	 2.4405476994	-1.7424562954	 2.6191784303	 0.088871
H	 3.3564965824	-2.3438214763	 1.1991564637	 0.086032
H	 2.8534695799	 0.5349531574	 1.2618036675	 0.056506
H	 0.415429561	-0.3072135307	 2.1583928082	 0.061095
178.9037	225.2617	255.1711	426.1495	471.6494	540.1907	656.0394	688.6682	703.8283	795.0549	801.2478	822.8333	854.2919	860.9243	886.5386	901.6925	934.0648	952.6374	960.7697	985.8236	995.6695	1007.5624	1046.7264	1056.7465	1064.713	1076.3015	1088.1642	1096.3109	1122.0842	1128.1884	1188.4686	1227.9459	1235.7647	1245.7261	1249.6888	1273.7683	1283.8674	1306.0758	1324.1938	1369.9144	1386.1795	1408.6418	1496.824	1499.0392	1500.9713	3012.1335	3028.5307	3045.2562	3093.6586	3099.3977	3101.7422	3106.652	3108.902	3123.3701	3175.1605	3194.8696	3206.0941
CC1C2C3C2C2CC3C12	C[C@H]1[C@H]2[C@@H]3[C@H]2[C@H]2C[C@@H]3[C@@H]12	
InChI=1S/C9H12/c1-3-6-4-2-5(6)9-7(3)8(4)9/h3-9H,2H2,1H3	InChI=1S/C9H12/c1-3-6-4-2-5(6)9-7(3)8(4)9/h3-9H,2H2,1H3/t3-,4-,5+,6-,7+,8-,9+/m1/s1
