18
gdb 51318	3.6924	1.09756	0.87466	2.3018	77.68	-0.2172	-0.0159	0.2013	1294.3271	0.150596	-435.29925	-435.291062	-435.290118	-435.332532	30.525	
O	 0.3968983947	 2.6501301061	-0.9099743169	-0.305374
C	 0.0597194814	 1.8069872826	-0.1098434942	 0.157256
N	 0.8602109098	 0.851268522	 0.457884439	-0.33939
C	 2.2354482439	 0.6034863044	 0.2866011037	 0.377728
N	 2.6989943842	-0.3589282356	 0.9778362101	-0.29592
C	 4.1035659164	-0.7234511443	 0.8301009948	-0.149615
C	 4.7573570186	-0.1719198681	-0.4401637381	-0.177594
N	 4.4508017693	 1.2439993936	-0.6419862103	-0.285037
C	 3.0107867949	 1.4733675441	-0.6909589257	-0.262392
H	-0.9791256859	 1.7145699147	 0.2624426466	 0.09114
H	 0.4302148444	 0.2089446119	 1.1115369441	 0.25505
H	 4.6439100385	-0.3663557947	 1.719725838	 0.104204
H	 4.1705230887	-1.8185201078	 0.8598390008	 0.107016
H	 5.843422461	-0.3070459701	-0.4093631364	 0.104145
H	 4.3880120113	-0.7221904519	-1.3154937166	 0.110616
H	 4.8461327338	 1.7805967021	 0.1242292442	 0.219232
H	 2.6315728911	 1.278958397	-1.703296763	 0.140793
H	 2.7925942737	 2.5261721339	-0.5052991901	 0.148141
57.9874	123.0354	190.2137	226.0011	280.2679	343.4789	351.5345	464.6573	487.9041	547.0406	629.7596	704.4133	776.9932	831.6282	831.9652	896.0347	903.0148	970.2475	1005.8534	1030.8549	1087.4102	1133.6534	1138.6088	1159.448	1207.6957	1267.9438	1272.5991	1329.5161	1366.8878	1370.6795	1405.3895	1442.3853	1445.925	1479.2043	1486.2946	1492.5814	1505.1745	1729.3887	1809.5442	2946.699	2996.251	3021.4784	3026.9069	3040.4208	3078.9377	3121.8875	3508.6896	3579.3816
O=CNC1=NCCNC1	O=CNC1=NCCNC1	
InChI=1S/C5H9N3O/c9-4-8-5-3-6-1-2-7-5/h4,6H,1-3H2,(H,7,8,9)	InChI=1S/C5H9N3O/c9-4-8-5-3-6-1-2-7-5/h4,6H,1-3H2,(H,7,8,9)
