14
gdb 128456	4.74937	1.11347	0.90718	5.4904	64.39	-0.2686	-0.0431	0.2256	1202.3778	0.101841	-470.046719	-470.038805	-470.037861	-470.080091	27.187	
C	 0.0474865495	 1.3742628167	 0.0094051155	-0.243024
O	-0.0399514445	-0.0624988906	 0.003612334	-0.246044
C	-1.2820800385	-0.5495867629	 0.0107816481	 0.56623
O	-2.3022283587	 0.0820905246	 0.0212301211	-0.37584
N	-1.2453810809	-1.9557303215	 0.0040832238	-0.166268
C	-0.1709048152	-2.8245040284	-0.0077591282	 0.045032
N	-0.5811323846	-4.0565056048	-0.0110881784	-0.22054
N	-1.9764418948	-4.0341063611	-0.0004453206	-0.222299
C	-2.345426241	-2.7892897257	 0.0087144563	 0.055659
H	 1.1129591504	 1.5988095914	 0.0016082079	 0.150329
H	-0.4415118572	 1.7867287971	-0.8754534169	 0.156249
H	-0.426726162	 1.7786218441	 0.9059838821	 0.156218
H	 0.8512691361	-2.4855058659	-0.0137529811	 0.168067
H	-3.3529138287	-2.4072990429	 0.0181706763	 0.176233
85.0017	97.2878	124.0819	165.2834	209.7558	314.7852	415.1815	522.6216	627.5012	682.362	784.736	820.9763	846.4896	880.2917	947.6171	974.5444	995.0852	1063.4537	1163.3248	1181.3323	1220.2925	1226.4035	1276.5875	1320.6853	1408.5959	1479.6734	1482.8933	1497.3098	1529.1726	1542.7932	1848.0141	3062.8445	3144.2831	3175.953	3290.3031	3295.4867
COC(=O)N1C=NN=C1	COC(=O)n1cnnc1	
InChI=1S/C4H5N3O2/c1-9-4(8)7-2-5-6-3-7/h2-3H,1H3	InChI=1S/C4H5N3O2/c1-9-4(8)7-2-5-6-3-7/h2-3H,1H3
