15
gdb 21655	3.35279	2.03548	1.28084	2.5887	64.3	-0.1885	0.0523	0.2408	903.2074	0.12175	-392.168554	-392.160408	-392.159464	-392.200341	30.523	
N	 0.0000977338	 1.3402047223	 0.2570807481	-0.591803
C	 0.0394993502	-0.0492157792	 0.119476566	 0.321295
N	-1.0694596468	-0.7733425095	 0.0984980169	-0.327007
N	-0.6148627397	-2.0700161289	 0.021799271	-0.275666
C	 0.7329665071	-2.1506527277	 0.0019435165	 0.385101
N	 1.4376563605	-3.3513482868	 0.0153171103	-0.607607
C	 1.2129624131	-0.8524777182	 0.0496072595	 0.010891
N	 2.5951091512	-0.5133710571	 0.0336518119	-0.63258
H	 0.6766310375	 1.8126381377	-0.3289685839	 0.233275
H	-0.9292316497	 1.6998216078	 0.0770950139	 0.247878
H	-1.2704906557	-2.8214471078	 0.1380799334	 0.263385
H	 1.1674604705	-3.9907577311	-0.7230984367	 0.24518
H	 2.4295501629	-3.1489336865	-0.0543101565	 0.257417
H	 2.8571028667	 0.0377199308	 0.8453802648	 0.240578
H	 2.8543976584	 0.0249106042	-0.7879400054	 0.229663
174.4048	198.1629	219.9502	247.2211	276.5334	283.8897	309.624	326.5734	426.2135	543.1418	595.5057	659.6071	701.6434	738.5151	769.7206	811.8742	819.9866	837.8437	1053.97	1086.9801	1141.7793	1187.0366	1213.0456	1295.5582	1360.938	1456.5039	1539.1557	1580.9915	1621.1103	1641.3341	1649.6924	1688.8229	3480.7501	3510.8597	3530.3622	3544.9354	3599.2619	3625.9656	3692.5663
NC1=NNC(N)=C1N	Nc1n[nH]c(N)c1N	
InChI=1S/C3H7N5/c4-1-2(5)7-8-3(1)6/h4H2,(H5,5,6,7,8)	InChI=1S/C3H7N5/c4-1-2(5)7-8-3(1)6/h4H2,(H5,5,6,7,8)
