22
gdb 80911	2.36843	1.43177	1.33471	1.5011	82.92	-0.2343	0.0717	0.3059	1146.6155	0.192195	-404.273348	-404.263322	-404.262378	-404.307837	37.945	
C	-0.343842433	 1.518919008	-0.0833467292	-0.457821
C	-0.0464674298	 0.0316927999	 0.0188746958	 0.028339
N	 1.1985869894	-0.5319860977	-0.7114367603	-0.194911
C	 2.0050869093	 0.0449637201	 0.4609809137	-0.259254
C	 0.7887686171	-0.6224745171	 1.1577535971	 0.289151
O	 0.4971807643	-0.7813565928	 2.5057881237	-0.470776
C	 1.0234730133	-1.8101483076	 0.1859946262	 0.36323
C	-0.1097370562	-2.7602117136	-0.2126995394	-0.48504
C	 2.2849800668	-2.6724540249	 0.3476924845	-0.479757
H	-0.5096140349	 1.7901728605	-1.1314734714	 0.135039
H	-1.2695115702	 1.7375622495	 0.4605387885	 0.119304
H	 0.4325684991	 2.1774882548	 0.3108673449	 0.116577
H	-0.9503694634	-0.501538893	-0.2663044041	 0.068071
H	 2.9972043569	-0.3821323949	 0.5787534555	 0.104657
H	 2.0698052425	 1.1313438882	 0.4512698427	 0.095185
H	 0.4118818372	 0.088945043	 2.9106234372	 0.280413
H	-1.0402397914	-2.2874565367	-0.5219303787	 0.122348
H	 0.2259272807	-3.3925037066	-1.0412596731	 0.12422
H	-0.3381953801	-3.4183366236	 0.6321082287	 0.129516
H	 3.0322141172	-2.2632799906	 1.0273353587	 0.122015
H	 2.0075867783	-3.6558760882	 0.736595841	 0.119519
H	 2.7551130068	-2.8258410065	-0.629860942	 0.129976
68.4648	126.9259	138.9286	176.0864	195.3296	228.4115	243.417	287.703	388.4538	440.8157	477.8416	498.0444	537.9093	594.6545	626.9944	682.3505	745.17	803.7984	853.0896	881.2407	960.3026	978.257	983.29	994.6395	1053.1975	1066.3767	1085.0602	1132.4171	1141.1406	1151.0752	1182.1493	1229.7354	1235.1122	1239.6626	1282.2713	1363.4908	1398.1344	1409.6178	1415.4264	1434.3348	1485.3739	1490.2244	1495.2492	1497.7212	1511.1951	1515.4679	1565.0978	3038.6545	3042.6787	3048.1974	3095.8973	3100.7597	3108.0477	3109.1374	3121.1179	3131.2675	3139.4057	3158.1178	3175.8736	3803.1283
CC1N2CC1(O)C2(C)C	C[C@H]1N2C[C@]1(O)C2(C)C	
InChI=1S/C7H13NO/c1-5-7(9)4-8(5)6(7,2)3/h5,9H,4H2,1-3H3	InChI=1S/C7H13NO/c1-5-7(9)4-8(5)6(7,2)3/h5,9H,4H2,1-3H3/t5-,7-/m1/s1
