19
gdb 68882	2.34511	1.82736	1.40713	1.7816	74.91	-0.2295	0.0674	0.2969	1003.2259	0.159178	-422.977241	-422.969157	-422.968213	-423.009458	31.811	
C	 0.0638379925	 1.5732921139	 0.042819801	-0.507299
C	-0.021719455	 0.0743919273	 0.0477408034	 0.258091
C	 1.1439823917	-0.805221009	-0.3772877612	-0.393
C	 0.6054350135	-0.9804469333	 0.9996684197	 0.381302
O	 1.3999504062	-0.8370449673	 2.1142556048	-0.460229
C	-0.6663678638	-1.7962586559	 0.9699384837	 0.021788
O	-1.5630932822	-1.3938841934	 2.0324911343	-0.307378
C	-2.2752152727	-0.4936152327	 1.1498283373	-0.091747
C	-1.3027240692	-0.7577692211	-0.0156676753	-0.143744
H	 1.0393396813	 1.9037358389	 0.4143453931	 0.128961
H	-0.0626198259	 1.9832829057	-0.9666092624	 0.120883
H	-0.7023390314	 2.0272269598	 0.6813616289	 0.116466
H	 1.0334148661	-1.5763908008	-1.1381934411	 0.103542
H	 2.0980764344	-0.2876222257	-0.4069125526	 0.123234
H	 0.7963935412	-0.7116210186	 2.8586077646	 0.293087
H	-0.6303758703	-2.8831396004	 0.8495647665	 0.076228
H	-3.2965975144	-0.8518546736	 0.9708544313	 0.103475
H	-2.3205676682	 0.5290159074	 1.5422943005	 0.102811
H	-1.7271353438	-1.0117765012	-0.9886815868	 0.073528
139.9998	169.0407	187.1828	196.7854	254.7285	396.4374	428.7933	463.9752	501.0226	537.9901	562.6433	703.7453	732.5427	822.2401	845.8009	866.7581	921.7472	965.1048	972.617	991.4392	1008.3146	1016.8101	1063.8362	1080.8629	1107.9026	1157.3742	1159.0781	1182.902	1200.8431	1244.2262	1279.3547	1297.1073	1345.1749	1355.2756	1373.3754	1415.9406	1426.5069	1485.6721	1497.258	1509.6898	1521.6655	3015.7297	3021.369	3060.2296	3064.7369	3077.4626	3092.1968	3094.2487	3097.0808	3194.2608	3763.9418
CC12CC1(O)C1OCC21	C[C@@]12C[C@]1(O)[C@H]1OC[C@@H]21	
InChI=1S/C7H10O2/c1-6-3-7(6,8)5-4(6)2-9-5/h4-5,8H,2-3H2,1H3	InChI=1S/C7H10O2/c1-6-3-7(6,8)5-4(6)2-9-5/h4-5,8H,2-3H2,1H3/t4-,5+,6+,7+/m1/s1
