22
gdb 92083	2.60714	1.48919	1.23572	1.156	81.34	-0.2129	0.0641	0.277	1126.9343	0.195848	-404.331274	-404.322627	-404.321682	-404.3639	34.465	
C	-0.014893145	 1.5548420195	-0.0125803361	-0.410993
C	 0.0702890383	 0.0267517911	 0.0126367044	 0.036525
C	 0.8277780108	-0.5209036102	-1.212018901	-0.225711
C	 1.0773637495	-2.0286108638	-1.1481174875	-0.020985
C	 2.3103221853	-2.5542121292	-0.4901704267	-0.243351
N	 1.0020371259	-2.7628887142	 0.124007915	-0.091962
C	 0.6454841141	-2.0351490842	 1.3380178135	-0.183443
C	 0.7172568633	-0.4996069187	 1.298807966	 0.099329
O	 2.0577186738	-0.002607407	 1.3416615522	-0.430685
H	 0.9825891823	 1.9961124346	 0.0644678735	 0.133184
H	-0.4755426623	 1.9066511809	-0.9416231789	 0.107495
H	-0.6149492097	 1.9315116248	 0.8229758813	 0.105562
H	-0.9494750625	-0.3828579837	-0.001255381	 0.072597
H	 0.2546142864	-0.2914904403	-2.1160473247	 0.095101
H	 1.778712609	 0.0138787264	-1.30173873	 0.117037
H	 0.6691854153	-2.5964441941	-1.9819651537	 0.08433
H	 2.7943953414	-3.4559448786	-0.8593087609	 0.102268
H	 2.9748103906	-1.8133783727	-0.0543443596	 0.118829
H	-0.3921302229	-2.3035382115	 1.5813080758	 0.1028
H	 1.2656139973	-2.4155288258	 2.1610723705	 0.087839
H	 0.1535004813	-0.1169359351	 2.1659560244	 0.061096
H	 2.464004538	-0.3151519081	 2.1559780137	 0.283139
119.1382	168.3706	219.0933	249.3176	278.8934	308.9892	324.1018	373.7017	392.2919	440.1773	550.9413	589.3572	688.0084	735.32	804.1956	867.7615	879.2686	907.4009	926.1665	949.6136	996.6187	1013.0639	1052.5262	1069.1515	1110.801	1124.0623	1128.0965	1137.4109	1168.7613	1180.7757	1206.9691	1276.0672	1284.4569	1315.9952	1320.3621	1347.6044	1367.7252	1372.7661	1399.5011	1403.122	1408.6444	1434.6477	1475.8601	1486.8946	1494.8836	1504.4075	1507.767	2956.1586	3001.7787	3010.3366	3032.8025	3038.4582	3045.817	3082.5164	3095.5622	3096.0494	3116.4685	3118.7074	3190.4738	3820.9819
CC1CC2CN2CC1O	C[C@H]1C[C@H]2CN2C[C@H]1O	
InChI=1S/C7H13NO/c1-5-2-6-3-8(6)4-7(5)9/h5-7,9H,2-4H2,1H3	InChI=1S/C7H13NO/c1-5-2-6-3-8(6)4-7(5)9/h5-7,9H,2-4H2,1H3/t5-,6-,7+,8?/m0/s1
