16
gdb 35039	3.27517	1.45783	1.41099	3.2644	67.96	-0.2669	0.0218	0.2887	958.3187	0.126919	-437.893174	-437.886295	-437.88535	-437.924496	26.794	
N	-0.0436493897	-1.1517024841	-0.1043520685	-0.32825
C	-0.0058154772	 0.00175186	-0.0395796483	 0.285796
C	 0.0102700286	 1.4509356884	 0.0440545338	-0.194154
C	-0.2846353334	 2.0686465611	 1.441435959	 0.069609
C	 0.9193172391	 1.5666918344	 2.2477689903	-0.099115
O	 1.9909273886	 1.5910275411	 1.2761348454	-0.274111
C	 1.4209278504	 2.1002180803	 0.0746204013	 0.070369
C	 1.0314441835	 3.5652560038	 0.3081445228	-0.098164
O	-0.1121935515	 3.4602061289	 1.1874249338	-0.277584
H	-0.6456881193	 1.8825243185	-0.7149463522	 0.136204
H	-1.2676072471	 1.8962439748	 1.875654909	 0.109779
H	 1.1422425409	 2.2468836867	 3.0753793844	 0.122202
H	 0.7949240948	 0.5469972675	 2.6278701454	 0.130859
H	 2.0933202506	 1.9016355111	-0.7580187599	 0.109839
H	 1.8430414944	 4.1078836942	 0.8028184058	 0.12464
H	 0.7425031173	 4.0948456435	-0.6075689818	 0.112081
140.5544	153.3949	222.3154	375.5421	401.8523	416.5132	517.3441	530.159	652.3239	766.6082	833.1223	863.6798	875.9184	906.9782	938.3515	947.1116	1007.5192	1017.9151	1053.5896	1057.9158	1089.7439	1101.4469	1155.1145	1194.2141	1211.5234	1244.1908	1275.0434	1306.6321	1307.6618	1350.6494	1378.6642	1382.0108	1508.7537	1514.6332	2359.4963	3030.4201	3043.2203	3085.5153	3094.9707	3100.8358	3146.6768	3151.055
N#CC1C2COC1CO2	N#C[C@H]1[C@H]2CO[C@@H]1CO2	
InChI=1S/C6H7NO2/c7-1-4-5-2-8-6(4)3-9-5/h4-6H,2-3H2	InChI=1S/C6H7NO2/c7-1-4-5-2-8-6(4)3-9-5/h4-6H,2-3H2/t5-,6-/m1/s1
