18
gdb 35771	3.8384	1.18464	0.99986	2.8818	78.12	-0.2463	0.0386	0.2849	1188.9578	0.148648	-401.885022	-401.877144	-401.8762	-401.917377	30.945	
C	 0.0675815915	-1.20406464	 0.0233309294	-0.408418
C	 0.0705834324	-0.0030691262	 0.0198041529	 0.29245
C	 0.0231088782	 1.4553841471	 0.0358699422	-0.05808
C	-0.7311842823	 1.9946708715	 1.2696709728	-0.205628
C	-0.5496067198	 3.5006781502	 1.3925887132	-0.058824
N	 0.6937644576	 3.947195121	 2.0512426111	-0.318714
C	 0.5256597457	 4.1743679515	 0.6115717102	-0.03852
C	 1.3945196202	 3.3387783374	-0.3058073058	-0.078003
O	 1.3549381131	 1.9578179999	 0.0018723292	-0.250814
H	 0.0781251377	-2.2659657094	 0.0192120063	 0.195604
H	-0.5071968014	 1.7970394853	-0.8714411322	 0.089539
H	-1.7916068666	 1.7404306785	 1.1754927258	 0.105857
H	-0.3448373483	 1.5019592598	 2.1658786488	 0.129144
H	-1.4510583277	 4.0734097687	 1.5956184051	 0.085481
H	 0.5276145228	 4.8103593774	 2.561787815	 0.230556
H	 0.346875051	 5.1902655872	 0.2636462338	 0.084661
H	 1.0705071943	 3.5068315641	-1.3482467078	 0.086501
H	 2.445139722	 3.6338517758	-0.2225375901	 0.117207
88.643	146.7263	192.0383	287.8713	364.6399	373.2655	424.1055	493.8853	537.5621	552.6992	621.1493	670.7666	714.2864	781.9647	797.0394	863.2074	886.5409	952.9916	986.7148	1006.8154	1029.7904	1063.6222	1086.8912	1106.5183	1138.9057	1170.3791	1209.6858	1233.2038	1258.5707	1286.1108	1312.2545	1366.4223	1376.8705	1399.6704	1410.1006	1461.9001	1469.5679	1485.9066	2245.3627	2935.5546	2953.1498	3055.0677	3078.7529	3106.4027	3120.4246	3136.1838	3503.9794	3504.9096
C#CC1CC2NC2CO1	C#C[C@H]1C[C@H]2N[C@H]2CO1	
InChI=1S/C7H9NO/c1-2-5-3-6-7(8-6)4-9-5/h1,5-8H,3-4H2	InChI=1S/C7H9NO/c1-2-5-3-6-7(8-6)4-9-5/h1,5-8H,3-4H2/t5-,6+,7-/m0/s1
