17
gdb 87636	2.85781	1.23859	1.0758	4.7194	69.12	-0.2701	0.0112	0.2813	1162.3517	0.133936	-458.967719	-458.958956	-458.958011	-459.001193	32.435	
C	-0.2935773831	 1.4161182838	 0.037608036	-0.412395
C	-0.0243533676	-0.0818058961	-0.0178614215	-0.276144
C	 1.2266133883	-0.530046727	-0.7872377918	 0.445181
O	 1.6712997964	-0.4423306983	-1.8848264314	-0.321476
O	 1.8027455657	-1.1460115926	 0.3062327943	-0.274844
C	 0.6880744444	-0.7623295201	 1.1449491704	 0.445811
C	 0.8647217149	-0.3501837274	 2.5689629516	-0.398807
C	 0.1522085989	-1.6513232969	 2.1994708223	 0.011643
O	-1.2386460184	-1.7323580164	 2.2725711879	-0.419084
H	 0.5873692217	 1.966889265	 0.3796283593	 0.131104
H	-0.5638240748	 1.7868622172	-0.9549601218	 0.142023
H	-1.1217366717	 1.6325699974	 0.7189340324	 0.129814
H	-0.9129577184	-0.6310955372	-0.3417425348	 0.1312
H	 1.8538910841	-0.4272322582	 3.0074299327	 0.135031
H	 0.2569836964	 0.4762877617	 2.9240896808	 0.127254
H	 0.6981443385	-2.5749831825	 2.391302416	 0.108941
H	-1.4878751155	-1.8197446624	 3.1989479576	 0.294748
82.7088	127.3715	184.5653	212.8622	219.5562	258.0605	315.0052	371.7248	441.5613	510.8952	542.2981	579.4808	696.6969	776.8398	826.1014	840.7507	873.0265	964.1654	972.1318	1017.933	1046.4761	1072.171	1083.8103	1115.7121	1133.6679	1173.7381	1217.2229	1242.9566	1293.0562	1323.4333	1372.4684	1410.0511	1418.5051	1492.8739	1497.7078	1510.7854	1944.0184	3043.9772	3080.0171	3109.2196	3116.6671	3122.7725	3129.0924	3223.8677	3803.3171
CC1C(=O)OC11CC1O	C[C@H]1C(=O)O[C@]21C[C@H]2O	
InChI=1S/C6H8O3/c1-3-5(8)9-6(3)2-4(6)7/h3-4,7H,2H2,1H3	InChI=1S/C6H8O3/c1-3-5(8)9-6(3)2-4(6)7/h3-4,7H,2H2,1H3/t3-,4+,6-/m0/s1
