15
gdb 69299	3.06965	1.35141	1.06323	3.0992	72.78	-0.2349	-0.0202	0.2148	1101.8115	0.109882	-420.571469	-420.562995	-420.562051	-420.604522	31.723	
O	-0.06184257	 1.4566183731	 0.009144452	-0.447324
C	 0.0121465647	 0.087067768	 0.0650838827	 0.281873
C	-0.268946113	-0.7996445386	-1.1463527876	-0.349714
C	-1.1466279035	-0.9430302394	 0.049018351	-0.11263
C	-0.4379884389	-1.8260703224	 1.0978725745	-0.311039
C	-0.0719591028	-3.1799439935	 0.7430209674	 0.332868
C	 0.257707861	-4.2946222186	 0.4343081225	-0.456283
C	 0.6860596697	-0.7095582532	 1.1430045993	 0.339589
O	 1.5792623981	-0.4988395234	 1.9056362813	-0.306612
H	 0.6331106841	 1.784563649	-0.5721086953	 0.300964
H	-0.6907339656	-0.2315781675	-1.9696956364	 0.130996
H	 0.4020187671	-1.6027557498	-1.4350040007	 0.139651
H	-2.2051976278	-0.7232368118	 0.0463187037	 0.122643
H	-0.9510386005	-1.7974479168	 2.0661668923	 0.134213
H	 0.5434815474	-5.283001385	 0.1714633232	 0.200804
85.5947	123.448	165.0828	211.6246	278.0892	322.433	376.5953	416.0367	486.027	563.5691	608.5552	614.7547	639.8663	652.3729	792.6746	807.7728	859.9574	913.971	944.618	945.7706	1018.1421	1042.9142	1084.6218	1089.1812	1138.099	1222.09	1272.449	1301.3648	1313.2939	1412.2595	1491.2087	1892.3027	2232.4147	3050.8734	3124.1032	3212.5739	3220.4068	3502.3813	3803.0089
OC12CC1C(C#C)C2=O	O[C@]12C[C@H]1[C@@H](C#C)C2=O	
InChI=1S/C7H6O2/c1-2-4-5-3-7(5,9)6(4)8/h1,4-5,9H,3H2	InChI=1S/C7H6O2/c1-2-4-5-3-7(5,9)6(4)8/h1,4-5,9H,3H2/t4-,5+,7-/m1/s1
