25
gdb 101718	3.87152	0.7004	0.6523	1.7293	90.25	-0.2573	0.0879	0.3452	1863.996	0.226495	-389.487428	-389.476249	-389.475304	-389.524573	40.512	
C	 0.1577536184	 1.6667412308	 0.0967861628	-0.391935
C	-0.0435378025	 0.1580653439	-0.0771061524	-0.16967
C	 0.7257701032	-0.4667644736	-1.2565533743	 0.046357
C	 2.2477277168	-0.3315086352	-1.0986860043	-0.391963
C	 0.306783557	-1.9410338882	-1.438021531	-0.227676
C	 0.7923774397	-2.5570026873	-2.7293375308	 0.056609
O	 2.1365433167	-3.0580409047	-2.7881887034	-0.259863
C	 1.0603744591	-3.9906962844	-2.9409646375	 0.074795
C	 0.9139717455	-5.0645049174	-1.892778793	-0.41878
H	 1.1936278363	 1.9171728992	 0.3436060016	 0.120127
H	-0.1059813553	 2.2087430887	-0.8187008738	 0.112031
H	-0.473161676	 2.0533829883	 0.9034115903	 0.11086
H	 0.2442960946	-0.3589340413	 0.8491987004	 0.091615
H	-1.1143920309	-0.0417391363	-0.2138954954	 0.087767
H	 0.4275028174	 0.0747033765	-2.1679971096	 0.066391
H	 2.5826166768	-0.8130203785	-0.1716372675	 0.108071
H	 2.7786754307	-0.8097137729	-1.9245714943	 0.141421
H	 2.5553147146	 0.717298834	-1.0601597684	 0.108616
H	 0.6641511824	-2.5279161109	-0.5849877095	 0.099555
H	-0.7905172002	-2.0038310676	-1.4306948417	 0.093932
H	 0.5120507775	-1.9843140418	-3.6182843942	 0.081181
H	 0.9505026713	-4.3546527191	-3.9655342485	 0.083071
H	 1.0213439912	-4.6666424688	-0.8821720205	 0.128283
H	-0.0659261867	-5.5472894993	-1.9770465039	 0.120533
H	 1.6785477024	-5.835478384	-2.0354519912	 0.128672
36.0915	67.3411	96.7354	119.4268	174.2164	209.4186	222.0145	260.417	270.1199	319.4251	365.8106	423.1754	440.1768	478.8905	550.6662	760.4912	773.7784	818.1226	838.6161	887.8128	921.8351	943.2471	976.248	999.5535	1015.4365	1047.2977	1068.5009	1085.3529	1143.5143	1153.641	1177.4732	1184.1665	1192.1313	1249.3008	1290.405	1305.4521	1309.9982	1355.1141	1378.5659	1383.9244	1402.9903	1410.8928	1419.6644	1422.4298	1465.258	1471.1463	1483.4979	1491.8066	1495.9635	1500.314	1505.7444	1511.4158	1514.3061	2981.0947	3006.0103	3013.4733	3031.2741	3033.2774	3038.8189	3041.1421	3058.0715	3075.3702	3080.5301	3096.4036	3098.104	3098.7357	3109.2115	3130.9161	3137.9425
CCC(C)CC1OC1C	CC[C@@H](C)C[C@H]1O[C@H]1C	
InChI=1S/C8H16O/c1-4-6(2)5-8-7(3)9-8/h6-8H,4-5H2,1-3H3	InChI=1S/C8H16O/c1-4-6(2)5-8-7(3)9-8/h6-8H,4-5H2,1-3H3/t6-,7+,8-/m1/s1
