14
gdb 125534	5.4428	1.36265	1.09722	2.8015	69.44	-0.2397	-0.0071	0.2326	1038.5988	0.103442	-432.89513	-432.888353	-432.887409	-432.926467	25.521	
C	-0.0177840488	 1.421466538	 0.0006387902	-0.481555
C	 0.0032775645	-0.0685966289	 0.0089897864	 0.34416
N	-0.0528798381	-0.7738378647	-1.1271175284	-0.32975
N	-0.0062641862	-2.0459414183	-0.6423751132	 0.015449
C	-0.0122381149	-3.3689158107	-1.0608736901	-0.114229
C	 0.0643479829	-4.0907010018	 0.078519929	-0.053238
O	 0.1177505688	-3.262932648	 1.1930494225	-0.217165
C	 0.0716394199	-2.0125962208	 0.7031464079	 0.497004
N	 0.0818591927	-0.7937051885	 1.1796980458	-0.427017
H	 0.8917919889	 1.8224514964	 0.4586411062	 0.142658
H	-0.0930542992	 1.7882021516	-1.0241713378	 0.141745
H	-0.8665282113	 1.7979411516	 0.5798854467	 0.142713
H	-0.0679773566	-3.6745028949	-2.0903472347	 0.173264
H	 0.0907155076	-5.1471809011	 0.2747346995	 0.16596
107.082	145.1249	289.2811	290.8604	359.7829	536.4754	585.9599	591.4357	686.1348	708.9957	766.4554	783.3722	794.8121	842.989	949.8141	990.8542	1028.8996	1037.9025	1066.3389	1138.9332	1200.9745	1271.2736	1334.3936	1401.7437	1408.6164	1459.8335	1475.5172	1478.5759	1523.3073	1592.4127	1635.0322	3047.9755	3104.7775	3147.5162	3299.8804	3322.2756
CC1=NN2C=COC2=N1	Cc1nn2ccoc2n1	
InChI=1S/C5H5N3O/c1-4-6-5-8(7-4)2-3-9-5/h2-3H,1H3	InChI=1S/C5H5N3O/c1-4-6-5-8(7-4)2-3-9-5/h2-3H,1H3
