21
gdb 67818	2.50752	2.19798	1.57148	0.1621	85.83	-0.2266	0.0203	0.2468	943.4606	0.185935	-349.950343	-349.943437	-349.942493	-349.98095	30.177	
C	 0.0296862292	 1.5393734654	-0.0324613595	-0.501311
C	-0.0077203524	 0.0206517781	-0.0603177699	 0.346159
C	 0.5897307566	-0.6203854464	-1.2849510983	-0.150578
C	 0.0934123443	-1.8552617236	-1.4067918668	-0.096076
C	-0.7404274413	-2.1355838132	-0.1739786941	-0.079874
C	 0.3129675374	-2.194434509	 1.0069614751	-0.215005
C	 0.2918059134	-0.7028131736	 1.3610485642	-0.06861
C	-1.2198649931	-0.5263709674	 1.6715915971	-0.250427
C	-1.3628303737	-0.7364749788	 0.1510086329	-0.044963
H	 1.0662429314	 1.8962139002	-0.0448035677	 0.114857
H	-0.4707272485	 1.9578583072	-0.9129691434	 0.116586
H	-0.4476603495	 1.9616872736	 0.8556375845	 0.115234
H	 1.3182879077	-0.1403911227	-1.9283154873	 0.087396
H	 0.357119586	-2.59732477	-2.1509996215	 0.091571
H	-1.4243490817	-2.9829011783	-0.2257660047	 0.058255
H	-0.0282697567	-2.8041216063	 1.8493474462	 0.091581
H	 1.2792145593	-2.5748326862	 0.6695418222	 0.092051
H	 1.0699569022	-0.3189774204	 2.0214917625	 0.057054
H	-1.6809062399	-1.2542240609	 2.3455158155	 0.084152
H	-1.4955049374	 0.4815600661	 1.9843557944	 0.096128
H	-2.2550454734	-0.4574243039	-0.4141143613	 0.05582
188.8313	242.8367	318.5598	371.221	394.8501	459.1731	524.0249	585.9597	629.4807	708.1687	738.4917	777.5913	817.6141	842.2702	858.0148	879.788	913.87	935.5952	941.434	957.5455	959.598	991.7723	1001.8694	1053.8529	1075.9024	1087.7929	1093.1172	1120.5641	1163.5481	1193.9916	1198.0434	1226.8366	1236.7346	1250.8263	1264.3534	1288.031	1307.4814	1315.1164	1366.813	1414.0957	1488.3317	1492.7901	1500.9156	1522.3342	1645.651	3027.9988	3052.2798	3059.7819	3083.592	3088.8996	3103.9247	3108.4915	3110.886	3111.5564	3125.8568	3184.9743	3212.3146
CC12C=CC3CC1CC23	C[C@@]12C=C[C@H]3C[C@@H]1C[C@@H]23	
InChI=1S/C9H12/c1-9-3-2-6-4-7(9)5-8(6)9/h2-3,6-8H,4-5H2,1H3	InChI=1S/C9H12/c1-9-3-2-6-4-7(9)5-8(6)9/h2-3,6-8H,4-5H2,1H3/t6-,7+,8+,9+/m0/s1
