15
gdb 25666	5.96124	0.76138	0.67801	2.7902	85.18	-0.1919	0.0011	0.193	1602.8614	0.11255	-416.823217	-416.814295	-416.813351	-416.858511	31.366	
C	-0.0699054122	 1.4393240454	-0.0254458071	-0.510292
C	-0.0039733568	-0.0126852809	-0.0133268833	 0.230343
C	 0.0681061305	-1.2174046446	-0.0035525976	-0.069236
C	 0.1269859976	-2.6268523108	 0.0082852242	 0.171095
N	 1.2029141587	-3.3909952006	-0.0017207297	-0.297652
C	 0.755083433	-4.6892210563	 0.0170794829	-0.247397
C	-0.6191452241	-4.7077702823	 0.0388636539	 0.36619
O	-1.5631078887	-5.6753035358	 0.0624640884	-0.436441
N	-1.0195432568	-3.4043406536	 0.0333589575	-0.352376
H	 0.9362579497	 1.8717529338	-0.0484938971	 0.158583
H	-0.6102187384	 1.8101579591	-0.9039934261	 0.14968
H	-0.5767145725	 1.8265060691	 0.8659259121	 0.149689
H	 1.4337833328	-5.5285126322	 0.0140019164	 0.10045
H	-1.1232906383	-6.5312947224	 0.0632831445	 0.312908
H	-1.9716482345	-3.0782116277	 0.0453903309	 0.274454
18.4544	85.1567	96.2248	236.6978	253.0239	294.1935	336.7025	399.578	467.4901	477.2293	508.7478	561.2998	672.2937	700.0506	728.7361	779.5929	945.1136	1037.2142	1050.5549	1051.6159	1065.4084	1150.3369	1196.2127	1256.7821	1297.1425	1406.442	1412.3799	1473.3076	1476.9467	1508.5429	1528.9072	1629.7919	2355.5268	3023.599	3080.5012	3090.9536	3243.6214	3666.0658	3841.0929
CC#CC1=NC=C(O)N1	CC#Cc1ncc(O)[nH]1	
InChI=1S/C6H6N2O/c1-2-3-5-7-4-6(9)8-5/h4,9H,1H3,(H,7,8)	InChI=1S/C6H6N2O/c1-2-3-5-7-4-6(9)8-5/h4,9H,1H3,(H,7,8)
