18
gdb 38767	3.14564	1.63165	1.2069	1.7348	76.64	-0.2305	-0.003	0.2274	1021.7016	0.149845	-401.897326	-401.890354	-401.88941	-401.928402	28.491	
C	-0.01515368	 1.4597762983	-0.0318570837	-0.251268
C	 1.2792746436	 0.7137482315	 0.0070524842	-0.050043
C	 2.1999904935	 0.7901688969	 1.1789487729	-0.070603
C	 2.4737772593	-0.2006172212	 2.0297750144	-0.093293
C	 1.8836153937	-1.5658203556	 1.9620542809	 0.018312
O	 0.9092438381	-1.9275690801	 2.9609736984	-0.261494
C	 0.4769546444	-1.7902584271	 1.604297307	 0.053577
C	-0.4031762618	-0.5954741332	 1.3001613899	-0.200247
N	-0.0010005985	-0.0007548508	 0.0242928865	-0.092816
H	-0.3075078569	 1.9918920131	 0.8723827378	 0.113371
H	-0.3685491351	 1.9040058105	-0.958457339	 0.116669
H	 1.8030288366	 0.6126463222	-0.9450069959	 0.103898
H	 2.7237610087	 1.7380111171	 1.295684169	 0.100384
H	 3.1956433456	-0.0344152165	 2.8268806759	 0.101063
H	 2.5978685794	-2.3673060038	 1.7635804846	 0.098832
H	 0.2136761919	-2.7281085581	 1.1160208382	 0.097018
H	-1.4533895979	-0.8957841647	 1.2136138564	 0.108105
H	-0.3259165044	 0.0997338417	 2.1474720524	 0.108536
159.0366	218.4256	299.829	330.6649	360.3779	416.2503	441.3516	564.7523	613.1209	723.4962	758.7348	804.6628	823.0641	841.4976	854.3308	949.5178	975.9234	1002.1221	1017.8262	1029.7791	1057.8416	1076.3806	1111.0173	1116.5082	1130.9328	1156.9048	1176.9536	1229.4782	1254.9141	1288.1072	1316.5748	1341.7593	1385.6278	1396.7888	1428.273	1478.792	1500.1256	1514.2575	1714.1729	3006.7536	3061.87	3083.864	3085.5026	3092.1006	3117.8361	3129.6605	3155.5371	3180.9817
C1C2C=CC3OC3CN12	C1[C@H]2C=C[C@H]3O[C@H]3CN12	
InChI=1S/C7H9NO/c1-2-6-7(9-6)4-8-3-5(1)8/h1-2,5-7H,3-4H2	InChI=1S/C7H9NO/c1-2-6-7(9-6)4-8-3-5(1)8/h1-2,5-7H,3-4H2/t5-,6-,7+,8?/m1/s1
