21
gdb 68667	2.64277	1.81469	1.47177	0.2126	87.03	-0.222	0.0095	0.2315	1004.6137	0.185053	-349.977874	-349.970418	-349.969474	-350.008951	31.733	
C	 0.0035093145	 1.5347217802	 0.0301378596	-0.48353
C	 0.0000970894	 0.0097278922	-0.000541821	 0.245579
C	 0.6472476768	-0.6199801628	-1.2602222641	-0.240544
C	 0.1178188984	-2.0656513165	-1.1476018441	-0.071974
C	 0.8842689921	-2.7830137197	-0.0030412593	-0.255886
C	 1.1056476801	-1.878088378	 1.1884325387	-0.059014
C	 0.7098999545	-0.6039971832	 1.2061109884	-0.076114
C	-1.3207870215	-1.7977838486	-0.7246183664	-0.084119
C	-1.3916123688	-0.6365512888	-0.0743086791	-0.09041
H	 1.0264648611	 1.926862171	 0.0240115594	 0.11455
H	-0.5219670887	 1.945776841	-0.838020188	 0.112967
H	-0.4906459727	 1.9138356383	 0.932335254	 0.1106
H	 0.2619863991	-0.1414485104	-2.166756993	 0.088474
H	 1.7391772751	-0.5469943621	-1.2535870549	 0.087916
H	 0.2032480001	-2.6403070165	-2.0744653965	 0.059739
H	 0.3409968473	-3.6848876185	 0.3147404805	 0.101908
H	 1.8548046727	-3.1401177759	-0.3760055283	 0.104644
H	 1.5934532154	-2.3154925733	 2.0565556728	 0.082239
H	 0.8625250773	 0.0174316099	 2.0853604608	 0.076767
H	-2.1275998414	-2.5096541733	-0.858465225	 0.088056
H	-2.2610208009	-0.2200381749	 0.4226082153	 0.088152
204.0573	231.5995	271.6717	313.165	324.0955	396.9001	439.3257	482.4522	569.4417	605.445	671.6203	700.2542	767.033	796.143	821.3351	875.562	897.4167	906.069	912.9872	953.1672	961.4043	984.8601	992.8784	1031.6625	1038.3894	1097.1616	1119.3584	1164.1062	1176.0365	1201.596	1221.9131	1249.3847	1271.4176	1309.7728	1316.2613	1342.9453	1376.8346	1401.7074	1413.8495	1464.1439	1488.8113	1495.3722	1497.0553	1660.7566	1698.142	2998.4321	3022.9415	3023.6802	3039.5527	3062.4677	3088.1853	3091.6231	3099.6484	3138.8312	3163.2669	3178.8775	3205.6759
CC12CC(CC=C1)C=C2	C[C@@]12C[C@@H](CC=C1)C=C2	
InChI=1S/C9H12/c1-9-5-2-3-8(7-9)4-6-9/h2,4-6,8H,3,7H2,1H3	InChI=1S/C9H12/c1-9-5-2-3-8(7-9)4-6-9/h2,4-6,8H,3,7H2,1H3/t8-,9+/m0/s1
