16
gdb 44075	3.21874	1.69598	1.50647	3.6805	69.14	-0.2438	0.0034	0.2472	903.9322	0.126194	-437.804281	-437.797867	-437.796923	-437.834836	26.632	
O	-0.1089354255	 0.0669478985	 0.0856116952	-0.351845
C	 0.0406670229	 1.2513905467	 0.0681842246	 0.457891
O	-0.9697259132	 2.1697617505	 0.1407570908	-0.280326
C	-0.2545083866	 3.47139993	 0.0748949303	 0.366071
C	-1.0861883479	 4.2881071914	-0.9424681616	-0.257802
N	-0.3478256168	 3.5383843242	-2.0627072374	-0.368268
C	 0.7339210897	 3.25915076	-1.0229529915	 0.024316
C	 1.2635956174	 2.131567768	-0.0401022162	-0.24728
C	 0.8798217882	 3.218455296	 1.1052648238	-0.330863
H	-2.1687848016	 4.1525689826	-0.9181262012	 0.133883
H	-0.827665115	 5.3478721504	-0.9819251481	 0.128961
H	-0.8781615561	 2.6928168705	-2.2626196305	 0.243239
H	 1.4854329058	 4.0449452413	-1.1114018339	 0.110471
H	 2.2347094477	 1.6476680256	-0.1066294192	 0.108415
H	 1.6150502978	 4.0208650946	 1.1715501185	 0.129448
H	 0.6220754132	 2.8281516398	 2.0919591164	 0.133688
152.5434	282.3171	340.7927	357.6608	473.0533	490.2432	584.4386	610.5934	713.982	778.7998	785.7976	811.3772	817.5681	845.1566	885.4107	900.2555	941.5525	980.4681	990.8881	1012.6691	1043.8941	1102.9739	1118.3019	1143.2866	1181.3913	1205.3412	1224.5385	1253.9121	1265.3492	1282.6288	1326.9417	1391.8772	1481.0983	1487.4787	1908.8849	3075.9849	3079.1339	3100.8797	3143.5514	3155.5534	3161.3045	3502.9366
O=C1OC23CNC2C1C3	O=C1O[C@]23CN[C@@H]2[C@H]1C3	
InChI=1S/C6H7NO2/c8-5-3-1-6(9-5)2-7-4(3)6/h3-4,7H,1-2H2	InChI=1S/C6H7NO2/c8-5-3-1-6(9-5)2-7-4(3)6/h3-4,7H,1-2H2/t3-,4-,6-/m1/s1
