19
gdb 48845	2.78642	1.38705	1.14183	1.877	76.37	-0.2493	-0.0201	0.2292	1119.9083	0.159993	-423.03103	-423.022998	-423.022054	-423.06369	30.981	
O	-0.0604303601	 0.0172236205	 0.2059182071	-0.269336
C	 0.0503916199	 1.1777605209	-0.105932072	 0.113483
C	 1.2927535082	 1.9805061389	 0.0241187323	 0.18158
C	 1.0767937389	 3.4836478688	 0.2030493265	-0.351183
C	 1.5279753253	 2.9772730085	-1.1228764319	 0.079778
O	 2.8283336345	 3.2456563713	-1.5394926447	-0.255754
C	 3.7672955133	 2.1945393043	-1.3216137234	-0.067023
C	 3.8354925257	 1.8341250626	 0.1577400747	-0.227189
C	 2.4889590372	 1.2591611183	 0.6253725668	-0.282852
H	-0.8129543267	 1.7397979697	-0.5350009407	 0.066526
H	 0.0567073668	 3.8382854581	 0.3123046194	 0.120595
H	 1.8120739305	 4.0106890702	 0.8002115073	 0.132248
H	 0.8125453337	 2.9722477318	-1.9436923895	 0.100934
H	 3.5009326335	 1.3105169914	-1.922504302	 0.096307
H	 4.7208244208	 2.5816932412	-1.6894632402	 0.112976
H	 4.6315060921	 1.1026071419	 0.3322935721	 0.105108
H	 4.0995559177	 2.7374310968	 0.7203425332	 0.106852
H	 2.4220628476	 1.2605600793	 1.7187013241	 0.109511
H	 2.411696491	 0.2110259153	 0.3176657509	 0.12744
89.3941	118.9698	218.904	234.2297	320.9323	346.4894	411.7252	453.2247	484.7949	519.2168	660.2452	727.78	773.0727	831.532	879.9852	901.7635	928.0748	953.7125	981.453	1031.0101	1050.4435	1065.6666	1067.9616	1113.8722	1121.4982	1185.1951	1207.1019	1254.7683	1272.2751	1304.9825	1317.0184	1363.3601	1373.4775	1399.5641	1419.4235	1441.3728	1466.1071	1483.4809	1497.8569	1503.6374	1812.1501	2848.4799	2983.1145	3035.6613	3044.6348	3074.6442	3089.7061	3098.0044	3113.8948	3129.4003	3223.3426
O=CC12CC1OCCC2	O=C[C@]12C[C@H]1OCCC2	
InChI=1S/C7H10O2/c8-5-7-2-1-3-9-6(7)4-7/h5-6H,1-4H2	InChI=1S/C7H10O2/c8-5-7-2-1-3-9-6(7)4-7/h5-6H,1-4H2/t6-,7+/m1/s1
