18
gdb 78735	4.77351	1.11866	1.03326	3.0392	78.36	-0.2361	-0.0251	0.211	1180.9758	0.147368	-401.885081	-401.877243	-401.876298	-401.91737	30.174	
C	-0.042496665	 1.5162731014	 0.0565026509	-0.401961
C	 0.0360703671	 0.0025331124	-0.0170712218	 0.049264
C	 0.8235829691	-0.5486652421	-1.2008123139	-0.134336
C	 2.0304739933	-0.600923066	-0.3445448946	-0.070987
N	 1.1261626373	-0.5460069233	 0.902248474	-0.178416
C	 0.9193688769	-2.0420725416	 0.7461840821	-0.238587
C	 1.3653280992	-1.9264553617	-0.6995110567	 0.234682
C	 1.8672026728	-2.9465333331	-1.6209096728	 0.041884
O	 1.8302283935	-4.1354563788	-1.4014638737	-0.268917
H	 0.9376027304	 1.9707316387	-0.1180649919	 0.122401
H	-0.7393767185	 1.9045860029	-0.6937126261	 0.116691
H	-0.391958037	 1.825296561	 1.0456358314	 0.130999
H	-0.9453855609	-0.4428640644	 0.1830989082	 0.078806
H	 0.7472720538	-0.3346890213	-2.2603527752	 0.10386
H	 3.0556004813	-0.2676647762	-0.4195773369	 0.114356
H	 1.644773564	-2.5841055274	 1.35617614	 0.124419
H	-0.0927463811	-2.3873726593	 0.9785744566	 0.110527
H	 2.3127182639	-2.5467042212	-2.5620179196	 0.065316
97.3337	146.7369	232.3426	237.786	269.9966	316.1415	411.3431	455.5541	541.329	699.7452	739.1153	788.3291	803.4234	839.8974	875.8451	896.9917	924.7895	947.512	1003.946	1016.8206	1040.094	1061.8711	1077.3892	1102.2753	1130.2903	1136.5437	1178.9838	1199.7095	1256.9659	1287.3854	1320.8235	1374.5161	1384.9983	1412.7346	1440.3817	1490.0324	1492.628	1515.3382	1799.1166	2851.7204	3036.7428	3038.8179	3055.7809	3108.4557	3118.7217	3119.6014	3186.4457	3223.5331
CC1C2C3N1CC23C=O	C[C@H]1[C@H]2[C@H]3N1C[C@@]23C=O	
InChI=1S/C7H9NO/c1-4-5-6-7(5,3-9)2-8(4)6/h3-6H,2H2,1H3	InChI=1S/C7H9NO/c1-4-5-6-7(5,3-9)2-8(4)6/h3-6H,2H2,1H3/t4-,5-,6+,7+/m0/s1
