20
gdb 40659	3.83236	1.20736	1.01898	0.9451	85.17	-0.2292	0.0181	0.2473	1213.6401	0.172523	-365.971125	-365.963481	-365.962537	-366.003423	30.603	
C	 0.2485868519	 1.5565716959	 0.019949203	-0.293622
C	 1.5348791243	 0.751183774	 0.0961554466	-0.070583
C	 1.9946880872	 0.4402459394	 1.4783719222	-0.068583
C	 1.1148479031	-0.317157467	 2.1375671063	-0.101256
C	-0.0668888225	-0.7054513805	 1.2689137519	 0.010258
C	 0.1922764753	 0.0547162173	-0.0339539607	-0.043917
N	-0.0958541305	-2.1525323257	 1.0249621731	-0.069802
C	-0.7693210904	-2.9554441616	 2.0403477911	-0.223423
C	-1.405922737	-2.7219975028	 0.7156120571	-0.224937
H	-0.0797085551	 2.0645849403	 0.9214533346	 0.109753
H	 0.0423221528	 2.0902141714	-0.9025922361	 0.107805
H	 2.2449768993	 0.8145681905	-0.7205906067	 0.086487
H	 2.9168741846	 0.8326722758	 1.8927288507	 0.095383
H	 1.1933044819	-0.6259938337	 3.1735152938	 0.091748
H	-1.0168784632	-0.3778504647	 1.7350051315	 0.058272
H	-0.1043192361	-0.424183942	-0.9591657936	 0.09065
H	-0.3069666415	-3.9099995841	 2.2744339613	 0.115593
H	-1.2058499866	-2.4394264312	 2.8947582379	 0.10657
H	-2.2627465199	-2.0499995798	 0.6884914527	 0.108677
H	-1.4153403677	-3.5027856215	-0.0393215664	 0.114929
83.5216	129.5145	181.589	312.442	349.1613	371.8039	448.0184	543.9461	705.1552	747.6922	776.3165	794.9293	806.7915	824.6657	879.3972	899.8799	902.7683	954.5759	962.5483	997.2449	1007.062	1033.8915	1047.58	1067.	1074.7588	1097.6135	1107.4001	1115.5405	1117.5197	1136.7299	1174.0101	1184.3699	1195.2644	1286.3636	1306.7818	1314.5128	1338.8981	1368.9859	1394.6055	1478.799	1492.227	1518.8278	1666.5563	2899.8278	3090.4304	3095.5507	3119.7294	3170.3289	3174.7126	3185.0974	3187.1205	3189.0311	3209.0086	3210.8991
C1C2C=CC(C12)N1CC1	C1[C@H]2C=C[C@@H]([C@@H]12)N1CC1	
InChI=1S/C8H11N/c1-2-8(9-3-4-9)7-5-6(1)7/h1-2,6-8H,3-5H2	InChI=1S/C8H11N/c1-2-8(9-3-4-9)7-5-6(1)7/h1-2,6-8H,3-5H2/t6-,7+,8+/m1/s1
