18
gdb 94334	2.6274	1.25709	1.08984	3.6848	76.77	-0.2585	0.0205	0.279	1176.2781	0.146899	-401.932796	-401.924064	-401.92312	-401.966642	32.057	
C	-0.3476835881	 1.4130985777	 0.0661763545	-0.409293
C	 0.1298429738	-0.020822071	-0.0227725064	 0.09204
O	 1.3726905251	-0.1543542634	-0.7657346712	-0.294559
C	 2.0325593657	-0.8278591009	 0.3235924538	-0.13988
C	 0.7993642518	-0.6554225306	 1.2005845821	 0.27074
C	 0.697884334	-0.270081403	 2.6331889714	-0.345098
C	 0.2080000149	-1.6445501887	 2.1820865627	-0.246183
C	-1.2021012094	-1.9087756475	 2.133915718	 0.292373
N	-2.3407685086	-2.1064777809	 2.0726852109	-0.339286
H	 0.4079057733	 2.0512601503	 0.5334913552	 0.121008
H	-0.553891545	 1.7976838028	-0.9371915832	 0.135694
H	-1.274038072	 1.4727300386	 0.6476366823	 0.129427
H	-0.6497914975	-0.658777384	-0.4611906338	 0.098957
H	 2.293118669	-1.8650341606	 0.0746369341	 0.109072
H	 2.9354265305	-0.2981101766	 0.6530342953	 0.110493
H	 1.6002986295	-0.2528557762	 3.2354865268	 0.133059
H	-0.0557494363	 0.4550224409	 2.9199462093	 0.145378
H	 0.8187468892	-2.5007797569	 2.4513121781	 0.136059
63.9646	93.7136	149.3066	210.9517	228.9908	283.302	341.641	376.6114	467.9332	516.5327	557.9802	631.4403	785.0758	797.3839	862.8544	881.0271	900.7143	952.668	1016.8262	1032.4362	1055.3507	1080.2132	1087.9274	1099.3428	1120.1996	1143.45	1158.4659	1219.6331	1281.7557	1312.1391	1355.577	1384.757	1404.8218	1428.6651	1485.8313	1487.0372	1494.52	1523.4671	2351.0265	3004.2147	3013.9506	3037.4382	3048.2213	3110.7716	3119.8192	3134.9439	3160.7585	3225.7277
CC1OCC11CC1C#N	C[C@H]1OC[C@]21C[C@H]2C#N	
InChI=1S/C7H9NO/c1-5-7(4-9-5)2-6(7)3-8/h5-6H,2,4H2,1H3	InChI=1S/C7H9NO/c1-5-7(4-9-5)2-6(7)3-8/h5-6H,2,4H2,1H3/t5-,6+,7+/m1/s1
