18
gdb 36691	5.05677	0.80429	0.76668	1.2775	78.52	-0.2384	0.0274	0.2658	1492.2759	0.146141	-401.844423	-401.835747	-401.834803	-401.878723	31.984	
C	-0.0085058823	-1.1859951006	-0.087737957	-0.412178
C	 0.0614107016	 0.0049430197	 0.0476466265	 0.280475
C	 0.116009707	 1.4486918874	 0.2297473235	-0.218766
O	 1.3205962242	 1.9601242056	-0.3160683294	-0.257688
C	 1.4347906536	 3.3550037082	-0.1667930655	 0.145973
C	 1.8787735524	 3.9503469871	 1.2037689448	-0.205143
N	 3.0765709512	 4.6140031293	 0.5753865819	-0.127595
C	 3.8873134099	 3.5090528442	 0.0396862776	-0.229773
C	 2.7108922856	 3.9348114833	-0.7428001597	-0.068965
H	-0.064555624	-2.2392024628	-0.2119415492	 0.202056
H	-0.7552160258	 1.9190242957	-0.2575828664	 0.121078
H	 0.0436175928	 1.687262938	 1.3038880531	 0.123126
H	 0.534407663	 3.8553484477	-0.5507525299	 0.077277
H	 1.1972537945	 4.7002207553	 1.6097154418	 0.112827
H	 2.1369822723	 3.2249571288	 1.9824458988	 0.109596
H	 4.8586060006	 3.8332427583	-0.320335093	 0.123649
H	 3.880066862	 2.5467348591	 0.5453918833	 0.125672
H	 2.7929325813	 4.4471165257	-1.6950781912	 0.098379
48.1585	89.8477	98.411	184.5257	263.1231	332.9869	380.6828	420.2516	487.3027	592.7298	611.3758	676.8703	722.7745	759.3741	790.9137	875.1348	951.8242	971.8218	990.4854	1009.8923	1030.9326	1041.644	1066.792	1085.4576	1114.1938	1120.8301	1161.3939	1205.6513	1226.9636	1251.5187	1272.8482	1298.2486	1366.1945	1376.6524	1433.1138	1482.8465	1500.3287	1505.494	2248.9915	2955.9649	2977.3627	3001.6756	3047.7386	3113.7137	3117.5971	3173.2988	3206.4299	3506.2732
C#CCOC1CN2CC12	C#CCO[C@H]1CN2C[C@@H]12	
InChI=1S/C7H9NO/c1-2-3-9-7-5-8-4-6(7)8/h1,6-7H,3-5H2	InChI=1S/C7H9NO/c1-2-3-9-7-5-8-4-6(7)8/h1,6-7H,3-5H2/t6-,7-,8?/m0/s1
