24
gdb 122716	4.39579	0.48415	0.4433	2.7722	91.81	-0.2397	0.0299	0.2696	2558.2856	0.214742	-405.553703	-405.542041	-405.541096	-405.59277	39.984	
C	-0.22990403	 1.3477359071	-0.5756786547	-0.381821
C	-0.2359365756	 0.0037702897	 0.1575629008	-0.170336
C	-1.3725565215	-0.9232489983	-0.289035746	-0.179249
C	-1.3519104438	-2.2608945722	 0.4630734528	-0.128012
N	-2.3595389263	-3.2641732066	 0.166543045	-0.236041
C	-3.2479769831	-3.0533901278	-0.6966083867	 0.12761
O	-4.1756983452	-4.0020942022	-0.9543613344	-0.207275
C	-5.1422529168	-3.6723888393	-1.9534609261	-0.05438
C	-6.0891534543	-4.8501370426	-2.091641438	-0.383251
H	 0.5919794982	 1.9849881657	-0.2345654358	 0.112501
H	-0.1166175143	 1.2089990982	-1.6567304802	 0.113119
H	-1.1652412639	 1.8939892502	-0.4098284912	 0.113121
H	 0.7258611898	-0.5023948113	 0.0017680343	 0.098177
H	-0.3145224858	 0.1772223156	 1.238889098	 0.09818
H	-2.3345222839	-0.4172341192	-0.1283815715	 0.094451
H	-1.2900786103	-1.0994532693	-1.3704199003	 0.094445
H	-0.3727713855	-2.7378614477	 0.3136250707	 0.108618
H	-1.4068234053	-2.0625945278	 1.5429866104	 0.108626
H	-3.3673206083	-2.1425326211	-1.2975499096	 0.073756
H	-5.6893470349	-2.765518303	-1.6594877376	 0.104425
H	-4.6375851693	-3.4647585849	-2.9075790977	 0.104484
H	-6.8471681357	-4.6365852746	-2.8509378988	 0.118522
H	-5.542364026	-5.7495123444	-2.3872820663	 0.135207
H	-6.5926828281	-5.0512619239	-1.1422911071	 0.135122
19.5552	72.9156	74.4922	104.1641	111.9437	159.696	175.0118	243.6188	250.2169	253.45	294.5697	368.8964	437.3047	477.4536	625.3342	743.6575	790.7166	816.6551	908.5206	923.2247	940.4771	988.7515	990.6703	1056.1555	1061.637	1074.3047	1128.011	1154.1038	1167.5927	1183.2824	1242.6604	1256.031	1284.8992	1301.1864	1324.7617	1331.0368	1378.4004	1391.3439	1396.629	1412.0048	1415.43	1437.8154	1482.0986	1482.8708	1487.9439	1498.6926	1500.3429	1500.4116	1513.7144	1524.1148	1780.1568	2992.9052	2999.1797	3006.2341	3017.8529	3018.7459	3028.9193	3031.9088	3034.5926	3035.8961	3048.4863	3059.0912	3095.289	3101.243	3123.3343	3128.2601
CCCCN=COCC	CCCCN=COCC	
InChI=1S/C7H15NO/c1-3-5-6-8-7-9-4-2/h7H,3-6H2,1-2H3	InChI=1S/C7H15NO/c1-3-5-6-8-7-9-4-2/h7H,3-6H2,1-2H3
