14
gdb 129959	3.07306	1.29289	0.9145	7.0482	66.99	-0.2479	-0.02	0.2279	1179.8288	0.101558	-470.006066	-469.997801	-469.996857	-470.040378	28.913	
N	 0.3360557682	 1.372606855	-0.1353596859	-0.626899
C	 0.0666531782	-0.0197145967	-0.0876486359	-0.021173
C	-1.0702630931	-0.7626834009	-0.1057789144	 0.052838
O	-0.7820207385	-2.064066646	-0.0054420855	-0.170675
N	 0.611769403	-2.236846602	 0.0787807154	-0.217892
C	 1.0915448146	-1.0162111131	 0.0355096298	 0.498368
N	 2.4277024763	-0.6641958381	 0.1060130223	-0.399379
C	 3.5265764096	-1.4912026918	 0.1860082877	 0.149418
O	 3.5073810891	-2.6940853124	 0.1884738979	-0.267647
H	 0.2236688548	 1.7534175487	-1.0694831227	 0.254516
H	-0.2646905915	 1.9003186458	 0.4874308876	 0.253807
H	-2.1174746419	-0.5099772651	-0.1765159358	 0.150611
H	 2.5751579173	 0.337052317	 0.1214115205	 0.261984
H	 4.4553763538	-0.8894571104	 0.245982039	 0.082124
31.045	82.8652	145.8071	212.3134	237.1074	285.9221	401.4353	470.1437	592.0509	616.6613	655.3389	716.8034	739.1151	812.2755	843.1103	850.7492	913.0727	957.9895	1022.394	1134.4918	1161.5414	1203.6039	1233.3213	1305.5929	1386.4672	1436.3193	1541.4429	1576.9914	1644.7168	1670.1457	1834.154	2936.1008	3258.7708	3506.6615	3578.7907	3583.3172
NC1=CON=C1NC=O	Nc1conc1NC=O	
InChI=1S/C4H5N3O2/c5-3-1-9-7-4(3)6-2-8/h1-2H,5H2,(H,6,7,8)	InChI=1S/C4H5N3O2/c5-3-1-9-7-4(3)6-2-8/h1-2H,5H2,(H,6,7,8)
