20
gdb 86224	2.47384	1.23474	0.88394	6.1297	79.77	-0.2355	0.0381	0.2737	1333.3129	0.172413	-399.340101	-399.330647	-399.329703	-399.375454	35.031	
C	-0.0729448241	 1.4945857032	-0.0270516867	-0.419242
C	-0.0071060089	-0.0273473694	-0.0729707008	 0.081141
C	 0.7817085252	-0.6123889906	-1.2522147476	-0.252037
C	 1.2356528019	-1.9869551762	-0.7261876904	 0.023909
N	 2.3379375781	-2.6680123978	-1.3824114013	-0.515789
C	 1.5784206502	-1.6488623152	 0.753989406	-0.11582
N	 0.6411174374	-0.589526319	 1.1371446211	-0.316867
C	 1.4756651418	-2.8219194143	 1.6359715489	 0.30724
N	 1.3996112825	-3.7387235992	 2.3350689622	-0.334191
H	 0.9330913843	 1.9309025245	-0.0187270888	 0.112302
H	-0.605682386	 1.8872656837	-0.8983932115	 0.124787
H	-0.6026318395	 1.8343565751	 0.8690689559	 0.12879
H	-1.0371563813	-0.4110519785	-0.1168117719	 0.084685
H	 0.195031071	-0.6847262116	-2.1724969588	 0.101061
H	 1.6665750935	 0.0054027982	-1.462551306	 0.087604
H	 0.3802265446	-2.6713442486	-0.7258773879	 0.11134
H	 2.0352064801	-3.0717576008	-2.2620680931	 0.236426
H	 3.083220429	-2.0123039776	-1.6015644892	 0.225363
H	 2.6288028343	-1.3201232071	 0.7838064973	 0.103552
H	 1.0923641758	 0.1254838812	 1.6912648028	 0.225745
17.3207	120.2637	138.4733	215.2994	240.538	252.9909	282.4195	368.6238	418.5117	448.7009	499.1105	532.8533	545.005	572.4547	738.2681	828.4512	846.266	876.8857	931.1473	954.7371	982.2074	1039.1841	1048.8177	1108.7816	1126.3842	1141.0191	1166.4919	1195.9049	1221.99	1272.1776	1321.2489	1334.8889	1352.648	1361.8764	1386.7766	1407.355	1429.9725	1456.7517	1488.4103	1491.1125	1499.6898	1661.8152	2359.2159	2977.1626	2983.328	3010.8414	3026.66	3057.2774	3090.9573	3096.7966	3109.3105	3491.7988	3573.7147	3579.6644
CC1CC(N)C(N1)C#N	C[C@H]1C[C@@H](N)[C@@H](N1)C#N	
InChI=1S/C6H11N3/c1-4-2-5(8)6(3-7)9-4/h4-6,9H,2,8H2,1H3	InChI=1S/C6H11N3/c1-4-2-5(8)6(3-7)9-4/h4-6,9H,2,8H2,1H3/t4-,5+,6-/m0/s1
