17
gdb 128830	3.39126	1.10886	0.86789	3.4845	71.95	-0.2106	-0.0015	0.2091	1309.2344	0.136167	-455.118542	-455.10978	-455.108836	-455.152368	31.761	
C	-0.2859889333	 1.3436840657	-0.284848932	-0.227199
O	-0.3107473762	-0.0665307174	-0.3362281436	-0.24261
C	 0.8644653525	-0.6099699205	-0.9191756782	-0.190838
C	 0.7251405358	-2.0967040597	-0.9619313325	 0.360068
N	 1.7093365051	-2.8806920196	-0.5915338511	-0.211374
O	 1.2674958421	-4.1694641752	-0.7951773589	-0.171915
C	 0.0002422352	-4.1315236457	-1.2739877335	-0.002808
C	-0.4121089115	-2.8413176202	-1.4078681058	 0.071127
N	-1.5900997065	-2.2894498252	-1.9140553067	-0.619031
H	 0.5546241736	 1.7087394029	 0.3238386433	 0.115966
H	-0.2033862217	 1.786462995	-1.2894607424	 0.111513
H	-1.2227600464	 1.6693298396	 0.1726575361	 0.131767
H	 0.9913483627	-0.2103847025	-1.9398510835	 0.110672
H	 1.7592094907	-0.3392876448	-0.3410319439	 0.124444
H	-0.4614025995	-5.0866617679	-1.4651697121	 0.136497
H	-2.3821918957	-2.9161640512	-1.8718359858	 0.24475
H	-1.8027090271	-1.4124957134	-1.4535170895	 0.258971
76.2838	100.8551	136.0813	232.1194	253.2853	290.2531	316.1437	348.4844	404.2545	446.7226	602.5339	665.6663	716.844	755.405	776.9338	803.6499	925.2091	962.7475	990.6921	1032.6287	1126.5383	1135.445	1145.0403	1184.4655	1222.7637	1248.9962	1265.3898	1316.9204	1406.0632	1470.9703	1478.4382	1486.309	1498.381	1517.079	1541.355	1646.437	1686.5705	2959.9022	2980.5278	3025.9493	3030.4393	3121.7654	3272.3844	3533.6879	3631.612
COCC1=NOC=C1N	COCc1nocc1N	
InChI=1S/C5H8N2O2/c1-8-3-5-4(6)2-9-7-5/h2H,3,6H2,1H3	InChI=1S/C5H8N2O2/c1-8-3-5-4(6)2-9-7-5/h2H,3,6H2,1H3
