14
gdb 125801	3.36211	1.59307	1.09877	3.177	64.33	-0.2091	-0.0014	0.2076	1030.4016	0.101173	-473.779171	-473.771806	-473.770862	-473.811234	26.856	
C	 0.0455642257	 1.5306671406	-0.0189799186	-0.503009
C	 0.0141953579	 0.040633051	 0.0625271021	 0.258834
N	 0.1306071331	-0.6740682633	-1.0564072431	-0.221616
O	 0.0530667654	-2.0652741425	-0.6767421729	-0.230346
C	-0.0939348558	-2.0561164472	 0.6272914713	 0.452735
C	-0.1209397307	-0.8273800618	 1.1630512735	 0.08621
O	-0.3669853825	-0.9147272851	 2.5249656682	-0.288313
C	-0.1775967056	-2.3157250246	 2.7773281553	 0.004522
O	-0.278490135	-3.0524622424	 1.5123780123	-0.282863
H	 0.8699624971	 1.9361485819	 0.5758672012	 0.144269
H	 0.1719402166	 1.8417420158	-1.0573810642	 0.156437
H	-0.8838025041	 1.9603028734	 0.3681271331	 0.145525
H	 0.8295310504	-2.4903319884	 3.1798925727	 0.129025
H	-0.9552753923	-2.6772391475	 3.451009689	 0.148591
127.1625	136.6648	178.5611	242.3022	269.2973	375.8681	513.6169	596.6159	614.3332	651.6099	708.3686	745.525	769.2379	858.3837	877.0178	1017.0978	1039.5648	1063.463	1121.6532	1133.0083	1202.2699	1223.2855	1394.7092	1407.6405	1419.4127	1480.0867	1483.6122	1512.696	1539.9368	1559.7084	1711.1452	3010.3003	3045.5569	3103.831	3132.5431	3143.7111
CC1=NOC2=C1OCO2	Cc1noc2c1OCO2	
InChI=1S/C5H5NO3/c1-3-4-5(9-6-3)8-2-7-4/h2H2,1H3	InChI=1S/C5H5NO3/c1-3-4-5(9-6-3)8-2-7-4/h2H2,1H3
