18
gdb 58975	3.90169	0.98674	0.82954	4.9624	74.1	-0.2376	-0.0092	0.2283	1370.4554	0.147546	-439.126456	-439.117668	-439.116724	-439.160201	32.859	
C	 0.420759441	 1.6636123513	-0.3895224594	-0.399761
C	-0.0248651546	 0.2328696148	-0.0537376711	-0.079563
N	 0.1323383124	-0.7299276439	-1.1605757652	-0.511516
H	 1.1030058956	-0.7302755576	-1.4664540823	 0.224783
H	 0.6196880013	-2.5056277288	 1.0095616389	 0.166337
H	-0.4162608617	-0.4211813842	-1.9587785455	 0.227826
C	 0.6654687645	-0.3259722905	 1.1561419533	 0.244966
C	 0.4054343862	-1.6988250506	 1.7171290923	-0.464811
C	 1.3549472742	-1.7675637194	 2.9087322688	 0.435052
O	 1.5450541026	-2.640235471	 3.698477385	-0.31877
O	 2.041738913	-0.5637742761	 2.9686730436	-0.208476
C	 1.6009088852	 0.2322868099	 1.9235983846	-0.04461
H	 2.0758400741	 1.2005728717	 1.8792653333	 0.137278
H	 1.4920843893	 1.6947924778	-0.6180816882	 0.115996
H	-0.1203438454	 2.0300621467	-1.2671292764	 0.111953
H	 0.2261944522	 2.3540708044	 0.4380190182	 0.121704
H	-1.1039472221	 0.2561759182	 0.1619413416	 0.091626
H	-0.6252746277	-1.8506808126	 2.0589883184	 0.149985
62.8048	106.0177	174.4689	218.868	270.6319	295.5087	321.9905	414.2459	444.3665	488.251	538.624	569.342	620.5193	731.9142	826.2117	854.1469	880.1246	904.0377	927.9518	960.9337	1015.3908	1065.4066	1075.4057	1120.1777	1148.5897	1155.0417	1200.1258	1222.7866	1290.6047	1322.5315	1368.2588	1403.313	1411.2626	1438.012	1492.3779	1502.5905	1653.7793	1716.1831	1904.3365	2988.7513	3028.7497	3049.8667	3092.0528	3099.5663	3106.6024	3257.9078	3471.0065	3553.6551
CC([NH3+])C1=CC(=O)O[CH-]1	C[C@@H](N)C1=COC(=O)C1	
InChI=1S/C6H8NO2/c1-4(7)5-2-6(8)9-3-5/h2-4H,7H2,1H3/q-1/p+1	InChI=1S/C6H9NO2/c1-4(7)5-2-6(8)9-3-5/h3-4H,2,7H2,1H3/t4-/m1/s1
