21
gdb 95335	3.04149	1.31963	1.06828	2.0155	85.53	-0.2378	0.0146	0.2524	1191.7928	0.184684	-387.092382	-387.084282	-387.083338	-387.124789	32.565	
O	 0.0540059433	 1.4651197097	-0.0010305752	-0.437745
C	 0.0154080206	 0.031082991	 0.0262592713	 0.113549
C	-1.4300912055	-0.4952625783	 0.1866702695	-0.222923
C	-2.1944994149	-0.5985684137	-1.1489956363	-0.24735
C	-1.4313128486	-1.5811095149	-2.0285266488	-0.021181
C	-1.3848122284	-1.5406790514	-3.5916334299	-0.253365
C	 0.1723177254	-1.7084890382	-3.5107675332	-0.318072
C	 0.0490481919	-1.2722725453	-2.065815493	 0.358365
C	 0.7120362552	-0.5153206817	-1.1998885594	-0.297819
H	-0.2132783977	 1.738190301	-0.8852080557	 0.273392
H	 0.5767668383	-0.2261728867	 0.9327209403	 0.085828
H	-1.3947312821	-1.4906324436	 0.648979895	 0.093882
H	-1.9446657232	 0.1684488856	 0.8874346876	 0.103283
H	-3.231455499	-0.9058643689	-0.9775726853	 0.093656
H	-2.2294418962	 0.3854397834	-1.6360512284	 0.084294
H	-1.6168563365	-2.6109815447	-1.6933860369	 0.079439
H	-1.9452085375	-2.306583208	-4.1320533077	 0.09986
H	-1.6600831599	-0.5548707311	-3.9763005482	 0.10496
H	 0.4680038057	-2.7585579163	-3.6145983292	 0.112269
H	 0.7946697149	-1.1048620999	-4.1763201875	 0.10927
H	 1.7289619642	-0.173445588	-1.3783062889	 0.086408
92.4423	174.2923	204.9607	267.2588	310.739	342.2776	428.5559	443.2476	468.8267	529.5818	671.209	703.0042	753.1002	775.2493	836.6768	876.1269	891.4753	913.1811	935.1414	962.9818	989.4126	1009.375	1065.9899	1078.0986	1096.9264	1111.426	1132.1267	1178.4887	1192.2313	1215.7823	1238.9641	1259.1047	1261.9354	1274.2644	1304.8949	1340.1484	1361.1856	1369.1849	1376.5328	1419.0491	1472.8695	1476.1668	1487.6376	1494.4292	1763.0543	3004.6224	3014.8998	3021.6956	3037.1815	3041.6587	3060.864	3070.225	3089.3397	3096.9674	3120.5701	3154.2082	3805.142
OC1CCC2CCC2=C1	O[C@H]1CC[C@H]2CC[C]2[CH]1	
InChI=1S/C8H12O/c9-8-4-3-6-1-2-7(6)5-8/h5-6,8-9H,1-4H2	InChI=1S/C8H12O/c9-8-4-3-6-1-2-7(6)5-8/h5-6,8-9H,1-4H2/t6-,8+/m1/s1
