16
gdb 64850	3.28236	1.03791	0.90189	5.9002	74.26	-0.2798	-0.0161	0.2636	1277.623	0.124321	-396.931747	-396.923096	-396.922152	-396.965295	31.644	
C	-0.2252497192	 1.5925780697	 0.0183546772	-0.450628
C	 0.0032325915	 0.0768902346	-0.0308006626	 0.160749
C	 0.8218540233	-0.403936017	-1.2724839866	-0.285118
C	 2.0412761302	-0.4702271206	-0.3079660533	-0.121587
N	 1.103038939	-0.4264758003	 0.8333359606	-0.320284
C	 2.8939717386	-1.6572871857	-0.3673743813	 0.300289
N	 3.5792869845	-2.585021204	-0.4339151181	-0.310659
C	-1.2666512378	-0.6278109587	 0.1962599029	 0.275884
N	-2.2773058207	-1.1639926336	 0.357336378	-0.327601
H	 0.7084273971	 2.1233237808	-0.1914798131	 0.12813
H	-0.971605404	 1.8975037887	-0.7207895857	 0.149969
H	-0.5855932931	 1.8935039099	 1.006599562	 0.145963
H	 0.5160580047	-1.3850156872	-1.6315988915	 0.159942
H	 0.8933855981	 0.2982552126	-2.1019064104	 0.135839
H	 2.6846913723	 0.4138882076	-0.4050824745	 0.123154
H	 1.3653400756	 0.1699885132	 1.6111001764	 0.235956
62.1782	154.2955	180.8753	193.2341	241.6327	258.6319	336.5515	386.0367	477.263	522.5818	572.4121	588.4611	605.018	707.3678	780.707	899.2	926.8071	937.1475	981.8242	1008.4009	1068.2019	1094.8027	1163.4012	1180.3616	1227.2214	1263.8172	1282.8249	1362.1459	1400.1478	1412.5025	1481.2708	1488.4655	1494.2545	2358.6119	2362.005	3017.0857	3040.0238	3107.7205	3117.3835	3120.5136	3174.9855	3532.3901
CC1(CC(N1)C#N)C#N	C[C@]1(C[C@@H](N1)C#N)C#N	
InChI=1S/C6H7N3/c1-6(4-8)2-5(3-7)9-6/h5,9H,2H2,1H3	InChI=1S/C6H7N3/c1-6(4-8)2-5(3-7)9-6/h5,9H,2H2,1H3/t5-,6+/m1/s1
