22
gdb 15429	4.69862	0.8594	0.80944	1.6354	79.66	-0.256	0.0957	0.3517	1541.4748	0.198615	-350.199878	-350.190052	-350.189107	-350.235248	34.968	
C	-0.4180729891	 1.4644022716	-0.1177675137	-0.383166
C	-0.2271274439	-0.0458527294	-0.2740549145	-0.154939
C	 1.111941151	-0.4169046099	-0.9277873671	-0.211537
C	 1.2819774521	-1.9114073241	-1.0587757338	 0.058027
O	 0.5049655994	-2.5784985448	-2.064578204	-0.269674
C	 1.9346728317	-2.6096817941	-2.1792988763	 0.075081
C	 2.5479351534	-1.9520683003	-3.3926620127	-0.213283
C	 2.3335778354	-2.7889472654	-4.6603597338	-0.373841
H	 0.3698693478	 1.9023697546	 0.5055083875	 0.111974
H	-0.3887000874	 1.9702772951	-1.0893136028	 0.114894
H	-1.3798599451	 1.6980228496	 0.349203275	 0.113223
H	-0.2960847104	-0.5296429173	 0.7092125414	 0.094111
H	-1.0386469934	-0.4659499641	-0.8796097283	 0.115382
H	 1.181338946	 0.0593441706	-1.9108976352	 0.101456
H	 1.9407170764	-0.0226056838	-0.3231294609	 0.095691
H	 1.2784823123	-2.4376208956	-0.0996500273	 0.081265
H	 2.3592642282	-3.5925697414	-1.9539047311	 0.080266
H	 2.121467118	-0.9551443579	-3.5342159079	 0.105131
H	 3.6221930296	-1.8181815204	-3.209149905	 0.098966
H	 1.2652250354	-2.9217995155	-4.8548163057	 0.134282
H	 2.7830037539	-2.3058436028	-5.5329109324	 0.112122
H	 2.7819977689	-3.7834208947	-4.5599562513	 0.11457
56.778	79.4976	91.173	122.1902	195.5915	228.3919	241.6167	290.7558	323.5958	447.3702	491.0655	557.0176	735.7008	756.6707	810.9645	819.8774	883.4899	905.2513	946.8678	978.8438	1035.2735	1048.7459	1067.6117	1090.3643	1138.9182	1140.0243	1184.8454	1189.8509	1264.3852	1289.3702	1299.1405	1309.1529	1331.9821	1343.5762	1389.1307	1407.1482	1412.2409	1420.7212	1467.3698	1477.4771	1492.585	1496.4495	1498.19	1500.2599	1509.0953	1510.8025	3015.0534	3022.3337	3027.2817	3028.7353	3036.1397	3053.2965	3058.9683	3067.6208	3079.7271	3089.9674	3097.8174	3102.1676	3108.687	3116.728
CCCC1OC1CC	CCC[C@H]1O[C@H]1CC	
InChI=1S/C7H14O/c1-3-5-7-6(4-2)8-7/h6-7H,3-5H2,1-2H3	InChI=1S/C7H14O/c1-3-5-7-6(4-2)8-7/h6-7H,3-5H2,1-2H3/t6-,7+/m0/s1
