17
gdb 99503	2.53094	1.10391	0.81451	2.7618	70.32	-0.2809	0.0045	0.2854	1379.8813	0.134597	-455.154605	-455.144637	-455.143693	-455.190387	34.312	
C	 0.7749612559	 1.3177242914	-0.136884341	-0.232194
O	 0.7889496765	-0.1017708478	 0.0520743977	-0.241259
C	 0.2644708331	-0.5508476938	 1.2063443904	 0.416939
N	-0.2163013697	 0.2256682287	 2.0805147157	-0.534894
C	 0.3973109313	-2.0730302246	 1.2310065365	-0.261422
C	 1.8926947267	-2.5118889971	 1.3090024207	-0.069728
O	 2.0374184477	-3.9074230085	 1.2494414095	-0.410796
C	-0.3410505304	-2.6617448469	 2.3454713445	 0.269854
N	-0.8764877857	-3.146185109	 3.2481390434	-0.325546
H	 1.340875974	 1.8163920482	 0.6540027735	 0.1443
H	 1.2362569888	 1.4881192754	-1.1098533312	 0.134044
H	-0.2504599115	 1.6954041769	-0.1224413938	 0.146038
H	-0.5720266066	-0.2859613211	 2.8854045347	 0.247042
H	-0.0061966263	-2.4736735934	 0.294649453	 0.157408
H	 2.4034590587	-2.0966696809	 0.438632015	 0.143727
H	 2.3416782282	-2.0800661824	 2.2144180977	 0.115324
H	 1.7083513094	-4.2857294552	 2.0727500137	 0.301163
44.8355	97.3046	116.8768	134.8662	174.2118	187.7551	245.456	298.3651	357.2937	380.251	403.4427	482.4993	565.7211	657.7436	740.4032	834.1614	870.2744	931.6278	987.0718	1034.2281	1071.7505	1095.1144	1116.4377	1180.7264	1192.5999	1217.9807	1244.1469	1319.27	1379.2595	1390.1043	1412.9304	1476.7148	1477.0344	1498.5112	1507.5256	1737.2205	2357.834	3011.0024	3052.0355	3065.3728	3126.5337	3128.0091	3158.9547	3517.2013	3802.5677
COC(=N)C(CO)C#N	CO[C]([NH])[C@@H](CO)C#N	
InChI=1S/C5H8N2O2/c1-9-5(7)4(2-6)3-8/h4,7-8H,3H2,1H3	InChI=1S/C5H8N2O2/c1-9-5(7)4(2-6)3-8/h4,7-8H,3H2,1H3/t4-/m1/s1
