18
gdb 95183	2.47471	1.70917	1.17282	3.5647	72.43	-0.2283	-0.0338	0.1945	1068.0549	0.148179	-439.080379	-439.07234	-439.071396	-439.113109	30.793	
C	 0.0802988207	 1.5584746482	-0.0203993097	-0.408106
C	 0.0308486898	 0.0313645317	-0.0358200248	-0.060018
N	 0.6946367182	-0.4963433913	-1.2221724108	-0.300466
C	 0.7007575582	-1.9463247825	-1.321988184	-0.213953
C	 1.4468550888	-2.5365841609	-0.1432274875	 0.064992
O	 2.5758104141	-1.8101934324	 0.307896324	-0.224668
C	 1.4130714437	-1.827837352	 1.1521982661	-0.068839
C	 0.6153730892	-0.5563496869	 1.2562081373	 0.414476
O	 0.3531215589	-0.084383365	 2.3389129455	-0.31978
H	 1.1145441212	 1.901657742	-0.1106623825	 0.135993
H	-0.4956119216	 1.9718365454	-0.854548156	 0.108616
H	-0.3392851412	 1.932008552	 0.9150307512	 0.14509
H	-1.0359312885	-0.2807409411	 0.0161127499	 0.083597
H	 0.2911461695	-0.0851571002	-2.0550720905	 0.225404
H	-0.3074992061	-2.4068689425	-1.3431149331	 0.087246
H	 1.2046512009	-2.2296853209	-2.2529160025	 0.11774
H	 1.5545378374	-3.621094318	-0.1324686734	 0.103258
H	 1.5339545266	-2.3578145255	 2.0949872007	 0.109417
58.2753	171.1712	218.769	279.0711	286.1965	336.3835	387.0371	431.9291	483.1589	552.4981	608.0351	660.3202	780.0249	792.5759	839.011	893.8137	923.6557	953.0102	1006.1682	1024.2437	1083.3776	1103.9284	1126.302	1132.2619	1188.4722	1236.3071	1252.9534	1280.7388	1302.1793	1330.3302	1354.2633	1397.8817	1404.5998	1446.7523	1484.005	1491.8224	1499.5595	1508.7862	1804.1983	2853.0304	2903.8937	3045.236	3059.0374	3114.8447	3117.269	3140.6518	3147.6043	3547.3621
CC1NCC2OC2C1=O	C[C@H]1NC[C@H]2O[C@H]2C1=O	
InChI=1S/C6H9NO2/c1-3-5(8)6-4(9-6)2-7-3/h3-4,6-7H,2H2,1H3	InChI=1S/C6H9NO2/c1-3-5(8)6-4(9-6)2-7-3/h3-4,6-7H,2H2,1H3/t3-,4-,6-/m1/s1
