16
gdb 116986	4.82589	0.56391	0.50964	3.9459	86.7	-0.2883	-0.1029	0.1854	2063.0518	0.121713	-400.754211	-400.744287	-400.743343	-400.790813	33.396	
C	 0.0171773506	 1.5847974813	-0.0558593273	-0.395435
C	-0.0005146149	 0.0553913985	 0.002695744	-0.17185
C	 0.6905227116	-0.5794456336	-1.2045561399	-0.288372
C	 0.6907281276	-2.0932921077	-1.1765641826	 0.180707
O	 0.20106311	-2.7638136218	-0.2961900814	-0.26755
C	 1.3405697589	-2.7404633099	-2.3158489002	-0.006002
C	 1.8763376975	-3.2845841877	-3.2545096186	 0.180046
C	 2.4811813446	-3.8959271069	-4.3143717358	 0.208873
N	 2.9969486835	-4.4123934927	-5.2179001306	-0.31847
H	 1.0417955991	 1.9720923111	-0.0775661601	 0.118489
H	-0.4962312061	 1.9565420396	-0.9494636699	 0.118491
H	-0.4820952778	 2.0146544167	 0.817196282	 0.123387
H	 0.4881087631	-0.295047167	 0.9178851657	 0.120011
H	-1.0312779154	-0.3104245405	 0.0562914956	 0.119929
H	 0.2211817918	-0.2652945072	-2.1482637143	 0.138823
H	 1.736346556	-0.249622762	-1.2889223868	 0.138922
44.5382	55.4942	72.3727	123.7029	169.7374	239.0694	244.6453	302.3133	337.4685	380.5221	539.8504	553.5274	586.6949	601.0648	744.1154	771.7322	878.4503	897.8612	984.0037	1048.1845	1107.5211	1113.9529	1171.5779	1244.7943	1318.9961	1322.5126	1394.3823	1412.0694	1442.2222	1486.6449	1499.458	1506.9547	1768.7118	2250.0013	2385.9652	3010.6775	3031.7002	3036.9347	3051.5827	3079.3232	3104.201	3110.3406
CCCC(=O)C#CC#N	CCCC(=O)C#CC#N	
InChI=1S/C7H7NO/c1-2-4-7(9)5-3-6-8/h2,4H2,1H3	InChI=1S/C7H7NO/c1-2-4-7(9)5-3-6-8/h2,4H2,1H3
