16
gdb 65451	3.83572	1.05543	0.97949	5.8129	71.89	-0.2373	-0.0083	0.2289	1206.5548	0.12426	-434.043169	-434.034337	-434.033393	-434.076751	32.31	
N	-0.531504989	 1.3636169862	-0.1519045146	-0.571096
C	-0.2274707621	-0.0403129524	-0.0838157558	 0.112671
C	-0.887592506	-0.8767025978	 1.0063022527	-0.358411
C	-1.2481356952	-1.1389739149	-0.4247509207	 0.09077
O	-2.4789172435	-0.8655099628	-1.0579507018	-0.208559
C	-3.4884805275	-0.1415554723	-0.5581793238	 0.144622
N	-3.4504604364	 0.5889821192	 0.4758073886	-0.473663
C	 1.1415410907	-0.3588339556	-0.4286987477	 0.282184
N	 2.222300254	-0.6388583092	-0.7312682465	-0.340549
H	-0.5687367847	 1.6706220712	-1.1194562441	 0.238628
H	-1.4423520186	 1.5331525974	 0.2649350191	 0.261689
H	-0.2918644007	-1.6325747444	 1.5045727548	 0.14366
H	-1.5906694513	-0.3446527032	 1.6298887931	 0.175194
H	-0.8548867666	-2.0406304141	-0.8792786426	 0.136184
H	-4.3527385055	-0.2822975814	-1.2141609676	 0.124933
H	-4.3565976376	 1.0233209342	 0.6333254369	 0.241744
83.4803	123.71	141.9876	197.8403	248.2151	251.3164	344.3288	361.6081	431.5217	476.8087	577.0596	593.5673	709.0534	745.9621	758.4391	819.4574	851.9769	880.6845	974.6964	983.0349	1043.3599	1059.4709	1076.8856	1107.0434	1153.9405	1205.549	1306.743	1338.4534	1366.7968	1416.4546	1426.7878	1462.6325	1672.5246	1709.0549	2351.1946	3092.5442	3161.063	3184.6751	3272.3144	3487.5013	3523.4835	3570.644
NC1(CC1OC=N)C#N	N[C@]1(C[C@H]1O[CH][NH])C#N	
InChI=1S/C5H7N3O/c6-2-5(8)1-4(5)9-3-7/h3-4,7H,1,8H2	InChI=1S/C5H7N3O/c6-2-5(8)1-4(5)9-3-7/h3-4,7H,1,8H2/t4-,5-/m1/s1
