15
gdb 23187	2.59498	1.36425	0.99064	4.401	75.79	-0.2524	-0.0096	0.2428	1158.2761	0.112279	-416.748537	-416.740527	-416.739583	-416.781245	30.02	
O	-0.1460489871	 1.3174612329	-0.0448163763	-0.385371
N	 0.0136027345	-0.072601644	 0.0449905962	-0.245014
C	-1.1016308929	-0.6625936979	-0.0405402314	 0.372694
C	-2.5696066514	-0.253185426	-0.0790895061	-0.329113
C	-2.9295980218	-1.7450268927	 0.055215125	-0.098394
C	-2.3433759316	-2.528005884	-1.0643187589	-0.311078
C	-1.410922088	-2.1206817158	 0.0774055169	 0.135172
C	-0.7174107648	-3.0829267125	 0.8679451698	 0.200325
N	-0.1623359721	-3.8673093957	 1.5126932816	-0.348176
H	 0.7582394208	 1.6335473216	 0.059182726	 0.314329
H	-2.8297911393	 0.3472696827	 0.796592631	 0.146337
H	-2.9297208575	 0.2537735667	-0.9784423607	 0.132006
H	-3.6867000295	-2.1493467527	 0.7129711158	 0.129568
H	-2.5772946215	-3.58698187	-1.0817783807	 0.150238
H	-2.1949551377	-2.0773615725	-2.0414172081	 0.136476
99.2435	138.1029	160.4043	227.1525	323.2526	393.3004	423.4275	436.7361	505.9369	517.5551	589.3239	634.6548	744.7927	803.8877	843.0603	871.2949	939.9287	986.6784	1015.7804	1026.5571	1049.489	1090.8234	1106.9268	1144.8569	1223.828	1254.3614	1291.0288	1360.6825	1420.4125	1467.3584	1492.7903	1789.9944	2351.7848	3064.2327	3114.7113	3125.3846	3215.328	3224.2627	3815.2527
ON=C1CC2CC12C#N	ON=C1C[C@H]2C[C@@]12C#N	
InChI=1S/C6H6N2O/c7-3-6-2-4(6)1-5(6)8-9/h4,9H,1-2H2	InChI=1S/C6H6N2O/c7-3-6-2-4(6)1-5(6)8-9/h4,9H,1-2H2/t4-,6-/m0/s1
