17
gdb 62846	2.69911	1.85407	1.49773	1.9207	69.4	-0.2408	0.0225	0.2632	927.7609	0.132467	-458.778523	-458.77051	-458.769566	-458.810333	31.778	
C	-0.0636260086	 1.5072435422	 0.0349727142	-0.494063
C	-0.0117674703	-0.0098587972	-0.0439725311	 0.420279
O	-1.2698014451	-0.5571089166	-0.3304096895	-0.463931
C	 1.2257791918	-0.6592383688	-0.7023817455	-0.082665
O	 2.0588759699	-0.1339651447	 0.4508619169	-0.369395
C	 0.8171196252	-0.761032192	 1.0584991846	 0.246654
C	 0.1049449483	-1.7026931618	 2.051867919	-0.182131
O	-0.0950547762	-2.603869304	 0.8957822913	-0.288432
C	 1.0383981732	-1.9483776501	 0.2148644888	 0.091027
H	 0.9071058422	 1.9251810695	 0.2972726498	 0.152242
H	-0.3680288054	 1.9242713986	-0.9336605602	 0.112057
H	-0.8033235501	 1.8159005431	 0.7810179392	 0.125309
H	-1.7702730789	 0.0981350015	-0.8261773601	 0.284208
H	 1.6862925057	-0.5219536793	-1.6856382185	 0.091088
H	 0.7348641058	-2.1679528635	 2.8169944869	 0.125015
H	-0.8466323807	-1.3577688014	 2.4638740562	 0.132236
H	 1.9544025533	-2.5286455055	 0.3361697882	 0.100504
178.084	203.0238	211.3608	245.6854	258.341	345.0957	405.102	410.4998	468.46	537.3744	583.0976	667.5503	714.1748	793.1103	829.7431	832.637	867.64	890.6117	917.666	961.688	1007.9818	1067.5804	1092.1916	1111.5996	1132.5488	1157.1361	1172.5503	1208.434	1231.083	1275.4961	1297.0401	1336.7105	1395.9455	1421.2835	1484.4336	1493.668	1505.2166	3026.3108	3044.207	3070.7719	3088.8712	3102.2134	3119.224	3161.848	3820.9428
CC1(O)C2OC11COC21	C[C@@]1(O)[C@H]2O[C@]31CO[C@@H]23	
InChI=1S/C6H8O3/c1-5(7)3-4-6(5,9-3)2-8-4/h3-4,7H,2H2,1H3	InChI=1S/C6H8O3/c1-5(7)3-4-6(5,9-3)2-8-4/h3-4,7H,2H2,1H3/t3-,4-,5+,6+/m0/s1
