18
gdb 31154	1.95339	1.82773	1.0066	2.2318	75.81	-0.1836	0.0478	0.2314	1181.3821	0.146351	-439.104394	-439.094598	-439.093654	-439.139359	35.006	
C	-0.0629986564	 1.4406200905	 0.0741350206	-0.251963
O	-0.0644554327	 0.0149848487	 0.0355567125	-0.290664
C	 0.6351826912	-0.5717810579	 1.063477455	 0.107124
C	 1.9643482626	-0.9453852492	 1.0785208009	 0.23064
C	 3.0154908012	-0.8090171139	 0.0303982897	-0.509824
N	 2.1833644562	-1.5234388415	 2.3035062376	-0.31452
C	 1.0253182998	-1.5402360446	 3.0626011932	-0.188303
C	 0.0466727307	-0.9479534258	 2.3048057393	 0.251275
O	-1.2563527972	-0.7462760724	 2.6537266236	-0.459574
H	 0.9528998329	 1.8398339917	-0.0383072237	 0.115337
H	-0.6803338718	 1.7810993871	-0.7610406876	 0.124201
H	-0.4833396644	 1.8161196039	 1.0160631387	 0.119497
H	 3.809104121	-0.1062256004	 0.3150326194	 0.124995
H	 3.4948427142	-1.7686751203	-0.199494706	 0.125538
H	 2.5570653827	-0.4409704039	-0.8907007168	 0.144075
H	 3.0601149158	-1.9132602996	 2.5987146423	 0.256843
H	 0.9969642195	-1.9656090315	 4.0507409886	 0.118666
H	-1.7211429752	-0.5088697808	 1.8424478927	 0.296658
42.9374	121.1912	147.6518	160.5216	185.6035	243.8797	256.6797	286.9115	367.1576	386.8472	460.7452	539.06	569.7904	622.7371	663.4862	707.0285	750.2272	765.3122	970.1525	1036.2012	1060.7345	1062.7321	1111.85	1176.6	1179.5219	1210.4621	1251.2843	1310.3772	1351.2714	1412.5619	1455.1275	1468.6649	1483.7798	1485.605	1494.7582	1505.4127	1515.6361	1599.7477	1673.0195	3003.6938	3013.6186	3058.0222	3065.1091	3117.8246	3120.7504	3281.0858	3692.8611	3794.2327
COC1=C(C)NC=C1O	COc1c(C)[nH]cc1O	
InChI=1S/C6H9NO2/c1-4-6(9-2)5(8)3-7-4/h3,7-8H,1-2H3	InChI=1S/C6H9NO2/c1-4-6(9-2)5(8)3-7-4/h3,7-8H,1-2H3
