18
gdb 117094	2.56727	0.93071	0.71107	3.1373	73.08	-0.2697	-0.0377	0.2319	1554.7447	0.144465	-439.113569	-439.103044	-439.1021	-439.150769	35.814	
C	 0.4813022936	 1.6159162773	-0.4650815415	-0.387304
C	-0.1425423466	 0.4323630225	 0.2909479167	-0.237998
C	-0.2461294637	-0.7599019656	-0.5508208561	 0.272777
N	-0.3102190464	-1.7005732482	-1.2198046258	-0.324107
C	 0.603844837	 0.1304426059	 1.6240777124	 0.375123
O	 1.3971096393	 0.9295217621	 2.0561736005	-0.290282
C	 0.2441911675	-1.1493801803	 2.3427606155	-0.293274
C	 0.8807337748	-1.2586642183	 3.7217991657	-0.078508
O	 0.4458721567	-2.4885723777	 4.2769719661	-0.421057
H	 1.4934612553	 1.3715044522	-0.7941819172	 0.147078
H	-0.1212337569	 1.8687966523	-1.3398524687	 0.134754
H	 0.5401702226	 2.4787147145	 0.199376998	 0.146634
H	-1.1677240634	 0.6945824374	 0.5935800447	 0.151953
H	-0.8482027147	-1.2280648675	 2.4212612016	 0.137551
H	 0.5458699721	-2.0005492834	 1.7194134485	 0.166842
H	 1.9744648353	-1.2142216451	 3.6259015351	 0.108276
H	 0.576452869	-0.4006703628	 4.3391152739	 0.100709
H	 0.8610950985	-2.5926890953	 5.1379420905	 0.290834
27.8029	64.2517	93.2526	107.2945	180.137	194.1323	236.1121	267.1452	290.0946	331.0007	415.547	459.1263	521.9849	571.4353	666.6516	781.0016	817.429	883.0507	984.4772	992.3574	1048.7695	1083.7667	1097.4202	1123.7849	1142.8655	1207.1716	1253.1719	1271.0569	1304.5492	1307.603	1355.1771	1411.7366	1445.1402	1469.0466	1487.0755	1494.3221	1523.7756	1816.1738	2353.6811	2993.6625	3007.0438	3025.1618	3037.1021	3065.491	3071.7849	3142.5183	3155.5458	3833.7579
CC(C#N)C(=O)CCO	C[C@@H](C#N)C(=O)CCO	
InChI=1S/C6H9NO2/c1-5(4-7)6(9)2-3-8/h5,8H,2-3H2,1H3	InChI=1S/C6H9NO2/c1-5(4-7)6(9)2-3-8/h5,8H,2-3H2,1H3/t5-/m0/s1
