21
gdb 73253	2.39298	1.68379	1.42638	1.1467	83.6	-0.2367	0.0228	0.2596	1050.1624	0.183989	-387.091143	-387.083074	-387.08213	-387.123225	32.48	
C	-0.0206434641	 1.5461605618	-0.022979163	-0.468305
C	-0.0302502071	 0.0202020992	 0.0116081945	 0.256136
C	-1.3431566961	-0.6739101481	 0.5224596953	-0.259947
C	-0.4779835203	-1.6776534401	 1.3302822775	-0.274384
C	 0.7081060292	-0.6827173109	 1.1896477624	 0.113523
O	 2.0235086982	-1.1309886549	 0.9776168566	-0.267509
C	 2.2102269452	-1.9180713347	-0.1840773083	-0.127625
C	 1.4287303041	-1.446674684	-1.3768393288	-0.085209
C	 0.4302966498	-0.570283432	-1.2904597364	-0.106667
H	 0.9929067468	 1.9267662824	-0.1886324007	 0.124043
H	-0.6557158558	 1.9290421088	-0.8307988646	 0.112062
H	-0.3919144689	 1.9631315048	 0.9195561208	 0.108799
H	-1.9184839479	-0.0051667923	 1.1695429822	 0.098033
H	-2.0106573606	-1.0862074411	-0.2373449874	 0.098573
H	-0.7980705986	-1.9303480404	 2.3429815609	 0.097997
H	-0.3069047293	-2.6021421848	 0.7744134661	 0.110095
H	 0.7686885859	-0.0245373051	 2.0612671822	 0.079077
H	 3.2856363047	-1.8847114249	-0.3971604705	 0.115733
H	 1.970439154	-2.977339586	 0.0213520021	 0.100038
H	 1.7139383757	-1.8766947802	-2.33384568	 0.091167
H	-0.1057633248	-0.2580115874	-2.185685151	 0.084369
126.1425	191.7002	203.3877	246.669	272.3828	334.6198	410.018	465.5094	506.6281	565.4789	594.8886	700.5231	736.8663	780.1287	833.9967	893.0183	901.7442	921.9188	947.8881	965.7737	996.994	1003.3883	1032.1907	1040.3479	1114.6448	1133.3435	1159.4477	1181.136	1198.8452	1218.4929	1249.0181	1262.9545	1265.1158	1293.9956	1306.1867	1373.1367	1402.2715	1415.9729	1423.665	1478.0917	1490.8206	1493.2929	1495.8776	1500.0898	1721.344	2937.4845	3020.8742	3044.5885	3054.9748	3066.634	3074.4335	3086.2025	3096.9382	3107.7117	3129.2367	3129.8855	3163.1115
CC12CCC1OCC=C2	C[C@]12CC[C@H]1OCC=C2	
InChI=1S/C8H12O/c1-8-4-2-6-9-7(8)3-5-8/h2,4,7H,3,5-6H2,1H3	InChI=1S/C8H12O/c1-8-4-2-6-9-7(8)3-5-8/h2,4,7H,3,5-6H2,1H3/t7-,8+/m1/s1
