18
gdb 92769	4.31879	0.99776	0.909	2.4841	73.8	-0.2432	0.0033	0.2465	1325.1425	0.147647	-439.081082	-439.072553	-439.071609	-439.115974	30.577	
C	-0.393374747	 1.4670461605	 0.0205873273	-0.398297
C	 0.0957625327	 0.0286838368	 0.0327569903	 0.099285
C	 0.9822099509	-0.3776982632	-1.1797547196	-0.199368
N	 2.2751480628	-0.7645602474	-0.6025698606	-0.317374
C	 2.1665082008	-0.6019919762	 0.6513878898	 0.420789
O	 0.9860304949	-0.1698265981	 1.1676484696	-0.271346
C	 3.2272325284	-0.8348966896	 1.6660360083	-0.029069
C	 4.4015758645	-1.6577988811	 1.340638035	-0.165214
O	 4.5013425672	-0.2401336146	 1.4010480709	-0.218801
H	 0.4475421891	 2.1566932916	-0.1027509161	 0.132187
H	-1.0876026514	 1.6176619174	-0.8126938894	 0.123253
H	-0.9131195222	 1.7142739937	 0.9502095437	 0.130401
H	-0.7452884964	-0.6584328285	 0.1723284714	 0.092693
H	 0.5598234517	-1.2133455489	-1.747469965	 0.115984
H	 1.1188301679	 0.45441949	-1.8810410866	 0.115075
H	 2.8884763626	-0.7556592709	 2.6963557903	 0.110034
H	 4.9035104352	-2.2015183613	 2.1397981518	 0.117901
H	 4.4665668582	-2.0851248702	 0.3428723388	 0.141867
23.8246	57.1703	159.8517	179.7575	247.7269	310.8218	365.4937	393.6384	475.7617	662.9595	707.6639	740.5768	837.8729	861.1741	888.1459	921.6375	936.6724	962.9497	991.9267	1063.7047	1078.2613	1102.4161	1123.4816	1141.8883	1160.3472	1171.3374	1216.3971	1230.1601	1284.4339	1328.1735	1342.7375	1384.0938	1410.894	1455.2737	1486.0201	1496.1161	1504.0846	1515.2164	1737.6622	3030.5293	3039.2927	3045.8916	3070.9612	3090.645	3112.6817	3122.0098	3146.565	3192.6268
CC1CN=C(O1)C1CO1	C[C@H]1CN=C(O1)[C@H]1CO1	
InChI=1S/C6H9NO2/c1-4-2-7-6(9-4)5-3-8-5/h4-5H,2-3H2,1H3	InChI=1S/C6H9NO2/c1-4-2-7-6(9-4)5-3-8-5/h4-5H,2-3H2,1H3/t4-,5+/m0/s1
