20
gdb 65317	3.74236	1.04317	0.95074	1.5623	87.33	-0.2253	0.0499	0.2753	1304.3107	0.168692	-365.932461	-365.923134	-365.92219	-365.966254	35.866	
C	 0.0734627716	 1.3792971936	-0.3620471306	-0.437162
C	 0.1244311645	-0.0866977784	 0.0064513396	 0.322443
C	 1.4576563159	-0.7926528888	-0.0418273242	-0.344186
C	 0.7937045723	-0.5061996461	 1.3066328605	-0.248473
C	 1.3510641775	 0.4442667517	 2.2216371358	 0.327217
C	 1.818589174	 1.2382212539	 2.9958188095	-0.443918
N	-1.1256479503	-0.7399824273	-0.3211718916	-0.108264
C	-1.2746238747	-1.2968276338	-1.6640118117	-0.219189
C	-1.2098216382	-2.1849984792	-0.4707140642	-0.235251
H	 0.9672787318	 1.9050591457	-0.0205683908	 0.12732
H	-0.0048240986	 1.495497685	-1.4484498641	 0.114094
H	-0.8019760791	 1.8500038008	 0.094293876	 0.131624
H	 1.5230459088	-1.8315463386	-0.3452613774	 0.115874
H	 2.3277818417	-0.1992463148	-0.2986110014	 0.123951
H	 0.3375104841	-1.3730362852	 1.7775225439	 0.115425
H	 2.2283250113	 1.9380480971	 3.6807484419	 0.192213
H	-2.219875668	-1.0964434968	-2.1598655221	 0.11792
H	-0.4013953448	-1.2915034908	-2.3142827723	 0.114065
H	-0.3150282253	-2.7919397273	-0.3539839928	 0.113851
H	-2.1117979347	-2.6364558106	-0.067150814	 0.120445
78.7157	115.9373	141.4739	207.4637	240.781	275.0785	315.4035	362.2499	419.5852	470.5234	526.5696	572.3187	582.908	645.2982	664.607	777.0639	817.6607	841.6211	893.8177	905.1616	927.7579	963.5616	1008.8743	1036.5915	1058.3759	1092.4276	1107.3935	1111.699	1122.3299	1132.6443	1172.6343	1183.4236	1224.5311	1317.5447	1333.9876	1394.2577	1417.9453	1475.1504	1482.7462	1496.7419	1503.4035	1524.2437	2234.0581	3040.6072	3098.2591	3105.6779	3106.3237	3134.5696	3139.792	3141.5151	3179.4147	3193.6106	3225.4072	3505.4972
CC1(CC1C#C)N1CC1	C[C@]1(C[C@H]1C#C)N1CC1	
InChI=1S/C8H11N/c1-3-7-6-8(7,2)9-4-5-9/h1,7H,4-6H2,2H3	InChI=1S/C8H11N/c1-3-7-6-8(7,2)9-4-5-9/h1,7H,4-6H2,2H3/t7-,8-/m1/s1
