19
gdb 82116	3.32035	1.18554	1.00619	4.4159	79.43	-0.2267	0.0284	0.255	1208.6262	0.159184	-382.033411	-382.024802	-382.023858	-382.066855	32.513	
C	-0.3597652924	 1.5933046638	 0.2117362634	-0.426581
C	-0.0831171998	 0.098406476	 0.1364557998	 0.048374
C	 0.3013896002	-0.5230287524	-1.2136973899	-0.087408
C	 1.6377105329	-0.0034892227	-1.684192961	-0.30406
C	 1.5842338444	-1.0146821201	-0.567727164	-0.006827
N	 1.1982074836	-0.4504703273	 0.7201844474	-0.099755
C	 2.1580005809	 0.3988996235	 1.4042135222	-0.292725
C	 1.6950879301	 0.756429062	 2.7515450499	 0.281487
N	 1.325209277	 1.0555667265	 3.8042937162	-0.312996
H	 0.4041242485	 2.190899442	-0.2935775083	 0.117077
H	-1.3183264738	 1.8046380493	-0.2731682341	 0.127077
H	-0.4320831532	 1.9313616039	 1.2501203146	 0.146846
H	-0.9185840989	-0.4414412008	 0.5954905174	 0.09691
H	-0.3744042346	-1.06463271	-1.8614956456	 0.098587
H	 1.9652154372	-0.3983601626	-2.6409277388	 0.119444
H	 1.940334429	 1.0239364465	-1.5046592271	 0.109097
H	 2.068987627	-1.9837628801	-0.6182171247	 0.100303
H	 3.0908165896	-0.1687063971	 1.5050084231	 0.155196
H	 2.4177080023	 1.3341898997	 0.8791334595	 0.129954
64.33	107.8527	192.9833	227.9511	240.2967	267.6891	381.7796	386.7425	481.6678	512.7029	554.1579	682.0844	754.6991	782.8904	808.2582	908.0286	928.9829	938.9062	977.6769	992.5751	1003.1061	1062.654	1067.2088	1070.7539	1104.8906	1130.2598	1137.2824	1179.4387	1222.7082	1267.2339	1284.1083	1302.237	1352.7442	1376.4143	1385.7261	1411.1978	1466.6304	1481.288	1495.4691	1500.7441	2363.8945	2954.8364	3039.077	3041.3093	3057.4885	3108.7037	3116.1745	3122.0066	3165.2175	3200.979	3209.8567
CC1C2CC2N1CC#N	C[C@H]1[C@H]2C[C@H]2N1CC#N	
InChI=1S/C7H10N2/c1-5-6-4-7(6)9(5)3-2-8/h5-7H,3-4H2,1H3	InChI=1S/C7H10N2/c1-5-6-4-7(6)9(5)3-2-8/h5-7H,3-4H2,1H3/t5-,6+,7+/m0/s1
