18
gdb 40126	3.01749	1.66961	1.30077	2.0719	76.69	-0.224	0.0209	0.2449	1004.0399	0.149258	-401.93034	-401.923077	-401.922133	-401.962149	29.222	
C	-0.1226373453	 1.4807496512	 0.0766519011	-0.322174
C	 1.2729477043	 0.9047487184	-0.0924056522	-0.323535
C	 0.0713823092	 0.0010885266	-0.0357733216	 0.450685
O	-0.0952594228	-0.6768443808	 1.2077996414	-0.274439
C	-0.072868603	-2.0344848922	 1.2070872259	 0.104496
N	-0.2110322901	-2.8336653136	 0.2371296749	-0.261024
C	-0.4383508022	-2.272685129	-1.0605304957	 0.01249
C	-1.6978525469	-1.4596202272	-1.2865513509	-0.312926
C	-0.3535404488	-0.7759324865	-1.240767957	-0.121705
H	-0.3853068195	 1.8676477716	 1.0547186123	 0.126488
H	-0.5804335596	 1.9975538529	-0.7597214065	 0.119428
H	 1.7818033822	 1.0323180421	-1.0418790332	 0.117743
H	 1.9196633849	 0.911194139	 0.7771546965	 0.125979
H	 0.0578677437	-2.4020574775	 2.2223726791	 0.123915
H	-0.1093353791	-2.9168877113	-1.8683329896	 0.097758
H	-2.1944474264	-1.5406350301	-2.247207382	 0.115893
H	-2.3635126982	-1.3438440753	-0.4379459802	 0.128773
H	 0.0461623676	-0.3956516281	-2.1752502622	 0.092156
63.8509	195.9782	287.1052	316.4455	336.3587	442.0273	510.7253	566.8443	590.7213	687.4041	762.2966	796.9937	821.823	862.5686	869.9361	904.7469	934.4548	951.3879	992.6859	999.551	1006.8337	1047.7026	1056.5881	1067.9712	1078.5404	1120.3421	1147.7779	1181.7515	1189.0842	1214.2822	1263.7329	1288.2494	1377.8979	1414.3821	1431.3688	1452.802	1480.8464	1502.8885	1722.4946	3133.7	3134.9327	3137.3245	3156.8834	3166.1123	3169.4053	3220.2818	3224.6898	3233.9754
C1CC11OC=NC2CC12	C1CC21OC=N[C@H]1C[C@@H]21	
InChI=1S/C7H9NO/c1-2-7(1)5-3-6(5)8-4-9-7/h4-6H,1-3H2	InChI=1S/C7H9NO/c1-2-7(1)5-3-6(5)8-4-9-7/h4-6H,1-3H2/t5-,6+/m1/s1
