19
gdb 91501	2.56376	1.84227	1.48493	1.2875	74.94	-0.2365	0.0499	0.2863	956.284	0.160874	-422.909732	-422.902614	-422.90167	-422.940749	29.984	
O	-0.0992803791	 1.4167631194	 0.1988176431	-0.447522
C	 0.0390031749	 0.0055628887	 0.1461933069	 0.111983
C	 0.4998347492	-0.5389757931	 1.5170944926	-0.221607
C	-0.7193586055	-1.4113837156	 1.8377067949	-0.091468
C	-1.9429566786	-0.4342141767	 1.4331566786	-0.329658
C	-1.3211495246	-0.7413635068	 0.0274582963	 0.373969
O	-1.6023816662	-1.1591548124	-1.3481324428	-0.371147
C	-0.7961652922	-2.3712157433	-1.0421976505	-0.180965
C	-1.0966550745	-2.1393685164	 0.479554738	-0.042901
H	-0.452457435	 1.7058479824	-0.6498189185	 0.285527
H	 0.7182771799	-0.2701281123	-0.6685125052	 0.065306
H	 1.4286000163	-1.1122588899	 1.4563884506	 0.101193
H	 0.637549756	 0.276757821	 2.2311855892	 0.115172
H	-0.738287298	-1.9453659074	 2.787998235	 0.076164
H	-2.9145927124	-0.8977297806	 1.5993082244	 0.112834
H	-1.9085242112	 0.5893720572	 1.8108632442	 0.116902
H	-1.2458050966	-3.2627448981	-1.4848696883	 0.117494
H	 0.2342913751	-2.2528576975	-1.3879432153	 0.11518
H	-2.0658266372	-2.6172087886	 0.6436769567	 0.093547
158.8747	274.6306	282.65	336.2838	361.3864	422.287	463.5361	547.3997	581.4098	629.283	652.0145	756.3166	815.3238	832.3918	870.1718	883.853	931.3217	965.1958	979.6881	1007.8591	1034.9055	1049.3335	1062.9226	1086.4716	1119.594	1132.4513	1142.7303	1177.4569	1199.6866	1209.493	1227.0353	1243.0222	1272.8637	1292.5743	1317.004	1349.6011	1420.046	1427.5297	1484.5588	1500.4239	1508.1681	3027.6302	3056.7115	3061.227	3063.4159	3083.1236	3113.2399	3114.5337	3121.2109	3161.5334	3803.1715
OC1CC2CC11OCC21	O[C@H]1C[C@H]2C[C@]31OC[C@@H]23	
InChI=1S/C7H10O2/c8-6-1-4-2-7(6)5(4)3-9-7/h4-6,8H,1-3H2	InChI=1S/C7H10O2/c8-6-1-4-2-7(6)5(4)3-9-7/h4-6,8H,1-3H2/t4-,5-,6-,7-/m0/s1
