23
gdb 62876	2.66506	1.5387	1.12084	1.8223	86.26	-0.2344	0.0798	0.3142	1190.9102	0.20308	-388.218345	-388.208647	-388.207702	-388.251891	38.219	
C	-0.2164203407	 1.6473839468	 0.093311136	-0.455087
C	-0.1513112313	 0.1408735468	 0.3690912825	 0.366913
C	-1.5653810366	-0.4413244395	 0.211337064	-0.493613
C	 1.1648232412	-0.5410562329	-0.1790367606	-0.060973
O	 1.9204321619	 0.2730680566	 0.8011011297	-0.305271
C	 0.7755770864	-0.2947647942	 1.5502936004	-0.06097
C	 1.1151902594	-1.6867850476	 0.883498529	 0.366941
C	 0.1235826924	-2.8538691479	 0.7489103426	-0.493628
C	 2.47195417	-2.2540461613	 1.316245781	-0.455102
H	 0.7676079808	 2.1114978844	 0.1198457947	 0.1377
H	-0.66838965	 1.8257524273	-0.8897409296	 0.107584
H	-0.8570776399	 2.1412369517	 0.8332467447	 0.109159
H	-1.7531172092	-0.7704482874	-0.8168520264	 0.121088
H	-1.7828907843	-1.2739042396	 0.8775947751	 0.125869
H	-2.2999197432	 0.3399482404	 0.4304359741	 0.113842
H	 1.5479260175	-0.5636697253	-1.2032431842	 0.080144
H	 0.7062980491	-0.0439567534	 2.612637179	 0.080143
H	-0.6198879986	-2.7205821045	-0.0346081773	 0.125877
H	 0.6769952508	-3.7670106882	 0.5084121711	 0.113839
H	-0.4044372564	-3.0444469502	 1.6899819591	 0.121099
H	 2.3515683264	-2.8485759462	 2.2297691412	 0.107586
H	 2.8642933408	-2.9284875908	 0.5461572767	 0.109159
H	 3.2044391434	-1.469984025	 1.4982632871	 0.137701
123.0916	125.5118	182.0989	200.3978	237.9118	245.0512	313.6984	339.9162	366.134	418.2283	440.05	446.7538	578.3406	595.5365	642.2756	727.6984	747.7093	760.0578	853.3768	871.6845	936.4437	967.7124	968.0994	978.4517	1008.0197	1015.1014	1093.4083	1102.8015	1132.0563	1140.0675	1165.2619	1188.5837	1206.9734	1230.9972	1248.4835	1306.3011	1314.0462	1392.7286	1397.6397	1416.9335	1424.1321	1484.0043	1484.5197	1487.8409	1499.3751	1510.2312	1510.9016	1516.1811	1536.881	3026.9212	3027.1805	3040.1224	3040.1508	3071.8356	3078.3169	3078.3574	3080.0654	3091.4654	3091.6854	3148.0324	3162.352	3162.5274	3163.064
CC1(C)C2OC1C2(C)C	CC1(C)[C@H]2O[C@@H]1C2(C)C	
InChI=1S/C8H14O/c1-7(2)5-8(3,4)6(7)9-5/h5-6H,1-4H3	InChI=1S/C8H14O/c1-7(2)5-8(3,4)6(7)9-5/h5-6H,1-4H3/t5-,6+
