14
gdb 98949	4.22737	0.81397	0.68548	7.169	68.54	-0.2576	-0.0585	0.1991	1524.4265	0.097182	-473.818204	-473.808385	-473.807441	-473.854506	32.982	
O	 0.23642665	 1.2891605147	 0.0088045756	-0.384469
C	-0.0131419311	-0.0868811144	 0.001499808	-0.198485
C	-1.5315456522	-0.3040387073	 0.0153258924	 0.422173
O	-2.3395715802	 0.5790131066	 0.0275475679	-0.272128
N	-1.8452043283	-1.6756454125	 0.0110246118	-0.403168
C	-3.1154982353	-2.2594010515	 0.0195795771	 0.317561
O	-4.1598075957	-1.6609116598	 0.0324330064	-0.291397
C	-3.0340708333	-3.7161840229	 0.0110107239	 0.18794
C	-2.9961733351	-4.9180279618	 0.0042155221	-0.3826
H	 1.1887408509	 1.4219014824	-0.0054836979	 0.297469
H	 0.3930549353	-0.5901964903	-0.8934653835	 0.113087
H	 0.411230327	-0.6028269784	 0.8807590976	 0.112902
H	-1.0734535812	-2.3274911115	 0.0004811495	 0.262828
H	-2.9825851007	-5.9811677434	-0.0016020409	 0.218287
38.8162	64.091	85.9607	104.8227	197.3233	207.6247	258.4898	284.8918	370.4619	428.3971	552.382	608.6352	612.0452	667.9893	689.4698	698.8343	764.162	867.104	964.6394	1029.7668	1121.8807	1157.098	1184.8043	1240.33	1255.0978	1443.3974	1505.5457	1506.5928	1798.1401	1873.5675	2223.3165	2946.4272	2971.0685	3492.2277	3603.4767	3839.0089
OCC(=O)NC(=O)C#C	OCC(=O)NC(=O)C#C	
InChI=1S/C5H5NO3/c1-2-4(8)6-5(9)3-7/h1,7H,3H2,(H,6,8,9)	InChI=1S/C5H5NO3/c1-2-4(8)6-5(9)3-7/h1,7H,3H2,(H,6,8,9)
