15
gdb 82269	3.317	1.39112	1.0846	1.9811	75.68	-0.2397	-0.0449	0.1948	1072.9455	0.111814	-420.573557	-420.565806	-420.564862	-420.60578	29.922	
O	 0.0934999037	 1.3810756916	 0.1103843567	-0.419123
C	 0.061516078	-0.0266790069	 0.0322187571	 0.008519
C	-1.3634320504	-0.5829051797	-0.0440655091	-0.008315
O	-2.0893194009	-0.0122058456	-1.1399017642	-0.266598
C	-1.4981842328	-1.3352953347	-1.2934473133	 0.007879
C	-0.1721368863	-1.3031508448	-1.9746253357	-0.200342
C	 0.7034813228	-0.5732696762	-1.2611504856	 0.108027
C	 2.0282851554	-0.2371991876	-1.6144391714	 0.257607
C	 3.1690394421	 0.0555806272	-1.8697282928	-0.412732
H	-0.5048512267	 1.6967985645	-0.5801763628	 0.29261
H	 0.5926715687	-0.3942323434	 0.9164118557	 0.103316
H	-1.9377102267	-0.7798655983	 0.8560870219	 0.10673
H	-2.2118663567	-2.1381552657	-1.4431169887	 0.108091
H	 0.0286479089	-1.7700145086	-2.9302205848	 0.116336
H	 4.170935311	 0.3166605981	-2.1057261129	 0.197994
98.8084	137.8005	184.3519	268.7185	364.0396	461.8867	472.4248	479.7697	529.6047	609.9705	635.797	643.7632	674.0985	709.0896	805.0051	854.7927	884.274	888.0425	921.2848	995.6732	1051.3302	1093.41	1111.4746	1173.0847	1245.3815	1272.415	1274.8366	1295.1514	1329.5512	1413.7347	1432.6953	1653.6806	2221.2682	3064.6461	3161.2743	3181.3845	3219.7514	3502.5239	3764.0776
OC1C2OC2C=C1C#C	O[C@H]1[C@H]2O[C@H]2C=C1C#C	
InChI=1S/C7H6O2/c1-2-4-3-5-7(9-5)6(4)8/h1,3,5-8H	InChI=1S/C7H6O2/c1-2-4-3-5-7(9-5)6(4)8/h1,3,5-8H/t5-,6+,7-/m0/s1
