17
gdb 53339	3.60164	1.00725	0.97212	1.2805	75.74	-0.2356	0.0363	0.2718	1303.6617	0.134552	-421.769123	-421.760494	-421.75955	-421.80407	31.005	
C	-0.3069713788	 1.1371071588	 0.4895714519	-0.501635
C	-0.1740078168	-0.2801958079	 0.1885900146	 0.069473
C	-0.067124224	-1.4547492457	-0.0534017764	 0.141428
C	 0.0897650496	-2.8715735322	-0.4079013098	-0.0676
O	 0.9397290308	-3.5566814988	 0.5098578677	-0.245351
C	 0.1226525744	-4.3449640859	 1.3406076717	 0.072811
C	-1.0202382378	-3.6714065228	 2.0761560856	-0.357495
C	-1.2365594498	-4.3436155504	 0.7336767486	 0.07281
O	-1.1620904851	-3.5545968149	-0.4286708688	-0.245352
H	 0.2605963646	 1.4048388692	 1.3873317802	 0.154395
H	 0.0639680374	 1.7538100476	-0.3361255086	 0.153433
H	-1.3541817032	 1.4070492167	 0.6635536593	 0.1544
H	 0.5356646756	-2.9543424169	-1.4066680434	 0.118877
H	 0.644540166	-5.208560258	 1.7324426982	 0.112056
H	-1.4088904631	-4.1929303819	 2.9453776527	 0.115788
H	-1.0446935736	-2.5898524734	 2.1333283144	 0.139903
H	-1.8781136563	-5.2060574736	 0.6059988018	 0.112057
24.7151	74.4265	101.1436	172.131	277.6014	339.7735	342.9136	453.9211	467.8849	550.1167	737.9828	752.379	753.5751	785.1253	839.0748	918.3691	926.3222	989.5716	990.5752	1040.8274	1052.3411	1054.0261	1067.1061	1089.8897	1132.575	1157.6533	1171.6863	1204.2268	1289.3609	1349.8657	1371.0931	1381.494	1413.3101	1463.0722	1475.8859	1476.766	2368.4037	3029.9927	3031.4873	3093.0468	3093.1936	3132.9928	3191.0879	3199.6972	3232.6956
CC#CC1OC2CC2O1	CC#C[C@H]1O[C@H]2C[C@H]2O1	
InChI=1S/C7H8O2/c1-2-3-7-8-5-4-6(5)9-7/h5-7H,4H2,1H3	InChI=1S/C7H8O2/c1-2-3-7-8-5-4-6(5)9-7/h5-7H,4H2,1H3/t5-,6+,7-
