15
gdb 54005	3.64564	0.96622	0.82646	3.135	68.79	-0.2593	-0.0395	0.2198	1330.9903	0.112713	-450.182336	-450.17307	-450.172126	-450.216971	33.088	
N	 0.1253284321	 1.1007736859	-0.4843032023	-0.526338
C	 0.0019261518	-0.12338306	 0.0587552259	 0.401335
O	 0.9188579429	-0.8449252651	 0.4145892567	-0.377818
C	-1.4498969771	-0.5852178894	 0.2110818818	 0.302431
N	-1.5221355296	-1.8510619441	 0.6842026836	-0.545071
N	-2.3825188731	 0.2274236419	-0.1387517638	-0.325423
C	-3.765827508	-0.2186415387	-0.0763322288	-0.291991
C	-4.2101016077	-0.6648214055	 1.2562528146	 0.249687
N	-4.5088704011	-1.0454593592	 2.3066512572	-0.314764
H	 1.0380258938	 1.5069405848	-0.5964179108	 0.269583
H	-0.7152712293	 1.6096245711	-0.7097373933	 0.279508
H	-0.6320907294	-2.2287635397	 0.9834069935	 0.28265
H	-2.3584970063	-2.1922801285	 1.1295170897	 0.280031
H	-4.4149113495	 0.6044604928	-0.3900285211	 0.160637
H	-3.9475215695	-1.0513966563	-0.774267283	 0.155543
52.5764	88.3488	109.8511	193.0285	236.716	323.8052	330.6918	374.2273	393.4206	434.1387	482.0912	552.897	585.7251	644.866	661.8505	684.3461	810.9511	825.836	906.1615	988.9672	1005.8457	1104.6955	1161.7502	1266.8254	1317.8049	1347.2313	1422.3539	1465.8117	1583.9946	1607.7224	1727.7616	1804.6865	2345.8195	2990.2164	3079.3212	3550.4455	3587.6632	3687.6507	3737.0529
NC(=O)C(N)=NCC#N	NC(=O)C(=NCC#N)N	
InChI=1S/C4H6N4O/c5-1-2-8-3(6)4(7)9/h2H2,(H2,6,8)(H2,7,9)	InChI=1S/C4H6N4O/c5-1-2-8-3(6)4(7)9/h2H2,(H2,6,8)(H2,7,9)
