21
gdb 91013	2.60685	1.56327	1.31922	1.187	81.95	-0.2236	0.0678	0.2914	1080.5657	0.182779	-387.036111	-387.027819	-387.026875	-387.068353	33.578	
C	-0.0442062835	 1.5434254779	 0.0492657633	-0.50039
C	 0.0229185528	 0.0426084315	 0.040839788	 0.378282
C	-0.82470176	-0.81357485	 0.9367854413	-0.340653
C	 0.6726824019	-0.9406141743	 1.0368499977	-0.115704
C	 1.272124442	-1.754217099	-0.1306360781	-0.008833
C	 0.4442853286	-2.9240578063	-0.7437063849	-0.302127
C	-0.1345727196	-1.9287310635	-1.8134853345	 0.108631
O	-1.5318367696	-1.7522657367	-1.9042055397	-0.423954
C	 0.6320169164	-0.7572646682	-1.1398994125	-0.104588
H	 0.899818673	 1.9929955394	-0.2811016565	 0.110105
H	-0.8356424236	 1.906753873	-0.6180745847	 0.123124
H	-0.2606679226	 1.9221781772	 1.0539506046	 0.113168
H	-1.2757442756	-0.2704258287	 1.7630026262	 0.100969
H	-1.4538952845	-1.6000059639	 0.5384192476	 0.120856
H	 1.1917494672	-0.728820257	 1.9655243207	 0.076195
H	 2.3531836015	-1.8835244726	-0.0899778787	 0.064018
H	 1.0484941578	-3.7270157822	-1.174345809	 0.092286
H	-0.3028550568	-3.3678795871	-0.0811511225	 0.101901
H	 0.2901297546	-2.1401055689	-2.8054678513	 0.065373
H	-1.9028344442	-2.5252692616	-2.3415150869	 0.282625
H	 1.2497429441	-0.1427842993	-1.7968262602	 0.058717
135.638	161.1798	208.4251	269.0878	274.3801	318.4802	362.7683	420.4671	468.0231	530.8184	649.3873	672.3845	714.7298	762.6195	827.0126	853.6807	891.5369	908.7567	924.2748	976.7749	985.3822	1003.6288	1011.1817	1050.3845	1066.5102	1080.5302	1104.7316	1120.0319	1135.6548	1179.1078	1190.7758	1208.3582	1240.1705	1246.6034	1266.9266	1299.5721	1321.5694	1323.7291	1396.526	1415.7798	1426.24	1472.478	1484.0752	1499.2364	1513.5806	2984.8724	3015.1476	3057.7678	3072.3278	3089.633	3091.9154	3106.9748	3117.522	3128.2391	3162.8789	3215.898	3814.4221
CC12CC1C1CC(O)C21	C[C@]12C[C@H]1[C@H]1C[C@@H](O)[C@@H]21	
InChI=1S/C8H12O/c1-8-3-5(8)4-2-6(9)7(4)8/h4-7,9H,2-3H2,1H3	InChI=1S/C8H12O/c1-8-3-5(8)4-2-6(9)7(4)8/h4-7,9H,2-3H2,1H3/t4-,5+,6-,7+,8+/m1/s1
