15
gdb 54884	2.80241	1.55612	1.01314	3.7805	68.47	-0.2569	-0.0383	0.2186	1107.2215	0.11222	-454.014436	-454.006306	-454.005362	-454.047829	29.161	
C	-0.0304354873	 1.542893762	-0.0020606339	-0.50752
C	-0.0228380776	 0.0286167576	 0.1041319013	 0.414231
O	-0.0338042033	-0.5582298875	 1.1528400055	-0.283951
N	-0.0013019381	-0.6660839143	-1.1303523501	-0.20192
C	 0.014490595	-0.1051017664	-2.4202676484	 0.088136
N	 0.0328194969	-0.915144536	-3.4010999922	-0.252015
C	 0.0317970962	-2.2570963489	-2.8248298161	-0.292301
C	 0.0088746499	-2.0922732884	-1.3033639162	 0.401627
O	 0.0010937195	-2.926028063	-0.4476199063	-0.302662
H	 0.8610087088	 1.9113102911	-0.5197229961	 0.151633
H	-0.9090806598	 1.9009839577	-0.547993231	 0.151544
H	-0.0488213598	 1.9430107908	 1.0107921745	 0.16183
H	 0.0103634535	 0.9719548828	-2.5336849976	 0.148008
H	-0.8405405354	-2.8283179502	-3.1601380784	 0.16167
H	 0.9195528715	-2.8188167872	-3.134757075	 0.161689
54.3196	108.6562	190.0388	202.5609	210.6151	347.9165	464.2416	468.4182	508.8321	568.2933	616.7619	643.5198	699.9953	850.6815	924.3641	926.3605	996.7887	999.3715	1032.2219	1053.8443	1130.3691	1189.3706	1241.6948	1269.3343	1308.0756	1373.1155	1391.6466	1437.7373	1472.6989	1484.7272	1689.3628	1814.0294	1895.6379	3045.9147	3056.6832	3091.97	3111.3224	3167.417	3220.1118
CC(=O)N1C=NCC1=O	CC(=O)N1C=NCC1=O	
InChI=1S/C5H6N2O2/c1-4(8)7-3-6-2-5(7)9/h3H,2H2,1H3	InChI=1S/C5H6N2O2/c1-4(8)7-3-6-2-5(7)9/h3H,2H2,1H3
