18
gdb 127291	4.68465	1.23054	0.99993	2.0331	81.34	-0.1827	0.0263	0.209	1187.2109	0.151278	-398.140911	-398.133152	-398.132208	-398.173265	29.474	
C	 0.110875056	 1.3678908834	 0.0735226864	-0.317029
N	-0.0583018327	-0.0638515781	-0.0066252845	 0.048357
C	-0.1522788247	-0.8215652337	-1.1548925102	-0.212335
C	-0.1202911143	-2.1281733134	-0.7281356591	 0.217517
N	-0.2634391587	-3.4525394289	-1.1746510823	-0.414271
C	 0.1996232295	-4.2928061597	-0.0308108634	-0.167333
C	-0.0409849419	-3.4378333552	 1.2531645104	-0.33765
C	-0.0005298985	-2.0570021659	 0.6677015518	 0.341854
N	 0.0391906915	-0.8118260653	 1.1173317344	-0.372345
H	 1.1593031521	 1.6651225823	-0.053850065	 0.131989
H	-0.4905388327	 1.8543654917	-0.699056697	 0.132365
H	-0.2312159252	 1.6958595872	 1.0557941166	 0.154659
H	-0.22560482	-0.3560855665	-2.1240314162	 0.119066
H	 0.2106208201	-3.674416818	-2.0406056321	 0.229531
H	-0.3445347869	-5.2406231226	-0.013327007	 0.107561
H	 1.2726781646	-4.5169112911	-0.118996789	 0.099192
H	-1.0226455664	-3.6566514003	 1.691561385	 0.120672
H	 0.7127451181	-3.6355905759	 2.0194904213	 0.118203
99.8421	123.3051	181.4491	250.4451	292.9166	321.1813	507.1054	538.4412	605.199	617.5905	675.1301	719.6779	740.9606	793.6179	844.0798	878.8493	940.0451	998.1074	1027.4197	1066.7384	1075.7214	1141.1738	1148.4161	1186.1401	1190.9333	1233.869	1299.8496	1329.8845	1343.6374	1400.0344	1414.4815	1454.2084	1483.1044	1487.5845	1493.3365	1508.4372	1514.44	1533.4535	1647.9947	2993.2871	3022.8199	3028.6165	3085.7489	3094.8701	3096.186	3149.8749	3264.592	3558.4685
CN1C=C2NCCC2=N1	Cn1cc2NCCc2n1	
InChI=1S/C6H9N3/c1-9-4-6-5(8-9)2-3-7-6/h4,7H,2-3H2,1H3	InChI=1S/C6H9N3/c1-9-4-6-5(8-9)2-3-7-6/h4,7H,2-3H2,1H3
