15
gdb 28642	5.894	1.02127	0.87514	1.1208	86.43	-0.2478	-0.0488	0.1991	1273.3696	0.112691	-379.703094	-379.694932	-379.693988	-379.73699	29.585	
C	-0.0123609299	 1.5008674511	 0.0139119186	-0.461837
C	 0.0054890837	-0.0004232008	 0.0128392446	 0.362374
N	 0.1145596385	-0.6078901957	-1.179546711	-0.277816
C	 0.1305874488	-1.9338044145	-1.1818236299	-0.055846
C	 0.0395190406	-2.6986096807	-0.008460076	 0.062384
C	-0.0703549652	-1.956563867	 1.1743673174	-0.056925
N	-0.0878493034	-0.6273052451	 1.1933426632	-0.275604
C	 0.0575119382	-4.1174315997	-0.0210046796	 0.221383
C	 0.0728705158	-5.3213890364	-0.0326692394	-0.398483
H	 0.904897054	 1.8895244045	-0.4400018366	 0.144258
H	-0.845513705	 1.8688970444	-0.5933747207	 0.144241
H	-0.1058238199	 1.8794694838	 1.0316155028	 0.139379
H	 0.2188796231	-2.4272060335	-2.1469180862	 0.125874
H	-0.1461117002	-2.465222645	 2.1323950732	 0.125921
H	 0.0863827011	-6.3833095154	-0.0425634205	 0.200698
24.986	92.0456	140.6679	230.2113	356.4814	411.5713	435.0183	453.1417	528.9865	549.5287	603.6004	655.247	662.6196	722.9568	777.4413	855.8397	968.5718	997.3077	1006.11	1055.1295	1069.1706	1230.8652	1245.5786	1296.4143	1313.7225	1400.3426	1405.717	1465.7695	1477.718	1483.7921	1561.3666	1625.8587	2228.8999	3047.1637	3103.4624	3158.1251	3160.1832	3162.2043	3501.6821
CC1=NC=C(C=N1)C#C	Cc1ncc(cn1)C#C	
InChI=1S/C7H6N2/c1-3-7-4-8-6(2)9-5-7/h1,4-5H,2H3	InChI=1S/C7H6N2/c1-3-7-4-8-6(2)9-5-7/h1,4-5H,2H3
