20
gdb 64321	2.67603	1.46764	1.19712	1.5237	75.37	-0.2507	0.0043	0.255	1108.3385	0.171316	-440.29316	-440.284377	-440.283433	-440.326143	34.061	
C	-0.1035317668	 1.5732787108	 0.0092896216	-0.41283
C	 0.007991332	 0.0478927572	 0.0019211983	 0.337426
O	-1.3199567795	-0.4604527651	 0.1238643443	-0.473535
C	 0.6565692406	-0.4353941231	-1.3102169123	-0.219947
C	 0.6821911065	-1.9560284497	-1.4967890913	-0.178765
N	 1.5389067156	-2.7409194848	-0.6147308836	-0.218677
C	 1.5007506613	-2.6526773208	 0.6383295855	 0.09509
O	 0.7598501268	-1.8210606616	 1.4463852667	-0.25236
C	 0.8268526468	-0.4054292018	 1.2156024847	-0.107553
H	 0.8779535244	 2.0442666685	-0.1035962845	 0.113694
H	-0.7391925146	 1.90037199	-0.8179752632	 0.13036
H	-0.5575967971	 1.9205077331	 0.9416312182	 0.121344
H	-1.252630255	-1.3301624692	 0.5359863033	 0.288066
H	 0.087150636	-0.0115560195	-2.1453365522	 0.104742
H	 1.6768076513	-0.0381860862	-1.3812856956	 0.09766
H	-0.3452199816	-2.3350634514	-1.4058705952	 0.118453
H	 0.9982809645	-2.1721909516	-2.5216097725	 0.109118
H	 2.0791844004	-3.3485515755	 1.2473139253	 0.120169
H	 1.8749729699	-0.0986045465	 1.1152093598	 0.108449
H	 0.4122671984	 0.0373431571	 2.1249311826	 0.119095
85.3978	185.8131	200.9556	232.1145	260.101	291.342	354.5933	386.8062	416.6966	433.6991	473.5113	540.9988	593.9144	718.8331	789.0872	834.12	881.5243	919.1563	945.2833	963.203	984.2648	1011.1485	1025.3017	1065.3113	1111.4565	1129.3377	1174.7017	1220.8057	1263.549	1295.6846	1321.054	1355.7505	1368.8518	1391.0997	1410.6189	1415.1009	1426.9075	1467.073	1485.9039	1487.0586	1498.414	1500.7667	1755.3232	3017.7597	3026.4314	3033.1664	3043.4471	3073.4733	3074.5593	3102.5596	3117.1465	3121.0256	3130.8379	3785.9242
CC1(O)CCN=COC1	C[C@@]1(O)CCN=COC1	
InChI=1S/C6H11NO2/c1-6(8)2-3-7-5-9-4-6/h5,8H,2-4H2,1H3	InChI=1S/C6H11NO2/c1-6(8)2-3-7-5-9-4-6/h5,8H,2-4H2,1H3/t6-/m1/s1
