19
gdb 28564	4.5182	0.97775	0.84704	2.7779	84.68	-0.1954	0.0372	0.2326	1387.1884	0.161022	-382.085225	-382.076499	-382.075555	-382.120371	32.194	
C	-0.1494537394	 1.4615036764	 0.1626610432	-0.505221
C	-0.0268377858	-0.0120911221	-0.0436653659	 0.298171
C	 0.1164127032	-0.7582849504	-1.1922274415	-0.216236
C	 0.1809716111	-2.1303877128	-0.8183432771	-0.228608
C	 0.0694305837	-2.196829471	 0.5532490549	 0.283773
N	-0.0512865109	-0.8998566194	 1.0077499185	-0.344322
C	 0.1027121637	-3.3489747701	 1.4805718854	-0.135734
C	-1.1512293245	-3.8339399786	 2.1300490526	-0.234745
N	-0.5022253652	-4.6296398184	 1.0770912925	-0.307394
H	 0.6586323922	 1.8617561062	 0.7880454725	 0.126138
H	-0.1052791279	 1.974892876	-0.8005002897	 0.138345
H	-1.0980631257	 1.7376807697	 0.640628989	 0.12474
H	 0.1707300308	-0.3573271716	-2.1932638661	 0.088879
H	 0.3168911743	-2.9754242271	-1.4765396942	 0.095042
H	-0.1734737152	-0.6464885599	 1.973526968	 0.25313
H	 1.029819661	-3.4863280271	 2.0373899081	 0.100932
H	-1.1122117186	-4.2711928686	 3.1239025257	 0.115972
H	-2.0740527232	-3.3120955801	 1.8921603395	 0.112994
H	-1.0027746437	-4.4875948613	 0.2025264948	 0.234143
13.0506	108.4524	128.6557	161.407	241.0856	313.4284	380.1534	465.8633	488.5514	599.3546	642.7541	672.534	699.8234	787.5046	829.714	841.1165	879.1766	959.4191	978.178	994.0666	1008.2773	1028.3853	1062.8328	1063.291	1101.0438	1141.724	1169.1575	1215.309	1255.7212	1259.4852	1285.3309	1303.9414	1395.4969	1415.326	1424.7067	1445.3685	1480.5715	1502.03	1505.9784	1546.7415	1636.8718	3014.7828	3057.8834	3094.3868	3108.9007	3122.8441	3196.8681	3236.8438	3251.9197	3496.468	3667.7124
CC1=CC=C(N1)C1CN1	Cc1ccc([nH]1)[C@H]1CN1	
InChI=1S/C7H10N2/c1-5-2-3-6(9-5)7-4-8-7/h2-3,7-9H,4H2,1H3	InChI=1S/C7H10N2/c1-5-2-3-6(9-5)7-4-8-7/h2-3,7-9H,4H2,1H3/t7-/m1/s1
