19
gdb 107768	2.68209	1.63813	1.25712	3.2489	78.7	-0.2313	0.0107	0.242	1059.9222	0.159318	-385.869107	-385.861061	-385.860117	-385.901665	31.299	
C	 0.0373173768	 1.5398645918	 0.0032252887	-0.389155
C	 0.0556462796	 0.0045907892	 0.0105430982	-0.306718
C	-1.3325153634	-0.5804050567	 0.0367012649	 0.201082
C	-2.3270606572	-0.3800529651	 1.2229591494	-0.282094
C	-2.9713801443	-1.6942009058	 0.7750718197	-0.066695
C	-3.0172673467	-1.6941672199	-0.7609023397	-0.194194
C	-1.7540294282	-2.1180807926	 0.0280913178	-0.144783
C	-2.256136294	-0.4875362022	-1.2011488223	 0.423839
O	-2.190760554	 0.142715496	-2.2219564787	-0.358109
H	 1.0548861167	 1.9404311424	-0.0216049975	 0.112522
H	-0.5002721666	 1.9102316468	-0.8734247737	 0.149072
H	-0.4548919035	 1.9357595483	 0.8979518439	 0.115389
H	 0.5771379764	-0.3574130733	-0.8841366772	 0.109424
H	 0.6238377008	-0.3617992455	 0.8751782982	 0.096474
H	-1.8266490018	-0.4947429043	 2.1892324934	 0.106096
H	-2.9357010355	 0.5310395986	 1.2233437856	 0.10377
H	-3.6705783212	-2.3175112191	 1.3184017175	 0.100465
H	-3.6931803044	-2.3268015887	-1.3193056278	 0.110344
H	-1.1948639396	-3.0359086898	-0.0691337204	 0.113272
86.4777	139.6802	186.4187	202.7086	279.9028	363.9851	405.7008	468.5393	613.3457	666.8572	718.8238	753.9902	779.3951	811.0371	818.2761	839.2031	876.4144	917.7817	949.5472	984.5615	989.624	1014.658	1037.8511	1049.343	1091.8323	1107.8252	1127.5002	1170.4743	1196.6936	1232.3472	1282.7222	1311.9227	1321.5868	1349.4464	1381.0076	1409.3572	1484.9683	1499.1284	1499.69	1513.1948	1864.9914	3019.9783	3036.0938	3040.0136	3055.4208	3094.9054	3105.3093	3127.2477	3192.3447	3220.2632	3242.1253
CCC12CC3C(C13)C2=O	CC[C@]12C[C@H]3[C@H]([C@@H]13)C2=O	
InChI=1S/C8H10O/c1-2-8-3-4-5(6(4)8)7(8)9/h4-6H,2-3H2,1H3	InChI=1S/C8H10O/c1-2-8-3-4-5(6(4)8)7(8)9/h4-6H,2-3H2,1H3/t4-,5+,6-,8-/m0/s1
