17
gdb 90533	4.67266	1.06267	0.98161	3.2482	73.37	-0.2544	0.0061	0.2604	1207.3144	0.136362	-417.972262	-417.964167	-417.963223	-418.005171	30.229	
C	 0.416134947	 1.5587318558	-0.1827583427	-0.408278
C	 0.0636087775	 0.1059443977	 0.0231017607	 0.160676
O	 0.8872430447	-0.813300951	-0.7727250744	-0.315425
C	 1.1555279787	-1.6397254014	 0.3577211975	 0.110587
C	 2.5126548566	-1.2923760162	 1.0544816445	-0.137423
N	 1.8233034526	-0.1986605336	 1.8050807862	-0.326291
C	 0.4893790518	-0.6302333368	 1.3166250042	-0.081879
C	 3.0343402233	-2.3657828386	 1.8941178002	 0.264056
N	 3.4179226198	-3.2134325454	 2.5812763129	-0.317796
H	 1.4374201015	 1.7566550144	 0.1486964781	 0.141243
H	 0.3228712416	 1.8191508064	-1.2414076104	 0.13046
H	-0.2691086097	 2.1969598412	 0.3856997262	 0.118259
H	-0.9941722972	-0.0814590786	-0.2073459464	 0.083565
H	 0.9072458896	-2.6920615683	 0.2128763573	 0.107512
H	 3.2908795564	-0.9355815893	 0.3727524999	 0.136505
H	 1.9431463003	-0.2539790587	 2.8089903081	 0.243099
H	-0.2631220747	-0.8564282076	 2.071648238	 0.091132
73.2645	134.2354	171.1413	202.3509	272.0494	347.2149	380.5095	468.5136	528.784	570.9308	687.592	711.4448	801.6462	853.6667	861.2689	901.5441	948.5041	988.1565	1020.8867	1048.5845	1055.2438	1074.3352	1096.7224	1155.1988	1182.7044	1194.3416	1237.3304	1280.1778	1285.6315	1320.6141	1345.0469	1372.5434	1402.2616	1411.2291	1479.6805	1493.3715	2346.6722	3010.3757	3042.1567	3067.2672	3101.5614	3108.7634	3117.3939	3138.9448	3564.1211
CC1OC2C(NC12)C#N	C[C@H]1O[C@H]2[C@@H](N[C@@H]12)C#N	
InChI=1S/C6H8N2O/c1-3-5-6(9-3)4(2-7)8-5/h3-6,8H,1H3	InChI=1S/C6H8N2O/c1-3-5-6(9-3)4(2-7)8-5/h3-6,8H,1H3/t3-,4+,5+,6+/m1/s1
