21
gdb 113270	3.67114	0.81191	0.78193	2.4098	80.41	-0.2369	-0.0208	0.2161	1537.6827	0.178803	-424.211855	-424.201414	-424.20047	-424.247935	37.085	
C	-0.0079092295	 1.1299506874	 0.223238827	-0.239614
O	-0.2206493557	-0.0118608587	-0.5865164196	-0.232712
C	-1.3708144313	-0.7132256868	-0.2439797332	 0.081718
C	-1.4621775929	-2.122925928	-0.7333325667	-0.364147
C	-1.3090766762	-1.8526514906	 0.7600555141	 0.283812
C	 0.0262187713	-2.1821109328	 1.4008191997	-0.462913
C	-2.5265316241	-2.0710366032	 1.6478722998	-0.348706
C	-2.7496370057	-3.5348478781	 1.9720450588	 0.170936
O	-2.9152129957	-3.97960264	 3.0785835089	-0.243654
H	 0.896550361	 1.6196928939	-0.1443125113	 0.130669
H	-0.8495589709	 1.8349298595	 0.1501760856	 0.109938
H	 0.1310430864	 0.8629186452	 1.2798237427	 0.112913
H	-2.2784410073	-0.1051643731	-0.2482590046	 0.079994
H	-2.411827285	-2.4778183793	-1.1194023129	 0.112013
H	-0.5916223987	-2.5047858433	-1.2554276772	 0.127256
H	 0.8510676689	-1.8795948421	 0.7522200721	 0.134075
H	 0.1398497912	-1.6646427173	 2.3604736116	 0.118464
H	 0.12122195	-3.2562498175	 1.5964258485	 0.123433
H	-2.4469246832	-1.5182319572	 2.5899226312	 0.117203
H	-3.4278597368	-1.7183373593	 1.1252840752	 0.113937
H	-2.7500588159	-4.2034276886	 1.0797552304	 0.075384
55.3129	68.9694	114.8316	131.9838	178.0399	210.1915	234.6243	254.9688	312.7997	358.3475	406.8593	467.6438	478.7764	586.4453	714.9974	788.9702	824.2786	877.7908	933.0954	974.4114	996.6369	1025.276	1055.6879	1078.7377	1094.0066	1123.3236	1133.1749	1179.0621	1183.8339	1211.4314	1244.0942	1266.5334	1311.5454	1347.5961	1403.2605	1417.0621	1426.9974	1453.7697	1471.9962	1486.5947	1493.1172	1497.0137	1503.4347	1509.1692	1832.9955	2862.3978	2987.5625	3007.7052	3028.3325	3042.3196	3070.3228	3080.7156	3083.4858	3122.5537	3126.8637	3132.8807	3220.8036
COC1CC1(C)CC=O	CO[C@H]1C[C@]1(C)CC=O	
InChI=1S/C7H12O2/c1-7(3-4-8)5-6(7)9-2/h4,6H,3,5H2,1-2H3	InChI=1S/C7H12O2/c1-7(3-4-8)5-6(7)9-2/h4,6H,3,5H2,1-2H3/t6-,7-/m0/s1
