17
gdb 26083	3.32697	1.2038	0.99737	3.9242	79.18	-0.2226	0.0253	0.2479	1199.0906	0.136224	-380.868082	-380.859575	-380.858631	-380.901938	31.46	
C	 0.0311874222	 1.4252796417	-0.2149114246	-0.377173
C	 0.0142296375	-0.0878987176	 0.0788888287	-0.159302
C	 0.6911682844	-0.3926406484	 1.3390682322	 0.324649
C	 1.2731311656	-0.6025985046	 2.3682296412	-0.438523
N	-1.3519414243	-0.6196570516	 0.0674666494	 0.013338
C	-2.0559043657	-0.9889185501	-1.0608393959	-0.119309
C	-3.3100946983	-1.3179420044	-0.6211577273	-0.098322
N	-3.4016396185	-1.1593669552	 0.7417995114	-0.280297
C	-2.216385818	-0.7366267139	 1.1193484031	 0.015072
H	 1.0613413968	 1.7874489712	-0.259456032	 0.134883
H	-0.4581702458	 1.6232471981	-1.1718838882	 0.131969
H	-0.4986064488	 1.9688498061	 0.5708257101	 0.142374
H	 0.549096243	-0.6047120004	-0.7272818251	 0.130712
H	 1.7846073082	-0.805226339	 3.2771526858	 0.209932
H	-1.5988477986	-0.9870500384	-2.0370461178	 0.122989
H	-4.1473173093	-1.6679614475	-1.2059245962	 0.108208
H	-1.9101703805	-0.514586206	 2.1297067251	 0.138798
38.2579	111.292	153.4487	198.3942	236.6507	327.4073	375.3165	468.7216	539.5769	638.9534	643.7295	676.7753	678.5122	712.2225	724.6122	828.1382	855.7757	868.2388	916.259	991.3236	1048.7893	1088.5933	1098.7329	1124.7259	1146.2287	1254.5355	1263.2952	1310.9767	1330.8101	1387.6664	1405.2345	1420.3588	1487.2948	1493.4547	1522.2035	1543.2902	2244.8669	3034.1012	3051.5549	3132.9687	3138.3878	3245.2012	3264.1485	3272.8343	3501.4492
CC(C#C)N1C=CN=C1	C[C@@H](C#C)n1ccnc1	
InChI=1S/C7H8N2/c1-3-7(2)9-5-4-8-6-9/h1,4-7H,2H3	InChI=1S/C7H8N2/c1-3-7(2)9-5-4-8-6-9/h1,4-7H,2H3/t7-/m0/s1
