17
gdb 43026	2.72105	1.89136	1.38626	4.0294	72.49	-0.2328	-0.0246	0.2083	939.3844	0.137598	-421.767859	-421.761226	-421.760281	-421.798712	27.166	
O	-0.0550290678	 0.0113977367	-0.1335530399	-0.310691
C	-0.0729107038	 1.2042768879	-0.0345460832	 0.370928
C	-1.2897633375	 2.1551562146	 0.0566603104	-0.127754
C	-0.8562346721	 3.3798774223	 0.9750201086	-0.343792
C	 0.2180715633	 3.5180721614	-0.1268533592	 0.279793
C	 1.5272365072	 4.127469917	-0.6530616555	-0.217505
O	 2.0078815453	 2.7680436058	-0.9343925315	-0.307353
C	 1.0561002021	 2.2654664789	 0.0437894203	 0.03177
C	-0.8626777511	 3.061920028	-1.1404226012	-0.255725
H	-2.2692503682	 1.6887164399	 0.1360461896	 0.093513
H	-1.637118174	 4.1446646377	 0.9787021109	 0.114244
H	-0.5167331291	 3.1746073273	 1.9931391164	 0.112229
H	 1.4763596787	 4.7366485701	-1.5596409589	 0.118453
H	 2.1571440195	 4.6153680745	 0.101507727	 0.110688
H	 1.552359483	 2.1700195703	 1.0228349769	 0.094859
H	-0.5362620535	 2.5817240404	-2.0661601867	 0.126174
H	-1.593795962	 3.8471390071	-1.347247914	 0.11017
138.7041	257.8006	288.2336	314.785	465.2636	498.6873	558.6345	575.8338	644.9155	750.553	772.2801	828.7006	876.6862	897.4334	917.6678	940.0049	944.909	989.4787	1007.2077	1043.1473	1060.0412	1072.5934	1129.4459	1133.6165	1148.5127	1202.2263	1215.2028	1226.6107	1252.675	1264.3263	1298.1755	1329.527	1347.2533	1488.7533	1507.5391	1520.0257	1875.4126	2977.7212	3023.0124	3058.3584	3062.345	3097.4918	3121.2246	3124.9708	3150.5246
O=C1C2CC3(COC13)C2	O=C1[C@H]2C[C@]3(CO[C@H]13)C2	
InChI=1S/C7H8O2/c8-5-4-1-7(2-4)3-9-6(5)7/h4,6H,1-3H2	InChI=1S/C7H8O2/c8-5-4-1-7(2-4)3-9-6(5)7/h4,6H,1-3H2/t4-,6-,7+/m1/s1
