16
gdb 69797	2.72052	1.93027	1.35301	3.596	68.32	-0.2468	-0.0267	0.2201	945.9151	0.124207	-437.867897	-437.860462	-437.859518	-437.899571	28.71	
C	-0.056510745	 1.5542907266	 0.0448415556	-0.496865
C	 0.1645872688	 0.0750924451	 0.0229740881	 0.291386
O	-0.7288538099	-0.7600228002	 0.8084583286	-0.281915
C	 0.6721555164	-0.8114283546	 1.0829579285	-0.048783
C	 1.37597464	-1.9768755991	 0.4212462531	-0.05738
C	 0.5679379552	-2.9679982586	-0.3361773256	-0.251101
N	 1.2144528504	-1.8336048514	-1.0353551345	-0.140615
C	 0.4229253651	-0.666031638	-1.2905132561	 0.362006
O	 0.0456154464	-0.3222047705	-2.3762796807	-0.312118
H	 0.8571056903	 2.0842866387	-0.2416879868	 0.136752
H	-0.8371394409	 1.8207750271	-0.6736995264	 0.154472
H	-0.3613275715	 1.8808396254	 1.0416897926	 0.134113
H	 0.9835919759	-0.455945824	 2.0603699118	 0.110788
H	 2.3751543802	-2.2240566817	 0.767277684	 0.109077
H	 0.9919812227	-3.9388053703	-0.5739887151	 0.133723
H	-0.5088516441	-2.9327494443	-0.216831677	 0.15646
133.1892	172.9168	230.6213	248.0828	287.3164	361.396	481.8569	546.4525	581.7833	653.0784	708.4342	782.7925	788.1303	820.6431	861.7391	887.0017	963.5565	994.9617	1035.6763	1053.4961	1072.8176	1085.1807	1109.864	1130.0524	1154.56	1257.19	1286.3357	1306.0874	1373.9402	1404.4894	1448.169	1477.6594	1489.5242	1495.9307	1854.384	3046.6026	3115.5675	3128.2976	3134.2356	3155.9391	3170.3616	3230.1592
CC12OC1C1CN1C2=O	C[C@]12O[C@H]1[C@H]1CN1C2=O	
InChI=1S/C6H7NO2/c1-6-4(9-6)3-2-7(3)5(6)8/h3-4H,2H2,1H3	InChI=1S/C6H7NO2/c1-6-4(9-6)3-2-7(3)5(6)8/h3-4H,2H2,1H3/t3-,4+,6+,7?/m1/s1
