19
gdb 38456	3.68031	1.33415	1.20768	1.2635	74.44	-0.2354	0.0786	0.314	1081.7148	0.160043	-422.99265	-422.98507	-422.984126	-423.025058	29.697	
C	 0.1885003841	 1.6607238575	-0.1245580731	-0.331615
C	 1.6830930634	 1.320340977	-0.0918851663	 0.038775
O	 1.938973179	 0.6447148959	 1.1497050806	-0.250264
C	 1.4133009439	-0.1153393532	 0.0559818016	-0.050409
C	-0.1209334702	 0.1321485923	 0.0527292083	 0.438883
C	-0.9209557601	-0.3712579672	 1.2511871609	-0.290785
C	-1.4510680446	-1.7188704421	 0.7416257103	-0.235705
C	-1.7040714023	-1.4055307117	-0.7374461391	-0.070586
O	-0.7439949707	-0.4099620953	-1.1054296866	-0.319012
H	-0.1630984037	 2.343019036	 0.6537213515	 0.103567
H	-0.1553433912	 1.9916772451	-1.1069116622	 0.121311
H	 2.5164608643	 1.8386566798	-0.5507541152	 0.104509
H	 1.9635955888	-0.9888851014	-0.2763504159	 0.099231
H	-0.3060297781	-0.4358455835	 2.1502924798	 0.124215
H	-1.7509007953	 0.3146041383	 1.4575551291	 0.104118
H	-0.6851734741	-2.4951741259	 0.8434482456	 0.109101
H	-2.349198261	-2.0624452815	 1.2600654375	 0.103983
H	-1.5795437375	-2.2724989179	-1.3946899374	 0.104775
H	-2.7172447548	-1.0060552221	-0.8908701894	 0.095909
60.7407	145.218	193.7688	260.7914	368.8041	401.3154	461.7115	522.9576	625.2435	735.2082	783.1393	842.4256	850.703	866.1746	884.4431	903.3651	927.2411	949.5006	969.7442	989.7003	1005.5272	1028.924	1050.8761	1111.6749	1122.5601	1157.1376	1189.8431	1207.4499	1216.3122	1227.2784	1251.9915	1256.4486	1304.477	1334.2044	1336.1133	1384.6073	1391.1094	1461.6353	1487.31	1498.3619	1531.3626	2996.1015	3041.5327	3049.2788	3063.5968	3067.8052	3108.8159	3123.3316	3130.6722	3176.2168	3195.913
C1C2OC2C11CCCO1	C1[C@H]2O[C@H]2[C@]21CCCO2	
InChI=1S/C7H10O2/c1-2-7(8-3-1)4-5-6(7)9-5/h5-6H,1-4H2	InChI=1S/C7H10O2/c1-2-7(8-3-1)4-5-6(7)9-5/h5-6H,1-4H2/t5-,6-,7-/m1/s1
