19
gdb 128465	3.77391	0.95109	0.9026	3.0367	78.07	-0.2363	0.0251	0.2614	1371.7706	0.159701	-419.216492	-419.207266	-419.206321	-419.251947	32.972	
C	-0.0026168468	 1.4024799841	-0.0766171719	-0.229651
O	-0.0417479589	 0.0202732978	 0.1867115056	-0.246729
C	-1.3249501293	-0.5817361723	 0.0418242619	-0.000576
C	-1.7298396875	-0.7147615396	-1.4349587219	-0.396952
C	-1.2573615121	-1.9160739077	 0.723901345	 0.239098
C	-2.1873151902	-2.4935877402	 1.5634454644	-0.158516
N	-1.6973068236	-3.7113514523	 1.9032534866	-0.18049
N	-0.4979529609	-3.9720882886	 1.3498958737	-0.2256
C	-0.2300290665	-2.8863159237	 0.6316700371	-0.073412
H	 0.9991180454	 1.7496321491	 0.1893260681	 0.127886
H	-0.1826954777	 1.644215308	-1.1343124927	 0.105688
H	-0.7387549459	 1.9528135269	 0.5313526313	 0.100691
H	-2.0754170233	 0.0432875828	 0.5554099798	 0.060431
H	-2.7028989699	-1.2082699996	-1.5140438621	 0.118127
H	-1.8062063941	 0.261580791	-1.9227419829	 0.111841
H	-0.9930842164	-1.3185254285	-1.9728608564	 0.127351
H	-3.1355126	-2.1373856396	 1.935206083	 0.130921
H	-2.1147593207	-4.3972827127	 2.508406331	 0.273096
H	 0.6965421384	-2.8179494149	 0.0821331604	 0.116797
23.1107	72.227	125.3606	171.6481	207.0128	252.5612	323.3415	363.7794	412.8665	499.52	506.437	672.7545	705.6054	720.088	792.1589	860.8509	896.0433	953.0523	982.7453	1022.7852	1059.6366	1077.6662	1106.5492	1143.4757	1171.9418	1182.1351	1217.02	1245.023	1287.5893	1358.0034	1375.5971	1392.3972	1398.859	1428.8746	1475.6976	1481.6545	1488.6453	1494.2529	1502.1526	1512.6082	1616.7591	2951.1306	2972.2293	3021.0174	3041.3855	3109.0806	3113.2719	3121.3886	3255.1356	3256.6245	3679.0827
COC(C)C1=CNN=C1	CO[C@@H](C)c1c[nH]nc1	
InChI=1S/C6H10N2O/c1-5(9-2)6-3-7-8-4-6/h3-5H,1-2H3,(H,7,8)	InChI=1S/C6H10N2O/c1-5(9-2)6-3-7-8-4-6/h3-5H,1-2H3,(H,7,8)/t5-/m0/s1
