19
gdb 69283	3.82045	1.11519	0.98446	0.9015	91.32	-0.2184	-0.0167	0.2017	1256.7996	0.158639	-348.73261	-348.724153	-348.723209	-348.765186	33.48	
C	-0.0342724431	 1.5048872971	 0.0444232349	-0.483702
C	 0.0550773997	-0.0020078113	 0.0040419921	 0.346988
C	-0.791901874	-0.8255255226	 0.9420630621	-0.320639
C	 0.7158114236	-0.8122554617	 1.109696857	-0.192935
C	 1.4338979983	-1.9372017959	 0.4226542608	 0.215138
C	 1.2497827681	-1.878657656	-0.9089810205	-0.194363
C	 0.4434127335	-0.671952347	-1.3209883982	-0.323181
C	 2.1680470718	-2.9181175722	 1.1325287407	 0.209708
C	 2.791153677	-3.7253271002	 1.7750899782	-0.427915
H	 0.8981088006	 1.9678904928	-0.2989723277	 0.117326
H	-0.8432524164	 1.8719252869	-0.5986428585	 0.117971
H	-0.2321074243	 1.8646498708	 1.0590529584	 0.115818
H	-1.3781876687	-0.2808186565	 1.6756509746	 0.108073
H	-1.2513963944	-1.7420756567	 0.5850308697	 0.111424
H	 1.1513183857	-0.3573432367	 1.9922329902	 0.090156
H	 1.6213897608	-2.6123513058	-1.6139865513	 0.099029
H	-0.4327123554	-0.9449163975	-1.9242382408	 0.112743
H	 1.0421737855	 0.0064790083	-1.9465952673	 0.108688
H	 3.3398612916	-4.4462628659	 2.3284256856	 0.189673
110.1584	141.72	208.2696	222.5908	299.0665	355.6083	371.5661	417.1257	505.5565	527.1901	581.3798	612.8759	633.1538	651.3778	747.4038	812.4038	833.1116	859.544	918.0583	944.2846	965.6551	984.0092	1016.5701	1049.1402	1068.7828	1096.4825	1105.7534	1169.2882	1185.2632	1243.2022	1257.5887	1320.4111	1331.1533	1397.8113	1421.322	1469.9635	1485.2285	1491.7066	1502.1909	1654.563	2221.2788	2998.8886	3021.328	3032.6343	3079.4916	3098.5319	3118.6388	3174.7005	3207.1253	3209.2346	3504.0001
CC12CC1C(=CC2)C#C	C[C@]12C[C@H]1C(=CC2)C#C	
InChI=1S/C9H10/c1-3-7-4-5-9(2)6-8(7)9/h1,4,8H,5-6H2,2H3	InChI=1S/C9H10/c1-3-7-4-5-9(2)6-8(7)9/h1,4,8H,5-6H2,2H3/t8-,9-/m0/s1
