19
gdb 125947	2.86832	1.59092	1.07595	2.6894	81.33	-0.22	0.0275	0.2474	1124.5907	0.163316	-382.105046	-382.097392	-382.096448	-382.137141	29.914	
C	-0.0558331031	 1.58935887	-0.0049055483	-0.399291
C	 0.0173602197	 0.0594624669	 0.0450020772	-0.116327
C	 0.7551236504	-0.5757188945	-1.1840565148	-0.204289
C	 1.5309056257	-1.838471497	-0.6838067776	-0.362499
C	 1.6623703239	-1.5552999099	 0.7868791646	 0.204135
C	 0.8331116457	-0.525859008	 1.1593877209	 0.376595
N	 0.9706341636	-0.3667565532	 2.4940144834	-0.338926
N	 1.8660045538	-1.2403058677	 3.0210834139	-0.229641
C	 2.2821017402	-1.9702137595	 1.9829591416	-0.163885
H	 0.9473717439	 2.0271626689	-0.0345982685	 0.122817
H	-0.5984083608	 1.9219661593	-0.8957252079	 0.119489
H	-0.5774191243	 1.9966871471	 0.8681728352	 0.108999
H	-1.009948162	-0.3310981061	 0.0971336489	 0.08814
H	 0.0657627145	-0.8001678207	-2.0026787585	 0.098344
H	 1.4766739186	 0.1571479822	-1.5622122205	 0.107181
H	 0.9567757508	-2.7557304728	-0.869492819	 0.108083
H	 2.4850791818	-1.9564626724	-1.2074927371	 0.107915
H	 0.5341842825	 0.3007301681	 3.1062333312	 0.267503
H	 3.0103667849	-2.7504496108	 2.1511274853	 0.105656
104.6831	155.3251	226.0937	244.3494	279.6862	422.3994	467.2491	502.7761	554.4952	641.539	682.2635	709.4429	732.5317	821.7149	882.01	902.1326	949.2648	972.7846	981.8159	1026.989	1094.342	1100.465	1108.922	1132.2787	1190.8493	1218.4204	1234.6361	1292.1563	1300.1603	1317.4628	1333.5122	1358.8345	1403.3276	1409.5572	1444.4121	1484.9331	1495.7552	1499.3725	1505.4944	1539.9384	1606.1238	2986.046	3017.8073	3029.185	3043.042	3066.354	3094.2342	3097.61	3106.2599	3240.0309	3676.4001
CC1CCC2=C1NN=C2	C[C@H]1CCc2c1[nH]nc2	
InChI=1S/C7H10N2/c1-5-2-3-6-4-8-9-7(5)6/h4-5H,2-3H2,1H3,(H,8,9)	InChI=1S/C7H10N2/c1-5-2-3-6-4-8-9-7(5)6/h4-5H,2-3H2,1H3,(H,8,9)/t5-/m0/s1
