17
gdb 29964	4.66197	0.8654	0.81284	5.6896	80.59	-0.2182	0.0253	0.2436	1425.1533	0.136951	-380.922359	-380.913584	-380.912639	-380.957358	31.166	
C	-0.0613969122	 1.470669803	-0.0025236243	-0.336738
N	-0.0402807607	 0.0222438344	-0.0014497916	 0.022447
C	 0.0775175721	-0.7742703771	-1.113134889	-0.076437
C	 0.1590066971	-2.0838523514	-0.7042742128	-0.266195
C	 0.0922934925	-2.0846390727	 0.7179618822	 0.268714
C	 0.1148059431	-3.2830730417	 1.6302948597	-0.456075
C	 1.386816966	-4.0147772545	 1.5970878239	 0.265855
N	 2.3861985662	-4.5940308216	 1.5649663802	-0.31575
C	-0.0248733019	-0.7712596562	 1.1165369175	-0.191615
H	 0.9474529691	 1.8917690472	 0.0749885728	 0.144196
H	-0.5201408585	 1.8285143744	-0.9269413958	 0.143827
H	-0.6572135508	 1.8317197469	 0.8391620655	 0.142787
H	 0.0931154831	-0.3382245847	-2.0995611761	 0.120999
H	 0.248576723	-2.9466180697	-1.3466578935	 0.107607
H	-0.0718200265	-2.9746861377	 2.6647150244	 0.150703
H	-0.6820446537	-3.991959874	 1.3717565797	 0.155736
H	-0.0990388179	-0.3394016944	 2.1026222269	 0.119942
26.8167	73.9346	99.3143	176.2607	249.4818	297.1063	379.991	397.1129	465.9568	617.3498	623.6494	680.8041	694.5854	744.8544	781.9621	816.9196	919.8245	930.7895	996.8004	1017.6404	1082.8786	1109.8577	1148.8467	1187.3796	1207.0659	1284.43	1321.9648	1381.9969	1404.3111	1427.5291	1455.762	1458.3231	1488.7817	1514.3409	1549.2278	1601.1395	2360.4968	3029.9479	3033.8294	3076.0002	3103.1024	3133.805	3244.9423	3251.5953	3265.8863
CN1C=CC(CC#N)=C1	Cn1ccc(CC#N)c1	
InChI=1S/C7H8N2/c1-9-5-3-7(6-9)2-4-8/h3,5-6H,2H2,1H3	InChI=1S/C7H8N2/c1-9-5-3-7(6-9)2-4-8/h3,5-6H,2H2,1H3
