23
gdb 114656	3.19737	1.09046	0.99928	1.3571	85.4	-0.2604	0.0795	0.34	1317.3559	0.207498	-388.277391	-388.268587	-388.267643	-388.310609	34.768	
C	-0.1133571552	 1.574148376	-0.0334592761	-0.434891
C	 0.0073934777	 0.0543559163	-0.0368095842	 0.057933
C	 1.1457257383	-0.5910627296	-0.8912888224	-0.019464
C	 2.0951417575	-0.3069712229	 0.308517541	-0.24036
C	 0.8105375315	-0.6115374254	 1.1329966228	-0.047254
C	 0.6375748013	-2.1217055312	 0.8492935753	 0.05344
C	-0.676515214	-2.733973869	 1.3079245835	-0.112741
O	-0.6657165821	-4.1059938593	 0.9308977332	-0.422351
C	 0.8518020263	-2.0936493308	-0.706352448	-0.228273
H	 0.8359986851	 2.0839553686	 0.1514687608	 0.116807
H	-0.4961060746	 1.9312933777	-0.9961534362	 0.113382
H	-0.8172121259	 1.9024380451	 0.7397629508	 0.112116
H	-0.9866251949	-0.3697177201	-0.2194820536	 0.055267
H	 1.3701795845	-0.2429423744	-1.9012451273	 0.051061
H	 2.9534005373	-0.9719409141	 0.4472796691	 0.085804
H	 2.4239630146	 0.7298826309	 0.3744464819	 0.095506
H	 0.6977160201	-0.2801515891	 2.1676581711	 0.049581
H	 1.4384148883	-2.6895519387	 1.3359656154	 0.073835
H	-0.7721864267	-2.6258574837	 2.4011752536	 0.080175
H	-1.5305788395	-2.2096866955	 0.8518569711	 0.083076
H	-1.5120647056	-4.4913312336	 1.1750569891	 0.284749
H	-0.0417596666	-2.4181166173	-1.2480868159	 0.097912
H	 1.6819297525	-2.7297935399	-1.0244862352	 0.094687
90.9264	143.7919	191.2552	220.5372	266.5811	279.1945	289.7482	384.1588	444.981	481.2706	541.7441	654.1481	779.1971	821.5246	831.2927	840.2738	874.3534	928.2015	943.892	970.1211	997.7372	1010.9637	1029.8784	1053.4019	1074.3475	1082.338	1094.6967	1108.0229	1119.2546	1144.9862	1187.8385	1216.9033	1236.9672	1245.4315	1254.6637	1262.0672	1272.6105	1287.1441	1312.176	1318.7718	1377.1948	1397.6079	1415.8491	1461.4875	1492.5812	1497.7042	1502.6107	1518.8279	1523.8735	2960.2554	2990.9022	3028.064	3033.1825	3041.6198	3054.1559	3056.1416	3085.9049	3088.0789	3095.8104	3099.3263	3107.4232	3134.7525	3830.4358
CC1C2CC1C(CO)C2	C[C@H]1[C@H]2C[C@@H]1[C@@H](CO)C2	
InChI=1S/C8H14O/c1-5-6-2-7(4-9)8(5)3-6/h5-9H,2-4H2,1H3	InChI=1S/C8H14O/c1-5-6-2-7(4-9)8(5)3-6/h5-9H,2-4H2,1H3/t5-,6+,7+,8-/m0/s1
