18
gdb 91886	2.43451	1.70199	1.09203	3.4977	72.42	-0.244	0.0005	0.2445	1107.1044	0.148379	-439.097253	-439.089258	-439.088314	-439.129997	30.421	
C	-0.1079560885	 1.5161672369	 0.0718310104	-0.400654
C	-0.0221246642	 0.0078321772	-0.082150355	 0.124528
C	 0.8769616789	-0.4415484266	-1.2232448978	-0.170583
N	 0.8972940472	-1.9100822979	-1.3167173186	-0.101478
C	 2.0971176915	-2.5720148441	-0.8193411104	-0.239163
C	 0.837716731	-2.5971518287	-0.0198762724	-0.165239
C	 0.7682135584	-1.8288903858	 1.2704367439	 0.414197
O	 0.9477277639	-2.3352893961	 2.3435434425	-0.330124
O	 0.4872434587	-0.5067335713	 1.1746959359	-0.242503
H	 0.8864894959	 1.946283262	 0.2237655664	 0.131841
H	-0.5506863041	 1.9634891615	-0.822772118	 0.124894
H	-0.7278895471	 1.773932598	 0.9337284518	 0.139358
H	-1.0262997026	-0.4112449821	-0.2312579852	 0.102546
H	 0.5008608403	-0.0412663944	-2.1707243652	 0.119048
H	 1.8820563373	-0.0267278407	-1.0629106543	 0.10777
H	 2.405377235	-3.4655656606	-1.3540325157	 0.129622
H	 2.913485951	-1.9510183103	-0.4550294293	 0.127301
H	 0.2530342873	-3.5122761271	 0.001622841	 0.128638
73.2169	138.3611	216.3922	220.9034	277.8585	413.0383	432.5014	446.0119	452.0069	531.8075	649.4925	726.7791	755.7765	835.4303	897.7882	908.67	942.1948	962.1575	1018.8471	1042.0149	1080.2008	1107.4703	1117.1297	1139.3125	1158.9194	1182.4136	1245.8137	1261.6324	1303.7465	1332.3519	1374.2921	1385.3984	1405.0842	1414.4592	1483.5409	1490.5908	1499.492	1515.79	1848.6962	3004.1328	3022.9579	3047.7156	3069.2594	3100.6946	3121.9605	3131.0353	3153.2317	3192.1451
CC1CN2CC2C(=O)O1	C[C@H]1CN2C[C@H]2C(=O)O1	
InChI=1S/C6H9NO2/c1-4-2-7-3-5(7)6(8)9-4/h4-5H,2-3H2,1H3	InChI=1S/C6H9NO2/c1-4-2-7-3-5(7)6(8)9-4/h4-5H,2-3H2,1H3/t4-,5-,7?/m0/s1
