25
gdb 92080	2.38419	1.43659	1.16734	0.2609	91.12	-0.2572	0.0733	0.3305	1225.9024	0.231083	-352.365759	-352.356644	-352.3557	-352.398847	36.746	
C	-0.3043925065	 1.6189232638	 0.032879647	-0.402938
C	-0.0313808296	 0.1050284677	-0.0050024456	 0.02788
C	 0.5659798546	-0.3871571049	-1.347905908	-0.246586
C	 2.0800022107	-0.3123639353	-1.4787964607	 0.001507
C	 2.8734771084	 0.9595828472	-1.3240614131	-0.294166
C	 2.9458169871	-0.1042310691	-0.251988063	-0.032975
C	 2.2749149329	 0.1135220876	 1.1038041186	-0.220276
C	 0.8302565095	-0.4188330807	 1.1680749401	 0.045853
C	 0.2045692194	-0.1557669643	 2.5420779588	-0.413908
H	 0.6077066935	 2.2209827902	 0.0558129145	 0.119145
H	-0.8746331556	 1.9230588147	-0.850975257	 0.110165
H	-0.8953146453	 1.8921625871	 0.9124077813	 0.112289
H	-1.0131465622	-0.3800001357	 0.0832855014	 0.066027
H	 0.2874854491	-1.4432758724	-1.459337591	 0.092609
H	 0.085860485	 0.1396825855	-2.1831210391	 0.089054
H	 2.475079472	-1.0025538689	-2.2197683975	 0.076449
H	 3.7353818366	 1.1000497952	-1.9682158747	 0.102139
H	 2.3492040054	 1.879665532	-1.0917608143	 0.109241
H	 3.8702716612	-0.6723957476	-0.2168242269	 0.076957
H	 2.8632291191	-0.3884838528	 1.8800965713	 0.092373
H	 2.2848756847	 1.1780484606	 1.3715897884	 0.094891
H	 0.8869324205	-1.5095674489	 1.0347392431	 0.06504
H	 0.1768668099	 0.9139891175	 2.7756313005	 0.114643
H	-0.8221462854	-0.5350476956	 2.5929038188	 0.106504
H	 0.7807170652	-0.6470283927	 3.3337067172	 0.108083
113.6446	139.222	216.1034	229.3688	251.4661	283.4159	316.7463	360.1496	374.8276	439.8582	497.6252	540.7451	676.0699	720.0873	776.904	807.967	846.8545	858.4726	884.8357	919.1109	952.6815	972.2581	1000.7993	1022.7717	1039.9453	1056.0781	1080.2364	1102.9604	1122.8304	1135.1474	1143.4096	1163.8784	1180.9017	1241.5075	1245.9977	1277.2339	1302.4619	1319.6012	1356.2768	1367.3683	1378.3822	1390.661	1393.5472	1407.3016	1413.4822	1425.0843	1482.333	1483.7834	1494.3862	1496.0313	1504.5378	1507.5413	1512.4256	2985.4432	2997.159	3013.9063	3021.535	3026.0996	3039.051	3041.0449	3057.8055	3091.2809	3092.1322	3100.8832	3116.5527	3128.7753	3132.4694	3147.4471	3214.8729
CC1CC2CC2CC1C	C[C@H]1C[C@H]2C[C@H]2C[C@H]1C	
InChI=1S/C9H16/c1-6-3-8-5-9(8)4-7(6)2/h6-9H,3-5H2,1-2H3	InChI=1S/C9H16/c1-6-3-8-5-9(8)4-7(6)2/h6-9H,3-5H2,1-2H3/t6-,7+,8-,9+
