22
gdb 57552	3.68492	0.70613	0.68795	4.3988	84.07	-0.2821	0.01	0.2921	1738.3913	0.19078	-404.360603	-404.349578	-404.348634	-404.397269	39.326	
C	 0.0073410015	 1.5522508845	 0.011867419	-0.401001
C	 0.0371073857	 0.0132763476	 0.0090682791	 0.228998
C	 0.7797608355	-0.5024030724	 1.2548389239	-0.401004
C	-1.3991554347	-0.5384240211	-0.0103576445	-0.41275
C	 0.7441485941	-0.4874216129	-1.2579424841	-0.051674
O	 2.0792527737	-0.0003128016	-1.2832638056	-0.245624
C	 2.7856480254	-0.421673155	-2.4187702588	-0.181879
C	 4.1484935641	 0.1180542554	-2.3698263375	 0.262025
N	 5.2272702246	 0.5287695344	-2.3583628319	-0.292035
H	 1.0191241153	 1.9638266731	-0.0151523148	 0.133211
H	-0.5390635347	 1.9383871367	-0.8561370076	 0.105153
H	-0.4912621598	 1.9251925167	 0.9123704355	 0.110909
H	 0.2887049637	-0.1505691942	 2.1678959175	 0.110911
H	 0.7906805984	-1.5979359042	 1.2828998212	 0.105159
H	 1.8151612616	-0.1536390366	 1.2662356437	 0.133207
H	-1.9512931208	-0.1903901624	-0.8905240743	 0.111187
H	-1.4085830696	-1.6341154871	-0.0164860342	 0.111191
H	-1.9470303427	-0.206954754	 0.8773139713	 0.118321
H	 0.7512278572	-1.5902365569	-1.2795222114	 0.08893
H	 0.2059075517	-0.1412521306	-2.1563772305	 0.088907
H	 2.8465934656	-1.5213362948	-2.4769686334	 0.138919
H	 2.3056432344	-0.0763382345	-3.3497402426	 0.138936
41.7419	80.8286	92.3587	138.1951	207.7016	215.2621	256.5328	262.9198	296.9542	334.0312	339.4404	385.5303	416.6821	422.5358	486.6876	596.7382	757.7931	914.6196	928.9908	942.5604	958.9796	964.7816	967.5768	1014.8591	1034.344	1072.1326	1088.029	1152.5346	1227.766	1243.8157	1253.8671	1283.2594	1313.1887	1380.0146	1399.7326	1400.6724	1421.2696	1450.6582	1478.7924	1486.3066	1489.4325	1491.5624	1500.9854	1505.9824	1520.5643	1523.8091	2374.0709	2952.9163	2967.8526	2986.3977	2991.9011	3025.5973	3030.4165	3036.5335	3090.9164	3095.3935	3096.4734	3103.3921	3122.095	3125.8962
CC(C)(C)COCC#N	CC(C)(C)COCC#N	
InChI=1S/C7H13NO/c1-7(2,3)6-9-5-4-8/h5-6H2,1-3H3	InChI=1S/C7H13NO/c1-7(2,3)6-9-5-4-8/h5-6H2,1-3H3
