20
gdb 14158	3.26544	2.24262	1.82129	0.1861	78.73	-0.2209	0.0163	0.2372	837.9975	0.177812	-311.836593	-311.829253	-311.828309	-311.867371	30.371	
C	-0.1411894907	 1.5157428939	 0.0047767269	-0.457384
C	-0.0269645802	-0.0146973156	 0.0084476379	 0.362221
C	-1.4346700849	-0.5757959772	-0.2022577728	-0.456139
C	 1.1738554622	-0.6121701661	-0.8534274799	-0.100901
C	 2.1181275738	-0.1777071811	 0.3208777044	-0.222583
C	 0.8781280471	-0.6293616627	 1.1680982128	-0.100877
C	 0.8657183686	-2.1173160092	 0.7968311205	-0.087666
C	 1.0592292761	-2.1060647045	-0.526097243	-0.087648
H	 0.8024002307	 2.0426914724	 0.1464644868	 0.113787
H	-0.5698028208	 1.8570289486	-0.9447847876	 0.113493
H	-0.823377109	 1.8422855015	 0.7984069638	 0.113502
H	-1.8493862606	-0.2147967885	-1.1508617884	 0.107018
H	-1.4577575725	-1.6653218398	-0.2143429487	 0.116631
H	-2.1048808368	-0.228707297	 0.5930430198	 0.107008
H	 1.3463987206	-0.3120808224	-1.8880317042	 0.052148
H	 3.0258519373	-0.7699668976	 0.4486267286	 0.091491
H	 2.3543196395	 0.8857631536	 0.3644894923	 0.093467
H	 0.7463673425	-0.3469497585	 2.2136192361	 0.052146
H	 0.714075112	-2.947829174	 1.4715342939	 0.095143
H	 1.1092022052	-2.9248566558	-1.2296989892	 0.095143
163.1951	200.4726	226.2351	318.1396	356.3008	411.6952	509.4968	525.6011	555.7157	609.0659	723.1421	730.7179	818.0429	828.828	863.4307	902.809	914.7138	926.7661	945.8201	956.4674	981.5887	1015.4571	1035.434	1083.2371	1109.2704	1125.9035	1168.0248	1182.9187	1215.9055	1218.2908	1240.8443	1261.5263	1278.6318	1322.3793	1400.0768	1420.1319	1479.5605	1486.6984	1496.7759	1513.9593	1519.5881	1619.5932	3025.6015	3033.2465	3076.9945	3077.5129	3084.4853	3102.8526	3106.8171	3128.831	3142.458	3147.6402	3217.213	3244.4304
CC1(C)C2CC1C=C2	CC1(C)[C@H]2C[C@@H]1C=C2	
InChI=1S/C8H12/c1-8(2)6-3-4-7(8)5-6/h3-4,6-7H,5H2,1-2H3	InChI=1S/C8H12/c1-8(2)6-3-4-7(8)5-6/h3-4,6-7H,5H2,1-2H3/t6-,7+
