17
gdb 55205	2.76851	1.58307	1.01982	4.2305	77.07	-0.2516	-0.0504	0.2012	1125.1349	0.137065	-418.064708	-418.056584	-418.05564	-418.097665	30.47	
C	 0.0073039254	 1.4736854852	 0.0089842571	-0.433824
C	 0.031274818	-0.0309470886	 0.0030566633	 0.386877
N	 1.158227443	-0.6308358964	-0.008629978	-0.510633
N	-1.2089244454	-0.6983745283	 0.0108527374	-0.169893
C	-1.2848556045	-2.1515771651	 0.0060183334	-0.236521
C	-2.7600502531	-2.4254677437	 0.0178776201	-0.092237
C	-3.442332324	-1.2821451638	 0.0281465281	-0.172085
C	-2.5017692115	-0.1317933467	 0.0236608653	 0.413353
O	-2.7786941287	 1.0457441824	 0.031114838	-0.376197
H	 1.0420081157	 1.8149919042	 0.0017850282	 0.135151
H	-0.5279649364	 1.8662765905	-0.8584273668	 0.147425
H	-0.5136509892	 1.8596488457	 0.8880043048	 0.147459
H	 1.0681042896	-1.6462105198	-0.0117430007	 0.208767
H	-0.7996272696	-2.575396311	-0.8842793323	 0.143111
H	-0.7842152007	-2.5820478765	 0.8845149828	 0.143132
H	-3.1566497522	-3.4321355168	 0.0177414396	 0.131372
H	-4.5120736564	-1.131705701	 0.0382383997	 0.134745
65.0859	127.1221	216.9933	225.9134	248.1714	373.6603	389.411	405.0365	563.8292	578.2063	631.7064	674.5811	709.5354	810.5045	826.938	870.9354	968.2045	976.939	982.414	1025.6902	1026.8127	1078.7155	1093.4362	1140.5657	1200.1921	1214.3542	1241.3165	1355.3342	1364.154	1379.8991	1422.7144	1453.9911	1477.3207	1492.5892	1667.9391	1700.4936	1815.3856	3007.1308	3034.0415	3066.6908	3130.9975	3166.5191	3222.6099	3254.5259	3485.9012
CC(=N)N1CC=CC1=O	C[C]([NH])N1CC=CC1=O	
InChI=1S/C6H8N2O/c1-5(7)8-4-2-3-6(8)9/h2-3,7H,4H2,1H3	InChI=1S/C6H8N2O/c1-5(7)8-4-2-3-6(8)9/h2-3,7H,4H2,1H3
