17
gdb 62905	3.05025	1.4866	1.13698	3.8423	74.03	-0.2598	0.0228	0.2826	1067.9549	0.135622	-417.943537	-417.935357	-417.934413	-417.975844	31.717	
C	-0.0205078817	 1.6360176558	-0.0134347112	-0.476894
C	-0.0275970792	 0.1173845034	 0.0013342814	 0.474811
O	-1.3088863507	-0.3920948842	-0.2349748965	-0.460275
C	 1.1967608371	-0.6439297964	-0.6374776707	-0.123476
N	 1.9983517855	-0.1171657941	 0.53469215	-0.326587
C	 0.7127003469	-0.643761077	 1.1383677988	-0.094097
C	 0.8290795008	-1.9085676969	 0.2114315526	-0.133084
C	-0.265750073	-2.8118261377	-0.1100453079	 0.270718
N	-1.0502356986	-3.6235304551	-0.3609400368	-0.344197
H	 0.9679905926	 2.0343958427	 0.2090017175	 0.155977
H	-0.3289616952	 1.9994630569	-1.001848338	 0.109155
H	-0.7414234303	 2.0137567458	 0.7178848368	 0.130132
H	-1.6656765879	 0.0121254384	-1.0326271697	 0.288987
H	 1.5761666326	-0.6197741372	-1.6601715039	 0.094616
H	 2.7603680459	-0.7673016557	 0.7431519836	 0.218349
H	 0.5174341995	-0.6246678823	 2.2110603467	 0.100153
H	 1.7087676657	-2.5132334862	 0.4530545374	 0.115712
124.7699	159.5702	215.8045	254.665	275.5158	314.8703	404.6777	413.2534	458.3676	536.7652	542.5301	644.8925	671.769	762.4638	827.5074	872.485	893.4209	915.3314	970.9894	1024.3196	1046.4824	1079.5666	1108.1304	1121.7874	1149.1228	1153.8995	1186.2061	1240.2842	1245.0275	1286.6303	1292.9082	1370.6337	1401.2616	1407.2813	1488.5246	1503.647	2350.0991	3031.0728	3065.3753	3096.5347	3109.0353	3118.4539	3166.0713	3411.0053	3818.0518
CC1(O)C2NC1C2C#N	C[C@@]1(O)[C@H]2N[C@@H]1[C@H]2C#N	
InChI=1S/C6H8N2O/c1-6(9)4-3(2-7)5(6)8-4/h3-5,8-9H,1H3	InChI=1S/C6H8N2O/c1-6(9)4-3(2-7)5(6)8-4/h3-5,8-9H,1H3/t3-,4-,5+,6+
