21
gdb 113070	1.99737	1.26476	0.93863	2.4639	74.13	-0.2512	0.0511	0.3023	1334.3629	0.181619	-461.33573	-461.325777	-461.324832	-461.371069	36.319	
C	-0.616375656	 1.4955455653	-0.1003492077	-0.419413
C	-0.2312468295	 0.0209975068	-0.0366415585	-0.092381
C	 0.9540178144	-0.521578158	-0.8797388302	 0.113741
C	 1.9217252372	 0.4377629828	-1.5545693276	-0.070137
O	 3.0967084215	-0.2525899759	-1.9357530441	-0.420848
O	 1.5767262491	-1.1043200387	 0.3010097538	-0.341461
C	 0.5614397322	-0.5352637014	 1.1767318584	 0.113741
C	 1.2101681316	 0.4129575708	 2.1728328559	-0.070137
O	 2.1638109201	-0.285110783	 2.9511256696	-0.420848
H	 0.2297582635	 2.1665421771	 0.065640221	 0.126668
H	-1.045536673	 1.7381712652	-1.0780305741	 0.124246
H	-1.3760866684	 1.7266486893	 0.653532611	 0.124246
H	-1.1258346363	-0.5821172559	-0.2114310038	 0.089738
H	 0.6905146357	-1.313220974	-1.5916983947	 0.087821
H	 1.4780793617	 0.8473812312	-2.4689690077	 0.109412
H	 2.155341777	 1.2805772789	-0.8860881061	 0.084577
H	 3.3986423424	-0.7174992362	-1.1458106803	 0.289613
H	 0.0561506498	-1.335335372	 1.7313371101	 0.08782
H	 1.6715284109	 1.2637130621	 1.6482934459	 0.084577
H	 0.4598890118	 0.8118838708	 2.864696045	 0.109412
H	 2.7366308943	-0.7405784651	 2.322046814	 0.289613
53.1525	106.5378	113.6741	162.2907	185.9912	205.1095	250.5516	319.9047	414.6261	451.7057	457.2686	485.8176	495.9619	517.4408	737.2676	815.3785	851.2048	909.426	946.5141	998.3128	1000.4368	1024.0791	1057.2503	1081.9893	1084.6409	1151.2351	1152.4196	1175.0517	1208.5041	1219.1197	1243.7458	1293.8974	1312.258	1335.8832	1350.5127	1383.1122	1387.6534	1410.3298	1419.1405	1431.4831	1440.2605	1490.8319	1499.3449	1504.0533	1504.0842	2982.6386	2988.7526	3030.9627	3032.1947	3039.8499	3069.4297	3070.4028	3074.2088	3099.0249	3120.7558	3785.8321	3788.1831
CC1C(CO)OC1CO	C[C@H]1[C@@H](CO)O[C@H]1CO	
InChI=1S/C6H12O3/c1-4-5(2-7)9-6(4)3-8/h4-8H,2-3H2,1H3	InChI=1S/C6H12O3/c1-4-5(2-7)9-6(4)3-8/h4-8H,2-3H2,1H3/t4-,5+,6-
