16
gdb 127441	2.58595	1.39644	0.9172	4.1257	76.21	-0.2642	-0.0732	0.191	1233.4985	0.12382	-434.107674	-434.098682	-434.097738	-434.142514	30.502	
C	-0.1044737701	 1.4332026627	-0.0034946104	-0.337492
N	-0.02895357	-0.0180972729	 0.0491522846	 0.002411
N	-0.0660069607	-0.731201551	-1.0900287881	-0.283828
C	 0.0217450065	-1.9958784332	-0.6641333761	 0.343142
C	 0.0191137294	-3.153839243	-1.6041673639	-0.48506
N	 0.1118719009	-2.1201623296	 0.6800883047	-0.317732
C	 0.078014835	-0.864085158	 1.1105398892	 0.238696
C	 0.1426049263	-0.4005026103	 2.5061958868	 0.081705
O	 0.2368417085	-1.1291322398	 3.4617047707	-0.238142
H	 0.7884945768	 1.8859071993	 0.4346679672	 0.155813
H	-0.1702493372	 1.7080071352	-1.0551094394	 0.17477
H	-0.9907375621	 1.7970195676	 0.52258704	 0.155838
H	 0.9381276634	-3.737808912	-1.4971441338	 0.146653
H	-0.8184795565	-3.8233432053	-1.3867544901	 0.146656
H	-0.0626565082	-2.8041383318	-2.6344410609	 0.141057
H	 0.0969047178	 0.704538172	 2.6231949495	 0.075513
48.3195	83.4624	120.7949	176.6461	189.1599	198.4433	274.6852	357.4331	398.5971	531.006	644.5293	688.8728	694.4908	722.1142	884.3515	1016.0119	1019.2153	1048.7926	1064.8417	1069.5934	1147.7753	1192.7459	1321.6997	1351.5291	1400.8393	1404.844	1453.9795	1478.0728	1478.81	1483.7575	1489.9322	1500.1283	1513.302	1542.9093	1809.2807	2888.244	3051.1797	3056.1941	3109.5126	3123.6491	3147.5773	3173.2835
CN1N=C(C)N=C1C=O	Cn1nc(C)nc1C=O	
InChI=1S/C5H7N3O/c1-4-6-5(3-9)8(2)7-4/h3H,1-2H3	InChI=1S/C5H7N3O/c1-4-6-5(3-9)8(2)7-4/h3H,1-2H3
