25
gdb 101005	2.33282	1.24699	1.01191	1.1022	89.12	-0.2482	0.0808	0.3289	1356.5144	0.227175	-389.479384	-389.468749	-389.467805	-389.514807	39.867	
C	-0.350892202	 1.6161752751	-0.1477610528	-0.235012
O	-0.1626121906	 0.236506338	 0.0500483984	-0.249225
C	-1.3446678789	-0.5563833903	-0.0463404035	 0.068211
C	-1.7206145934	-0.7849316429	-1.5149485396	-0.410241
C	-1.0862853461	-1.8581013233	 0.7269706831	 0.354586
C	-2.323759384	-2.7594678339	 0.7351901544	-0.46471
C	 0.2149449406	-2.640321081	 0.3480096312	-0.251091
C	 0.5429292323	-2.7843149701	 1.8578667096	-0.212663
C	-0.5029583103	-1.6802451081	 2.1669595375	-0.262556
H	 0.6113082439	 2.1018919125	 0.0352980675	 0.12494
H	-0.6717330149	 1.8616097314	-1.1709923205	 0.104982
H	-1.0942563173	 2.0302548471	 0.5519168286	 0.102299
H	-2.1681773517	-0.019459032	 0.4580024666	 0.057115
H	-0.959171668	-1.3925086119	-2.0140683925	 0.125102
H	-2.6846047115	-1.2923248596	-1.6048398746	 0.118653
H	-1.8014575452	 0.1644434838	-2.0516379	 0.113749
H	-2.5764883621	-3.1235236803	-0.2655623636	 0.114129
H	-2.1543014789	-3.6373559758	 1.3670168502	 0.114492
H	-3.1976400236	-2.2310611599	 1.1355695956	 0.108407
H	 0.0849833787	-3.5608386591	-0.2284017844	 0.083902
H	 0.9306738274	-1.9955129875	-0.1655925336	 0.113171
H	 0.2557126791	-3.7604629554	 2.2578256132	 0.096392
H	 1.5736114679	-2.5838104091	 2.1589111873	 0.094608
H	-0.0387991502	-0.7008135868	 2.2889035094	 0.108503
H	-1.1936160714	-1.8587979008	 2.9963973125	 0.082256
74.8931	77.7915	124.6479	175.9351	197.9012	217.7126	247.4124	275.7424	327.6627	347.0614	366.9459	396.9065	462.1672	512.5479	660.2705	719.2846	796.4375	846.3685	871.2804	907.6306	924.5185	934.2772	946.4834	993.9378	1006.4784	1037.5181	1093.8866	1117.5795	1146.0116	1176.529	1184.7209	1192.1168	1213.4235	1221.6254	1248.0384	1263.939	1276.0164	1282.7775	1314.63	1358.3675	1379.5249	1402.8975	1411.5512	1470.6403	1476.2941	1481.0665	1484.9424	1491.4366	1495.1019	1497.6046	1506.126	1509.5608	1514.1162	2937.7333	2973.8129	3020.538	3023.5923	3044.7581	3054.0274	3054.1005	3065.1009	3088.7097	3098.7817	3100.731	3106.2737	3112.9418	3121.3494	3122.7836	3132.584
COC(C)C1(C)CCC1	CO[C@@H](C)C1(C)CCC1	
InChI=1S/C8H16O/c1-7(9-3)8(2)5-4-6-8/h7H,4-6H2,1-3H3	InChI=1S/C8H16O/c1-7(9-3)8(2)5-4-6-8/h7H,4-6H2,1-3H3/t7-/m0/s1
