16
gdb 23079	4.87326	1.0587	0.90467	1.0703	78.42	-0.2257	-0.038	0.1878	1229.9302	0.124648	-437.809254	-437.801707	-437.800763	-437.841383	28.982	
O	-0.1554675719	 1.3610902059	-0.0200070952	-0.39383
N	 0.0115448375	-0.0353739172	-0.0295425879	-0.230441
C	-1.1145121367	-0.6366840408	-0.0103303504	 0.376671
C	-1.2062558437	-2.1705693737	-0.0014027672	-0.337934
C	-2.6670564907	-2.3912229031	-0.4276511999	 0.097537
O	-3.6631823046	-3.0310244447	 0.4464149261	-0.303791
C	-4.5244630262	-1.8496317279	 0.3684755611	-0.151134
C	-3.3317139413	-1.0871833724	-0.1447099287	 0.184594
C	-2.4826374702	-0.0906254537	 0.119812492	-0.277664
H	 0.7552339277	 1.6731297657	-0.0019994625	 0.307138
H	-0.4619803749	-2.6471051647	-0.6414200541	 0.122097
H	-1.0703730442	-2.5376292894	 1.0222568947	 0.141541
H	-2.7618164498	-2.8003679771	-1.4412396792	 0.092728
H	-5.3454008804	-2.0058835254	-0.343054124	 0.115826
H	-4.9271596728	-1.5517704936	 1.3415725981	 0.129117
H	-2.6882018078	 0.9012654121	 0.4958563371	 0.127544
86.2067	195.377	217.0765	271.5247	321.2594	369.4329	397.7575	493.7355	585.4546	632.2983	678.1297	755.5153	833.4991	857.9704	878.8732	906.1054	954.6436	977.4504	987.5349	1014.8129	1054.6238	1106.1255	1138.0822	1168.6172	1187.4479	1238.1829	1251.3125	1298.4728	1334.248	1349.152	1400.1126	1465.4969	1506.2871	1699.3605	1732.1987	3017.2794	3026.0595	3053.5526	3084.0895	3124.4288	3242.0332	3822.4711
ON=C1CC2OCC2=C1	ON=C1C[C@H]2OC[C]2[CH]1	
InChI=1S/C6H7NO2/c8-7-5-1-4-3-9-6(4)2-5/h1,6,8H,2-3H2	InChI=1S/C6H7NO2/c8-7-5-1-4-3-9-6(4)2-5/h1,6,8H,2-3H2/t6-/m1/s1
