14
gdb 28529	3.16647	1.45354	0.99712	2.5871	71.04	-0.1964	-0.027	0.1695	1096.0323	0.10286	-470.073027	-470.065495	-470.064551	-470.104695	29.598	
N	 0.0275848406	 1.36135508	-0.1172471794	-0.572765
C	-0.0027824771	-0.0252656283	-0.0611782041	 0.339007
C	-1.1890968439	-0.7563171932	-0.0286265253	-0.104219
N	-1.1756754314	-2.0964228477	-0.0341886748	-0.318836
C	-0.0177293278	-2.7149016376	-0.0752457546	 0.329864
O	 0.0325967003	-4.06753031	-0.0838829759	-0.417379
C	 1.1849571302	-1.9758299084	-0.106256455	 0.345136
O	 2.3595857212	-2.6316795665	-0.1413350651	-0.405532
N	 1.1834471319	-0.6593515108	-0.0945298948	-0.396242
H	 0.9132765948	 1.7525725194	 0.169144534	 0.252924
H	-0.7626088632	 1.8301523338	 0.2994197146	 0.251913
H	-2.1579668498	-0.2676613563	-0.0002431697	 0.100704
H	-0.8865882055	-4.3660580582	-0.0584746499	 0.297014
H	 3.0472962296	-1.9515413563	-0.16212091	 0.29841
125.7368	241.7919	300.2286	311.5817	341.1926	390.5546	451.4374	488.9443	508.4365	537.3418	551.5685	585.5662	608.6263	696.4863	740.8881	795.4042	817.858	864.5004	1019.8203	1090.9308	1166.1581	1197.8071	1298.6173	1330.6622	1367.3429	1407.5511	1498.7629	1531.8565	1615.9698	1637.3694	1667.9692	3171.5136	3570.1559	3677.8567	3765.9889	3776.0284
NC1=CN=C(O)C(O)=N1	Nc1cnc(O)c(O)n1	
InChI=1S/C4H5N3O2/c5-2-1-6-3(8)4(9)7-2/h1H,(H,6,8)(H3,5,7,9)	InChI=1S/C4H5N3O2/c5-2-1-6-3(8)4(9)7-2/h1H,(H,6,8)(H3,5,7,9)
