19
gdb 61473	2.57887	0.89753	0.82181	4.4306	80.07	-0.3218	0.0156	0.3374	1483.1292	0.158125	-382.113028	-382.102816	-382.101871	-382.148895	35.908	
C	-1.5592237244	-0.494920417	 0.1586463782	-0.398623
C	-0.1342488609	 0.0896375719	 0.0984606023	-0.154874
C	 0.7028152584	-0.3484919315	 1.3215052768	-0.185346
C	 2.1676820822	 0.1500390551	 1.3190835721	-0.159311
C	 2.3042370181	 1.6858728961	 1.3217365711	-0.398217
C	 2.8649788858	-0.4210615813	 2.4765496329	 0.268654
N	 3.4003714828	-0.8653178947	 3.3993911897	-0.317459
C	 0.5299223845	-0.2935191692	-1.1530703514	 0.28134
N	 1.0672535131	-0.6000527835	-2.1297215128	-0.326777
H	-2.0525139646	-0.1688524561	 1.0784086884	 0.131861
H	-2.155860626	-0.1596824731	-0.6927345996	 0.143019
H	-1.5317119532	-1.5878490222	 0.1494080236	 0.144161
H	-0.2118363261	 1.1833370563	 0.0925618469	 0.134639
H	 0.1978534951	 0.0168948149	 2.222221812	 0.126403
H	 0.7014135439	-1.4417692468	 1.3760409035	 0.136869
H	 2.6623692381	-0.242720917	 0.4216948169	 0.154941
H	 1.7761730999	 2.1236866545	 2.1740226781	 0.135925
H	 3.3549072402	 1.9770262847	 1.3864341421	 0.14781
H	 1.896563023	 2.1080081487	 0.4000163893	 0.134984
42.8217	83.9818	118.8618	163.4518	209.9461	215.2	247.8437	262.3096	306.1643	318.088	399.3547	529.3856	556.2231	577.662	600.1587	780.5087	818.0262	894.0419	916.589	962.7718	1014.3173	1045.3121	1099.2667	1120.3448	1138.2113	1162.6737	1241.8378	1295.6807	1332.0005	1337.9691	1367.1986	1381.2632	1413.2642	1418.2353	1481.8431	1493.2619	1494.984	1500.2263	1504.4414	2353.9211	2358.4744	3037.5775	3043.4638	3048.5593	3051.5537	3052.6249	3096.9133	3126.3463	3126.8389	3133.0909	3133.7456
CC(CC(C)C#N)C#N	C[C@@H](C[C@@H](C)C#N)C#N	
InChI=1S/C7H10N2/c1-6(4-8)3-7(2)5-9/h6-7H,3H2,1-2H3	InChI=1S/C7H10N2/c1-6(4-8)3-7(2)5-9/h6-7H,3H2,1-2H3/t6-,7+
