19
gdb 59289	2.67046	1.3793	1.13446	2.1601	76.46	-0.246	-0.0249	0.2211	1151.4451	0.158222	-423.057633	-423.048719	-423.047775	-423.091708	33.554	
C	 0.012536221	 1.0943555312	 1.196507435	-0.42242
C	-0.1239611236	 0.4588583182	-0.1880205062	 0.133271
O	 0.9244606332	-0.4649375076	-0.4489274437	-0.440411
C	-1.5150138841	-0.1959012713	-0.4068316828	-0.165347
C	-1.9024651409	-0.4598780615	-1.8400240481	-0.071425
C	-2.3058988905	-1.7128777005	-2.0528191063	-0.082727
C	-2.2575874827	-2.5496896118	-0.8031318551	-0.363625
C	-1.5976098524	-1.6069149125	 0.2105597778	 0.39769
O	-1.1521793663	-1.9304154129	 1.2843481019	-0.325878
H	 1.0127998502	 1.5210348312	 1.3109274784	 0.121424
H	-0.7230048611	 1.8933116292	 1.338168612	 0.110503
H	-0.1451866025	 0.3440247209	 1.976928569	 0.142177
H	-0.0046657188	 1.2357373097	-0.9531002271	 0.089512
H	 0.9444943007	-1.0837865279	 0.2908857987	 0.289978
H	-2.2675463917	 0.4390587999	 0.085904608	 0.105851
H	-1.8545779342	 0.3152769716	-2.596918269	 0.103057
H	-2.6380067217	-2.1072578066	-3.0059319885	 0.103732
H	-3.252281845	-2.8431994554	-0.4382866825	 0.136267
H	-1.6795405595	-3.4766622638	-0.8945705916	 0.138372
49.8668	74.5826	176.3748	188.6799	263.7666	324.4543	371.926	427.5075	456.9091	464.4533	501.0208	619.521	658.5312	699.7466	770.5896	784.5769	868.8496	930.6353	953.7574	973.0786	980.3868	1030.6705	1050.3451	1091.8318	1102.815	1135.7618	1140.2372	1163.5842	1234.2649	1261.793	1287.5684	1325.923	1356.7973	1380.82	1401.199	1432.1955	1441.6186	1490.9236	1507.3125	1681.476	1830.2282	2990.9663	3016.8961	3034.2101	3038.2095	3063.0136	3109.5529	3125.7813	3185.6095	3210.4937	3790.2314
CC(O)C1C=CCC1=O	C[C@@H](O)[C@H]1C=CCC1=O	
InChI=1S/C7H10O2/c1-5(8)6-3-2-4-7(6)9/h2-3,5-6,8H,4H2,1H3	InChI=1S/C7H10O2/c1-5(8)6-3-2-4-7(6)9/h2-3,5-6,8H,4H2,1H3/t5-,6-/m1/s1
