20
gdb 41660	3.28897	1.87964	1.85835	1.6041	79.55	-0.2327	0.0916	0.3243	869.3972	0.176996	-366.027044	-366.02115	-366.020206	-366.056876	26.273	
C	-0.03740802	 1.5468783298	-0.0030697567	-0.222123
C	 1.4659389571	 1.9688917834	 0.0106526377	-0.214232
C	 2.2037190151	 0.6224391226	-0.0275457477	 0.026963
C	 1.2933134477	-0.3203385696	-0.8503391129	-0.057885
C	 1.7414196004	-1.718784502	-0.4163753068	-0.251292
C	 1.7263865754	-1.438147946	 1.077734783	-0.046534
C	 0.6500422589	-0.4460651667	 1.3415739449	-0.037768
C	 0.0433343951	 0.0072931621	 0.0132632852	-0.027431
N	 2.0797083761	-0.015007926	 1.3188725547	-0.125062
H	-0.5942737578	 1.9370801009	 0.8537557164	 0.098396
H	-0.543826513	 1.901801185	-0.9063449568	 0.093169
H	 1.7215471071	 2.5785857554	-0.8609492159	 0.09426
H	 1.7403771067	 2.5348544011	 0.9042318232	 0.110278
H	 3.2519465357	 0.6761715177	-0.3291154851	 0.062455
H	 1.2091672272	-0.1209358818	-1.9182321971	 0.063798
H	 1.0375676742	-2.5078650058	-0.7012091846	 0.099236
H	 2.7345642914	-1.986292883	-0.7923487385	 0.100003
H	 2.0664504521	-2.1529850662	 1.8172632573	 0.088089
H	 0.1212018944	-0.3595641148	 2.2840188069	 0.084742
H	-0.8790301338	-0.5092902159	-0.2617775373	 0.06094
214.2165	340.0697	361.0076	451.947	586.7206	626.7055	715.9091	761.5891	777.1098	802.2393	849.5123	870.0461	896.1528	904.8519	918.6898	927.336	948.8965	964.6715	971.1677	1002.2	1019.7605	1036.7366	1051.7281	1058.8639	1097.1401	1143.1217	1148.2795	1190.259	1201.1524	1216.5377	1251.3007	1255.5518	1272.0198	1279.6002	1293.6754	1308.9538	1323.1209	1332.3612	1363.6025	1380.6182	1483.1493	1493.3014	1505.3316	3044.5075	3045.0005	3059.304	3083.1328	3086.2218	3089.273	3091.3839	3108.9757	3124.9693	3172.9364	3189.3549
C1CC2C3CC4C(C13)N24	C1C[C@@H]2[C@H]3C[C@@H]4[C@H]([C@@H]13)N24	
InChI=1S/C8H11N/c1-2-6-5-3-7-8(4(1)5)9(6)7/h4-8H,1-3H2	InChI=1S/C8H11N/c1-2-6-5-3-7-8(4(1)5)9(6)7/h4-8H,1-3H2/t4-,5-,6+,7+,8-,9?/m0/s1
