13
gdb 132876	3.06359	1.47345	0.99606	4.221	68.12	-0.2052	-0.0632	0.142	1077.5474	0.089347	-494.046033	-494.038515	-494.03757	-494.078139	28.398	
N	 0.0901715776	 1.4265045974	 0.1022859404	-0.574278
C	-0.0284428977	 0.0446160696	-0.0375787524	 0.273475
C	-1.1890250075	-0.633085389	-0.1314524588	-0.037182
O	-1.2117029178	-1.9888745551	-0.3618927708	-0.222893
C	-0.0520242106	-2.7010231681	-0.4900120174	 0.282224
N	-0.0073256277	-3.949060204	-0.7074515163	-0.522312
C	 1.1579416343	-1.8748024547	-0.3448128769	 0.286517
F	 2.2914090863	-2.5347067649	-0.4358817535	-0.027924
N	 1.1880421072	-0.6227933635	-0.1414535816	-0.330033
H	 0.9523752442	 1.6850693446	 0.5627503631	 0.259975
H	-0.709284535	 1.8815805532	 0.5194030629	 0.250895
H	-2.1829413294	-0.2179114421	-0.0556661851	 0.129561
H	-0.9491814838	-4.3375013535	-0.7744779837	 0.231974
83.8422	215.8132	232.7839	319.5189	333.7973	351.1086	427.263	478.9618	544.4944	582.1133	621.2929	674.9211	696.5193	762.4303	776.7256	835.918	865.8395	1006.6223	1012.6241	1130.3229	1200.091	1233.6886	1341.826	1381.9651	1416.7433	1630.5123	1668.9676	1706.5875	1739.7023	3243.9082	3486.1352	3556.0229	3659.8749
NC1=COC(=N)C(F)=N1	NC1=COC(=C(F)[N]1)[NH]	
InChI=1S/C4H4FN3O/c5-3-4(7)9-1-2(6)8-3/h1,7H,6H2	InChI=1S/C4H4FN3O/c5-3-4(7)9-1-2(6)8-3/h1,7H,6H2
