18
gdb 23065	3.525	1.12696	0.93182	1.5683	77.26	-0.2325	-0.0034	0.2291	1262.6756	0.145524	-439.012882	-439.003959	-439.003015	-439.046854	33.145	
C	 1.3054470628	 0.5815316151	 0.2797755849	-0.494819
C	-0.0771383555	 0.0473799378	 0.0305528819	 0.243843
N	-1.0536290344	 0.1231754812	 0.8575104333	-0.185383
O	-0.668385755	 0.7522856345	 2.047173708	-0.393662
C	-0.3847248844	-0.631198866	-1.2371431499	 0.409551
C	-1.6953060584	-1.2904649999	-1.6863870782	-0.298713
C	-0.8488522878	-2.2811963855	-2.5614171669	-0.241354
C	 0.4153968493	-1.5624626059	-2.0743739685	-0.05542
O	 0.2915886555	-0.1853015096	-2.4304991419	-0.290229
H	 1.9105771014	 0.5188967653	-0.6244305363	 0.139473
H	 1.2491998406	 1.6239653284	 0.6055226404	 0.150895
H	 1.7893730392	 0.0246968894	 1.0891654606	 0.142491
H	-1.4900420966	 0.7573223846	 2.5497404559	 0.308309
H	-2.219191261	-1.7861342105	-0.8688130351	 0.124559
H	-2.3812967574	-0.6245465443	-2.2130342081	 0.112643
H	-0.9173867762	-3.3133538763	-2.2107043327	 0.109341
H	-1.0062270949	-2.2497042966	-3.6419479111	 0.113624
H	 1.4197957331	-1.9488074118	-1.9385804263	 0.104849
67.0012	91.8186	144.4666	168.9597	269.5571	290.9457	377.9868	398.3734	437.624	464.4179	510.4821	579.8469	726.1975	739.6641	772.8266	857.2852	899.4842	925.5562	939.1058	967.1362	1006.8105	1035.8279	1046.677	1061.6183	1106.6047	1147.6526	1208.72	1214.4407	1229.7824	1270.7569	1317.8526	1378.7879	1398.8296	1447.9137	1465.0994	1478.7924	1486.6083	1502.0778	1708.6745	3048.1776	3069.14	3085.844	3106.7523	3123.1132	3149.1241	3156.6784	3179.2167	3817.4988
CC(=NO)C12CCC1O2	CC(=NO)[C@]12CC[C@H]1O2	
InChI=1S/C6H9NO2/c1-4(7-8)6-3-2-5(6)9-6/h5,8H,2-3H2,1H3	InChI=1S/C6H9NO2/c1-4(7-8)6-3-2-5(6)9-6/h5,8H,2-3H2,1H3/t5-,6-/m1/s1
