25
gdb 96331	1.9762	1.44042	0.9128	1.0916	89.07	-0.2404	0.0816	0.3219	1391.4689	0.230139	-389.506891	-389.497242	-389.496298	-389.540829	37.537	
C	 0.0092653408	 1.5895094079	-0.0037472679	-0.401158
C	-0.0197563274	 0.053973176	-0.018511812	 0.032445
C	 0.6880879513	-0.4846455803	-1.2786456936	-0.220842
C	 0.2395197106	-1.8869106847	-1.7230882907	-0.078666
O	-0.1025734346	-2.7764430839	-0.6777987588	-0.245246
C	 0.8348072428	-2.8977663329	 0.3772674188	-0.076717
C	 0.4703109583	-1.9925590717	 1.5627786956	 0.01462
C	 1.2774572191	-2.3871725355	 2.8068948325	-0.403844
C	 0.6311813524	-0.4911393249	 1.2697132344	-0.171185
H	 1.0404437395	 1.9635345957	 0.006171267	 0.110716
H	-0.48483079	 2.0049871395	-0.8882408531	 0.108123
H	-0.4956037115	 1.9892679523	 0.8819353008	 0.109067
H	-1.0697139322	-0.2677565951	-0.0431185544	 0.078961
H	 0.5148344884	 0.1904602621	-2.1259727298	 0.091738
H	 1.7718387262	-0.4668359761	-1.1050365876	 0.094271
H	-0.6737189107	-1.8094916206	-2.323205289	 0.10493
H	 1.0160006326	-2.3310471317	-2.3684688243	 0.083569
H	 0.8024615177	-3.9453479211	 0.7015803679	 0.09698
H	 1.8611667836	-2.7007092446	 0.0287567518	 0.083786
H	-0.5924970532	-2.1874833894	 1.7620797263	 0.080079
H	 2.3533521699	-2.2559019215	 2.6389652625	 0.111947
H	 1.0025423545	-1.7700156168	 3.6681106724	 0.113846
H	 1.1085944398	-3.4346225519	 3.0781800733	 0.111503
H	 1.7044583069	-0.2470801311	 1.2366899617	 0.08428
H	 0.2284995552	 0.0618580404	 2.1282277261	 0.086797
106.1135	134.7974	172.9738	215.2285	229.6562	251.3656	273.4827	353.3171	358.8882	372.1121	432.1317	448.7401	505.3762	598.7829	800.462	825.3661	846.9152	876.592	905.6703	947.1011	965.2977	970.487	995.2104	1033.8782	1058.7758	1066.5405	1097.3631	1145.5464	1156.2913	1184.6431	1193.8774	1246.5342	1274.2596	1280.5234	1299.7098	1327.6696	1332.3034	1340.9499	1374.9354	1389.7325	1394.3527	1400.5015	1410.6894	1418.5869	1424.2345	1476.9546	1487.9893	1496.7902	1500.0389	1500.3403	1501.4272	1503.8451	1511.9274	2961.0155	2979.1099	2988.2174	3011.8765	3013.5281	3019.5647	3024.8318	3027.0143	3038.7408	3043.9977	3047.4446	3069.2647	3088.6888	3090.0066	3098.0392	3100.6136
CC1CCOCC(C)C1	C[C@H]1CCOC[C@@H](C)C1	
InChI=1S/C8H16O/c1-7-3-4-9-6-8(2)5-7/h7-8H,3-6H2,1-2H3	InChI=1S/C8H16O/c1-7-3-4-9-6-8(2)5-7/h7-8H,3-6H2,1-2H3/t7-,8-/m0/s1
