16
gdb 27789	2.02291	1.77109	0.9503	6.1878	78.13	-0.2123	-0.028	0.1842	1185.9553	0.124489	-437.965865	-437.957548	-437.956604	-437.998522	31.713	
C	 0.0625526695	 1.4822823321	-0.0025433959	-0.468263
C	-0.0592257654	-0.007482592	 0.0229197777	 0.413328
C	-1.2193386079	-0.6977868011	-0.0387603827	-0.32098
C	-1.17985765	-2.1338590456	-0.0033080164	 0.397895
N	-2.3666670779	-2.8190011604	-0.0194315866	-0.579894
C	 0.0353702822	-2.7641739585	 0.0891536669	-0.385286
C	 1.2651784459	-2.0398570707	 0.1589262332	 0.421871
O	 2.3881113696	-2.4622417439	 0.2424686321	-0.361677
O	 1.1305782572	-0.6166448857	 0.1164010955	-0.268224
H	 0.6792811092	 1.7973397571	-0.8507616661	 0.151463
H	-0.917975728	 1.9552656344	-0.0792101625	 0.13021
H	 0.560435823	 1.8365069102	 0.9061282421	 0.152426
H	-2.1618928139	-0.1695340667	-0.1036549894	 0.096246
H	-3.1796864952	-2.347016955	-0.379193638	 0.25918
H	-2.3351258955	-3.8079918086	-0.2077822861	 0.262474
H	 0.1177226974	-3.8436942854	 0.116749336	 0.09923
136.8809	156.7204	189.4712	198.6108	282.3249	345.6797	381.3556	451.1797	476.5679	519.8951	563.1512	568.7294	620.3488	699.5268	731.8971	794.4874	815.6366	830.5117	983.0411	1006.1358	1045.9027	1063.6778	1089.0409	1156.0754	1209.5115	1299.7982	1380.5819	1414.4832	1464.6112	1468.7596	1499.5028	1598.0321	1657.1762	1700.2718	1844.1329	3042.1061	3100.0915	3140.1036	3204.5884	3208.7943	3596.9531	3708.2227
CC1=CC(N)=CC(=O)O1	Cc1cc(N)cc(=O)o1	
InChI=1S/C6H7NO2/c1-4-2-5(7)3-6(8)9-4/h2-3H,7H2,1H3	InChI=1S/C6H7NO2/c1-4-2-5(7)3-6(8)9-4/h2-3H,7H2,1H3
