18
gdb 103030	2.35732	1.78134	1.19389	1.7196	78.65	-0.2387	0.0311	0.2698	1064.8482	0.146449	-401.824757	-401.81628	-401.815336	-401.857685	32.468	
C	 0.031951868	 1.387669033	-0.1071145748	-0.259956
O	-0.0288424377	 0.0058117212	 0.2059446595	-0.291841
C	-1.3011795116	-0.5721480799	 0.0820630252	 0.283249
C	-2.2526032247	 0.000305098	 1.0353021058	 0.280574
C	-2.9991906653	 0.508142554	 1.8308039549	-0.45488
C	-1.8658601762	-0.9281816644	-1.3530078461	-0.096141
C	-0.709767536	-1.9483811424	-1.5014599651	-0.228274
C	-1.3056364041	-2.1265569606	-0.0824339398	-0.086011
N	-2.6713934821	-2.0540744713	-0.737933052	-0.329482
H	 1.0707961542	 1.6937442771	 0.0314692901	 0.131335
H	-0.2612711262	 1.578828445	-1.1490920251	 0.110019
H	-0.6112739999	 1.9800753821	 0.5555894087	 0.125143
H	-3.6624050688	 0.9453727266	 2.5363035076	 0.198465
H	-2.2933359134	-0.2541039349	-2.0964451605	 0.085906
H	-0.9207155352	-2.7700120502	-2.1849027295	 0.109097
H	 0.3028857907	-1.5598437327	-1.5723424443	 0.116104
H	-1.0638445938	-2.8667411554	 0.6808512719	 0.090381
H	-3.3498732779	-1.6680492752	-0.0736969464	 0.216313
93.5031	151.0416	158.6216	181.3655	225.9278	343.6113	404.0361	489.8149	511.4065	517.5122	620.7599	630.4124	646.933	673.4415	801.9428	822.8801	881.7902	913.802	958.4119	1016.6611	1019.7586	1055.7653	1089.3225	1094.8479	1155.8192	1165.859	1175.7497	1183.8798	1203.817	1210.661	1232.7876	1260.1	1304.8639	1312.7696	1474.8666	1485.0649	1488.1398	1508.9021	2220.1533	2998.8551	3061.1914	3100.8548	3108.8508	3119.2723	3127.0215	3190.2139	3392.8301	3497.4604
COC1(C#C)C2CC1N2	CO[C@@]1(C#C)[C@H]2C[C@@H]1N2	
InChI=1S/C7H9NO/c1-3-7(9-2)5-4-6(7)8-5/h1,5-6,8H,4H2,2H3	InChI=1S/C7H9NO/c1-3-7(9-2)5-4-6(7)8-5/h1,5-6,8H,4H2,2H3/t5-,6+,7+
