21
gdb 104059	2.85908	1.2531	1.15731	1.5193	77.7	-0.2397	0.0656	0.3053	1185.4021	0.181576	-424.190871	-424.181881	-424.180937	-424.22469	34.559	
C	 0.1078377821	 1.5206178842	 0.1741521667	-0.410556
C	 0.1173486819	-0.0061420317	 0.0355499092	-0.227572
C	 0.7072342872	-0.4909029144	-1.2884402192	 0.410588
O	-0.0071207696	 0.033896364	-2.4007885313	-0.48792
C	 2.2656048469	-0.3649879647	-1.4665431415	-0.303998
C	 2.3506513498	-1.8900596404	-1.6722390137	 0.124342
O	 2.5578221719	-2.6081470779	-0.4335782011	-0.297458
C	 1.1468868959	-2.9135150099	-0.3247446081	-0.094363
C	 0.8100987221	-2.0293288557	-1.5314345016	-0.11983
H	 1.1157651972	 1.9405494149	 0.0788163508	 0.120602
H	-0.5299617777	 1.9878208889	-0.5839100793	 0.114388
H	-0.2816834095	 1.820855614	 1.150952779	 0.121311
H	 0.6947157862	-0.4365686624	 0.8609071597	 0.107425
H	-0.906865648	-0.3899485793	 0.1221772205	 0.100912
H	 0.1527927032	 0.9831305504	-2.4363827789	 0.27725
H	 2.526587465	 0.2128408645	-2.3575499328	 0.097421
H	 2.83594777	-0.0020920425	-0.6081479987	 0.10446
H	 2.9570290429	-2.2860570909	-2.4906102806	 0.075828
H	 0.9586552515	-3.9806800226	-0.5016821762	 0.099442
H	 0.7310510829	-2.6407274163	 0.6516912573	 0.101878
H	 0.1377097682	-2.4101183222	-2.2973248202	 0.085851
53.4246	102.0015	183.3765	236.9721	280.369	292.0538	329.7976	349.9393	408.3582	445.5348	477.5527	633.2019	727.2335	788.0729	800.6783	838.0865	903.8266	907.9076	938.5321	972.9371	985.5782	1007.6948	1024.7602	1030.9542	1056.6743	1102.7326	1107.3995	1154.2242	1185.0598	1188.0845	1222.5589	1239.932	1264.8622	1283.5055	1302.8052	1323.7892	1336.6373	1362.3483	1386.9642	1408.1096	1444.1612	1477.1873	1501.5728	1512.8616	1524.3347	3010.0345	3027.4531	3031.5837	3054.3654	3058.6611	3070.917	3076.1209	3098.4387	3107.6706	3119.8952	3137.3975	3805.5796
CCC1(O)CC2OCC12	CC[C@@]1(O)C[C@H]2OC[C@@H]12	
InChI=1S/C7H12O2/c1-2-7(8)3-6-5(7)4-9-6/h5-6,8H,2-4H2,1H3	InChI=1S/C7H12O2/c1-2-7(8)3-6-5(7)4-9-6/h5-6,8H,2-4H2,1H3/t5-,6-,7-/m1/s1
