17
gdb 38969	2.95066	1.86416	1.53285	2.491	65.88	-0.2458	0.0728	0.3187	894.968	0.138582	-458.950966	-458.944281	-458.943337	-458.982333	26.288	
C	-0.1874571871	 1.0942126657	-0.0053012549	 0.025583
O	 0.9165911252	 1.8471183452	 0.4589689122	-0.266016
C	 2.0179228974	 0.9682964085	 0.640493482	 0.073359
C	 2.3956199011	 0.6978580724	 2.1189888432	-0.268529
C	 1.8706556012	-0.6901692906	 2.425691956	 0.038742
O	 0.4644069813	-0.8215671644	 2.1905947648	-0.248527
C	 1.3683440926	-1.3300648894	 1.1997432146	 0.01482
C	 1.5346819029	-0.3815919612	 0.0223198315	 0.048209
O	 0.3316473326	-0.0519324259	-0.6500479348	-0.257343
H	-0.8365029983	 0.8076634058	 0.8320248857	 0.110761
H	-0.738958541	 1.687766091	-0.7420423126	 0.110164
H	 2.8661291918	 1.3943985449	 0.0963768703	 0.090946
H	 3.4832423603	 0.7228862991	 2.249505516	 0.104815
H	 1.9621710107	 1.4591563252	 2.7733670703	 0.131059
H	 2.2539708286	-1.26128372	 3.2677365967	 0.100165
H	 1.3404473735	-2.4061145811	 1.0496308327	 0.102393
H	 2.2275444171	-0.7978344152	-0.7153053539	 0.0894
75.1065	207.9457	246.235	355.6023	384.021	531.3843	601.4634	677.7866	735.612	778.0053	822.6311	868.5893	885.9393	897.5948	927.1677	984.5946	988.2644	1018.2958	1045.3262	1065.3612	1103.0787	1111.6214	1132.1288	1176.8042	1219.0039	1226.6995	1242.3146	1259.5831	1293.4525	1324.6615	1346.3413	1362.237	1381.5454	1434.4956	1438.6057	1468.2824	1540.8033	3018.2375	3044.7133	3057.4815	3070.4889	3077.7363	3104.0706	3142.8937	3156.3823
C1OC2CC3OC3C2O1	C1O[C@H]2C[C@H]3O[C@H]3[C@H]2O1	
InChI=1S/C6H8O3/c1-3-5(8-2-7-3)6-4(1)9-6/h3-6H,1-2H2	InChI=1S/C6H8O3/c1-3-5(8-2-7-3)6-4(1)9-6/h3-6H,1-2H2/t3-,4+,5-,6+/m0/s1
