18
gdb 49785	3.15063	1.40184	1.09315	2.6812	77.03	-0.2377	-0.0252	0.2125	1109.3941	0.148154	-401.935445	-401.927633	-401.926688	-401.968107	29.866	
O	 0.4065122871	-0.2353949772	-0.6442403635	-0.245609
C	 0.7493576827	 0.490446642	 0.2516981366	 0.157525
C	 1.1096213883	 1.9652183788	 0.0823150172	-0.115449
C	 0.5084685354	 2.5778352222	-1.1535580055	-0.047401
C	 0.1788644929	 3.8657588206	-1.205213821	-0.098979
C	 0.3854672678	 4.7958183519	-0.0407421067	-0.277497
C	 0.4672740507	 4.0661142003	 1.2928657856	-0.005766
C	-0.5406339553	 3.0280501803	 1.6390463082	-0.256552
N	 0.8514299993	 2.6523323606	 1.354025424	-0.115716
H	 0.859905363	 0.1286053941	 1.2970371711	 0.095959
H	 2.2099642801	 1.9524135295	-0.0301979791	 0.123595
H	 0.3557266788	 1.9087162518	-1.9939130303	 0.116579
H	-0.248541876	 4.2847668786	-2.1119637753	 0.097519
H	 1.3102399186	 5.3721982011	-0.1899239302	 0.120559
H	-0.4191971395	 5.5410926567	 0.0015460506	 0.116137
H	 0.885659471	 4.6585162749	 2.1044963051	 0.093459
H	-0.8534734242	 2.8827578475	 2.6689176594	 0.116851
H	-1.2969146808	 2.8054257162	 0.8901792739	 0.124787
74.3158	107.7846	202.7534	239.9249	324.6394	378.7949	424.7741	525.1422	588.0608	601.1777	737.8339	738.8779	763.0149	811.3455	871.6102	920.7374	950.5953	975.8042	1000.3075	1036.5684	1065.3085	1078.7633	1105.7703	1120.4839	1131.1587	1171.2565	1196.1731	1236.2664	1280.4404	1295.1602	1322.3676	1355.0621	1381.4569	1404.3171	1422.5688	1478.7147	1500.2817	1723.3508	1834.9642	2903.4493	2934.6722	3002.3991	3037.8995	3106.9959	3118.5876	3162.106	3193.6739	3194.546
O=CC1C=CCC2CN12	O=C[C@H]1C=CC[C@H]2CN12	
InChI=1S/C7H9NO/c9-5-7-3-1-2-6-4-8(6)7/h1,3,5-7H,2,4H2	InChI=1S/C7H9NO/c9-5-7-3-1-2-6-4-8(6)7/h1,3,5-7H,2,4H2/t6-,7+,8?/m0/s1
