17
gdb 79370	3.20706	1.39101	1.10905	4.5235	77.9	-0.2504	0.0034	0.2538	1103.9094	0.136768	-380.789761	-380.782208	-380.781264	-380.821747	29.323	
C	-0.1409638539	 1.6146746594	-0.0035783471	-0.422227
C	-0.0426742821	 0.0972594994	 0.0021482973	-0.017669
C	 1.1548982056	-0.5822779027	-0.7020184277	-0.112117
C	 2.1176994827	-0.3419216071	 0.5160684265	-0.04402
N	 2.5307358558	-1.7750836018	 0.6845607683	-0.376893
C	 1.0943329996	-1.8308398353	 0.2583626516	 0.277284
C	 0.3545843791	-3.0508068587	 0.0655292405	 0.158326
N	-0.2448623848	-4.0245209754	-0.1079822432	-0.34739
C	 0.7147037838	-0.6014068639	 1.1552560865	-0.081685
H	 0.8198932976	 2.0871742075	 0.2255236796	 0.117196
H	-0.4681980213	 1.980835841	-0.9823539484	 0.124695
H	-0.8682289379	 1.9615271204	 0.7380326392	 0.126003
H	-1.0100663241	-0.3612885229	-0.2309935545	 0.090199
H	 1.4261036804	-0.6118887271	-1.7590624865	 0.089077
H	 2.7975201835	 0.4883505394	 0.6950280362	 0.100575
H	 3.1337923533	-2.0641408634	-0.091563314	 0.217538
H	 0.4934605228	-0.6580788688	 2.2205483756	 0.101108
116.014	160.7908	206.3869	236.5489	280.2495	440.2401	473.6834	539.0744	562.476	612.6084	740.5457	745.7938	832.647	848.3415	865.1037	894.9512	938.7269	986.5316	1024.8273	1038.529	1067.5118	1074.524	1117.4267	1120.6905	1144.0258	1167.3649	1203.0786	1239.8451	1244.834	1273.7952	1296.0427	1328.2688	1399.4909	1415.4629	1492.7694	1498.1884	2349.5345	3032.8255	3047.4971	3099.4027	3102.0835	3104.5925	3129.3813	3145.5259	3395.8305
CC1C2C3NC2(C#N)C13	C[C@H]1[C@H]2[C@@H]3N[C@@]2(C#N)[C@H]13	
InChI=1S/C7H8N2/c1-3-4-6-5(3)7(4,2-8)9-6/h3-6,9H,1H3	InChI=1S/C7H8N2/c1-3-4-6-5(3)7(4,2-8)9-6/h3-6,9H,1H3/t3-,4-,5+,6-,7+
