21
gdb 108228	2.16633	1.48056	1.13314	1.9844	79.15	-0.2294	0.0596	0.2891	1195.7078	0.181029	-424.194038	-424.184449	-424.183504	-424.228144	36.547	
C	 0.0973157284	 1.504782378	-0.1639317996	-0.378744
C	-0.0809054516	-0.0108474153	 0.0045651791	-0.285871
C	 0.6330232721	-0.5399323479	 1.2161326624	 0.260933
C	 0.2926929649	-0.202880296	 2.6790996582	-0.286629
C	 0.6006477743	-1.6806826641	 3.1013495117	-0.304826
C	 1.0097058632	-1.9580819426	 1.6624050107	 0.274043
O	 0.8049271686	-3.1452415505	 0.9607824486	-0.471127
C	 2.0790209654	-1.0128041587	 1.176406973	 0.026821
O	 2.6043515216	-1.3285812204	-0.0787491383	-0.447401
H	 1.1544153561	 1.7604920462	-0.2864580463	 0.126626
H	-0.4428529068	 1.8674147694	-1.0438992142	 0.109721
H	-0.2809603052	 2.0510692561	 0.7070570078	 0.112748
H	-1.1499167067	-0.252305897	 0.0701997159	 0.092627
H	 0.305471772	-0.523411891	-0.8820201033	 0.107293
H	 0.9192630649	 0.5651188829	 3.1443613166	 0.099461
H	-0.7566080499	 0.0634998572	 2.8264891831	 0.107946
H	 1.3638859761	-1.8369572212	 3.8718818485	 0.092622
H	-0.3076857888	-2.218991398	 3.3832079614	 0.110931
H	 1.3683561269	-3.8250406055	 1.3521750081	 0.289838
H	 2.8298308004	-0.587714304	 1.8448038706	 0.079761
H	 2.2490020641	-2.1980310576	-0.3115782838	 0.283228
64.8995	122.096	185.8051	218.0371	254.8985	260.1534	269.4642	283.6774	328.4805	426.5343	481.994	546.5344	569.3516	658.5798	679.0702	727.5478	781.2239	796.6407	885.5602	941.6854	975.6732	976.9606	1028.772	1063.7844	1064.5835	1101.6739	1146.128	1177.7633	1210.5785	1229.1291	1230.7235	1236.2432	1274.6861	1307.605	1321.5893	1324.0087	1364.5944	1402.6598	1409.7162	1458.2178	1475.6776	1480.5426	1498.9554	1505.4445	1510.7867	3021.1335	3033.2288	3036.107	3046.9287	3075.4306	3082.3504	3092.0041	3102.1923	3109.6237	3110.7886	3729.7006	3764.3159
CCC12CCC1(O)C2O	CC[C@@]12CC[C@]1(O)[C@H]2O	
InChI=1S/C7H12O2/c1-2-6-3-4-7(6,9)5(6)8/h5,8-9H,2-4H2,1H3	InChI=1S/C7H12O2/c1-2-6-3-4-7(6,9)5(6)8/h5,8-9H,2-4H2,1H3/t5-,6-,7-/m0/s1
