14
gdb 123963	3.86627	1.62026	1.152	1.9685	68.71	-0.2152	-0.0174	0.1978	969.1869	0.10447	-432.869151	-432.862572	-432.861628	-432.90032	25.211	
C	 0.0179803525	 1.5331061167	-0.0862076246	-0.285644
N	 1.3678833159	 2.0518034227	 0.1960545599	-0.239685
C	 2.3645485926	 1.276651237	 0.2982923511	 0.086448
N	 2.3676838827	-0.120020703	 0.1594640606	-0.437923
C	 1.1200210733	-0.6824601621	 0.0781425497	 0.49995
C	-0.0311521449	 0.029660538	-0.042336717	 0.062873
C	-1.0039225005	-1.0011240204	-0.0786452012	-0.072342
N	-0.4866187477	-2.2062725052	 0.0077886076	-0.160958
O	 0.9167711925	-1.9939362224	 0.1102437506	-0.237109
H	-0.669688055	 1.9869646613	 0.6392176332	 0.12576
H	-0.2888834934	 1.9277798494	-1.0657170398	 0.125144
H	 3.3511817469	 1.690824613	 0.5000424403	 0.128539
H	 3.1547959698	-0.6623392128	 0.4776748404	 0.271122
H	-2.0789763348	-0.9168180023	-0.1656923708	 0.133828
85.9186	245.796	298.1331	338.7127	396.1997	493.752	530.6817	626.0931	633.631	722.945	758.9489	839.1481	898.1415	914.2871	934.9145	947.9522	961.466	1035.619	1071.2026	1196.281	1225.2432	1253.9526	1292.0751	1342.7407	1396.046	1414.7541	1465.6181	1504.7517	1561.1964	1678.1178	1754.4682	2992.9735	3020.8702	3146.8122	3233.8969	3643.6537
C1N=CNC2=C1C=NO2	C1N=CNc2c1cno2	
InChI=1S/C5H5N3O/c1-4-2-8-9-5(4)7-3-6-1/h2-3H,1H2,(H,6,7)	InChI=1S/C5H5N3O/c1-4-2-8-9-5(4)7-3-6-1/h2-3H,1H2,(H,6,7)
