19
gdb 51172	4.02574	1.01141	0.91915	3.5982	75.53	-0.2328	-0.0173	0.2155	1300.0372	0.158765	-423.025667	-423.017178	-423.016234	-423.059721	31.511	
O	 0.2370051833	-0.208203827	-0.0787316377	-0.243229
C	 0.1325016497	 0.9889583522	-0.1560744766	 0.16203
C	 1.2855826915	 1.9604806582	 0.0261474162	-0.366323
C	 1.2877964585	 3.0453877234	-1.0213888868	 0.449167
C	 1.8206531034	 2.8231554537	-2.4183361156	-0.358086
C	 2.4843112986	 3.8268842368	-1.4862649144	-0.125692
C	 2.0171192965	 5.2705902955	-1.5761911612	-0.237886
C	 0.4777359825	 5.1369368499	-1.5518672631	-0.097929
O	 0.1850813963	 3.9131333855	-0.8752594451	-0.301374
H	-0.8454130578	 1.4734818291	-0.3666223144	 0.096023
H	 1.1710808719	 2.4301324557	 1.0136165217	 0.129021
H	 2.221502914	 1.3963882252	 0.018939918	 0.122178
H	 2.354685232	 1.896575308	-2.6006108571	 0.122206
H	 1.2512172293	 3.1814530974	-3.2694521797	 0.118128
H	 3.4807008277	 3.6192623772	-1.113504523	 0.093815
H	 2.3777908166	 5.825881347	-0.704052646	 0.111221
H	 2.3610481951	 5.7939015942	-2.4733326855	 0.109383
H	-0.0245227619	 5.9452881731	-1.0141433855	 0.114083
H	 0.0730504528	 5.1086712549	-2.5726062342	 0.103261
52.043	68.0884	135.2558	219.1862	241.9802	343.1908	384.1042	421.4836	483.871	660.9075	664.2817	704.6862	792.3753	843.4544	866.0371	882.5739	924.9296	939.4432	964.0717	1000.7905	1029.7626	1050.2171	1076.3037	1091.4857	1097.2147	1133.7333	1184.223	1219.7261	1233.2122	1254.3197	1277.5358	1308.9169	1331.8363	1392.2059	1404.9964	1424.1179	1443.9264	1486.481	1496.5377	1527.8788	1833.2688	2904.7355	3009.9668	3017.4412	3047.6958	3085.9459	3097.8144	3110.029	3132.1307	3175.8381	3217.6031
O=CCC12CC1CCO2	O=CC[C@]12C[C@H]1CCO2	
InChI=1S/C7H10O2/c8-3-2-7-5-6(7)1-4-9-7/h3,6H,1-2,4-5H2	InChI=1S/C7H10O2/c8-3-2-7-5-6(7)1-4-9-7/h3,6H,1-2,4-5H2/t6-,7+/m1/s1
