18
gdb 37569	3.81904	1.65666	1.42321	1.085	75.71	-0.2341	0.0716	0.3057	942.7851	0.14951	-401.824637	-401.818089	-401.817145	-401.855419	27.144	
C	-0.1097306695	 1.628906305	-0.0416586881	-0.264559
C	 1.3811532555	 1.2882928767	 0.0304659672	-0.073052
N	 1.1130516426	 0.1243858223	 1.0144434508	-0.189013
C	-0.0496586144	 0.1001515162	-0.0409097329	-0.088045
C	 1.2627290654	 0.0234240464	-0.8988065057	 0.420788
O	 1.7710780929	-0.1561854739	-2.1767063461	-0.3318
C	 3.1040002773	-0.7059477751	-1.9387431348	-0.092523
C	 3.3609655384	-0.7687330889	-0.382497931	-0.307834
C	 1.9140891793	-0.8533290283	 0.1013749571	-0.004651
H	-0.5360998763	 2.0867091262	 0.8542735398	 0.110167
H	-0.4705425385	 2.1074585512	-0.9541308824	 0.109982
H	 2.2328265388	 1.9525035305	 0.179868624	 0.083069
H	-0.8395407823	-0.6475051422	 0.0403315868	 0.09005
H	 3.1393352575	-1.7058996351	-2.3850029696	 0.113039
H	 3.8330086902	-0.0708171693	-2.4496224625	 0.115619
H	 3.9924499477	-1.6191700929	-0.117634424	 0.108793
H	 3.8582514969	 0.1436539654	-0.0438973967	 0.121342
H	 1.5437259484	-1.8776191441	 0.2046346979	 0.078628
113.8853	243.75	292.5202	339.5607	501.1882	524.6187	614.3496	683.0806	714.2037	774.0582	822.3473	844.1898	857.3768	891.4369	904.6167	918.3328	938.0284	972.2507	999.5743	1017.226	1035.7519	1077.863	1103.3123	1124.3863	1132.474	1169.3912	1180.4275	1202.9327	1210.1394	1226.2213	1232.8209	1263.3326	1298.7152	1320.4603	1374.032	1397.4168	1487.2533	1490.0565	1516.8068	3040.6272	3064.3557	3066.2933	3070.3198	3091.1189	3109.3423	3117.051	3124.6793	3133.0651
C1C2N3C1C21OCCC31	C1[C@H]2N3[C@@H]1[C@]12OCC[C@@H]31	
InChI=1S/C7H9NO/c1-2-9-7-4(1)8-5(7)3-6(7)8/h4-6H,1-3H2	InChI=1S/C7H9NO/c1-2-9-7-4(1)8-5(7)3-6(7)8/h4-6H,1-3H2/t4-,5-,6+,7+/m1/s1
