21
gdb 75896	2.29493	1.54275	1.18057	2.0447	78.	-0.24	-0.0211	0.2189	1147.3283	0.180144	-424.265159	-424.255545	-424.2546	-424.299041	36.474	
C	-0.6366825309	 1.3336549718	-0.0531807815	-0.415392
C	 0.0197242822	-0.0423932635	-0.033809775	-0.123744
C	 1.1090094246	-0.21400388	-1.0921542746	 0.360512
O	 1.1740464084	 0.3309418751	-2.1626741883	-0.31113
C	 2.120563354	-1.2015087968	-0.510164963	-0.191471
O	 1.6231363872	-1.5669447949	 0.7597913126	-0.289574
C	 0.7370420906	-0.5278942131	 1.2501233121	 0.349499
C	 1.5695421957	 0.5714664318	 1.9249318058	-0.425349
C	-0.1954904754	-1.200046979	 2.2498773088	-0.429477
H	 0.0759570543	 2.1233590655	 0.1991604318	 0.126595
H	-1.014168699	 1.543245078	-1.0575090943	 0.140084
H	-1.4733410983	 1.3887506418	 0.6494912963	 0.116685
H	-0.7340992137	-0.8065817728	-0.2788352012	 0.10712
H	 2.2151049981	-2.0928891578	-1.1399405009	 0.134877
H	 3.1098456551	-0.7199657081	-0.4595460208	 0.12127
H	 2.2301944684	 1.0786769224	 1.2138315066	 0.117724
H	 0.9308182502	 1.3307960054	 2.3851439032	 0.121251
H	 2.1916207295	 0.1254038781	 2.7056092995	 0.126731
H	 0.374776289	-1.5974959224	 3.0946572927	 0.125071
H	-0.9294867607	-0.4866214897	 2.6370156876	 0.117729
H	-0.7274360893	-2.0295663117	 1.7761368526	 0.120988
75.1123	160.6127	180.5118	206.4353	221.6343	250.0181	276.1257	306.0519	341.6699	402.6313	461.6384	498.0954	549.6001	591.9124	661.8681	713.4956	783.3391	848.8967	924.6943	936.5427	953.1904	1002.7307	1048.5252	1067.5848	1092.3568	1108.2418	1138.6332	1185.5578	1203.474	1223.8682	1270.921	1307.6823	1333.9104	1344.2698	1400.0299	1407.8129	1418.5514	1474.006	1483.5333	1483.6083	1493.3686	1494.7294	1504.7562	1509.0451	1854.3134	2986.7005	2994.9827	3037.9842	3042.5306	3046.5998	3067.542	3106.9199	3112.8567	3116.8228	3119.7728	3121.2777	3124.7003
CC1C(=O)COC1(C)C	C[C@H]1C(=O)COC1(C)C	
InChI=1S/C7H12O2/c1-5-6(8)4-9-7(5,2)3/h5H,4H2,1-3H3	InChI=1S/C7H12O2/c1-5-6(8)4-9-7(5,2)3/h5H,4H2,1-3H3/t5-/m0/s1
