20
gdb 77946	2.60882	1.58276	1.134	1.5834	81.08	-0.2142	0.091	0.3053	1135.1213	0.169586	-403.041659	-403.033178	-403.032234	-403.074119	33.325	
C	-0.0437614019	 1.540571908	-0.08764297	-0.433315
C	-0.0449225887	 0.081633618	 0.3295067012	 0.057357
C	 0.9941582609	-0.9075993928	-0.2957685593	-0.16192
N	 2.047847729	-0.1736453814	 0.5196372903	-0.106407
C	 3.3177981749	-0.851515967	 0.7845285515	-0.341746
C	 0.894444368	-0.3981726509	 1.4856186906	-0.161923
C	 0.6945724223	-1.8161876821	 0.9136125601	 0.53844
C	-0.1615682723	-2.9642635455	 1.1940212497	-0.311171
O	 1.2841858781	-3.0273274111	 1.2929571256	-0.295113
H	 0.9744169197	 1.9269046476	-0.1412633646	 0.140884
H	-0.5193234021	 1.6593490805	-1.0674167401	 0.1115
H	-0.6139445488	 2.1439714801	 0.6272177002	 0.111502
H	-1.057279404	-0.3276141359	 0.3898735796	 0.071429
H	 1.1462342982	-1.1672869858	-1.3444763277	 0.083036
H	 3.9337291331	-0.7876851127	-0.1189604748	 0.117133
H	 3.8393935381	-0.3022107211	 1.5756911663	 0.117129
H	 3.24379318	-1.9040870079	 1.081927723	 0.138373
H	 0.9297629866	-0.0613677196	 2.5227616306	 0.08304
H	-0.6879161378	-3.0383257244	 2.1440685448	 0.120887
H	-0.5890567735	-3.543534786	 0.377433703	 0.120887
177.7474	179.8365	210.7784	229.3867	235.7238	237.3875	329.3669	384.6659	427.0694	475.7094	613.3039	674.0542	739.6207	778.7451	788.1957	795.6229	875.1866	888.2505	994.1861	1028.9939	1038.0607	1069.5662	1096.3118	1109.359	1112.293	1116.7542	1146.1591	1160.4571	1168.9559	1183.4163	1190.5697	1219.9782	1227.0012	1262.0638	1390.1643	1409.2697	1447.6401	1452.3794	1491.6595	1493.9168	1506.85	1507.6238	1545.7679	3020.701	3035.5737	3071.9527	3086.979	3088.0489	3089.7744	3093.7292	3106.4848	3112.0524	3148.6695	3175.4319
CC1C2N(C)C1C21CO1	C[C@H]1[C@H]2N(C)[C@@H]1[C@]12CO1	
InChI=1S/C7H11NO/c1-4-5-7(3-9-7)6(4)8(5)2/h4-6H,3H2,1-2H3	InChI=1S/C7H11NO/c1-4-5-7(3-9-7)6(4)8(5)2/h4-6H,3H2,1-2H3/t4-,5+,6-,7+
