15
gdb 37993	3.92047	1.70858	1.43071	2.4362	82.67	-0.1954	-0.0505	0.1449	899.2505	0.114424	-379.596168	-379.589952	-379.589008	-379.626484	25.684	
C	-1.6374302151	 0.5382025331	 0.3582631939	-0.462363
C	 2.8914675286	 1.2316353839	-0.115854755	 0.017552
N	 2.764099333	 0.2838984069	-0.9796785117	-0.201771
C	 1.7076390212	-0.4661625735	-0.3780426855	 0.136427
C	 0.4246864997	-0.3857735151	-0.8060431596	-0.21256
C	-0.344121291	 0.1915003119	 0.3009411369	 0.387397
C	 0.6832137464	 0.4116750121	 1.37213708	-0.151111
C	 2.1560111927	 0.9859027525	 1.1778790881	-0.133857
N	 1.8304645545	-0.434930367	 1.0715091248	-0.083188
H	-2.0375276025	 1.0892276936	 1.2012268727	 0.103061
H	-2.3215146631	 0.2986164465	-0.4467842082	 0.109234
H	 3.5403188006	 2.0843912502	-0.2925604027	 0.136187
H	 0.1234985256	-0.3537808097	-1.8431139132	 0.12455
H	 0.3557295511	 0.4533817732	 2.4087443365	 0.113534
H	 2.6217637785	 1.3321612614	 2.098012453	 0.116907
142.9622	299.2068	335.7935	385.497	531.7847	594.5883	624.2117	661.4762	701.7487	728.7662	786.5534	813.6196	847.7115	854.9707	872.507	891.6293	920.3744	943.7257	962.8578	970.6785	1056.5116	1088.2398	1112.5967	1178.6981	1229.9092	1280.6778	1310.9	1334.8336	1340.3924	1452.9799	1573.3863	1593.2672	1687.689	3136.6638	3146.6758	3160.9306	3186.3364	3239.2564	3245.7923
C1C2N=C3C=C1C1C2N31	C=C1[CH][C]2[N][CH][C@H]3[C@@H]1N23	
InChI=1S/C7H6N2/c1-3-2-5-8-4(1)7-6(3)9(5)7/h2,4,6-7H,1H2	InChI=1S/C7H6N2/c1-4-2-6-8-3-5-7(4)9(5)6/h2-3,5,7H,1H2/t5-,7+,9?/m0/s1
