18
gdb 94122	4.9821	0.86968	0.81953	2.7036	70.58	-0.265	0.0235	0.2885	1404.3535	0.147518	-476.223298	-476.214386	-476.213442	-476.258352	31.811	
O	-0.1893021205	 1.2729394364	 0.6474985121	-0.435258
C	-0.0313041122	 0.0323375244	-0.0256478292	 0.122947
C	 0.6904140095	-1.0147546326	 0.8337268302	-0.124935
O	-0.3222589684	-1.5337330496	 1.6957107035	-0.239897
C	-1.5028999986	-1.6382365967	 0.9497611626	 0.21209
C	-1.4315264354	-0.5876964151	-0.1727702899	-0.279849
O	-1.6073615403	-2.9198232929	 0.3206566569	-0.203485
C	-1.8006274201	-3.9702510999	 1.1483377338	 0.126685
N	-1.7913627858	-5.1437076659	 0.684978371	-0.441089
H	 0.6842173791	 1.6455690426	 0.804435222	 0.283952
H	 0.4641721822	 0.1702095924	-0.9960100304	 0.075955
H	 1.1160837206	-1.810533741	 0.2062078012	 0.111524
H	 1.480398706	-0.5928278885	 1.4608233353	 0.105725
H	-2.3374116569	-1.5143397135	 1.6474899625	 0.095403
H	-2.1897701011	 0.1876935897	-0.0594034622	 0.132511
H	-1.5643626436	-1.0790725239	-1.1371130986	 0.133496
H	-1.962521375	-3.6818027404	 2.1946051522	 0.095817
H	-1.9744877395	-5.8104909453	 1.432353907	 0.228408
32.809	77.3839	98.0107	175.2745	205.043	296.5917	325.82	400.682	456.964	498.4343	637.8982	755.7118	790.4983	827.1802	860.3338	874.7584	924.7347	963.4549	989.4569	1003.3557	1044.2238	1055.6848	1077.7411	1115.759	1146.1753	1203.275	1224.5552	1256.2576	1290.5042	1304.9784	1334.4679	1352.8449	1378.5872	1394.2068	1423.6678	1431.9883	1471.9544	1500.7999	1748.6777	3004.3181	3020.7476	3039.6105	3061.3526	3095.8439	3098.1494	3151.8218	3513.1125	3817.3242
OC1COC(C1)OC=N	O[C@H]1CO[C@@H](C1)O[CH][NH]	
InChI=1S/C5H9NO3/c6-3-9-5-1-4(7)2-8-5/h3-7H,1-2H2	InChI=1S/C5H9NO3/c6-3-9-5-1-4(7)2-8-5/h3-7H,1-2H2/t4-,5-/m1/s1
