17
gdb 133102	2.79081	1.44368	1.02515	2.9081	77.73	-0.2498	-0.0258	0.224	1154.613	0.137069	-426.050028	-426.042166	-426.041221	-426.082763	29.617	
C	-0.0181504662	 1.5735634652	-0.0739407492	-0.375399
C	-0.0416536572	 0.0378168583	 0.0219213657	-0.298669
C	 0.6737609557	-0.4905428965	 1.2399172501	 0.131825
C	 0.0197213049	-1.0188623026	 2.3478718164	-0.155877
C	 0.7500081361	-1.4780578056	 3.4445329549	-0.121555
C	 2.1331992789	-1.3942641316	 3.393805296	-0.006761
N	 2.7944306216	-0.8927675914	 2.3408219153	-0.313692
C	 2.0715838456	-0.4709370782	 1.3343444605	 0.291326
F	 2.7519267411	 0.024911251	 0.2944535419	-0.077199
H	 1.0097863057	 1.9410504024	-0.1290399361	 0.13623
H	-0.5492826588	 1.911729986	-0.9687285041	 0.117054
H	-0.4963068317	 2.0292531908	 0.7987387218	 0.119047
H	-1.0782389163	-0.3154293287	 0.040947337	 0.103147
H	 0.4199594007	-0.3823260228	-0.8785923002	 0.121343
H	-1.0650441961	-1.0731236937	 2.348636294	 0.108406
H	 0.254582137	-1.8932126196	 4.3142614833	 0.103814
H	 2.7469779488	-1.7400933533	 4.2207371128	 0.116961
73.9423	127.5228	209.5427	223.0937	303.5303	355.5202	462.5369	495.7592	549.5142	582.3273	604.3493	743.7029	782.5758	801.8819	826.2361	873.3558	964.8173	975.3627	984.619	1059.5898	1083.6475	1093.735	1141.1411	1205.8307	1268.0821	1300.0329	1309.6805	1338.3386	1359.4368	1405.9434	1469.9256	1485.7427	1492.151	1499.098	1510.848	1619.0225	1642.2584	3038.2826	3041.9959	3076.3205	3111.5032	3126.2109	3167.4902	3173.7693	3206.0967
CCC1=CC=CN=C1F	CCc1cccnc1F	
InChI=1S/C7H8FN/c1-2-6-4-3-5-9-7(6)8/h3-5H,2H2,1H3	InChI=1S/C7H8FN/c1-2-6-4-3-5-9-7(6)8/h3-5H,2H2,1H3
