21
gdb 116400	2.57502	1.36078	0.98303	3.5749	79.45	-0.2133	0.0334	0.2467	1258.975	0.184968	-420.442865	-420.433765	-420.432821	-420.477475	33.683	
C	 0.0592157374	 1.570463997	 0.0645447116	-0.376589
C	-0.0253666808	 0.0434750437	 0.0045634537	-0.15086
N	-1.4012227084	-0.4520455715	-0.0169395305	-0.088983
C	-2.0398083846	-0.7045917327	 1.2723297475	-0.157671
C	-3.5522384031	-0.8818157989	 1.1356082099	-0.183168
N	-3.9155803101	-1.7904689313	 0.0550407524	-0.283001
C	-3.4030570552	-1.2861394308	-1.2154600875	-0.284489
C	-1.9796325018	-0.7167265457	-1.2287646934	 0.39037
O	-1.4151586346	-0.4943535753	-2.2889853505	-0.397888
H	 1.1046307528	 1.8916814076	 0.1121795614	 0.117015
H	-0.3937070584	 2.0065113412	-0.8295862437	 0.142764
H	-0.4546530326	 1.9713021863	 0.9448626458	 0.111611
H	 0.4630998542	-0.3178180535	-0.9020045524	 0.141349
H	 0.4786979558	-0.4045960864	 0.8693945591	 0.096457
H	-1.5994025048	-1.6040465472	 1.7333397296	 0.099934
H	-1.8200588355	 0.1330105732	 1.9474699976	 0.109269
H	-3.9628626199	-1.2463633212	 2.0825594315	 0.109275
H	-4.0215186887	 0.0884824169	 0.9288867814	 0.115938
H	-3.5206858504	-2.7080162317	 0.2404759972	 0.219724
H	-3.4369478392	-2.0712458866	-1.9746361562	 0.134412
H	-4.061940082	-0.4838770931	-1.5753425746	 0.134532
41.2578	91.4365	118.298	175.2576	228.5076	328.4973	351.9318	363.395	458.021	487.8219	516.0238	575.9671	681.7914	700.4955	781.4285	808.8879	885.4925	924.4517	948.8115	992.0459	1009.8793	1075.1066	1099.0464	1131.5682	1142.2453	1171.5077	1214.5621	1245.8531	1268.1713	1317.1237	1331.1568	1350.2219	1372.7625	1389.903	1395.4511	1407.9568	1453.7698	1464.0873	1483.2781	1487.1701	1488.9549	1491.9023	1502.8786	1526.3518	1753.1562	2965.9958	3021.278	3022.607	3033.2914	3035.4713	3038.7049	3083.8796	3097.5247	3106.8903	3119.135	3129.7446	3503.0552
CCN1CCNCC1=O	CCN1CCNCC1=O	
InChI=1S/C6H12N2O/c1-2-8-4-3-7-5-6(8)9/h7H,2-5H2,1H3	InChI=1S/C6H12N2O/c1-2-8-4-3-7-5-6(8)9/h7H,2-5H2,1H3
