14
gdb 133350	2.45599	1.80959	1.04283	4.3616	72.77	-0.1877	-0.0277	0.1601	1038.5362	0.102817	-474.160362	-474.152837	-474.151893	-474.192087	29.383	
N	 0.0436707608	 1.3831769511	-0.0145195347	-0.589442
C	-0.0035657054	 0.0073747188	 0.024283794	 0.28086
C	-1.1401063792	-0.7461817168	 0.0624043149	-0.084792
N	-1.0706708964	-2.1122326753	 0.1553041221	-0.236667
N	 0.0680860303	-2.8052812694	 0.2191772876	-0.25363
C	 1.1535007807	-2.1087990959	 0.1800321959	 0.273808
F	 2.2904200593	-2.8019953713	 0.2326371054	-0.071347
C	 1.2878300115	-0.6697253494	 0.0718982968	 0.132772
N	 2.3804611124	 0.0177944804	 0.0076526386	-0.593911
H	 0.9698617744	 1.7156769374	-0.2575106902	 0.273088
H	-0.7173350506	 1.865201488	-0.4657031115	 0.246358
H	-2.1388325051	-0.3297049809	 0.0290657589	 0.122538
H	-1.9026934178	-2.6752649015	 0.1879849634	 0.281211
H	 3.192747825	-0.5964721953	 0.0436286288	 0.219155
113.0028	263.8783	315.8063	326.894	331.4561	357.8736	385.669	481.0935	517.8396	552.1205	570.2413	588.5247	617.5359	722.8637	765.8627	816.1703	844.6167	895.9332	997.0264	1062.4579	1144.6867	1261.848	1300.833	1372.8218	1379.3156	1460.8496	1541.8416	1608.9331	1615.2519	1654.0588	1682.8737	3212.3296	3495.101	3531.1441	3670.5258	3672.3722
NC1=CNN=C(F)C1=N	NC1=C(C(=NNC1)F)[NH]	
InChI=1S/C4H5FN4/c5-4-3(7)2(6)1-8-9-4/h1H,(H2,6,9)(H2,7,8)	InChI=1S/C4H6FN4/c5-4-3(7)2(6)1-8-9-4/h7-8H,1,6H2
