16
gdb 42741	2.70602	1.68054	1.27135	2.1161	74.71	-0.2237	-0.021	0.2027	996.9753	0.124788	-400.685044	-400.677705	-400.676761	-400.71682	28.872	
O	-0.0252296176	 0.051068671	-0.0228057718	-0.317934
C	-0.0708728648	 1.2453099093	 0.0224369406	 0.428174
C	-1.2542264928	 2.1971919358	 0.0445550985	-0.145417
C	-0.7207875548	 3.2611673672	-0.9582748565	-0.191315
N	 0.3416723886	 3.5697585056	 0.0812802024	-0.122752
C	-0.7334175688	 3.2206996367	 1.0976235288	-0.195828
C	 1.1162367698	 2.2828530708	 0.0504258707	-0.290892
C	 2.0123651123	 2.1094478687	 1.1762051243	 0.337244
C	 2.7382653537	 1.9381214107	 2.1183803393	-0.425879
H	-2.2486284806	 1.7553935402	 0.0288705729	 0.092879
H	-0.344203808	 2.9378834185	-1.9329022037	 0.118106
H	-1.3865732483	 4.1184513415	-1.0737981781	 0.124711
H	-1.4028832579	 4.0714888719	 1.2375742048	 0.123395
H	-0.3617699254	 2.8608267036	 2.0590410455	 0.132146
H	 1.6749424254	 2.2246799794	-0.8906013265	 0.130943
H	 3.390001889	 1.7921795892	 2.9442108087	 0.202421
115.163	133.1203	187.6037	376.5257	379.3781	482.3483	500.6039	519.831	616.9543	635.2524	666.9678	677.1227	795.9961	822.188	845.4794	860.0787	886.0703	946.1371	1005.6209	1010.4572	1021.2208	1076.6903	1100.9209	1154.5031	1175.8316	1200.5216	1214.5426	1235.9871	1258.9056	1298.0821	1331.8276	1499.4476	1529.3082	1884.3849	2239.306	3048.6591	3060.4288	3073.5828	3126.1854	3137.8619	3141.6078	3502.8076
O=C1C2CN(C2)C1C#C	O=C1[C@@H]2CN(C2)[C@H]1C#C	
InChI=1S/C7H7NO/c1-2-6-7(9)5-3-8(6)4-5/h1,5-6H,3-4H2	InChI=1S/C7H7NO/c1-2-6-7(9)5-3-8(6)4-5/h1,5-6H,3-4H2/t6-/m0/s1
