20
gdb 6756	5.9689	0.65481	0.61205	1.4475	81.15	-0.2422	0.0592	0.3014	1852.0058	0.174602	-348.983212	-348.972768	-348.971824	-349.020575	35.889	
C	-0.0133168501	 1.5379569263	-0.0557128792	-0.372051
C	-0.008641993	-0.0000670704	 0.0521390523	-0.121369
C	 0.7774928516	-0.4709612069	 1.2918098983	-0.372338
C	-1.3729280949	-0.5309066293	 0.0577194038	 0.123152
C	-2.503445524	-0.9477416956	 0.0793400559	-0.014318
C	-3.8583572796	-1.4855597942	 0.0952899426	-0.322021
C	-3.8865541793	-3.012553544	-0.0313575766	-0.061975
O	-5.2483502024	-3.406437325	-0.0034371613	-0.41586
H	 1.0120768409	 1.9189503396	-0.1023215217	 0.109732
H	-0.5465514349	 1.8677698464	-0.9511347607	 0.122472
H	-0.5058845062	 1.9829014918	 0.8144732975	 0.12287
H	 0.5036254782	-0.3944039066	-0.8370302805	 0.100773
H	 0.3135411967	-0.0925264167	 2.208008753	 0.122623
H	 0.8017031549	-1.5623069837	 1.351190899	 0.120214
H	 1.8080327715	-0.1032608157	 1.2514717268	 0.109737
H	-4.3729414792	-1.2077869621	 1.0234592463	 0.133766
H	-4.4513998586	-1.0612472235	-0.7243016613	 0.133963
H	-3.3952076674	-3.3099619512	-0.9698125268	 0.096381
H	-3.3161013885	-3.4579962001	 0.7973643266	 0.096121
H	-5.2873016057	-4.363674809	-0.0831541239	 0.288131
11.7059	72.0319	81.2136	147.6369	172.5693	229.9042	234.9219	264.3073	300.6917	347.0246	378.8233	461.5703	525.2385	553.3473	724.68	794.9987	886.9111	930.8701	963.551	999.5377	1069.5706	1079.308	1088.1957	1120.6284	1150.8344	1208.0912	1221.6665	1237.9306	1303.7833	1326.6255	1332.2436	1352.0741	1394.4437	1416.5349	1453.6074	1479.9023	1485.8139	1489.1515	1498.0665	1510.1167	1527.8068	2364.3667	2982.6835	3000.8594	3012.9901	3028.0106	3034.4105	3038.291	3064.6678	3105.0014	3110.4607	3117.2389	3119.7019	3834.8924
CC(C)C#CCCO	CC(C)C#CCCO	
InChI=1S/C7H12O/c1-7(2)5-3-4-6-8/h7-8H,4,6H2,1-2H3	InChI=1S/C7H12O/c1-7(2)5-3-4-6-8/h7-8H,4,6H2,1-2H3
