15
gdb 30614	4.59763	1.02518	0.84263	2.3677	71.71	-0.2407	-0.05	0.1908	1284.7938	0.113481	-453.994223	-453.986017	-453.985073	-454.027736	29.199	
O	-0.0369797443	 1.4033917808	 0.0103129327	-0.400382
C	-0.018541872	-0.0004439655	 0.0035744818	-0.178524
C	-1.4476747475	-0.5175836651	 0.0125137872	 0.306226
O	-2.4270865609	 0.200113999	 0.0235341738	-0.330601
C	-1.5982029099	-1.9807697975	 0.006946462	 0.261928
N	-0.6509891466	-2.9060523271	-0.0048302193	-0.304152
C	-1.3112607549	-4.1003454421	-0.0052301021	-0.094596
C	-2.6769762097	-3.8979289426	 0.0067116982	-0.090488
N	-2.8408242383	-2.5448793527	 0.0141576324	-0.260746
H	 0.8747077848	 1.7082832102	 0.0034165505	 0.293583
H	 0.4819731561	-0.4245306817	-0.8821126166	 0.125943
H	 0.4959713307	-0.432775499	 0.8771794224	 0.125938
H	-0.782768088	-5.0415292525	-0.0138327348	 0.118283
H	-3.5108775094	-4.5801526097	 0.0102381051	 0.142427
H	-3.6943568601	-2.0082922346	 0.0233977169	 0.285161
72.5128	97.5776	144.7064	186.9971	233.2139	290.032	368.8257	510.0248	545.8319	632.4944	682.2653	737.533	763.1295	771.0992	869.5054	923.7528	960.1999	1012.2497	1029.4062	1100.337	1129.5264	1155.3204	1192.8318	1233.3056	1242.0712	1308.8974	1417.8813	1433.9592	1457.9398	1481.131	1487.3021	1563.4502	1778.5295	2976.7575	2999.0267	3250.469	3281.1533	3650.8584	3840.0959
OCC(=O)C1=NC=CN1	OCC(=O)c1ncc[nH]1	
InChI=1S/C5H6N2O2/c8-3-4(9)5-6-1-2-7-5/h1-2,8H,3H2,(H,6,7)	InChI=1S/C5H6N2O2/c8-3-4(9)5-6-1-2-7-5/h1-2,8H,3H2,(H,6,7)
