14
gdb 13053	4.30718	1.28826	1.03848	3.6406	58.01	-0.261	-0.0356	0.2255	1054.9655	0.106074	-419.705991	-419.698347	-419.697403	-419.739191	26.003	
O	-0.6838131569	 0.6066136872	 0.6505013807	-0.233766
C	 0.0870614476	 0.8940108735	-0.2276306155	 0.151699
C	 1.2940443625	 1.7978710593	-0.0267556377	-0.306216
C	 1.3565919399	 2.9163029575	-1.0716287471	-0.198893
C	 2.6511333042	 3.7438159604	-1.2041975411	-0.101858
O	 2.8203726396	 3.2780846789	-2.5823822443	-0.23355
C	 1.6975448401	 2.4956560896	-2.5089459119	 0.459936
O	 1.2587550426	 1.7649681314	-3.3376893464	-0.317111
H	-0.0344047349	 0.5068792448	-1.2613462682	 0.115338
H	 1.2562534273	 2.2049885892	 0.9875481487	 0.13326
H	 2.1942505385	 1.1724359065	-0.1109891423	 0.133681
H	 0.4537361609	 3.532750309	-1.0366781758	 0.130617
H	 2.5436410362	 4.8291484522	-1.1719585716	 0.134769
H	 3.4892559923	 3.4192061104	-0.5836104974	 0.132095
63.9868	78.6501	127.8673	174.165	282.4576	348.8827	463.8053	529.7427	692.8792	753.3477	809.7985	827.3002	919.6156	956.8128	990.0255	1068.3362	1098.0213	1120.3632	1141.8982	1163.0849	1188.7201	1252.9189	1291.1109	1341.8213	1366.6423	1429.517	1464.0841	1516.3965	1834.967	1931.6916	2921.6928	3017.8418	3074.5888	3078.4567	3101.3147	3138.3106
O=CCC1COC1=O	O=CC[C@H]1COC1=O	
InChI=1S/C5H6O3/c6-2-1-4-3-8-5(4)7/h2,4H,1,3H2	InChI=1S/C5H6O3/c6-2-1-4-3-8-5(4)7/h2,4H,1,3H2/t4-/m0/s1
