19
gdb 85118	1.7763	1.59055	1.37433	2.3473	76.85	-0.2466	-0.05	0.1967	1113.4417	0.155796	-423.052928	-423.04316	-423.042216	-423.087805	35.11	
C	-0.3940678833	 1.316534121	-0.1154411422	-0.415433
C	 0.1080981333	-0.1213000916	-0.0515291326	-0.027155
C	 1.4037707383	-0.3866647097	-0.8867656153	-0.351919
C	 2.1825692682	-0.4230365233	 0.4229586113	 0.368501
O	 3.3239739371	-0.2754848647	 0.7423628341	-0.290581
C	 0.8645445406	-0.5310014039	 1.2624502451	 0.075862
C	 0.821442126	 0.3254983124	 2.5252361703	-0.470743
C	 0.6560291129	-1.9979317195	 1.59783378	 0.122917
O	 0.0822763873	-2.7953604172	 0.900005113	-0.252685
H	 0.4082124484	 2.0410317162	 0.0636605324	 0.11965
H	-0.8085073425	 1.5258953058	-1.1068542148	 0.124793
H	-1.1830312324	 1.5016368835	 0.6203375934	 0.123217
H	-0.6937278036	-0.8246189621	-0.280691336	 0.101387
H	 1.397874331	-1.368452932	-1.3705038648	 0.149525
H	 1.7194344886	 0.3694206678	-1.6103350503	 0.128121
H	 1.0974282465	 1.360648084	 2.3135080192	 0.134564
H	-0.1751003593	 0.3218946291	 2.9788515744	 0.129237
H	 1.533210553	-0.0578922034	 3.2630840229	 0.139059
H	 1.1148381601	-2.3051374225	 2.5634472701	 0.091682
54.5611	90.6184	143.6845	163.8336	209.0099	235.5246	246.536	279.9501	353.9456	400.5499	480.3596	510.738	615.3997	650.2763	714.9198	767.4862	855.1929	866.6478	929.9669	986.2052	1018.7449	1038.2993	1067.8066	1093.014	1135.3037	1181.3286	1200.9557	1210.9782	1229.7217	1282.2153	1355.2838	1401.2436	1413.8064	1422.3928	1434.9418	1484.5654	1489.0323	1501.1067	1503.854	1803.7678	1888.2471	2890.3593	3030.6206	3040.1244	3059.3156	3088.659	3104.053	3106.8893	3108.7609	3119.0698	3126.7785
CC1CC(=O)C1(C)C=O	C[C@H]1CC(=O)[C@]1(C)C=O	
InChI=1S/C7H10O2/c1-5-3-6(9)7(5,2)4-8/h4-5H,3H2,1-2H3	InChI=1S/C7H10O2/c1-5-3-6(9)7(5,2)4-8/h4-5H,3H2,1-2H3/t5-,7+/m0/s1
