18
gdb 78972	3.4085	1.8724	1.73085	0.4593	71.98	-0.238	0.0788	0.3167	862.7126	0.150892	-401.910853	-401.904641	-401.903697	-401.941114	26.399	
C	-0.1303533909	 1.5605426659	 0.0146119347	-0.426872
C	 0.0373268346	 0.044754431	 0.0132171587	 0.042827
C	 0.9713785478	-0.5576135964	-1.0379448848	-0.050134
C	 2.4007604575	-0.4859549634	-0.3551679018	 0.04257
O	 2.1692429989	 0.0687156666	 0.9344190643	-0.252044
C	 0.8870225627	-0.5412008815	 1.1711933819	 0.023641
C	 1.0824966184	-2.0071962258	 0.7023791606	-0.062373
C	 2.2705782192	-2.0065337544	-0.1793860438	-0.052596
N	 0.9058716843	-2.0535977325	-0.7911782066	-0.15708
H	 0.8349490758	 2.063263036	 0.1067511503	 0.134549
H	-0.6109351912	 1.8998412742	-0.9087266473	 0.114601
H	-0.7593566141	 1.8823026215	 0.8515195404	 0.115132
H	-0.9329886895	-0.4606026929	-0.0451420073	 0.086872
H	 0.8557226481	-0.2825689571	-2.083943702	 0.078268
H	 3.2581194215	-0.0292934131	-0.8424294689	 0.086827
H	 0.5702291606	-0.3783507619	 2.1993112398	 0.079182
H	 0.7500883805	-2.8724462374	 1.2598668977	 0.09995
H	 3.0059484459	-2.7954179786	-0.2842326757	 0.09668
194.4405	218.3173	269.8108	493.6301	540.4601	595.8852	682.2729	704.5403	767.5369	802.6272	808.1421	825.2108	875.7458	879.4463	906.3627	939.1072	942.3709	950.1263	971.9886	1020.3069	1025.0552	1051.1327	1068.8872	1097.0794	1123.0209	1161.4674	1173.731	1201.6289	1233.2663	1245.0592	1262.3246	1271.7611	1304.4328	1317.4047	1356.9536	1378.4982	1406.842	1495.5222	1504.996	3037.7453	3056.4765	3097.402	3128.917	3144.4431	3148.6662	3159.8854	3182.5143	3210.4446
CC1C2C3OC1C1C3N21	C[C@H]1[C@H]2[C@H]3O[C@@H]1[C@@H]1[C@H]3N21	
InChI=1S/C7H9NO/c1-2-3-7-5-4(8(3)5)6(2)9-7/h2-7H,1H3	InChI=1S/C7H9NO/c1-2-3-7-5-4(8(3)5)6(2)9-7/h2-7H,1H3/t2-,3-,4-,5+,6-,7+,8?/m0/s1
