20
gdb 90004	2.81786	1.39318	1.11468	2.4874	79.68	-0.2363	-0.0246	0.2117	1160.9317	0.170604	-403.137676	-403.129005	-403.128061	-403.170965	33.252	
C	-0.4038868067	 1.4496294716	 0.1068754649	-0.408006
C	-0.0959863431	-0.0446575092	 0.0789584056	 0.034566
C	 1.0060800216	-0.4544984329	-0.9437637585	-0.286278
C	 2.031884779	-0.5311036985	 0.2140153219	 0.251629
C	 0.8437696358	-0.5297174961	 1.2237732981	-0.304497
N	 3.124674474	-1.5312053244	 0.2408860271	-0.385456
C	 4.1571113187	-0.5279954038	 0.6167782311	-0.28254
C	 3.0958263145	 0.5593160541	 0.3887984599	 0.33968
O	 3.0924850486	 1.7551465392	 0.358612679	-0.296916
H	 0.5154192893	 2.0393939947	 0.1865956178	 0.147576
H	-0.923223518	 1.7565035039	-0.807561866	 0.111795
H	-1.0458045432	 1.7029203135	 0.9578360603	 0.109166
H	-1.024469303	-0.6153890916	-0.0062714938	 0.068669
H	 0.846374736	-1.4473843992	-1.3725608924	 0.10753
H	 1.228535556	 0.2519446557	-1.7482081919	 0.107747
H	 0.9375337275	 0.1092078204	 2.1066408461	 0.107286
H	 0.6156759239	-1.5509357159	 1.5465372993	 0.100732
H	 2.9912550458	-2.2658763366	 0.9266193599	 0.220161
H	 4.5079670281	-0.559285824	 1.6571889682	 0.124067
H	 5.0285055549	-0.4999840908	-0.0463137768	 0.133087
93.4768	98.6578	152.4159	232.3716	268.9985	296.6795	359.9243	373.273	481.7711	533.5424	541.6315	675.181	710.0185	791.6287	824.7011	852.4054	889.7153	901.3092	940.8524	948.4846	999.3556	1038.155	1043.7099	1061.2478	1092.4483	1130.323	1139.4621	1188.6919	1207.5993	1221.3672	1248.463	1272.3126	1278.1391	1300.0342	1364.8218	1366.3846	1418.9851	1458.7639	1475.2562	1479.4662	1501.893	1509.7748	1899.0873	3015.8329	3026.9115	3040.4122	3054.5053	3064.6092	3070.6599	3092.7865	3098.0151	3107.7051	3114.5133	3537.6336
CC1CC2(C1)NCC2=O	C[C@H]1C[C@@]2(C1)NCC2=O	
InChI=1S/C7H11NO/c1-5-2-7(3-5)6(9)4-8-7/h5,8H,2-4H2,1H3	InChI=1S/C7H11NO/c1-5-2-7(3-5)6(9)4-8-7/h5,8H,2-4H2,1H3/t5-,7-
