18
gdb 97387	2.83287	1.02499	0.83862	3.9693	78.68	-0.2469	-0.0329	0.214	1420.5742	0.144322	-439.071698	-439.062166	-439.061222	-439.106626	33.872	
C	 0.0717105915	 1.3205838272	-0.1710559779	-0.314676
N	 0.0543441037	-0.0793600882	 0.1987045119	-0.208876
C	-1.018480732	-0.7068966167	 0.0335983095	 0.129588
O	-1.0830344071	-2.0279694866	 0.3619460097	-0.242014
C	-2.3103425531	-2.658244053	 0.1656031175	 0.317497
C	-2.6515402644	-3.1707812338	-1.2332062249	-0.32089
C	-2.2196455141	-4.1294220752	-0.1702443252	-0.311414
C	-3.4389752291	-2.208343021	 1.0224051825	 0.122955
O	-3.3960164106	-1.2691834162	 1.7742172674	-0.263173
H	 0.8574953332	 1.4935574528	-0.9151409499	 0.12618
H	-0.8826142943	 1.6891617989	-0.5810294683	 0.097897
H	 0.3246831338	 1.9265749901	 0.7060535941	 0.132413
H	-1.9490332087	-0.2940100682	-0.3758753275	 0.088141
H	-3.6902070698	-3.1604479308	-1.5453648632	 0.132992
H	-1.9350210423	-2.9069154066	-2.0019082644	 0.147654
H	-1.2093860717	-4.5177061874	-0.2122674801	 0.154477
H	-2.9547596791	-4.7950573625	 0.2681919008	 0.133348
H	-4.3598587459	-2.8238472027	 0.898847668	 0.077902
58.5212	100.1186	138.0572	145.1931	201.1382	239.7219	295.5742	307.5623	349.1881	378.9273	487.502	534.8666	588.5879	773.0643	823.7811	867.2607	913.4586	965.5134	969.0787	1009.2888	1040.79	1064.8156	1072.1164	1092.097	1141.526	1147.7552	1197.5299	1213.194	1285.6563	1337.3348	1405.5168	1433.0674	1451.1251	1453.4526	1481.3895	1485.9403	1504.5665	1783.3655	1827.955	2868.2341	2971.2662	3039.1465	3061.0889	3080.8719	3141.621	3146.2115	3230.9638	3245.1985
CN=COC1(CC1)C=O	CN=COC1(CC1)C=O	
InChI=1S/C6H9NO2/c1-7-5-9-6(4-8)2-3-6/h4-5H,2-3H2,1H3	InChI=1S/C6H9NO2/c1-7-5-9-6(4-8)2-3-6/h4-5H,2-3H2,1H3
