17
gdb 35475	3.93591	1.15754	0.97228	5.1452	77.86	-0.2564	-0.0111	0.2453	1184.4086	0.138735	-380.867484	-380.859988	-380.859044	-380.899686	29.015	
N	 0.093823925	-1.189166582	 0.1730835212	-0.322143
C	 0.0519270444	-0.0372923732	 0.0895921006	 0.261089
C	-0.0087826882	 1.4232532192	-0.0103912725	-0.195193
C	-0.8273228384	 2.0157552644	 1.1700700744	-0.207226
C	-0.7342380104	 3.5360872758	 1.1991564184	-0.067222
N	 0.1953522534	 4.1037348579	 2.1966967371	-0.329582
C	 0.5302308641	 4.1739462876	 0.7531945558	-0.07221
C	 1.6207561594	 3.2902167904	 0.2689331884	-0.061879
C	 1.3863287335	 2.0299166491	-0.0899036839	-0.048673
H	-0.5375295073	 1.6458686222	-0.9492191072	 0.137992
H	-1.8679743041	 1.689320159	 1.0901962891	 0.116913
H	-0.4252860626	 1.6199946737	 2.1057662272	 0.141864
H	-1.6588120295	 4.0760728044	 1.0136762445	 0.093048
H	-0.1458518338	 5.0111191813	 2.5073133552	 0.233004
H	 0.4703544685	 5.1523571676	 0.2809482046	 0.096048
H	 2.6241384003	 3.701490787	 0.2025172639	 0.104669
H	 2.1825180658	 1.3917646558	-0.4583568567	 0.119501
77.9511	154.8726	198.9439	278.6985	381.6891	425.9658	477.8489	506.4043	563.366	602.3557	721.0711	739.6056	816.281	825.5321	906.2233	924.9724	949.6732	980.231	998.6226	1006.6678	1040.098	1081.2466	1112.0229	1164.4675	1184.0034	1220.8333	1241.0005	1265.9572	1290.1737	1311.7814	1341.7764	1391.5851	1418.7326	1454.8743	1480.9818	1713.0228	2359.4369	2998.0284	3062.7464	3113.7149	3124.9942	3142.9336	3164.7084	3193.3604	3488.2772
N#CC1CC2NC2C=C1	N#C[C@H]1C[C@H]2N[C@H]2C=C1	
InChI=1S/C7H8N2/c8-4-5-1-2-6-7(3-5)9-6/h1-2,5-7,9H,3H2	InChI=1S/C7H8N2/c8-4-5-1-2-6-7(3-5)9-6/h1-2,5-7,9H,3H2/t5-,6+,7-/m1/s1
