17
gdb 85146	2.0422	1.85274	1.16502	3.2824	68.97	-0.2282	-0.0342	0.194	1068.7058	0.134273	-458.940311	-458.931759	-458.930814	-458.973918	31.33	
O	 0.3515505332	 1.1515434695	-0.5264564368	-0.432943
C	 0.1637474465	-0.0771388915	 0.1274034092	 0.046987
C	-0.07210089	-0.0834009016	 1.67131243	-0.404979
C	-1.2527318432	-1.0384067482	 1.4127613816	 0.341238
O	-1.8680886816	-1.8150284215	 2.0822408941	-0.298115
C	-1.2476699185	-0.6843735284	-0.0893005219	 0.333815
C	-2.3916970351	 0.2074332465	-0.6354906752	-0.344295
C	-2.6002279266	-0.9520900848	-1.6298343186	-0.076686
O	-1.4687463898	-1.6733807929	-1.0857955889	-0.314524
H	 1.2556371106	 1.4450742606	-0.3790607977	 0.29264
H	 0.9213321892	-0.8191994635	-0.1589547724	 0.094547
H	 0.7237085286	-0.4530378331	 2.3204944885	 0.131276
H	-0.4146332777	 0.8931242565	 2.0303845117	 0.136932
H	-3.2131649967	 0.398759579	 0.0554972843	 0.123745
H	-2.0372811734	 1.1406320754	-1.071362226	 0.142942
H	-3.5314880484	-1.5149922648	-1.5059100853	 0.115761
H	-2.4561373869	-0.7136146874	-2.6888614468	 0.11166
75.0236	87.7964	161.9767	218.4059	239.7179	264.2632	298.6541	463.5625	487.5	554.1204	607.476	668.3636	778.5936	807.0929	858.8906	869.1258	921.9562	971.3015	1011.929	1026.0215	1071.5699	1106.1445	1131.0768	1152.444	1165.7502	1203.5275	1212.7057	1215.0381	1227.9791	1252.988	1311.6677	1352.1801	1417.4876	1440.2623	1482.7247	1528.2779	1893.5108	3017.9736	3034.7622	3058.0733	3081.3153	3094.4638	3128.0917	3159.7506	3827.3631
OC1CC(=O)C11CCO1	O[C@H]1CC(=O)[C@]21CCO2	
InChI=1S/C6H8O3/c7-4-3-5(8)6(4)1-2-9-6/h4,7H,1-3H2	InChI=1S/C6H8O3/c7-4-3-5(8)6(4)1-2-9-6/h4,7H,1-3H2/t4-,6+/m0/s1
