18
gdb 105123	2.42677	1.20818	0.94937	1.1696	87.12	-0.2411	0.0133	0.2544	1291.6319	0.144439	-364.721483	-364.711696	-364.710752	-364.755993	36.404	
C	 0.2440114182	 1.5207425529	 0.2468340269	-0.385444
C	-0.2222613056	 0.1143824944	-0.1394196885	-0.244895
C	 0.5725506214	-0.462631477	-1.3008150803	 0.125627
N	 1.911362964	-0.9822237956	-0.9486345703	-0.348033
C	 0.8763137546	-1.9459290638	-1.3768693492	-0.319371
C	 0.3815510685	-2.8845152877	-0.4091615502	 0.376049
C	-0.0522892152	-3.6892752609	 0.3716903955	-0.417045
C	 0.4285543127	 0.2133886562	-2.5667368677	 0.292917
C	 0.3163529525	 0.7929221764	-3.6152817054	-0.443392
H	 1.2989076188	 1.5078221132	 0.5371215041	 0.129963
H	 0.1285639836	 2.2201455264	-0.5869240435	 0.12495
H	-0.3372024187	 1.9019294656	 1.0914066267	 0.113451
H	-0.1154314339	-0.5657440929	 0.7096705001	 0.122548
H	-1.2831424149	 0.1243431662	-0.4147980995	 0.106726
H	 2.559135347	-0.8241754202	-1.7171922807	 0.243794
H	 0.9575650025	-2.341222712	-2.3866224152	 0.121725
H	-0.4287983791	-4.3972995631	 1.0679174466	 0.200171
H	 0.2134659738	 1.3020171319	-4.5416992192	 0.200257
81.2714	108.9734	119.9144	151.1658	215.0147	250.3963	263.863	345.607	396.6588	463.1522	532.1644	573.9093	603.693	614.3649	635.1126	658.8554	660.7651	673.0246	783.3909	823.0735	895.5929	949.7641	991.0212	1015.2971	1076.0815	1099.699	1115.4484	1205.8996	1245.6142	1305.4799	1329.7726	1372.6979	1408.1492	1425.3915	1475.8391	1498.052	1509.2799	2228.6628	2239.9841	3041.0064	3045.7885	3095.9096	3113.9029	3119.5969	3136.3643	3500.0829	3502.8157	3503.8396
CCC1(NC1C#C)C#C	CC[C@]1(N[C@H]1C#C)C#C	
InChI=1S/C8H9N/c1-4-7-8(5-2,6-3)9-7/h1-2,7,9H,6H2,3H3	InChI=1S/C8H9N/c1-4-7-8(5-2,6-3)9-7/h1-2,7,9H,6H2,3H3/t7-,8+/m0/s1
