17
gdb 34103	3.3951	1.51521	1.29155	3.8264	75.33	-0.2482	0.0208	0.269	991.4798	0.138918	-380.849865	-380.84297	-380.842026	-380.881017	27.68	
N	 0.082920168	-1.1258753561	-0.0022315692	-0.339764
C	 0.045813334	 0.0299142265	-0.0052450088	 0.18019
C	-0.0010145778	 1.4755979666	-0.0025725076	 0.162535
C	-0.9860725739	 2.1688309083	 0.9892568922	-0.192644
N	-1.53547135	 3.0516388758	-0.088454249	-0.144681
C	-0.3787896462	 3.6109125994	-0.8543844407	-0.017285
C	 0.9998907907	 3.6713831185	-0.2064876178	-0.260882
C	 1.3681910679	 2.186741491	 0.0458203274	-0.256769
C	-0.8075208021	 2.2238258933	-1.1090564721	-0.084138
H	-1.7804583367	 1.505549858	 1.3340129924	 0.137664
H	-0.5393419561	 2.6843948714	 1.8459455923	 0.111227
H	-0.693787449	 4.4067153253	-1.5202421173	 0.109329
H	 1.7150401635	 4.1564614761	-0.8759704164	 0.118375
H	 0.9819893809	 4.2574806821	 0.7180973733	 0.119126
H	 1.8706862615	 2.0217455987	 1.0029591942	 0.119798
H	 2.0149810338	 1.8004439317	-0.7475621299	 0.124337
H	-1.2721600582	 1.8036758836	-1.9923053228	 0.113581
151.5789	154.5285	248.7637	366.4064	413.003	490.8468	536.1854	555.8527	618.0079	704.315	745.8576	792.2978	826.5433	864.7073	919.1168	947.9945	955.9388	973.3613	1004.4131	1039.932	1057.0681	1102.5478	1130.6145	1169.3707	1195.1383	1209.9101	1222.4002	1244.2718	1276.1758	1292.28	1315.579	1356.7048	1387.6815	1483.8846	1493.5404	1513.9369	2353.7653	3048.6215	3053.7211	3058.9229	3092.3853	3110.6378	3126.3002	3176.5767	3196.3314
N#CC12CN3C(CC1)C23	N#C[C@@]12CN3[C@@H](CC1)[C@@H]23	
InChI=1S/C7H8N2/c8-3-7-2-1-5-6(7)9(5)4-7/h5-6H,1-2,4H2	InChI=1S/C7H8N2/c8-3-7-2-1-5-6(7)9(5)4-7/h5-6H,1-2,4H2/t5-,6-,7+,9?/m0/s1
