20
gdb 90430	2.20419	1.72233	1.3961	1.8734	73.67	-0.2124	0.0423	0.2547	1037.0159	0.171744	-440.229731	-440.221308	-440.220364	-440.262832	33.191	
C	 0.3515588896	 1.6124278757	 0.0280893392	-0.408205
C	 0.0952874386	 0.117492721	-0.022039572	 0.010567
C	 0.9308403627	-0.7410778453	-1.037764402	 0.095317
O	 1.9132554069	-0.1180775912	-1.8206075813	-0.438281
C	 1.3662820669	-1.6019414579	 0.1824117972	-0.07037
C	 2.6674216232	-1.227697921	 0.9477078261	 0.090088
O	 3.6918818269	-0.5160055603	 0.2580198958	-0.430993
C	 1.7942386325	-0.3091356251	 1.8254221225	-0.196539
N	 0.5412419659	-0.7507577993	 1.1342397041	-0.146518
H	 1.4133005983	 1.8654213886	-0.031646229	 0.120272
H	-0.1398022969	 2.0935716738	-0.8229003965	 0.126242
H	-0.0594359695	 2.0466523161	 0.9459076462	 0.121095
H	-0.978982636	-0.0496593438	-0.1582407911	 0.078648
H	 0.2930665739	-1.2954560088	-1.7327387587	 0.08628
H	 2.6494241236	 0.1052168	-1.2330984264	 0.288241
H	 1.1341972949	-2.6699868009	 0.1314024818	 0.06782
H	 3.1043182335	-2.0765041006	 1.4862202326	 0.086048
H	 4.2244519618	-1.1511202302	-0.2339836526	 0.295575
H	 1.7828839164	-0.5619186553	 2.8896529762	 0.109083
H	 2.0451518667	 0.7498315944	 1.724945408	 0.11563
41.2454	203.6929	227.3276	246.8886	295.9505	311.1167	357.4773	401.799	456.4838	531.4027	613.1072	659.7838	665.4296	732.9276	768.5685	811.0419	851.4198	921.5295	948.1932	984.9283	1005.4945	1008.1613	1024.7497	1106.8307	1142.3999	1152.8313	1168.6994	1193.9322	1215.0462	1234.0037	1241.8267	1285.7989	1290.6174	1311.7939	1332.8654	1344.1532	1377.4222	1409.087	1423.8833	1482.2347	1488.6839	1490.8245	1512.6907	3027.7378	3029.6456	3038.9425	3050.44	3054.888	3068.6369	3105.1968	3107.3785	3117.359	3709.3831	3803.03
CC1C(O)C2C(O)CN12	C[C@H]1[C@@H](O)[C@H]2[C@@H](O)CN12	
InChI=1S/C6H11NO2/c1-3-6(9)5-4(8)2-7(3)5/h3-6,8-9H,2H2,1H3	InChI=1S/C6H11NO2/c1-3-6(9)5-4(8)2-7(3)5/h3-6,8-9H,2H2,1H3/t3-,4-,5+,6+/m0/s1
