13
gdb 18847	4.02865	2.49477	2.07246	4.0198	61.06	-0.2407	-0.0313	0.2094	667.7867	0.097102	-361.43558	-361.430097	-361.429152	-361.464963	22.137	
O	-0.0426925606	 0.0522623987	 0.0415060288	-0.309141
C	-0.0573862936	 1.2420768152	 0.0741935195	 0.442949
C	-1.1697313365	 2.3211539418	-0.012317361	-0.233376
C	-1.385883635	 2.7594413062	 1.4232468024	-0.089229
C	-0.2756465324	 3.356571864	 1.8653395017	-0.084699
C	 0.7133145337	 3.4419933155	 0.7462708916	-0.053343
C	 0.0128211794	 3.1903161522	-0.5162943809	-0.044297
N	 1.0560649553	 2.1594103152	-0.033251392	-0.218197
H	-2.0395946428	 2.111031429	-0.6295880874	 0.103674
H	-2.2510975113	 2.4690962087	 2.0039030242	 0.124637
H	-0.0671936221	 3.6976473564	 2.8699279109	 0.117515
H	 1.5874305059	 4.0793441989	 0.8000425296	 0.117398
H	 0.1331042399	 3.6794937081	-1.4741317375	 0.12611
154.9356	352.7604	447.0882	501.1893	608.7929	668.8464	709.2555	726.6733	805.9999	827.673	838.6817	842.8211	889.6306	937.0232	946.9182	971.4496	989.353	1047.8946	1072.5792	1122.7713	1141.3008	1224.9972	1248.4378	1267.7789	1350.2797	1359.0874	1643.418	1905.8735	3155.3779	3192.8426	3207.3204	3219.7486	3243.8562
O=C1C2C=CC3C2N13	O=C1[C@H]2C=C[C@@H]3[C@H]2N13	
InChI=1S/C6H5NO/c8-6-3-1-2-4-5(3)7(4)6/h1-5H	InChI=1S/C6H5NO/c8-6-3-1-2-4-5(3)7(4)6/h1-5H/t3-,4+,5-,7?/m0/s1
