19
gdb 71797	3.81827	1.69552	1.56766	1.194	77.09	-0.2335	0.0973	0.3308	924.0169	0.162191	-385.878539	-385.87209	-385.871146	-385.908911	27.777	
C	-0.0476768559	 1.4677981129	-0.0021601603	-0.496585
C	-0.0066349748	-0.0280393775	 0.0026784768	 0.441809
O	-1.1920032952	-0.6597015455	-0.4342676384	-0.277147
C	-0.8190846622	-2.0021438929	-0.3072176284	 0.087246
C	 0.6255155788	-2.2301966387	-0.8856963434	-0.086061
C	 0.8540774505	-3.2139451212	 0.2953305145	-0.236662
C	-0.0857866886	-2.2433399327	 1.0630448787	-0.086056
C	 0.6536128228	-0.8999327841	 1.0544468959	-0.150417
C	 1.1796616434	-0.8901861049	-0.3868716483	-0.150416
H	 0.9046057157	 1.8757325245	 0.3478029168	 0.121582
H	-0.2335999575	 1.8485906419	-1.0114180335	 0.129284
H	-0.8412102201	 1.8373539791	 0.6550363572	 0.129277
H	-1.6181119407	-2.6771544648	-0.6034240802	 0.084125
H	 0.807404182	-2.5027321	-1.9245262718	 0.063785
H	 0.3971013239	-4.1931574176	 0.1219373926	 0.095652
H	 1.8741978525	-3.3373653195	 0.6668502413	 0.097372
H	-0.6146551306	-2.5289994355	 1.9714632942	 0.063787
H	 1.1938996307	-0.5036637332	 1.903632467	 0.084713
H	 2.1381782152	-0.4861582602	-0.6836245708	 0.084711
190.9283	229.9082	278.8041	428.4053	481.8573	574.0668	613.3111	707.2879	711.467	742.88	816.6786	821.8063	830.6427	842.3351	884.1462	909.5901	944.5676	952.8582	965.743	996.48	1016.9419	1036.2407	1051.0831	1078.2445	1104.4913	1105.6163	1118.5755	1170.5585	1178.2443	1201.6945	1214.1087	1239.0582	1255.8855	1294.7266	1295.913	1347.3804	1402.1641	1441.2427	1478.3489	1500.2549	1502.1176	3038.9299	3053.2449	3104.4091	3111.86	3117.5404	3121.3192	3122.7904	3160.436	3198.9199	3207.6668
CC12OC3C4CC3C1C24	C[C@]12O[C@H]3[C@@H]4C[C@H]3[C@H]1[C@H]24	
InChI=1S/C8H10O/c1-8-5-3-2-4(6(5)8)7(3)9-8/h3-7H,2H2,1H3	InChI=1S/C8H10O/c1-8-5-3-2-4(6(5)8)7(3)9-8/h3-7H,2H2,1H3/t3-,4+,5-,6+,7+,8-
