17
gdb 81612	4.01927	0.93199	0.89346	3.1882	73.08	-0.265	0.0289	0.2939	1308.2839	0.137393	-417.943776	-417.935984	-417.935039	-417.9768	29.821	
O	-0.043922201	 1.4555429303	-0.2220930812	-0.445271
C	-0.0562414244	 0.0732698572	-0.1795655299	 0.214851
C	-0.0629277181	-0.6422151093	 1.211309564	-0.085794
N	-1.4630738212	-0.057200087	 1.3623075786	-0.359737
C	-1.4276290616	-0.6660557018	-0.033604199	-0.11422
C	-0.6802078461	-1.9016979831	 0.542103308	 0.029616
C	 0.1265225042	-2.8644324032	-0.3450186827	-0.397488
C	 0.9853676763	-3.7359704644	 0.4555293783	 0.263414
N	 1.6542484398	-4.4125724817	 1.1114073	-0.303472
H	-0.6694906091	 1.7336174901	 0.4645110008	 0.293655
H	 0.6395108924	-0.2913549216	-0.9333861962	 0.084835
H	 0.6704580257	-0.5879592773	 2.016354601	 0.101044
H	-2.0241675075	-0.640251068	 1.9895584133	 0.217058
H	-2.2976582699	-0.6384839725	-0.6917377853	 0.090291
H	-1.2983299661	-2.4773735497	 1.2382213892	 0.092996
H	-0.5631529414	-3.492768407	-0.9209834797	 0.158171
H	 0.7503386579	-2.3385472808	-1.0728160991	 0.160053
47.7458	116.7207	234.586	279.8694	351.0618	373.9463	389.4956	474.6346	601.359	606.6509	660.3197	761.4362	803.6812	826.5633	868.2824	904.3029	915.4282	960.5976	985.1147	1037.0205	1066.8248	1112.8995	1123.4523	1148.3669	1158.2382	1178.5152	1183.22	1232.8047	1265.5022	1270.9797	1284.4185	1317.1173	1346.0481	1418.158	1461.5391	1482.7681	2361.8392	3048.7896	3060.424	3100.0943	3105.8926	3118.6324	3140.7364	3404.4419	3718.0184
OC1C2NC1C2CC#N	O[C@H]1[C@H]2N[C@@H]1[C@H]2CC#N	
InChI=1S/C6H8N2O/c7-2-1-3-4-6(9)5(3)8-4/h3-6,8-9H,1H2	InChI=1S/C6H8N2O/c7-2-1-3-4-6(9)5(3)8-4/h3-6,8-9H,1H2/t3-,4-,5+,6-
