15
gdb 65456	3.25494	0.94256	0.8578	5.1662	69.91	-0.261	-0.0033	0.2577	1332.084	0.111236	-453.95548	-453.946535	-453.94559	-453.990043	31.923	
O	-0.0876422603	 1.3693263355	-0.0355816721	-0.449939
C	 0.0140614889	-0.0242514608	 0.0133932014	 0.195878
C	-0.4512363208	-0.7330740092	 1.2809463026	-0.3532
C	-1.3249037749	-0.7337079624	 0.0540839871	 0.026596
N	-2.4858529811	 0.0871878353	-0.0301427296	-0.287915
C	-3.6910692552	-0.4168796496	-0.4239176382	 0.15665
O	-3.9159036602	-1.5884885967	-0.6312255373	-0.315244
C	 1.0999008902	-0.5870673825	-0.757090177	 0.257181
N	 1.983662382	-1.0288048358	-1.358283097	-0.334719
H	 0.6324664212	 1.7516079182	 0.4792832218	 0.306158
H	 0.0405043342	-1.6560328145	 1.5650662093	 0.150498
H	-0.7314728411	-0.0735533615	 2.0949580036	 0.133633
H	-1.4350599884	-1.6626109672	-0.4913727173	 0.16144
H	-2.352046216	 1.0858106857	 0.0233439318	 0.266623
H	-4.4524594685	 0.3800217054	-0.523993799	 0.086359
34.6757	112.2206	148.505	206.5213	232.0926	274.0499	326.8642	348.4717	449.4211	470.5043	551.5359	574.8871	602.2351	703.8532	751.3052	878.2528	898.9346	927.0736	1024.879	1034.0867	1050.0604	1082.0678	1133.9824	1236.8847	1242.7703	1261.3516	1333.1724	1390.4404	1428.6001	1463.0687	1531.5805	1806.927	2350.3691	2954.684	3140.3603	3207.3342	3240.4436	3624.249	3798.2941
OC1(CC1NC=O)C#N	O[C@]1(C[C@H]1NC=O)C#N	
InChI=1S/C5H6N2O2/c6-2-5(9)1-4(5)7-3-8/h3-4,9H,1H2,(H,7,8)	InChI=1S/C5H6N2O2/c6-2-5(9)1-4(5)7-3-8/h3-4,9H,1H2,(H,7,8)/t4-,5-/m1/s1
