19
gdb 83450	2.87838	1.15483	1.03947	1.873	81.15	-0.2434	0.0524	0.2958	1234.9259	0.157827	-385.821481	-385.812477	-385.811533	-385.855333	34.339	
O	-0.3261345466	 1.4604151751	-0.0503848389	-0.421208
C	-0.2162945059	 0.0660234758	-0.0326990706	 0.069154
C	-0.4215651304	-0.7593729537	 1.210609281	-0.189447
C	-1.4615102398	-0.0940217269	 2.119999808	-0.219954
C	-2.4872441136	-0.1015802819	 0.9439152967	-0.271298
C	-1.4426969515	-0.7769639606	 0.0428070159	 0.332234
C	-1.7590937225	-1.8660939317	-0.9592735168	-0.47203
C	-2.5293692783	-1.3752316109	-2.1001060846	 0.318919
C	-3.1693746471	-0.9500010484	-3.0241991525	-0.456362
H	 0.4313206926	 1.8247571038	 0.4196760704	 0.286408
H	 0.547244575	-0.3313798376	-0.7041082516	 0.082143
H	 0.2945116641	-1.5160693573	 1.5138347665	 0.080545
H	-1.7702614913	-0.7342965991	 2.9485188183	 0.101082
H	-1.1859381254	 0.8875344446	 2.5159852174	 0.094526
H	-3.342346593	-0.7517979014	 1.1434142317	 0.099592
H	-2.8475735881	 0.8691600181	 0.5986328575	 0.116482
H	-0.8261367148	-2.3225700752	-1.3147750448	 0.126543
H	-2.3204531302	-2.6701819267	-0.463706335	 0.127687
H	-3.7306777733	-0.5773360761	-3.8445931487	 0.194985
54.0215	96.4194	210.2277	233.3601	256.7595	292.5824	301.5735	348.6846	426.3497	470.4397	575.2451	619.5419	636.2883	706.3155	764.2136	791.2888	805.3757	905.7312	916.6033	946.0731	961.9253	963.8176	1004.8717	1037.6481	1084.6373	1125.8119	1138.8917	1195.4826	1220.3437	1243.5743	1246.7236	1270.6299	1293.9795	1321.8773	1334.8643	1350.8343	1464.6057	1468.3135	1475.646	1508.3766	2237.8371	3008.4515	3041.1335	3056.52	3068.7097	3086.5358	3106.781	3126.78	3162.965	3507.7719	3804.7748
OC1C2CCC12CC#C	O[C@H]1[C@H]2CC[C@@]12CC#C	
InChI=1S/C8H10O/c1-2-4-8-5-3-6(8)7(8)9/h1,6-7,9H,3-5H2	InChI=1S/C8H10O/c1-2-4-8-5-3-6(8)7(8)9/h1,6-7,9H,3-5H2/t6-,7+,8-/m1/s1
