20
gdb 77539	2.92161	1.28159	1.05518	4.5669	85.48	-0.2974	0.0286	0.326	1205.8577	0.17084	-365.994635	-365.98577	-365.984826	-366.027763	34.07	
C	-0.1571327954	 1.5838701355	 0.0504019652	-0.449958
C	 0.0190378417	 0.0757261516	 0.006474445	-0.015434
C	 0.8660517406	-0.6436227832	-1.1069994089	 0.29873
C	 0.6015382689	-0.6519847292	-2.5870892592	-0.514024
C	 2.157102024	-0.1489792846	-0.3765873294	-0.302059
C	 1.2009904342	-0.6397730721	 0.7525991985	 0.217363
C	 0.9088943798	-1.8769485104	-0.1489191623	-0.291016
C	 1.45404099	-0.6357716637	 2.1708823611	 0.153249
N	 1.6484284978	-0.621591501	 3.3112572613	-0.356374
H	 0.7629567864	 2.1403022017	-0.1428577312	 0.123631
H	-0.8961262704	 1.8960471177	-0.6955501872	 0.124541
H	-0.5322521556	 1.8937910114	 1.0313628158	 0.136454
H	-0.9431379955	-0.4153349454	 0.1924908174	 0.076362
H	 0.6218026821	 0.363242618	-2.9979100648	 0.125526
H	 1.3553584051	-1.2427490756	-3.1184792285	 0.125638
H	-0.38060903	-1.084036445	-2.8076659899	 0.124398
H	 3.0572273272	-0.7503413776	-0.5257938927	 0.105645
H	 2.3898399537	 0.9153936247	-0.4059381609	 0.108288
H	-0.0356871952	-2.3952069335	 0.0347067428	 0.104478
H	 1.7380336905	-2.5756255992	-0.2830434718	 0.104563
121.9743	140.1121	170.0171	192.0732	202.849	300.1447	345.3744	361.1711	512.456	526.4641	534.4217	560.1569	604.5208	635.5947	754.3672	798.6959	810.5392	945.8039	964.6874	994.782	1011.8912	1032.7929	1072.6843	1102.1916	1118.8125	1137.5827	1147.2779	1162.7947	1174.9638	1194.1154	1209.1934	1269.0194	1346.4979	1406.0949	1412.1036	1424.4676	1488.0755	1488.5564	1492.5593	1494.1932	1511.0998	1548.6197	2347.0211	3028.8544	3036.6677	3041.1942	3057.5209	3073.1893	3096.8157	3097.4969	3098.4673	3119.4888	3127.7755	3143.6123
CC1C2(C)CC1(C2)C#N	C[C@H]1[C@@]2(C)C[C@@]1(C2)C#N	
InChI=1S/C8H11N/c1-6-7(2)3-8(6,4-7)5-9/h6H,3-4H2,1-2H3	InChI=1S/C8H11N/c1-6-7(2)3-8(6,4-7)5-9/h6H,3-4H2,1-2H3/t6-,7-,8+/m0/s1
