15
gdb 55607	2.67343	1.19692	0.82979	6.5359	66.7	-0.2489	-0.0223	0.2266	1294.7313	0.113647	-487.346367	-487.337394	-487.33645	-487.381016	31.875	
N	-0.2083222724	 0.5376410955	 1.2767070468	-0.570257
C	 0.0659521213	-0.1758491449	 0.1231496007	 0.478481
O	 0.8843081867	 0.1644515805	-0.6932072519	-0.339911
N	-0.6912033908	-1.361519395	 0.0739697607	-0.44519
C	-0.7103360159	-2.2487885135	-0.9767775361	 0.515031
O	-0.1643803358	-2.1527061816	-2.0456141276	-0.351509
N	-1.5027779896	-3.4014829961	-0.709834366	-0.365454
C	-2.2347425633	-3.76218803	 0.3923982918	 0.13066
N	-2.3340881053	-3.0481537835	 1.4473216786	-0.484771
H	 0.181982166	 1.4669368309	 1.2751291125	 0.265331
H	-1.1150783741	 0.4490845304	 1.708345054	 0.257453
H	-1.2320072948	-1.6532283157	 0.8930164919	 0.28445
H	-1.4977750014	-4.0303522423	-1.4980801862	 0.269268
H	-2.7214312101	-4.733087745	 0.2565511991	 0.118095
H	-2.9174819905	-3.49824211	 2.1451925515	 0.238322
45.9372	105.0874	119.242	144.6805	249.0336	262.0387	382.8119	399.3175	434.9314	514.5289	527.3411	601.7395	660.0966	748.8793	761.2865	778.2005	790.4025	811.1347	931.5202	1027.3865	1048.0053	1112.6689	1143.8361	1215.5796	1269.8773	1346.159	1412.9861	1505.3916	1602.0725	1634.2108	1720.1605	1815.2761	1881.8352	3076.8658	3329.6509	3545.6825	3583.2214	3641.7272	3704.4217
NC(=O)NC(=O)NC=N	NC(=O)NC(=O)NC=N	
InChI=1S/C3H6N4O2/c4-1-6-3(9)7-2(5)8/h1H,(H5,4,5,6,7,8,9)	InChI=1S/C3H6N4O2/c4-1-6-3(9)7-2(5)8/h1H,(H5,4,5,6,7,8,9)
