19
gdb 112834	2.73945	1.3452	1.05174	2.8484	71.12	-0.2512	0.0803	0.3315	1180.8422	0.158877	-460.14568	-460.13712	-460.136175	-460.179065	32.301	
C	 0.2699902084	 1.4921951898	-0.2731117102	-0.403417
C	 0.0583505283	 0.0027126888	-0.0489131043	 0.113039
O	 0.6433923022	-0.7140292504	-1.1423009967	-0.305187
C	 1.1989931776	-1.9608953469	-0.7072720518	 0.079696
C	 2.4439251458	-2.2111502035	-1.5524767878	-0.068222
O	 2.1363742937	-2.2050571601	-2.932294861	-0.425123
C	 1.4349102819	-1.7851781606	 0.7786015639	-0.004044
O	 2.1580816468	-0.5849543125	 1.089603534	-0.250148
C	 0.7296366678	-0.5714311129	 1.186115257	 0.013353
H	 1.3383743542	 1.7208710788	-0.2570683903	 0.139798
H	-0.1409402694	 1.7910945729	-1.2409298837	 0.127704
H	-0.2313069898	 2.0732914473	 0.5072787133	 0.115822
H	-1.0196025309	-0.22378824	 0.0143419311	 0.075068
H	 0.4737063918	-2.7760492734	-0.8649146668	 0.078745
H	 3.1945914445	-1.4500770993	-1.2950789916	 0.105146
H	 2.8594388573	-3.1981905029	-1.322099806	 0.103695
H	 1.6707019687	-1.376195595	-3.0943846073	 0.292396
H	 1.6088491631	-2.6381473644	 1.428400162	 0.106964
H	 0.3113893079	-0.4127529757	 2.1764747461	 0.104716
82.5851	118.9809	151.9899	211.8159	240.6697	305.1922	377.0263	439.2954	453.3636	500.0434	541.4188	668.9844	768.3272	824.9057	840.2811	867.2808	913.1606	941.0715	980.3905	1017.4617	1050.3988	1077.1255	1079.8218	1110.9016	1116.051	1129.5968	1155.6719	1229.6673	1254.5063	1300.411	1324.5966	1329.0661	1358.067	1376.0668	1396.7006	1407.217	1435.6512	1444.6604	1486.5498	1499.1924	1499.9711	2961.0555	2975.1842	3006.7156	3046.2214	3075.5609	3118.4471	3134.5215	3151.4388	3164.8581	3798.7033
CC1OC(CO)C2OC12	C[C@H]1O[C@@H](CO)[C@H]2O[C@@H]12	
InChI=1S/C6H10O3/c1-3-5-6(9-5)4(2-7)8-3/h3-7H,2H2,1H3	InChI=1S/C6H10O3/c1-3-5-6(9-5)4(2-7)8-3/h3-7H,2H2,1H3/t3-,4+,5+,6-/m1/s1
