19
gdb 77692	2.65906	1.35528	1.20146	2.0985	71.88	-0.2521	0.0605	0.3127	1119.0719	0.156155	-460.12304	-460.113689	-460.112745	-460.15656	35.704	
C	-0.1258599921	 1.5411302625	-0.0098705006	-0.443252
C	-0.05593407	 0.0202692982	-0.030665951	 0.347326
O	-1.328054958	-0.572762275	-0.2042827927	-0.490011
C	 1.1146220872	-0.532855372	-0.9198836749	-0.373221
C	 1.9460165391	-0.6435595095	 0.3595448503	 0.415172
C	 3.2776981423	-1.1630196673	 0.6503714286	-0.271705
O	 3.0235308844	 0.2496512248	 0.5986398024	-0.262772
C	 0.6771038895	-0.5769465452	 1.2118196477	 0.026255
O	 0.78081968	 0.1530769832	 2.4008078596	-0.421628
H	 0.8566661431	 1.9778602682	 0.185206331	 0.151569
H	-0.4818083245	 1.9200729542	-0.9759938427	 0.101339
H	-0.8106334532	 1.8797611762	 0.7725909941	 0.118216
H	-1.7655369045	-0.1407036834	-0.9457559691	 0.27613
H	 0.860238375	-1.5047559427	-1.3504927455	 0.108874
H	 1.5157120694	 0.1290380129	-1.6902916018	 0.112046
H	 3.4984118734	-1.5565528526	 1.641900477	 0.118809
H	 3.8952384894	-1.5558791115	-0.156662926	 0.11232
H	 0.2857572347	-1.5919006343	 1.3763595336	 0.082639
H	-0.0255341953	 0.0181262733	 2.9082398101	 0.291895
74.2049	198.8365	220.4155	237.5073	249.522	264.5125	275.2108	295.4833	349.9609	363.586	414.7381	530.3385	545.3636	608.3646	737.5961	795.6229	829.3803	872.6353	900.861	918.0187	969.8419	980.0222	1066.1934	1104.2985	1122.6524	1143.371	1157.7541	1177.595	1182.8214	1200.7744	1221.7338	1241.2483	1315.441	1370.4075	1408.4409	1421.4744	1449.8223	1477.3756	1489.9988	1497.0438	1541.318	2998.0586	3027.1864	3064.483	3079.0166	3100.7764	3126.9096	3131.1166	3165.5055	3803.6724	3825.4998
CC1(O)CC2(CO2)C1O	C[C@@]1(O)C[C@]2(CO2)[C@H]1O	
InChI=1S/C6H10O3/c1-5(8)2-6(3-9-6)4(5)7/h4,7-8H,2-3H2,1H3	InChI=1S/C6H10O3/c1-5(8)2-6(3-9-6)4(5)7/h4,7-8H,2-3H2,1H3/t4-,5+,6-/m0/s1
