25
gdb 93947	3.83567	0.87662	0.75974	0.1239	93.15	-0.2647	0.0858	0.3505	1608.5534	0.230455	-352.366946	-352.357493	-352.356549	-352.402266	36.523	
C	-0.1078547803	 1.5876331707	-0.1809315957	-0.408048
C	 0.0039151009	 0.0651150865	-0.1225970159	 0.067499
C	 0.9679268962	-0.5534710192	-1.1531286223	-0.209286
C	 1.2214693499	-1.9597666519	-0.599466035	-0.221916
C	 1.3856314082	-1.739913505	 0.9239813688	 0.036723
C	 0.5074448858	-0.4870061313	 1.2383183891	-0.23643
C	 1.0533621655	-2.955256425	 1.7595982326	 0.027705
C	 2.0767971808	-4.0391731379	 1.988792394	-0.274837
C	 1.6569749105	-3.142883376	 3.1290625915	-0.276353
H	 0.8661338113	 2.0579408468	 0.0002243154	 0.109247
H	-0.4642516138	 1.9261221298	-1.1601287369	 0.108573
H	-0.8042686928	 1.9675150639	 0.5746003189	 0.110323
H	-0.9916151514	-0.3586256112	-0.3141301215	 0.065498
H	 0.5633300728	-0.5492908025	-2.1703611185	 0.087626
H	 1.906434499	 0.0181191076	-1.174583651	 0.088123
H	 0.3457079964	-2.5947667457	-0.789179224	 0.090029
H	 2.0841930279	-2.4623056142	-1.0463892403	 0.089964
H	 2.4356821626	-1.4820296039	 1.1153081313	 0.058554
H	 1.0973394884	 0.2720089227	 1.7638860753	 0.09066
H	-0.327380888	-0.7408430089	 1.8994953981	 0.093203
H	 0.0247305354	-3.2946830659	 1.6488953174	 0.07404
H	 1.7478478912	-5.0725250644	 1.9970758581	 0.107322
H	 3.0680209557	-3.8944653482	 1.5708646736	 0.107342
H	 2.3673738319	-2.3988901589	 3.4751094303	 0.107315
H	 1.0406658859	-3.564547278	 3.9155174665	 0.107125
21.8845	81.0755	151.4009	191.0778	242.0296	274.3333	294.4106	357.8884	418.2803	451.8914	542.1733	589.9933	761.4829	798.3045	822.1932	825.4519	862.5491	896.8639	914.3095	919.9248	949.7093	963.1366	986.5809	1004.839	1036.4508	1054.9842	1070.9424	1078.6549	1103.8276	1120.102	1137.0576	1160.3398	1198.0441	1218.6189	1226.0432	1234.2947	1260.1838	1290.7781	1303.2877	1320.1806	1327.0381	1347.2349	1352.215	1384.042	1410.1971	1426.036	1469.3743	1488.1603	1492.4275	1497.0653	1498.8832	1504.9773	1507.7659	2998.8898	3005.1917	3013.1824	3021.3961	3023.5274	3039.4189	3075.348	3077.1715	3085.0537	3089.345	3091.4138	3116.8819	3126.2671	3131.6266	3203.5565	3218.7593
CC1CCC(C1)C1CC1	C[C@H]1CC[C@@H](C1)C1CC1	
InChI=1S/C9H16/c1-7-2-3-9(6-7)8-4-5-8/h7-9H,2-6H2,1H3	InChI=1S/C9H16/c1-7-2-3-9(6-7)8-4-5-8/h7-9H,2-6H2,1H3/t7-,9-/m0/s1
