23
gdb 76405	2.75216	1.13138	1.00739	1.2242	86.74	-0.2358	0.065	0.3008	1344.2337	0.20374	-388.267755	-388.257401	-388.256457	-388.302788	38.921	
C	-0.1260646161	 0.8608426542	-2.0173518725	-0.425209
C	-0.0019175637	-0.2871644553	-1.0385745101	-0.085526
C	 1.3047754766	-0.6210735018	-0.3279303923	-0.060007
C	 2.5815146499	 0.1606801682	-0.5503590788	-0.409547
C	 0.1470009621	-0.0478412525	 0.4540214061	 0.345751
O	 0.3303470024	 1.2783073676	 0.8861757789	-0.463867
C	-0.5922901401	-0.9217817657	 1.427819593	-0.017149
C	-0.3685924572	-0.7819818419	 2.9115586209	-0.264641
C	-1.6889109794	-0.3694530673	 2.3064621303	-0.286247
H	 0.3837631897	 1.7574875255	-1.6582292138	 0.125242
H	 0.3013175011	 0.6000102	-2.9917589331	 0.118723
H	-1.1785009735	 1.1197595624	-2.1827025247	 0.111077
H	-0.6095377979	-1.1507116531	-1.300993149	 0.076327
H	 1.4678255827	-1.6844289794	-0.166747043	 0.078409
H	 2.4011131074	 1.2364894668	-0.5548721508	 0.131725
H	 3.3000288035	-0.0453915761	 0.2502008567	 0.116579
H	 3.054075025	-0.1162992206	-1.4993807398	 0.109409
H	-0.4933250704	 1.7554085516	 0.7381603333	 0.285855
H	-0.7481522177	-1.9320541541	 1.0595240944	 0.078296
H	-0.3321852088	-1.6808226058	 3.5169192297	 0.105805
H	 0.2923134619	 0.0142827364	 3.2338360094	 0.124175
H	-1.8990259895	 0.6939868191	 2.2614761502	 0.096171
H	-2.5629683078	-0.9858506382	 2.4851462249	 0.10865
63.6643	127.7325	140.8482	160.798	180.3373	221.6226	232.4112	296.0683	311.3719	351.3275	363.528	523.1857	534.2182	585.5422	691.9739	778.2083	790.5678	794.0834	842.5281	892.9767	933.6677	948.2552	1016.9691	1024.9837	1044.6829	1057.2314	1065.2158	1081.3508	1090.9795	1134.3599	1137.9839	1144.7863	1176.3619	1197.7792	1224.3143	1240.661	1274.9505	1339.3373	1371.9021	1390.2588	1408.9229	1418.1517	1457.5284	1462.4877	1489.4049	1495.3129	1502.1249	1505.1983	1516.4881	3028.9931	3035.1357	3081.6177	3088.5177	3111.8407	3123.3093	3128.7206	3130.6639	3138.1206	3142.2058	3146.6214	3210.3702	3230.9087	3799.6866
CC1C(C)C1(O)C1CC1	C[C@H]1[C@@H](C)[C@]1(O)C1CC1	
InChI=1S/C8H14O/c1-5-6(2)8(5,9)7-3-4-7/h5-7,9H,3-4H2,1-2H3	InChI=1S/C8H14O/c1-5-6(2)8(5,9)7-3-4-7/h5-7,9H,3-4H2,1-2H3/t5-,6+,8-
