22
gdb 68042	2.12536	1.80454	1.27527	1.5052	87.31	-0.2336	0.0737	0.3074	1118.6958	0.193705	-367.147437	-367.138476	-367.137532	-367.180266	35.478	
C	-0.0135305915	 1.4752280861	 0.0348543107	-0.518801
C	 0.0070216478	-0.0288949762	 0.0186705138	 0.232076
C	 0.6001738924	-0.9725172902	-1.081510529	-0.298682
C	 0.0185971751	-1.9454572373	-0.0025136736	 0.257612
C	 0.007955447	-3.4480243162	-0.025903788	-0.51631
C	 0.6531654983	-0.9947386008	 1.0640619715	-0.292058
C	-1.192637489	-0.995284993	 0.0385278719	 0.388523
C	-2.4907517673	-0.9903255854	 0.7223649499	-0.362127
N	-2.3905617847	-1.053126399	-0.7716673571	-0.412892
H	 1.0012153765	 1.8840307838	-0.0137336786	 0.124032
H	-0.5709470305	 1.8738988346	-0.8210219131	 0.115054
H	-0.4832648821	 1.854852665	 0.9492447064	 0.119483
H	 0.1023313999	-0.9695158104	-2.0547715732	 0.095235
H	 1.6900719077	-0.963693565	-1.1834578837	 0.08151
H	 1.0229802007	-3.8520620544	-0.1034202989	 0.116289
H	-0.444861031	-3.8529122281	 0.8860885801	 0.116898
H	-0.5704883158	-3.8154354018	-0.8800837503	 0.131798
H	 1.7465343322	-0.987081397	 1.1067792454	 0.083917
H	 0.2096024206	-1.0068897106	 2.0640498699	 0.086552
H	-2.8891844544	-1.8911027276	 1.1824324208	 0.117205
H	-2.8411604064	-0.0642960906	 1.1732178139	 0.108573
H	-2.6081355557	-0.1401094361	-1.166977979	 0.226112
168.4537	176.1739	191.5568	203.3043	210.4383	238.0901	249.3693	385.2913	458.2271	477.478	586.6448	612.8057	631.7299	667.9168	748.1611	779.8617	891.7496	905.792	910.504	938.4116	964.5046	992.289	1009.3021	1019.0537	1050.1003	1062.2	1102.2957	1108.3606	1128.1707	1170.8455	1183.9334	1195.8795	1203.0084	1209.2595	1256.5727	1332.1693	1341.45	1408.4856	1410.317	1442.1863	1487.9431	1489.0051	1489.5818	1491.2325	1492.6287	1514.4564	1555.8926	3023.1202	3027.6975	3040.0598	3045.2116	3086.0695	3092.8503	3095.5553	3097.9351	3100.108	3107.2095	3112.07	3179.5525	3476.0797
CC12CC(C)(C1)C21CN1	C[C@@]12C[C@@](C)(C1)[C@]12CN1	
InChI=1S/C8H13N/c1-6-3-7(2,4-6)8(6)5-9-8/h9H,3-5H2,1-2H3	InChI=1S/C8H13N/c1-6-3-7(2,4-6)8(6)5-9-8/h9H,3-5H2,1-2H3/t6-,7+,8-
