22
gdb 113948	2.6945	1.01839	0.80509	2.5688	83.59	-0.2201	0.0933	0.3134	1494.757	0.192913	-404.293512	-404.283782	-404.282838	-404.329036	35.545	
C	 0.5127143044	 1.7063258861	 0.1608598128	-0.37302
C	-0.0614657353	 0.295857411	 0.0487215174	-0.120996
N	 0.4899065024	-0.369852504	-1.1298490987	-0.072099
C	 1.6640175903	-1.2152018104	-0.9476932158	-0.27158
C	 0.3470613795	-1.8122712512	-1.312015563	 0.026694
C	-0.4016600423	-2.7244154194	-0.3546963606	-0.26778
C	-1.8809541362	-2.8011180294	-0.6599267208	 0.10966
C	-2.8910011081	-3.0023575365	 0.3857341416	-0.185879
O	-2.7004881565	-1.7180114489	-0.2116603483	-0.224985
H	 1.5999919656	 1.6791517266	 0.2900427815	 0.112863
H	 0.2963666019	 2.2807645092	-0.7441829634	 0.124914
H	 0.0828625376	 2.2310302639	 1.019885784	 0.107683
H	 0.1437864742	-0.2548215578	 0.9827114834	 0.073493
H	-1.1491704816	 0.3292127521	-0.0639893817	 0.129094
H	 2.458831278	-1.1155292435	-1.683064765	 0.11052
H	 2.0117789434	-1.3826022303	 0.0728889501	 0.100213
H	 0.1943427188	-2.0838411515	-2.3578968627	 0.085511
H	 0.0183402125	-3.736075836	-0.4435757634	 0.107445
H	-0.2613295242	-2.4141790239	 0.6846485297	 0.105764
H	-2.1261863517	-3.1416913307	-1.6683343843	 0.093686
H	-3.8334491562	-3.4936949765	 0.1479889482	 0.115693
H	-2.5758107564	-3.0850746489	 1.425470709	 0.113106
56.3187	74.9638	84.078	158.3141	177.9503	230.6766	291.8908	352.2205	383.1982	414.4774	477.4584	541.3642	734.8642	781.3235	808.0056	818.0506	859.9999	912.7831	950.1025	961.4091	981.8699	1040.8823	1053.5696	1092.1272	1101.4225	1110.9328	1125.4984	1148.978	1159.5277	1165.2958	1184.5822	1198.0778	1248.1138	1294.4079	1314.8466	1316.2685	1340.602	1390.1435	1409.6261	1422.7864	1450.6932	1464.3287	1488.3701	1490.1954	1505.5173	1518.2891	1530.9551	2952.0195	3018.975	3036.6171	3074.0575	3077.2008	3080.8625	3082.0297	3084.6529	3099.9578	3107.0863	3118.4697	3162.6561	3167.1234
CCN1CC1CC1CO1	CCN1C[C@H]1C[C@H]1CO1	
InChI=1S/C7H13NO/c1-2-8-4-6(8)3-7-5-9-7/h6-7H,2-5H2,1H3	InChI=1S/C7H13NO/c1-2-8-4-6(8)3-7-5-9-7/h6-7H,2-5H2,1H3/t6-,7+,8?/m1/s1
