15
gdb 14411	3.59441	2.16512	1.83574	4.3826	65.11	-0.2424	0.0021	0.2445	771.0559	0.119201	-362.619244	-362.612622	-362.611678	-362.6499	25.442	
C	-0.042341771	 1.5691571283	-0.058063151	-0.520535
C	 0.0399295418	 0.0837209656	-0.0469982707	 0.369779
C	 0.5700294039	-1.0041917003	-0.9046047565	-0.132259
C	 1.2974051107	-1.5907448876	 0.2990687241	-0.194041
N	 0.3626928314	-0.7864334144	 1.1939863893	-0.252859
C	-0.9298700932	-1.4788402653	 0.9023023826	 0.433265
O	-1.6585476399	-2.0601976204	 1.6410552969	-0.315821
C	-0.9377847571	-0.9997833788	-0.5045630824	-0.267344
H	 0.92715953	 2.0176782919	 0.1807289713	 0.139668
H	-0.352035201	 1.927434741	-1.0445443392	 0.133154
H	-0.7704937208	 1.9216956059	 0.6792403655	 0.144951
H	 0.8484962187	-0.9705124042	-1.9520209499	 0.104891
H	 1.2651783786	-2.6709015285	 0.4773210022	 0.120492
H	 2.3208933338	-1.2229524269	 0.4020355277	 0.120996
H	-1.7298680461	-0.9483081363	-1.2396902399	 0.115662
114.8568	193.4321	256.6484	289.3727	418.5628	506.1468	612.1264	630.1606	726.2248	780.2231	784.1517	838.2819	896.4267	908.2298	940.8577	971.6695	975.7996	1033.7328	1055.3559	1090.6464	1128.7322	1156.8614	1170.1756	1185.6071	1280.135	1294.8202	1407.7143	1466.1117	1477.2833	1494.8943	1511.7825	1922.6986	3037.1604	3047.0932	3105.1489	3111.5146	3112.6957	3178.5298	3211.3455
CC12C3CN1C(=O)C23	C[C@@]12[C@H]3CN1C(=O)[C@@H]23	
InChI=1S/C6H7NO/c1-6-3-2-7(6)5(8)4(3)6/h3-4H,2H2,1H3	InChI=1S/C6H7NO/c1-6-3-2-7(6)5(8)4(3)6/h3-4H,2H2,1H3/t3-,4-,6-/m0/s1
