16
gdb 99568	2.29939	1.2116	0.8362	4.5137	69.79	-0.291	-0.0021	0.2889	1310.5886	0.12374	-434.07331	-434.063478	-434.062534	-434.108659	34.151	
N	-0.0494858243	 1.4888544952	-0.0043780915	-0.499834
C	 0.0227474531	 0.0287460098	-0.0113363726	-0.142865
C	 0.6797274481	-0.51067687	-1.220718221	 0.270894
N	 1.2075454125	-0.8622860233	-2.1871000428	-0.307355
C	 0.7397164919	-0.4619838232	 1.2775785026	-0.156328
C	 0.0217079204	 0.0361711481	 2.5623066626	-0.067967
O	 0.6988109755	-0.3624662678	 3.7270765295	-0.413593
C	 0.8204337569	-1.9230914265	 1.3206250781	 0.269865
N	 0.8442870233	-3.0739313789	 1.4255411204	-0.315768
H	 0.8690493198	 1.8855958312	-0.1840331892	 0.251316
H	-0.6557333258	 1.809960247	-0.7524662321	 0.256388
H	-1.0029638385	-0.3570177521	 0.0075092103	 0.151828
H	 1.7629771946	-0.0675667157	 1.2867539251	 0.147855
H	 0.0145843653	 1.1260773777	 2.5472490347	 0.147474
H	-1.0223117892	-0.3115411568	 2.5435726573	 0.106508
H	 0.6270538665	-1.3202742348	 3.8127835085	 0.301582
52.0954	93.0758	114.8108	153.0961	213.7707	226.9724	249.6396	303.4014	358.6736	393.232	412.6775	493.0545	543.6631	598.9397	632.1137	836.3899	851.0278	928.1201	1002.9494	1039.7628	1058.989	1098.6383	1132.8436	1177.1127	1205.9552	1273.5343	1325.8783	1355.0362	1390.7185	1395.2421	1410.629	1506.3068	1664.0545	2350.0117	2356.5433	2993.9385	3046.6029	3061.9376	3138.6095	3498.7423	3580.1054	3796.6514
NC(C#N)C(CO)C#N	N[C@@H](C#N)[C@@H](CO)C#N	
InChI=1S/C5H7N3O/c6-1-4(3-9)5(8)2-7/h4-5,9H,3,8H2	InChI=1S/C5H7N3O/c6-1-4(3-9)5(8)2-7/h4-5,9H,3,8H2/t4-,5+/m1/s1
