16
gdb 112211	2.54897	1.29494	0.94697	2.8119	66.2	-0.2549	-0.0024	0.2525	1204.159	0.12313	-475.002283	-474.993604	-474.99266	-475.036059	31.335	
O	 0.0068566393	 1.4620671989	-0.1659578699	-0.415085
C	 0.0403433574	 0.0849057479	 0.1697269784	-0.079801
C	-1.3390431671	-0.5545640454	 0.1041079163	-0.047581
N	-1.9115993759	-0.637036979	-1.2586639406	-0.381232
C	-2.1376434043	-2.0055834544	-1.2444726747	 0.391262
O	-2.6852406126	-2.7570009292	-1.9997475337	-0.350917
C	-1.4249592328	-2.0975943855	 0.1146752478	 0.254702
C	-0.5448947492	-3.1326975681	 0.6594018361	-0.256265
O	-1.8536607054	-2.8884462575	 1.1920872541	-0.253253
H	-0.1209771178	 1.5252598426	-1.1180242353	 0.286577
H	 0.7334771434	-0.4724654802	-0.4773741002	 0.094888
H	 0.4169203591	 0.0277154263	 1.1968917943	 0.120526
H	-2.0177153447	-0.0918408815	 0.8288331634	 0.110099
H	-2.4017749189	 0.068807103	-1.7880539206	 0.256399
H	-0.430314941	-4.0690760283	 0.1172710341	 0.141568
H	 0.2819900203	-2.8499488895	 1.3085700804	 0.128112
77.8066	112.2602	137.9613	216.8267	231.5358	297.4283	304.7981	359.5374	420.0022	504.0629	595.5814	642.0546	740.671	756.8847	852.8946	892.3234	927.5663	990.8615	1027.4729	1081.7355	1097.4123	1115.0976	1124.3487	1160.0441	1167.257	1219.0815	1246.2411	1340.137	1367.6982	1402.2584	1419.5604	1441.0605	1492.2393	1531.3624	1905.4669	2998.8889	3056.3444	3079.2027	3092.1103	3186.4496	3618.3018	3816.79
OCC1NC(=O)C11CO1	OC[C@H]1NC(=O)[C@]21CO2	
InChI=1S/C5H7NO3/c7-1-3-5(2-9-5)4(8)6-3/h3,7H,1-2H2,(H,6,8)	InChI=1S/C5H7NO3/c7-1-3-5(2-9-5)4(8)6-3/h3,7H,1-2H2,(H,6,8)/t3-,5-/m1/s1
