16
gdb 81509	3.74614	1.28058	1.07314	4.1151	70.37	-0.2674	0.0095	0.2769	1112.5042	0.122461	-437.820216	-437.811937	-437.810993	-437.852683	31.417	
C	-0.1110706993	 1.5838837189	-0.0118669233	-0.44023
C	-0.0316289529	 0.0699097772	-0.0154399414	 0.009401
C	 1.2361443355	-0.6086743703	-0.6063158406	-0.023
O	 2.0202947011	-0.1452381152	 0.5537647269	-0.298204
C	 0.7516848835	-0.6370202085	 1.1300480629	 0.00357
C	 0.9087170397	-1.8976230975	 0.2354711266	 0.288611
O	-0.245900111	-2.6459018209	-0.0003911814	-0.466951
C	 2.0649164884	-2.7515018351	 0.5249926494	 0.236119
N	 2.9151592335	-3.5139201229	 0.7023063225	-0.333608
H	 0.8477006362	 2.0247219308	 0.2678893639	 0.142399
H	-0.3912891898	 1.9563589857	-1.0026239072	 0.123145
H	-0.873667637	 1.9268675725	 0.6948761976	 0.124467
H	-0.9736892831	-0.4100490061	-0.2856398275	 0.105267
H	 1.6956194742	-0.5320214652	-1.5918739354	 0.110194
H	 0.6310834768	-0.5906293642	 2.2119354684	 0.115317
H	-0.0303737355	-3.3802249089	-0.5861888812	 0.303504
133.0579	145.3179	220.959	244.1599	269.7217	281.6702	348.2812	362.511	470.9522	521.1505	562.5083	670.2369	714.6514	782.5397	793.275	805.2495	895.919	943.7327	1012.677	1040.6601	1064.6082	1118.3746	1123.6965	1147.0644	1160.5544	1198.856	1217.7842	1236.4749	1275.5022	1372.3103	1396.097	1413.5889	1494.0648	1504.9087	2355.6774	3041.7307	3100.6688	3104.7592	3124.9005	3133.8208	3138.5126	3810.8832
CC1C2OC1C2(O)C#N	C[C@H]1[C@H]2O[C@@H]1[C@]2(O)C#N	
InChI=1S/C6H7NO2/c1-3-4-6(8,2-7)5(3)9-4/h3-5,8H,1H3	InChI=1S/C6H7NO2/c1-3-4-6(8,2-7)5(3)9-4/h3-5,8H,1H3/t3-,4+,5-,6-
