19
gdb 55652	3.11661	1.0274	0.93768	2.0739	72.52	-0.2598	-0.0349	0.2249	1325.3705	0.153813	-460.217735	-460.206931	-460.205987	-460.254547	37.337	
C	-0.0944736749	 1.5124644304	-0.1757997213	-0.472997
C	 0.0192575316	 0.0371411014	 0.130025505	 0.43407
O	 0.1099027272	-0.4369797249	 1.2338150387	-0.353351
O	 0.0027845732	-0.6749383255	-1.0189058691	-0.299119
C	 0.0904806448	-2.1263955621	-0.9972444	 0.278695
C	 1.4414783741	-2.5960845216	-0.4354380215	-0.430692
C	-1.1028943456	-2.7649898919	-0.2857641444	-0.427432
C	 0.0653221758	-2.4793825262	-2.4894535434	 0.142269
O	-0.1345921594	-3.5883417257	-2.9063325784	-0.253554
H	-0.0693459533	 2.0771954013	 0.7551803929	 0.150256
H	 0.7262305597	 1.8260160902	-0.8269832639	 0.150116
H	-1.0274557051	 1.7134626791	-0.7099259215	 0.15129
H	 1.5067916784	-2.3687858881	 0.6284043735	 0.159185
H	 1.5310973604	-3.6750549013	-0.5859499734	 0.140193
H	 2.2695543053	-2.1049362858	-0.956130253	 0.121972
H	-2.038742452	-2.3225465161	-0.6396650587	 0.122177
H	-1.1185434393	-3.8307349136	-0.5253546783	 0.142765
H	-1.0291731943	-2.6266375674	 0.7923787652	 0.150728
H	 0.2769206233	-1.6183965822	-3.1600325183	 0.093429
39.9508	58.9513	95.0765	114.6403	160.4087	214.0295	250.9484	276.5038	299.2513	311.907	360.1306	412.7879	428.3097	571.9847	608.3594	687.8595	766.5951	850.3705	921.5862	955.4778	961.8606	993.614	1037.8334	1045.7082	1063.5848	1185.0941	1210.7684	1268.6525	1271.6002	1384.6828	1387.8889	1395.5983	1411.3626	1468.5577	1475.5716	1476.1095	1492.5809	1495.4706	1515.0521	1819.8634	1841.8038	2902.9526	3048.4913	3055.4589	3057.2687	3120.486	3122.3866	3128.1451	3158.8877	3163.7724	3169.8824
CC(=O)OC(C)(C)C=O	CC(=O)OC(C)(C)C=O	
InChI=1S/C6H10O3/c1-5(8)9-6(2,3)4-7/h4H,1-3H3	InChI=1S/C6H10O3/c1-5(8)9-6(2,3)4-7/h4H,1-3H3
