14
gdb 75862	3.50284	1.2577	0.95407	2.7934	75.36	-0.2192	-0.0407	0.1785	1146.6507	0.099969	-436.690054	-436.681746	-436.680802	-436.723018	30.858	
O	 0.0462979945	 1.4053064014	-0.1566139593	-0.417108
C	-0.0243316635	 0.0047338545	-0.0454441739	-0.112426
C	 0.5967791187	-0.4740450157	 1.2847673108	 0.409739
O	 1.6581130066	-0.1234223766	 1.7434478814	-0.370032
N	-0.3265266066	-1.3273459421	 1.8537385331	-0.332305
C	-1.524352458	-1.3129906158	 1.1284774656	-0.11775
C	-1.4403920537	-0.541757066	 0.0261750995	 0.10854
C	-2.4303257093	-0.325453496	-0.948582906	 0.246174
C	-3.2543956673	-0.1173022904	-1.8033590327	-0.431264
H	 0.9117278425	 1.6586112121	 0.1928182174	 0.297303
H	 0.5166210664	-0.4902135334	-0.8713380716	 0.11054
H	-0.2234181911	-1.6968151317	 2.7857072619	 0.26999
H	-2.3633054239	-1.901186167	 1.4702837136	 0.145925
H	-3.9857076854	 0.0685083766	-2.5500858497	 0.192673
76.0268	129.4351	175.2057	232.5516	299.6851	357.924	419.2481	455.6264	499.3427	526.8651	549.6226	565.5896	634.1059	655.4495	711.6931	755.7119	873.885	880.5525	904.4666	1080.5957	1134.1822	1191.9176	1211.1074	1245.1037	1317.2709	1347.4823	1399.1218	1414.0806	1662.8277	1843.3903	2224.2834	2950.8447	3248.6678	3504.4345	3643.7176	3759.1562
OC1C(=O)NC=C1C#C	O[C@H]1C(=O)NC=C1C#C	
InChI=1S/C6H5NO2/c1-2-4-3-7-6(9)5(4)8/h1,3,5,8H,(H,7,9)	InChI=1S/C6H5NO2/c1-2-4-3-7-6(9)5(4)8/h1,3,5,8H,(H,7,9)/t5-/m1/s1
