15
gdb 130372	6.95674	0.83647	0.75398	2.8978	75.59	-0.1963	0.0081	0.2044	1437.6667	0.115218	-446.341238	-446.332748	-446.331804	-446.374354	31.152	
N	 0.0299376183	 1.2972624202	-0.0663831262	-0.49462
C	-0.0869502738	-0.0462483301	 0.1104000572	 0.115539
N	-1.1213919592	-0.6909558736	-0.2798123945	-0.329564
C	-1.0853211311	-2.0700849928	-0.2025255722	 0.396695
N	 0.0248113339	-2.7961356807	-0.2772503017	-0.306841
N	-0.4667921121	-4.0732839212	-0.1497366552	-0.255703
C	-1.8131442918	-4.0375327692	-0.0418844867	 0.415299
N	-2.6061715782	-5.1702962468	 0.0102423939	-0.602283
N	-2.2440641852	-2.7935643191	-0.0598530432	-0.371335
H	 0.6836567063	 1.809916612	 0.4997442504	 0.260302
H	-0.7947692367	 1.7905276013	-0.3733149188	 0.264197
H	 0.7824150492	-0.5235414154	 0.5743755504	 0.120876
H	 0.136813666	-4.8596704655	-0.3185893156	 0.267951
H	-2.2531917605	-5.9063828614	 0.6068908727	 0.251856
H	-3.5582605951	-4.9291390976	 0.2509434095	 0.267632
78.5419	141.236	156.9133	258.3569	275.3141	339.5843	357.0523	367.7671	434.303	451.3426	537.6414	597.4937	662.9811	723.8216	767.2869	785.4538	825.3335	1009.705	1020.724	1064.142	1104.2882	1120.001	1172.334	1291.6415	1318.5199	1358.678	1418.6329	1503.8616	1546.2205	1601.8989	1626.0486	1659.9931	1733.7409	3079.5026	3552.6051	3589.7858	3650.4411	3670.1641	3721.5761
NC=NC1=NNC(N)=N1	NC=Nc1n[nH]c(N)n1	
InChI=1S/C3H6N6/c4-1-6-3-7-2(5)8-9-3/h1H,(H5,4,5,6,7,8,9)	InChI=1S/C3H6N6/c4-1-6-3-7-2(5)8-9-3/h1H,(H5,4,5,6,7,8,9)
