15
gdb 54880	2.70082	1.5064	1.14126	3.3552	67.15	-0.2464	-0.0337	0.2127	1066.8437	0.111996	-454.006981	-453.99859	-453.997646	-454.040947	29.698	
C	 0.2241072056	 1.0175766281	-0.9589117988	-0.482555
C	-0.0790262362	 0.2813804035	 0.3246216411	 0.408392
O	 0.6769490892	 0.2171522802	 1.2592882097	-0.281284
C	-1.4439858467	-0.4512111042	 0.3457844755	-0.239926
N	-1.3103909498	-1.6624134474	-0.4847508509	-0.250338
C	-1.5214348943	-2.6434136788	 0.3092849712	 0.074615
N	-1.8353155459	-2.3153541994	 1.6170470499	-0.33832
C	-1.8389147563	-0.9252877228	 1.7519158589	 0.450832
O	-2.1028636578	-0.2972070835	 2.7414010854	-0.349803
H	 1.2550607412	 1.3724277704	-0.9522811888	 0.144872
H	 0.0478117795	 0.3571694689	-1.8134983693	 0.165266
H	-0.4563207989	 1.8713880251	-1.0614701086	 0.144884
H	-2.2169486765	 0.2053206225	-0.0692576497	 0.130391
H	-1.4776725595	-3.6850062334	 0.0084954916	 0.148265
H	-2.0298911537	-2.9552164691	 2.370113013	 0.274709
42.7802	102.287	143.1217	156.7236	227.0957	306.1033	432.81	481.7572	539.1635	549.0737	601.1647	677.1905	690.5292	863.722	872.1248	906.5849	947.6907	989.9534	994.3999	1055.5829	1078.726	1167.4888	1180.5529	1225.656	1284.2079	1346.7181	1379.3044	1404.066	1463.5891	1472.9948	1666.1857	1821.1891	1875.565	3038.4488	3057.2735	3106.4769	3158.1065	3198.0699	3656.2141
CC(=O)C1N=CNC1=O	CC(=O)[C@H]1N=CNC1=O	
InChI=1S/C5H6N2O2/c1-3(8)4-5(9)7-2-6-4/h2,4H,1H3,(H,6,7,9)	InChI=1S/C5H6N2O2/c1-3(8)4-5(9)7-2-6-4/h2,4H,1H3,(H,6,7,9)/t4-/m1/s1
