24
gdb 118256	2.57682	0.71122	0.58448	2.8011	91.86	-0.2433	0.0302	0.2735	2019.2133	0.214162	-405.560369	-405.548786	-405.547842	-405.598242	40.567	
C	-0.0092635973	 1.5721504561	 0.0697605474	-0.381509
C	-0.0053203636	 0.0415275852	 0.05749751	-0.175001
C	-1.4145332512	-0.5542610344	-0.0269746103	-0.170835
C	-1.4421214719	-2.0805291158	-0.0594023402	 0.109382
C	-2.8583956592	-2.6512965691	-0.0527057536	-0.395533
O	-0.7594864647	-2.4863470812	-1.2605784127	-0.212957
C	-0.169448434	-3.6958623289	-1.2525220395	 0.133575
N	 0.3101655025	-4.1905755167	-2.3052443235	-0.211622
C	 0.9658527631	-5.4760884094	-2.1938777766	-0.313873
H	 1.0077899002	 1.9714699303	 0.1298898649	 0.11352
H	-0.4704138207	 1.9730656493	-0.8396055745	 0.117325
H	-0.5717855168	 1.963466328	 0.9250899653	 0.110794
H	 0.5842961689	-0.3227540346	-0.7902146767	 0.121898
H	 0.4913644493	-0.3314263733	 0.9635750007	 0.089091
H	-2.0124552035	-0.2225320286	 0.8314679676	 0.094518
H	-1.9234244914	-0.1824457841	-0.9256549533	 0.108479
H	-0.883169001	-2.4701327626	 0.8052349055	 0.078767
H	-2.8412544772	-3.7446305789	-0.093556767	 0.119832
H	-3.3890547446	-2.3525190516	 0.8566689986	 0.118379
H	-3.4182702581	-2.2870313018	-0.9193340245	 0.132906
H	-0.1337517499	-4.1792498116	-0.2618320917	 0.069041
H	 0.4862023459	-6.1946500184	-2.8686056772	 0.12542
H	 2.0101191447	-5.3884178784	-2.5159804525	 0.125885
H	 0.9554732303	-5.8997203995	-1.1754693562	 0.092516
42.2163	71.7061	81.8792	113.5033	165.1769	172.0934	205.2328	234.789	247.6755	290.2608	306.3058	353.8665	390.4721	471.0466	529.5801	583.4639	749.3175	857.155	873.8136	902.5172	962.2182	986.6939	1008.6839	1044.9232	1061.7332	1070.8361	1137.9891	1142.5588	1146.2951	1161.0358	1192.9199	1251.5011	1274.9986	1300.3706	1329.5666	1365.2446	1372.4652	1403.688	1409.2739	1413.9297	1423.6886	1449.7999	1473.6266	1480.2038	1488.7627	1493.9291	1496.182	1500.7022	1504.9388	1510.4737	1775.7769	2960.0763	2973.3868	2991.0723	3016.054	3023.959	3029.5526	3039.5532	3054.188	3058.4207	3073.4903	3076.1361	3099.2722	3103.4267	3111.6691	3118.7361
CCCC(C)OC=NC	CCC[C@@H](C)OC=NC	
InChI=1S/C7H15NO/c1-4-5-7(2)9-6-8-3/h6-7H,4-5H2,1-3H3	InChI=1S/C7H15NO/c1-4-5-7(2)9-6-8-3/h6-7H,4-5H2,1-3H3/t7-/m1/s1
