21
gdb 40105	2.96695	1.53123	1.16242	0.4038	88.93	-0.2209	0.0243	0.2452	1121.328	0.184306	-349.925404	-349.917737	-349.916793	-349.957322	31.501	
C	 0.0422248429	 1.5156663932	 0.047616408	-0.302181
C	 1.3458804301	 0.7529764633	 0.0795226757	-0.322236
C	 0.0420086782	 0.0073283493	 0.0166234065	 0.345857
C	-0.4912362592	-0.7960139957	 1.2326641754	-0.320623
C	-1.6535992442	-1.5918529171	 0.6468633919	-0.237963
C	-1.5436183246	-1.6244910803	-0.6769709059	 0.308849
C	-2.3276116646	-1.5852926182	-1.9681039964	-0.319775
C	-1.4723408621	-0.302874084	-2.2963260231	-0.239076
C	-0.4283922432	-0.7691607977	-1.2134280954	-0.128942
H	-0.2856293732	 2.0091492855	 0.9573404983	 0.106732
H	-0.2135597883	 2.0474419825	-0.8632392006	 0.10981
H	 1.970803165	 0.7727249141	-0.8079142674	 0.106691
H	 1.9019881728	 0.7323639853	 1.0116588624	 0.106616
H	 0.2876146913	-1.4454859748	 1.659302917	 0.102427
H	-0.8200301647	-0.1367029046	 2.0454745096	 0.099385
H	-2.4724510082	-1.9702412928	 1.2481742377	 0.088006
H	-2.0849181515	-2.4057143911	-2.6520206157	 0.109735
H	-3.4138053929	-1.4851182655	-1.9073585058	 0.108574
H	-1.1156077173	-0.1973971829	-3.3238873773	 0.096347
H	-1.9914331799	 0.6081379093	-1.9899888782	 0.109801
H	 0.3823591136	-1.3339127776	-1.6921365568	 0.071967
88.858	206.552	237.6603	254.4904	316.3656	396.3554	457.0833	492.2388	632.1269	687.6424	734.1418	778.7611	790.6933	825.6445	846.3349	888.6774	895.3168	925.3682	941.3415	949.102	975.9384	1012.5876	1021.1016	1053.0932	1057.1152	1078.684	1081.9568	1118.6004	1175.3413	1183.268	1189.3858	1213.7128	1233.7849	1246.4781	1252.8366	1283.7115	1307.758	1321.2831	1369.8365	1466.4357	1472.9717	1485.6867	1489.1583	1503.0668	1736.8169	2992.9463	3012.4066	3042.4897	3045.5056	3060.7476	3102.2568	3118.7286	3123.2543	3126.3878	3193.4857	3195.9571	3211.5927
C1CC11CC=C2CCC12	C1CC21C[CH][C]1CC[C@@H]21	
InChI=1S/C9H12/c1-2-8-7(1)3-4-9(8)5-6-9/h3,8H,1-2,4-6H2	InChI=1S/C9H12/c1-2-8-7(1)3-4-9(8)5-6-9/h3,8H,1-2,4-6H2/t8-/m1/s1
