14
gdb 50127	4.83444	1.05366	1.01035	4.5233	68.56	-0.2706	-0.0551	0.2154	1143.1511	0.099349	-436.649839	-436.642019	-436.641075	-436.682704	28.181	
O	-0.2446032376	 0.1520488332	-0.4839076137	-0.232021
C	-0.015588328	 1.2192553273	 0.0188951841	 0.147316
C	 1.3023745459	 1.9541787729	-0.0896138995	 0.02097
O	 2.4066122808	 1.1650056794	-0.5831306404	-0.300368
C	 2.6206996006	 2.0903809517	-1.651788118	 0.366625
C	 1.4286301175	 2.1421500981	-2.5634496821	-0.333623
C	 1.4068285421	 2.9315316694	-1.276670225	-0.20366
C	 3.9555100983	 2.4589044236	-1.9973533243	 0.211722
N	 5.0309857086	 2.7681380751	-2.2901159892	-0.337039
H	-0.7911642216	 1.7861399076	 0.5837777423	 0.088682
H	 1.5592952333	 2.4252912704	 0.8673798592	 0.120048
H	 1.5471842127	 2.745555291	-3.4567824173	 0.150265
H	 0.8393679927	 1.236875012	-2.6688074676	 0.1636
H	 1.3045578846	 4.0058561883	-1.2284623586	 0.137482
80.4563	106.8945	148.1769	218.5806	259.4596	384.0349	441.1493	521.8615	549.5535	610.6164	721.5992	748.1577	842.7961	855.896	902.0011	945.9156	994.1822	1004.4302	1017.1651	1076.516	1090.7913	1107.6474	1162.2638	1252.5971	1262.2095	1340.4417	1379.0045	1415.8587	1470.3198	1837.5393	2353.6082	2871.0401	3039.3458	3135.1576	3226.0648	3235.7054
O=CC1OC2(CC12)C#N	O=C[C@H]1O[C@]2(C[C@@H]12)C#N	
InChI=1S/C6H5NO2/c7-3-6-1-4(6)5(2-8)9-6/h2,4-5H,1H2	InChI=1S/C6H5NO2/c7-3-6-1-4(6)5(2-8)9-6/h2,4-5H,1H2/t4-,5+,6+/m0/s1
