18
gdb 15698	3.48522	1.67804	1.20406	3.759	67.47	-0.248	-0.0286	0.2194	999.9987	0.154807	-384.977171	-384.969481	-384.968537	-385.009383	29.066	
O	-0.0685864019	 1.4875578042	-0.1832369796	-0.426657
C	 0.031984919	 0.0825895356	-0.1558997201	-0.071924
C	-1.3346149899	-0.5915710128	 0.0306438366	-0.102197
C	-1.3689314072	-2.1283037002	 0.0095559206	-0.24026
C	-2.6422801927	-2.4921081039	 0.8065983017	-0.219088
C	-2.6802876952	-1.4576847144	 1.943804543	-0.309893
C	-1.9709667208	-0.2291295422	 1.3760682228	 0.411347
O	-1.889250764	 0.8521318813	 1.9153445284	-0.340959
H	-0.556672359	 1.7347660246	 0.6156609506	 0.295258
H	 0.4719432388	-0.2277653787	-1.1102330662	 0.105615
H	 0.7122035411	-0.2651624097	 0.641541478	 0.082041
H	-2.0098730772	-0.1937198422	-0.7419950363	 0.113107
H	-1.3697642458	-2.540895622	-1.0020555616	 0.10938
H	-0.4822126977	-2.5241727833	 0.5221774513	 0.105861
H	-3.5238709319	-2.376616572	 0.1659123661	 0.110426
H	-2.6358841972	-3.5234771385	 1.1664138657	 0.107803
H	-3.6757604638	-1.202806028	 2.3156185177	 0.132953
H	-2.0959907745	-1.7941656977	 2.8106627014	 0.137188
74.0806	147.3969	189.1674	222.0383	316.7485	393.0335	461.3695	539.53	572.4086	598.6528	627.0081	706.1092	823.4263	882.5747	918.8464	945.4793	969.2643	1013.1979	1030.6917	1081.2119	1104.2846	1158.9665	1166.3872	1188.9365	1212.5394	1238.0436	1281.1534	1298.8707	1323.5698	1339.2579	1353.1243	1387.2611	1445.3299	1462.9893	1494.4563	1505.4891	1512.8585	1811.9279	2948.8531	3004.4874	3027.3843	3034.1194	3046.7419	3059.7039	3099.1267	3102.0512	3108.7311	3723.6988
OCC1CCCC1=O	OC[C@H]1CCCC1=O	
InChI=1S/C6H10O2/c7-4-5-2-1-3-6(5)8/h5,7H,1-4H2	InChI=1S/C6H10O2/c7-4-5-2-1-3-6(5)8/h5,7H,1-4H2/t5-/m1/s1
