17
gdb 6195	3.81416	1.60011	1.5057	5.0856	64.08	-0.2598	0.0538	0.3136	915.372	0.142554	-401.063352	-401.055542	-401.054598	-401.095184	29.523	
C	 0.0701117439	 1.4701984052	 0.0984938695	-0.422427
C	-0.0746072545	-0.0572747859	-0.0064588952	 0.259386
C	-1.5443874909	-0.4691210064	-0.1086799648	-0.430533
C	 0.7767753236	-0.6296145059	-1.1679413548	-0.101761
O	 2.0439143438	-0.9565205677	-0.5904149101	-0.240419
C	 1.9077933933	-1.0638734948	 0.7684968805	 0.470109
O	 2.7968783444	-1.3983868921	 1.4993937201	-0.391283
N	 0.6065659635	-0.7389048575	 1.0948412092	-0.383472
H	 1.1250634654	 1.7600565291	 0.1112390182	 0.136254
H	-0.4142736618	 1.9667019429	-0.7486865818	 0.122142
H	-0.3984096728	 1.8417301423	 1.016050721	 0.118173
H	-1.9961632309	-0.0629681166	-1.0198390167	 0.123708
H	-1.6403714992	-1.557786861	-0.12483174	 0.129321
H	-2.1174340501	-0.0863682358	 0.7421546023	 0.120928
H	 0.3261673972	-1.5402003053	-1.5797617071	 0.113517
H	 0.9351524611	 0.0904276381	-1.9738057382	 0.122396
H	 0.4359471139	-0.4789413285	 2.0541191279	 0.253961
101.5138	172.5571	221.0006	259.5486	300.8308	334.8775	362.915	455.5658	520.2339	537.6498	605.3702	710.082	772.0303	829.7693	923.3075	938.7309	943.497	976.2005	992.2987	1039.399	1080.6482	1195.9043	1208.0184	1234.0126	1258.9879	1298.6442	1387.7075	1401.1294	1409.2237	1429.4746	1480.4233	1486.2296	1503.4302	1504.1052	1517.8523	1893.0654	3031.0323	3033.405	3039.3611	3098.9133	3105.4576	3108.3883	3113.7073	3122.4508	3635.0974
CC1(C)COC(=O)N1	CC1(C)COC(=O)N1	
InChI=1S/C5H9NO2/c1-5(2)3-8-4(7)6-5/h3H2,1-2H3,(H,6,7)	InChI=1S/C5H9NO2/c1-5(2)3-8-4(7)6-5/h3H2,1-2H3,(H,6,7)
