19
gdb 112637	3.20085	1.14842	0.88289	3.4533	81.06	-0.2183	-0.0443	0.1741	1337.1892	0.157915	-423.059184	-423.049857	-423.048913	-423.093877	33.539	
C	 0.0777693587	 1.4311149922	 0.0047879708	-0.244442
O	-0.1131377045	 0.0260711655	 0.0526527014	-0.247053
C	 0.6219279248	-0.6259720391	 1.0623590148	 0.015987
C	 0.1011204214	-2.0587063463	 1.2535613078	-0.342428
C	 1.3355898049	-2.9337267477	 1.2189422597	 0.315673
C	 1.2431591811	-4.3975420221	 1.4920625541	-0.48557
C	 2.4409024384	-2.2334177736	 0.9104555291	-0.274068
C	 2.1256051612	-0.8106020216	 0.7147410152	 0.37605
O	 2.8707134391	 0.0725793776	 0.3488570873	-0.343659
H	 1.1140006837	 1.6940306381	-0.2264553627	 0.146429
H	-0.5840550502	 1.8085503721	-0.7785830892	 0.121235
H	-0.2018869446	 1.8986890938	 0.9624733346	 0.098757
H	 0.5643876761	-0.0563198919	 2.0054531783	 0.083935
H	-0.4654052519	-2.1940980752	 2.1818243831	 0.113764
H	-0.5776001094	-2.3099264084	 0.4298192956	 0.138553
H	 0.5513230778	-4.8783714841	 0.7892305051	 0.142135
H	 2.2145940532	-4.8913608639	 1.4176015857	 0.135551
H	 0.8362069514	-4.576858028	 2.4952795319	 0.139548
H	 3.4411359988	-2.6325750773	 0.7931987572	 0.109603
44.0677	115.5705	138.0688	177.6742	184.8986	245.9126	284.1895	328.7644	401.7069	445.4542	507.0624	573.271	635.0288	707.1325	824.4092	865.6755	882.6599	941.8107	1004.2638	1013.1275	1046.8331	1080.8577	1149.525	1157.0441	1182.4286	1183.6638	1191.6308	1240.638	1271.8809	1292.6523	1349.5489	1371.8874	1410.4463	1468.0851	1475.2611	1476.5477	1478.4402	1481.0312	1518.7443	1677.211	1802.8083	2958.7994	2980.3292	3022.8992	3038.5865	3070.8696	3074.2123	3081.7765	3124.6986	3126.3389	3210.19
COC1CC(C)=CC1=O	CO[C@H]1CC(=CC1=O)C	
InChI=1S/C7H10O2/c1-5-3-6(8)7(4-5)9-2/h3,7H,4H2,1-2H3	InChI=1S/C7H10O2/c1-5-3-6(8)7(4-5)9-2/h3,7H,4H2,1-2H3/t7-/m0/s1
