16
gdb 31901	5.94983	0.89648	0.78297	2.1737	86.76	-0.1825	0.0092	0.1917	1409.3054	0.123865	-400.74708	-400.738384	-400.73744	-400.780426	32.299	
C	-0.2229006891	 0.6678522596	-0.6739269187	-0.24953
O	 0.080965536	 0.9229363078	 0.688964014	-0.264327
C	 0.8012504246	-0.0340991204	 1.3034143947	 0.415788
C	 1.3264919904	-1.2443810464	 0.8909055595	-0.284737
C	 1.9925232044	-1.7962247528	 2.0175199217	-0.246783
C	 1.8596657049	-0.9201874483	 3.0787167603	 0.174446
N	 1.1177174793	 0.163287769	 2.6112422465	-0.40222
C	 2.3231673367	-0.9823297679	 4.4034830052	 0.260236
C	 2.7137393303	-1.0199426019	 5.544513141	-0.463297
H	-0.8152220639	-0.2492798797	-0.7795931271	 0.130972
H	-0.8032524324	 1.5217105812	-1.0250571381	 0.13927
H	 0.6931014889	 0.5742493789	-1.2700333793	 0.130953
H	 1.2441697527	-1.6778780331	-0.0915941789	 0.100765
H	 2.5178463249	-2.7372726534	 2.057491929	 0.103581
H	 0.8541465047	 0.9695776832	 3.1509817765	 0.26956
H	 3.0626446876	-1.0645070556	 6.5457916239	 0.185324
71.6244	133.0987	151.8687	205.6186	245.7112	307.5432	427.9494	440.3864	443.6469	484.1577	549.0556	605.7189	653.0181	677.4545	680.4725	684.221	750.324	831.0421	981.6758	1009.6239	1066.2847	1089.9476	1183.388	1206.1863	1232.6949	1258.223	1309.9201	1403.5371	1462.9063	1479.1964	1485.53	1508.8692	1547.1432	1627.5495	2219.3038	3013.9246	3075.4424	3145.119	3258.4015	3275.331	3504.6756	3682.5346
COC1=CC=C(N1)C#C	COc1ccc([nH]1)C#C	
InChI=1S/C7H7NO/c1-3-6-4-5-7(8-6)9-2/h1,4-5,8H,2H3	InChI=1S/C7H7NO/c1-3-6-4-5-7(8-6)9-2/h1,4-5,8H,2H3
