16
gdb 29973	3.80867	1.10175	0.85919	2.7704	75.08	-0.2049	0.0111	0.216	1289.4273	0.12612	-434.133931	-434.125614	-434.12467	-434.16752	29.714	
C	-0.0066231374	 1.4982754876	-0.1001707389	-0.337975
N	-0.0037342723	 0.0520462671	-0.0201295687	 0.019976
C	-0.0354508545	-0.8211595889	-1.0597911356	 0.005553
N	-0.0215046735	-2.0763243303	-0.6600412401	-0.349928
C	 0.0217257781	-2.002535662	 0.7061709128	 0.358537
N	 0.0465705278	-3.1878189389	 1.4420181597	-0.386543
C	 0.0876810654	-3.2756394611	 2.7996833017	 0.138747
O	 0.1095352037	-2.3286965878	 3.5590246114	-0.319127
C	 0.0335591408	-0.6998104065	 1.1403307197	-0.204114
H	 0.9003482937	 1.9147558675	 0.3484882637	 0.148979
H	-0.04634829	 1.7952173679	-1.1498129933	 0.144991
H	-0.8773980923	 1.9143079047	 0.415485203	 0.149054
H	-0.0681735181	-0.4874498258	-2.0862659611	 0.129576
H	 0.0302915588	-4.0334304396	 0.8917623764	 0.26199
H	 0.0993527815	-4.3284084308	 3.1400944227	 0.081371
H	 0.0636967182	-0.270976803	 2.1241398765	 0.158913
78.6306	94.9198	150.6135	155.7859	249.6768	297.8668	408.5569	420.507	575.8079	586.9507	637.3413	697.1072	731.2475	742.0506	812.7564	871.5328	1010.7746	1012.61	1052.0643	1084.8911	1144.0695	1152.5458	1203.2593	1249.164	1307.1518	1394.6293	1414.5911	1431.5126	1453.7972	1480.64	1510.3554	1534.7253	1568.168	1615.7944	1792.053	2953.8887	3041.8721	3103.6561	3138.8505	3250.4441	3320.1225	3627.3891
CN1C=NC(NC=O)=C1	Cn1cnc(NC=O)c1	
InChI=1S/C5H7N3O/c1-8-2-5(6-3-8)7-4-9/h2-4H,1H3,(H,7,9)	InChI=1S/C5H7N3O/c1-8-2-5(6-3-8)7-4-9/h2-4H,1H3,(H,7,9)
