20
gdb 81849	2.77608	1.45083	1.08052	2.4586	81.	-0.2283	0.0121	0.2404	1175.7698	0.170815	-403.140899	-403.132048	-403.131104	-403.173848	34.461	
C	-0.0337252195	 1.53639669	 0.094935703	-0.486945
C	-0.0942151585	 0.0473979532	 0.0043382644	 0.276822
C	-0.1337477336	-0.720753116	-1.0875881103	-0.226331
C	-0.0894817611	-2.1804151978	-0.7419467106	 0.322849
C	-0.7665895943	-3.2035191713	-1.6145132011	-0.496491
N	 1.1966924483	-2.5271877696	-0.0474687353	-0.388108
C	-0.0317361553	-2.2356396952	 0.735369882	-0.137002
C	 0.0018998985	-0.8041614037	 1.2753989718	 0.047392
O	 1.182276132	-0.5273315296	 2.0141606006	-0.437643
H	 0.855626169	 1.8414230453	 0.6576359596	 0.143034
H	-0.005704233	 2.0069864023	-0.8913468725	 0.118664
H	-0.8988281669	 1.9339452498	 0.6418078232	 0.122841
H	-0.1531946668	-0.3624250232	-2.1118252941	 0.090015
H	-0.2871815634	-3.2618758697	-2.5984941632	 0.127328
H	-0.7283275006	-4.1998319257	-1.1618029546	 0.114596
H	-1.8189042657	-2.9449358987	-1.773310612	 0.130192
H	 1.3257637943	-3.5382085831	-0.0755414269	 0.224406
H	-0.4875054707	-3.0327271073	 1.3127052336	 0.085686
H	-0.8320956744	-0.6075023144	 1.9603880703	 0.080472
H	 1.8928874518	-0.9243045753	 1.4892007822	 0.288223
124.5572	163.0029	182.4306	208.5656	240.1721	257.2169	314.6666	390.6935	466.248	515.9201	526.4852	564.966	587.9499	700.2711	729.666	830.9586	856.1583	880.8162	925.5245	941.6233	979.4336	1016.4943	1031.6678	1052.2067	1068.9709	1087.0171	1118.9049	1143.6584	1169.8474	1261.0276	1274.1333	1317.2999	1330.2129	1357.5108	1405.0805	1412.5226	1429.8332	1445.2748	1473.9209	1484.1401	1490.5542	1500.0776	1713.8584	3020.1453	3026.4038	3035.5015	3075.2822	3089.9024	3100.1387	3115.6216	3169.1844	3180.7362	3465.5427	3729.3299
CC1=CC2(C)NC2C1O	CC1=C[C@@]2(C)N[C@H]2[C@H]1O	
InChI=1S/C7H11NO/c1-4-3-7(2)6(8-7)5(4)9/h3,5-6,8-9H,1-2H3	InChI=1S/C7H11NO/c1-4-3-7(2)6(8-7)5(4)9/h3,5-6,8-9H,1-2H3/t5-,6-,7+/m0/s1
