21
gdb 119437	4.38092	0.80718	0.75598	3.6152	84.63	-0.2372	-0.0045	0.2328	1576.1273	0.181556	-387.093693	-387.084462	-387.083518	-387.128259	34.596	
C	-0.0527032357	 1.6071076787	-0.0750298076	-0.381667
C	-0.0310177329	 0.0783454226	-0.146362004	-0.159754
C	-1.3986310127	-0.552381234	 0.1620656288	-0.305553
C	-1.3791135359	-2.0546533328	 0.1099463518	 0.377474
C	-1.5587909775	-2.8555320493	-1.1293906446	-0.322621
C	-2.5911851918	-3.0307134429	-0.0164016643	-0.240731
C	-2.0011511931	-3.8553268759	 1.0814274411	 0.431788
O	-2.4217312981	-4.7431781284	 1.7686715499	-0.321949
C	-0.734725433	-2.9614722298	 1.1796758464	-0.419396
H	 0.9325559671	 2.0299549627	-0.2936211346	 0.114848
H	-0.7631005978	 2.0276219499	-0.7955263005	 0.115178
H	-0.3501869104	 1.9528993691	 0.9211844976	 0.116521
H	 0.2950344741	-0.2437880023	-1.1431487224	 0.100741
H	 0.713388685	-0.3130241039	 0.5587511097	 0.102878
H	-1.7314509299	-0.225469899	 1.1566969855	 0.101035
H	-2.1423657968	-0.1743159284	-0.5516938627	 0.098339
H	-1.9477085746	-2.3242943035	-1.9932477794	 0.12242
H	-0.8826432062	-3.669346141	-1.3779634522	 0.119793
H	-3.6424209272	-2.8359051879	-0.1924071374	 0.106629
H	 0.2333541586	-3.4104523459	 0.9385879659	 0.116363
H	-0.6821300612	-2.506681818	 2.1740442629	 0.127663
64.3748	87.3058	97.2797	166.8512	244.7838	304.9627	329.5645	365.3921	405.1418	467.9957	553.8754	630.0056	717.7079	748.0031	774.4128	832.2909	871.4512	894.7806	923.2044	960.1017	973.7677	993.8761	1040.5463	1046.3096	1066.6906	1097.6037	1102.7789	1115.6191	1143.7378	1205.3417	1235.3374	1237.9434	1299.1984	1311.8462	1338.6745	1380.2337	1405.0386	1413.6926	1457.6095	1480.247	1493.3284	1499.5922	1503.6628	1510.5909	1879.2307	3008.2595	3023.8058	3030.7235	3039.2417	3051.2461	3062.4093	3097.419	3104.5706	3104.9112	3111.5567	3189.2239	3198.4497
CCCC12CC1C(=O)C2	CCC[C@]12C[C@H]1C(=O)C2	
InChI=1S/C8H12O/c1-2-3-8-4-6(8)7(9)5-8/h6H,2-5H2,1H3	InChI=1S/C8H12O/c1-2-3-8-4-6(8)7(9)5-8/h6H,2-5H2,1H3/t6-,8+/m0/s1
