18
gdb 105508	2.22038	1.65355	1.15596	5.0064	67.46	-0.2624	0.0066	0.269	1084.4452	0.149154	-476.230396	-476.222132	-476.221188	-476.263247	31.435	
O	-0.02441085	 1.6091874961	-0.122720564	-0.425846
C	 0.1212068334	 0.2338290617	 0.1514193273	-0.144076
C	-1.1772196418	-0.5331994234	-0.0639835318	 0.106083
C	-1.7200576216	-0.6902183482	-1.5198958897	-0.196759
N	-2.1523982912	-2.0651496842	-1.1469679699	-0.347351
H	-3.3837767872	-1.3545047902	 0.0886558003	 0.315569
H	-2.084985738	-2.7804666611	-1.8633140404	 0.234924
C	-1.1306263991	-2.0927667332	-0.0675648244	-0.220744
C	-2.2861026277	-0.0142660534	 0.8591011454	 0.43841
O	-2.1312593955	 0.9200242373	 1.6107896533	-0.36261
O	-3.4591485509	-0.6543489127	 0.7797746806	-0.380793
H	-0.6474197632	 1.9322411236	 0.5435487067	 0.300576
H	 0.8841546335	-0.1496398273	-0.5355850358	 0.097679
H	 0.4785847768	 0.0552455395	 1.1775015587	 0.100831
H	-2.5249754232	-0.0303374444	-1.8522082725	 0.130424
H	-0.8985618074	-0.6618608042	-2.246680144	 0.115344
H	-0.1463603013	-2.4532013372	-0.395341083	 0.111648
H	-1.4319042355	-2.6270273387	 0.8376265431	 0.12669
106.8168	118.6595	212.087	236.7139	257.2775	292.2712	371.5091	426.375	466.1633	563.2734	600.8334	688.9889	748.6182	763.2409	847.9766	902.498	929.9916	962.8481	975.9791	1005.9468	1012.6724	1063.0096	1100.2266	1121.2296	1141.3315	1200.116	1212.6883	1251.2355	1268.498	1311.2353	1360.0921	1368.8064	1395.7189	1443.4411	1458.5148	1496.0687	1506.5075	1533.8672	1826.3274	2987.1729	3012.9891	3026.2024	3061.4726	3090.4872	3102.0748	3371.6968	3524.4998	3744.7875
OCC1(C[NH2+]C1)C([O-])=O	OCC1(CNC1)C(=O)O	
InChI=1S/C5H9NO3/c7-3-5(4(8)9)1-6-2-5/h6-7H,1-3H2,(H,8,9)	InChI=1S/C5H9NO3/c7-3-5(4(8)9)1-6-2-5/h6-7H,1-3H2,(H,8,9)
