25
gdb 121936	2.81354	0.80027	0.68066	1.0239	90.32	-0.2465	0.0875	0.334	1801.1809	0.22698	-389.480825	-389.469769	-389.468824	-389.518205	39.899	
C	 0.0047492633	 1.5514961017	-0.0329833401	-0.382581
C	-0.1028775784	 0.0499976894	 0.2433250355	-0.181934
C	-1.481175307	-0.506425841	-0.0904785633	-0.036514
O	-1.4852011899	-1.8913682361	 0.1856350203	-0.261166
C	-2.74206496	-2.5416413915	 0.050430261	 0.117852
C	-3.0831698428	-2.8144815163	-1.4192503463	-0.397569
C	-2.6905024497	-3.8290446944	 0.8545658462	 0.009935
C	-1.4175456028	-4.6307464121	 0.9502261007	-0.254802
C	-1.951458915	-3.9049542132	 2.1626847481	-0.275108
H	 1.0018768681	 1.9263271762	 0.215119671	 0.11711
H	-0.1813600131	 1.7781914223	-1.0886984375	 0.115953
H	-0.7201869671	 2.1202144554	 0.5599807071	 0.115841
H	 0.6438520586	-0.4986673933	-0.3421307166	 0.106105
H	 0.1118462156	-0.1597665426	 1.2975003208	 0.104827
H	-2.2554239695	 0.0029679449	 0.5091684259	 0.082678
H	-1.7157289255	-0.3111066744	-1.1495652279	 0.085659
H	-3.5235240118	-1.8915144871	 0.4821088603	 0.061665
H	-3.1451018554	-1.8886614666	-1.9984073292	 0.112103
H	-2.3201909261	-3.4565408657	-1.8692829381	 0.124964
H	-4.051228337	-3.3199019757	-1.4983490223	 0.111774
H	-3.6139131629	-4.398191845	 0.7890699704	 0.077611
H	-1.4857236449	-5.7125431511	 0.9183974251	 0.10192
H	-0.5356701076	-4.2136364935	 0.4793339443	 0.124085
H	-1.4138669416	-3.0185230233	 2.4772949625	 0.117638
H	-2.3888282376	-4.4865537369	 2.9668860121	 0.101952
35.6605	63.5036	90.7056	115.9936	143.7926	210.7902	214.9606	235.2963	259.3826	341.4241	385.8548	429.5345	481.8501	602.0431	758.0599	765.939	797.5761	825.4214	884.8371	902.3654	911.6541	914.7562	963.302	1019.3283	1051.057	1062.5782	1082.4005	1085.0876	1121.2913	1123.3079	1139.1109	1154.4337	1184.2957	1193.6766	1203.469	1235.5368	1269.3293	1316.4191	1330.9525	1349.5112	1373.4633	1400.3008	1407.2431	1411.9156	1440.2268	1456.5883	1490.1499	1491.5962	1495.0756	1500.8414	1501.1104	1507.5908	1528.7245	2940.7409	2954.5481	2983.8241	3031.3774	3038.028	3038.9412	3070.907	3099.4629	3107.1277	3107.8357	3118.198	3136.7417	3138.749	3146.0243	3222.4692	3236.1952
CCCOC(C)C1CC1	CCCO[C@@H](C)C1CC1	
InChI=1S/C8H16O/c1-3-6-9-7(2)8-4-5-8/h7-8H,3-6H2,1-2H3	InChI=1S/C8H16O/c1-3-6-9-7(2)8-4-5-8/h7-8H,3-6H2,1-2H3/t7-/m0/s1
