20
gdb 112083	3.17238	1.29597	1.0214	1.9143	79.5	-0.243	0.0254	0.2684	1213.9605	0.172283	-403.150457	-403.142154	-403.14121	-403.183567	31.889	
C	 0.0973217873	 1.4977950054	-0.0624228973	-0.381715
C	-0.0286901338	-0.0236325531	-0.1597986849	-0.161292
C	-1.4630805057	-0.5317047321	 0.0667240656	 0.01774
N	-2.3497626316	 0.029190149	-0.951577001	-0.273068
C	-3.2387161929	-0.6836548598	-1.4938101452	 0.119179
O	-3.5277467677	-1.9988938783	-1.3252441238	-0.225277
C	-2.6488498452	-2.7501193469	-0.5157694859	 0.102103
C	-1.2357873836	-2.9483801522	-0.9864968316	-0.321553
C	-1.5358196432	-2.0475177809	 0.197444429	-0.078447
H	 1.1233789994	 1.821056067	-0.2632485726	 0.105103
H	-0.5670003834	 1.9843132419	-0.7803617638	 0.139515
H	-0.1735151511	 1.8531999722	 0.938490626	 0.106802
H	 0.3096789739	-0.3658217734	-1.1453227982	 0.096338
H	 0.6250399901	-0.505477154	 0.5785106441	 0.08849
H	-1.8092765666	-0.1152505307	 1.0248753139	 0.089543
H	-3.9235171946	-0.2582293925	-2.2252918998	 0.123564
H	-3.1899744049	-3.5639046157	-0.0485754087	 0.109626
H	-0.7611138135	-3.9064493468	-0.8070320789	 0.118996
H	-0.9653705392	-2.4779904391	-1.9261906369	 0.131419
H	-1.2666715038	-2.4324641401	 1.1767866001	 0.092933
80.4753	103.6204	171.3958	218.4107	278.1696	345.8557	380.4788	421.5328	553.2006	573.9885	626.6426	749.8128	769.8556	815.5567	839.0025	857.3214	920.8928	952.629	967.3029	990.7092	1026.1091	1043.4466	1055.9941	1087.5288	1117.8921	1123.071	1144.2447	1167.7534	1199.9748	1235.3285	1284.5507	1317.6135	1346.894	1361.2601	1382.19	1400.8744	1407.9202	1425.3787	1478.2576	1483.4241	1495.7766	1510.7758	1734.7642	2985.7697	3023.1612	3034.5269	3060.9235	3097.6655	3128.4446	3135.0381	3145.6636	3156.4451	3184.0347	3223.7433
CCC1N=COC2CC12	CC[C@H]1N=CO[C@H]2C[C@@H]12	
InChI=1S/C7H11NO/c1-2-6-5-3-7(5)9-4-8-6/h4-7H,2-3H2,1H3	InChI=1S/C7H11NO/c1-2-6-5-3-7(5)9-4-8-6/h4-7H,2-3H2,1H3/t5-,6+,7-/m0/s1
