17
gdb 82658	4.37707	1.34929	1.30044	3.408	71.84	-0.2273	-0.0171	0.2102	1007.0424	0.136713	-421.793855	-421.786809	-421.785865	-421.825197	28.067	
C	-0.0877960945	 1.6041077411	-0.0580789768	-0.428014
C	 0.0411954565	 0.0933937717	 0.0159409446	 0.019852
C	 1.179187526	-0.6390790614	-0.7433699752	 0.068321
O	 2.3631619089	 0.0423550067	-0.277144494	-0.270168
C	 2.260924018	-0.321544176	 1.1118127749	-0.077108
C	 0.7004372688	-0.600069875	 1.2269170425	-0.088063
C	 1.0849274436	-1.8336066836	 0.2807428306	-0.222109
C	 2.4169572089	-1.8539363971	 1.0127293168	 0.478563
O	 3.1201237088	-2.6886866354	 1.4983613023	-0.324159
H	 0.886129932	 2.0837084415	 0.0635220331	 0.136038
H	-0.50231623	 1.9149945638	-1.0233508013	 0.118989
H	-0.7573495978	 1.9767578969	 0.7244063905	 0.118183
H	-0.9114233152	-0.4051158698	-0.1923145925	 0.084833
H	 1.2119126873	-0.7723822332	-1.8230437074	 0.091387
H	 2.838661974	 0.3341940947	 1.7571363112	 0.101057
H	 0.2623055403	-0.7108940608	 2.2160855186	 0.094031
H	 0.4499606043	-2.6911417341	 0.0808384722	 0.098367
131.9014	183.4127	190.118	282.8865	398.3352	520.9106	526.626	633.9671	666.3487	708.9898	753.7629	791.8553	821.747	837.0525	887.9151	918.0216	944.3371	995.0595	1011.5607	1031.7053	1056.0881	1072.768	1091.8154	1125.113	1143.0465	1166.6022	1180.9166	1216.2496	1235.7037	1237.6471	1276.1769	1326.0217	1386.1591	1409.2076	1490.1161	1502.1972	1900.0138	3036.1145	3058.2676	3096.0873	3128.66	3142.7163	3149.4644	3170.0781	3176.2355
CC1C2OC3C1C2C3=O	C[C@H]1[C@H]2O[C@H]3[C@@H]1[C@@H]2C3=O	
InChI=1S/C7H8O2/c1-2-3-4-5(8)7(3)9-6(2)4/h2-4,6-7H,1H3	InChI=1S/C7H8O2/c1-2-3-4-5(8)7(3)9-6(2)4/h2-4,6-7H,1H3/t2-,3+,4-,6-,7+/m1/s1
