14
gdb 130261	3.43971	1.30138	0.94713	3.8023	77.31	-0.2124	-0.0275	0.1848	1155.0681	0.101024	-432.825223	-432.816809	-432.815865	-432.857949	31.609	
N	-0.042008433	 1.3763528064	 0.1020375039	-0.60858
C	 0.0305979336	-0.00805307	 0.0278330419	 0.373152
N	-1.0280982755	-0.7846299899	 0.0653694193	-0.212001
O	-0.5530761386	-2.0890431041	 0.0426085841	-0.240006
C	 0.8103441135	-2.0603132647	-0.0092804195	 0.286567
C	 1.5274287644	-3.2661062705	-0.0333928458	 0.204303
C	 2.1806016769	-4.2791162694	-0.050515294	-0.384075
C	 1.2423028311	-0.7621929211	-0.0213112553	-0.023149
N	 2.5247727363	-0.2281678274	-0.1291170892	-0.628535
H	 0.5663625628	 1.8346027017	-0.5659687364	 0.258295
H	-0.9926517075	 1.7134810023	 0.0127449039	 0.262102
H	 2.7438870736	-5.1792705533	-0.0684975132	 0.198736
H	 3.2469524086	-0.9330610332	-0.0448706378	 0.256857
H	 2.6915248337	 0.5168577232	 0.5381976981	 0.256335
114.9828	127.1676	195.8944	232.9804	278.9288	363.1944	384.4007	406.1632	459.4387	520.4678	535.8039	595.9971	641.4877	699.9636	703.3071	715.973	770.4932	788.423	812.3746	987.2157	1008.5684	1152.3229	1197.9191	1241.6415	1345.4167	1515.3199	1571.0675	1627.3763	1646.826	1692.6985	2224.3261	3500.3097	3517.056	3529.615	3612.3708	3626.7502
NC1=NOC(C#C)=C1N	Nc1noc(C#C)c1N	
InChI=1S/C5H5N3O/c1-2-3-4(6)5(7)8-9-3/h1H,6H2,(H2,7,8)	InChI=1S/C5H5N3O/c1-2-3-4(6)5(7)8-9-3/h1H,6H2,(H2,7,8)
