14
gdb 27830	2.04248	1.93411	0.9996	3.9216	66.67	-0.264	-0.0484	0.2156	1103.2804	0.102769	-470.104397	-470.096721	-470.095777	-470.137222	27.956	
C	-0.0207766811	 1.4962800506	-0.0028832032	-0.490897
C	-0.0003316381	-0.0010731645	-0.061697269	 0.411875
N	-0.0232216526	-0.6133856107	-1.21409298	-0.333166
C	-0.0003619441	-1.9756889459	-1.1208847077	 0.44112
O	-0.0231777557	-2.5772858435	-2.3086589094	-0.371804
N	 0.041020704	-2.7287298932	-0.0532295262	-0.417044
C	 0.0657953167	-2.110241039	 1.1716389549	 0.432831
O	 0.1041661748	-2.6466896657	 2.2524344417	-0.375537
N	 0.0422263876	-0.6821838943	 1.1020161925	-0.362403
H	 0.8750202684	 1.8739085754	 0.501394538	 0.154758
H	-0.0598150576	 1.8934156383	-1.0160463799	 0.171168
H	-0.891956141	 1.8479928653	 0.5598011083	 0.154452
H	-0.003455981	-3.5287424655	-2.1273869224	 0.313514
H	 0.0597205497	-0.2039886173	 1.9920388824	 0.271133
65.2982	137.9165	192.8443	198.0368	299.0804	389.8219	536.1688	566.7334	598.4427	600.4886	633.5672	656.379	686.5057	786.8743	822.8235	928.2953	984.0007	1031.0875	1065.7298	1074.4341	1190.8698	1276.2918	1277.6667	1403.17	1452.9732	1481.9606	1486.845	1493.8773	1598.9296	1659.8556	1840.9328	3046.144	3105.2107	3171.1907	3609.1514	3760.5992
CC1=NC(O)=NC(=O)N1	Cc1nc(O)nc(=O)[nH]1	
InChI=1S/C4H5N3O2/c1-2-5-3(8)7-4(9)6-2/h1H3,(H2,5,6,7,8,9)	InChI=1S/C4H5N3O2/c1-2-5-3(8)7-4(9)6-2/h1H3,(H2,5,6,7,8,9)
