18
gdb 73046	3.53448	1.06777	0.96526	3.9037	76.41	-0.2498	0.0403	0.2902	1256.4891	0.14706	-401.926658	-401.918028	-401.917083	-401.960444	31.918	
C	-0.3521973095	 1.4884797285	 0.1749293504	-0.488764
C	 0.0288068305	 0.047790048	 0.0796133966	 0.429327
O	-1.0351625799	-0.9096730006	-0.0492707761	-0.317388
C	-0.3441990345	-1.8244787633	 0.8480302331	-0.104932
C	 0.8672758163	-0.9079038629	 0.9137345705	-0.183346
C	 1.2973884572	-0.5221272291	-0.4915761041	-0.076029
C	 1.2966847498	-1.4751256385	-1.6781160047	-0.383517
C	 2.3097569186	-2.5241216248	-1.566885764	 0.267799
N	 3.1164224061	-3.3450810697	-1.4612197629	-0.314312
H	 0.532921369	 2.1093967356	 0.3391140392	 0.128581
H	-0.8317440763	 1.8196162611	-0.7531439829	 0.136413
H	-1.0551206449	 1.6533530947	 0.9969961792	 0.134559
H	-0.8822967683	-1.9016563082	 1.7984153138	 0.119142
H	-0.2184018571	-2.8234448222	 0.4151217802	 0.11755
H	 1.4913287786	-0.7373492762	 1.7804862665	 0.10745
H	 2.1278330637	 0.1790394248	-0.4788431424	 0.1077
H	 0.3080647891	-1.9360270793	-1.773345598	 0.169283
H	 1.4718962417	-0.9184430178	-2.6056236245	 0.150485
46.9935	110.7231	195.3206	210.4954	249.842	270.2768	321.2963	396.931	439.9863	545.4979	589.5066	661.4498	739.7827	816.1657	894.4631	905.2234	932.7558	943.9792	973.6915	990.7105	1003.3618	1035.9148	1095.377	1116.4971	1141.4918	1163.2253	1197.7838	1213.4635	1275.822	1310.6819	1333.6027	1346.4633	1411.0948	1471.0339	1472.7241	1478.0102	1500.4392	1524.8819	2359.8031	3033.5616	3035.7933	3048.378	3082.5657	3088.1211	3100.6296	3120.3963	3150.2948	3205.251
CC12OCC1C2CC#N	C[C@]12OC[C@H]1[C@H]2CC#N	
InChI=1S/C7H9NO/c1-7-5(2-3-8)6(7)4-9-7/h5-6H,2,4H2,1H3	InChI=1S/C7H9NO/c1-7-5(2-3-8)6(7)4-9-7/h5-6H,2,4H2,1H3/t5-,6+,7-/m1/s1
