17
gdb 42941	2.39506	2.13274	1.45984	3.4993	70.78	-0.2292	-0.0243	0.2049	918.1569	0.138393	-421.810802	-421.804184	-421.803239	-421.84167	27.197	
O	-0.0016120955	-0.0033956366	-0.0168264746	-0.327723
C	 0.0003390386	 1.2040138123	 0.0146062636	 0.409879
C	-1.2497658938	 2.0410521811	-0.0227499081	-0.123549
C	-1.6776928804	 2.8955562654	 1.1635703235	-0.305387
C	-1.0140622873	 3.5411118254	-0.0171818581	-0.037186
C	 0.4699561898	 3.8829846158	-0.0071817146	 0.07294
C	 1.2943460911	 3.1301674635	 1.0630622549	-0.27633
C	 1.294872328	 2.03328338	-0.0181324242	-0.010348
O	 1.1190107663	 3.0621644339	-1.0355667357	-0.292628
H	-2.0475010959	 1.6133466358	-0.6193720188	 0.115647
H	-2.7473381954	 3.0370360988	 1.2734090753	 0.127011
H	-1.1515139786	 2.8075110771	 2.1051840487	 0.127998
H	-1.6264555685	 4.15066873	-0.6731370814	 0.101369
H	 0.658581172	 4.9476136367	-0.1599848837	 0.086972
H	 2.2867927067	 3.5709382791	 1.1667671031	 0.123517
H	 0.8762277959	 2.9243794645	 2.0484416984	 0.112146
H	 2.166875587	 1.3981698574	-0.1808727182	 0.095672
123.0079	226.3164	339.1373	411.4742	434.92	458.8653	493.9735	606.2477	694.3816	750.6747	774.8695	826.6425	873.1169	893.0583	907.8124	937.1479	953.431	969.9798	985.2993	1031.5456	1061.3353	1078.0222	1112.1126	1116.4339	1125.425	1193.1294	1215.3561	1233.7147	1254.0853	1299.9564	1301.6446	1345.3393	1358.0651	1390.9444	1481.401	1510.0935	1819.6333	3083.7456	3093.0309	3113.5128	3141.5338	3148.4757	3165.652	3179.9435	3233.0629
O=C1C2CC2C2CC1O2	O=C1[C@H]2C[C@H]2[C@H]2C[C@@H]1O2	
InChI=1S/C7H8O2/c8-7-4-1-3(4)5-2-6(7)9-5/h3-6H,1-2H2	InChI=1S/C7H8O2/c8-7-4-1-3(4)5-2-6(7)9-5/h3-6H,1-2H2/t3-,4+,5-,6+/m1/s1
