23
gdb 92586	2.04398	1.59803	1.449	1.5346	83.89	-0.2484	0.0628	0.3112	1108.3533	0.207071	-388.302727	-388.293955	-388.29301	-388.335653	35.293	
C	-0.2427457868	 1.4508564766	 0.043294994	-0.485954
C	 0.0334294894	-0.0461011988	 0.0028308114	 0.329032
C	-1.2496528373	-0.8966206316	-0.1259616502	-0.274332
C	-1.0023110312	-2.1874228912	 0.6819731428	-0.22027
C	-0.0865173129	-1.7352369944	 1.8364756648	-0.213459
C	 0.8369544568	-0.6927276776	 1.1949053287	-0.036065
C	 1.885312834	-1.2481768668	 0.1868335327	-0.28776
C	 1.1956817545	-0.4704096981	-0.9646936148	 0.104955
O	 0.8947326183	-1.1473282906	-2.1635352178	-0.429206
H	 0.682431247	 2.0251623589	 0.1659371974	 0.108942
H	-0.7198839414	 1.7874587041	-0.885014325	 0.119502
H	-0.909205105	 1.7127357958	 0.8733876958	 0.108757
H	-2.0870445697	-0.3438112602	 0.3153849634	 0.095257
H	-1.5119960068	-1.0845147209	-1.1720762804	 0.099465
H	-1.9291277722	-2.6531210179	 1.0288713229	 0.097338
H	-0.4905620127	-2.9395062805	 0.0673560938	 0.084841
H	-0.6890885594	-1.2638281715	 2.6227918936	 0.095446
H	 0.4605688042	-2.5635851235	 2.2994880374	 0.093436
H	 1.2544573064	 0.013190381	 1.9162739916	 0.058423
H	 2.930090354	-0.9912026165	 0.3773241259	 0.099869
H	 1.8278061788	-2.3348053142	 0.0563924505	 0.089679
H	 1.7750920986	 0.4043993383	-1.2751515382	 0.082173
H	 0.5002614434	-1.9970172306	-1.9412701904	 0.279932
72.9426	196.7996	220.8194	234.4444	282.3963	290.0613	315.4809	367.2014	441.405	513.8769	543.3775	585.0786	621.5384	737.9091	801.1219	831.7607	873.0846	884.8315	898.3885	940.8516	956.6919	980.6353	1001.9603	1036.6138	1050.4078	1080.9022	1117.201	1122.5323	1155.6052	1178.072	1195.4787	1230.0179	1243.4422	1255.7161	1276.8619	1291.1687	1304.2629	1315.9415	1335.1239	1348.5353	1366.3298	1408.2849	1437.0282	1478.0197	1484.5751	1489.8991	1493.6214	1497.9659	1511.5606	3015.8437	3016.4456	3027.4016	3035.537	3040.6512	3059.2828	3073.494	3076.7433	3079.3248	3082.8129	3085.0815	3089.182	3103.4981	3810.708
CC12CCCC1CC2O	C[C@]12CCC[C@H]1C[C@H]2O	
InChI=1S/C8H14O/c1-8-4-2-3-6(8)5-7(8)9/h6-7,9H,2-5H2,1H3	InChI=1S/C8H14O/c1-8-4-2-3-6(8)5-7(8)9/h6-7,9H,2-5H2,1H3/t6-,7+,8-/m0/s1
