14
gdb 83064	2.90129	1.52772	1.27596	4.3822	66.93	-0.2499	-0.0191	0.2308	978.9324	0.102319	-432.857974	-432.85046	-432.849516	-432.889924	28.165	
N	 0.1485121376	 1.3921388962	 0.0092845843	-0.516452
C	 0.0026532722	-0.0168923721	 0.0550678596	-0.061057
C	-0.4856400603	-0.7092331475	 1.2815153721	 0.004951
O	-1.2422574439	 0.082052826	 2.1788775436	-0.212594
C	-2.3640553733	 0.45124351	 1.4943157942	 0.07253
N	-2.5404143583	 0.002540349	 0.318698516	-0.280845
C	-1.3689785112	-0.7765929036	 0.0146769993	 0.160648
C	-1.5052525328	-1.9279949777	-0.8247939852	 0.227097
N	-1.5637975326	-2.8607906447	-1.5066620005	-0.34186
H	-0.2409207616	 1.8002508249	-0.8324209505	 0.254665
H	-0.2566801604	 1.8494454598	 0.8161007379	 0.251161
H	 0.7668080504	-0.5781694861	-0.4768524938	 0.135187
H	 0.0297715364	-1.530782614	 1.7614663617	 0.144163
H	-3.0326541621	 1.1070757198	 2.0369662113	 0.162407
137.5298	165.1363	179.4844	229.5945	261.5538	447.4762	478.0254	517.6761	561.9364	593.0581	723.8602	744.7048	753.5496	762.73	895.0938	910.0928	940.7976	973.6447	1022.9929	1070.375	1119.1809	1127.3582	1227.4284	1269.8368	1279.6856	1308.7748	1354.0629	1440.5386	1650.1444	1669.7623	2352.7967	3146.2187	3206.5333	3242.0123	3531.3692	3617.8459
NC1C2OC=NC12C#N	N[C@H]1[C@H]2OC=N[C@@]12C#N	
InChI=1S/C5H5N3O/c6-1-5-3(7)4(5)9-2-8-5/h2-4H,7H2	InChI=1S/C5H5N3O/c6-1-5-3(7)4(5)9-2-8-5/h2-4H,7H2/t3-,4+,5-/m0/s1
