12
gdb 132401	2.02122	1.88354	0.97498	1.1239	59.56	-0.2609	-0.0179	0.243	1065.2382	0.079159	-513.9987	-513.992014	-513.991069	-514.029951	25.726	
O	 0.0324576121	 1.3348851915	-0.0193284006	-0.403888
C	 0.0508782833	-0.0016667352	-0.047973682	 0.465589
C	 0.0538196218	-0.6625662484	-1.2707269921	-0.32787
C	 0.0734830104	-2.0497029938	-1.184743879	 0.465589
O	 0.0779031825	-2.7810976454	-2.3039289346	-0.403889
N	 0.0886991163	-2.7152709943	-0.0230030952	-0.421343
C	 0.0836915952	-1.9501584894	 1.0496218809	 0.351606
F	 0.0980717562	-2.5894809891	 2.2017241081	-0.052899
N	 0.0657334122	-0.6352771375	 1.131507856	-0.421343
H	 0.0336971462	 1.591145516	 0.9141966988	 0.309104
H	 0.0417252437	-0.1387669177	-2.2146683932	 0.130239
H	 0.0921721001	-3.7087555367	-2.0275466671	 0.309104
192.6185	223.0362	242.2413	352.0287	360.6122	533.7209	551.0365	563.0296	564.344	622.7714	644.1775	722.0644	731.8929	804.7416	855.116	999.9219	1044.7877	1091.3176	1172.6262	1241.6944	1273.8816	1371.4001	1480.754	1499.3644	1509.0297	1651.6001	1672.1766	3248.9556	3762.2068	3763.5459
OC1=CC(O)=NC(F)=N1	Oc1cc(O)nc(F)n1	
InChI=1S/C4H3FN2O2/c5-4-6-2(8)1-3(9)7-4/h1H,(H2,6,7,8,9)	InChI=1S/C4H3FN2O2/c5-4-6-2(8)1-3(9)7-4/h1H,(H2,6,7,8,9)
