21
gdb 74844	2.22798	1.70494	1.31685	1.3342	83.92	-0.2229	0.0221	0.245	1091.4887	0.181385	-387.095677	-387.086542	-387.085598	-387.128657	35.947	
C	 0.0833753257	 1.4886051012	-0.0139862994	-0.508211
C	 0.019056717	-0.0070158931	-0.0359644058	 0.284775
C	-0.1028014493	-0.7928406374	-1.1113859565	-0.189298
C	-0.0750077776	-2.2417874992	-0.768876855	-0.079896
C	 1.2247510677	-2.7254893017	-0.1513892384	-0.296831
C	 0.0919496867	-2.2789445968	 0.7340732974	-0.04535
C	 0.0622022444	-0.8398476541	 1.2519379347	 0.277539
C	 1.2276491221	-0.4900545924	 2.184333381	-0.439926
O	-1.1752468666	-0.7186406899	 1.9748266048	-0.473759
H	 1.0459712383	 1.8553077882	 0.3647360958	 0.125792
H	-0.0616725696	 1.9060245492	-1.0140196983	 0.126275
H	-0.692930879	 1.912365338	 0.6368856841	 0.115419
H	-0.1766878185	-0.4327312213	-2.13274029	 0.088334
H	-0.7007591092	-2.9460165745	-1.3054149282	 0.086151
H	 1.4310515178	-3.7911631953	-0.1747122081	 0.108071
H	 2.1002996276	-2.0943839898	-0.2643033488	 0.108026
H	-0.417217602	-3.0137919397	 1.3454136205	 0.093084
H	 2.1938506077	-0.6091884286	 1.6866401945	 0.119275
H	 1.1574370337	 0.5495670954	 2.527101612	 0.102863
H	 1.2052109316	-1.1384303162	 3.0648647664	 0.123893
H	-1.1885285683	 0.1481997882	 2.3938108173	 0.273773
121.8469	179.2392	199.5401	220.1712	233.3679	259.5339	266.461	359.953	414.3821	442.4171	454.5697	580.764	626.4915	660.7891	719.4646	813.5051	821.2591	863.362	899.6866	924.1164	952.1204	996.4147	1016.7632	1029.8358	1060.4931	1069.1223	1072.9624	1101.7074	1111.2932	1125.7081	1160.1675	1186.8559	1239.8264	1287.783	1347.5697	1359.9062	1383.1949	1401.9935	1412.8727	1476.5135	1479.897	1485.7503	1494.3715	1497.6698	1704.4079	3012.1021	3028.0172	3056.576	3094.8082	3108.1677	3119.9401	3122.114	3169.0116	3181.1875	3189.1002	3209.4642	3812.0027
CC1=CC2CC2C1(C)O	CC1=C[C@H]2C[C@H]2[C@]1(C)O	
InChI=1S/C8H12O/c1-5-3-6-4-7(6)8(5,2)9/h3,6-7,9H,4H2,1-2H3	InChI=1S/C8H12O/c1-5-3-6-4-7(6)8(5,2)9/h3,6-7,9H,4H2,1-2H3/t6-,7+,8+/m0/s1
