19
gdb 69330	2.71388	1.34613	1.09269	1.7312	81.71	-0.2478	0.055	0.3028	1167.8372	0.156541	-385.823808	-385.814659	-385.813715	-385.856957	35.845	
C	-0.0783127998	 1.5615419457	 0.0726341911	-0.445989
C	 0.0262140196	 0.0315326797	 0.0238415315	 0.126306
C	 1.1207467047	-0.5803714636	-0.9481093581	-0.353858
C	 1.7792682758	-1.2622829718	 0.2568745299	 0.422884
O	 2.2486431912	-2.5630889066	 0.2432304171	-0.463327
C	 2.2053367873	-0.2541788252	 1.2824379752	-0.367438
C	 0.7506461112	-0.672435208	 1.2026583614	-0.131757
C	-1.2859193869	-0.5566514169	-0.2104795592	 0.295251
C	-2.3755115286	-1.0313250612	-0.3948864277	-0.461398
H	 0.8992171599	 2.0202198605	 0.2454737667	 0.112697
H	-0.4745788742	 1.9482279869	-0.8710152873	 0.12588
H	-0.7518221345	 1.8760603096	 0.8753096948	 0.126877
H	 0.6844286178	-1.2976206561	-1.6434994515	 0.125976
H	 1.7287903777	 0.1452531172	-1.499270587	 0.090792
H	 3.1841624455	-2.5459128519	 0.0132330184	 0.285163
H	 2.7271237203	-0.6825356081	 2.1326631193	 0.115764
H	 2.5338807685	 0.7449061059	 1.0074589191	 0.10407
H	 0.2416139689	-1.1278792231	 2.0425097957	 0.10118
H	-3.3345599745	-1.455560453	-0.5606309895	 0.190926
101.6841	153.8535	203.5224	221.7828	246.6116	253.2208	363.257	398.9791	400.3706	454.4541	488.6713	533.3915	600.9796	618.5455	625.0451	680.824	774.6842	833.2744	882.3032	901.2999	933.623	957.2629	994.9911	1011.0363	1041.5833	1074.1175	1103.6557	1137.5723	1148.0186	1215.7408	1246.1503	1263.8885	1277.7139	1320.4583	1397.4306	1413.7733	1472.7828	1486.2946	1492.7209	1505.9652	2231.2915	3039.4668	3044.0067	3107.7054	3112.8186	3115.9535	3135.2112	3195.2259	3203.9442	3502.5333	3793.8871
CC1(CC2(O)CC12)C#C	C[C@]1(C[C@@]2(O)C[C@@H]12)C#C	
InChI=1S/C8H10O/c1-3-7(2)5-8(9)4-6(7)8/h1,6,9H,4-5H2,2H3	InChI=1S/C8H10O/c1-3-7(2)5-8(9)4-6(7)8/h1,6,9H,4-5H2,2H3/t6-,7+,8-/m0/s1
