16
gdb 55347	1.96341	1.81397	1.07823	3.9533	65.33	-0.2442	-0.0552	0.1891	1094.9158	0.123024	-475.030381	-475.021604	-475.02066	-475.065254	30.93	
N	-0.2083887019	 1.3839315344	-0.3292185655	-0.519125
C	 0.0147230772	 0.0635033688	-0.0411271191	 0.33128
O	 1.1117841134	-0.4457214275	 0.0129790878	-0.330684
C	-1.2731227899	-0.7739535389	 0.1018704578	 0.011297
O	-0.9858577776	-2.1331468734	 0.4466331208	-0.246791
C	-1.5521835943	-1.9958354281	 1.7618016151	-0.094764
C	-2.1477370803	-0.6230410437	 1.3904821161	-0.1507
C	-2.0181060902	 0.5435125022	 2.3313205411	 0.136173
O	-1.9776848699	 1.7000240964	 1.9847345823	-0.250268
H	 0.6187484646	 1.9637227637	-0.3201536371	 0.258378
H	-1.0468713015	 1.8125940371	 0.0409308155	 0.268695
H	-1.8350348149	-0.7025747098	-0.8368408896	 0.117694
H	-2.2585363598	-2.7980913662	 1.9961108387	 0.116854
H	-0.7754759987	-1.9556149271	 2.5381286323	 0.116637
H	-3.212631633	-0.7002059427	 1.1413076843	 0.13426
H	-1.9983241232	 0.2769982548	 3.4113201494	 0.101066
37.4219	64.1783	97.6461	194.8029	229.5097	270.8938	358.9512	443.9737	509.622	553.2713	595.6906	619.0342	699.3436	724.126	832.7782	899.7136	928.7882	1005.5769	1040.1841	1064.2748	1091.4381	1132.3227	1139.0318	1162.8449	1202.3464	1257.3399	1293.7084	1322.0442	1357.0234	1385.4955	1422.5803	1526.8868	1642.2237	1806.6442	1819.1474	2890.3116	3009.3981	3036.4225	3049.8656	3079.215	3540.895	3664.1577
NC(=O)C1OCC1C=O	NC(=O)[C@H]1OC[C@H]1C=O	
InChI=1S/C5H7NO3/c6-5(8)4-3(1-7)2-9-4/h1,3-4H,2H2,(H2,6,8)	InChI=1S/C5H7NO3/c6-5(8)4-3(1-7)2-9-4/h1,3-4H,2H2,(H2,6,8)/t3-,4+/m1/s1
