14
gdb 24335	3.84729	1.61186	1.14387	0.7806	68.	-0.2245	0.0022	0.2267	974.1386	0.104216	-436.713405	-436.707069	-436.706125	-436.744341	24.704	
C	 0.0222570283	 1.5155413432	-0.0517439184	-0.282391
N	 1.3815229008	 2.0354153676	 0.1151337023	-0.258312
C	 2.3660344463	 1.2658492951	 0.262016824	 0.112441
O	 2.413240875	-0.1105029621	 0.2995026598	-0.246351
C	 1.1969131239	-0.7124822899	 0.1533124764	 0.260418
C	 0.9029380252	-2.036981942	 0.1448421096	-0.131247
O	-0.4427920828	-2.1788856266	-0.0289044502	-0.149488
C	-0.9815379831	-0.9332944592	-0.128022226	-0.108213
C	-0.017079933	 0.0168850628	-0.0228438833	 0.110077
H	-0.5989909073	 1.9557149021	 0.7385370678	 0.133586
H	-0.3711336767	 1.9163060682	-0.9945471437	 0.133586
H	 3.3734820225	 1.6530957124	 0.3856907265	 0.133217
H	 1.4819813445	-2.9380640996	 0.2414684387	 0.148294
H	-2.0491929136	-0.8966938519	-0.2692083435	 0.144384
94.7782	227.8983	340.93	416.9117	489.9621	507.0074	606.0009	620.7574	659.3195	722.329	732.728	764.4182	883.5205	909.1485	942.4239	966.1808	1017.9431	1066.8053	1092.3873	1172.9007	1197.7459	1247.6524	1250.7092	1315.252	1338.5165	1405.4513	1442.5887	1487.4194	1590.6826	1673.6827	1748.2289	3019.2316	3036.9212	3185.4652	3274.5366	3296.9056
C1N=COC2=COC=C12	C1N=COc2cocc12	
InChI=1S/C6H5NO2/c1-5-2-8-3-6(5)9-4-7-1/h2-4H,1H2	InChI=1S/C6H5NO2/c1-5-2-8-3-6(5)9-4-7-1/h2-4H,1H2
