19
gdb 112528	3.67163	1.01716	0.90279	3.9022	76.97	-0.2446	0.0261	0.2707	1317.6527	0.159316	-419.194845	-419.185383	-419.184439	-419.229482	34.323	
C	-0.4384191533	 0.917604402	 0.1448595836	-0.249492
O	 0.724654844	 0.1074606254	 0.0865255838	-0.238267
C	 0.9383472503	-0.4803903464	-1.1614932342	 0.144357
C	 2.2427300885	-1.2971927726	-1.2224317038	-0.28008
C	 1.4797210155	-2.4346865143	-1.9681141127	-0.176146
C	 1.6979871503	-3.8004478026	-1.5413079971	 0.274723
N	 1.8220219444	-4.8881003202	-1.1661653026	-0.334225
C	 0.1048881548	-1.7656630648	-1.5135344059	-0.032868
N	-0.5786688221	-2.2985672997	-0.3640387827	-0.504421
H	-0.3957633117	 1.7259678659	-0.6005510197	 0.106982
H	-1.3462761467	 0.3242752981	-0.0164729454	 0.13574
H	-0.468608419	 1.3588957335	 1.143481517	 0.13082
H	 0.8677578543	 0.2672374845	-1.9655649276	 0.073227
H	 3.0972228779	-0.8580429206	-1.7382967504	 0.119867
H	 2.5463329686	-1.6007499115	-0.2188465747	 0.134595
H	 1.6075149803	-2.3663588969	-3.051845876	 0.117984
H	-0.6005220403	-1.6664522088	-2.3432786625	 0.088946
H	-0.7890124488	-3.2849739384	-0.4779626515	 0.245843
H	-0.020539137	-2.1886530825	 0.4761440426	 0.242415
48.6378	106.1095	150.8073	183.7388	211.9468	237.6989	265.4237	310.4419	368.4778	423.5627	528.84	553.2921	616.468	691.0421	754.205	813.8841	878.9056	898.7906	946.0689	1014.4785	1049.0086	1065.1376	1075.9643	1155.8491	1167.1234	1176.3225	1185.4893	1220.7354	1252.9345	1257.2592	1290.2278	1306.5211	1333.9193	1392.4168	1412.0098	1478.1237	1485.0499	1487.7193	1510.8316	1646.7177	2346.2864	2986.8923	2993.1642	3061.1394	3064.8947	3077.6211	3085.0615	3124.8703	3144.9097	3505.0612	3589.711
COC1CC(C#N)C1N	CO[C@H]1C[C@@H](C#N)[C@H]1N	
InChI=1S/C6H10N2O/c1-9-5-2-4(3-7)6(5)8/h4-6H,2,8H2,1H3	InChI=1S/C6H10N2O/c1-9-5-2-4(3-7)6(5)8/h4-6H,2,8H2,1H3/t4-,5-,6+/m0/s1
