15
gdb 7335	5.01569	1.07291	1.02823	12.9178	61.67	-0.1976	-0.0208	0.1768	1155.6876	0.117031	-436.91929	-436.910797	-436.909853	-436.953531	28.7	
C	-0.3845485668	 1.3422772248	 0.0627814456	-0.347388
N	 0.5222476354	 0.1720388591	 0.1140842697	-0.249679
H	 0.0827416915	-0.7368658239	-0.3305944002	 0.327684
H	 1.3961360604	 0.368239775	-0.3698598919	 0.303663
C	 0.7999357007	-0.4317297295	 1.4566654897	-0.283672
C	 0.5106988208	-1.9418999722	 1.2375262316	 0.271931
O	-0.0537998965	-2.1954323402	 0.1675207404	-0.380126
C	 1.2029777135	-2.9126270058	 2.204603044	 0.358431
O	 0.6453062766	-3.6195828254	 3.0207577168	-0.429039
O	 2.3920338054	-2.7011707646	 1.8421840138	-0.451298
H	 0.0483056791	 2.1786303717	 0.6140331523	 0.172791
H	-0.5463732222	 1.6266272869	-0.9786483283	 0.169965
H	-1.336841151	 1.0583465687	 0.5126575392	 0.186334
H	 1.8272594717	-0.2700449558	 1.7701236814	 0.188985
H	 0.1051193715	-0.0075650386	 2.1859637459	 0.161419
35.1049	88.9162	122.1339	190.7664	217.647	261.1415	343.8245	389.4765	432.7884	542.63	727.4825	745.8898	811.4409	876.8679	930.7973	959.2623	1056.5558	1064.619	1108.5876	1189.2534	1236.3603	1284.3037	1311.5565	1329.9906	1418.0378	1458.1434	1490.0282	1496.6925	1504.6129	1644.0672	1676.6973	1846.9936	2395.4539	3068.3469	3088.0943	3155.7616	3164.7169	3194.1842	3511.5624
C[NH2+]CC(=O)C([O-])=O	C[NH2]CC(=O)C(=O)[O]	
InChI=1S/C4H7NO3/c1-5-2-3(6)4(7)8/h5H,2H2,1H3,(H,7,8)	InChI=1S/C4H7NO3/c1-5-2-3(6)4(7)8/h2,5H2,1H3
