20
gdb 76048	2.37447	1.33942	1.10279	4.2504	84.33	-0.2731	0.0297	0.3028	1206.8882	0.170817	-366.013068	-366.003975	-366.003031	-366.047137	33.762	
C	-0.044071279	 1.5580584293	-0.2403103448	-0.416429
C	 0.0150908716	 0.0567853893	-0.073663378	-0.095431
C	 1.3549562395	-0.6890907515	-0.0748531734	-0.260832
C	 2.5867765848	 0.0386910072	-0.1608313626	 0.300954
N	 3.5800121014	 0.6324619347	-0.2059890151	-0.356592
C	 0.5039515573	-0.5717623837	 1.1860190807	 0.34746
C	 0.9649264251	 0.0952573231	 2.4903906561	-0.298015
C	 0.6935227154	-1.2540630129	 3.2209470012	-0.205489
C	-0.0493563654	-1.7785732206	 1.9561468229	-0.301922
H	 0.7912078964	 2.0511223218	 0.2637133617	 0.142753
H	-0.0061423962	 1.8384040589	-1.2976312624	 0.130523
H	-0.9747655902	 1.9534325213	 0.1802003254	 0.122413
H	-0.7699342707	-0.4898878408	-0.5921260639	 0.096651
H	 1.3767603781	-1.6581205104	-0.5639616863	 0.125735
H	 1.9897694205	 0.4728403291	 2.5115723199	 0.128319
H	 0.2917380268	 0.8966096992	 2.8098212931	 0.107466
H	 1.6125130407	-1.8079343886	 3.4244142673	 0.114436
H	 0.1085817484	-1.2009564829	 4.1407927547	 0.10458
H	-1.1388654607	-1.7424474652	 2.0563559002	 0.107929
H	 0.2321953262	-2.7695936574	 1.5904683534	 0.105491
68.4331	120.2725	134.2953	177.2386	182.4538	217.6557	359.3576	377.4712	421.8374	528.2702	577.3814	634.8294	709.8543	767.1277	786.8148	834.7262	868.6092	925.1259	939.5547	952.3293	995.3151	1007.3102	1071.4771	1094.0163	1115.0486	1134.4569	1143.4244	1188.7185	1222.4824	1236.0149	1255.4437	1264.2984	1278.9771	1320.4543	1350.7039	1420.9057	1446.671	1475.5657	1481.474	1490.2651	1501.6124	1506.1976	2343.2326	3038.1144	3046.9815	3054.8797	3073.0984	3095.3621	3100.7644	3106.8742	3115.5708	3129.751	3133.6678	3157.2234
CC1C(C#N)C11CCC1	C[C@H]1[C@@H](C#N)C21CCC2	
InChI=1S/C8H11N/c1-6-7(5-9)8(6)3-2-4-8/h6-7H,2-4H2,1H3	InChI=1S/C8H11N/c1-6-7(5-9)8(6)3-2-4-8/h6-7H,2-4H2,1H3/t6-,7+/m0/s1
