18
gdb 107594	2.64348	1.65388	1.17646	3.2875	72.46	-0.2303	0.0269	0.2571	1069.3543	0.148399	-439.103426	-439.095053	-439.094109	-439.136292	31.493	
C	 0.0654033139	 1.3264834704	 0.291887463	-0.264277
O	-0.0062696207	 0.0071878966	-0.2470313095	-0.288774
C	-1.2575351731	-0.5614309404	-0.1593086092	 0.349591
C	-1.7679247609	-1.1447881117	 1.1444963098	-0.34514
C	-1.4425843313	-2.0493198528	-0.0194282236	-0.134367
C	-2.5995704945	-2.4560736528	-0.9252989621	-0.183361
N	-3.1281625947	-1.1779074387	-1.3795299025	-0.318073
C	-2.3446039161	-0.0865178267	-1.1080582007	 0.349559
O	-2.4954922334	 1.0335503819	-1.5491780766	-0.387941
H	 1.0983758933	 1.6556095664	 0.1615701796	 0.123316
H	-0.6119879218	 2.002451157	-0.2368244771	 0.152787
H	-0.1802334337	 1.3271642498	 1.3632020957	 0.103381
H	-1.0519269441	-1.15052598	 1.9591339835	 0.126008
H	-2.8020852267	-0.9891512779	 1.4356975195	 0.122306
H	-0.5842125329	-2.7038708043	 0.0573895155	 0.110209
H	-2.2437565066	-3.0654167402	-1.7668801321	 0.116579
H	-3.3613506608	-3.035016394	-0.3885285932	 0.115413
H	-3.9122104259	-1.0953626226	-2.0065953301	 0.252784
109.4031	129.883	176.9328	188.2075	263.5464	295.7366	356.8004	431.9296	490.9791	499.4891	616.1736	691.9571	721.1662	776.7922	840.0906	862.437	942.7073	969.2836	1012.295	1035.84	1052.8308	1066.7268	1104.9895	1116.4165	1182.5964	1186.6978	1221.2422	1234.3443	1264.5884	1329.4036	1333.1586	1397.3415	1445.839	1469.5286	1483.0509	1492.3387	1516.1171	1527.8487	1820.1363	3004.0647	3009.2271	3043.172	3094.4659	3126.9018	3136.6152	3201.6238	3221.5984	3645.2291
COC12CC1CNC2=O	CO[C@]12C[C@H]1CNC2=O	
InChI=1S/C6H9NO2/c1-9-6-2-4(6)3-7-5(6)8/h4H,2-3H2,1H3,(H,7,8)	InChI=1S/C6H9NO2/c1-9-6-2-4(6)3-7-5(6)8/h4H,2-3H2,1H3,(H,7,8)/t4-,6+/m0/s1
