19
gdb 119547	3.25217	1.06261	0.88708	2.6223	77.68	-0.2389	-0.0056	0.2332	1349.3927	0.157845	-423.005757	-422.996681	-422.995736	-423.040383	32.771	
C	-0.2437972251	 1.4375280331	 0.8981984502	-0.223266
O	-0.1396796615	 0.049122616	 1.1136017961	-0.241766
C	 0.7139559255	-0.587548973	 0.1867643657	-0.18016
C	 0.7424633826	-2.0590035776	 0.4860543532	 0.209375
C	-0.4823868602	-2.8247427392	 0.970914961	-0.318455
C	 0.7326635495	-2.8461534853	 1.8283937376	-0.090757
C	 1.7221245155	-3.8850887224	 1.2772327276	-0.355573
C	 1.7711987305	-3.025532411	-0.0149171892	 0.345438
O	 2.5201280308	-3.0009247862	-0.9525406151	-0.319844
H	-0.6525506746	 1.6652925133	-0.0985030236	 0.109092
H	-0.9201121653	 1.8354020242	 1.6583453768	 0.129415
H	 0.7322795826	 1.9383544681	 0.9916529195	 0.109104
H	 0.3617251994	-0.4191371427	-0.8453663711	 0.103774
H	 1.7334026086	-0.1706483671	 0.2475028117	 0.101108
H	-1.279554873	-2.1618513082	 1.2881154754	 0.142741
H	-0.8087576689	-3.7264207079	 0.4589674812	 0.115272
H	 0.7648376861	-2.4082506666	 2.8165068323	 0.113856
H	 2.7043642791	-3.8846186912	 1.758330796	 0.131268
H	 1.3610222385	-4.9148349162	 1.1982449547	 0.11938
62.2028	81.5542	104.0255	158.3795	220.1939	264.0263	319.9646	355.6489	417.2402	550.651	558.6149	648.4599	707.1432	803.677	842.2739	892.9425	937.6251	978.4645	981.2661	1012.1239	1026.1071	1078.6833	1080.6477	1099.1195	1147.1711	1165.5091	1185.7149	1209.066	1224.1464	1252.1921	1261.8792	1281.4433	1369.9272	1430.5653	1457.9728	1480.9895	1484.5157	1491.9288	1504.1616	1526.7756	1867.9866	2952.9756	2976.2445	2979.1837	3021.3262	3055.3389	3110.6898	3115.3007	3117.5881	3212.7764	3221.4472
COCC12CC1CC2=O	COC[C@]12C[C@H]1CC2=O	
InChI=1S/C7H10O2/c1-9-4-7-3-5(7)2-6(7)8/h5H,2-4H2,1H3	InChI=1S/C7H10O2/c1-9-4-7-3-5(7)2-6(7)8/h5H,2-4H2,1H3/t5-,7-/m1/s1
