23
gdb 86360	2.29698	1.1687	0.86723	2.7828	86.45	-0.2465	-0.0182	0.2283	1414.243	0.203845	-388.298358	-388.288208	-388.287264	-388.333739	37.409	
C	-0.9805449114	 0.7029940508	-1.4550524965	-0.422158
C	 0.1594716443	-0.217331292	-1.0424419279	 0.051292
C	 1.6206770377	 0.1823248201	-1.3793013415	-0.245489
C	 2.0731651265	-0.4705740108	-0.0465488785	 0.038239
C	 3.2127757695	 0.1541232059	 0.7441324825	-0.417529
C	 0.591785089	-0.3724906377	 0.4583504602	-0.045751
C	 0.299520707	 0.8262965425	 1.3724159402	-0.29088
C	-1.1351439307	 0.854382303	 1.8474863647	 0.167067
O	-1.8818778808	 1.7947037697	 1.7571388353	-0.246359
H	-0.8551545704	 1.7175052987	-1.0649285856	 0.127057
H	-1.03345114	 0.7727115713	-2.5473875334	 0.112553
H	-1.9492574744	 0.3336361191	-1.1015021916	 0.119149
H	-0.0317732286	-1.221120842	-1.439236631	 0.072616
H	 2.0543272061	-0.1951549639	-2.3091660764	 0.093399
H	 1.7525963666	 1.2703020028	-1.3552212594	 0.095743
H	 2.2996160381	-1.5280051527	-0.2251120739	 0.073951
H	 3.0435485084	 1.2193487148	 0.9327822806	 0.115928
H	 3.3527678695	-0.3402215179	 1.7124846807	 0.113058
H	 4.155051949	 0.065614641	 0.1921412851	 0.116213
H	 0.2188552127	-1.2784187782	 0.9504919898	 0.062827
H	 0.9222515908	 0.7327286851	 2.2750980805	 0.120409
H	 0.5336092553	 1.7885205649	 0.909083963	 0.119677
H	-1.4736359442	-0.0995813444	 2.319307203	 0.068991
69.4772	78.1141	105.3102	168.2436	212.5865	229.9385	240.8341	287.8699	325.6656	366.1849	452.0284	498.4021	523.9771	619.4608	734.0631	776.1666	867.7758	882.1503	894.5423	932.4182	964.039	974.2008	1024.4287	1046.1135	1054.8226	1104.8879	1146.6053	1155.4653	1177.1866	1181.7578	1215.5076	1248.1531	1256.8218	1276.8183	1295.1146	1307.1913	1359.8226	1385.4566	1392.4217	1410.7006	1417.5798	1428.4948	1461.0968	1491.1115	1493.5883	1497.3143	1499.4231	1501.0537	1832.491	2841.9235	3004.5898	3020.0727	3024.8583	3028.8448	3031.9126	3038.6596	3042.924	3087.6432	3091.4346	3093.9348	3096.2971	3100.6003	3109.2224
CC1CC(C)C1CC=O	C[C@H]1C[C@@H](C)[C@H]1CC=O	
InChI=1S/C8H14O/c1-6-5-7(2)8(6)3-4-9/h4,6-8H,3,5H2,1-2H3	InChI=1S/C8H14O/c1-6-5-7(2)8(6)3-4-9/h4,6-8H,3,5H2,1-2H3/t6-,7+,8-
