18
gdb 117136	3.03974	0.90698	0.75826	2.4077	71.31	-0.2683	-0.0478	0.2205	1514.3895	0.144987	-476.2396	-476.229701	-476.228757	-476.275449	34.643	
C	-0.8178079895	 1.0962236832	-0.6926689821	-0.391729
C	-0.0473241928	-0.0629688964	-0.0913726454	-0.036639
O	 0.635038074	-0.7375061013	-1.1667083863	-0.256899
C	 1.3801050589	-1.8041748852	-0.8274097612	 0.363073
N	 1.5058834102	-2.2342634005	 0.3520630902	-0.525929
C	 2.0341423326	-2.3941152984	-2.0829623906	-0.032894
O	 2.9185323827	-3.4212570432	-1.7612352836	-0.423077
C	 0.9571838184	-2.8963370527	-3.0359606966	 0.13646
O	 0.9497185944	-4.0451806881	-3.4050859444	-0.257417
H	-0.1438866423	 1.7967613364	-1.1939300374	 0.129197
H	-1.5526487603	 0.7429721698	-1.4218849352	 0.126756
H	-1.349587328	 1.6353284004	 0.0967722892	 0.126166
H	 0.6955306985	 0.2691308274	 0.6406567246	 0.126832
H	-0.7034593639	-0.7786323321	 0.4142405309	 0.125278
H	 2.1247231611	-3.0457189187	 0.3385613037	 0.242137
H	 2.5492863941	-1.5634592925	-2.5948147773	 0.123717
H	 2.5842418867	-4.205852692	-2.2278492482	 0.300932
H	 0.1978574951	-2.1606918659	-3.3542235401	 0.124036
46.7137	92.2742	93.291	139.1048	147.586	251.9327	272.4227	331.1919	344.449	359.6948	442.2184	508.9685	606.3876	710.3399	759.7399	806.5148	842.3231	884.8787	910.9501	957.8079	1032.503	1041.3614	1116.4619	1136.593	1175.7228	1182.9451	1234.1071	1288.5441	1306.266	1359.2482	1383.4272	1404.1789	1424.3729	1430.5467	1486.181	1496.5795	1520.1011	1746.5078	1811.9838	2971.8051	2992.8473	3045.9373	3052.4902	3089.5864	3121.4492	3124.8234	3491.1275	3665.6457
CCOC(=N)C(O)C=O	CCO[C]([NH])[C@@H](O)C=O	
InChI=1S/C5H9NO3/c1-2-9-5(6)4(8)3-7/h3-4,6,8H,2H2,1H3	InChI=1S/C5H9NO3/c1-2-9-5(6)4(8)3-7/h3-4,6,8H,2H2,1H3/t4-/m0/s1
