16
gdb 125301	3.08298	1.66367	1.09514	3.6246	78.31	-0.2204	-0.0308	0.1896	1060.4917	0.125792	-400.756165	-400.748965	-400.748021	-400.787738	27.738	
C	-0.0188942917	 1.5161093865	 0.065785077	-0.504256
C	-0.00737607	 0.022964793	 0.0078172975	 0.183662
C	-0.0283872793	-0.7898349868	-1.0745547417	-0.167355
C	-0.0059300871	-2.2663849983	-0.6997229414	-0.42971
C	 0.0323520866	-2.190903292	 0.7974840725	 0.148118
C	 0.0302806492	-0.8753268729	 1.1555950014	 0.366949
O	 0.0630847374	-0.7150651696	 2.4761373661	-0.240755
N	 0.0898022186	-2.007754615	 3.052441748	-0.153568
C	 0.0703592963	-2.8562912683	 2.0404931708	-0.128103
H	 0.8707735044	 1.8975920961	 0.579572334	 0.142572
H	-0.0489090283	 1.948913405	-0.9368879711	 0.130029
H	-0.8869816357	 1.8822583319	 0.6255817618	 0.14257
H	-0.0580813271	-0.4519135382	-2.1032907152	 0.104987
H	-0.8902126921	-2.7883741429	-1.0875978459	 0.137403
H	 0.8658671873	-2.7732300231	-1.1332533115	 0.137398
H	 0.0855207221	-3.9126054454	 2.2713842576	 0.130058
145.7326	179.006	224.4899	227.9106	293.0082	492.6695	497.7738	586.0099	626.354	639.8854	739.6472	769.274	771.6214	855.0864	901.5168	944.5976	944.716	965.8372	1015.973	1067.3761	1094.1371	1136.2886	1174.4798	1195.3823	1255.6294	1288.8962	1401.8579	1412.4869	1423.3701	1438.4387	1477.8635	1485.459	1511.3527	1589.8062	1663.4802	3031.0722	3033.0116	3058.5344	3084.459	3123.5748	3210.6788	3237.6349
CC1=CCC2=C1ON=C2	CC1=CCc2c1onc2	
InChI=1S/C7H7NO/c1-5-2-3-6-4-8-9-7(5)6/h2,4H,3H2,1H3	InChI=1S/C7H7NO/c1-5-2-3-6-4-8-9-7(5)6/h2,4H,3H2,1H3
