17
gdb 29835	3.96281	1.06323	0.84538	3.0832	88.05	-0.1875	0.021	0.2085	1329.9886	0.135823	-380.873648	-380.864467	-380.863523	-380.90736	34.08	
C	-0.0547759844	 1.4568521446	 0.0198876849	-0.344288
N	-0.0173053946	 0.009352095	 0.0015904796	-0.010946
C	 0.0064530266	-0.7762125314	-1.120204718	-0.223415
C	 0.0237092842	-2.1029988755	-0.7280367617	 0.161096
C	 0.0333795196	-2.1089048342	 0.7050805389	-0.374732
C	 0.0108927092	-0.7996020719	 1.1220339875	 0.299183
N	-0.0667536666	-0.2136047074	 2.4017852537	-0.614351
C	 0.0363975012	-3.228397676	-1.583057461	 0.241908
C	 0.048534602	-4.1970864218	-2.30046067	-0.455761
H	 0.9511230525	 1.8929615446	-0.0116455458	 0.131547
H	-0.617801466	 1.8179840476	-0.843597075	 0.140477
H	-0.5499138318	 1.7823411749	 0.9365489216	 0.1601
H	 0.012478274	-0.341684578	-2.1062890402	 0.122284
H	 0.0554838092	-2.9818264632	 1.3382898193	 0.09503
H	-0.3950132791	-0.8892543321	 3.0805892254	 0.250487
H	 0.8284585317	 0.1408742574	 2.7269507382	 0.245161
H	 0.0582219623	-5.0472357125	-2.9352715473	 0.17622
99.2949	121.3836	139.9121	182.1817	190.6283	282.8244	300.2356	414.6238	468.6145	517.4113	517.6445	572.343	625.9405	640.1284	653.0189	669.375	705.1316	782.2279	806.9479	828.6379	999.5753	1078.4386	1136.7017	1152.2125	1172.62	1208.4088	1249.9303	1363.4962	1394.708	1435.0761	1467.5027	1493.1275	1517.1033	1555.3972	1603.3559	1655.3857	2227.2246	3027.1312	3101.8966	3144.8627	3255.3133	3268.154	3488.9416	3507.5249	3596.8606
CN1C=C(C=C1N)C#C	Cn1cc(cc1N)C#C	
InChI=1S/C7H8N2/c1-3-6-4-7(8)9(2)5-6/h1,4-5H,8H2,2H3	InChI=1S/C7H8N2/c1-3-6-4-7(8)9(2)5-6/h1,4-5H,8H2,2H3
