15
gdb 5233	7.43693	1.17005	1.04617	2.923	63.96	-0.2219	0.0119	0.2338	1105.2479	0.119096	-399.821575	-399.814019	-399.813075	-399.854881	26.324	
C	-0.0194203497	 1.4656954958	 0.1091914706	-0.387166
C	-0.0341822664	-0.026619433	-0.1539550637	-0.064428
O	-1.2989027386	-0.5390445027	 0.3190934832	-0.274178
C	-1.5245256503	-1.8348440125	 0.1251324754	 0.39663
C	-2.6063047115	-2.5304020741	-0.3029075381	-0.217017
N	-2.3251339157	-3.8919961727	-0.214776649	-0.251428
C	-1.1196191176	-3.9459261701	 0.2373092588	 0.076762
O	-0.5504953317	-2.7322353805	 0.4805863138	-0.187851
H	 0.9271951428	 1.8939727124	-0.232807069	 0.125064
H	-0.8372776253	 1.9611627857	-0.4207413569	 0.134565
H	-0.1262089609	 1.6690505854	 1.178157706	 0.136186
H	 0.057864189	-0.249112801	-1.2247037742	 0.112798
H	 0.7797659513	-0.5346829474	 0.3737412841	 0.125873
H	-3.5510760233	-2.1534128064	-0.655752641	 0.125971
H	-0.507957882	-4.8117447789	 0.4342925401	 0.148219
37.2462	58.7879	143.2488	242.8328	333.5196	364.614	456.7756	665.4177	676.7902	742.6351	801.2977	817.3929	823.4712	897.3284	932.4966	987.3238	1053.843	1108.0681	1121.9853	1129.0888	1181.4033	1247.4034	1284.001	1296.3373	1354.7457	1398.3144	1421.2784	1483.1978	1499.7152	1521.251	1562.6957	1672.1249	3023.6197	3048.9896	3075.684	3124.5167	3129.437	3276.9715	3281.2446
CCOC1=CN=CO1	CCOc1cnco1	
InChI=1S/C5H7NO2/c1-2-7-5-3-6-4-8-5/h3-4H,2H2,1H3	InChI=1S/C5H7NO2/c1-2-7-5-3-6-4-8-5/h3-4H,2H2,1H3
