16
gdb 128229	2.1609	1.61122	0.93218	3.0606	82.18	-0.1921	-0.0012	0.1909	1210.5556	0.12495	-396.908049	-396.899373	-396.898429	-396.941425	32.211	
C	-0.1375689957	 1.4024241534	 0.0129939765	-0.328044
N	 0.2031878445	-0.0033380022	 0.1114261341	-0.404884
C	 0.6931211653	-0.6464964514	-1.0114040424	 0.16546
C	 1.2883480466	-0.1167764668	-2.1408634277	-0.123358
N	 1.638617946	-1.1883951887	-2.9147213766	-0.196114
N	 1.3109219662	-2.3666645147	-2.3902799995	-0.294897
C	 0.727732047	-2.059589856	-1.2203148496	 0.15691
C	 0.20916222	-3.0315846847	-0.3343461439	 0.25909
C	-0.2637763551	-3.797815409	 0.4666596664	-0.439327
H	 0.7678824671	 1.9951756828	-0.1621625007	 0.128927
H	-0.8500181144	 1.6265878298	-0.7978352886	 0.110731
H	-0.5694916937	 1.7348571468	 0.9595302634	 0.127407
H	-0.4668611054	-0.5646471887	 0.6175381652	 0.241957
H	 1.4901878863	 0.8963400463	-2.4443678828	 0.129875
H	 2.0957065085	-1.1686057521	-3.8100061831	 0.276688
H	-0.6637884232	-4.4951909948	 1.1600419694	 0.189578
87.9019	120.6165	164.6169	187.1297	225.9727	332.581	392.7676	455.3332	505.1265	520.7784	544.4644	585.1408	615.7237	656.5106	674.7858	700.9894	762.574	765.3846	948.8505	1064.6479	1086.4218	1137.3047	1162.439	1200.7005	1250.7453	1341.0321	1372.3726	1437.0568	1463.2308	1475.4295	1485.1453	1517.7881	1549.781	1633.0271	2227.1403	2969.7944	3054.0449	3120.0678	3278.0537	3502.7484	3591.2906	3679.0083
CNC1=CNN=C1C#C	CNc1c[nH]nc1C#C	
InChI=1S/C6H7N3/c1-3-5-6(7-2)4-8-9-5/h1,4,7H,2H3,(H,8,9)	InChI=1S/C6H7N3/c1-3-5-6(7-2)4-8-9-5/h1,4,7H,2H3,(H,8,9)
