13
gdb 128630	3.1038	1.40812	0.97461	5.5753	63.91	-0.2784	-0.0906	0.1877	1114.3302	0.088691	-489.884876	-489.877231	-489.876286	-489.917621	27.099	
C	 0.0217079232	 1.3859142949	 0.0073051141	-0.246468
O	-0.0363869589	-0.0535348932	 0.0034531232	-0.242869
C	-1.2378864242	-0.6058350296	 0.0107428553	 0.440413
N	-2.3194507633	 0.096302008	 0.0208878618	-0.434369
C	-3.5270881427	-0.5725295224	 0.0279626492	 0.479835
O	-4.6073391427	-0.068953151	 0.037357925	-0.318996
O	-3.5017736471	-1.9951409484	 0.0236341804	-0.250223
N	-2.3413620793	-2.7185586933	 0.0128216372	-0.016068
C	-1.2420994446	-2.0548532491	 0.0065402674	-0.041643
H	 1.0833394955	 1.6283006249	 0.0002639463	 0.148106
H	-0.4781578322	 1.7863808312	-0.8769682113	 0.160443
H	-0.465170402	 1.7811072189	 0.901143222	 0.160448
H	-0.3216282116	-2.6261019109	-0.0020291006	 0.161393
85.6313	139.6239	163.2933	213.8482	227.4025	424.9659	437.9191	510.573	581.3591	605.6688	715.5795	749.1839	784.2938	844.3573	904.4944	955.7443	1019.1942	1039.3892	1161.0998	1176.4972	1247.2439	1291.2179	1406.2291	1479.4144	1487.609	1495.783	1620.3849	1674.7352	1889.2793	3062.8861	3144.9333	3175.8837	3215.1936
COC1=NC(=O)ON=C1	COc1nc(=O)onc1	
InChI=1S/C4H4N2O3/c1-8-3-2-5-9-4(7)6-3/h2H,1H3	InChI=1S/C4H4N2O3/c1-8-3-2-5-9-4(7)6-3/h2H,1H3
