17
gdb 35373	3.78845	1.41863	1.26033	4.8441	74.84	-0.2291	0.0316	0.2608	1004.0979	0.1392	-380.845014	-380.838173	-380.837229	-380.876282	27.58	
N	-0.0783716481	-1.1652966168	-0.2090937516	-0.331222
C	-0.0546698229	-0.0163311481	-0.0884070606	 0.301349
C	-0.0202923968	 1.4479019881	 0.0235979927	-0.134009
N	-0.5684357971	 1.9113689277	 1.3170696031	-0.308248
C	 0.2120335115	 3.1001555707	 1.6628251821	-0.002378
C	 1.680690488	 2.9114525676	 1.9737642229	-0.062276
C	 2.1720276997	 1.615811569	 1.3285873179	-0.235748
C	 1.4124334382	 2.0285890082	 0.0254175987	-0.055716
C	 1.2208878813	 3.4524415028	 0.6147995705	-0.116446
H	-0.5700815764	 1.8575673943	-0.8384177182	 0.10975
H	-1.5522662237	 2.1357586166	 1.2310976513	 0.230902
H	-0.3160060447	 3.873529176	 2.2069400431	 0.099338
H	 2.1617256211	 3.4470325562	 2.784078356	 0.088151
H	 3.2524989485	 1.6305557001	 1.1705671039	 0.109355
H	 1.8848183518	 0.6682804226	 1.7936354951	 0.12327
H	 1.9349558702	 1.9009726575	-0.9202296206	 0.092183
H	 1.3676439393	 4.4061074076	 0.1256466737	 0.091744
105.078	157.4721	275.7727	364.6722	464.2135	497.358	550.9065	605.0521	691.4852	727.2996	777.4176	787.505	834.6341	860.0009	920.3651	926.0383	975.5086	979.0525	1001.1627	1020.0987	1036.3351	1057.9543	1066.44	1095.6906	1126.8081	1137.2512	1205.8807	1226.3394	1260.1303	1282.6108	1296.3674	1335.3143	1343.1125	1399.5657	1443.8618	1495.1499	2359.2429	2976.3585	3059.683	3115.0652	3140.253	3175.4738	3191.7417	3203.993	3550.0505
N#CC1NC2C3CC1C23	N#C[C@H]1N[C@H]2[C@H]3C[C@@H]1[C@@H]23	
InChI=1S/C7H8N2/c8-2-5-3-1-4-6(3)7(4)9-5/h3-7,9H,1H2	InChI=1S/C7H8N2/c8-2-5-3-1-4-6(3)7(4)9-5/h3-7,9H,1H2/t3-,4-,5+,6+,7-/m0/s1
