19
gdb 15233	2.30414	1.92165	1.33183	1.0703	78.36	-0.2212	0.0356	0.2568	1025.6134	0.163033	-327.867591	-327.858379	-327.857435	-327.901224	33.817	
C	-1.4742202147	 1.4527691403	 1.9699857066	-0.373264
C	-1.419424899	-0.0405526914	 1.6572474144	-0.118142
N	-0.0796559572	-0.5587679624	 1.9339179159	-0.104336
C	 0.3386063481	-1.8506263988	 1.4090598641	 0.005775
C	-0.5524358677	-2.7507585788	 0.5826439563	-0.4213
C	 0.9286267546	-0.5773497406	 0.853024901	-0.21479
C	 0.6124037143	-0.1475776026	-0.4809160563	 0.358615
C	 0.3694672399	 0.2423429013	-1.5937434081	-0.480639
H	-0.8085371486	 2.0104785139	 1.3041296284	 0.126038
H	-2.4897467449	 1.8370657626	 1.8325941018	 0.108659
H	-1.1634340312	 1.6425136277	 3.001155466	 0.123162
H	-2.1103422666	-0.5878238666	 2.3092587751	 0.100831
H	-1.7454739761	-0.2082348367	 0.6213835311	 0.099799
H	 0.9764157738	-2.3927040042	 2.1076367832	 0.093754
H	-1.0458406818	-2.2174025995	-0.2312669786	 0.136844
H	 0.0461390653	-3.5534286671	 0.1399729302	 0.124788
H	-1.3190864134	-3.2173832091	 1.2106624703	 0.123215
H	 1.9230354246	-0.2854616925	 1.1853621108	 0.111628
H	 0.1607084608	 0.5824621744	-2.5778316122	 0.199363
67.0598	136.4139	151.1868	166.0486	208.1286	232.8408	296.4047	370.5302	371.149	511.5702	587.2858	595.1302	608.9217	657.5443	704.6201	795.3032	813.1369	846.125	961.2519	983.0442	1035.8119	1059.7467	1099.4569	1127.5557	1158.2862	1177.5015	1181.6619	1308.5276	1331.2279	1361.0517	1382.4231	1405.3891	1413.5494	1419.5095	1487.3738	1490.5135	1495.3209	1499.2967	1508.8354	2225.5329	3005.5808	3040.7714	3040.8572	3054.6525	3095.2552	3098.9016	3112.1714	3119.0052	3120.4325	3140.8512	3502.5905
CCN1C(C)C1C#C	CCN1[C@@H](C)[C@H]1C#C	
InChI=1S/C7H11N/c1-4-7-6(3)8(7)5-2/h1,6-7H,5H2,2-3H3	InChI=1S/C7H11N/c1-4-7-6(3)8(7)5-2/h1,6-7H,5H2,2-3H3/t6-,7+,8?/m0/s1
