15
gdb 32357	4.98866	1.08378	0.89537	2.0652	76.37	-0.2073	-0.0727	0.1345	1238.0251	0.112499	-453.949876	-453.941765	-453.940821	-453.98402	29.128	
C	 0.1397954783	 1.4360169273	 0.0984104503	-0.233136
O	 0.1152954615	 0.0111743779	 0.0736037105	-0.275559
C	 0.5280553366	-0.6002811003	-1.0603668549	 0.358765
C	 0.5222004258	-1.9475847646	-1.1309650032	-0.057761
O	 0.9309019341	-2.5988566092	-2.256496898	-0.220199
C	 1.3626848796	-1.8858799984	-3.3561449884	 0.362565
N	 1.7536520737	-2.4442428398	-4.4287416273	-0.532495
C	 1.3353898434	-0.4345761988	-3.1910630248	-0.029554
N	 0.9471335866	 0.1707023539	-2.1226349163	-0.294148
H	 1.1529136665	 1.824162501	-0.0448445254	 0.132897
H	-0.5097187026	 1.8636589948	-0.6715549855	 0.132883
H	-0.2268322982	 1.7110350864	 1.0883815857	 0.13215
H	 0.2086230452	-2.6153205682	-0.3419741669	 0.148029
H	 1.701246741	-3.4607348908	-4.3546789646	 0.22703
H	 1.6710989185	 0.1487816287	-4.0442144612	 0.148534
20.9853	86.524	181.5477	222.4133	326.2344	360.1445	401.8598	423.5114	534.5329	580.0112	620.7975	752.3052	777.5207	818.79	820.5083	848.4477	947.0011	957.3167	1051.7147	1069.8245	1176.3219	1195.1537	1205.6911	1280.1833	1322.0371	1339.5071	1396.7407	1481.9537	1483.104	1501.7802	1596.2542	1683.2369	1724.7675	3035.9679	3103.9607	3144.1748	3175.7379	3243.7387	3489.0188
COC1=COC(=N)C=N1	COC1=COC(=C[N]1)[NH]	
InChI=1S/C5H6N2O2/c1-8-5-3-9-4(6)2-7-5/h2-3,6H,1H3	InChI=1S/C5H6N2O2/c1-8-5-3-9-4(6)2-7-5/h2-3,6H,1H3
