15
gdb 73782	2.49532	1.6846	1.00868	1.3647	76.34	-0.1946	-0.0507	0.1439	1096.9732	0.114619	-450.192293	-450.183686	-450.182742	-450.225413	32.09	
N	 0.0528679476	 1.3772617755	 0.1910279868	-0.61432
C	-0.0320911461	 0.0081748238	 0.0473540405	 0.214932
C	-1.1082190941	-0.8074445987	-0.0538123283	 0.110159
N	-2.4653182502	-0.5177611644	-0.1362131727	-0.617975
C	-0.6312379368	-2.2068162312	-0.1164041975	 0.392079
O	-1.2999004547	-3.2119053111	-0.2185026283	-0.377242
N	 0.7643047695	-2.1483830046	-0.0183700276	-0.43367
C	 1.1934663093	-0.8226468265	 0.0396125801	 0.361018
N	 2.3658407306	-0.3269461662	 0.069530769	-0.55046
H	 0.9985070544	 1.7143321886	 0.0561402359	 0.268965
H	-0.630267941	 1.9065891851	-0.3335786764	 0.254421
H	-2.7873924264	 0.1616803018	 0.5421041345	 0.251123
H	-3.0161531535	-1.3675119373	-0.0838711242	 0.261347
H	 1.3578957147	-2.9485082814	-0.1579405452	 0.25998
H	 3.0930571568	-1.0418692033	 0.0472814336	 0.219644
72.5144	143.5567	224.764	245.2647	263.0046	284.3638	358.8766	373.3852	396.3305	524.2219	545.2266	649.0265	658.2693	681.8845	719.6223	738.9464	759.1867	794.5075	856.5237	921.3949	1064.2777	1070.2335	1168.6452	1287.9778	1291.6083	1336.2251	1400.2749	1435.6955	1631.3027	1637.6561	1745.6266	1753.0233	1827.7853	3482.4479	3516.4579	3532.4746	3611.7435	3637.9693	3669.7287
NC1=C(N)C(=O)NC1=N	NC1=C(NC(=O)[C]1N)[NH]	
InChI=1S/C4H6N4O/c5-1-2(6)4(9)8-3(1)7/h(H6,5,6,7,8,9)	InChI=1S/C4H6N4O/c5-1-2(6)4(9)8-3(1)7/h(H6,5,6,7,8,9)
