19
gdb 14141	4.30606	1.53106	1.33469	1.3047	78.85	-0.2181	0.019	0.237	993.6677	0.166661	-327.921868	-327.914134	-327.91319	-327.953987	29.641	
C	-0.0821143764	 1.5385465815	-0.038714324	-0.395569
C	-0.0417235991	 0.0341322125	 0.0802604002	-0.056976
N	 1.2468682227	-0.622078312	-0.2009065713	-0.380724
C	 0.6842729869	-0.6744875743	 1.1717617197	 0.339205
C	 1.4518529298	 0.0140659406	 2.3106931473	-0.292736
C	 1.5572723977	-1.0500432204	 3.4402847778	-0.268889
C	 0.6667435632	-2.1737627728	 2.9642671281	-0.079257
C	 0.1962540464	-1.9592475224	 1.7357755671	-0.14015
H	 0.8490246093	 1.9833285089	 0.320512092	 0.127061
H	-0.2158927868	 1.8398410845	-1.0833595851	 0.118471
H	-0.9134578588	 1.9548416317	 0.5410258972	 0.113932
H	-0.9373505453	-0.4680960329	-0.2876083256	 0.0745
H	 1.1013116664	-1.5125168209	-0.6724504238	 0.222934
H	 2.4279452741	 0.3575861266	 1.9631506095	 0.11585
H	 0.9024790773	 0.8915979346	 2.6656594349	 0.104737
H	 2.5870756769	-1.4019633679	 3.5860738021	 0.110136
H	 1.2348649074	-0.6531063627	 4.4100439072	 0.105774
H	 0.4621552189	-3.0510877788	 3.5678563376	 0.09375
H	-0.4496056806	-2.627281886	 1.1746703192	 0.087948
65.812	168.1218	184.9051	197.9789	327.3432	390.5703	450.9879	512.3251	534.0768	711.7768	756.3632	783.817	815.5831	840.0996	884.678	917.9958	961.5896	969.0812	991.9238	1035.6239	1039.3362	1062.5604	1086.0645	1123.3776	1128.8248	1175.4782	1231.195	1245.0697	1267.8588	1288.8937	1313.363	1346.6345	1385.8516	1408.15	1462.565	1479.1693	1488.4218	1498.5565	1500.1243	1680.1015	3019.7493	3032.9324	3045.5183	3060.0698	3092.5873	3093.4961	3113.1899	3126.0252	3174.6296	3203.2206	3481.8539
CC1NC11CCC=C1	C[C@H]1N[C@]21CCC=C2	
InChI=1S/C7H11N/c1-6-7(8-6)4-2-3-5-7/h2,4,6,8H,3,5H2,1H3	InChI=1S/C7H11N/c1-6-7(8-6)4-2-3-5-7/h2,4,6,8H,3,5H2,1H3/t6-,7+/m1/s1
