13
gdb 130539	3.54269	1.28296	0.94187	2.3477	75.26	-0.2651	-0.0835	0.1815	1138.7289	0.090137	-415.605991	-415.598425	-415.597481	-415.63858	27.497	
O	 0.0536263735	-0.0940598109	 0.003308597	-0.298812
C	-0.0270460266	 1.1191690194	 0.0073544581	 0.183521
C	 1.1601146543	 1.9672290574	 0.0012514632	 0.229354
C	 2.1358814215	 2.6726473504	-0.0037214604	-0.414601
C	-1.3069973094	 1.8307638455	 0.0185859004	 0.314143
C	-2.60895034	 1.3483344852	 0.0266126253	-0.281546
C	-3.4122670266	 2.4969850296	 0.0354974338	-0.008128
N	-2.6778900302	 3.6175723335	 0.0335617088	-0.206396
N	-1.4159546941	 3.1907705766	 0.0232995652	-0.285189
H	 3.0155235716	 3.2704153427	-0.0081739629	 0.221444
H	-2.9015831039	 0.3118500635	 0.0257866544	 0.137728
H	-4.4894819121	 2.5679606361	 0.0433571947	 0.126641
H	-0.6579610178	 3.855552801	 0.0197932024	 0.281842
78.7766	118.6989	176.9843	236.3211	273.9991	448.6802	493.1698	577.8515	633.594	665.389	676.8538	695.9699	700.2906	782.8264	846.4009	915.6045	935.9948	965.8862	1051.838	1093.3084	1161.6359	1259.7286	1295.7725	1353.4858	1452.5172	1466.3383	1581.6791	1735.7596	2210.5241	3255.1159	3287.0414	3489.1944	3648.3062
O=C(C#C)C1=CC=NN1	O=C(C#C)c1ccn[nH]1	
InChI=1S/C6H4N2O/c1-2-6(9)5-3-4-7-8-5/h1,3-4H,(H,7,8)	InChI=1S/C6H4N2O/c1-2-6(9)5-3-4-7-8-5/h1,3-4H,(H,7,8)
