15
gdb 44929	3.03621	1.54107	1.50029	2.43	64.67	-0.2413	-0.0094	0.2319	919.3481	0.116424	-454.011435	-454.00487	-454.003925	-454.042331	26.448	
O	 0.017339957	-0.0061910537	 0.1061049389	-0.367979
C	 0.0114370393	 1.1936444136	-0.0108264842	 0.4206
N	-1.0897059229	 2.0382961008	-0.0570115349	-0.305578
C	-0.6152737387	 3.4360836973	 0.0148113031	-0.133903
C	 0.6264994848	 3.3291699624	-0.8902818546	-0.224506
C	 1.2093886643	 2.1815901457	-0.0441449841	-0.13391
N	 1.211936038	 2.8340509819	 1.2818741092	-0.305572
C	 0.0434859489	 3.5724132863	 1.414702403	 0.420565
O	-0.3792927436	 4.1137813833	 2.4054043942	-0.367971
H	-1.9520957766	 1.7537659047	 0.3848586367	 0.264027
H	-1.3864157437	 4.1663038974	-0.2143287245	 0.107124
H	 0.374238894	 3.0385435459	-1.911247301	 0.127977
H	 1.2580186756	 4.218824505	-0.8773586139	 0.127975
H	 2.1682734827	 1.7478917003	-0.3140185387	 0.107123
H	 1.603292181	 2.3746989291	 2.0916640107	 0.264028
123.1864	223.0976	354.1088	417.9939	478.0251	498.0333	516.7936	526.4257	621.4305	696.9458	739.2586	767.7608	790.5752	869.2016	896.6753	940.9817	968.2064	997.9412	1004.1275	1026.714	1135.5272	1164.2249	1194.6683	1211.6407	1250.8284	1276.142	1320.4393	1331.6079	1370.4886	1393.7748	1487.5652	1852.6835	1858.0703	3084.5684	3149.0686	3165.1049	3166.055	3616.7267	3617.5218
O=C1NC2CC1NC2=O	O=C1N[C@@H]2C[C@H]1NC2=O	
InChI=1S/C5H6N2O2/c8-4-2-1-3(7-4)5(9)6-2/h2-3H,1H2,(H,6,9)(H,7,8)	InChI=1S/C5H6N2O2/c8-4-2-1-3(7-4)5(9)6-2/h2-3H,1H2,(H,6,9)(H,7,8)/t2-,3-/m1/s1
