20
gdb 99293	4.06442	0.84125	0.76608	2.2456	76.24	-0.2429	0.0104	0.2533	1558.9197	0.170129	-440.297841	-440.288054	-440.28711	-440.333956	34.52	
C	 0.6671608994	 1.1534367769	 0.1987121511	-0.37238
C	-0.0508341471	-0.0878556146	-0.3247053765	-0.298056
C	 0.6626071434	-0.7346099521	-1.4932370141	 0.461504
O	 1.6818827076	-0.3266840687	-1.9986274696	-0.364286
O	-0.0001324817	-1.8335754418	-1.9070725002	-0.248574
C	 0.5509231426	-2.5358598028	-3.0455862269	-0.110487
C	 1.5764579331	-3.5586990545	-2.638546447	 0.0084
C	 2.7059310796	-3.844792587	-3.5621273712	-0.241708
N	 2.9442388067	-3.1449454486	-2.295444726	-0.309646
H	 1.676957522	 0.9081189416	 0.5368696452	 0.134877
H	 0.7590347181	 1.9118916152	-0.5826570308	 0.132324
H	 0.1165575669	 1.5862081909	 1.0383931764	 0.11335
H	-0.1593335333	-0.8502616636	 0.4556927194	 0.137007
H	-1.0729058729	 0.1431901651	-0.6477580561	 0.133327
H	-0.3133995639	-3.0151604695	-3.5133008202	 0.118901
H	 0.9825044838	-1.8064713922	-3.7364225322	 0.123476
H	 1.1910954172	-4.3652207561	-2.0177309734	 0.096964
H	 3.1125970944	-4.8503150423	-3.621789998	 0.120004
H	 2.7571305059	-3.2824896751	-4.491909944	 0.11277
H	 3.0356899183	-2.1431411309	-2.450944016	 0.252233
37.4112	67.9956	90.8052	104.6238	204.5918	209.88	265.1133	327.7186	357.4886	421.8849	545.7066	593.2536	657.611	799.3916	811.584	832.3679	860.7124	929.555	956.9832	980.5934	1016.2042	1035.2963	1071.6751	1101.4653	1108.0067	1129.6413	1154.3451	1204.8669	1233.4635	1265.6066	1278.4978	1300.3173	1333.7103	1369.2404	1393.9387	1417.4714	1439.7633	1457.0084	1478.3436	1494.1545	1500.9086	1514.179	1801.7118	3043.241	3053.2112	3060.0712	3072.9649	3103.9889	3111.703	3124.9742	3130.5127	3132.2477	3188.913	3501.1762
CCC(=O)OCC1CN1	CCC(=O)OC[C@H]1CN1	
InChI=1S/C6H11NO2/c1-2-6(8)9-4-5-3-7-5/h5,7H,2-4H2,1H3	InChI=1S/C6H11NO2/c1-2-6(8)9-4-5-3-7-5/h5,7H,2-4H2,1H3/t5-/m1/s1
