18
gdb 92397	2.23724	1.76852	1.24012	2.682	77.46	-0.2268	0.0063	0.233	1056.6208	0.148296	-398.081271	-398.072903	-398.071959	-398.114121	31.431	
C	-0.1181966109	 1.560471571	-0.0091055121	-0.338108
N	-0.0073927869	 0.1219655433	 0.1093737307	-0.11404
C	-1.2328659583	-0.6798328406	 0.3325912805	-0.161616
C	-0.4601195733	-1.5694937666	 1.3261233944	-0.069455
N	 0.4436273489	-2.5461300395	 0.6801608127	-0.316075
C	 1.6264420815	-1.6573803226	 0.8580913248	-0.196774
C	 0.6813014135	-0.4945313979	 1.2696099087	 0.206201
C	 1.0577339422	 0.3656579664	 2.3695664723	 0.195486
N	 1.3565423131	 1.0627877233	 3.2436781694	-0.348593
H	 0.8773626383	 2.0063506263	-0.0935819237	 0.1347
H	-0.6695602298	 1.7942464022	-0.9252924484	 0.128503
H	-0.6385582086	 2.0392724489	 0.8386149804	 0.11146
H	-2.0357313052	-0.1131123225	 0.8305382933	 0.095211
H	-1.6236614579	-1.169930102	-0.5641104382	 0.114267
H	-0.9574817254	-1.8804410886	 2.2448071657	 0.095685
H	 0.5182768458	-3.4232208792	 1.1801448548	 0.229142
H	 2.2959149984	-1.9546979966	 1.6738855893	 0.113059
H	 2.2017560947	-1.4820037952	-0.0549912545	 0.120949
104.5437	135.1535	167.9497	202.3649	254.7683	300.9156	369.2087	397.0184	501.6274	546.5705	591.981	642.6152	686.9446	793.0552	852.8372	913.5838	968.4526	1006.6226	1010.6343	1052.3494	1062.4046	1083.7788	1129.8086	1144.8022	1162.1708	1173.2037	1202.4852	1249.4375	1254.9976	1298.5802	1326.478	1353.6388	1393.7313	1452.6314	1483.0869	1494.008	1500.0211	1503.6651	2339.5171	2955.7442	2977.9131	3028.4423	3067.8666	3081.4889	3097.2629	3110.1395	3111.9245	3556.1065
CN1CC2NCC12C#N	CN1C[C@H]2NC[C@@]12C#N	
InChI=1S/C6H9N3/c1-9-2-5-6(9,3-7)4-8-5/h5,8H,2,4H2,1H3	InChI=1S/C6H9N3/c1-9-2-5-6(9,3-7)4-8-5/h5,8H,2,4H2,1H3/t5-,6-/m1/s1
