25
gdb 100096	3.0325	0.85436	0.80426	2.3616	85.4	-0.2549	0.0604	0.3153	1598.5647	0.225689	-426.635157	-426.623538	-426.622593	-426.671461	43.476	
C	 1.1252201131	 0.0042710809	-1.1033556166	-0.387077
C	 0.0850719	 0.0800453854	 0.0248834101	 0.023257
C	-1.2668043953	-0.4676361019	-0.4557340176	-0.376666
C	 0.6236051814	-0.6476749932	 1.2729088828	-0.191872
C	-0.1458930992	-0.4909993513	 2.5966938631	 0.351427
C	-0.4345881989	 0.9762851785	 2.9560390126	-0.426833
O	-1.3707785835	-1.217417214	 2.4885644249	-0.469895
C	 0.6802835358	-1.147685417	 3.7182070621	-0.106513
O	-0.1455038392	-1.183956872	 4.8814802901	-0.43651
H	 1.3179413279	-1.0369883132	-1.3892811735	 0.1096
H	 0.7750185724	 0.5318112918	-1.9967591983	 0.107411
H	 2.0805922701	 0.4487244356	-0.8033408932	 0.103416
H	-0.0453805366	 1.1409246173	 0.2761483511	 0.071648
H	-1.1752256291	-1.5233507904	-0.7385931211	 0.10549
H	-2.0279823642	-0.4055618677	 0.3228077326	 0.136896
H	-1.6138835853	 0.0832203047	-1.3370001494	 0.096073
H	 0.6868338551	-1.7219566497	 1.0549956203	 0.094703
H	 1.6514534755	-0.3030747391	 1.4518007666	 0.083408
H	-1.1502372837	 1.4082020984	 2.2535016772	 0.124584
H	-0.8607743903	 1.036920774	 3.9610579518	 0.124375
H	 0.4797964376	 1.5796377566	 2.9376494503	 0.104707
H	-1.6682801052	-1.3538887235	 3.397745757	 0.280813
H	 0.9585882964	-2.1638937591	 3.4074835565	 0.09295
H	 1.5998762443	-0.5743858903	 3.9064480015	 0.089869
H	 0.2175670307	-1.8246620811	 5.4981379794	 0.294738
48.3896	101.0006	145.1656	163.6257	223.0276	224.8123	246.0309	261.3233	267.9677	309.1437	326.5694	340.1276	390.0857	418.6596	436.0809	458.2246	477.166	636.9006	772.0217	816.7483	877.7156	909.8108	932.9733	939.596	964.9268	971.1016	993.3571	1053.096	1087.1404	1117.8507	1148.7247	1185.5243	1197.144	1204.8394	1252.9252	1261.7967	1319.8081	1328.9135	1367.6274	1382.2414	1396.4861	1401.0425	1417.9214	1426.4393	1441.6738	1466.2829	1487.0661	1491.3915	1495.0778	1501.4413	1504.7955	1509.8172	1512.2798	2988.8823	3007.0984	3015.2558	3020.5264	3029.3751	3034.7865	3039.6522	3052.8599	3082.8492	3089.4821	3095.3527	3110.6682	3131.2036	3144.6252	3761.6158	3850.0329
CC(C)CC(C)(O)CO	CC(C)C[C@@](C)(O)CO	
InChI=1S/C7H16O2/c1-6(2)4-7(3,9)5-8/h6,8-9H,4-5H2,1-3H3	InChI=1S/C7H16O2/c1-6(2)4-7(3,9)5-8/h6,8-9H,4-5H2,1-3H3/t7-/m1/s1
