16
gdb 30900	2.4104	1.32376	0.89298	2.6283	69.97	-0.1814	0.0366	0.2181	1251.866	0.12553	-471.239358	-471.230403	-471.229458	-471.273106	33.106	
N	 0.0270768683	 1.3296983396	-0.0661589609	-0.593603
C	 0.0013591015	-0.057598132	-0.0112337752	 0.393264
N	-1.0236780963	-0.8130012024	-0.3583898281	-0.403165
C	-0.5557063577	-2.099486987	-0.260342908	 0.268314
O	-1.3574600675	-3.1511103349	-0.5418066033	-0.440576
C	 0.7430846845	-2.1515254024	 0.1659214826	 0.160699
C	 1.6891998409	-3.2548966793	 0.4514210286	-0.196803
O	 2.9093461586	-3.1547548843	-0.2952385703	-0.423714
N	 1.0827345195	-0.7946739244	 0.3391699057	-0.345544
H	-0.9017344897	 1.6910664918	-0.2396063322	 0.262763
H	 0.4307648427	 1.7679591562	 0.7522848279	 0.251568
H	-2.2077771326	-2.7779245773	-0.8023523532	 0.298936
H	 2.0174126331	-3.2547215345	 1.498714263	 0.109033
H	 1.1740157974	-4.2081447235	 0.2712331148	 0.115033
H	 2.6611558583	-3.1247040544	-1.2259949703	 0.277223
H	 2.0246368991	-0.4572893612	 0.4472108788	 0.266572
67.0158	116.7637	219.8944	238.8544	259.6834	290.2839	324.191	352.1497	388.7988	420.3608	462.5045	561.834	648.1763	651.7316	688.4197	724.0267	774.6726	842.8722	960.0265	1013.3301	1055.8702	1110.8497	1153.5288	1187.0507	1236.4501	1281.0208	1355.0298	1367.6555	1416.2391	1446.7114	1497.4767	1524.8462	1596.5624	1654.5134	1705.0588	3010.9256	3046.6961	3539.4956	3638.3869	3663.5342	3798.3253	3809.6446
NC1=NC(O)=C(CO)N1	Nc1nc(O)c(CO)[nH]1	
InChI=1S/C4H7N3O2/c5-4-6-2(1-8)3(9)7-4/h8-9H,1H2,(H3,5,6,7)	InChI=1S/C4H7N3O2/c5-4-6-2(1-8)3(9)7-4/h8-9H,1H2,(H3,5,6,7)
