17
gdb 31629	3.53111	1.08475	0.87759	2.2048	74.41	-0.192	0.0178	0.2099	1311.0646	0.135588	-455.161519	-455.152252	-455.151308	-455.196704	32.593	
C	 0.002875805	 1.4303012265	-0.0752003938	-0.342362
N	-0.0465004868	-0.0144264826	-0.0808795542	-0.086505
C	-1.1787354206	-0.8230022753	-0.0293104891	-0.220187
C	-0.7750881236	-2.0985471038	-0.0555247224	 0.314288
C	-1.4585801759	-3.4146655445	-0.043910061	-0.182123
O	-1.3305098416	-4.1275237753	-1.2688929477	-0.409844
O	 0.6173483077	-2.1204968341	-0.1350335188	-0.264688
C	 1.074468287	-0.8179929355	-0.1588147871	 0.457771
N	 2.2782142023	-0.4236785537	-0.2338937191	-0.614472
H	 1.0546130696	 1.7174540072	-0.0536850952	 0.182503
H	-0.4641554525	 1.8488605935	-0.9739045484	 0.134004
H	-0.5011220377	 1.8355330465	 0.8086752742	 0.132265
H	-2.1720762155	-0.4107108398	 0.0255308526	 0.150842
H	-1.0856547322	-4.0190225167	 0.7982362232	 0.106742
H	-2.5289565098	-3.2542233895	 0.1121477374	 0.125436
H	-0.3885658516	-4.2353520776	-1.4387565272	 0.292332
H	 2.9187725061	-1.2107302853	-0.2693945233	 0.224
42.7019	72.3631	98.8382	152.3078	210.5833	261.0247	299.912	332.9024	410.1979	516.0605	585.7154	663.2646	694.2285	704.2904	735.5673	775.2416	850.8558	931.9332	985.0528	1027.4852	1038.9573	1073.9482	1155.3915	1159.014	1184.7056	1231.8326	1298.1738	1339.0932	1376.459	1409.4684	1435.0504	1476.1938	1487.2913	1496.0314	1511.6523	1722.8226	1775.9766	2979.5196	3027.7004	3083.2982	3096.4234	3155.187	3282.0636	3553.7531	3815.6037
CN1C=C(CO)OC1=N	CN1C=C(CO)O[C@@H]1[NH]	
InChI=1S/C5H8N2O2/c1-7-2-4(3-8)9-5(7)6/h2,6,8H,3H2,1H3	InChI=1S/C5H9N2O2/c1-7-2-4(3-8)9-5(7)6/h2,5-6,8H,3H2,1H3/t5-/m1/s1
