17
gdb 94496	3.43675	0.84549	0.75392	1.3589	91.56	-0.2439	-0.0197	0.2242	1514.736	0.134342	-384.625184	-384.616129	-384.615184	-384.659381	33.799	
O	 0.4186484243	 0.954659093	-0.7375703816	-0.42298
C	 0.0759789265	-0.1348098267	 0.0573271657	 0.168248
C	-0.1988584958	 0.0371992983	 1.5739989945	-0.251874
C	-1.3041869387	-1.0435987322	 1.4571688531	-0.22594
C	-1.3533449632	-0.8012477394	-0.0915901724	-0.277403
C	-2.3580559001	 0.1497050088	-0.5076564322	 0.406778
C	-3.166884385	 0.9826389798	-0.8588393382	-0.267373
C	-4.086495853	 1.9071574458	-1.2468672166	 0.289142
C	-4.9010109879	 2.7296816344	-1.5914894404	-0.552059
H	-0.3293063155	 1.5654131496	-0.7421416154	 0.286342
H	 0.8401637949	-0.8978204023	-0.1159700939	 0.098309
H	 0.629515797	-0.1368416269	 2.2634232422	 0.105722
H	-0.628464004	 1.0231838042	 1.7758698922	 0.110892
H	-0.9328625348	-2.047537862	 1.6754328786	 0.112214
H	-2.2334647767	-0.8793184276	 2.0022862315	 0.118747
H	-1.3941019952	-1.6944513917	-0.7220290012	 0.108088
H	-5.6189250329	 3.4506021552	-1.8947557458	 0.193146
70.7003	77.0543	145.6082	190.9044	246.7478	322.8667	383.8844	419.7757	441.9627	517.6104	524.0831	576.543	594.1406	613.602	633.6847	715.2092	748.8754	881.4756	915.0914	950.1272	970.9766	1043.2136	1069.8748	1143.0524	1160.2439	1199.2649	1220.0494	1241.6019	1257.201	1259.3511	1335.5711	1351.3005	1438.3337	1478.7976	1494.2704	2177.2584	2347.9977	3058.012	3062.1203	3074.1714	3079.8668	3120.1077	3141.8064	3505.4141	3769.475
OC1CCC1C#CC#C	O[C@H]1CC[C@H]1C#CC#C	
InChI=1S/C8H8O/c1-2-3-4-7-5-6-8(7)9/h1,7-9H,5-6H2	InChI=1S/C8H8O/c1-2-3-4-7-5-6-8(7)9/h1,7-9H,5-6H2/t7-,8+/m1/s1
