12
gdb 25398	3.21655	1.40776	0.9792	3.5592	64.45	-0.2795	-0.1248	0.1547	1077.6515	0.079299	-468.875432	-468.86845	-468.867505	-468.907455	24.926	
O	-0.8313755077	 1.2931761151	 0.2480270333	-0.244565
C	 0.252300846	 0.8602386013	-0.0487914065	 0.125729
C	 1.471446063	 1.7385412783	-0.0924206925	 0.318823
N	 2.6221061056	 1.2238189153	-0.4189366571	-0.304413
C	 3.6507727297	 2.1403040239	-0.4181584193	 0.074344
N	 3.597141653	 3.4057915156	-0.1391366597	-0.283862
C	 2.3679550025	 3.9656543337	 0.2111171059	 0.452611
O	 2.1771760762	 5.118945158	 0.4935481682	-0.349716
N	 1.2961081592	 3.0331130427	 0.2157170492	-0.361312
H	 0.4512897549	-0.1937477384	-0.3105936062	 0.136937
H	 4.6225986019	 1.7312183024	-0.6883075112	 0.144281
H	 0.3659524857	 3.357050122	 0.4603015657	 0.291141
112.9141	127.5083	185.4982	234.5862	433.4933	440.0336	517.0539	580.7928	636.4083	673.5786	780.5417	808.3383	819.4276	923.3223	1017.0511	1018.8799	1040.5967	1089.7301	1210.9034	1267.3935	1372.2132	1421.2633	1488.6067	1560.8436	1667.168	1814.4366	1848.2608	2998.6779	3159.7549	3558.9931
O=CC1=NC=NC(=O)N1	O=Cc1ncnc(=O)[nH]1	
InChI=1S/C4H3N3O2/c8-1-3-5-2-6-4(9)7-3/h1-2H,(H,5,6,7,9)	InChI=1S/C4H3N3O2/c8-1-3-5-2-6-4(9)7-3/h1-2H,(H,5,6,7,9)
