14
gdb 130433	6.63074	0.88853	0.79581	8.0687	70.84	-0.272	-0.0341	0.2379	1351.0622	0.104245	-429.080026	-429.072177	-429.071233	-429.112901	28.033	
N	-0.5726235024	 0.7722122038	 0.0292070631	-0.527013
H	 1.442211514	-0.2366360732	 1.1713012031	 0.294502
H	-0.8654135805	 1.2010696793	-0.8413327243	 0.248213
H	-1.2778887337	 0.0802134992	 0.26359709	 0.245553
C	-0.4839782401	 1.7853655584	 1.0868004647	-0.289413
C	 0.3774650269	 1.2740026657	 2.199843315	 0.376143
N	 1.2742700479	 0.2796062112	 2.0216265232	-0.198599
N	 1.9405624005	 0.0162817523	 3.1585984278	-0.248778
C	 1.395296162	 0.8978717669	 3.9927463687	 0.222986
N	 0.42470231	 1.6918497892	 3.4505979021	-0.347969
C	 1.8013394688	 0.9895549265	 5.3573436614	 0.269991
N	 2.1232829071	 1.071218623	 6.4645156657	-0.331551
H	-0.0121943432	 2.6806275405	 0.66450654	 0.148278
H	-1.4428055373	 2.1102536173	 1.5130915795	 0.137656
70.6282	135.4113	158.9257	224.369	266.6412	306.2675	430.949	520.129	579.6507	609.5991	662.8336	716.3448	732.2961	772.8744	870.2246	977.4537	1022.1856	1052.6275	1085.8777	1167.7864	1184.4736	1275.5053	1311.3125	1359.9288	1400.769	1458.008	1472.1484	1494.1006	1581.2366	1665.3141	2368.9733	3015.426	3059.5144	3508.9071	3590.9555	3648.7934
[NH3+]CC1=N[N-]C(=N1)C#N	NCc1[nH]nc(n1)C#N	
InChI=1S/C4H4N5/c5-1-3-7-4(2-6)9-8-3/h1,5H2/q-1/p+1	InChI=1S/C4H5N5/c5-1-3-7-4(2-6)9-8-3/h1,5H2,(H,7,8,9)
