20
gdb 6155	4.1208	1.17343	1.13939	2.5994	71.29	-0.2517	0.0728	0.3245	1138.3899	0.175053	-386.126968	-386.117789	-386.116844	-386.160629	34.335	
C	 0.506669007	 1.3345756451	 0.1843078479	-0.452997
C	-0.0216359624	-0.082919318	-0.0044735861	 0.434006
O	-1.4251391192	-0.0687695275	-0.2153019241	-0.474141
C	 0.7898316907	-0.9603968768	-1.0162382718	-0.315596
C	 1.3057765726	-1.8341445136	 0.1640640647	 0.041048
C	 2.782189228	-1.6728295979	 0.4754029668	-0.086731
O	 3.0515870772	-2.3631629814	 1.6865698467	-0.421051
C	 0.3382483917	-1.0852430863	 1.1242047055	-0.26535
H	 1.5802092446	 1.3416552471	 0.3963161559	 0.117221
H	 0.347538059	 1.9325598178	-0.7228645751	 0.102004
H	-0.0126297948	 1.8234903777	 1.0147418967	 0.124026
H	-1.6126384443	 0.5458223651	-0.933583624	 0.27041
H	 0.1262184076	-1.5008064685	-1.6943120928	 0.101455
H	 1.5545088087	-0.4413730405	-1.6044389213	 0.085705
H	 1.0928047992	-2.9012830639	 0.064005592	 0.079406
H	 3.3799976384	-2.0766590962	-0.3587783143	 0.083378
H	 3.0347972011	-0.6026612358	 0.5658773852	 0.079868
H	 3.9794649864	-2.2391967104	 1.906253134	 0.285688
H	 0.7925379625	-0.663203745	 2.0240222397	 0.100908
H	-0.5329835139	-1.6762276808	 1.4115570345	 0.110742
55.0736	113.1189	181.2099	253.6492	255.9896	278.9653	309.9153	324.1331	354.9393	417.727	445.346	478.1064	642.6148	798.3397	827.8673	841.7854	903.7955	918.6972	944.4111	961.7577	1000.0629	1049.3077	1077.4813	1096.8629	1125.9884	1169.8327	1185.4856	1220.7582	1241.8317	1262.8318	1274.2902	1285.8428	1299.6031	1363.5008	1378.2103	1404.6643	1456.9934	1462.9856	1481.9961	1488.626	1492.7017	1518.5405	2951.1313	2977.4205	3016.1724	3043.2709	3068.3466	3074.294	3085.2233	3109.5758	3114.0322	3129.3969	3795.0086	3829.5386
CC1(O)CC(CO)C1	C[C@@]1(O)C[C@@H](CO)C1	
InChI=1S/C6H12O2/c1-6(8)2-5(3-6)4-7/h5,7-8H,2-4H2,1H3	InChI=1S/C6H12O2/c1-6(8)2-5(3-6)4-7/h5,7-8H,2-4H2,1H3/t5-,6-
