19
gdb 92518	2.44739	1.6869	1.25847	1.7535	74.6	-0.2423	-0.0288	0.2136	1061.1337	0.159157	-423.041909	-423.033596	-423.032652	-423.075869	31.162	
C	-0.4479630078	 1.4307619275	-0.2513178298	-0.392105
C	-0.0438521471	-0.0263616328	-0.0451668561	 0.021678
O	 0.5130932538	-0.6025825659	-1.2214584986	-0.282925
C	 1.8162344032	-1.1262116325	-0.9785916773	 0.11879
C	 3.016989342	-0.166485298	-1.2423599022	-0.24648
C	 3.4519544289	-0.3232644661	 0.2444749469	-0.233944
C	 2.1186476729	-1.0769681082	 0.5313800625	-0.16689
C	 0.9982744514	-0.1984502783	 1.0713508503	 0.363952
O	 0.9290939833	 0.2983883719	 2.1653973405	-0.316005
H	 0.4133459497	 2.0367496077	-0.5475953722	 0.121101
H	-1.2089759122	 1.5073003478	-1.0316785189	 0.127459
H	-0.8507812256	 1.8310072585	 0.6830897379	 0.137869
H	-0.9341941233	-0.6074413988	 0.2447107804	 0.105838
H	 1.8921419244	-2.0951717649	-1.4777581552	 0.083437
H	 3.7385924213	-0.4951615165	-1.9929928775	 0.107105
H	 2.6763291509	 0.8385719039	-1.501828348	 0.114333
H	 4.3220901	-0.9699989369	 0.3715659399	 0.113767
H	 3.6123086942	 0.5899149572	 0.8214166293	 0.11946
H	 2.1785445	-2.0026249856	 1.1084923182	 0.103561
40.9702	54.2313	199.1023	209.0997	252.134	368.6974	394.887	494.9159	573.2009	597.9829	664.5579	702.8491	779.3209	790.4918	872.6481	890.6437	925.7432	936.0046	958.344	994.8736	1042.7335	1073.1427	1101.8736	1109.581	1126.5108	1177.8101	1183.3279	1223.2562	1245.1138	1254.5986	1268.1851	1299.9975	1317.4338	1350.4683	1366.9148	1396.3557	1471.763	1484.9044	1493.4897	1496.625	1844.3352	2974.8263	3046.2303	3069.2429	3073.3919	3074.6594	3089.4065	3116.7841	3122.3211	3131.9247	3134.128
CC1OC2CCC2C1=O	C[C@H]1O[C@H]2CC[C@H]2C1=O	
InChI=1S/C7H10O2/c1-4-7(8)5-2-3-6(5)9-4/h4-6H,2-3H2,1H3	InChI=1S/C7H10O2/c1-4-7(8)5-2-3-6(5)9-4/h4-6H,2-3H2,1H3/t4-,5-,6+/m1/s1
