20
gdb 60207	2.84205	0.95313	0.85857	3.4952	77.86	-0.2311	-0.0267	0.2044	1430.1279	0.168372	-440.252533	-440.242629	-440.241685	-440.287743	36.06	
C	 0.4715894278	 1.2541367394	 0.2475689814	-0.410611
C	-0.2140873176	-0.099467845	 0.4328530641	 0.114351
O	-0.9585114914	-0.1340161411	 1.6528537687	-0.41872
C	-1.0700544659	-0.4670452164	-0.7874149425	-0.150206
N	-1.4733598918	-1.8788114574	-0.9102317651	-0.095669
C	-1.5152839384	-2.8024085342	 0.1962874283	-0.259672
C	-2.7848581365	-2.3906368055	-0.505663768	-0.091996
C	-3.7384930843	-1.5675972613	 0.2833273984	 0.14933
O	-4.9384392491	-1.6301017574	 0.1614777208	-0.270698
H	 1.0450616152	 1.5074636964	 1.1428820756	 0.131609
H	 1.1512251836	 1.2433081691	-0.6094856843	 0.127952
H	-0.2668856361	 2.0479989526	 0.0767858234	 0.114558
H	 0.5524837526	-0.873440944	 0.5587541188	 0.10456
H	-1.5068707475	 0.6580476203	 1.6882811362	 0.2837
H	-1.9458849369	 0.1929830473	-0.8265002642	 0.104287
H	-0.4784091793	-0.242535616	-1.6840131527	 0.112344
H	-1.1136568252	-3.7943120231	 0.0023964447	 0.123364
H	-1.3760532865	-2.4283439721	 1.2075762382	 0.15095
H	-3.2608645903	-3.0572290611	-1.2208312441	 0.106415
H	-3.2608677026	-0.8846208006	 1.0173054224	 0.074152
57.8361	76.248	126.9306	188.8462	222.4637	240.6905	287.817	313.9952	349.6138	379.5456	428.2318	453.7161	499.9863	549.7976	748.4856	837.2812	882.8258	906.6563	922.7766	944.0665	1018.1151	1033.8532	1073.0899	1091.0661	1102.6667	1130.9852	1146.5809	1170.3059	1189.0551	1240.7342	1303.168	1318.4077	1332.2193	1363.6199	1394.598	1408.0157	1424.9237	1438.7143	1488.2309	1494.7819	1499.8259	1504.8613	1810.9496	2914.8701	3014.4455	3026.5817	3039.9871	3054.749	3099.7006	3100.9253	3125.5614	3144.0711	3192.2394	3797.1481
CC(O)CN1CC1C=O	C[C@@H](O)CN1C[C@H]1C=O	
InChI=1S/C6H11NO2/c1-5(9)2-7-3-6(7)4-8/h4-6,9H,2-3H2,1H3	InChI=1S/C6H11NO2/c1-5(9)2-7-3-6(7)4-8/h4-6,9H,2-3H2,1H3/t5-,6+,7?/m1/s1
