12
gdb 23668	3.88094	1.82031	1.23911	2.8841	59.55	-0.2388	-0.0282	0.2107	863.545	0.084869	-422.678225	-422.672105	-422.671161	-422.708427	23.601	
O	 0.1006787544	 1.3569765808	-0.1090497708	-0.432263
C	 0.0675580068	 0.0030425149	-0.0213224935	 0.364897
C	 0.0094565663	-0.7290359702	-1.2144999504	-0.051138
N	-0.0268871286	-2.0567120297	-1.2467554936	-0.245369
C	-0.007507315	-2.7315012213	-0.0949848314	-0.118619
C	 0.0495304682	-2.0748280829	 1.1261504886	 0.267997
F	 0.0675226257	-2.7784478709	 2.2598129764	-0.074127
C	 0.0882721976	-0.6900492186	 1.1864546523	-0.366626
H	 0.1396948782	 1.7388173594	 0.7741388405	 0.30362
H	-0.0070735545	-0.1970567603	-2.1613981085	 0.119854
H	-0.0375747555	-3.8159442403	-0.1328505502	 0.120541
H	 0.1327660862	-0.185364561	 2.1462575005	 0.111233
232.1252	244.6134	325.022	364.3057	471.9811	487.5316	526.1928	548.1557	628.6784	726.164	738.7171	879.5176	896.7108	942.5716	1003.2157	1032.5142	1165.0592	1192.7812	1208.267	1315.2597	1329.8376	1360.4726	1488.7299	1514.883	1628.7093	1641.9271	3172.6182	3180.9875	3184.1076	3821.6968
OC1=CN=CC(F)=C1	Oc1cncc(F)c1	
InChI=1S/C5H4FNO/c6-4-1-5(8)3-7-2-4/h1-3,8H	InChI=1S/C5H4FNO/c6-4-1-5(8)3-7-2-4/h1-3,8H
