18
gdb 69064	2.52202	1.64359	1.23026	4.2204	81.81	-0.2501	-0.0008	0.2494	1057.1112	0.148303	-364.836567	-364.828457	-364.827513	-364.868844	31.567	
C	-0.0321158292	 1.5659907152	-0.0052769385	-0.482815
C	 0.0317955389	 0.0575721058	-0.0095244498	 0.266117
C	-0.802009379	-0.7557608252	 0.9485457651	-0.346702
C	 0.7126509834	-0.775750515	 1.1026743117	 0.141503
C	 1.487504408	-1.9179283659	 0.4300490299	-0.340934
C	 1.1461731668	-1.7532646815	-1.0336024476	-0.084647
C	 0.3934666921	-0.6770281322	-1.2628881463	-0.125882
C	 1.2814340147	-0.144526257	 2.2552403391	 0.211198
N	 1.7480543061	 0.3668284887	 3.18338612	-0.359813
H	 0.8870960169	 2.0015251508	-0.409723822	 0.131837
H	-0.8702383735	 1.9167028045	-0.6176567964	 0.124827
H	-0.1703991747	 1.9538931842	 1.0075494295	 0.139765
H	-1.3486156809	-0.2204278437	 1.7177483352	 0.133034
H	-1.2790222648	-1.6611063055	 0.5880529667	 0.123723
H	 2.5650084309	-1.8180850284	 0.6088344031	 0.132057
H	 1.1943970116	-2.8985759419	 0.8240787428	 0.12536
H	 1.480505309	-2.457998465	-1.7857682638	 0.106448
H	 0.0397208337	-0.348618388	-2.2337724186	 0.104924
129.856	144.3726	191.2224	235.2952	276.8104	349.8988	397.7572	483.661	491.7221	565.0427	586.5678	657.09	733.2643	749.5944	761.7378	892.2325	926.5575	955.3436	962.118	968.4159	973.6062	994.1703	1080.2148	1086.1481	1113.618	1154.345	1185.6957	1242.2253	1264.518	1318.2987	1366.3729	1380.2765	1421.3699	1470.4406	1483.0513	1488.129	1500.167	1676.0228	2344.3098	3030.7844	3034.7745	3061.5268	3097.9258	3117.9415	3127.5811	3189.6866	3214.6497	3221.2023
CC12CC1(CC=C2)C#N	C[C@]12C[C@]1(CC=C2)C#N	
InChI=1S/C8H9N/c1-7-3-2-4-8(7,5-7)6-9/h2-3H,4-5H2,1H3	InChI=1S/C8H9N/c1-7-3-2-4-8(7,5-7)6-9/h2-3H,4-5H2,1H3/t7-,8+/m0/s1
