18
gdb 6511	2.92257	1.84125	1.37173	3.1847	73.36	-0.2608	0.0187	0.2795	963.3178	0.151945	-343.989825	-343.9807	-343.979755	-344.022912	33.295	
C	-0.0588549716	 1.5275496642	-0.0475193233	-0.439551
C	-0.0347790561	 0.0128959619	 0.0314331523	 0.280321
C	-1.2507543818	-0.6469223988	-0.5905742555	-0.471587
N	 1.2843720434	-0.6038494118	-0.1714897052	-0.38863
C	 0.6752883701	-0.6706511008	 1.1806488036	 0.133511
C	 1.4015452098	 0.0640975011	 2.2945918257	-0.455816
C	 0.1491595607	-1.9528778168	 1.6026457565	 0.247682
N	-0.246803284	-2.9802119487	 1.9597708382	-0.352988
H	 0.8791797387	 1.9707542884	 0.2862644343	 0.133341
H	-0.2191275922	 1.8360740612	-1.0862373697	 0.127596
H	-0.878536797	 1.935857251	 0.5527205155	 0.12485
H	-1.2889161923	-0.4158029075	-1.66093782	 0.126564
H	-1.2389611831	-1.7326905887	-0.4711223384	 0.143543
H	-2.1734504141	-0.2695873652	-0.1376432853	 0.13314
H	 1.1956640719	-1.50114467	-0.6443406942	 0.242323
H	 1.85129388	 0.9822919304	 1.9180982374	 0.138159
H	 0.7161467938	 0.3093877549	 3.1112864918	 0.135286
H	 2.2014437738	-0.563870895	 2.6974451862	 0.142258
132.8924	140.1213	149.591	162.3515	197.948	265.8324	283.9398	366.9278	395.9718	404.5517	471.6805	578.1106	598.417	648.9867	704.7377	827.4968	916.1562	960.9076	990.9237	1018.007	1057.6832	1088.6072	1104.1189	1157.9812	1173.6348	1264.791	1328.3339	1392.5648	1410.1789	1415.0514	1426.864	1474.1239	1482.5201	1484.428	1493.4508	1503.5963	1511.8305	2341.0843	3035.0339	3042.0113	3051.9769	3096.5211	3101.8704	3116.1967	3127.0967	3145.5291	3159.7681	3493.803
CC1(C)NC1(C)C#N	CC1(C)N[C@]1(C)C#N	
InChI=1S/C6H10N2/c1-5(2)6(3,4-7)8-5/h8H,1-3H3	InChI=1S/C6H10N2/c1-5(2)6(3,4-7)8-5/h8H,1-3H3/t6-/m1/s1
