19
gdb 76847	2.50265	1.53146	1.15675	3.0664	77.89	-0.222	0.0215	0.2434	1128.9939	0.158771	-419.173505	-419.164924	-419.16398	-419.206629	32.356	
C	 0.3682790792	 1.5531739223	 0.0067225953	-0.400508
C	 0.1164604511	 0.0577856991	-0.0416182968	 0.032763
C	 0.6262070228	-0.7679309474	-1.242202279	 0.07179
O	 1.9582348076	-0.4001895121	-1.7155722608	-0.278216
C	 2.5652760738	-1.355537243	-0.9034472597	 0.476499
N	 3.7602139091	-1.7160624088	-0.8247066959	-0.553053
C	 1.2639092447	-1.7377175342	-0.2232088175	-0.145607
N	 0.9520135444	-0.7760785898	 0.8646763168	-0.089946
C	 0.3548330577	-1.285678274	 2.078747152	-0.334279
H	 1.4123315267	 1.7699045386	-0.2300495052	 0.138856
H	-0.2725047192	 2.0783764821	-0.7096444281	 0.116349
H	 0.1507062562	 1.9468723266	 1.0046779604	 0.12083
H	-0.9569699249	-0.1625386844	 0.0923263998	 0.06711
H	-0.0362604449	-1.0158911906	-2.068947507	 0.099385
H	 4.356745594	-1.1812740638	-1.4587816602	 0.229368
H	 1.008983761	-2.7861846967	-0.0663616384	 0.097578
H	 1.0649357946	-1.9394343117	 2.5946238461	 0.133282
H	 0.1248314859	-0.4513616327	 2.7494619392	 0.126935
H	-0.5800050098	-1.8540391294	 1.9103540491	 0.090865
90.3223	142.9963	207.1973	214.4079	217.5162	237.4617	323.2708	392.7357	422.6829	570.3523	615.0445	674.6993	788.8457	796.2767	835.69	869.1834	885.4069	931.8625	955.4977	991.2845	1003.1095	1064.8272	1095.4676	1128.7658	1154.8518	1175.8425	1185.372	1198.7915	1231.7456	1251.1152	1296.8145	1326.1494	1337.8315	1372.4057	1407.6626	1455.8394	1486.9703	1491.348	1495.5614	1499.8691	1831.1977	2921.8656	2950.288	3039.4096	3061.8488	3103.7046	3104.907	3113.0828	3132.285	3137.8243	3472.765
CC1C2OC(=N)C2N1C	C[C@H]1[C@H]2O[C]([NH])[C@H]2N1C	
InChI=1S/C6H10N2O/c1-3-5-4(8(3)2)6(7)9-5/h3-5,7H,1-2H3	InChI=1S/C6H10N2O/c1-3-5-4(8(3)2)6(7)9-5/h3-5,7H,1-2H3/t3-,4-,5+/m0/s1
