15
gdb 42689	2.99999	2.09703	1.82628	3.7163	67.05	-0.24	-0.0261	0.214	795.0737	0.11611	-416.79365	-416.787931	-416.786987	-416.82365	23.786	
O	-0.0167146372	-0.0171781865	-0.0218333858	-0.314041
C	-0.0480333555	 1.1798836594	 0.0365337156	 0.414131
C	-1.26494958	 2.0545325547	 0.1308334226	-0.163875
C	-0.7925873843	 3.444457	 0.401225895	-0.063934
C	 0.7260854287	 3.3937180415	 0.3331307841	-0.063078
C	 1.0806345254	 3.0499976178	-1.0662247891	-0.057245
C	-0.1986272619	 3.0727107943	-1.881371341	-0.189972
N	-1.320231508	 3.1063560694	-0.9224609829	-0.115893
N	 1.1355404328	 2.010605467	 0.0071432836	-0.166324
H	-2.216511441	 1.6329867092	 0.4337370333	 0.119022
H	-1.324233727	 4.1620713141	 1.0138839961	 0.111161
H	 1.35399904	 3.947298523	 1.0198586357	 0.110665
H	 2.0361592518	 3.2903910073	-1.5228188491	 0.114549
H	-0.2417207343	 3.9859649897	-2.484942174	 0.126524
H	-0.3046635095	 2.215471019	-2.5532223941	 0.138311
135.5981	382.4334	391.5035	480.8481	609.9492	628.7313	692.2048	736.6148	753.7241	795.732	816.4593	843.5193	887.7762	899.4961	929.7544	961.3947	985.1183	1008.055	1054.9494	1061.3743	1073.2797	1111.1911	1142.2303	1223.3864	1237.6672	1264.9391	1286.5024	1302.2419	1317.4923	1329.3288	1394.8486	1491.5511	1860.2899	3049.3398	3095.8729	3158.0058	3181.3579	3190.6435	3200.8772
O=C1C2C3C4C(CN23)N14	O=C1[C@H]2[C@H]3[C@@H]4[C@H](CN23)N14	
InChI=1S/C6H6N2O/c9-6-5-4-3-2(8(3)6)1-7(4)5/h2-5H,1H2	InChI=1S/C6H6N2O/c9-6-5-4-3-2(8(3)6)1-7(4)5/h2-5H,1H2/t2-,3-,4+,5+,7?,8?/m0/s1
