19
gdb 111822	2.66457	1.45265	1.12101	2.0055	75.99	-0.2227	-0.0276	0.1951	1144.767	0.158564	-423.002691	-422.994032	-422.993088	-423.036549	31.756	
C	-0.485797929	 1.6684137217	 0.0162926673	-0.247956
O	-0.2958539005	 0.3868825731	-0.5626170972	-0.24198
C	-1.2435436344	-0.551586489	-0.1561720391	 0.038716
C	-1.1106631842	-1.9790039607	-0.7399468559	-0.0882
C	 0.3456783296	-2.515390672	-0.8032121335	-0.22652
C	 0.1584386665	-3.232205945	 0.5669481578	-0.22199
C	-1.2593017713	-2.5974900518	 0.7063350762	-0.158858
C	-1.1696430976	-1.1707602061	 1.2663779608	 0.367266
O	-1.0206644512	-0.7155553086	 2.3654361074	-0.309545
H	 0.3078604067	 2.3117934224	-0.3696191949	 0.128234
H	-1.4608558767	 2.0920869932	-0.2704100378	 0.105604
H	-0.4268468989	 1.6292893898	 1.109935558	 0.141793
H	-2.2746537743	-0.178745235	-0.3102358017	 0.086065
H	-1.7748306152	-2.2254675816	-1.5665224548	 0.074742
H	 0.5331334299	-3.1930431411	-1.6378718566	 0.105421
H	 1.09912411	-1.7259482724	-0.8226851555	 0.125935
H	 0.1073309502	-4.3191420007	 0.4736286582	 0.110865
H	 0.8649937933	-2.9881734433	 1.3637576269	 0.118126
H	-2.0813200428	-3.2248024631	 1.0515685944	 0.092281
62.0877	100.8611	156.5271	176.8178	195.689	243.7144	332.3939	477.1767	482.8911	610.8503	622.3309	711.9864	803.4792	830.0612	842.4808	873.4038	940.21	959.3232	1008.9825	1038.4123	1056.3061	1072.2621	1077.4915	1128.0333	1168.5733	1182.873	1189.4749	1217.6357	1224.554	1246.0795	1258.1962	1277.9661	1288.0226	1315.1272	1362.1981	1479.4923	1483.1579	1486.6963	1497.9361	1513.9294	1875.2064	2920.734	2986.5558	3065.4832	3067.8006	3079.2485	3107.8268	3115.4923	3124.1073	3126.2018	3137.0904
COC1C2CCC2C1=O	CO[C@H]1[C@H]2CC[C@H]2C1=O	
InChI=1S/C7H10O2/c1-9-7-5-3-2-4(5)6(7)8/h4-5,7H,2-3H2,1H3	InChI=1S/C7H10O2/c1-9-7-5-3-2-4(5)6(7)8/h4-5,7H,2-3H2,1H3/t4-,5+,7+/m1/s1
