17
gdb 36166	3.70276	1.23534	1.13405	1.414	77.63	-0.2271	0.0486	0.2757	1108.6281	0.135959	-380.716048	-380.708413	-380.707469	-380.748491	29.884	
C	 0.0003891524	-1.1970556045	 0.0620449753	-0.452487
C	 0.0086371539	 0.0032631856	 0.0010033984	 0.291664
C	 0.0625803688	 1.4596393112	-0.0762962397	-0.487469
C	 1.4780919475	 1.9815199772	-0.0614443758	 0.388062
N	 2.4920404443	 1.7156531624	-1.1327249338	-0.3804
C	 3.2244521599	 2.5685027748	-0.1393286652	-0.044941
C	 1.9640169658	 3.4508271358	 0.123917443	-0.069331
N	 1.9798913797	 3.3183742942	 1.6170688417	-0.353439
C	 2.4981105748	 1.998730907	 1.12817711	-0.075819
H	-0.0276279895	-2.2570594604	 0.1164366429	 0.197981
H	-0.4366690012	 1.8045007749	-0.9904000533	 0.142809
H	-0.4695346775	 1.90691661	 0.7726021756	 0.154754
H	 2.8114295403	 0.7449394565	-1.0733565906	 0.214573
H	 4.2633355117	 2.8796311913	-0.2616316817	 0.083865
H	 1.6309017397	 4.3418880268	-0.4083860838	 0.090919
H	 2.7423026082	 3.8746503506	 2.0124414475	 0.211067
H	 2.7900590412	 1.1784948765	 1.7866966794	 0.088192
65.5131	106.5854	233.5696	291.1095	344.6793	418.9725	489.2141	547.624	619.7535	641.9336	690.2726	750.4941	779.5305	815.644	837.0686	880.6904	899.4098	928.3952	947.741	965.0636	1026.0865	1046.3408	1083.5095	1098.3893	1109.7459	1151.9803	1187.1393	1208.2281	1231.5005	1256.9855	1273.1951	1292.3415	1307.4992	1326.4423	1393.1622	1454.09	2239.1784	3026.5471	3065.6218	3097.6623	3107.8469	3123.7126	3406.0404	3406.6462	3505.8925
C#CCC12NC3C1NC23	C#CC[C@@]12N[C@H]3[C@@H]1N[C@@H]23	
InChI=1S/C7H8N2/c1-2-3-7-5-4(9-7)6(7)8-5/h1,4-6,8-9H,3H2	InChI=1S/C7H8N2/c1-2-3-7-5-4(9-7)6(7)8-5/h1,4-6,8-9H,3H2/t4-,5-,6+,7+
