12
gdb 130555	3.81334	1.33055	0.98638	1.9921	69.19	-0.2898	-0.0881	0.2018	1082.5965	0.078174	-431.66605	-431.658744	-431.657799	-431.698475	25.927	
O	 0.0058433979	-0.0325698696	 0.0040493883	-0.298199
C	-0.0025724372	 1.1734124182	 0.0075542843	 0.297627
C	 1.1754070214	 2.0005351599	 0.0011837229	 0.256564
C	 2.2128387545	 2.6067917402	-0.0047626586	-0.369845
N	-1.2290527433	 1.8802602816	 0.0184102372	-0.040951
C	-2.4869389047	 1.3428329714	 0.0260440487	 0.060125
N	-3.3830627996	 2.2958681841	 0.0351151188	-0.27854
C	-2.6146034341	 3.4361602718	 0.0327723341	 0.049958
N	-1.3154275053	 3.243198392	 0.0228373605	-0.229792
H	 3.1227012969	 3.1568136542	-0.0099874614	 0.225733
H	-2.6548845681	 0.2779665204	 0.0242950967	 0.181908
H	-3.0407504185	 4.4283090858	 0.0386240384	 0.145414
74.6501	132.66	162.7759	252.9961	270.3946	457.6657	517.1666	640.9532	669.217	684.9561	688.7241	722.1251	768.8788	896.0691	926.1876	961.2087	982.7532	1077.0357	1150.3987	1232.5728	1260.8927	1310.3779	1403.9433	1435.5676	1565.3778	1788.9854	2233.6712	3263.7253	3286.824	3495.5057
O=C(C#C)N1C=NC=N1	O=C(C#C)n1cncn1	
InChI=1S/C5H3N3O/c1-2-5(9)8-4-6-3-7-8/h1,3-4H	InChI=1S/C5H3N3O/c1-2-5(9)8-4-6-3-7-8/h1,3-4H
