14
gdb 131164	3.38901	1.4536	1.01727	3.8459	67.98	-0.1992	-0.0031	0.1961	1069.6717	0.103393	-466.19612	-466.188871	-466.187927	-466.228206	27.415	
O	-1.446071884	 0.0947793124	-0.4249328502	-0.437432
C	-0.2850109175	-0.4744544734	-0.153458538	 0.339211
C	 0.7023213607	-1.099512866	-0.903912014	 0.268224
N	 0.8041024552	-1.350827727	-2.2801105281	-0.37764
C	-0.089620763	-1.0192949307	-3.2326695434	 0.109238
N	-1.1948797127	-0.4046864039	-2.9858675334	-0.516176
N	 1.7006332219	-1.503907612	-0.0806687857	-0.262314
N	 1.4150806557	-1.1778273412	 1.146625048	-0.141228
N	 0.2104966327	-0.5531332823	 1.1044010951	-0.228076
H	-1.5461018449	 0.0020350844	-1.4344000832	 0.333739
H	 1.6479402982	-1.8314369862	-2.549999389	 0.273313
H	 0.22158912	-1.3262190746	-4.2336443691	 0.117537
H	-1.7371256566	-0.2412472181	-3.8256148856	 0.237738
H	-0.2162416757	-0.2081637915	 1.9490749766	 0.283866
58.1536	224.3716	294.1492	305.2743	318.4362	407.3392	468.9813	497.0389	549.2999	611.1756	694.6262	729.3155	752.3614	753.3681	846.7542	964.3625	1000.3302	1017.2545	1052.3339	1147.2399	1229.2229	1241.0352	1289.2052	1321.1235	1389.4394	1408.8938	1467.4192	1586.0014	1610.5228	1661.3486	1716.2102	2788.9221	3105.1035	3570.7885	3643.9187	3663.1479
OC1=C(NC=N)N=NN1	Oc1c(NC=N)nn[nH]1	
InChI=1S/C3H5N5O/c4-1-5-2-3(9)7-8-6-2/h1H,(H4,4,5,6,7,8,9)	InChI=1S/C3H5N5O/c4-1-5-2-3(9)7-8-6-2/h1H,(H4,4,5,6,7,8,9)
