18
gdb 76953	2.62349	1.3602	1.2066	1.9662	74.41	-0.2428	-0.0452	0.1976	1106.7061	0.145862	-439.031953	-439.02317	-439.022226	-439.065452	31.876	
C	-0.3421701688	 1.4068557898	-0.2099768143	-0.340101
N	-0.0430950731	-0.0147592197	-0.0364709504	-0.137962
C	 1.2943386748	-0.5589703138	-0.3786215471	-0.191004
C	 2.4360679801	 0.3059859214	-0.7705043612	 0.147221
O	 2.6668176281	 1.404834638	-0.3143438097	-0.275594
C	 0.7788908302	-0.4526438348	 1.0350886361	 0.286819
C	 1.3781284596	 0.316745807	 2.2130793008	-0.141039
O	 1.0791409491	-0.792256768	 3.0925676451	-0.275371
C	 0.4571367514	-1.5568982173	 2.0387367405	-0.139059
H	 0.4957335639	 2.0748511567	 0.0116913548	 0.153106
H	-0.6602565646	 1.56932877	-1.2434227796	 0.129385
H	-1.1841436944	 1.6484209274	 0.4456762152	 0.130609
H	 1.2567308778	-1.5218110176	-0.8844160218	 0.102465
H	 3.1034994971	-0.1412835646	-1.5392584334	 0.090731
H	 2.4484534172	 0.5371767937	 2.162366197	 0.125708
H	 0.8375022597	 1.2284587019	 2.4963462281	 0.111305
H	-0.6158247949	-1.7133374656	 2.2075279683	 0.113826
H	 0.9490099767	-2.5243037946	 1.8808207115	 0.108956
96.3941	137.1219	167.6702	190.4623	209.2918	237.3022	248.282	358.0583	432.7523	469.4648	573.9659	706.2338	749.5366	851.6251	869.4386	951.7988	968.5228	984.3744	1021.0437	1025.9116	1082.1031	1100.6514	1127.368	1143.9299	1146.3178	1162.8559	1176.457	1215.2613	1301.4618	1332.744	1354.8869	1424.1316	1439.5395	1476.4984	1487.225	1502.2257	1515.309	1527.0371	1786.8338	2892.9462	3012.8593	3027.8838	3037.0005	3061.8168	3084.8819	3111.6687	3115.2521	3129.554
CN1C(C=O)C11COC1	CN1[C@@H](C=O)C21COC2	
InChI=1S/C6H9NO2/c1-7-5(2-8)6(7)3-9-4-6/h2,5H,3-4H2,1H3	InChI=1S/C6H9NO2/c1-7-5(2-8)6(7)3-9-4-6/h2,5H,3-4H2,1H3/t5-,7?/m0/s1
