17
gdb 24084	6.78912	0.72731	0.68278	4.1094	81.18	-0.2228	0.0299	0.2527	1593.4766	0.136791	-380.880027	-380.871469	-380.870524	-380.914238	31.441	
C	-0.032074865	-1.2219904538	-0.0863654198	-0.450675
C	-0.0392236635	-0.0223283168	-0.0057264377	 0.299272
C	-0.0098265359	 1.4310927925	 0.091754184	-0.342045
C	 1.4209500468	 2.012795918	-0.0208882635	-0.307733
C	 1.4233436962	 3.5076248105	 0.034599526	 0.296982
C	 2.0351063857	 4.3345325086	 0.941938591	-0.200353
N	 1.7221819	 5.6173508823	 0.5448261732	-0.230085
C	 0.9433839988	 5.5135548024	-0.5674685132	 0.012232
N	 0.7429493504	 4.2612127313	-0.9025280141	-0.303891
H	-0.0419901146	-2.2808560267	-0.1602432893	 0.18956
H	-0.6260545755	 1.8759416373	-0.6975329643	 0.15323
H	-0.4543049545	 1.7479392827	 1.0435205648	 0.125142
H	 2.0454723494	 1.607523912	 0.7812023338	 0.107848
H	 1.8564569708	 1.673122724	-0.9672921737	 0.124387
H	 2.6489861338	 4.138239123	 1.8052707493	 0.128658
H	 2.0186494554	 6.4681357132	 0.9921975659	 0.267323
H	 0.5577521817	 6.3797687794	-1.0844548325	 0.130147
53.7367	67.4108	98.7648	189.0912	310.7789	360.6074	375.5821	479.7653	517.2927	610.72	634.3172	658.8675	694.4752	727.3039	759.1622	776.0695	821.1095	949.6816	965.0811	976.191	1021.0459	1023.3225	1095.2702	1131.3589	1172.4329	1244.8395	1280.6873	1290.1425	1312.3916	1352.7158	1375.9503	1456.0535	1473.6939	1487.0452	1528.7355	1600.7327	2236.8199	3028.8394	3044.7189	3067.3357	3094.0122	3250.0913	3273.2195	3508.3592	3668.5144
C#CCCC1=CNC=N1	C#CCCc1c[nH]cn1	
InChI=1S/C7H8N2/c1-2-3-4-7-5-8-6-9-7/h1,5-6H,3-4H2,(H,8,9)	InChI=1S/C7H8N2/c1-2-3-4-7-5-8-6-9-7/h1,5-6H,3-4H2,(H,8,9)
