14
gdb 127758	3.67612	1.65026	1.14725	2.5707	70.06	-0.2433	-0.0318	0.2115	984.7414	0.104614	-429.029391	-429.022503	-429.021559	-429.060803	25.668	
C	-0.0153413985	 1.4754800533	-0.05540727	-0.346652
N	-0.0080628275	 0.0347585372	 0.0657159966	-0.128851
N	-0.0438748543	-0.7401007609	-1.0562976008	-0.142272
N	-0.0288567055	-2.0063232436	-0.7288360321	-0.305982
C	 0.017578463	-2.0430504001	 0.6250879813	 0.415293
C	 0.0321854289	-0.7660384617	 1.1660300447	 0.2879
C	 0.0803646117	-0.9451922606	 2.5694954363	-0.134575
N	 0.093684974	-2.2475145422	 2.8484670782	-0.198244
N	 0.0554445242	-2.9147936122	 1.6669405697	-0.324158
H	 0.893482425	 1.9044158592	 0.3775784767	 0.148267
H	-0.058225816	 1.711214218	-1.1190308557	 0.171733
H	-0.8883742361	 1.900889834	 0.4487432229	 0.148233
H	 0.1056188383	-0.2272880857	 3.3736013029	 0.12458
H	 0.0588259426	-3.9193470248	 1.6693843593	 0.284728
119.2649	164.7719	260.2508	264.2889	364.4928	420.6125	536.0058	632.1571	652.8699	668.1946	709.53	773.697	841.1197	853.6052	975.4962	999.449	1090.7543	1153.4127	1161.4599	1213.5439	1275.3465	1288.015	1335.497	1356.5709	1431.6172	1448.5763	1482.8106	1505.6454	1512.5986	1547.369	1616.5486	3043.0022	3105.745	3159.6855	3263.2427	3692.868
CN1N=NC2=C1C=NN2	Cn1nnc2c1cn[nH]2	
InChI=1S/C4H5N5/c1-9-3-2-5-6-4(3)7-8-9/h2H,1H3,(H,5,6)	InChI=1S/C4H5N5/c1-9-3-2-5-6-4(3)7-8-9/h2H,1H3,(H,5,6)
