19
gdb 15365	6.02972	0.85391	0.81497	3.2066	73.66	-0.2396	-0.0188	0.2208	1427.5896	0.163972	-365.05012	-365.040962	-365.040017	-365.085196	31.948	
C	-0.1392307033	 1.5100272971	-0.4578716963	-0.377431
C	 0.0439849421	 0.1423338674	 0.2104984733	-0.183052
C	-1.2780075609	-0.5589553865	 0.4271047336	 0.001818
N	-1.8694033801	-1.2586491521	-0.726421755	-0.337531
C	-1.4743732099	-2.0353807213	 0.464116339	-0.042444
C	-0.3684431215	-3.0576914146	 0.2780120955	-0.282451
C	-0.8857014905	-4.291481401	-0.4333461215	 0.158571
O	-0.7721487474	-5.4194186179	-0.0265077466	-0.241094
H	 0.8229623787	 2.0063441184	-0.6146524955	 0.114235
H	-0.6276350158	 1.3981074149	-1.430733713	 0.13035
H	-0.7598174223	 2.1725099686	 0.1559617146	 0.111847
H	 0.6941561878	-0.4799116928	-0.4119054491	 0.104536
H	 0.5467116638	 0.2612112472	 1.1789579349	 0.099382
H	-1.9691894979	 0.0034905403	 1.0564116141	 0.083235
H	-2.8766497734	-1.1309689965	-0.7566381578	 0.233725
H	-2.2783251724	-2.3815515307	 1.1130952981	 0.093864
H	 0.4225569903	-2.6289675636	-0.3480885136	 0.125455
H	 0.0660120876	-3.3578396243	 1.2362502998	 0.119329
H	-1.4032771049	-4.0722963927	-1.3940297045	 0.087657
46.7427	62.7391	83.7266	141.5205	203.523	238.6033	276.8993	392.6005	463.6994	493.4056	549.5063	755.0929	787.5168	821.8122	842.9355	894.767	956.2037	984.854	1002.1266	1045.5077	1062.7148	1088.54	1112.2564	1155.0467	1190.46	1244.2934	1264.0469	1269.4057	1292.0735	1305.9448	1345.0785	1407.723	1417.4845	1421.4941	1448.0578	1476.1943	1478.7344	1499.0264	1508.7167	1832.4443	2886.6278	3029.4178	3033.7874	3043.9732	3076.5524	3093.2526	3100.6509	3105.4506	3113.7642	3116.1521	3512.0756
CCC1NC1CC=O	CC[C@H]1N[C@H]1CC=O	
InChI=1S/C6H11NO/c1-2-5-6(7-5)3-4-8/h4-7H,2-3H2,1H3	InChI=1S/C6H11NO/c1-2-5-6(7-5)3-4-8/h4-7H,2-3H2,1H3/t5-,6+/m1/s1
