21
gdb 121258	3.96527	0.9166	0.82586	2.0172	79.07	-0.2533	0.0892	0.3425	1475.3367	0.182379	-424.216736	-424.207844	-424.2069	-424.250913	33.094	
C	-0.0547273115	 1.5536987517	 0.1385870196	-0.381889
C	-0.0454874082	 0.0244962414	 0.0707749093	-0.166072
C	-1.4543745456	-0.5738685302	-0.0004321008	-0.182036
C	-1.4651926162	-2.0976046208	-0.0632096275	 0.10254
O	-0.8308919442	-2.6165458667	 1.1119007009	-0.272314
C	-1.433240114	-3.84343725	 1.5028261679	-0.105767
C	-2.8253344951	-3.8189861804	 0.9116521825	 0.025235
O	-3.5247420231	-2.5990731168	 1.1841485654	-0.249292
C	-2.8429430909	-2.7344609259	-0.0689250315	 0.000611
H	 0.9616497652	 1.9565555078	 0.1897004922	 0.110612
H	-0.5414737906	 1.9886607448	-0.7418865309	 0.109756
H	-0.5974605012	 1.906715933	 1.0224952465	 0.11618
H	 0.5314337837	-0.301241499	-0.8054724196	 0.088205
H	 0.4673260873	-0.3867830361	 0.9463051919	 0.11902
H	-2.0408302917	-0.2708485683	 0.8743948818	 0.115504
H	-1.9764038631	-0.1898825881	-0.8876176502	 0.087794
H	-0.9285079244	-2.4408895215	-0.9664160787	 0.065478
H	-0.8836503901	-4.7142618416	 1.1082532901	 0.093894
H	-1.4214013207	-3.8908983436	 2.5968635812	 0.119012
H	-3.4274495252	-4.7202479337	 0.8374442527	 0.102609
H	-3.4613635403	-2.7285634362	-0.9624227027	 0.100919
74.5941	94.2823	113.9158	170.4606	246.0365	271.2726	316.3023	367.2639	421.5874	548.2957	690.6568	744.6899	780.1663	832.7159	838.8057	882.4575	905.6384	910.0052	942.5118	965.0837	1026.6609	1039.8033	1053.106	1072.1999	1106.2391	1121.3883	1135.5101	1165.9042	1228.0064	1258.2251	1261.3475	1284.9716	1310.3272	1325.8619	1339.6954	1373.4417	1375.2219	1406.9109	1414.4953	1446.1364	1476.8624	1494.016	1499.9738	1506.4976	1510.8215	2938.6571	2972.1875	3016.2618	3018.6884	3028.2434	3066.3176	3070.558	3078.7491	3099.5264	3101.3794	3150.6044	3163.6735
CCCC1OCC2OC12	CCC[C@H]1OC[C@H]2O[C@@H]12	
InChI=1S/C7H12O2/c1-2-3-5-7-6(9-7)4-8-5/h5-7H,2-4H2,1H3	InChI=1S/C7H12O2/c1-2-3-5-7-6(9-7)4-8-5/h5-7H,2-4H2,1H3/t5-,6-,7+/m1/s1
