16
gdb 97048	4.26296	1.07223	0.91367	2.814	69.	-0.264	-0.0098	0.2542	1248.9266	0.124064	-475.054686	-475.04622	-475.045276	-475.088696	29.854	
C	-0.4348194111	 1.4683471676	-0.2977199094	-0.332376
N	-0.3270682442	 0.0174660387	-0.3086356648	-0.297519
C	 0.6762108598	-0.5314773247	-0.835191168	 0.416879
C	 0.8440349281	-2.0285513201	-0.8106125842	-0.198533
O	 1.3499805621	-2.5395304945	-2.0564705497	-0.211088
C	 2.4335216582	-1.9185313855	-2.5700648553	 0.419916
O	 3.0337257233	-2.3726607979	-3.5013520119	-0.314835
C	 2.8125316395	-0.6170324434	-1.8732470759	-0.236148
O	 1.6802201018	 0.1493468178	-1.4629523426	-0.246009
H	-1.0933491687	 1.7892686782	-1.1139459454	 0.135729
H	-0.9086402201	 1.7775468455	 0.6383208349	 0.128901
H	 0.5230049172	 1.988677926	-0.4080590432	 0.123903
H	 1.5206651114	-2.3283943961	 0.0011218333	 0.136629
H	-0.1234692401	-2.4972067619	-0.6460267673	 0.167657
H	 3.4593796518	-0.8427800084	-1.0130995726	 0.142449
H	 3.3757594712	-0.0018498011	-2.573583088	 0.164447
60.3288	69.0891	157.9478	188.6559	221.0523	281.8166	401.8534	420.4523	471.9672	565.9538	597.209	644.2738	779.0582	798.7426	856.5722	985.0183	1018.7263	1052.9019	1081.5435	1100.265	1124.6694	1174.6692	1209.7744	1233.5001	1256.3874	1303.2265	1382.5577	1396.4257	1438.9427	1481.9262	1488.7682	1496.7304	1499.9935	1793.3194	1869.0838	3010.1993	3021.0355	3021.0699	3081.2217	3102.9317	3150.3848	3167.5373
CN=C1COC(=O)CO1	CN=C1COC(=O)CO1	
InChI=1S/C5H7NO3/c1-6-4-2-9-5(7)3-8-4/h2-3H2,1H3	InChI=1S/C5H7NO3/c1-6-4-2-9-5(7)3-8-4/h2-3H2,1H3
