18
gdb 106153	2.45217	1.63876	1.27551	1.6151	72.03	-0.2072	0.073	0.2802	1052.6429	0.147128	-438.988665	-438.980367	-438.979423	-439.02146	31.698	
C	 0.1897877295	 1.2557120624	-0.232941249	-0.254832
O	-0.1694850961	-0.0729047327	 0.1324124179	-0.278963
C	 0.5303158592	-0.5562997505	 1.1870722957	 0.393107
C	 1.9803146068	-0.8653378948	 1.4488770533	-0.206775
N	 2.0247015215	-0.0523677521	 2.6637573472	-0.298678
C	 0.544423403	-0.237715326	 2.7541378012	-0.112575
C	 0.2868040225	-1.7570122863	 3.005738718	-0.305224
C	 0.8519336023	-1.9620469317	 1.6028390529	 0.285423
O	 0.794884221	-3.0789899169	 0.8012830873	-0.459261
H	 1.2523679598	 1.3171054392	-0.4986300073	 0.122393
H	-0.4217891166	 1.5193020797	-1.0978803333	 0.12964
H	-0.0111094414	 1.9613783003	 0.5834305936	 0.12126
H	 2.8070622094	-0.9969393049	 0.7612241678	 0.096595
H	 2.5156176212	-0.5010029095	 3.4402998997	 0.204485
H	-0.0223368245	 0.5213099245	 3.2901165908	 0.081588
H	 0.795921219	-2.2076963892	 3.8671948612	 0.079859
H	-0.781384696	-1.9869960111	 3.0365498663	 0.11464
H	 1.5280534995	-3.6602992203	 1.0321539369	 0.287318
92.777	141.8817	159.8787	237.0297	289.1075	307.0322	377.4181	420.9794	467.7795	569.7222	609.7239	661.7502	695.7137	793.8523	881.9165	905.7367	927.7167	966.5628	995.6132	1027.4007	1043.2734	1050.0495	1067.4579	1110.7695	1146.1871	1168.0539	1178.7185	1206.7174	1222.2683	1237.343	1269.5612	1300.1576	1344.9926	1369.2066	1456.934	1484.7919	1489.9245	1501.8574	1540.912	3008.7979	3021.9253	3069.556	3104.9233	3131.6064	3132.1724	3192.4865	3411.2151	3790.4879
COC12C3NC1CC23O	CO[C@@]12[C@H]3N[C@@H]1C[C@@]23O	
InChI=1S/C6H9NO2/c1-9-6-3-2-5(6,8)4(6)7-3/h3-4,7-8H,2H2,1H3	InChI=1S/C6H9NO2/c1-9-6-3-2-5(6,8)4(6)7-3/h3-4,7-8H,2H2,1H3/t3-,4+,5+,6-/m1/s1
