18
gdb 101936	2.16728	1.3273	0.88768	3.3429	68.35	-0.2427	0.0312	0.2739	1285.0628	0.146485	-476.224929	-476.215329	-476.214385	-476.260217	34.517	
N	 0.9787588341	-1.1986056891	-0.5169795085	-0.526195
C	 0.1329254818	-0.7541130375	 0.4502404758	 0.392515
O	 0.4997830885	-0.4464107866	 1.5705928552	-0.368392
C	-1.3386913436	-0.6290598645	 0.0168587471	-0.147333
C	-1.9015073902	-1.8983896998	-0.6384057371	-0.105757
O	-1.296626963	-2.0551578533	-1.9236583187	-0.421961
C	-2.1827319443	-0.2408658955	 1.2133243633	 0.108196
C	-2.6139796578	 1.1372350659	 1.4466564132	-0.176115
O	-3.5235641709	 0.1656297493	 0.9174844148	-0.2578
H	 1.937358484	-1.3651423292	-0.2567499404	 0.253925
H	 0.6045417351	-1.5895190983	-1.3693669183	 0.268624
H	-1.4082653354	 0.1648716339	-0.7375250298	 0.113363
H	-1.7059053901	-2.774185207	-0.0016711516	 0.101596
H	-2.9875080905	-1.7786489642	-0.7374764333	 0.128245
H	-1.6110255282	-2.8778964557	-2.3097320797	 0.296014
H	-2.0898523304	-0.8957990793	 2.0781317915	 0.106943
H	-2.8243762423	 1.4722957265	 2.4605680912	 0.120293
H	-2.3103866268	 1.9190849344	 0.7519930253	 0.113839
44.6993	65.8776	134.7382	175.729	233.1736	242.4812	286.1619	348.1965	382.3754	412.3292	451.0399	511.1837	590.6883	637.2181	738.8658	811.2779	857.2426	886.4125	946.8737	1031.4257	1046.4918	1088.1399	1096.1647	1113.7284	1153.134	1162.8414	1177.1144	1231.8388	1239.3694	1273.5826	1294.2878	1320.7335	1379.9522	1449.7043	1453.7967	1522.2967	1533.0514	1621.4343	1786.0651	2991.3661	3037.8693	3052.3115	3088.2635	3128.5868	3176.7307	3554.3754	3703.9205	3834.1332
NC(=O)C(CO)C1CO1	NC(=O)[C@@H](CO)[C@H]1CO1	
InChI=1S/C5H9NO3/c6-5(8)3(1-7)4-2-9-4/h3-4,7H,1-2H2,(H2,6,8)	InChI=1S/C5H9NO3/c6-5(8)3(1-7)4-2-9-4/h3-4,7H,1-2H2,(H2,6,8)/t3-,4+/m0/s1
