19
gdb 32209	2.69598	1.41575	1.00223	3.3354	86.09	-0.2098	-0.0105	0.1993	1208.9656	0.161766	-382.137666	-382.129184	-382.12824	-382.170591	32.639	
C	-0.0485096004	 1.5512295825	 0.0974146685	-0.373897
C	-0.0378400932	 0.0141513981	-0.0132490904	-0.313611
C	 0.6922920524	-0.4910719407	-1.2347513092	 0.260477
C	 0.0095265113	-0.8330237238	-2.4000488483	-0.18819
C	 0.7012109516	-1.2932837692	-3.5148989211	-0.017829
N	 2.0293391499	-1.4325905373	-3.5333815514	-0.27236
C	 2.690493707	-1.1053614697	-2.4273359601	-0.046737
C	 2.092160632	-0.6324150366	-1.2503901873	 0.193745
N	 2.8709517205	-0.3843974954	-0.115705677	-0.596508
H	 0.9648877366	 1.9663663878	 0.1284463501	 0.11255
H	-0.5524201777	 1.9974310511	-0.7650916064	 0.12878
H	-0.5704465362	 1.8740754243	 1.003439541	 0.119193
H	 0.4140924331	-0.4173408882	 0.8883107783	 0.113379
H	-1.071598163	-0.3457167822	-0.0423504506	 0.109485
H	-1.0727084612	-0.7455907636	-2.4325570974	 0.087221
H	 0.1710396147	-1.5627476736	-4.4243912553	 0.098792
H	 3.7740026451	-1.2244857789	-2.4569607638	 0.087586
H	 3.8592543681	-0.3003513185	-0.3087050901	 0.247659
H	 2.5538071392	 0.3730976042	 0.4705774802	 0.250264
95.8775	125.1313	202.9314	222.4102	279.2855	326.2349	339.0858	418.84	474.446	527.732	601.4945	612.7189	650.5548	751.0369	789.0028	798.1548	851.6316	863.1887	934.3383	965.4488	974.0209	1052.1823	1077.8957	1087.8671	1106.5061	1215.9246	1233.7268	1264.5308	1316.7797	1323.166	1349.545	1361.0526	1411.5517	1456.4622	1490.0104	1496.0598	1509.1964	1531.1332	1606.1184	1629.7469	1660.8976	3031.3523	3034.8446	3071.0267	3102.0655	3113.9896	3117.3114	3155.7479	3175.4376	3562.9304	3658.6579
CCC1=CC=NC=C1N	CCc1ccncc1N	
InChI=1S/C7H10N2/c1-2-6-3-4-9-5-7(6)8/h3-5H,2,8H2,1H3	InChI=1S/C7H10N2/c1-2-6-3-4-9-5-7(6)8/h3-5H,2,8H2,1H3
