19
gdb 66615	2.80919	1.927	1.8424	1.2971	76.55	-0.2383	0.0787	0.317	870.9282	0.162558	-385.867086	-385.860804	-385.859859	-385.89715	27.992	
O	-0.1034583843	 1.3348132988	 0.089154244	-0.489372
C	 0.0074052927	-0.0452923401	 0.023813149	 0.418237
C	-0.3477555162	-0.8358320056	-1.2301794259	-0.156991
C	-1.256947895	-0.8729728193	-0.01896265	-0.112117
C	-0.6743995377	-2.2247024404	 0.4347581465	-0.054581
C	 0.2315063479	-1.851101819	 1.6211106163	-0.213967
C	 1.0960666786	-0.8504912128	 0.8172118322	-0.109807
C	 1.6679300534	-1.7853072713	-0.275113675	-0.214913
C	 0.2941657607	-2.1821803709	-0.8449051245	-0.054282
H	 0.5989486715	 1.7202403615	-0.4457150781	 0.281889
H	-0.503888166	-0.3983016856	-2.2091926343	 0.078688
H	-2.2488037629	-0.4630640238	 0.1255993813	 0.086292
H	-1.3437050717	-3.0772513034	 0.5323188674	 0.063927
H	-0.3337356167	-1.3785433183	 2.4307352143	 0.096107
H	 0.8125986749	-2.6850858822	 2.0286559211	 0.087043
H	 1.7982933756	-0.2315961296	 1.3749758905	 0.057123
H	 2.2795587568	-1.2629946962	-1.0189248493	 0.084067
H	 2.2453102793	-2.6191352571	 0.1375685329	 0.088634
H	 0.2389672691	-3.0105173846	-1.5488630586	 0.064023
244.3032	310.8984	345.8274	429.5299	470.765	552.5251	575.9594	643.812	675.7532	771.5974	792.7476	815.7484	870.3528	882.243	899.3801	906.1064	914.1429	940.7052	953.2706	962.2133	978.4298	990.94	1039.7786	1050.6903	1088.5148	1105.8332	1137.6035	1158.7368	1186.8695	1208.48	1210.4727	1248.791	1258.0283	1270.4548	1290.2975	1302.6503	1317.3594	1326.2859	1432.6753	1481.4055	1502.4127	3037.3875	3043.3251	3086.1501	3094.4304	3122.1598	3126.4648	3136.1515	3177.9434	3193.5838	3792.7195
OC12C3C1C1CC2CC31	O[C@]12[C@@H]3[C@H]1[C@@H]1C[C@H]2C[C@H]31	
InChI=1S/C8H10O/c9-8-3-1-4-5(2-3)7(8)6(4)8/h3-7,9H,1-2H2	InChI=1S/C8H10O/c9-8-3-1-4-5(2-3)7(8)6(4)8/h3-7,9H,1-2H2/t3-,4+,5-,6+,7-,8-
