18
gdb 102456	2.10801	1.274	0.89437	1.7372	70.97	-0.229	-0.0874	0.1416	1305.1582	0.144175	-476.212	-476.201306	-476.200362	-476.250102	35.953	
C	 0.4371419644	-2.1561336137	 0.0005913699	-0.324315
N	 0.6151754371	-0.7094330732	-0.0186007039	-0.289687
C	 0.8494280252	-0.1114810575	-1.3376154342	-0.104905
C	-0.2632315848	 0.8467331945	-1.7717022765	-0.091306
O	-1.542542134	 0.2365623585	-1.7269651903	-0.41777
C	 2.1806632272	 0.6119436429	-1.1642075891	 0.316733
O	 2.3290980797	 1.8116310237	-1.1398004135	-0.300479
C	 3.4123512644	-0.2776950847	-0.9507838576	 0.105892
O	 3.4500231972	-1.447781138	-1.2317432387	-0.230205
H	-0.3846925053	-2.5045713005	-0.6468818846	 0.097248
H	 1.3617367814	-2.6398778774	-0.3261685079	 0.151092
H	 0.2281358476	-2.4787077941	 1.0244702437	 0.123364
H	-0.175330897	-0.2493541265	 0.4161467757	 0.237126
H	 0.9740842301	-0.9080404492	-2.0827879963	 0.093423
H	-0.3045692635	 1.6909348058	-1.0768609231	 0.131447
H	-0.0339954002	 1.2613692303	-2.7632184095	 0.106667
H	-1.579207133	-0.4383641963	-2.4124057278	 0.286983
H	 4.2940395436	 0.2893797255	-0.5839723662	 0.108692
9.8762	68.9796	96.1894	134.912	141.2328	174.4222	226.6169	240.2924	302.3786	334.5985	343.5122	488.1633	518.9427	574.0019	643.5783	684.667	849.3684	886.874	1005.0471	1024.6952	1053.5991	1090.6969	1131.0016	1147.4356	1159.5906	1176.0409	1263.1993	1324.4985	1359.5952	1368.4513	1390.7539	1413.561	1454.9767	1484.4439	1494.0259	1503.5911	1520.1704	1801.1804	1815.0824	2922.0532	2965.1701	3012.0196	3026.463	3078.2521	3093.1203	3121.1521	3551.4443	3815.4166
CNC(CO)C(=O)C=O	CN[C@@H](CO)C(=O)C=O	
InChI=1S/C5H9NO3/c1-6-4(2-7)5(9)3-8/h3-4,6-7H,2H2,1H3	InChI=1S/C5H9NO3/c1-6-4(2-7)5(9)3-8/h3-4,6-7H,2H2,1H3/t4-/m0/s1
