16
gdb 30330	3.07705	1.62122	1.10784	3.1675	71.98	-0.183	0.0227	0.2058	1040.1221	0.128021	-434.082664	-434.075293	-434.074349	-434.114635	28.394	
O	 0.0861314296	 1.4616691291	-0.1167116156	-0.429
C	 0.0046834603	 0.0414660956	-0.0206235933	-0.051818
C	 0.5424300508	-0.512983299	 1.3600576089	-0.192552
N	-0.3876982459	-1.5859671809	 1.813207215	-0.403647
C	-1.5607359409	-1.339381104	 1.0840822026	 0.320134
C	-1.389599611	-0.4498513946	 0.0672435456	 0.288775
N	-2.5778259101	-0.4806425429	-0.6352087762	-0.381387
C	-3.3964382687	-1.3366945486	 0.0489432639	-0.005717
N	-2.8053437433	-1.894413069	 1.0960410451	-0.351922
H	 0.9949095199	 1.6911463567	-0.3375412347	 0.280724
H	 0.5610980711	-0.4051937455	-0.8611033221	 0.077506
H	 1.561982784	-0.9006748516	 1.282111609	 0.103374
H	 0.540544939	 0.3417174968	 2.048519139	 0.113085
H	-0.5140181085	-1.6129608419	 2.8184877128	 0.235444
H	-2.841759222	 0.0944992447	-1.4167621901	 0.269095
H	-4.4190807043	-1.5077487049	-0.25271725	 0.127907
82.2735	161.5539	266.6826	282.7589	312.0036	458.323	483.3178	508.1339	582.9373	648.4206	672.9424	721.1662	761.1028	790.2895	816.5456	950.4924	968.2169	981.6123	1035.0563	1079.3327	1103.2848	1150.1783	1214.4451	1229.6095	1249.108	1294.451	1316.5244	1339.455	1375.0126	1421.7803	1441.4506	1468.2434	1507.0227	1543.428	1641.6934	2951.7901	3023.8208	3086.5159	3251.6845	3538.425	3674.846	3808.6886
OC1CNC2=C1NC=N2	O[C@H]1CNc2c1[nH]cn2	
InChI=1S/C5H7N3O/c9-3-1-6-5-4(3)7-2-8-5/h2-3,6,9H,1H2,(H,7,8)	InChI=1S/C5H7N3O/c9-3-1-6-5-4(3)7-2-8-5/h2-3,6,9H,1H2,(H,7,8)/t3-/m0/s1
