18
gdb 64784	4.3238	0.67797	0.66451	5.3088	90.24	-0.2823	-0.0372	0.2451	1712.3792	0.146539	-364.796401	-364.787039	-364.786095	-364.831231	34.11	
C	 0.0400707303	 1.5496112688	 0.4799736066	-0.462793
C	-0.0070904195	 0.0844546394	 0.0961301613	 0.377244
C	-1.3799398833	-0.4140370367	-0.3639145315	-0.455025
C	-1.8436723633	 0.2219864611	-1.5891353678	 0.121197
C	-2.2110194711	 0.7585683644	-2.6080302668	 0.024045
C	-2.6297559777	 1.3608169453	-3.7591390434	 0.208272
N	-2.9857526646	 1.8737720402	-4.7390639958	-0.33974
C	 1.2048909077	-0.5386852142	-0.5496514854	-0.288603
C	 0.8377804296	-0.8957597236	 0.8724563554	-0.315228
H	 1.0456197787	 1.8350633935	 0.80170489	 0.120703
H	-0.2366258085	 2.1905311814	-0.3638754985	 0.133743
H	-0.6485614325	 1.7657704589	 1.3054786157	 0.118349
H	-1.3475855103	-1.4989733754	-0.5239187137	 0.143097
H	-2.1232732633	-0.2416763873	 0.4268828343	 0.145802
H	 1.0517572575	-1.287751997	-1.3193541969	 0.117994
H	 2.0723778548	 0.0910822402	-0.7136473208	 0.119148
H	 1.4536267932	-0.5048330704	 1.6751394222	 0.118364
H	 0.4404313924	-1.8872566587	 1.0638906552	 0.113431
51.8664	68.7872	153.4856	191.8221	224.0585	306.1549	333.0007	343.5712	368.7129	386.3106	482.1509	575.9655	577.8181	717.8551	736.7971	782.4213	874.1139	896.2542	929.8448	957.2023	975.3578	1046.5168	1071.6296	1083.8348	1124.8799	1167.1242	1186.4452	1205.1225	1303.1824	1323.8396	1371.1302	1423.5448	1453.5945	1471.0163	1492.3284	1499.7042	1511.4908	2263.579	2400.2143	3013.9212	3028.0307	3053.1574	3090.1507	3110.1193	3129.0734	3135.4031	3207.9999	3222.4497
CC1(CC#CC#N)CC1	CC1(CC#CC#N)CC1	
InChI=1S/C8H9N/c1-8(5-6-8)4-2-3-7-9/h4-6H2,1H3	InChI=1S/C8H9N/c1-8(5-6-8)4-2-3-7-9/h4-6H2,1H3
