19
gdb 8040	3.26893	1.89561	1.49476	0.9344	72.28	-0.2068	0.0721	0.2789	921.7915	0.164728	-365.01676	-365.008678	-365.007734	-365.048872	30.822	
C	-0.0576709238	 1.5263610381	 0.1486622983	-0.321317
N	 0.0165442584	 0.0830829414	 0.1475134561	-0.078051
C	-1.2241193262	-0.6750277186	 0.4267750179	-0.234443
C	-0.4131673493	-1.6201974322	 1.3417651096	 0.389142
O	-0.9533227988	-1.9854909564	 2.5766062142	-0.47793
C	 0.4991902007	-2.6607763905	 0.6167073891	-0.288972
C	 1.7100640565	-1.6789354917	 0.7393369046	-0.209387
C	 0.747858898	-0.5869770917	 1.2542669704	-0.025498
H	 0.9448683851	 1.9498457026	 0.0241708313	 0.118653
H	-0.669450178	 1.8656464557	-0.6946270504	 0.117828
H	-0.4951212885	 1.9473053649	 1.074345585	 0.090511
H	-1.9544207102	-0.1102309636	 1.0280628734	 0.087748
H	-1.7224431694	-1.0862351662	-0.4602274963	 0.088627
H	-1.5144573508	-2.7578434779	 2.443987489	 0.278472
H	 0.6146412628	-3.5897550158	 1.180590127	 0.097463
H	 0.1942336092	-2.8979442584	-0.4053375048	 0.101697
H	 2.4289799187	-2.0017169217	 1.4974526349	 0.099016
H	 2.2382980958	-1.4338445407	-0.1837410048	 0.101712
H	 1.0407666897	 0.0571616927	 2.0889369555	 0.06473
86.1605	195.9562	200.6526	213.8056	281.995	323.6251	351.4508	395.944	447.1579	591.2537	665.481	716.3334	783.6959	865.4434	923.8213	927.3849	948.5371	974.0595	997.7475	1053.5166	1083.3328	1105.995	1154.3715	1168.9861	1172.0929	1207.3272	1221.95	1227.7184	1261.7069	1264.3275	1280.2749	1312.1309	1336.3023	1389.5666	1451.0777	1458.5929	1477.3994	1484.3943	1501.5574	1510.0967	2921.1656	2972.9202	3039.5716	3050.1402	3055.6724	3059.623	3068.7316	3092.7777	3111.415	3129.2168	3792.8627
CN1CC2(O)CCC12	CN1C[C@@]2(O)CC[C@@H]12	
InChI=1S/C6H11NO/c1-7-4-6(8)3-2-5(6)7/h5,8H,2-4H2,1H3	InChI=1S/C6H11NO/c1-7-4-6(8)3-2-5(6)7/h5,8H,2-4H2,1H3/t5-,6+/m1/s1
