15
gdb 23188	2.65461	1.35271	0.98138	1.8949	78.33	-0.2297	-0.0008	0.2289	1169.2486	0.1108	-416.677272	-416.668995	-416.668051	-416.710086	31.509	
O	-0.1603789211	 1.3562231187	-0.0886394083	-0.386934
N	 0.0097275881	-0.0306830106	 0.05286396	-0.256233
C	-1.0980419531	-0.6332131598	-0.0283718325	 0.39788
C	-2.5755956444	-0.2461618363	-0.0991468843	-0.317745
C	-2.8888666431	-1.740374308	 0.1045774793	-0.119111
N	-2.2901328496	-2.4448987278	-1.0297151279	-0.362927
C	-1.412676098	-2.0882978319	 0.1528712595	 0.150286
C	-0.7103216827	-3.0807913171	 0.8831171991	 0.172837
C	-0.1095445513	-3.920138925	 1.5010972249	-0.416263
H	 0.7419078982	 1.6809480644	 0.0031721454	 0.310291
H	-2.8598909902	 0.3910995844	 0.7424232008	 0.134651
H	-2.9326246514	 0.1878336515	-1.0352100621	 0.136179
H	-3.6862322987	-2.171925229	 0.6952607701	 0.120001
H	-2.4953875689	-3.4396342242	-0.922688449	 0.242968
H	 0.4255532561	-4.6558472592	 2.048903415	 0.194119
100.5786	137.4417	157.5143	223.7947	323.2992	389.8389	407.1296	450.8299	502.0255	527.6982	561.4133	586.6512	651.5692	672.9718	727.1261	806.8239	835.5882	896.9003	950.9285	993.8639	1014.5954	1038.7802	1086.8369	1122.3581	1168.1601	1210.0827	1270.6201	1335.297	1374.7194	1426.3741	1460.5359	1794.6919	2238.6436	3071.3379	3128.3091	3209.5197	3463.2494	3501.2467	3816.3012
ON=C1CC2NC12C#C	ON=C1C[C@H]2N[C@@]12C#C	
InChI=1S/C6H6N2O/c1-2-6-4(7-6)3-5(6)8-9/h1,4,7,9H,3H2	InChI=1S/C6H6N2O/c1-2-6-4(7-6)3-5(6)8-9/h1,4,7,9H,3H2/t4-,6-/m1/s1
