18
gdb 56832	3.07463	1.14315	0.97765	3.8241	75.99	-0.2521	0.0301	0.2822	1236.3278	0.1473	-401.88907	-401.880752	-401.879808	-401.922685	31.105	
C	 0.092925376	 1.5102438032	-0.127337513	-0.392778
C	 0.0366876741	-0.0314517991	-0.1548079184	-0.201527
C	 0.696258929	-0.5528073068	-1.3581933814	 0.275128
N	 1.2261113387	-0.9667803333	-2.2984104158	-0.322094
C	 0.6945169765	-0.6363162071	 1.0932166692	 0.056281
C	-0.0193702147	-0.6956606682	 2.4764378599	 0.019383
C	-0.9345954268	-1.8434642203	 1.9848956385	-0.236146
C	 0.5185969082	-2.1183152668	 1.5283463089	 0.031869
O	 0.9754147199	-1.713414565	 2.8803298207	-0.303573
H	 1.1277653044	 1.859746826	-0.0787438272	 0.142509
H	-0.370778217	 1.935588745	-1.020397612	 0.140369
H	-0.4393876597	 1.8833100083	 0.7519361776	 0.129171
H	-1.0131565353	-0.337749479	-0.2147943559	 0.126432
H	 1.7332527644	-0.3095326089	 1.1841167961	 0.102963
H	-0.2283836772	 0.1083939449	 3.1825116707	 0.100306
H	-1.2916071636	-2.5037574597	 2.7751418078	 0.11928
H	-1.7024642187	-1.6388291013	 1.2361253483	 0.101162
H	 0.9563437017	-3.0171833218	 1.0955699661	 0.111265
45.6483	113.3608	193.2575	210.1755	224.9644	319.1339	379.531	468.3401	545.7035	576.2406	628.442	733.3552	817.3631	851.8983	869.471	892.3066	904.647	927.3872	990.6067	1011.6133	1042.2924	1068.6132	1098.6907	1102.3724	1140.4051	1169.8786	1171.7351	1202.8838	1222.6888	1255.5044	1274.4531	1291.3905	1324.6472	1392.4801	1415.1306	1492.7882	1498.0803	1500.5413	2355.492	3049.452	3052.619	3077.1447	3093.1542	3117.4884	3126.2746	3131.5104	3131.6928	3154.5544
CC(C#N)C1C2CC1O2	C[C@@H](C#N)[C@H]1[C@H]2C[C@@H]1O2	
InChI=1S/C7H9NO/c1-4(3-8)7-5-2-6(7)9-5/h4-7H,2H2,1H3	InChI=1S/C7H9NO/c1-4(3-8)7-5-2-6(7)9-5/h4-7H,2H2,1H3/t4-,5-,6+,7+/m0/s1
