23
gdb 111977	3.23167	1.12143	0.92211	1.0755	87.95	-0.2402	0.0206	0.2609	1371.4862	0.204993	-388.29491	-388.285104	-388.28416	-388.329408	37.056	
C	-0.0865114772	 1.4875915848	-0.0368780916	-0.236438
O	 0.002483523	 0.1047305704	 0.2062046195	-0.243045
C	-1.2230898744	-0.5891379137	 0.0437215669	 0.105889
C	-1.6139818787	-0.8844418908	-1.3901925176	-0.114262
C	-2.1345010654	-2.1037540572	-1.4992907459	-0.060755
C	-2.1656600741	-2.8332827467	-0.1721183676	-0.01843
C	-1.9164193685	-4.3419631256	-0.2688281135	-0.408531
C	-1.1565297598	-2.003233295	 0.6896084485	-0.059074
C	 0.2711544953	-2.5642681402	 0.6742863435	-0.380005
H	 0.8964118406	 1.9177949256	 0.1718036463	 0.125237
H	-0.35253243	 1.7168778781	-1.0799174763	 0.104409
H	-0.8309500746	 1.9686712027	 0.617945504	 0.102486
H	-2.020772002	 0.0050553549	 0.5278794608	 0.063412
H	-1.5216313079	-0.157205882	-2.1886772228	 0.092499
H	-2.5363584185	-2.5397017127	-2.4088150421	 0.089322
H	-3.1679805236	-2.7010059101	 0.2655813069	 0.079096
H	-0.9556147954	-4.5673334302	-0.7399267116	 0.122114
H	-1.9268485864	-4.8121906388	 0.7200864627	 0.113256
H	-2.7004275076	-4.8175983634	-0.8679725837	 0.109351
H	-1.4957528302	-1.9562217732	 1.7297724604	 0.06535
H	 0.6586419632	-2.6532468021	-0.345255499	 0.118011
H	 0.9418263037	-1.9019298879	 1.2239347693	 0.126475
H	 0.3031308287	-3.5528179368	 1.1407121528	 0.103631
65.3637	91.4165	179.0597	199.3617	240.2143	259.6488	270.1488	304.5368	328.1754	342.8967	430.841	483.712	585.3788	671.1525	739.0124	762.4201	800.7253	855.1222	914.8548	969.61	976.0561	1004.8625	1021.6317	1061.4499	1074.4769	1087.7747	1116.8763	1144.1462	1158.0153	1180.4202	1189.0638	1227.1415	1251.8331	1299.9552	1306.3343	1342.7782	1364.9942	1374.608	1389.0755	1405.4612	1410.4687	1478.4351	1488.2007	1490.6581	1494.6097	1505.4124	1508.7336	1510.2757	1682.2011	2914.8978	2967.6935	2970.3318	3016.5484	3033.5846	3047.0693	3047.6022	3095.2968	3109.0483	3112.8501	3113.9971	3135.9687	3172.6034	3204.6087
COC1C=CC(C)C1C	CO[C@H]1C=C[C@@H](C)[C@H]1C	
InChI=1S/C8H14O/c1-6-4-5-8(9-3)7(6)2/h4-8H,1-3H3	InChI=1S/C8H14O/c1-6-4-5-8(9-3)7(6)2/h4-8H,1-3H3/t6-,7-,8+/m1/s1
