18
gdb 9362	7.89773	0.73183	0.68105	2.8751	65.54	-0.2662	0.0179	0.2842	1612.8018	0.151366	-422.10673	-422.096838	-422.095894	-422.143015	32.81	
C	 0.0930469643	 1.3475136347	 0.0076285289	-0.239224
O	-0.0402633832	-0.0787849842	 0.0009227423	-0.23517
C	-1.3094592509	-0.5393844792	 0.0120795148	 0.449313
O	-2.2774957011	 0.1777897536	 0.0265731136	-0.352325
C	-1.326090694	-2.054486478	 0.0039391725	-0.336411
C	-2.7394167378	-2.6330412265	 0.0137947296	-0.158177
C	-2.7373468197	-4.1557023681	 0.005992814	-0.076256
O	-4.0869942558	-4.5911467229	 0.0160166044	-0.419911
H	 1.1648974847	 1.5461325725	-0.0026432548	 0.131538
H	-0.385242193	 1.7849838991	-0.8725254154	 0.139926
H	-0.3663716052	 1.7748836548	 0.9026695089	 0.139927
H	-0.7610075448	-2.3887841252	-0.8753052199	 0.130696
H	-0.7451801972	-2.3981408514	 0.8691827632	 0.130726
H	-3.2824133017	-2.2798670924	 0.8958780374	 0.122399
H	-3.2983147163	-2.2709587082	-0.8546525221	 0.122322
H	-2.2051006746	-4.5241021339	-0.8873434914	 0.082427
H	-2.1890143058	-4.5331428058	 0.8857268619	 0.082428
H	-4.0939823778	-5.5525817589	 0.0109068221	 0.285772
29.8364	68.6594	108.2445	124.04	127.0399	175.6382	266.6983	267.2335	303.6632	360.4357	515.3992	585.9616	700.5315	762.3027	877.521	896.5943	1009.4435	1031.2887	1071.7608	1092.6989	1117.9924	1179.7387	1191.1358	1208.1323	1213.4228	1252.154	1295.7624	1310.2234	1317.604	1398.3178	1460.6754	1466.8702	1474.178	1482.2869	1495.6777	1498.8055	1528.1976	1823.0817	2951.6715	2975.2834	3032.6255	3050.7676	3061.5455	3061.9974	3105.7679	3124.3642	3157.1589	3831.6683
COC(=O)CCCO	COC(=O)CCCO	
InChI=1S/C5H10O3/c1-8-5(7)3-2-4-6/h6H,2-4H2,1H3	InChI=1S/C5H10O3/c1-8-5(7)3-2-4-6/h6H,2-4H2,1H3
