20
gdb 55282	2.42124	1.40263	1.14878	2.6289	74.67	-0.2351	0.0276	0.2626	1162.7147	0.169533	-440.311938	-440.302149	-440.301205	-440.346823	36.158	
C	 0.4745447918	 1.5168852317	-0.2349008622	-0.45257
C	 0.0524249507	 0.0552455892	-0.1019477825	 0.267109
C	-1.2288935904	-0.2303214944	-0.8796995561	-0.45587
C	 1.1996599679	-0.9664671044	-0.3213769224	-0.107795
O	 1.1731900246	-1.3821673111	 1.0643610886	-0.305013
C	 0.0562528633	-0.5141305083	 1.3553854219	 0.012899
C	 0.299960222	 0.4681098202	 2.493205798	 0.358786
N	 1.5419357948	 0.3909208597	 3.0327374007	-0.520787
O	-0.5675282824	 1.2492668452	 2.8392983717	-0.377103
H	 1.4109996486	 1.7138438536	 0.2959268897	 0.120469
H	 0.6228841597	 1.775262434	-1.2891084676	 0.1091
H	-0.2892532331	 2.1803397892	 0.1799762676	 0.144278
H	-1.097181316	-0.0041790105	-1.9438441992	 0.115729
H	-1.5262258193	-1.280494964	-0.7925901843	 0.11764
H	-2.0528248722	 0.3863304245	-0.5056322307	 0.133582
H	 0.96294899	-1.7999432187	-0.9936863242	 0.103035
H	 2.1723512372	-0.5439101748	-0.6000790463	 0.101909
H	-0.8474885768	-1.0842802039	 1.6031620605	 0.101448
H	 2.1674962867	-0.3318317201	 2.7158332084	 0.27203
H	 1.7703959929	 0.9608185231	 3.8298066785	 0.261125
43.2367	77.2987	160.7264	210.2878	234.8946	257.9371	300.9139	325.2939	341.4302	378.589	419.9982	478.3458	536.4585	645.0381	658.3166	717.4532	857.998	878.9139	927.4374	957.8335	966.4786	986.4312	1024.466	1044.1848	1050.3115	1093.8711	1159.9822	1203.3913	1215.35	1268.8378	1283.2883	1336.3009	1358.681	1373.5027	1405.952	1425.9031	1483.1334	1487.329	1501.6509	1507.593	1525.287	1589.069	1796.3857	3015.519	3026.5772	3033.6428	3037.8552	3063.7936	3095.0578	3101.4582	3103.1389	3119.2685	3590.7957	3733.5652
CC1(C)COC1C(N)=O	CC1(C)CO[C@H]1C(=O)N	
InChI=1S/C6H11NO2/c1-6(2)3-9-4(6)5(7)8/h4H,3H2,1-2H3,(H2,7,8)	InChI=1S/C6H11NO2/c1-6(2)3-9-4(6)5(7)8/h4H,3H2,1-2H3,(H2,7,8)/t4-/m0/s1
