19
gdb 85050	2.57349	1.45712	1.10581	2.055	71.02	-0.2556	-0.0305	0.2251	1137.3868	0.158682	-460.197835	-460.189004	-460.18806	-460.231093	33.877	
C	-0.2424617295	 1.5502133912	 0.0252658928	-0.406849
C	-0.014885232	 0.0420936503	 0.1007432197	 0.00825
C	 0.6033014103	-0.5782699186	-1.1783221746	-0.339385
C	 1.5012855509	-1.6952270192	-0.6692159755	 0.37927
O	 2.326277878	-2.3353669426	-1.2735756742	-0.331693
C	 1.3093667475	-1.8276526079	 0.8447669995	 0.015423
O	 2.4749976597	-2.3010955263	 1.4693252211	-0.450761
C	 0.9450780592	-0.3896164785	 1.2348958805	 0.088091
O	 2.1192854482	 0.3990991453	 1.181570343	-0.446966
H	 0.70692555	 2.0726578349	-0.1164721217	 0.142164
H	-0.9071361665	 1.8033172575	-0.8067890705	 0.112765
H	-0.6994186968	 1.9257444612	 0.9466766298	 0.116642
H	-0.9744461607	-0.4524551124	 0.2998717975	 0.078847
H	-0.1384714314	-0.9580709576	-1.8873845339	 0.132042
H	 1.2297071771	 0.1356539392	-1.7233813065	 0.147264
H	 0.4500958088	-2.4943626176	 1.0342403581	 0.096126
H	 2.995906018	-2.7125258925	 0.7608410728	 0.297912
H	 0.4664308345	-0.3215237135	 2.221895707	 0.068945
H	 2.8219784546	-0.1585237128	 1.5441335651	 0.291914
88.8178	117.9892	223.9577	228.1883	259.479	279.6997	308.8877	430.324	449.0822	483.8801	515.8964	546.4084	590.7581	631.8729	750.6565	781.9835	835.2801	906.0972	939.1347	954.8139	1009.1607	1047.4014	1090.4861	1127.8	1172.4313	1173.9767	1194.1497	1199.4977	1266.0661	1272.7255	1314.0206	1350.3535	1364.6577	1381.5915	1407.453	1410.1979	1422.3436	1445.3331	1494.377	1502.5175	1839.0229	2959.2005	3003.6219	3024.6719	3038.9139	3058.0577	3099.6828	3102.665	3126.1046	3688.59	3743.2612
CC1CC(=O)C(O)C1O	C[C@H]1CC(=O)[C@@H](O)[C@H]1O	
InChI=1S/C6H10O3/c1-3-2-4(7)6(9)5(3)8/h3,5-6,8-9H,2H2,1H3	InChI=1S/C6H10O3/c1-3-2-4(7)6(9)5(3)8/h3,5-6,8-9H,2H2,1H3/t3-,5-,6+/m0/s1
