15
gdb 50277	2.91615	1.31835	1.11593	3.0209	73.77	-0.2436	-0.038	0.2055	1095.6603	0.109629	-420.548267	-420.540053	-420.539109	-420.581341	30.388	
O	-0.2460965691	 0.1289592048	-0.4937258424	-0.242335
C	-0.0169435663	 1.2029888243	-0.0035018599	 0.144357
C	 1.3115353662	 1.9171057962	-0.06782657	-0.008696
O	 2.4147479365	 1.1470989635	-0.5733970471	-0.272393
C	 2.6416242817	 2.0917970149	-1.6150941942	 0.06551
C	 1.4785822087	 2.1726775182	-2.5358391111	-0.339156
C	 1.4366680169	 2.9513545898	-1.2189462841	 0.063014
C	 1.2514232843	 4.3509680378	-1.1042812133	 0.173766
C	 1.0812698708	 5.5369598392	-0.9873502874	-0.389784
H	-0.8047859853	 1.7964410647	 0.5158872356	 0.087643
H	 1.554435634	 2.36561455	 0.9037258552	 0.112118
H	 3.6646035807	 2.3678751964	-1.8394171953	 0.126504
H	 1.6054761366	 2.8107733609	-3.4036293884	 0.13792
H	 0.8444606816	 1.3015095565	-2.6694301089	 0.148522
H	 0.9354529325	 6.5840541028	-0.8880097488	 0.193011
83.3052	106.3189	159.474	210.4578	247.0354	352.7923	446.8216	484.5079	509.3969	572.2527	593.5314	668.4245	720.5251	751.8152	823.789	865.7282	895.0032	946.5274	997.9064	1025.5592	1055.2255	1062.4175	1097.503	1121.17	1192.8053	1207.8332	1280.0954	1352.4523	1376.7276	1417.2733	1465.9282	1834.0418	2233.565	2868.1915	3036.9379	3128.6513	3197.9781	3229.712	3501.7496
O=CC1OC2CC12C#C	O=C[C@H]1O[C@H]2C[C@@]12C#C	
InChI=1S/C7H6O2/c1-2-7-3-5(7)9-6(7)4-8/h1,4-6H,3H2	InChI=1S/C7H6O2/c1-2-7-3-5(7)9-6(7)4-8/h1,4-6H,3H2/t5-,6+,7+/m0/s1
