19
gdb 9666	4.40174	1.15586	1.08649	3.1108	73.96	-0.2371	-0.0208	0.2164	1170.0381	0.162745	-365.050852	-365.0416	-365.040656	-365.08488	32.999	
C	-0.0393909702	 1.5636947475	-0.1444083637	-0.375018
C	 0.0287066987	 0.0935201287	 0.2623522579	-0.1168
N	-1.289343747	-0.5225401644	 0.1194231453	-0.109443
C	-1.6183138924	-1.1702505659	-1.1288278847	-0.284861
C	-1.4140715892	-1.99321269	 0.1190188334	 0.205113
C	-0.2373552749	-2.9364052538	 0.2412389345	-0.474293
C	-2.6611185526	-2.4291720314	 0.8240266293	 0.142927
O	-2.8179998282	-3.5134273223	 1.3267976016	-0.264317
H	 0.9323340707	 2.0461327938	-0.0021046919	 0.115404
H	-0.3167362884	 1.665221478	-1.1987009558	 0.119984
H	-0.7850450094	 2.0941615595	 0.4538552831	 0.130424
H	 0.8026033733	-0.4180350211	-0.3314935009	 0.088494
H	 0.3215614815	 0.0095271715	 1.3150494203	 0.110761
H	-2.6142777107	-0.9871508344	-1.5260596276	 0.120266
H	-0.8384047394	-1.2758574828	-1.883289356	 0.116151
H	 0.5836971926	-2.6646531864	-0.423925103	 0.118442
H	 0.1387032705	-2.9613848259	 1.2690050859	 0.132842
H	-0.5631973585	-3.9498688855	-0.0057495141	 0.145222
H	-3.4499485665	-1.6450830052	 0.8454354864	 0.078703
70.0476	102.225	124.5675	165.6427	210.0251	267.6108	272.15	327.0842	380.9866	439.2502	444.7762	606.5499	722.2164	766.9638	815.1085	882.7142	921.1501	953.396	1013.7664	1023.0149	1075.7479	1097.197	1107.0047	1118.508	1168.3719	1199.0106	1310.8574	1317.3101	1346.2393	1386.9869	1405.6181	1416.0518	1424.0893	1482.8273	1487.9684	1489.9959	1495.398	1502.9653	1517.4746	1822.101	2895.5854	2976.8691	3040.5555	3050.5247	3058.6678	3079.8874	3110.1689	3115.5796	3122.766	3138.7269	3166.4058
CCN1CC1(C)C=O	CCN1C[C@]1(C)C=O	
InChI=1S/C6H11NO/c1-3-7-4-6(7,2)5-8/h5H,3-4H2,1-2H3	InChI=1S/C6H11NO/c1-3-7-4-6(7,2)5-8/h5H,3-4H2,1-2H3/t6-,7?/m1/s1
