14
gdb 8741	3.85785	1.3126	1.18328	2.0038	62.03	-0.3204	-0.0122	0.3082	1006.6372	0.105855	-378.740462	-378.73185	-378.730906	-378.773743	29.839	
C	-0.0537106148	 1.5766125461	 0.0987095284	-0.422944
C	-0.0274436432	 0.0412455648	-0.0087509587	-0.156419
C	-1.3829080169	-0.5148059759	 0.0306961411	 0.274782
N	-2.4520388048	-0.9498995852	 0.0733341304	-0.306396
C	 0.6935245661	-0.4631374133	-1.2983411066	-0.012011
O	 0.0914490362	-0.0121640323	-2.4865660896	-0.400338
C	 2.1246566533	-0.1014544091	-1.2372387374	 0.258619
N	 3.2344000641	 0.2168604473	-1.1919560302	-0.307723
H	 0.9658368942	 1.9711730478	 0.0834788553	 0.154229
H	-0.6243749609	 2.0159189368	-0.7238408713	 0.142024
H	-0.5294196441	 1.8831906831	 1.0321582822	 0.155393
H	 0.5227344507	-0.3692038324	 0.8469042332	 0.151417
H	 0.6216628864	-1.5550097395	-1.3268749084	 0.163897
H	 0.2788320136	 0.9264156619	-2.6011727183	 0.30547
64.7713	127.3694	172.5515	219.35	221.3517	250.9103	298.3513	346.0934	397.7113	506.9014	561.7615	585.2631	682.3636	809.3263	875.4008	966.5345	1005.5107	1088.1347	1101.2369	1135.0819	1258.4461	1290.1201	1328.422	1353.7327	1412.8348	1423.0668	1495.2707	1507.9899	2356.7796	2365.0693	3045.4668	3054.0144	3075.782	3131.0042	3139.8563	3811.2498
CC(C#N)C(O)C#N	C[C@@H](C#N)[C@@H](O)C#N	
InChI=1S/C5H6N2O/c1-4(2-6)5(8)3-7/h4-5,8H,1H3	InChI=1S/C5H6N2O/c1-4(2-6)5(8)3-7/h4-5,8H,1H3/t4-,5-/m0/s1
