20
gdb 69377	3.49308	1.1726	1.053	2.3295	79.09	-0.2323	0.0846	0.317	1218.9821	0.170565	-403.083931	-403.075499	-403.074554	-403.117112	32.388	
C	 0.1782697556	 1.4621846294	-0.09316211	-0.491367
C	-0.0086842506	-0.024898229	-0.0608748174	 0.368732
C	-0.8613097411	-0.7315114715	 0.9162742333	-0.282435
N	 0.6028029502	-0.9105524202	 1.0189533724	-0.176985
C	 0.9553351561	-1.905150375	-0.0610744986	 0.032629
C	 0.4123742892	-0.9800157659	-1.1798042252	-0.343023
C	 2.4368625697	-2.1768317349	-0.0683249766	 0.071557
C	 3.1617200212	-2.5603667497	-1.2843079299	-0.188183
O	 3.2909629934	-1.246093374	-0.737149906	-0.226258
H	 1.1826780033	 1.7216629652	-0.4436293958	 0.133123
H	-0.5487580215	 1.930618352	-0.7674351661	 0.118681
H	 0.0429867917	 1.8926498154	 0.903350192	 0.126783
H	-1.272628764	-0.1522797171	 1.7378095358	 0.116959
H	-1.4754720936	-1.5772142767	 0.6090208578	 0.103814
H	 0.4288867567	-2.8594568408	 0.0736902904	 0.076161
H	-0.3808991201	-1.3651017477	-1.8264245683	 0.095203
H	 1.2219738736	-0.573858161	-1.78843108	 0.129591
H	 2.8243259568	-2.5162368799	 0.8930583966	 0.102935
H	 4.048137336	-3.1882702758	-1.2113960669	 0.11894
H	 2.6293787075	-2.6180411226	-2.2333004873	 0.113143
75.3999	110.1963	180.0328	208.4087	282.5343	324.6206	367.1709	419.3894	445.6264	582.5621	628.8366	723.9152	777.869	802.8682	857.9345	886.0893	911.7843	941.5924	959.4284	985.8551	1017.0485	1043.2549	1082.0339	1096.326	1112.4469	1123.5138	1149.0721	1161.9713	1164.7238	1171.2498	1240.9311	1258.2736	1291.7068	1313.8299	1371.4892	1379.0404	1420.9657	1428.5369	1477.9641	1483.1863	1493.9402	1513.6373	1529.2691	3016.0164	3027.6956	3058.8241	3083.122	3090.7449	3091.5175	3109.0644	3112.308	3126.7492	3169.3948	3187.2259
CC12CN1C(C2)C1CO1	C[C@]12CN1[C@@H](C2)[C@H]1CO1	
InChI=1S/C7H11NO/c1-7-2-5(6-3-9-6)8(7)4-7/h5-6H,2-4H2,1H3	InChI=1S/C7H11NO/c1-7-2-5(6-3-9-6)8(7)4-7/h5-6H,2-4H2,1H3/t5-,6+,7-,8?/m0/s1
