16
gdb 77017	2.3809	1.25021	0.9809	5.6552	74.16	-0.2743	-0.007	0.2673	1219.2379	0.12331	-396.918984	-396.909894	-396.908949	-396.953632	31.928	
C	-0.1563066517	 1.4617717321	 0.6304930152	-0.429129
C	 0.0885419354	 0.0207373527	 0.2466925938	 0.00291
C	 0.3994294978	-0.3953379277	-1.1712971598	-0.172343
C	 0.5340010883	 0.6297599071	-2.1759240142	 0.296545
N	 0.6624764291	 1.4571869372	-2.9744678823	-0.331789
N	 1.398917742	-0.5177818664	-0.0962580118	-0.095944
C	 2.5698782749	 0.3581276142	-0.1004597217	-0.303711
C	 3.7091123247	-0.3328475646	-0.7144661934	 0.291608
N	 4.6134167521	-0.8616987311	-1.1995209489	-0.290567
H	 0.1869842968	 1.6471908747	 1.6535297612	 0.137492
H	 0.3348856947	 2.1713621963	-0.0380242233	 0.149771
H	-1.2301379171	 1.6688972507	 0.6002741137	 0.145047
H	-0.5041644303	-0.6949159145	 0.8141771573	 0.121294
H	 0.0303622833	-1.3425545711	-1.5538535279	 0.1489
H	 2.4297184912	 1.3136596076	-0.6251364154	 0.165155
H	 2.8231400288	 0.5862955227	 0.9404391076	 0.164763
40.1987	119.7585	145.3658	158.1323	177.686	235.5937	344.9445	377.1134	389.3265	471.1283	531.6844	603.5973	622.0563	733.5651	821.5848	870.6318	939.219	979.5363	1004.4965	1045.0957	1052.5333	1117.9942	1158.1057	1175.6616	1271.7402	1325.7635	1360.9666	1380.6968	1408.8476	1423.0695	1468.3464	1491.0089	1498.5868	2348.6407	2372.7515	3012.6209	3046.7712	3077.8536	3109.3533	3118.3634	3141.1003	3155.4216
CC1C(C#N)N1CC#N	C[C@H]1[C@@H](C#N)N1CC#N	
InChI=1S/C6H7N3/c1-5-6(4-8)9(5)3-2-7/h5-6H,3H2,1H3	InChI=1S/C6H7N3/c1-5-6(4-8)9(5)3-2-7/h5-6H,3H2,1H3/t5-,6+,9?/m0/s1
