16
gdb 10939	4.5174	1.40118	1.29392	1.763	71.24	-0.2495	0.0517	0.3013	973.5505	0.129018	-346.533869	-346.526221	-346.525277	-346.5655	29.702	
O	 0.0179243277	 1.4470989653	-0.0563409036	-0.461025
C	 0.0117436287	 0.0669883382	 0.019604681	 0.415665
C	-0.2871921265	-0.8081959689	-1.164828665	-0.353241
C	-1.2000058445	-0.84739933	 0.041993861	-0.105489
C	-0.5456748621	-1.7214224091	 1.1365399879	-0.166918
C	 0.6828327679	-0.7282160604	 1.1442811303	-0.313712
C	-1.2719711011	-1.8026274945	 2.3879840226	 0.301098
C	-1.8793228425	-1.8615257175	 3.424278861	-0.441398
H	 0.7472850825	 1.718008331	-0.6245671326	 0.286117
H	-0.7003974331	-0.275381442	-2.0153855766	 0.115638
H	 0.3370188887	-1.663271221	-1.4187949114	 0.102888
H	-2.2547010104	-0.6132540352	-0.0165688734	 0.106057
H	-0.2933744338	-2.7294690603	 0.7870764118	 0.099425
H	 1.6674772505	-1.1616028728	 0.9402986173	 0.093565
H	 0.7156244995	-0.1598439063	 2.0745574738	 0.128271
H	-2.4141126814	-1.9178635265	 4.3396458357	 0.193061
96.0264	160.8184	242.1431	276.8217	360.0396	395.5507	429.9648	464.4714	518.6954	614.8895	625.1562	636.5339	740.4092	802.9862	853.9089	888.7112	933.8997	978.2619	1005.4654	1030.7321	1044.7934	1074.4649	1100.913	1129.5389	1204.6805	1218.2241	1243.0325	1278.6091	1303.4161	1349.4697	1401.522	1473.8322	1501.7593	2235.7395	3031.0345	3049.0836	3096.0813	3132.9644	3198.3533	3208.321	3505.076	3795.9737
OC12CC1C(C2)C#C	O[C@]12C[C@H]1[C@@H](C2)C#C	
InChI=1S/C7H8O/c1-2-5-3-7(8)4-6(5)7/h1,5-6,8H,3-4H2	InChI=1S/C7H8O/c1-2-5-3-7(8)4-6(5)7/h1,5-6,8H,3-4H2/t5-,6+,7-/m1/s1
