14
gdb 56376	2.05643	1.52002	1.27685	4.9934	66.17	-0.3029	-0.0246	0.2782	1049.1324	0.099751	-432.83788	-432.829018	-432.828074	-432.871641	31.288	
N	 0.0861797095	 1.5383544572	 0.1491130509	-0.512671
C	-0.0019706236	 0.0883275976	-0.0329741528	-0.107984
C	 0.5837838438	-0.3798593244	-1.3155659117	 0.299856
N	 1.0321414939	-0.6494541269	-2.3455029764	-0.332164
C	 0.7225421655	-0.5648461174	 1.0783292094	 0.325538
N	 1.2786711984	-1.0618739283	 1.9588867143	-0.308436
C	-1.4903714071	-0.3008626047	 0.0581962618	 0.107422
C	-2.3323193446	-0.4586580654	-1.1336583274	-0.202703
O	-1.8483774161	-1.5862688682	-0.3918296168	-0.214859
H	 1.056668463	 1.8347171212	 0.1910994841	 0.264897
H	-0.3452208092	 2.0030634725	-0.6447826339	 0.256527
H	-1.9290765707	 0.026497925	 0.9992839702	 0.137291
H	-3.4001313362	-0.2692116403	-1.0491041576	 0.138707
H	-1.9020475264	-0.3437791678	-2.125791964	 0.148578
74.6489	128.8844	151.7766	162.4594	231.9969	257.7737	292.9575	366.7268	431.2213	503.8609	519.3691	580.7976	650.9164	666.4216	843.5977	877.9015	908.6388	978.7682	987.0447	1090.9064	1117.2087	1161.7043	1173.8118	1181.7667	1289.4476	1313.4652	1410.7973	1523.878	1653.6308	2354.7094	2373.5027	3102.6058	3137.408	3197.8577	3499.9581	3587.0122
NC(C#N)(C#N)C1CO1	NC(C#N)(C#N)[C@H]1CO1	
InChI=1S/C5H5N3O/c6-2-5(8,3-7)4-1-9-4/h4H,1,8H2	InChI=1S/C5H5N3O/c6-2-5(8,3-7)4-1-9-4/h4H,1,8H2/t4-/m1/s1
