16
gdb 73945	3.08265	1.25762	0.90315	0.4449	76.02	-0.2539	-0.082	0.1719	1216.1703	0.123807	-437.956747	-437.947977	-437.947032	-437.990672	30.984	
C	 0.0613244746	 1.5272674356	 0.0265418918	-0.496211
C	-0.0380248361	 0.0427432311	 0.0239820045	 0.077781
C	-1.0954000116	-0.7899696017	-0.0518328891	 0.108728
C	-0.6406333996	-2.229879168	-0.0133781456	-0.252732
N	 0.7933877354	-2.0891751458	 0.0926650609	-0.359038
C	 1.2171809841	-0.7849137561	 0.1198830117	 0.408652
O	 2.3572821543	-0.3779448159	 0.2032056036	-0.378604
C	-2.5154542477	-0.455160221	-0.158374729	 0.085139
O	-3.3914314139	-1.2917758089	-0.2206864789	-0.268589
H	 0.6959688097	 1.8569511433	-0.8034645632	 0.159195
H	-0.9076660059	 2.0228511497	-0.0478012745	 0.131458
H	 0.5651436947	 1.8627402058	 0.9397820618	 0.15918
H	-1.0767781128	-2.7632254814	 0.8412204233	 0.142127
H	-0.9460076245	-2.7689501822	-0.9195615428	 0.142127
H	 1.4397291745	-2.8584463678	 0.143141914	 0.26083
H	-2.7553109951	 0.6278079934	-0.1797251385	 0.079957
79.0339	94.3837	153.849	183.6868	197.1252	261.5888	296.2485	410.6674	449.0825	492.9953	546.1088	635.2673	725.2603	763.8466	775.5093	880.9606	976.7752	1042.5598	1058.443	1059.3103	1093.9759	1174.4648	1178.4071	1191.0105	1331.3358	1375.8344	1413.4616	1418.9019	1431.6769	1465.846	1472.439	1497.66	1696.7044	1773.228	1818.1908	2917.8184	3021.9094	3041.3131	3048.1152	3091.9494	3140.0541	3668.0041
CC1=C(CNC1=O)C=O	CC1=C(CNC1=O)C=O	
InChI=1S/C6H7NO2/c1-4-5(3-8)2-7-6(4)9/h3H,2H2,1H3,(H,7,9)	InChI=1S/C6H7NO2/c1-4-5(3-8)2-7-6(4)9/h3H,2H2,1H3,(H,7,9)
