16
gdb 17549	4.5569	1.76193	1.60842	0.9372	63.14	-0.2645	0.0826	0.347	824.9988	0.131218	-383.712015	-383.705559	-383.704615	-383.742662	25.424	
C	-0.5821210523	 1.3114006923	 0.0144447943	-0.240428
O	 0.843971386	 1.1648734047	-0.0003227805	-0.287224
C	 0.0445741782	-0.0136353126	 0.0013550138	 0.470203
C	 0.0985352126	-0.9161623566	 1.2402049586	-0.337797
C	-0.4004505991	-2.2504430394	 0.7296129	 0.048778
O	-1.6363175296	-2.1570443742	 0.0066291265	-0.259275
C	-0.4148916388	-2.2427378663	-0.7414172895	 0.048778
C	 0.0741113889	-0.9031310044	-1.2477021628	-0.337796
H	-1.0015174644	 1.7028817651	 0.9406189032	 0.113707
H	-1.0195800253	 1.7125139124	-0.8991672814	 0.113707
H	 1.1355029642	-1.011906243	 1.5852109164	 0.118723
H	-0.4963915029	-0.5254796161	 2.0705459438	 0.116921
H	-0.267485145	-3.1573268315	 1.3134003743	 0.098029
H	-0.2935070027	-3.1434440286	-1.337168806	 0.098029
H	-0.5369604633	-0.5038323269	-2.0620660464	 0.116921
H	 1.1040968835	-0.995148915	-1.6139818042	 0.118723
82.5369	288.1135	345.6826	370.3794	375.2481	409.7068	552.5733	667.7792	786.0809	815.0616	846.1654	859.2883	912.8882	916.6718	942.4227	948.4215	983.8154	1034.2489	1093.8874	1100.574	1130.1699	1162.03	1176.1689	1211.7261	1219.4394	1264.1104	1295.6931	1299.212	1343.9165	1420.6365	1444.0236	1470.1498	1480.5299	1533.7942	3038.9189	3041.6845	3078.0609	3092.492	3093.6993	3146.2337	3158.3479	3165.4044
C1OC11CC2OC2C1	C1O[C@]21C[C@H]1O[C@H]1C2	
InChI=1S/C6H8O2/c1-4-5(8-4)2-6(1)3-7-6/h4-5H,1-3H2	InChI=1S/C6H8O2/c1-4-5(8-4)2-6(1)3-7-6/h4-5H,1-3H2/t4-,5+,6-
