21
gdb 57793	4.56677	0.61575	0.56623	1.8746	90.23	-0.2447	0.0362	0.2809	2005.146	0.181372	-387.053089	-387.042915	-387.041971	-387.090908	36.552	
C	 0.0054952221	 1.7009387396	-0.0733894529	-0.381093
C	 0.0841668906	 0.1724536883	-0.2010315782	-0.016003
O	 0.8138854974	-0.2154154435	-1.3654975994	-0.41578
C	 0.6304889102	-0.4435417473	 1.0126278382	 0.118655
C	 1.1287388745	-0.9276342921	 1.9991932178	-0.009705
C	 1.6830546472	-1.5394505801	 3.1893911061	-0.14116
C	 0.8567109135	-1.50533538	 4.5182595292	-0.213045
C	 1.3521902998	-2.9444814478	 4.8168317821	-0.216612
C	 1.7029145406	-3.0991020995	 3.3138541819	-0.212888
H	 1.0009597179	 2.121068825	 0.1031101435	 0.114741
H	-0.3963984237	 2.1233900356	-0.9981668554	 0.122732
H	-0.6382403147	 1.9898297233	 0.7626650836	 0.1223
H	-0.9271536119	-0.2155447023	-0.3750778132	 0.113494
H	 1.7469643416	-0.0621193774	-1.18001288	 0.280643
H	 2.6887194658	-1.1471374852	 3.3793171711	 0.09682
H	 1.0951616141	-0.7134518427	 5.2314206066	 0.102342
H	-0.2145828471	-1.4801175241	 4.3043284418	 0.112706
H	 2.2480872878	-2.9430212828	 5.4445411637	 0.103904
H	 0.6328452752	-3.6471568361	 5.2418532343	 0.10139
H	 0.8802691342	-3.540617936	 2.7462127473	 0.114283
H	 2.6317259252	-3.6071404146	 3.0460141718	 0.102275
6.6909	75.4889	80.7133	153.6159	182.2591	220.6526	253.9913	283.0412	378.8025	454.3351	482.1401	527.7979	568.0689	606.3048	720.3853	787.3016	815.1421	895.7766	916.3612	935.1592	940.6063	983.6256	1021.9117	1028.991	1080.8114	1099.5243	1122.0984	1190.7845	1202.8663	1235.3882	1246.1226	1254.5875	1275.4778	1279.5157	1280.8364	1339.7741	1360.4496	1397.6489	1417.2383	1477.9478	1487.5372	1488.1237	1491.0194	1508.9952	2349.6219	3032.8215	3036.2159	3038.5095	3060.2693	3065.2779	3069.7082	3107.6078	3113.3606	3121.6532	3125.2327	3131.3543	3805.7516
CC(O)C#CC1CCC1	C[C@@H](O)C#CC1CCC1	
InChI=1S/C8H12O/c1-7(9)5-6-8-3-2-4-8/h7-9H,2-4H2,1H3	InChI=1S/C8H12O/c1-7(9)5-6-8-3-2-4-8/h7-9H,2-4H2,1H3/t7-/m1/s1
