16
gdb 128276	5.02122	1.07195	0.88987	2.3435	79.42	-0.2003	-0.052	0.1483	1271.1168	0.125784	-430.267227	-430.258715	-430.257771	-430.300478	31.153	
C	-0.007997351	 1.4385992792	 0.0684124208	-0.309934
N	-0.0625714702	 0.0008296073	-0.0944651994	-0.345542
C	-1.2307506919	-0.6998130454	-0.0293897039	 0.479517
N	-1.1205091344	-2.0505250564	 0.0067292862	-0.300822
C	-2.2577099977	-2.7042708169	 0.0079459881	-0.04878
C	-3.4943773523	-2.0246625452	-0.0111272375	 0.359792
N	-4.7094060011	-2.6969372214	-0.087595509	-0.57425
N	-3.5217041653	-0.6966768933	-0.0035367757	-0.249967
N	-2.3790497174	-0.0142190294	-0.0173733741	-0.277734
H	 1.0191630876	 1.7689953987	-0.100711892	 0.119929
H	-0.6604111766	 1.9245721337	-0.6610070257	 0.152467
H	-0.328177629	 1.7650393664	 1.0672473057	 0.12556
H	 0.761729812	-0.5436320074	 0.0968277868	 0.250526
H	-2.2151395567	-3.79274953	 0.0322861102	 0.113289
H	-4.7552870175	-3.5623479254	 0.4314542818	 0.249887
H	-5.4899595485	-2.0869750746	 0.1188084378	 0.256062
82.2731	111.1549	148.2882	197.5569	292.4872	356.3381	375.8071	415.438	422.7823	484.7611	556.4375	587.1411	666.406	683.5399	807.7078	828.3364	867.6582	960.9318	1046.5531	1083.0987	1112.6256	1157.3686	1168.3976	1183.096	1299.7713	1373.5925	1389.9734	1445.9596	1475.2686	1479.3226	1516.1754	1552.5986	1584.2629	1628.1037	1648.9137	3011.956	3091.1668	3130.2281	3133.3149	3547.614	3651.9369	3656.6666
CNC1=NC=C(N)N=N1	CNc1ncc(N)nn1	
InChI=1S/C4H7N5/c1-6-4-7-2-3(5)8-9-4/h2H,1H3,(H2,5,8)(H,6,7,9)	InChI=1S/C4H7N5/c1-6-4-7-2-3(5)8-9-4/h2H,1H3,(H2,5,8)(H,6,7,9)
