21
gdb 57757	3.04639	0.71106	0.66931	1.9717	84.8	-0.2526	0.0376	0.2902	1809.2074	0.177802	-424.199145	-424.187615	-424.186671	-424.236761	41.405	
C	-0.9226910006	 0.8824952427	 0.1097394969	-0.382523
C	 0.2690352155	-0.037587348	-0.1928017205	-0.019488
O	 1.2144563764	 0.5951967611	-1.0537187056	-0.414633
C	 0.8964622671	-0.5245593183	 1.0405584441	 0.025782
C	 1.4244092249	-0.8650913948	 2.0682269098	 0.131206
C	 2.0841047385	-1.338793061	 3.2907263951	 0.150004
C	 1.4203575662	-2.6450632953	 3.7677744435	-0.402879
C	 3.5873719826	-1.5484480915	 3.025494018	-0.402152
O	 1.9009802344	-0.3104630261	 4.2744011714	-0.455051
H	-0.5968985725	 1.7502336479	 0.6921083113	 0.120719
H	-1.3598165947	 1.2309238425	-0.82967777	 0.123478
H	-1.6862919086	 0.3539892862	 0.6876704012	 0.124932
H	-0.0900884899	-0.89780659	-0.7710830339	 0.115946
H	 1.6688734244	 1.2667337751	-0.5327404024	 0.282485
H	 1.5041500226	-3.4300382054	 3.0112708146	 0.126323
H	 1.9100610306	-2.9981387012	 4.6830315667	 0.10324
H	 0.3634514872	-2.4707943389	 3.9804784684	 0.133324
H	 4.0480552253	-0.6057343098	 2.72251857	 0.13171
H	 4.080543711	-1.9036121485	 3.9380683743	 0.102847
H	 3.750103359	-2.289549138	 2.2383608378	 0.127806
H	 2.3341714304	-0.6132199185	 5.0806377295	 0.276924
20.0696	77.3117	87.1991	182.2104	196.9889	236.2297	251.1216	255.6177	276.0717	292.9627	328.0733	350.1104	395.6165	415.5095	510.6015	524.659	585.4643	593.1025	664.6939	820.4227	893.615	918.1066	955.6361	991.2584	1016.746	1046.8594	1091.1998	1129.8293	1174.2173	1181.907	1193.1655	1283.4744	1337.1472	1387.5376	1389.8378	1399.3079	1410.1704	1418.4879	1476.0644	1479.441	1487.4747	1491.4025	1492.3413	1508.4126	2360.084	3029.0335	3034.4551	3035.7806	3040.6247	3103.0631	3109.5945	3116.2414	3127.0014	3133.9738	3136.2642	3798.3297	3803.9365
CC(O)C#CC(C)(C)O	C[C@@H](O)C#CC(C)(C)O	
InChI=1S/C7H12O2/c1-6(8)4-5-7(2,3)9/h6,8-9H,1-3H3	InChI=1S/C7H12O2/c1-6(8)4-5-7(2,3)9/h6,8-9H,1-3H3/t6-/m1/s1
