17
gdb 86174	2.7799	1.18935	0.8904	1.2091	80.5	-0.2422	-0.0341	0.2081	1273.4517	0.134492	-421.800335	-421.791357	-421.790412	-421.834025	33.9	
O	 0.0707620505	 1.4050761894	 0.176375191	-0.429994
C	 0.0566321928	-0.0078038998	 0.0399018219	 0.116949
C	-1.3528745258	-0.6449289192	-0.0278098461	-0.279596
C	-1.2280218348	-1.8527531715	-0.9860800686	 0.031645
O	-2.3745243603	-2.1176548171	-1.7684059423	-0.417071
C	 0.0314114416	-1.5187001487	-1.7892785482	 0.10488
C	 0.7175564897	-0.5172610417	-1.2166600917	-0.241848
C	 0.3759987367	-2.2378090168	-2.9579906553	 0.242707
C	 0.6380584944	-2.8661762207	-3.9521091288	-0.409278
H	-0.3305629431	 1.7777699403	-0.6167681583	 0.274825
H	 0.6000018562	-0.3637135787	 0.9248979816	 0.10613
H	-1.7577157106	-0.9110477174	 0.9504861688	 0.113113
H	-2.0398494109	 0.0819020359	-0.4791974682	 0.093763
H	-1.0649064012	-2.7806029324	-0.4248602681	 0.109497
H	-2.4969519492	-1.3799470412	-2.3763317033	 0.278186
H	 1.6620950427	-0.1194569647	-1.5695760504	 0.110203
H	 0.8756207012	-3.4184142358	-4.8274280339	 0.195889
82.6259	109.2778	130.6495	237.1018	289.3234	311.7901	353.9816	391.4617	428.3079	482.1227	522.5328	560.4046	606.0828	621.4092	632.7383	672.8343	804.506	879.6075	898.586	962.5491	1003.3268	1060.0072	1078.8187	1107.3723	1139.869	1193.9799	1238.7646	1259.6791	1272.7002	1308.8558	1318.9002	1327.4923	1422.2564	1432.4738	1482.4855	1665.3052	2222.5326	3024.7639	3036.3969	3043.7511	3115.4701	3204.3432	3502.733	3795.7689	3799.248
OC1CC(O)C(=C1)C#C	O[C@H]1C[C@@H](O)C(=C1)C#C	
InChI=1S/C7H8O2/c1-2-5-3-6(8)4-7(5)9/h1,3,6-9H,4H2	InChI=1S/C7H8O2/c1-2-5-3-6(8)4-7(5)9/h1,3,6-9H,4H2/t6-,7-/m1/s1
