12
gdb 10374	2.41903	2.34654	1.45179	4.9442	59.23	-0.3116	-0.0498	0.2618	843.7302	0.083486	-377.50751	-377.500182	-377.499238	-377.539782	25.225	
N	-0.226089558	-1.2467230658	-0.1387124904	-0.311722
C	-0.1352178203	-0.0971512346	-0.0790281759	 0.278329
C	-0.0082504038	 1.3629596623	 0.0542782895	 0.154556
C	-0.2015886431	 1.9121287255	 1.5065549102	-0.324069
C	 1.2761932923	 2.3302016468	 1.38707979	-0.071627
O	 1.3620317971	 1.7905304767	 0.0383464772	-0.28241
C	-0.8121641924	 2.0387742953	-0.9766380937	 0.278349
N	-1.4464017606	 2.6047339298	-1.758155748	-0.311734
H	-0.926118591	 2.7214987241	 1.576823862	 0.157702
H	-0.4251696064	 1.14067404	 2.2412876031	 0.157706
H	 1.4696879253	 3.4062185591	 1.3955232461	 0.13746
H	 1.9714877909	 1.8226556908	 2.0610874797	 0.13746
60.6667	130.2815	188.6919	192.8155	262.2709	483.6685	508.11	546.3995	590.3129	597.9356	784.7192	866.1096	934.4364	966.5484	995.9959	1026.6672	1114.9844	1152.8491	1195.1236	1236.8236	1264.7634	1347.2651	1483.6124	1528.4208	2362.4793	2365.2918	3058.8613	3110.8596	3111.622	3177.5442
N#CC1(CCO1)C#N	N#CC1(CCO1)C#N	
InChI=1S/C5H4N2O/c6-3-5(4-7)1-2-8-5/h1-2H2	InChI=1S/C5H4N2O/c6-3-5(4-7)1-2-8-5/h1-2H2
