18
gdb 54984	3.54097	1.13121	0.97928	3.8856	73.74	-0.2474	0.001	0.2485	1238.1879	0.145892	-439.059892	-439.050905	-439.049961	-439.094375	31.966	
C	 0.0547501651	 1.4224480506	-0.096242636	-0.475076
C	-0.0667587063	-0.0872775364	-0.0291994135	 0.364126
O	 0.2157671825	-0.7422387646	 0.9494448273	-0.328588
N	-0.6085629113	-0.6726635546	-1.1759777007	-0.121568
C	-0.0856953264	-0.585877582	-2.5325848114	-0.321766
C	-0.1518714387	-1.8811846864	-1.7881618902	 0.276478
C	 0.9820396082	-2.8141154758	-1.3616299776	-0.146217
O	 0.1831528142	-3.9593120197	-1.7382236147	-0.274525
C	-0.9666306318	-3.1433365354	-2.0499676226	-0.139526
H	 0.9316542863	 1.7022732678	-0.6912306634	 0.141127
H	-0.8221025351	 1.8679835049	-0.5728621171	 0.143574
H	 0.1799197412	 1.8149686833	 0.9127744995	 0.150899
H	-0.8096537864	-0.3631287409	-3.3130767724	 0.129261
H	 0.8969053217	-0.1388209488	-2.6757596086	 0.127798
H	 1.9099681499	-2.748358873	-1.9425127268	 0.105044
H	 1.2049103824	-2.7929453445	-0.2905041903	 0.142473
H	-1.7947118558	-3.3003249202	-1.3477292006	 0.118865
H	-1.3196699999	-3.2973617443	-3.076951241	 0.107622
73.4387	93.0296	95.5053	138.7189	163.2045	299.6113	336.0254	374.8818	430.8364	521.8174	603.1036	671.5597	694.96	864.5545	888.6378	908.3239	971.0449	975.7195	1010.0161	1028.4817	1051.6541	1084.7905	1107.1982	1124.2496	1136.7223	1149.9909	1175.038	1208.1624	1277.6904	1305.0445	1350.4447	1388.242	1459.8097	1468.9083	1479.5972	1502.5354	1521.7191	1529.0821	1789.3973	3014.2372	3028.2148	3045.3367	3063.3079	3090.2691	3090.852	3112.5958	3162.1978	3178.463
CC(=O)N1CC11COC1	CC(=O)N1CC21COC2	
InChI=1S/C6H9NO2/c1-5(8)7-2-6(7)3-9-4-6/h2-4H2,1H3	InChI=1S/C6H9NO2/c1-5(8)7-2-6(7)3-9-4-6/h2-4H2,1H3
