21
gdb 59842	4.69526	0.52243	0.49391	2.8776	89.69	-0.2453	-0.0267	0.2186	2242.7795	0.178584	-387.08521	-387.07404	-387.073096	-387.124629	38.37	
C	 0.1814532187	 1.5200316422	 0.1788625179	-0.391072
C	 0.0667771914	-0.0083886603	 0.1481110639	 0.048981
C	 0.2782756623	-0.6129644797	 1.5402870066	-0.379762
C	-1.2997793912	-0.4253791841	-0.450623576	-0.346951
C	-1.4454172531	-1.8618706412	-0.6589774715	 0.049348
C	-1.5388349377	-3.047874408	-0.850211049	 0.077926
C	-1.6969235638	-4.4842841851	-1.0276091432	-0.415157
C	-2.2914820518	-5.1605340886	 0.2096598723	 0.172325
O	-3.0773269242	-6.0669646716	 0.1621741541	-0.231607
H	 1.1537560857	 1.8321051808	 0.5727741272	 0.113705
H	 0.0699998525	 1.9523847925	-0.8212097046	 0.111825
H	-0.591908866	 1.9588142032	 0.8208737618	 0.114055
H	 0.845158518	-0.4008063896	-0.5190525447	 0.084239
H	 0.1926130483	-1.7029130068	 1.5156856423	 0.121422
H	 1.2677243717	-0.3569840097	 1.9322658243	 0.112079
H	-0.4683239004	-0.2324481842	 2.2481212813	 0.111006
H	-2.10276301	-0.0668915136	 0.2090216611	 0.124686
H	-1.4444184604	 0.090559691	-1.4088624833	 0.125833
H	-2.3259518399	-4.7346929351	-1.8883003055	 0.153
H	-0.7176373074	-4.9569123461	-1.2026149802	 0.152635
H	-1.9224802125	-4.7489566358	 1.1744974552	 0.091483
8.3383	44.5779	64.8535	92.2407	133.636	225.6381	246.7402	263.0709	297.2684	330.4091	363.0308	413.7715	459.9915	473.4309	533.47	721.3812	810.6578	829.8448	883.2021	931.6655	952.1877	969.3413	1034.5525	1042.9297	1126.0496	1139.6132	1161.9266	1191.4914	1212.3938	1256.9579	1290.6004	1310.369	1367.3304	1369.0747	1401.1561	1414.674	1421.5702	1441.3103	1466.9415	1488.2228	1493.2906	1503.5009	1510.2995	1840.6326	2364.4196	2896.8396	2996.6086	3005.2055	3019.642	3024.0103	3030.0264	3043.3498	3076.073	3089.0326	3095.2925	3102.1641	3112.9987
CC(C)CC#CCC=O	CC(C)CC#CCC=O	
InChI=1S/C8H12O/c1-8(2)6-4-3-5-7-9/h7-8H,5-6H2,1-2H3	InChI=1S/C8H12O/c1-8(2)6-4-3-5-7-9/h7-8H,5-6H2,1-2H3
