17
gdb 24164	5.40115	0.97079	0.87891	2.7226	75.23	-0.1954	0.0327	0.2281	1315.0462	0.137355	-418.017391	-418.009517	-418.008573	-418.050948	29.613	
C	-0.3564359313	 1.1247790163	-0.1242861478	-0.279391
C	 1.1242461723	 1.0511315945	 0.2037497767	-0.298742
C	 0.3413801422	-0.1992556826	-0.0232825843	 0.158875
O	 0.1305160943	-0.9851596411	 1.1244271471	-0.28774
C	-0.8862378896	-1.8748207488	 1.0603811813	 0.374702
C	-1.332907824	-2.636385826	 2.1128948963	-0.223678
N	-2.3461076205	-3.4058725949	 1.566359293	-0.234194
C	-2.4537491115	-3.0744158126	 0.2569088709	 0.016254
N	-1.5801516142	-2.1468776131	-0.0840241975	-0.334538
H	-1.0276238139	 1.3871661829	 0.6853461068	 0.119525
H	-0.6648909815	 1.4706776207	-1.1044332318	 0.11506
H	 1.8473347905	 1.3499420769	-0.5466854974	 0.113385
H	 1.4149091876	 1.2635375934	 1.2262539204	 0.122429
H	 0.4956801974	-0.7777631984	-0.9277104394	 0.110128
H	-1.0368177617	-2.7035156537	 3.14419157	 0.129419
H	-2.9030100639	-4.0824368629	 2.0596042811	 0.267305
H	-3.1774901623	-3.5296942807	-0.4015808054	 0.131201
44.6051	59.3203	154.9589	296.934	355.3797	392.6365	479.8431	495.6576	647.6943	662.5258	713.5982	733.7658	760.4016	791.6979	825.187	845.9457	944.6628	966.3047	986.031	1023.2101	1054.6463	1070.7503	1085.2119	1118.2403	1149.1023	1184.6248	1190.3469	1235.5734	1252.2841	1326.2126	1354.4343	1392.4249	1454.3722	1480.1185	1496.4932	1519.6469	1618.0103	3138.2505	3141.412	3167.7073	3221.5375	3235.7013	3255.9998	3294.8747	3673.7374
C1CC1OC1=CNC=N1	C1CC1Oc1c[nH]cn1	
InChI=1S/C6H8N2O/c1-2-5(1)9-6-3-7-4-8-6/h3-5H,1-2H2,(H,7,8)	InChI=1S/C6H8N2O/c1-2-5(1)9-6-3-7-4-8-6/h3-5H,1-2H2,(H,7,8)
