20
gdb 118898	3.12434	0.98973	0.93487	2.5648	74.83	-0.2464	0.0265	0.2729	1343.811	0.170396	-440.300034	-440.290558	-440.289613	-440.335042	34.432	
C	 0.013932205	 1.6872157697	-0.1016944914	-0.436808
C	 0.0255978128	 0.1608936656	-0.0561139791	 0.348069
C	-1.3670058353	-0.4737139936	-0.0328447912	-0.211764
C	-2.2581337814	-0.0598997565	 1.1337232593	-0.089778
O	-3.4542256015	-0.8197565318	 1.0292198582	-0.421054
C	 0.934687554	-0.4629251105	-1.1609869079	-0.228487
N	 2.0534210524	-1.1000490725	-0.4498341775	-0.264858
C	 1.8237406837	-0.9138937145	 0.7817507009	 0.113057
O	 0.7245066652	-0.2342051385	 1.1768427859	-0.255582
H	 1.0370639663	 2.070581174	-0.1539396435	 0.127467
H	-0.5274333749	 2.0351294868	-0.9876003426	 0.122945
H	-0.4626877837	 2.1145175145	 0.783974585	 0.129105
H	-1.8763715258	-0.2360326698	-0.9747584316	 0.109931
H	-1.254244199	-1.5632474766	-0.001991018	 0.116975
H	-1.7352171709	-0.2573293735	 2.0804973111	 0.10458
H	-2.4743608203	 1.0186039563	 1.0913141948	 0.085458
H	-4.0175843626	-0.5953645657	 1.7753590008	 0.286566
H	 0.4011129286	-1.2111777138	-1.7577010398	 0.115624
H	 1.3163410524	 0.294989872	-1.8539238438	 0.112206
H	 2.4516921553	-1.2618300016	 1.5952538903	 0.136348
47.7038	86.5291	107.3163	172.8928	237.6201	260.2505	322.5584	330.6667	339.0551	416.626	459.5265	542.9415	689.5775	778.2522	793.1101	858.8348	934.2737	938.8112	961.8526	976.5488	989.7056	1008.0729	1045.3217	1071.8402	1121.2046	1177.1352	1183.7623	1192.289	1237.5401	1259.6011	1290.6414	1320.7284	1326.8625	1342.6674	1357.904	1411.8951	1460.6338	1477.4263	1488.3729	1496.613	1503.4635	1531.255	1709.3151	2979.4499	3017.2202	3032.8242	3036.4849	3043.273	3068.2996	3081.7067	3112.5899	3123.7861	3208.5412	3831.9338
CC1(CCO)CN=CO1	C[C@@]1(CCO)CN=CO1	
InChI=1S/C6H11NO2/c1-6(2-3-8)4-7-5-9-6/h5,8H,2-4H2,1H3	InChI=1S/C6H11NO2/c1-6(2-3-8)4-7-5-9-6/h5,8H,2-4H2,1H3/t6-/m1/s1
