19
gdb 67885	2.78514	1.99416	1.36093	1.4726	79.97	-0.2311	0.0144	0.2455	963.6208	0.161434	-385.853493	-385.846542	-385.845598	-385.884224	29.699	
O	 0.0216555097	 1.4197214035	 0.0839920978	-0.506153
C	 0.0344772919	 0.0131779496	-0.0033169541	 0.451656
C	 1.0286340967	-0.6061289341	 0.9404656439	-0.153697
C	 1.1289001308	-1.9295245034	 1.0254645292	-0.073897
C	 0.2235900017	-2.7669786044	 0.1667484196	-0.3127
C	-0.684757576	-1.8895964341	-0.6899394194	 0.007988
C	-1.3812647684	-0.6353419351	-0.0574462306	-0.092169
C	-1.5284112519	-0.0814407946	-1.5027541598	-0.254502
C	-0.0844123551	-0.6479916884	-1.4280069403	-0.126071
H	 0.9171881649	 1.7348042806	-0.0769757275	 0.276814
H	 1.628400035	 0.066531093	 1.5472843172	 0.082514
H	 1.8294571033	-2.4166135027	 1.6974748955	 0.089613
H	 0.8140727212	-3.4341434652	-0.4781699592	 0.108445
H	-0.3839617317	-3.4354284688	 0.7940662522	 0.109975
H	-1.3539694014	-2.4880574685	-1.3145245382	 0.06641
H	-2.1195810797	-0.6263160738	 0.7464210297	 0.06873
H	-2.2208193626	-0.6213673085	-2.154138941	 0.084166
H	-1.6259206543	 0.9978789301	-1.6015993396	 0.111435
H	 0.6795046561	-0.6548069852	-2.2089774753	 0.061443
196.3217	266.5291	289.7925	366.9491	382.69	434.5889	486.4981	552.0846	568.6633	668.4018	691.6392	775.6989	794.6409	823.1584	899.7781	910.9012	917.606	947.8954	971.7666	988.3652	1008.2368	1040.7379	1056.6664	1091.0007	1099.1491	1116.8691	1142.7046	1182.9501	1189.3289	1198.8294	1209.9668	1243.1008	1249.74	1258.7642	1338.5069	1360.1585	1387.2013	1419.9057	1468.8892	1511.298	1716.3982	2998.962	3019.4458	3064.489	3066.2744	3084.8798	3099.2585	3156.0928	3158.6813	3180.4295	3808.5206
OC12C=CCC3C1CC23	O[C@@]12C=CC[C@H]3[C@@H]1C[C@@H]23	
InChI=1S/C8H10O/c9-8-3-1-2-5-6(8)4-7(5)8/h1,3,5-7,9H,2,4H2	InChI=1S/C8H10O/c9-8-3-1-2-5-6(8)4-7(5)8/h1,3,5-7,9H,2,4H2/t5-,6-,7+,8-
