23
gdb 61761	2.81798	0.88798	0.8163	3.4535	82.54	-0.2483	-0.0189	0.2294	1519.4681	0.201149	-425.44463	-425.433309	-425.432365	-425.481122	41.416	
C	-0.0882321591	 1.5880793304	 0.0905831002	-0.414214
C	 0.0945440236	 0.0642076401	 0.0032991067	 0.021495
C	 0.7592402903	-0.3234015196	-1.3327778104	-0.297463
C	-0.1129019512	 0.0237123541	-2.5194730994	 0.165531
O	 0.2513414341	 0.6184798324	-3.5002586211	-0.244683
C	 0.8118082702	-0.525136291	 1.2501583468	 0.347425
C	 0.8591809761	-2.0610404376	 1.2006384198	-0.422704
C	 2.222720838	 0.0438115699	 1.4629734966	-0.42539
O	-0.0344531824	-0.13261573	 2.3412549848	-0.467947
H	 0.8626436045	 2.115411395	-0.0398005157	 0.117467
H	-0.7600965787	 1.9418085362	-0.6982885859	 0.117808
H	-0.5125877498	 1.8691994736	 1.0550957084	 0.139803
H	-0.9061791483	-0.3899494772	 0.021059291	 0.083731
H	 1.730505831	 0.1614025312	-1.4689818198	 0.120015
H	 0.913217544	-1.409966945	-1.3794238954	 0.11788
H	-1.1654881667	-0.3382825342	-2.4282393117	 0.070532
H	 1.5462136697	-2.4363170002	 0.4369369083	 0.118069
H	 1.2072570448	-2.4510437716	 2.1640663877	 0.103691
H	-0.1370101578	-2.4724147178	 1.0122009727	 0.120839
H	 2.193456323	 1.1270964898	 1.5986623794	 0.128599
H	 2.6715095792	-0.3963546779	 2.3612769112	 0.104107
H	 2.8864128405	-0.1854185929	 0.623777196	 0.120402
H	 0.3784728451	-0.4345987878	 3.1569539896	 0.275006
62.1825	71.3268	76.8462	182.877	218.5728	243.4756	257.8925	266.2273	281.685	294.0287	335.1402	353.2457	405.5529	439.5839	472.3455	535.2347	557.5998	723.7022	791.3757	878.6763	917.023	928.1041	954.688	972.5211	1001.4215	1018.4693	1081.1928	1102.541	1130.1985	1169.2868	1197.9254	1217.4678	1240.5423	1287.6744	1358.5218	1364.8361	1375.1211	1400.5489	1409.0715	1419.4319	1428.0657	1461.48	1478.0782	1489.2057	1495.3437	1505.2979	1509.4456	1515.2607	1836.2514	2841.8803	3009.7217	3025.6904	3029.9486	3036.4388	3042.4613	3091.0386	3096.0413	3099.2739	3101.5069	3118.0347	3133.3604	3145.7051	3810.5615
CC(CC=O)C(C)(C)O	C[C@@H](CC=O)C(C)(C)O	
InChI=1S/C7H14O2/c1-6(4-5-8)7(2,3)9/h5-6,9H,4H2,1-3H3	InChI=1S/C7H14O2/c1-6(4-5-8)7(2,3)9/h5-6,9H,4H2,1-3H3/t6-/m0/s1
