21
gdb 40355	3.65205	1.27987	1.18408	1.413	81.92	-0.2324	0.0894	0.3218	1139.5675	0.184382	-387.057413	-387.049783	-387.048838	-387.089764	31.13	
C	-0.1900706508	 1.3175842452	-0.3246603207	-0.276751
C	 1.2012149505	 1.0423132967	 0.1845530927	-0.261086
C	 0.2007834637	-0.081490155	 0.081395234	-0.103907
C	-0.3665169019	-0.7092793188	 1.3066471035	 0.474366
C	-0.7424228009	 0.0294101774	 2.6239613429	-0.280657
C	-1.4321792133	-1.3415603078	 2.9093475179	-0.079341
C	-1.7683712284	-1.3792035208	 1.3878223019	-0.270311
C	-0.2055008225	-2.2592723327	 2.9325400748	-0.073449
O	 0.508292276	-1.7628486629	 1.7811619692	-0.321532
H	-0.865894173	 1.8672190178	 0.321558742	 0.109571
H	-0.3257643281	 1.5193249127	-1.3812620253	 0.111116
H	 2.0252785216	 1.0581853187	-0.5195770095	 0.112675
H	 1.4565258581	 1.3986332051	 1.1763435031	 0.115322
H	 0.3598895536	-0.7916542159	-0.7254067779	 0.089249
H	 0.0798866382	 0.3405224081	 3.2734096373	 0.097515
H	-1.4612146736	 0.8383149985	 2.4836543304	 0.100839
H	-2.1835041718	-1.4717870825	 3.6870642025	 0.07037
H	-2.5812474063	-0.7047650597	 1.1137911208	 0.099551
H	-1.8840278058	-2.3526216945	 0.9040264118	 0.094853
H	 0.4080280626	-2.1475468736	 3.8349873328	 0.095718
H	-0.451385598	-3.320019426	 2.799336396	 0.095889
55.329	168.1263	185.2843	322.2722	382.2862	415.4127	491.4265	527.8978	590.682	658.2607	780.8428	823.8298	836.2226	856.1862	879.5977	888.4034	920.3343	925.899	961.1162	963.7298	982.1673	990.8349	1030.2137	1060.6383	1074.2009	1080.1513	1096.0369	1115.9888	1134.1675	1149.518	1166.3779	1188.5048	1197.8336	1208.1771	1225.8788	1249.3838	1294.3789	1318.9773	1361.5552	1434.876	1469.7929	1473.0092	1504.8781	1509.4411	1533.993	3015.9295	3054.0703	3061.1856	3066.97	3126.0349	3129.5876	3133.6344	3137.1983	3139.3368	3145.9174	3212.2682	3228.0449
C1CC1C12CC(C1)CO2	C1CC1[C@@]12C[C@@H](C1)CO2	
InChI=1S/C8H12O/c1-2-7(1)8-3-6(4-8)5-9-8/h6-7H,1-5H2	InChI=1S/C8H12O/c1-2-7(1)8-3-6(4-8)5-9-8/h6-7H,1-5H2/t6-,8+
