20
gdb 115923	3.71664	1.17385	0.98397	2.8537	75.63	-0.2432	0.0703	0.3135	1240.8104	0.172296	-440.256338	-440.247966	-440.247022	-440.289489	31.817	
C	 0.0609863889	 1.3657855055	-0.0705360743	-0.241179
O	 0.0971012809	-0.0503260255	-0.0214706797	-0.238829
C	 0.7037924094	-0.5646476774	 1.111773235	 0.232826
C	 0.5261879868	-2.0812870034	 1.1099214209	-0.232587
C	 1.4468602696	-2.7395871668	 2.12849642	-0.048119
N	 2.8432551664	-2.9531648841	 1.6988317148	-0.318448
C	 2.557598344	-1.9511630838	 2.7318332166	-0.039439
C	 2.7257214541	-0.5020717797	 2.3184660374	-0.084255
O	 2.0802077413	-0.2151789347	 1.0943661706	-0.255141
H	 1.0686993378	 1.7919813487	-0.1101069886	 0.130819
H	-0.4859981601	 1.6359907886	-0.9761463393	 0.12618
H	-0.4660819902	 1.7802643067	 0.802509262	 0.101204
H	 0.2527169502	-0.1246624832	 2.0272099108	 0.04095
H	-0.5197117205	-2.3174245191	 1.3283310054	 0.100579
H	 0.754525946	-2.4475908626	 0.1050693036	 0.129409
H	 0.9967014139	-3.5140591939	 2.7443885714	 0.08448
H	 3.2139021366	-3.7974860785	 2.1266897254	 0.229404
H	 2.8438177523	-2.1666151053	 3.7598401176	 0.082763
H	 2.3318080564	 0.1425361194	 3.1245480955	 0.084425
H	 3.7824723561	-0.2571646009	 2.1723845149	 0.114959
83.9032	116.5935	166.9688	199.9328	282.703	346.4482	356.7583	415.9921	505.0046	526.4681	551.0355	732.6436	784.8181	799.0601	865.7918	889.2005	953.529	985.1287	1015.5519	1041.9691	1069.8497	1094.7792	1100.1784	1138.5348	1164.7365	1179.2854	1182.0301	1207.7486	1215.1451	1254.7905	1261.4852	1295.3018	1326.7879	1378.4278	1403.7549	1407.1733	1421.8464	1462.4228	1469.4776	1480.5011	1482.6306	1488.7524	1512.5753	2867.6756	2949.9009	2990.4246	3056.4081	3075.5958	3075.8751	3107.3171	3120.5983	3128.6942	3135.8913	3503.2866
COC1CC2NC2CO1	CO[C@H]1C[C@H]2N[C@H]2CO1	
InChI=1S/C6H11NO2/c1-8-6-2-4-5(7-4)3-9-6/h4-7H,2-3H2,1H3	InChI=1S/C6H11NO2/c1-8-6-2-4-5(7-4)3-9-6/h4-7H,2-3H2,1H3/t4-,5+,6-/m1/s1
