18
gdb 69442	4.00141	1.17996	1.0295	1.3754	78.08	-0.2501	0.0306	0.2807	1185.5744	0.147175	-401.893928	-401.885509	-401.884565	-401.926737	32.278	
C	-0.0060372308	 1.499791086	-0.0759116746	-0.47513
C	-0.0163046935	-0.0005890304	 0.0467682766	 0.313485
C	-1.2831502835	-0.7733371595	-0.2950685166	-0.145531
O	-1.0875361969	-2.0909442948	 0.2102842235	-0.267565
C	-0.2723840488	-1.9917952574	 1.3859192261	-0.08418
C	 0.4219419093	-3.255905771	 1.6043708161	 0.311252
C	 1.0127836198	-4.2810429414	 1.81011013	-0.426273
C	 0.6375925197	-0.7913037583	 1.122107707	-0.096442
N	 1.2405746548	-0.7195757319	-0.2104611072	-0.36731
H	 0.9574848335	 1.900175556	 0.2470055535	 0.13669
H	-0.1639263262	 1.8074254322	-1.1158896214	 0.124707
H	-0.7967968249	 1.951754042	 0.532731582	 0.117847
H	-2.1543385043	-0.2881097089	 0.1747877505	 0.09709
H	-1.4759730747	-0.8623355957	-1.3698875292	 0.114687
H	-0.8988355173	-1.7682680933	 2.266613588	 0.102667
H	 1.5322306618	-5.1905803594	 1.9864267604	 0.201506
H	 1.1980138347	-0.3662825514	 1.9481729117	 0.102437
H	 1.0669255373	-1.5885578128	-0.7147961963	 0.240061
92.6277	136.6741	185.917	221.5995	271.8706	308.6948	381.1992	414.6482	507.3802	523.898	604.6767	628.6079	671.7223	711.3087	775.7192	848.2813	875.6476	941.6503	968.2698	1008.4421	1016.7828	1034.5136	1076.3837	1087.2549	1108.8283	1148.6158	1188.622	1239.4394	1284.4203	1297.0116	1326.2504	1353.1692	1363.4651	1413.306	1455.7432	1488.3402	1495.9589	1511.9677	2244.6157	2954.5975	2974.1179	3032.9161	3065.8299	3092.3663	3127.1467	3169.8051	3469.0601	3502.8385
CC12COC(C#C)C1N2	C[C@]12CO[C@@H](C#C)[C@H]1N2	
InChI=1S/C7H9NO/c1-3-5-6-7(2,8-6)4-9-5/h1,5-6,8H,4H2,2H3	InChI=1S/C7H9NO/c1-3-5-6-7(2,8-6)4-9-5/h1,5-6,8H,4H2,2H3/t5-,6+,7-/m0/s1
