18
gdb 54922	4.09113	0.88114	0.80622	3.494	80.73	-0.2386	0.0284	0.267	1439.0748	0.145552	-401.932726	-401.923063	-401.922119	-401.968472	33.91	
C	-0.3377982611	 1.4399371751	-0.1225020639	-0.490187
C	-0.1999571773	-0.0717277493	-0.0431028608	 0.370264
O	-0.5246739279	-0.7307022706	 0.9289050991	-0.364734
N	 0.3322328278	-0.6616547753	-1.1499102711	-0.068028
C	 0.564355454	-0.2158636119	-2.5239221912	-0.192856
C	 0.830360605	-1.7122702276	-2.9113834072	-0.189948
C	 0.4005875982	-2.0890795039	-1.4497440608	-0.177486
C	 0.0529276539	-2.2620121572	-3.9999873946	 0.323044
C	-0.6052692392	-2.7135304503	-4.8989541617	-0.456089
H	 0.5967374823	 1.91387768	-0.438866983	 0.13299
H	-1.1102950249	 1.7179408345	-0.8483271274	 0.138732
H	-0.6246846701	 1.8143771994	 0.8596570097	 0.149289
H	-0.3165921714	 0.2131605114	-3.0142859421	 0.12431
H	 1.4157418147	 0.4604803457	-2.65329827	 0.119642
H	 1.8953773836	-1.8955248626	-3.0731724136	 0.117812
H	 1.140942915	-2.6415045212	-0.8648852658	 0.12741
H	-0.5662799742	-2.5966304416	-1.3800459663	 0.132162
H	-1.1815505684	-3.1172125544	-5.6943996892	 0.203671
37.9149	82.6305	94.6932	118.0787	170.1605	206.8044	240.728	360.6274	486.3916	512.0719	567.7854	592.026	626.775	638.9838	640.8474	747.0514	890.7755	912.7465	966.2036	983.8296	1040.5184	1050.0369	1105.3355	1123.3613	1138.6209	1174.2086	1208.2046	1242.4217	1291.6191	1318.4784	1353.357	1379.5244	1443.1116	1472.1436	1482.5407	1507.497	1526.9813	1770.3756	2240.0301	3029.0288	3040.5763	3052.0027	3069.8161	3083.1913	3102.0339	3103.3528	3161.3022	3503.2176
CC(=O)N1CC(C1)C#C	CC(=O)N1CC(C1)C#C	
InChI=1S/C7H9NO/c1-3-7-4-8(5-7)6(2)9/h1,7H,4-5H2,2H3	InChI=1S/C7H9NO/c1-3-7-4-8(5-7)6(2)9/h1,7H,4-5H2,2H3
