20
gdb 86451	1.90349	1.61092	0.91769	2.1211	77.44	-0.2568	0.0206	0.2774	1278.2016	0.17133	-440.312152	-440.303181	-440.302237	-440.345737	34.229	
C	 0.0488052865	 1.5090159326	 0.0730368324	-0.397116
C	 0.0018852859	-0.0036609692	-0.0699305659	 0.120278
C	 0.7485589191	-0.5219636614	-1.2958547293	-0.204528
C	 0.780022799	-2.0437667495	-1.288864783	 0.100934
O	 1.5013199274	-2.469165137	-2.4334504846	-0.438713
C	 1.4380839116	-2.5133238971	 0.0117598263	-0.293267
C	 0.8443018907	-1.8708409212	 1.2446745206	 0.366635
N	 0.7315404496	-2.5128189126	 2.3302706974	-0.499665
O	 0.5375181603	-0.5417548059	 1.1610788333	-0.266348
H	 1.084301777	 1.8548216605	 0.1454277425	 0.12821
H	-0.4186182148	 1.9856599947	-0.7935868215	 0.120693
H	-0.4839352416	 1.8242979066	 0.9736899449	 0.129204
H	-1.0477860267	-0.3294005412	-0.1318665018	 0.08513
H	 0.2576148685	-0.1572456111	-2.2036154168	 0.11196
H	 1.7779048517	-0.1431845137	-1.2995889116	 0.111608
H	-0.2562053348	-2.4208235253	-1.3287199756	 0.072292
H	 1.5454421877	-3.4309620722	-2.4201440758	 0.284053
H	 1.3851238903	-3.5972526099	 0.1377295326	 0.120532
H	 2.4990915497	-2.2349809535	-0.0401407701	 0.131229
H	 0.3462539429	-1.8995574735	 3.0526032262	 0.216881
99.4716	112.9468	161.0698	232.2621	263.6752	288.8278	318.4915	412.3177	423.5263	457.3356	482.4149	514.9683	564.6669	630.8019	825.0518	881.3248	896.7726	922.5274	930.2435	968.3707	988.5547	1056.9417	1082.9595	1104.8814	1117.1609	1144.5371	1162.9577	1195.07	1243.4665	1273.4189	1302.6889	1314.1304	1331.5612	1385.5689	1392.0528	1401.1712	1412.9828	1444.4882	1469.6545	1483.6861	1491.1428	1499.8806	1746.4217	2953.6046	2986.2666	3030.7243	3040.0811	3046.2788	3092.3736	3108.3582	3120.5897	3126.5134	3454.9522	3813.1211
CC1CC(O)CC(=N)O1	C[C@H]1C[C@@H](O)C[C]([NH])O1	
InChI=1S/C6H11NO2/c1-4-2-5(8)3-6(7)9-4/h4-5,7-8H,2-3H2,1H3	InChI=1S/C6H11NO2/c1-4-2-5(8)3-6(7)9-4/h4-5,7-8H,2-3H2,1H3/t4-,5+/m0/s1
