16
gdb 9315	6.66322	0.83061	0.75175	3.6574	69.2	-0.2428	-0.089	0.1539	1456.9012	0.128513	-379.930544	-379.921431	-379.920487	-379.965259	30.761	
C	 0.0453641877	 1.5245535043	 0.0644169731	-0.390742
C	-0.0966504555	 0.0124597706	-0.0727697282	-0.105493
N	 0.8458357449	-0.5091542351	-1.0561591911	-0.29786
C	 0.7636217263	-1.9287535976	-1.2634769366	-0.231094
C	 1.4172972781	-2.3373216866	-2.561564928	 0.283645
O	 1.7630868907	-1.5711601602	-3.4250183368	-0.266425
C	 1.5761607454	-3.7957677312	-2.7383762925	 0.231481
N	 1.6953350228	-4.9389132783	-2.864626985	-0.293868
H	 1.0661221732	 1.7918608278	 0.3509935132	 0.13296
H	-0.1838086877	 2.0283599382	-0.8815662313	 0.11884
H	-0.6437958903	 1.909849115	 0.8211026444	 0.12091
H	 0.1197826898	-0.4683482585	 0.8902402531	 0.107782
H	-1.1446198306	-0.2453173882	-0.3175021326	 0.082979
H	 0.7596149514	-0.0286290969	-1.9458481656	 0.234308
H	 1.2419994996	-2.4840799743	-0.4425319833	 0.146532
H	-0.2715503956	-2.3347947091	-1.3166922828	 0.126044
56.9596	75.6884	99.6861	147.3109	191.4481	250.2663	285.8079	317.5437	383.0164	502.9261	575.8007	604.3633	732.0654	818.1424	827.6575	940.5769	983.8469	1042.563	1092.6749	1144.648	1180.3332	1193.9344	1239.7181	1304.83	1347.4973	1402.8347	1421.479	1465.6774	1486.6468	1498.1862	1509.1981	1526.0499	1796.3738	2338.9118	2864.2383	2922.2867	3010.7889	3030.8229	3038.4564	3104.5267	3124.4523	3530.5934
CCNCC(=O)C#N	CCNCC(=O)C#N	
InChI=1S/C5H8N2O/c1-2-7-4-5(8)3-6/h7H,2,4H2,1H3	InChI=1S/C5H8N2O/c1-2-7-4-5(8)3-6/h7H,2,4H2,1H3
