16
gdb 11780	4.46312	1.76016	1.57848	2.7697	64.7	-0.2518	-0.0351	0.2167	834.2841	0.130853	-383.723419	-383.71657	-383.715626	-383.756993	25.686	
O	-0.3670915318	 0.3594172667	-0.5962171664	-0.25995
C	 0.0880120014	 1.0977086527	 0.2410515164	 0.059307
C	 1.3303061751	 1.9064064947	 0.0261042194	 0.364046
C	 2.7126587729	 1.2810426314	-0.3262244729	-0.261361
C	 3.017531211	 2.7743895039	-0.6609656793	-0.086394
C	 1.5515375755	 2.8494665851	-1.1910036701	-0.261006
C	 2.8349543953	 3.4042320858	 0.72720473	-0.076621
O	 1.6199019048	 2.74104503	 1.1559654795	-0.32638
H	-0.3843429931	 1.2272863142	 1.2385674076	 0.09471
H	 3.2561346353	 0.8063166367	 0.4939255112	 0.106367
H	 2.6714065529	 0.6384162008	-1.2052574747	 0.123763
H	 3.8783145797	 3.0854950157	-1.2510593318	 0.081056
H	 1.407949587	 2.3440736554	-2.1455531249	 0.124005
H	 1.0332196005	 3.8106851009	-1.1633513256	 0.106201
H	 3.6501405537	 3.1764240634	 1.4231469124	 0.106062
H	 2.6785187698	 4.4884400225	 0.6997512493	 0.106194
4.5841	185.4844	220.202	367.293	441.8628	474.7067	535.6817	663.5772	718.1927	806.176	854.9565	865.9686	903.9154	941.8844	949.5881	976.8892	990.9688	1004.4911	1072.4447	1092.2491	1109.7056	1157.8418	1163.1296	1186.0509	1217.2939	1247.4962	1288.0224	1296.6221	1360.7017	1410.4853	1473.908	1504.7535	1532.0298	1824.951	2905.3051	3029.3201	3070.6143	3074.2896	3077.2743	3129.4891	3150.2619	3157.1115	4.6199	185.4846	220.202	367.2931	441.8628	474.7066	535.6817	663.5772	718.1928	806.176	854.9565	865.9685	903.9154	941.8843	949.588	976.8891	990.9687	1004.4911	1072.4447	1092.2491	1109.7055	1157.8417	1163.1295	1186.0508	1217.2939	1247.4963	1288.0225	1296.6221	1360.7015	1410.4851	1473.9079	1504.7533	1532.0295	1824.9514	2905.3051	3029.32	3070.6143	3074.2896	3077.2743	3129.4891	3150.2619	3157.1115
O=CC12CC(C1)CO2	O=C[C@@]12C[C@@H](C1)CO2	
InChI=1S/C6H8O2/c7-4-6-1-5(2-6)3-8-6/h4-5H,1-3H2	InChI=1S/C6H8O2/c7-4-6-1-5(2-6)3-8-6/h4-5H,1-3H2/t5-,6+
