18
gdb 110340	3.03539	1.18303	1.02702	1.7829	73.23	-0.233	-0.0289	0.2041	1220.2227	0.145742	-439.042406	-439.033367	-439.032423	-439.076724	32.955	
C	-0.3580413412	 1.4142305831	-0.1988767735	-0.375619
C	 0.1847748769	 0.0388019609	 0.1760770896	-0.128392
N	 0.7012133087	-0.6308981853	-1.0252423385	-0.077421
C	 1.0277918979	-2.0171850081	-1.1065986994	-0.063336
C	-0.1397921782	-1.4160624383	-1.918706769	-0.18657
C	-1.0528422856	-2.3427961911	-1.1620255684	 0.36252
O	-2.1462152828	-2.7930098065	-1.3708107843	-0.325597
C	 0.0922037686	-2.8891511984	-0.2499175671	 0.008192
O	 0.2719934081	-4.2670948825	-0.4767483667	-0.441423
H	 0.4143039833	 2.0114846213	-0.6908754505	 0.130317
H	-1.2072590981	 1.3246625666	-0.8838097382	 0.126911
H	-0.6994136391	 1.9467962612	 0.693559344	 0.118572
H	 1.0320135858	 0.1405702443	 0.8634366051	 0.114361
H	-0.5918195921	-0.5336928331	 0.7015976511	 0.105472
H	 1.9873394475	-2.3375306695	-1.4962926848	 0.124137
H	-0.2162296108	-1.1351830749	-2.9634072324	 0.118002
H	 0.0719637316	-2.6540792945	 0.8211404502	 0.090021
H	-0.6057374005	-4.6673909055	-0.5115260571	 0.299853
52.4638	84.6785	154.8988	192.97	238.984	266.8754	290.2084	341.2313	411.2356	482.4493	582.7911	641.2144	709.1129	759.6347	816.0219	865.0845	879.8721	933.3057	945.8776	983.8483	1021.3985	1062.9218	1107.5746	1115.3186	1129.8923	1167.6936	1170.952	1233.2753	1258.4193	1307.8647	1329.8797	1367.1378	1380.5684	1392.7486	1415.3099	1489.1534	1493.411	1511.0728	1862.7353	3003.258	3028.1474	3043.2233	3064.0663	3113.8953	3124.9113	3176.587	3188.7084	3780.6225
CCN1C2C1C(=O)C2O	CCN1[C@@H]2[C@H]1C(=O)[C@H]2O	
InChI=1S/C6H9NO2/c1-2-7-3-4(7)6(9)5(3)8/h3-5,8H,2H2,1H3	InChI=1S/C6H9NO2/c1-2-7-3-4(7)6(9)5(3)8/h3-5,8H,2H2,1H3/t3-,4+,5+,7?/m1/s1
