19
gdb 63801	2.99062	1.73846	1.54635	1.987	73.15	-0.2158	0.0727	0.2885	948.3807	0.158764	-422.985071	-422.977433	-422.976489	-423.016557	31.136	
C	 0.0298096628	 1.5352616837	 0.0074415595	-0.429322
C	-0.005918364	 0.0112603163	 0.0342930526	 0.385045
C	-1.4334018859	-0.5384542631	-0.0340180127	-0.431496
O	 0.7465545164	-0.4725545599	-1.1152140514	-0.302265
C	 1.5416529809	-1.5468610181	-0.6898213211	 0.066351
C	 2.528116511	-1.2906150567	 0.438845303	 0.052338
O	 2.1565736526	-0.0952747083	 1.1238049636	-0.295495
C	 0.78245498	-0.5936362173	 1.2053262208	 0.031978
C	 1.2178064953	-1.9911351277	 0.708352935	-0.207016
H	 1.0602371671	 1.8841005597	 0.0853227435	 0.1429
H	-0.400586654	 1.9023137215	-0.9284670136	 0.121608
H	-0.5525279399	 1.9502263961	 0.8367010547	 0.107653
H	-1.911262304	-0.2066975246	-0.9598905219	 0.128127
H	-1.4340051708	-1.6324438736	-0.0258397244	 0.120041
H	-2.0347657993	-0.1841250442	 0.8097580283	 0.112945
H	 1.7875966214	-2.2567372047	-1.4708007056	 0.105791
H	 3.5627943978	-1.6103355622	 0.484970774	 0.105682
H	 0.3546329995	-0.4638707055	 2.200015479	 0.0842
H	 0.9427370631	-2.9700697212	 1.0750178868	 0.100936
160.494	205.4766	234.1852	241.677	328.3613	361.6351	402.7773	506.0562	557.3956	606.0564	738.1208	753.9971	795.9225	808.8042	829.7175	877.1108	895.5882	932.1881	948.9176	952.2062	1010.8689	1016.7992	1026.4283	1042.1645	1074.0322	1102.9746	1125.8441	1170.3625	1205.5009	1219.8082	1233.1634	1256.6612	1307.1452	1333.8412	1391.9083	1396.8785	1411.7811	1477.2308	1484.1466	1495.9798	1508.2699	3036.9206	3046.2568	3107.2966	3111.2705	3114.5291	3119.0869	3149.144	3178.9124	3189.3808	3208.2742
CC1(C)OC2C3OC1C23	CC1(C)O[C@H]2[C@H]3O[C@@H]1[C@@H]23	
InChI=1S/C7H10O2/c1-7(2)6-3-4(8-6)5(3)9-7/h3-6H,1-2H3	InChI=1S/C7H10O2/c1-7(2)6-3-4(8-6)5(3)9-7/h3-6H,1-2H3/t3-,4+,5-,6-/m1/s1
