18
gdb 75554	2.48749	1.48753	1.02253	4.7578	78.9	-0.2595	-0.0006	0.2589	1174.1232	0.148038	-401.969107	-401.960596	-401.959652	-402.002375	31.723	
C	-0.1344273219	 1.5443709729	 0.0376366937	-0.49018
C	 0.0011708602	 0.0501162448	-0.0373113118	 0.290694
C	 0.0553051616	-0.6402334786	-1.1759842895	-0.162889
C	 0.115342553	-2.1426211947	-1.2245253547	-0.259905
C	-0.3337602299	-2.7152379399	 0.1162484129	-0.080644
O	 0.3449770364	-2.071920166	 1.1882869137	-0.260086
C	 0.0285127364	-0.6993565133	 1.2929845061	-0.076762
C	 1.0224218033	-0.1085789228	 2.2099273941	 0.281396
N	 1.7801517431	 0.389453811	 2.9248321608	-0.324559
H	 0.7179438069	 2.0016311309	 0.5523276706	 0.155832
H	-0.2073849888	 1.9771860945	-0.9628538318	 0.128829
H	-1.0326484903	 1.8345360914	 0.5981848504	 0.129427
H	 0.0354170862	-0.1024987122	-2.1209637596	 0.094372
H	-0.5301235558	-2.5235627974	-2.0254688827	 0.110743
H	 1.1335309422	-2.4807505361	-1.458947379	 0.126578
H	-1.4229030732	-2.5970929468	 0.232262819	 0.097846
H	-0.0928279831	-3.7764192271	 0.2123049648	 0.119066
H	-0.9586392362	-0.5738329408	 1.7788150234	 0.120244
66.0303	148.6149	178.0514	205.2925	273.0353	321.2713	328.88	423.8994	435.2363	479.0273	570.7181	600.4821	654.1797	791.6601	873.3929	899.5439	928.7011	943.3275	1017.5147	1044.4167	1069.8912	1077.5107	1097.4093	1137.455	1178.0341	1235.5045	1290.1564	1301.827	1340.8761	1359.3474	1368.2253	1410.7118	1420.3722	1471.0182	1478.5196	1492.0353	1499.6766	1745.0664	2366.7306	2916.3903	2982.8846	3020.5797	3023.2841	3057.2813	3077.8508	3103.3909	3121.6391	3154.1623
CC1=CCCOC1C#N	CC1=CCCO[C@H]1C#N	
InChI=1S/C7H9NO/c1-6-3-2-4-9-7(6)5-8/h3,7H,2,4H2,1H3	InChI=1S/C7H9NO/c1-6-3-2-4-9-7(6)5-8/h3,7H,2,4H2,1H3/t7-/m0/s1
