12
gdb 19751	3.95913	2.41862	2.29499	2.866	51.7	-0.2346	-0.0328	0.2018	636.5727	0.085379	-418.459275	-418.454116	-418.453172	-418.488483	20.7	
O	 0.01461255	 0.010838951	 0.0040937051	-0.323146
C	-0.0385865381	 1.2057562806	 0.0103242893	 0.517723
C	-1.1901440799	 2.1696760969	 0.0298105058	-0.318741
C	-0.5833987544	 3.3691994974	 0.7732751865	 0.055443
O	 0.7563293944	 3.0530664784	 1.1400461101	-0.246943
C	 1.0981056735	 2.2723639581	 0.0015399103	-0.013982
O	 0.7279526103	 3.0644649943	-1.1200859692	-0.246951
C	-0.6021348718	 3.3766528735	-0.7166430076	 0.055395
H	-2.2320956984	 1.8923479558	 0.0415852513	 0.125256
H	-1.1100892378	 4.0247241017	 1.4495088812	 0.135841
H	 2.1410987577	 1.9765807196	-0.0130443395	 0.124274
H	-1.1455921457	 4.0388394827	-1.3728220132	 0.135831
172.0906	408.6822	517.017	550.7621	638.5255	698.328	771.1877	781.0706	802.3297	819.4619	855.6853	889.9301	950.4292	956.3316	996.7608	1040.9298	1042.276	1074.2718	1099.0807	1148.5913	1227.5448	1236.8484	1253.6404	1321.3906	1367.3452	1899.344	3209.4377	3242.7681	3247.8978	3257.2013
O=C1C2C3OC1OC23	O=C1[C@H]2[C@H]3O[C@@H]1O[C@@H]23	
InChI=1S/C5H4O3/c6-2-1-3-4(1)8-5(2)7-3/h1,3-5H	InChI=1S/C5H4O3/c6-2-1-3-4(1)8-5(2)7-3/h1,3-5H/t1-,3+,4-,5+
