18
gdb 124883	3.6343	1.2665	1.02963	1.1587	78.22	-0.2284	0.0262	0.2546	1168.3143	0.149929	-398.128398	-398.120364	-398.11942	-398.161259	30.851	
C	-0.3537871229	 1.2264592373	-0.9301841665	-0.468329
C	-0.0623863768	 0.0325035968	-0.0449618186	 0.207779
C	 1.1151699146	-0.8262783337	-0.3767872491	-0.264677
N	 1.1461119353	 0.0447264941	 0.8074327505	-0.345567
C	-1.2451964869	-0.5939116063	 0.6040188416	 0.345576
N	-2.4650553641	-0.4550326348	 0.0841376925	-0.31661
N	-3.2645015837	-1.1575721781	 0.9105027738	-0.182541
C	-2.5927105397	-1.7324133361	 1.9378660571	-0.023828
C	-1.2698629358	-1.388653417	 1.7760736081	-0.295658
H	 0.5642103294	 1.5893167801	-1.4040840474	 0.099332
H	-1.0693685307	 0.9617559736	-1.7128233666	 0.143777
H	-0.7928210399	 2.0438571036	-0.3487857937	 0.125252
H	 1.084012215	-1.8902686063	-0.1597028783	 0.116903
H	 1.7094595009	-0.5558879968	-1.2464926888	 0.108961
H	 1.6910688529	 0.8805052804	 0.6096424761	 0.227885
H	-4.2511262146	-1.1911174132	 0.7203581915	 0.272302
H	-3.0988554137	-2.3207078981	 2.6870612817	 0.131171
H	-0.4355207093	-1.6414773054	 2.4075688659	 0.118271
52.7296	161.966	195.1316	220.4533	321.6137	352.6132	428.5789	477.9904	491.7318	552.0084	662.8257	736.3061	778.901	826.0388	840.279	861.4902	932.5955	948.1706	967.7508	981.1431	1006.7572	1054.5637	1062.7354	1096.964	1118.0606	1143.998	1203.7453	1234.1367	1266.9309	1334.6605	1355.3656	1400.578	1415.8997	1479.0478	1481.2266	1492.6797	1508.465	1515.1678	1574.3182	3034.7733	3100.9406	3103.1913	3119.8531	3190.7978	3259.1725	3290.0366	3497.2979	3679.6146
CC1(CN1)C1=NNC=C1	C[C@]1(CN1)c1n[nH]cc1	
InChI=1S/C6H9N3/c1-6(4-7-6)5-2-3-8-9-5/h2-3,7H,4H2,1H3,(H,8,9)	InChI=1S/C6H9N3/c1-6(4-7-6)5-2-3-8-9-5/h2-3,7H,4H2,1H3,(H,8,9)/t6-/m0/s1
