20
gdb 121646	3.36961	0.77307	0.69039	2.582	77.31	-0.2469	0.0182	0.2651	1698.7861	0.169933	-440.300096	-440.290117	-440.289173	-440.336724	35.004	
C	 0.0093020218	 1.2579142692	 0.1737753904	-0.377617
C	-0.0494753442	-0.2082801887	-0.261869119	-0.169118
C	 0.5282279782	-0.4187967244	-1.6661804249	-0.147403
N	 0.4634586712	-1.8015351558	-2.103730417	-0.323756
C	 1.5641050886	-2.5561898962	-2.3498236183	 0.373638
O	 2.7191742948	-2.1812743556	-2.2466024519	-0.38429
C	 1.2507553917	-3.976850896	-2.7629815008	-0.017343
C	 0.5475694507	-4.8863058129	-1.8432142343	-0.166838
O	-0.1234358981	-4.3218328749	-2.9710784647	-0.238432
H	 1.04139995	 1.6242569108	 0.1894411545	 0.123832
H	-0.5591959844	 1.8989650352	-0.5091797733	 0.116467
H	-0.406692576	 1.389722681	 1.1767396404	 0.117204
H	 0.5060776537	-0.8360358969	 0.4446070337	 0.108831
H	-1.089212682	-0.5607385004	-0.240536166	 0.092044
H	-0.0021039402	 0.2181630201	-2.3866182236	 0.10533
H	 1.5845699398	-0.1385480144	-1.692833653	 0.146783
H	-0.4278164038	-2.2304017284	-2.3061625967	 0.258124
H	 1.9581744915	-4.3930811211	-3.4761497639	 0.124756
H	 0.7369289974	-5.9562714281	-1.9006357084	 0.131505
H	 0.2242308193	-4.5135205325	-0.8732199233	 0.126281
33.4291	61.3787	81.8269	110.707	200.3004	235.0209	240.7347	290.3965	326.7532	433.6811	482.2584	604.9487	640.3604	744.4775	749.744	831.6964	870.0223	887.5588	908.3456	943.8667	998.2748	1042.725	1082.9484	1121.7296	1131.8814	1154.0062	1167.0506	1184.0589	1249.294	1266.7827	1284.1943	1331.533	1338.0699	1391.2638	1407.0939	1415.0632	1484.9904	1494.173	1499.5824	1510.5187	1518.6006	1558.2463	1784.5415	3016.4483	3021.5393	3033.3482	3061.0129	3094.4996	3098.3896	3108.8691	3111.6277	3152.1991	3188.0305	3612.0537
CCCNC(=O)C1CO1	CCCNC(=O)[C@H]1CO1	
InChI=1S/C6H11NO2/c1-2-3-7-6(8)5-4-9-5/h5H,2-4H2,1H3,(H,7,8)	InChI=1S/C6H11NO2/c1-2-3-7-6(8)5-4-9-5/h5H,2-4H2,1H3,(H,7,8)/t5-/m1/s1
