22
gdb 66183	2.76251	1.34962	1.23199	1.0632	87.67	-0.2224	0.0198	0.2422	1160.1086	0.1945	-367.194138	-367.185318	-367.184374	-367.227684	34.471	
C	 0.1848445858	 1.416324758	-0.0685770447	-0.418306
C	-0.0222971361	-0.0992167372	 0.0809230464	 0.289619
C	 0.5980291331	-0.9015509969	-1.1037171269	-0.246363
C	 1.9309773253	-1.4986884092	-0.5901615471	-0.262346
C	 1.8095997305	-1.3727448919	 0.90832546	-0.072852
C	 0.7658371187	-0.6312275177	 1.2716032091	-0.117743
N	-1.4823816992	-0.3277613649	 0.0857015381	-0.100419
C	-2.0236343065	-1.4977518152	 0.7633179578	-0.2274
C	-2.2424258246	-0.1286893123	 1.311954114	-0.229335
H	 1.2435563274	 1.6495778478	-0.215430249	 0.112114
H	-0.3844599287	 1.7875681352	-0.9259463305	 0.121892
H	-0.1580146788	 1.9499582903	 0.8242548046	 0.108663
H	-0.0941223081	-1.7041574569	-1.3715773385	 0.109701
H	 0.7257169512	-0.2779867438	-1.9920279919	 0.097888
H	 2.0841667405	-2.5334508047	-0.918082936	 0.103217
H	 2.8021184972	-0.9354743524	-0.9522797485	 0.107275
H	 2.5327908024	-1.808427775	 1.5905339513	 0.091808
H	 0.5246169574	-0.3653587208	 2.2954703313	 0.090521
H	-2.8223539837	-2.0179383117	 0.2411515256	 0.110364
H	-1.3366347325	-2.1417284388	 1.3087884581	 0.112476
H	-1.7132985957	 0.1253269648	 2.2282119349	 0.107196
H	-3.2010696655	 0.3703856434	 1.1960593822	 0.112029
55.6563	99.7369	209.6762	232.2357	257.2275	283.3721	316.0657	416.8606	444.9867	527.6203	551.408	714.9949	749.5866	782.0883	808.4434	825.3167	859.4658	912.795	927.7248	956.0877	976.0247	981.1666	998.5913	1009.1221	1031.5216	1108.1268	1110.4459	1116.9102	1120.7612	1150.1901	1168.1822	1195.709	1207.6223	1222.6563	1261.1693	1299.2654	1315.2312	1323.2369	1380.411	1402.712	1479.1056	1484.8111	1490.4996	1496.7065	1498.8441	1519.5936	1686.7014	3013.5016	3032.7957	3048.0963	3066.0854	3096.0625	3099.0179	3102.1005	3108.9346	3115.7868	3169.4672	3173.2085	3186.393	3197.4264
CC1(CCC=C1)N1CC1	C[C@]1(CCC=C1)N1CC1	
InChI=1S/C8H13N/c1-8(9-6-7-9)4-2-3-5-8/h2,4H,3,5-7H2,1H3	InChI=1S/C8H13N/c1-8(9-6-7-9)4-2-3-5-8/h2,4H,3,5-7H2,1H3/t8-/m0/s1
