21
gdb 99702	1.94012	1.0842	0.72878	1.7342	84.76	-0.244	0.0433	0.2873	1612.1018	0.17787	-424.189963	-424.17817	-424.177226	-424.228575	40.172	
C	 0.9376699948	 0.5438977631	 0.8761550207	-0.234882
O	 0.0112165166	 0.2048112852	-0.1336043676	-0.233797
C	 0.583127201	-0.4631977743	-1.2484711252	-0.09961
C	 1.1180965219	-1.7825268277	-0.8978820404	 0.1032
C	 1.5457121864	-2.8644546865	-0.5865451632	 0.070033
C	 2.0560573134	-4.1797755074	-0.2289138014	-0.501357
C	-0.5231514789	-0.5552191632	-2.3292430104	 0.124175
C	-1.0644246429	 0.8219065153	-2.7023743399	-0.411307
O	-0.051880093	-1.2663664515	-3.4620377951	-0.424407
H	 1.4219597342	-0.3460787453	 1.2989244888	 0.119422
H	 1.7197640077	 1.2196121903	 0.4953061964	 0.100912
H	 0.3781951699	 1.0572490947	 1.6616251784	 0.125758
H	 1.4046537888	 0.1548769186	-1.6603874278	 0.070599
H	 1.9491066562	-4.881582217	-1.0633071105	 0.153992
H	 3.1176655079	-4.14020653	 0.0389940091	 0.146141
H	 1.5123771653	-4.597154317	 0.6257121229	 0.149942
H	-1.3279764319	-1.1720796662	-1.9162237774	 0.105819
H	-0.2666193773	 1.4498950956	-3.1211697164	 0.098994
H	-1.8494833714	 0.7204451188	-3.4563559144	 0.120284
H	-1.4677968278	 1.3321212766	-1.8258296562	 0.139063
H	 0.5999617291	-0.7138662222	-3.9078695704	 0.277026
24.5341	56.7015	76.4382	103.8599	134.0963	186.3822	219.411	223.3699	270.6478	277.2263	325.9543	336.2565	399.8809	428.0928	457.2285	516.6615	579.6048	804.4757	881.2991	951.9547	979.8091	1051.5099	1054.7106	1065.2848	1104.4896	1139.7452	1154.9544	1166.2103	1185.466	1209.9164	1269.9392	1321.6637	1349.3088	1375.3134	1396.1295	1412.8916	1417.7056	1476.6857	1477.2041	1478.3437	1483.7877	1487.9179	1495.3856	1511.5439	2366.148	2909.0066	2980.3579	3021.7298	3027.7589	3046.336	3066.8606	3088.2392	3090.5163	3103.0551	3118.5347	3142.6346	3794.865
COC(C#CC)C(C)O	CO[C@@H](C#CC)[C@@H](C)O	
InChI=1S/C7H12O2/c1-4-5-7(9-3)6(2)8/h6-8H,1-3H3	InChI=1S/C7H12O2/c1-4-5-7(9-3)6(2)8/h6-8H,1-3H3/t6-,7+/m1/s1
