20
gdb 22393	4.35677	0.75755	0.68665	1.3574	78.77	-0.2452	0.0084	0.2536	1623.6096	0.169135	-440.22312	-440.213218	-440.212274	-440.259374	34.922	
C	-0.1543252529	 1.5157975508	 0.0202670719	-0.478786
C	-0.033516751	 0.0168570236	-0.0438554506	 0.35726
C	 0.0634844938	-0.7804209607	 1.2336695622	-0.301586
C	 1.3556794291	-0.5310007966	 2.015921764	-0.013871
C	 1.5011359672	 0.7403271803	 2.8870624882	-0.083863
O	 1.8353399656	-0.0416382883	 4.0500178203	-0.271173
C	 1.5306159565	-1.2710208605	 3.3612970251	-0.09025
N	 0.0107151772	-0.6676283833	-1.1236673795	-0.163012
O	-0.043868333	 0.1353194741	-2.274623346	-0.398956
H	 0.8335340808	 1.9811550556	 0.1259378209	 0.142182
H	-0.6063236349	 1.9072632679	-0.8912107231	 0.153972
H	-0.7514437291	 1.8186346639	 0.88503574	 0.125963
H	-0.7957503638	-0.5481903532	 1.8786814927	 0.103638
H	 0.0022573429	-1.841571888	 0.9726116558	 0.120376
H	 2.2164566872	-0.6750516499	 1.3573491141	 0.091792
H	 2.2995917686	 1.4416045321	 2.6183220851	 0.104734
H	 0.5682800783	 1.303937204	 3.0320897642	 0.094282
H	 0.6101784558	-1.7369280251	 3.7424238709	 0.095975
H	 2.3493851964	-1.9964379428	 3.4275534741	 0.105412
H	-0.0572916145	-0.5238145437	-2.9762295201	 0.305913
41.0019	79.6005	84.4058	96.4714	129.4553	280.6919	301.1575	343.2356	357.8636	400.021	435.5901	535.4833	646.8756	738.9915	817.151	869.4057	890.3976	901.419	977.5032	991.7241	998.6708	1037.3205	1039.6072	1071.2773	1114.6112	1137.4393	1162.6788	1170.4432	1235.7557	1266.4403	1289.5411	1310.9028	1322.8236	1367.0192	1397.1968	1399.0978	1401.9215	1470.6014	1480.3263	1491.0174	1511.6643	1537.8278	1728.9423	2991.3048	3001.3178	3010.8718	3036.4226	3049.3683	3054.3747	3076.0438	3087.642	3096.3429	3152.5583	3823.6817
CC(CC1COC1)=NO	CC(=NO)CC1COC1	
InChI=1S/C6H11NO2/c1-5(7-8)2-6-3-9-4-6/h6,8H,2-4H2,1H3	InChI=1S/C6H11NO2/c1-5(7-8)2-6-3-9-4-6/h6,8H,2-4H2,1H3
