14
gdb 28926	2.34334	1.8773	1.046	4.2765	67.4	-0.2248	-0.0144	0.2103	1042.6395	0.101829	-473.875705	-473.868071	-473.867127	-473.907516	29.413	
O	 0.0622746849	 1.3447473039	-0.0207988907	-0.436578
C	 0.0559950326	-0.0110852293	-0.0271078338	 0.279426
C	-0.0197753502	-0.7213317039	-1.2268862841	-0.078228
N	-0.0328644221	-2.0529086365	-1.2714224343	-0.263034
C	 0.0127708042	-2.7453539143	-0.1340178362	-0.078229
C	 0.0900709242	-2.1298741259	 1.1169297709	 0.279437
O	 0.13002704	-2.8677385791	 2.253728242	-0.436575
C	 0.1337347538	-0.7382056632	 1.1584823043	 0.054767
O	 0.1815648748	-0.0763394528	 2.3828885761	-0.464441
H	-0.0075599206	 1.6267779927	 0.9013402593	 0.299359
H	-0.0723356373	-0.178974663	-2.1662400773	 0.116359
H	-0.0136374673	-3.8292586321	-0.1952747119	 0.116359
H	 0.0549929638	-2.2532009116	 2.9963408954	 0.299362
H	 1.1049227694	 0.069756455	 2.6255552702	 0.312015
168.5998	180.6638	256.6005	284.9393	299.6238	303.4165	498.7168	506.2608	517.1888	554.7733	579.1489	604.7042	621.5785	699.4303	759.979	834.9517	889.9366	929.2609	1077.3249	1153.704	1192.4192	1206.0998	1228.2525	1310.3392	1319.4815	1360.4989	1398.2413	1500.8774	1542.3051	1637.3211	1640.143	3171.3328	3175.5489	3762.2416	3763.9373	3768.1046
OC1=CN=CC(O)=C1O	Oc1cncc(O)c1O	
InChI=1S/C5H5NO3/c7-3-1-6-2-4(8)5(3)9/h1-2,7-8H,(H,6,9)	InChI=1S/C5H5NO3/c7-3-1-6-2-4(8)5(3)9/h1-2,7-8H,(H,6,9)
