17
gdb 19250	3.16453	2.00052	1.54983	1.6839	68.02	-0.2348	-0.0262	0.2086	863.1733	0.141269	-363.821916	-363.814151	-363.813206	-363.854595	28.4	
C	-0.2387085433	 1.5261378536	-0.1505108968	-0.397232
C	 0.0696205309	 0.0427428234	-0.0657493705	 0.04759
C	 1.1976549943	-0.6344951596	-0.9151433085	-0.130967
C	 2.1133114946	 0.1471525178	-1.8213766561	 0.140332
O	 1.8411905563	 1.186999355	-2.3670640999	-0.250457
C	 1.8030562263	-1.0887312101	 0.4160370044	-0.051772
C	 2.0633473316	 0.0729683979	 1.2902458888	-0.245613
N	 0.6901652822	-0.4549455069	 1.2236152797	-0.129537
H	 0.6486690352	 2.1542869356	-0.0541472065	 0.12679
H	-0.6968435342	 1.7634207033	-1.1140266402	 0.134184
H	-0.9409509784	 1.7923095682	 0.6466509284	 0.12171
H	-0.8589878074	-0.5201984565	-0.1901814549	 0.092971
H	 0.8085439035	-1.4775887232	-1.4978248473	 0.110798
H	 3.1146125615	-0.3270637985	-1.9589894031	 0.078511
H	 2.1681547608	-2.0864287971	 0.6352268536	 0.101122
H	 2.5346568734	-0.1178059257	 2.249108522	 0.127496
H	 2.2984057828	 1.0431739729	 0.8599501971	 0.124074
38.6228	154.4484	178.142	200.969	285.0471	317.7685	445.0588	518.7711	668.0101	681.0481	734.6039	769.3601	784.0132	885.4074	946.6466	980.9078	1016.8441	1036.6884	1062.1065	1098.1058	1110.7837	1119.4428	1128.923	1185.8704	1194.239	1236.4143	1287.8222	1322.65	1362.0918	1379.804	1412.1942	1423.5011	1480.5593	1489.2749	1505.3533	1821.1429	2845.7528	3045.1837	3046.2535	3069.8631	3115.1344	3118.774	3135.744	3166.4553	3204.1399
CC1C(C=O)C2CN12	C[C@H]1[C@@H](C=O)[C@H]2CN12	
InChI=1S/C6H9NO/c1-4-5(3-8)6-2-7(4)6/h3-6H,2H2,1H3	InChI=1S/C6H9NO/c1-4-5(3-8)6-2-7(4)6/h3-6H,2H2,1H3/t4-,5+,6+,7?/m0/s1
