16
gdb 36725	3.33688	1.20057	0.97554	4.106	70.26	-0.2691	-0.0087	0.2605	1185.4266	0.124136	-437.88704	-437.878807	-437.877863	-437.921191	29.315	
N	-0.1173275535	 0.1265425216	 1.540976501	-0.313202
C	-0.0378819254	 0.7526449465	 0.5736088619	 0.275086
C	 0.0553967351	 1.4982266923	-0.6961503862	-0.200711
O	 1.249459759	 2.2346582322	-0.8210412984	-0.24353
C	 1.1982253327	 3.5390799507	-0.2489613842	 0.171526
O	 0.9640092531	 3.5148786306	 1.1364079856	-0.249242
C	 2.1784999082	 3.7863506267	 1.8405769498	-0.125617
C	 3.1249596055	 4.273978455	 0.7819846275	-0.081873
C	 2.5572473816	 4.1622263527	-0.4130483002	-0.109277
H	 0.0361075282	 0.7720525375	-1.5153428973	 0.157509
H	-0.8324311163	 2.1400096016	-0.7938595777	 0.14116
H	 0.3618049721	 4.0811249464	-0.7176650486	 0.083552
H	 1.967198362	 4.5366274649	 2.6125547934	 0.123532
H	 2.547664918	 2.8811024681	 2.3439789149	 0.132162
H	 4.1211311643	 4.6363718471	 1.0003764824	 0.119329
H	 2.9795116155	 4.401516386	-1.378673384	 0.119596
38.8889	70.611	136.2168	207.0075	252.7654	350.1088	376.8574	446.6759	536.9829	617.5842	721.7525	784.6465	832.4407	908.8962	935.0053	941.0455	957.1956	957.9313	1013.7096	1037.7212	1058.4743	1081.7328	1125.5938	1128.4343	1201.2768	1288.6217	1314.094	1367.5097	1382.0489	1390.5257	1409.5673	1466.9921	1508.978	1687.0784	2361.8671	2982.7033	3006.616	3007.1612	3048.1083	3080.6911	3219.2945	3247.9207
N#CCOC1OCC=C1	N#CCO[C@H]1OCC=C1	
InChI=1S/C6H7NO2/c7-3-5-9-6-2-1-4-8-6/h1-2,6H,4-5H2	InChI=1S/C6H7NO2/c7-3-5-9-6-2-1-4-8-6/h1-2,6H,4-5H2/t6-/m1/s1
