18
gdb 40610	3.60041	1.47229	1.27463	2.3201	75.09	-0.2173	0.0536	0.2708	1021.2233	0.147217	-401.813143	-401.805789	-401.804845	-401.845054	29.294	
C	-0.0803462215	 1.314601433	-0.3517121571	-0.188838
C	 1.2559500676	 0.8891072277	 0.1411374494	-0.234925
N	 0.1614969198	-0.0742848805	-0.0066118372	-0.08021
C	-0.377152054	-0.6137145591	 1.2167039003	 0.057333
C	-1.5331447498	-0.1590245609	 2.0847621946	-0.163047
C	-2.8424551653	 0.1746373488	 1.3048505475	 0.019845
O	-2.6180828308	 0.0572388536	-0.1064827811	-0.234745
C	-2.8466439937	-1.1311429409	 0.6589957199	 0.027385
C	-1.5415335507	-1.5468897256	 1.3923912562	-0.148724
H	-0.6879499197	 1.9072712685	 0.3279523364	 0.111781
H	-0.25588664	 1.5117197165	-1.4050043429	 0.117514
H	 2.0928597601	 0.7559233967	-0.539167657	 0.111813
H	 1.5311645708	 1.200241721	 1.1482519853	 0.103592
H	 0.4358552902	-0.9605820838	 1.855209885	 0.101152
H	-1.4303487396	 0.0502205166	 3.142923026	 0.090154
H	-3.6435973095	 0.8229743821	 1.6383001311	 0.108117
H	-3.6519373595	-1.7858323051	 0.3491655268	 0.109191
H	-1.4299166144	-2.5179675388	 1.8593458568	 0.092612
81.8528	163.1002	181.0683	299.0304	327.044	454.6032	583.3934	623.5557	712.2265	722.1173	767.6005	796.4194	823.6687	843.3794	869.3663	884.2129	917.5334	949.9694	960.0009	994.7233	1003.6664	1039.2352	1043.7538	1047.6542	1090.4656	1108.8446	1128.6494	1165.7622	1173.6467	1189.8739	1237.5014	1245.8495	1278.8172	1306.2201	1345.7227	1390.9503	1444.2585	1488.941	1518.9321	3088.7677	3103.2668	3108.7984	3173.1553	3174.8543	3185.2586	3186.5725	3195.4252	3200.9293
C1CN1C1C2C3OC3C12	C1CN1[C@H]1[C@H]2[C@H]3O[C@H]3[C@@H]12	
InChI=1S/C7H9NO/c1-2-8(1)5-3-4(5)7-6(3)9-7/h3-7H,1-2H2	InChI=1S/C7H9NO/c1-2-8(1)5-3-4(5)7-6(3)9-7/h3-7H,1-2H2/t3-,4+,5-,6+,7-
