18
gdb 38325	3.89253	1.46877	1.46049	3.3357	76.03	-0.2344	0.076	0.3103	964.6351	0.149019	-401.783523	-401.777066	-401.776122	-401.814095	27.195	
C	-0.0887193746	 1.6293924374	 0.085348157	-0.23533
C	 1.4110777581	 1.2416002668	 0.0424961968	-0.087034
O	 1.128536876	 0.1786420977	 1.035026494	-0.306285
C	 0.0253114868	 0.084267778	 0.0507443902	-0.087034
C	 1.0762678019	 0.2262164515	-1.0713455821	 0.551583
C	 0.9597166095	 0.354889386	-2.5982602269	-0.178494
C	 2.4901369268	 0.1404331187	-2.5615233724	-0.177685
N	 2.0077413632	-0.8923072226	-1.5196610743	-0.195367
C	 0.8982903697	-1.1890076912	-2.5520481626	-0.177685
H	-0.4179586636	 2.0304476772	 1.0439881631	 0.113076
H	-0.5244815918	 2.1450390766	-0.7742961583	 0.099514
H	 2.2936042386	 1.8600106	 0.2033743417	 0.097729
H	-0.7393137464	-0.6729521752	 0.2214265955	 0.097729
H	 0.3702435896	 1.0564347214	-3.1985565087	 0.068626
H	 2.958087368	-0.3213454784	-3.4346198262	 0.103927
H	 3.1195870064	 0.9277499603	-2.1408464751	 0.104402
H	 0.0143826113	-1.6655809785	-2.1223631593	 0.104402
H	 1.2631613207	-1.7368738157	-3.4245309626	 0.103927
204.8651	207.3488	229.4695	411.1353	531.2905	544.2422	595.2385	641.4476	765.9632	781.3131	793.2803	823.1324	875.98	901.2203	910.9595	919.1577	958.35	966.115	1022.621	1042.5468	1050.7428	1055.8026	1096.0441	1101.7377	1127.2564	1129.0549	1164.7448	1174.1801	1191.2987	1195.336	1211.4009	1221.4216	1241.4851	1263.1795	1274.756	1359.1235	1480.3741	1510.8372	1548.3376	3039.0514	3058.6632	3064.324	3065.852	3122.0877	3127.0462	3127.8747	3130.5508	3153.6207
C1C2OC1C21C2CN1C2	C1[C@H]2O[C@@H]1[C@]12[C@H]2CN1C2	
InChI=1S/C7H9NO/c1-5-7(6(1)9-5)4-2-8(7)3-4/h4-6H,1-3H2	InChI=1S/C7H9NO/c1-5-7(6(1)9-5)4-2-8(7)3-4/h4-6H,1-3H2/t5-,6+,7-
