18
gdb 37783	2.6931	2.02082	1.4922	2.3955	75.86	-0.2267	0.0258	0.2525	916.8319	0.151142	-401.920332	-401.913592	-401.912648	-401.951279	27.424	
C	-0.0268594519	 1.5172678233	-0.0400281423	-0.263543
C	 1.5012984606	 1.5704017126	 0.0485031228	-0.071673
C	 1.9965197142	 0.8760890222	 1.2955367052	 0.031024
N	 1.3987514045	 0.999902239	 2.5784058036	-0.267678
C	 0.2731390422	 0.6008433698	 2.9818335255	 0.119181
O	-0.7543064565	-0.0844943742	 2.4203419812	-0.226028
C	-0.656456822	-0.7817972645	 1.1736186334	-0.088004
C	 0.0473863289	-0.0472675999	 0.0433355348	-0.03578
C	 1.5726668897	 0.0380033683	 0.1163213917	-0.11936
H	-0.5752252825	 2.0329876183	 0.7529481805	 0.116137
H	-0.407886181	 1.8536650199	-1.0060051647	 0.105983
H	 2.1341585518	 2.2648058793	-0.4906608928	 0.08879
H	 3.0791867168	 0.9460032298	 1.3725105479	 0.098512
H	-0.027886698	 0.8440370723	 4.0015802654	 0.117683
H	-0.1563391292	-1.7449923039	 1.3479924624	 0.111144
H	-1.6991736234	-0.9889870997	 0.9134142363	 0.115241
H	-0.2800283534	-0.5009962141	-0.8965353389	 0.085052
H	 2.259838129	-0.6486126485	-0.365713792	 0.083319
136.6191	193.8146	285.235	332.9246	385.5059	498.2884	572.0497	661.5234	715.3556	742.9064	794.2384	809.8277	823.0868	888.7668	923.5906	961.3112	965.5911	979.3527	986.8234	1013.1123	1066.9964	1076.8835	1088.5821	1106.2416	1138.6495	1173.5769	1224.98	1235.0841	1258.6044	1286.2511	1322.1117	1342.2544	1353.2508	1418.1156	1430.4531	1447.7676	1492.4833	1498.9254	1764.6823	3008.3034	3061.2354	3065.118	3080.0141	3117.9587	3128.5135	3132.9525	3167.1038	3186.462
C1C2C3N=COCC1C23	C1[C@H]2[C@H]3N=COC[C@@H]1[C@@H]23	
InChI=1S/C7H9NO/c1-4-2-9-3-8-7-5(1)6(4)7/h3-7H,1-2H2	InChI=1S/C7H9NO/c1-4-2-9-3-8-7-5(1)6(4)7/h3-7H,1-2H2/t4-,5-,6+,7-/m1/s1
