19
gdb 83849	2.12325	1.89486	1.30534	4.1706	75.76	-0.2321	0.0106	0.2426	1037.4075	0.161798	-419.215876	-419.207765	-419.206821	-419.248501	31.221	
C	-0.152969175	 1.5613303994	 0.1079412297	-0.32726
N	 0.013731638	 0.1201048388	-0.021906345	-0.090513
C	 0.4963340981	-0.4861871286	-1.2576833248	-0.043656
C	 0.9415602363	 0.3442060162	-2.4600246828	-0.228935
C	 2.4536958064	 0.5852601864	-2.4612149078	-0.164539
N	 2.903240676	 1.0415733696	-1.1484224385	-0.306079
C	 2.581845966	 0.398944555	 0.0225971213	 0.372144
O	 3.2221127679	 0.55123835	 1.0458874331	-0.370739
C	 1.3531295233	-0.4763373359	-0.0242246412	-0.124674
H	 0.6112360435	 2.1721932288	-0.3918005669	 0.115672
H	-1.1342691071	 1.8341991621	-0.2932983756	 0.121559
H	-0.1404388961	 1.8102396626	 1.1727417399	 0.139016
H	-0.0223234226	-1.4108815359	-1.501894356	 0.096952
H	 0.6654023109	-0.1776942646	-3.3806868007	 0.110112
H	 0.417180127	 1.3053423751	-2.4754687915	 0.118154
H	 2.9765851857	-0.3373187036	-2.7555660428	 0.111281
H	 2.717406063	 1.3524106987	-3.1955866936	 0.114176
H	 3.7799664409	 1.5422543194	-1.0975179644	 0.24607
H	 1.4544008577	-1.3568802935	 0.6044265174	 0.111259
81.4285	150.3463	190.9949	222.2024	290.1221	377.0784	416.1617	461.1974	485.6663	541.3328	607.1946	702.139	723.2793	738.187	799.3131	857.5181	923.3037	952.2856	975.8663	1061.0552	1075.416	1104.785	1121.8901	1153.2663	1166.7125	1178.9992	1237.2693	1260.9014	1315.9632	1321.3888	1365.8414	1376.4818	1392.0903	1410.3345	1452.8978	1466.4668	1482.5019	1494.8633	1511.449	1519.7062	1789.1022	2987.3413	3005.9011	3050.2961	3076.2181	3078.7211	3092.1337	3111.1209	3122.1181	3147.1781	3594.9565
CN1C2CCNC(=O)C12	CN1[C@H]2CCNC(=O)[C@@H]12	
InChI=1S/C6H10N2O/c1-8-4-2-3-7-6(9)5(4)8/h4-5H,2-3H2,1H3,(H,7,9)	InChI=1S/C6H10N2O/c1-8-4-2-3-7-6(9)5(4)8/h4-5H,2-3H2,1H3,(H,7,9)/t4-,5-,8?/m0/s1
