15
gdb 14940	4.79242	1.42188	1.16403	1.8318	63.1	-0.2541	-0.0398	0.2143	972.6111	0.119869	-399.814883	-399.807671	-399.806727	-399.847117	25.594	
O	-0.090844332	-0.0222145111	 0.0564700358	-0.238273
C	 0.0030356753	 1.1759515039	 0.0047728789	 0.151066
C	 1.3032896574	 1.9466927746	-0.0170254366	-0.126852
C	 1.3719630222	 2.8594482697	-1.2479078535	-0.085827
O	 2.5291047426	 3.6994476734	-1.2172880793	-0.221119
C	 2.9093301508	 4.1530141347	 0.0015456963	 0.134484
N	 2.4642028936	 3.8502843149	 1.1443458157	-0.266642
C	 1.4198928521	 2.840555941	 1.2400192649	-0.170605
H	-0.9067961753	 1.8236273698	-0.0108779893	 0.076347
H	 2.1272432225	 1.228048088	-0.0438710156	 0.113581
H	 1.4448536657	 2.286828428	-2.1750010386	 0.135771
H	 0.4780721865	 3.4958272837	-1.3025370755	 0.117905
H	 3.7219810548	 4.8678288937	-0.109923187	 0.131478
H	 0.4617804537	 3.3419967392	 1.4383520118	 0.116896
H	 1.6266136999	 2.2185487966	 2.1167058821	 0.131789
59.9388	118.1153	162.3152	291.4824	354.2596	393.7269	492.6009	508.7145	594.9061	803.6807	892.4841	920.2034	939.0757	955.4037	969.6168	1003.1551	1096.202	1117.6603	1137.088	1177.8352	1236.803	1260.0423	1313.1016	1343.6467	1359.784	1405.1111	1421.13	1427.8881	1484.4898	1508.5247	1741.1996	1833.7965	2840.9144	3007.9064	3017.7275	3067.5155	3084.0258	3107.5006	3166.8992
O=CC1COC=NC1	O=C[C@H]1COC=NC1	
InChI=1S/C5H7NO2/c7-2-5-1-6-4-8-3-5/h2,4-5H,1,3H2	InChI=1S/C5H7NO2/c7-2-5-1-6-4-8-3-5/h2,4-5H,1,3H2/t5-/m0/s1
