13
gdb 6253	3.91387	1.42406	1.04566	2.0844	59.74	-0.2433	-0.0945	0.1488	1032.4329	0.095463	-431.968421	-431.960526	-431.959582	-432.001051	28.041	
N	 0.6277777514	-0.0250677544	-0.6984740431	-0.554948
C	-0.0766253748	 0.2779955094	 0.432429552	 0.435956
N	 0.3242122395	 0.7365998779	 1.5547470292	-0.549755
N	-1.4587915357	-0.0070548558	 0.3516772853	-0.334293
C	-2.1951360174	-0.3871155145	-0.7179978533	 0.330585
O	-1.8100370572	-0.5869423459	-1.8608899478	-0.370973
C	-3.6795022079	-0.5643752396	-0.3790365223	 0.114857
O	-4.1358546579	-0.3735682321	 0.716660035	-0.236811
H	 1.5564009989	 0.3514999261	-0.7771545446	 0.256135
H	 0.1057285356	-0.2091752525	-1.5458415065	 0.28331
H	 1.3280922601	 0.9055700311	 1.5495525982	 0.212576
H	-1.9630331979	 0.1390079329	 1.2182854523	 0.287212
H	-4.2788965566	-0.8828909127	-1.2534358345	 0.126149
84.4448	125.0737	171.834	176.3413	292.045	368.6377	423.0043	501.2358	541.2505	563.7592	602.2839	696.4523	713.8806	760.5373	804.9313	937.3968	1021.3927	1027.3163	1127.5624	1138.6403	1232.6436	1362.1521	1440.6612	1523.757	1628.1099	1738.5657	1773.698	1829.6563	2967.4225	3510.5391	3530.0564	3581.2553	3706.7289
NC(=N)NC(=O)C=O	NC(=N)NC(=O)C=O	
InChI=1S/C3H5N3O2/c4-3(5)6-2(8)1-7/h1H,(H4,4,5,6,8)	InChI=1S/C3H5N3O2/c4-3(5)6-2(8)1-7/h1H,(H4,4,5,6,8)
