23
gdb 99785	2.14374	1.30898	0.99227	2.3492	81.8	-0.2449	0.0723	0.3172	1330.3577	0.203664	-425.401088	-425.390459	-425.389515	-425.437206	38.899	
C	 0.7975125109	 1.4451866181	 0.1808941526	-0.239521
O	 0.0710166683	 0.26294408	-0.0829144631	-0.266484
C	 0.5656149348	-0.5333771237	-1.1647346718	 0.057244
C	 0.774856351	-1.9590683793	-0.6044842383	 0.150631
C	 2.0126762945	-2.0515880842	 0.2921205053	-0.410846
O	-0.3872724609	-2.3871438183	 0.0876401921	-0.43669
C	-0.3915300993	-0.5032611142	-2.3425980153	 0.019627
C	-1.8827063049	-0.5457145314	-2.1483129241	-0.237957
C	-1.2272424252	 0.7105233538	-2.6651290118	-0.291978
H	 1.8369710356	 1.2308978189	 0.4680343365	 0.111357
H	 0.8084300205	 2.1210138771	-0.6852783976	 0.114881
H	 0.2995912936	 1.9492947213	 1.0136019094	 0.127815
H	 1.5405438247	-0.1416330578	-1.4899621708	 0.066934
H	 0.8892878525	-2.6474560655	-1.4506775789	 0.079629
H	 1.9395278574	-1.3377593869	 1.1197624469	 0.115732
H	 2.0891751285	-3.0560823932	 0.716147464	 0.122975
H	 2.9308140503	-1.8383756062	-0.2665630629	 0.104664
H	-0.6167059154	-1.6572591921	 0.67712227	 0.285389
H	-0.0070274363	-1.0530115648	-3.1983913289	 0.08097
H	-2.4705641616	-1.1484007675	-2.8312403052	 0.107328
H	-2.2518030268	-0.5284591448	-1.1309525662	 0.118738
H	-1.1814143681	 1.5540383078	-1.9862308839	 0.113381
H	-1.3565835644	 0.9787389029	-3.7079468181	 0.106182
44.3858	78.8758	93.9466	167.728	173.205	211.0063	258.6339	285.7031	305.6003	345.1695	369.4313	444.3105	486.4849	576.866	657.9246	777.2112	797.1513	835.5744	864.2873	919.3521	942.4469	962.405	1015.8681	1044.6309	1062.1162	1080.2599	1102.4541	1118.301	1130.8783	1137.1693	1163.525	1181.5615	1196.5028	1216.2874	1233.3037	1288.6534	1315.4172	1375.4451	1384.3981	1399.1175	1402.7559	1430.1351	1459.5579	1481.1319	1488.4376	1492.2221	1500.5627	1503.9551	1512.1496	2985.9451	2997.3976	3031.9927	3038.775	3043.4606	3101.0234	3110.2161	3120.1768	3132.9137	3138.5341	3148.5528	3220.7566	3239.6499	3774.445
COC(C(C)O)C1CC1	CO[C@@H]([C@@H](C)O)C1CC1	
InChI=1S/C7H14O2/c1-5(8)7(9-2)6-3-4-6/h5-8H,3-4H2,1-2H3	InChI=1S/C7H14O2/c1-5(8)7(9-2)6-3-4-6/h5-8H,3-4H2,1-2H3/t5-,7+/m1/s1
