17
gdb 74298	2.75893	1.26798	1.18048	3.3064	70.79	-0.2252	-0.0199	0.2053	1126.4655	0.135396	-455.182908	-455.174025	-455.173081	-455.216721	32.649	
C	 0.0977974423	 1.6114616343	 0.1876142046	-0.440547
C	 0.0266379473	 0.082554583	 0.1083180671	 0.180835
C	 0.7036143598	-0.5144603205	-1.1498497799	-0.153682
O	 1.5586584822	-1.5556547838	-0.6283076976	-0.251071
C	 1.4939377584	-1.4351942127	 0.7202267732	 0.481017
N	 2.2576325902	-2.3395376015	 1.3947016217	-0.577207
N	 0.7275554361	-0.5494915888	 1.2394479225	-0.395887
C	-1.439264431	-0.3493692472	 0.2231486298	 0.148543
O	-2.0791767036	-0.8801323342	-0.6477289769	-0.258622
H	 1.1434182352	 1.9303202492	 0.2265833277	 0.124928
H	-0.3825401972	 2.0746846685	-0.6809121562	 0.123778
H	-0.3981549543	 1.9725481999	 1.0934738426	 0.131108
H	-0.0192696882	-0.9611336316	-1.8348561268	 0.145668
H	 1.3276857893	 0.2109763039	-1.6803556643	 0.109262
H	 3.0593546038	-2.7000139729	 0.9027178537	 0.267255
H	 2.394516253	-2.1356899869	 2.3713231322	 0.271955
H	-1.8722340533	-0.1420262088	 1.2255320464	 0.092666
60.3169	94.5929	177.0874	216.1865	280.836	302.6926	310.5244	389.3762	406.4598	457.6083	495.2145	553.3427	655.6661	712.8974	742.7248	835.4884	887.1328	939.4158	949.8581	993.948	998.9149	1051.2763	1131.096	1175.1587	1191.6352	1216.9415	1265.9989	1353.5419	1395.5698	1411.2777	1437.6062	1484.2228	1492.4844	1522.3452	1615.3549	1732.3758	1827.4407	2904.952	3033.9505	3056.0155	3110.3492	3115.5492	3125.7645	3601.6643	3719.0994
CC1(COC(N)=N1)C=O	C[C@]1(COC(=N1)N)C=O	
InChI=1S/C5H8N2O2/c1-5(2-8)3-9-4(6)7-5/h2H,3H2,1H3,(H2,6,7)	InChI=1S/C5H8N2O2/c1-5(2-8)3-9-4(6)7-5/h2H,3H2,1H3,(H2,6,7)/t5-/m1/s1
