19
gdb 67045	2.08784	2.06176	1.61674	1.0152	74.07	-0.2249	0.0685	0.2934	955.2795	0.159275	-422.999196	-422.99125	-422.990305	-423.030959	31.939	
C	 0.0947073891	 1.51331371	 0.0840310829	-0.472368
C	-0.0030657271	 0.0123593064	 0.0099638968	 0.322656
C	 0.2199502899	-0.7080934	-1.3694584926	-0.274759
C	-0.9938696969	-1.5823568894	-1.0504211419	-0.129991
C	-0.9036969472	-2.0707038476	 0.4073741986	-0.162665
C	 0.4436591794	-1.9654649644	 1.1098521784	-0.1086
O	 0.8050206939	-0.5810329836	 1.0289274499	-0.305097
C	-1.3943313227	-0.6923050063	 0.0986751582	 0.352004
O	-2.6186194697	-0.1300386416	 0.3880392006	-0.462671
H	 1.1172568044	 1.8439248986	-0.1215430186	 0.125871
H	-0.5770370948	 1.9757942682	-0.6438931962	 0.125764
H	-0.1831005354	 1.8636644997	 1.0827840351	 0.11911
H	 0.0291570525	-0.0408001907	-2.2145854149	 0.102333
H	 1.1937621374	-1.1905332007	-1.499760921	 0.096445
H	-1.6281194173	-2.1015838712	-1.7587794039	 0.091186
H	-1.6181348682	-2.8325663932	 0.6960869941	 0.093438
H	 0.3806598167	-2.2495133422	 2.1673048924	 0.101059
H	 1.2174813661	-2.5885755715	 0.6393318495	 0.096863
H	-2.71062838	-0.0747056004	 1.3459492127	 0.289422
184.3382	198.0773	210.3572	236.0335	289.4766	339.2789	362.9807	456.9541	482.2212	577.9107	644.4401	669.1096	741.0322	763.4384	829.5972	873.0611	892.0442	934.1457	950.7462	981.5137	1005.4075	1024.7492	1065.69	1080.556	1116.1983	1124.1648	1171.7462	1193.9063	1216.5096	1221.945	1250.9035	1297.287	1309.5614	1333.0817	1376.0487	1413.3731	1462.6103	1481.0523	1491.7607	1499.2996	1527.3673	2996.8305	3041.7167	3043.8134	3046.7518	3100.3537	3111.9342	3124.1219	3184.2245	3194.1875	3789.7592
CC12CC3C(CO1)C23O	C[C@@]12C[C@H]3[C@@H](CO1)[C@@]23O	
InChI=1S/C7H10O2/c1-6-2-4-5(3-9-6)7(4,6)8/h4-5,8H,2-3H2,1H3	InChI=1S/C7H10O2/c1-6-2-4-5(3-9-6)7(4,6)8/h4-5,8H,2-3H2,1H3/t4-,5+,6-,7+/m0/s1
