17
gdb 113130	2.13357	1.3447	1.09571	0.9896	82.68	-0.2269	0.0285	0.2554	1199.369	0.131598	-384.59075	-384.581021	-384.580077	-384.625062	35.884	
C	-0.4484117483	 0.9829842352	-0.1619098255	-0.243308
O	 0.5505164999	 0.0035341599	 0.0874515662	-0.221761
C	 0.9866901031	-0.6283539836	-1.0521399757	 0.09577
C	 1.590877244	-1.9680556133	-0.8926229725	-0.349539
C	 0.2107445587	-1.8750597663	-1.5826812953	-0.064286
C	-0.9353374011	-2.3180650635	-0.8357470537	 0.275519
C	-1.8994620174	-2.6867286125	-0.2191681155	-0.465147
C	 0.1659934805	-2.0533272562	-3.0091540077	 0.264074
C	 0.1539590628	-2.1762082774	-4.2054445076	-0.447575
H	-0.0788536005	 1.7597878236	-0.8467056739	 0.111389
H	-1.3511497567	 0.5287997159	-0.5868704607	 0.132347
H	-0.6888029613	 1.4390584775	 0.8001940109	 0.132861
H	 1.3627314081	 0.0248510809	-1.8405961281	 0.106255
H	 2.4295360412	-2.2463819858	-1.5187592938	 0.137114
H	 1.5788635942	-2.3887072852	 0.1055652457	 0.14676
H	-2.7491564642	-3.0187762636	 0.3239467837	 0.194848
H	 0.1296374569	-2.2959164158	-5.2601070766	 0.194678
101.5223	110.9601	130.3696	149.2728	202.7476	205.5347	278.8815	371.7729	433.3699	475.7104	497.7518	565.5747	574.0971	577.1492	610.8284	655.0949	662.0386	666.7793	771.8522	857.5336	933.7191	1026.1192	1031.5514	1080.5596	1121.4214	1170.6164	1182.5755	1232.3079	1264.7405	1291.3416	1398.0387	1462.1319	1487.8921	1492.6994	1504.6175	2235.5064	2237.605	2999.5286	3069.5775	3100.1197	3133.5098	3151.2578	3250.8891	3503.2451	3504.2226
COC1CC1(C#C)C#C	CO[C@H]1CC1(C#C)C#C	
InChI=1S/C8H8O/c1-4-8(5-2)6-7(8)9-3/h1-2,7H,6H2,3H3	InChI=1S/C8H8O/c1-4-8(5-2)6-7(8)9-3/h1-2,7H,6H2,3H3/t7-/m0/s1
