17
gdb 97497	3.5294	0.77033	0.63857	1.3473	83.26	-0.245	-0.0692	0.1759	1729.3693	0.134142	-418.00816	-417.997953	-417.997008	-418.045214	35.411	
C	 0.0560480642	 1.5590268899	 0.0837282455	-0.365535
C	-0.0319281297	 0.0233082022	 0.0217017789	-0.330797
C	-1.3959562089	-0.4783249158	 0.0791322917	 0.125905
C	-2.5426507978	-0.853984986	 0.1225246972	 0.088413
C	-3.8746915587	-1.3833771506	 0.1915373375	 0.168922
O	-4.1112384476	-2.5731575796	 0.3069670025	-0.324282
C	-5.0217153942	-0.3867595031	 0.1030216083	 0.287602
N	-6.2308162278	-0.991302256	 0.2897991715	-0.54577
N	-4.7409631565	 0.8442324797	-0.104858562	-0.513936
H	 1.1003706952	 1.8793835424	 0.0289943112	 0.117621
H	-0.4923583542	 2.0117880933	-0.745830095	 0.140403
H	-0.3739922855	 1.9341742191	 1.0156868762	 0.136916
H	 0.4349492717	-0.3431109326	-0.9021323094	 0.143669
H	 0.5452849688	-0.4224543519	 0.8421875823	 0.142245
H	-6.2271985325	-2.0005135491	 0.272944585	 0.270939
H	-7.0752625907	-0.5134713168	 0.0262173839	 0.252299
H	-5.5863110658	 1.4180539149	-0.1552004854	 0.205384
22.9914	58.633	64.6312	139.8061	182.0748	231.5782	299.4146	316.6249	378.6881	392.8547	462.3149	482.064	527.7501	549.6834	622.2792	681.0781	778.9582	827.1067	885.0766	893.6136	1009.2502	1081.1128	1092.5093	1098.5732	1135.6908	1236.5519	1281.6776	1347.549	1412.2079	1431.1993	1460.0874	1494.397	1502.7343	1597.9616	1718.2023	1735.9769	2335.2283	3021.9694	3049.7695	3050.0129	3124.7981	3132.8335	3439.4423	3579.3827	3715.2919
CCC#CC(=O)C(N)=N	CCC#CC(=O)C(=N)N	
InChI=1S/C6H8N2O/c1-2-3-4-5(9)6(7)8/h2H2,1H3,(H3,7,8)	InChI=1S/C6H8N2O/c1-2-3-4-5(9)6(7)8/h2H2,1H3,(H3,7,8)
