23
gdb 77571	2.1991	1.42894	1.2859	1.1419	85.23	-0.245	0.0768	0.3218	1179.0065	0.203394	-388.269891	-388.259896	-388.258951	-388.303553	39.156	
C	-0.4442449963	 1.5373413003	 0.4269674833	-0.423164
C	-0.1215516866	 0.0594692339	 0.2356091485	-0.09434
C	 0.2593968991	-0.4474691604	-1.1631361764	 0.404717
O	-0.6414657236	-1.0430874806	-2.0341318039	-0.470065
C	 1.5756077282	 0.1069222758	-1.6284780026	-0.372268
C	 1.5549842198	-1.0423711587	-0.6433753682	-0.144249
C	 1.2328489185	-0.5651325722	 0.7880051145	 0.326522
C	 2.2361554621	 0.3866463984	 1.4398405386	-0.443221
C	 0.9555068992	-1.7530398	 1.7124472764	-0.443196
H	 0.3435335348	 2.1882931513	 0.03583109	 0.112122
H	-1.3750292339	 1.7970245479	-0.0904829191	 0.11018
H	-0.5808893632	 1.7822518657	 1.4858554617	 0.114764
H	-0.957045369	-0.5416567324	 0.6089306044	 0.075166
H	-0.9755209962	-0.3667058131	-2.6329767944	 0.283335
H	 1.8384609692	-0.1872290056	-2.640069596	 0.110711
H	 1.9250444335	 1.0963288865	-1.3457368232	 0.101584
H	 2.0105438046	-1.996263414	-0.8850295491	 0.084943
H	 2.4975651538	 1.2315757123	 0.7970363075	 0.109462
H	 1.8402232645	 0.7935243417	 2.3773726129	 0.110256
H	 3.1656740815	-0.1430391056	 1.6774995998	 0.11129
H	 1.8805237683	-2.2956597418	 1.9413297236	 0.108031
H	 0.5204251458	-1.4195043688	 2.6616055425	 0.108274
H	 0.2593470458	-2.4605964506	 1.2504228392	 0.119145
122.3554	191.3423	199.4067	210.7876	234.6493	243.7631	256.539	264.6405	322.9848	349.1205	404.4265	457.8761	484.8921	538.3411	578.7057	691.9935	727.3123	810.4079	863.7898	916.4138	939.0668	949.0493	972.5977	1002.9165	1013.4322	1025.7296	1049.7362	1073.7253	1096.0837	1126.4293	1164.3697	1195.2007	1219.42	1243.0337	1274.6071	1282.4896	1328.9491	1370.5827	1398.7641	1403.6985	1410.0837	1422.263	1480.8172	1483.4593	1492.8237	1496.4943	1498.1193	1506.7411	1510.723	3019.1056	3026.8158	3030.0376	3051.1862	3082.9766	3087.2074	3089.9106	3096.4837	3101.7822	3107.691	3114.5333	3172.9565	3200.1403	3797.8341
CC1C2(O)CC2C1(C)C	C[C@H]1[C@@]2(O)C[C@H]2C1(C)C	
InChI=1S/C8H14O/c1-5-7(2,3)6-4-8(5,6)9/h5-6,9H,4H2,1-3H3	InChI=1S/C8H14O/c1-5-7(2,3)6-4-8(5,6)9/h5-6,9H,4H2,1-3H3/t5-,6+,8+/m1/s1
