17
gdb 47573	2.598	1.58681	1.08932	1.5186	67.82	-0.2401	-0.0328	0.2072	1076.5671	0.136632	-458.948486	-458.940862	-458.939918	-458.980933	29.031	
O	-0.0638380029	-0.0734936019	 0.2661277009	-0.282452
C	 0.0065430231	 1.1135436818	 0.0561543264	 0.364463
C	-1.2758984016	 1.9676966395	-0.0043722548	-0.170406
O	-1.4726742967	 2.7380824001	-1.1745553989	-0.236886
C	-0.5482556061	 3.7943899252	-1.379293193	-0.121931
C	 0.6820889013	 3.3073582374	-2.1276716197	 0.049176
O	 1.9668174707	 3.7163699035	-1.6454630949	-0.25044
C	 1.5905839463	 2.3446201988	-1.4930971387	 0.046375
C	 1.347588144	 1.8333194944	-0.0793280278	-0.342572
H	-2.1217797831	 1.2809795052	 0.0621039678	 0.135901
H	-1.2795738386	 2.619377997	 0.888450337	 0.10463
H	-1.0765310816	 4.5502250248	-1.9681249664	 0.118634
H	-0.2433350879	 4.2551664909	-0.4293083437	 0.107084
H	 0.5964672432	 3.288986755	-3.2138113014	 0.103737
H	 2.1325180746	 1.6593965747	-2.1433874152	 0.11332
H	 1.361208273	 2.6927114347	 0.5995612593	 0.131891
H	 2.1348174723	 1.1398126888	 0.2236238329	 0.129476
75.0026	127.9722	252.5006	304.4043	329.3687	361.6239	441.5339	451.2389	503.8234	599.9602	640.7818	813.9036	819.7459	858.1341	879.0593	940.2323	975.0145	1004.303	1050.3112	1054.2989	1128.2677	1141.606	1157.7696	1181.5073	1238.2968	1269.6356	1288.9578	1304.5991	1316.9875	1371.1208	1379.1468	1402.0466	1468.678	1470.8537	1478.925	1499.4471	1815.0364	2945.1822	3011.8463	3056.2885	3084.3056	3111.1195	3118.3871	3120.0775	3131.1787
O=C1COCC2OC2C1	O=C1COC[C@H]2O[C@H]2C1	
InChI=1S/C6H8O3/c7-4-1-5-6(9-5)3-8-2-4/h5-6H,1-3H2	InChI=1S/C6H8O3/c7-4-1-5-6(9-5)3-8-2-4/h5-6H,1-3H2/t5-,6+/m0/s1
