21
gdb 119471	4.46801	0.86186	0.79924	1.4621	80.17	-0.2481	0.0788	0.3268	1529.1163	0.180404	-424.180872	-424.171234	-424.17029	-424.215839	35.073	
C	 0.4513194655	 1.427842311	-0.0694733918	-0.220165
O	 0.8107227449	 0.0680934582	-0.1335198056	-0.237055
C	 0.0372528653	-0.6581258942	-1.0647614074	-0.191883
C	 0.4407634008	-2.0954898905	-0.9927994317	 0.426285
C	 0.5687114409	-2.9985007896	 0.2413946943	-0.318438
C	 1.66206911	-3.8264164554	-0.5367117832	 0.011832
C	 1.4138694522	-5.3080653466	-0.7798481638	-0.403897
C	 1.4538542964	-2.8708044624	-1.7269067265	-0.05225
O	 0.0651937665	-2.9357915604	-2.0926780401	-0.299417
H	 0.5970486359	 1.93526262	-1.0362019521	 0.106015
H	-0.6007025903	 1.5586151723	 0.229982454	 0.106029
H	 1.0933055851	 1.900410648	 0.6776260093	 0.128487
H	-1.0384047277	-0.5560730721	-0.8349250373	 0.093416
H	 0.1874020055	-0.289152819	-2.0922792158	 0.100052
H	 0.9709794838	-2.4754105201	 1.1104663179	 0.119234
H	-0.3441600175	-3.5339903421	 0.5160568927	 0.10021
H	 2.6461952087	-3.6608951299	-0.0870195154	 0.078595
H	 0.4523844628	-5.453395383	-1.2802779384	 0.132329
H	 2.1970684713	-5.7437995951	-1.4101918158	 0.111612
H	 1.3971171006	-5.8645194236	 0.1632288116	 0.113144
H	 2.1503495793	-2.5741061654	-2.5039914451	 0.095865
66.9377	83.63	98.2873	176.1045	217.5136	233.6843	250.4704	324.9182	371.2824	407.9557	453.5936	573.2797	669.5981	737.8067	808.4539	855.2105	887.4234	922.8001	935.4434	993.6129	1000.7287	1031.8384	1058.3037	1106.0048	1115.191	1156.8021	1178.0569	1185.0969	1201.9113	1219.8185	1227.9469	1250.6133	1269.4219	1300.5833	1361.2592	1392.077	1404.011	1464.8471	1480.0643	1485.4374	1490.1629	1495.5504	1503.6483	1504.6298	1521.4584	2946.3945	2971.5899	2990.8551	3015.2024	3031.3808	3058.5389	3065.6808	3093.6843	3116.3378	3116.773	3132.7574	3175.4745
COCC12CC(C)C1O2	COC[C@]12C[C@@H](C)[C@H]1O2	
InChI=1S/C7H12O2/c1-5-3-7(4-8-2)6(5)9-7/h5-6H,3-4H2,1-2H3	InChI=1S/C7H12O2/c1-5-3-7(4-8-2)6(5)9-7/h5-6H,3-4H2,1-2H3/t5-,6-,7-/m1/s1
