15
gdb 45709	3.15467	1.69248	1.12693	3.7075	66.9	-0.2444	-0.0016	0.2428	1009.5218	0.115658	-453.999447	-453.992382	-453.991438	-454.031461	25.878	
O	 0.0126100753	-0.0313420025	 0.0406905844	-0.359492
C	-0.0046447488	 1.1729500659	 0.0428325367	 0.370982
C	-1.1932995894	 2.1658769988	-0.0241194038	-0.292823
N	-0.6374880572	 3.5305287662	-0.0497354731	-0.375818
C	 0.6139874012	 3.33969161	 0.0157403087	 0.512511
O	 1.6331445308	 4.2093227924	-0.0046620131	-0.257938
C	 2.8593234781	 3.4774336003	 0.2387040261	-0.105096
C	 2.5236962578	 1.9692631594	 0.0478875558	-0.204992
N	 1.0826678111	 2.033515055	 0.1070632164	-0.151407
H	-1.7930904545	 1.9635874664	-0.9183319566	 0.148458
H	-1.849274724	 2.0199789462	 0.8415124585	 0.147868
H	 3.6105449233	 3.8410533978	-0.4634370236	 0.142065
H	 3.1870842095	 3.6910608078	 1.2603486482	 0.138335
H	 2.8707479997	 1.5832845235	-0.9168017903	 0.140805
H	 2.9447368472	 1.348865743	 0.8425327956	 0.146542
104.0715	124.3262	165.5649	276.3236	297.9276	552.6746	569.8403	624.7753	659.6731	725.3047	744.4574	777.6121	864.3315	946.2972	978.8194	991.9521	1035.8385	1082.704	1125.6844	1139.8919	1179.9341	1218.8418	1245.7052	1261.7306	1289.1021	1352.5539	1386.1889	1447.4875	1455.2549	1520.832	1530.7243	1771.3661	1849.4435	3044.8343	3048.1418	3063.0304	3082.7502	3100.3468	3131.8293
O=C1CN=C2OCCN12	O=C1CN=C2OCCN12	
InChI=1S/C5H6N2O2/c8-4-3-6-5-7(4)1-2-9-5/h1-3H2	InChI=1S/C5H6N2O2/c8-4-3-6-5-7(4)1-2-9-5/h1-3H2
