23
gdb 104779	2.22797	1.44132	1.06786	1.8083	84.44	-0.2485	0.0758	0.3243	1250.0647	0.204493	-388.25976	-388.250184	-388.24924	-388.293829	36.76	
C	 0.7034286154	-0.2144974648	 1.3625723706	-0.394443
C	 0.0400238632	-0.0999601376	-0.0146744628	-0.240771
C	-1.3862196217	-0.6562552074	-0.0900159384	 0.323296
C	-2.3766458925	-0.0218484794	 0.8970211177	-0.242988
C	-2.5708228103	 1.49000701	 0.7356149201	-0.391898
C	-1.9881931182	-0.7523740823	-1.5524503865	-0.32355
C	-2.0586872818	-2.2725910856	-1.3817664196	 0.037769
O	-0.727924409	-2.7408891594	-1.1239559398	-0.254262
C	-1.4817467339	-2.2048258194	-0.0323510042	-0.011615
H	 1.7463392695	 0.1138125021	 1.3166379218	 0.113865
H	 0.2012329457	 0.3982998414	 2.1181841023	 0.114775
H	 0.7020126427	-1.2503956887	 1.7199106852	 0.118129
H	 0.0367315282	 0.9485574413	-0.3377395938	 0.092421
H	 0.6407243859	-0.6453806241	-0.7496588748	 0.113802
H	-3.3467446086	-0.5243774472	 0.7844000246	 0.091656
H	-2.0494175854	-0.2379119365	 1.9218779225	 0.09811
H	-1.6485540574	 2.0422328822	 0.9399067314	 0.122489
H	-2.8922229919	 1.7478459678	-0.2791649772	 0.117894
H	-3.3347698347	 1.8572725943	 1.4277491594	 0.11375
H	-2.9702486383	-0.2798003449	-1.6341528587	 0.102333
H	-1.3496705071	-0.4092062196	-2.3706064348	 0.105218
H	-2.7513616822	-2.981836979	-1.8201424062	 0.100542
H	-1.6237169875	-2.8428425632	 0.8339778115	 0.09348
83.9871	125.6469	165.8783	183.7721	204.7699	224.5683	298.5048	325.1687	369.9726	414.2773	445.5548	556.9775	651.1401	769.1953	782.5774	800.4673	833.9105	863.0028	873.0546	929.1392	945.2747	968.3537	990.8213	1002.7351	1043.4502	1047.7235	1051.5818	1085.0712	1127.7178	1161.3876	1181.3538	1226.469	1248.6493	1256.4659	1267.5344	1319.9082	1322.4516	1364.7976	1382.2931	1394.7852	1411.5441	1412.6114	1470.8762	1485.4051	1491.8548	1500.9368	1502.7316	1504.4106	1514.062	3014.3534	3030.3657	3032.4359	3038.1321	3046.3181	3060.5909	3072.6788	3098.8654	3101.9899	3103.5402	3109.6777	3116.9303	3165.1579	3186.354
CCC1(CC)CC2OC12	CCC1(CC)C[C@H]2O[C@@H]12	
InChI=1S/C8H14O/c1-3-8(4-2)5-6-7(8)9-6/h6-7H,3-5H2,1-2H3	InChI=1S/C8H14O/c1-3-8(4-2)5-6-7(8)9-6/h6-7H,3-5H2,1-2H3/t6-,7-/m1/s1
