18
gdb 48728	3.59475	1.47231	1.31354	3.835	76.16	-0.2374	-0.0322	0.2052	1000.9977	0.14925	-401.898086	-401.891089	-401.890145	-401.929475	28.332	
O	-0.0380501319	 0.0677172634	-0.3159669985	-0.254593
C	 0.1502214821	 1.1180716982	 0.2454351556	 0.103954
C	 1.3172086424	 2.0125691413	-0.0017425909	 0.22292
C	 2.3049393031	 1.658526181	-1.0609276219	-0.293831
N	 2.6885021322	 1.4501712895	 0.3349684252	-0.131492
C	 3.2398534976	 2.6448698349	 1.0572414638	 0.017828
C	 2.7755440169	 3.9267421523	 0.3143167684	-0.251752
C	 1.377539074	 3.3777007884	 0.7016437476	-0.119567
C	 2.0661131733	 2.9294020838	 2.0432871413	-0.214119
H	-0.5693171772	 1.4996105494	 1.0060918384	 0.069869
H	 2.1176996472	 0.7265094836	-1.5851747323	 0.14467
H	 2.7709312671	 2.4340133427	-1.6571466731	 0.121304
H	 4.2654699664	 2.4812512208	 1.3851152112	 0.084531
H	 3.022650415	 4.8225243585	 0.8856667683	 0.108893
H	 3.028683863	 4.0910194457	-0.7329177947	 0.102114
H	 0.4807442043	 3.9963948181	 0.6777140074	 0.075827
H	 1.6540634076	 2.065170277	 2.5692080565	 0.110285
H	 2.256234157	 3.7552743315	 2.7313974178	 0.103159
99.2418	186.0996	219.6103	369.1663	436.5344	481.0549	549.2825	571.7754	669.9667	725.3925	727.6983	808.7815	838.2664	848.0267	885.2294	911.6222	936.3612	991.6739	1003.1392	1037.2124	1042.4446	1065.0438	1091.7082	1101.8488	1113.0596	1127.2966	1163.3012	1190.6298	1218.1064	1244.0557	1248.2305	1286.2396	1301.807	1340.7575	1431.7858	1474.6487	1498.3266	1546.26	1818.3312	2865.1496	3068.7724	3089.4755	3120.8328	3130.1129	3132.7236	3138.3648	3143.4073	3224.1439
O=CC12CN1C1CC2C1	O=C[C@]12CN1[C@H]1C[C@@H]2C1	
InChI=1S/C7H9NO/c9-4-7-3-8(7)6-1-5(7)2-6/h4-6H,1-3H2	InChI=1S/C7H9NO/c9-4-7-3-8(7)6-1-5(7)2-6/h4-6H,1-3H2/t5-,6+,7-,8?/m0/s1
