19
gdb 40061	3.24951	1.511	1.43099	0.604	73.66	-0.246	0.0838	0.3298	984.7818	0.1617	-423.016165	-423.009238	-423.008294	-423.047339	28.577	
C	 0.0809460675	 1.5014808565	 0.0103414871	-0.279788
O	 1.2135025682	 0.6208377412	-0.0069168111	-0.296738
C	-0.0948458687	 0.0490578211	 0.013931374	 0.487845
C	-0.4921330432	-0.8068147389	 1.2311284237	-0.307686
C	-1.0867857278	-2.0487846021	 0.5325218191	 0.100548
C	-0.1965027752	-2.199330273	-0.7114547604	-0.243855
C	-0.5342112792	-0.7716816641	-1.1981424209	-0.128222
C	-2.0724460173	-0.8427522459	-1.1591428417	-0.077838
O	-2.3597436017	-1.6791080393	-0.0219641604	-0.281019
H	-0.0560124404	 2.0671976646	 0.9313615729	 0.114336
H	-0.081111299	 2.0691327312	-0.9060764661	 0.110412
H	 0.3952643648	-1.0467353698	 1.8251547179	 0.11562
H	-1.2302762708	-0.3255993481	 1.8768702515	 0.113491
H	-1.2324529617	-2.9223732244	 1.1675917391	 0.078347
H	 0.8633877593	-2.3346563369	-0.4840197493	 0.114053
H	-0.540974273	-2.9889046064	-1.3830811381	 0.104632
H	-0.1103778929	-0.4353347688	-2.14387355	 0.076906
H	-2.5420090994	 0.1395093391	-1.0257309673	 0.099544
H	-2.4845853295	-1.304214156	-2.0656265899	 0.099413
109.2329	234.0075	310.1918	331.8973	388.4189	433.0073	497.5885	545.3244	666.174	788.937	801.7156	832.7869	857.3761	882.8205	917.3301	929.2755	944.688	958.6952	963.6322	983.744	1020.0544	1051.8519	1083.133	1122.3236	1125.7979	1156.7778	1174.8649	1187.6227	1207.6762	1226.4582	1263.849	1280.4944	1294.4932	1311.9209	1331.5061	1381.7869	1432.7549	1469.2592	1491.7883	1527.7048	1537.5139	3013.0719	3050.8757	3058.5982	3071.0816	3074.983	3113.5644	3123.3387	3127.7553	3129.1332	3159.2427
C1OC11CC2CC1CO2	C1O[C@]21C[C@@H]1C[C@H]2CO1	
InChI=1S/C7H10O2/c1-5-3-8-6(1)2-7(5)4-9-7/h5-6H,1-4H2	InChI=1S/C7H10O2/c1-5-3-8-6(1)2-7(5)4-9-7/h5-6H,1-4H2/t5-,6-,7-/m0/s1
