14
gdb 48905	4.32264	1.22536	1.15255	3.1753	66.85	-0.264	-0.0513	0.2126	1036.078	0.100213	-436.647592	-436.640466	-436.639522	-436.679512	26.613	
O	-0.6316081905	 0.7553635226	 0.6386775351	-0.247308
C	 0.1510541256	 0.9887571431	-0.2476803466	 0.06158
C	 1.3730055096	 1.7973764827	-0.0341819019	 0.250657
C	 1.9102732288	 2.3715444686	 1.2790698917	-0.299835
C	 2.8736725896	 3.2095471383	 0.3845384406	-0.211501
C	 1.8958944554	 2.9383992679	-0.8246116283	-0.092808
N	 2.5159059941	 1.5816021957	-1.0179554253	-0.235703
C	 3.6835896274	 2.1033163182	-0.2820952008	 0.449856
O	 4.8232478891	 1.7901188303	-0.3817270478	-0.298984
H	 0.0100265185	 0.6250033005	-1.2859826479	 0.101646
H	 1.1488881456	 2.986235531	 1.7617717976	 0.139192
H	 2.3622595643	 1.6896631491	 2.0044095938	 0.130402
H	 3.315412475	 4.1459414479	 0.7120021682	 0.114025
H	 1.5170749875	 3.5258477441	-1.6479842384	 0.138783
85.3037	156.6053	190.6231	250.1137	398.85	435.2912	496.5369	638.8515	664.8349	743.0084	771.3832	783.8563	843.1404	877.6188	917.4495	930.4334	988.5903	1012.3489	1042.5629	1058.0519	1110.1683	1144.6615	1158.6402	1206.1209	1254.1963	1259.2245	1354.8113	1419.4637	1500.2168	1815.2723	1935.6227	2930.4089	3069.3183	3136.0673	3172.8891	3235.9823
O=CC12CC3C1N2C3=O	O=C[C@]12C[C@@H]3[C@H]1N2C3=O	
InChI=1S/C6H5NO2/c8-2-6-1-3-4(6)7(6)5(3)9/h2-4H,1H2	InChI=1S/C6H5NO2/c8-2-6-1-3-4(6)7(6)5(3)9/h2-4H,1H2/t3-,4-,6-,7?/m1/s1
