18
gdb 28870	2.26747	1.79036	1.01305	3.9793	82.24	-0.2244	-0.0154	0.209	1153.3855	0.148019	-402.020226	-402.011501	-402.010557	-402.05346	32.7	
C	-0.1208834967	 1.5176225602	 0.0469199454	-0.5079
C	-0.0371691677	 0.0118073351	-0.0056084861	 0.217968
C	 0.0678533718	-0.6937381415	-1.2145596486	 0.090259
C	 0.1068268574	-0.0214282687	-2.5655004242	-0.543198
C	 0.1385409967	-2.0898404944	-1.1387812842	 0.279734
O	 0.2424615572	-2.8887107731	-2.2382817383	-0.435236
C	 0.1032268605	-2.720378696	 0.1056517631	-0.058895
N	 0.0038420688	-2.0529774339	 1.2504485565	-0.277894
C	-0.0637553439	-0.7224186953	 1.1819257243	-0.077902
H	 0.7625328234	 1.9938033514	-0.3935290451	 0.131483
H	-0.995906831	 1.8994452329	-0.4913284109	 0.131481
H	-0.1967912205	 1.8594943009	 1.0821187753	 0.13029
H	 1.0363731247	-0.2506329506	-3.1038907404	 0.137536
H	-0.7281363357	-0.3447916999	-3.2016768702	 0.137557
H	 0.0444090062	 1.0635381789	-2.4837281097	 0.140471
H	 0.2575956343	-2.3463542879	-3.0327286359	 0.297899
H	 0.1589981899	-3.8050145815	 0.1496234525	 0.111452
H	-0.1446618055	-0.1972368666	 2.1312816265	 0.094895
76.6325	143.6722	176.5238	233.3662	273.6109	312.6765	315.4675	320.2904	474.557	495.7105	532.8173	580.8062	587.6609	670.3256	760.6484	823.6412	903.0243	924.2889	952.9649	1013.1989	1043.0894	1068.9987	1105.6171	1161.1116	1208.7176	1235.17	1310.0403	1318.0232	1346.6683	1406.4069	1417.3808	1460.7775	1481.3751	1481.4949	1500.3186	1508.5103	1521.409	1611.0792	1637.0286	3010.0769	3028.5946	3053.9612	3080.3021	3115.3761	3145.3109	3146.2914	3163.7514	3833.9719
CC1=C(C)C(O)=CN=C1	Cc1c(C)c(O)cnc1	
InChI=1S/C7H9NO/c1-5-3-8-4-7(9)6(5)2/h3-4,9H,1-2H3	InChI=1S/C7H9NO/c1-5-3-8-4-7(9)6(5)2/h3-4,9H,1-2H3
