14
gdb 19870	3.96743	2.4154	2.13063	2.2126	55.37	-0.2377	0.0616	0.2993	674.3841	0.108652	-419.620482	-419.614786	-419.613842	-419.650236	22.24	
C	 0.2096514806	 1.2707014911	 0.3126274912	 0.038293
O	 1.3116066274	 1.8820100646	-0.3464626999	-0.261478
C	 2.0322267508	 0.8721294185	-1.0027680655	 0.048334
C	 3.0699335554	 0.0476007674	-0.2006083325	-0.011471
O	 2.4235991847	-0.3919435953	 0.9946743554	-0.231259
C	 2.1793068309	-1.1375450929	-0.1986596509	-0.011472
C	 1.0973921844	-0.3718392986	-1.0007167409	 0.048336
O	-0.072044455	 0.0408085683	-0.3434282679	-0.261477
H	 0.4483693894	 1.0930446641	 1.3671852788	 0.116466
H	-0.6630678214	 1.9263806161	 0.2133612038	 0.109837
H	 2.3896724514	 1.2315996562	-1.9699313939	 0.096568
H	 4.1511169929	 0.1191397905	-0.1878969432	 0.111378
H	 2.41136073	-2.195928577	-0.1840896462	 0.111378
H	 0.8500097387	-0.817205163	-1.9665544084	 0.096568
159.1505	244.6574	283.3871	479.2334	650.8247	654.4931	736.7036	775.6631	832.2017	874.9748	886.5046	904.	934.4277	969.8516	998.4979	1028.3371	1030.0183	1098.4531	1133.2114	1173.1114	1198.2901	1210.1665	1229.0543	1232.6908	1267.0509	1329.5178	1345.7847	1376.5941	1440.1544	1541.6816	3025.9931	3074.5936	3090.3321	3099.9237	3184.0507	3199.036
C1OC2C3OC3C2O1	C1O[C@H]2[C@H]3O[C@H]3[C@H]2O1	
InChI=1S/C5H6O3/c1-6-2-3(7-1)5-4(2)8-5/h2-5H,1H2	InChI=1S/C5H6O3/c1-6-2-3(7-1)5-4(2)8-5/h2-5H,1H2/t2-,3+,4-,5+
