22
gdb 121966	5.49155	0.57171	0.54501	4.7059	84.67	-0.2651	0.0349	0.3	2049.5189	0.191821	-404.368236	-404.357198	-404.356254	-404.405488	38.294	
C	-0.0771100386	 1.5039566989	 0.0064112392	-0.386141
C	-0.0250976538	-0.0140119299	 0.0115046293	-0.032078
O	-1.3498200054	-0.510489664	 0.01316966	-0.246484
C	-1.4243001847	-1.9150099645	 0.0195631377	-0.056592
C	-2.8976477488	-2.3258010191	-0.0283997825	 0.002088
C	-3.5833367871	-1.8236367867	-1.3025899027	-0.396767
C	-2.9941529479	-3.8625061173	 0.1157137061	-0.349023
C	-4.3714122684	-4.3405438863	 0.210684595	 0.265006
N	-5.4651180205	-4.7055390269	 0.289187032	-0.311355
H	 0.9349720504	 1.919231676	 0.0064998572	 0.117466
H	-0.601684959	 1.8673058367	-0.8817532585	 0.1284
H	-0.604260855	 1.8726747518	 0.8907669694	 0.129149
H	 0.5173964168	-0.3875214149	-0.8733935657	 0.0881
H	 0.5173346069	-0.380616346	 0.8994028203	 0.087738
H	-0.8857922338	-2.336925473	-0.8491242384	 0.083702
H	-0.9423878978	-2.3220881579	 0.9262100504	 0.083526
H	-3.3892648426	-1.8730398395	 0.8407976371	 0.10639
H	-3.128453312	-2.275191544	-2.1927973296	 0.110683
H	-4.6479848175	-2.0728755062	-1.3037474083	 0.138429
H	-3.4762184331	-0.740351213	-1.3816261262	 0.139631
H	-2.5183855028	-4.3514536379	-0.7437925731	 0.149375
H	-2.4544407453	-4.1978491763	 1.0092438815	 0.148759
46.7024	67.9099	83.4321	101.9887	153.2181	174.3458	240.9867	246.9435	273.4016	307.3024	391.6802	397.6083	431.9439	487.1987	589.8793	821.3784	841.0749	882.8241	909.1884	931.5194	941.5199	979.5364	1046.7289	1108.2736	1131.5315	1155.05	1163.5441	1173.6844	1193.7551	1240.1435	1279.4595	1293.4638	1297.1214	1358.528	1380.0692	1390.077	1406.0093	1412.9219	1452.9619	1466.4219	1483.736	1494.8528	1499.1204	1505.2141	1513.2489	1536.7697	2361.6647	2931.6221	2957.5749	2961.0319	2981.677	3031.5845	3032.4704	3046.2597	3047.2718	3073.9451	3106.1839	3121.2076	3123.0696	3139.7872
CCOCC(C)CC#N	CCOC[C@@H](C)CC#N	
InChI=1S/C7H13NO/c1-3-9-6-7(2)4-5-8/h7H,3-4,6H2,1-2H3	InChI=1S/C7H13NO/c1-3-9-6-7(2)4-5-8/h7H,3-4,6H2,1-2H3/t7-/m0/s1
