16
gdb 44690	3.2893	1.36875	1.14731	3.2387	70.28	-0.2453	-0.0463	0.199	1063.2672	0.12498	-437.908474	-437.901053	-437.900109	-437.941253	28.085	
N	-0.3318637794	 1.3030773104	 0.1006297096	-0.525531
C	-0.1712056268	 0.0550029973	 0.0438582781	 0.399397
C	-1.1945791338	-0.9923664282	 0.4398671627	-0.315027
C	-0.6639852426	-2.2894670367	-0.1645549348	-0.050565
C	-0.9598624443	-2.5508219546	-1.6766400033	-0.373534
C	 0.5442242803	-2.393477988	-1.9660958465	 0.400485
O	 1.2374815135	-2.5831379802	-2.9182491198	-0.272722
C	 0.8306143101	-1.9695845426	-0.4970865115	-0.025413
O	 0.9888033736	-0.5562711927	-0.3737233042	-0.239841
H	 0.508395161	 1.7927174668	-0.2110020942	 0.229109
H	-1.233667374	-1.0479754046	 1.5327615399	 0.14037
H	-2.1891224628	-0.7078100942	 0.0922199517	 0.143226
H	-0.817840109	-3.1647522424	 0.4647939582	 0.095213
H	-1.3654917172	-3.5322723008	-1.9352120365	 0.141635
H	-1.5776989485	-1.7865865311	-2.1603173372	 0.144632
H	 1.6459161298	-2.4743953287	 0.0267311476	 0.108565
51.3365	83.0152	206.3912	327.2919	421.2491	436.6878	512.1402	516.0348	604.297	660.2253	742.1476	777.6172	829.247	863.0903	878.5605	896.1196	944.1105	993.0899	1027.7703	1052.2757	1067.941	1109.0468	1122.2508	1179.7181	1188.3486	1237.4828	1241.6774	1276.4115	1297.5256	1331.7796	1354.4465	1434.314	1471.3503	1780.1841	1903.6625	3055.7354	3060.7274	3086.6903	3110.5854	3121.1032	3127.4789	3478.726
N=C1CC2CC(=O)C2O1	[NH][C]1C[C@H]2CC(=O)[C@H]2O1	
InChI=1S/C6H7NO2/c7-5-2-3-1-4(8)6(3)9-5/h3,6-7H,1-2H2	InChI=1S/C6H7NO2/c7-5-2-3-1-4(8)6(3)9-5/h3,6-7H,1-2H2/t3-,6+/m1/s1
