15
gdb 29210	3.19927	1.39054	0.96975	5.0305	75.59	-0.1862	-0.0222	0.164	1134.1876	0.113367	-453.97411	-453.966022	-453.965078	-454.006357	31.486	
N	 0.0863045572	 1.3650046749	 0.1419352955	-0.58608
C	 0.0032243168	-0.0003466304	 0.0545518857	 0.310761
C	-1.1571583015	-0.7122171833	 0.0343635565	-0.27914
C	-1.1842980946	-2.1506027386	 0.0003431988	 0.386579
N	-2.2491912985	-2.849339794	-0.0147342651	-0.562207
O	 0.0637866321	-2.7912641104	-0.0177518933	-0.245689
C	 1.2157216632	-2.0789948423	-0.0107350639	-0.050587
C	 1.2545430632	-0.7382897547	 0.0244145998	 0.214692
O	 2.3937383717	 0.0245239462	 0.0232174497	-0.455237
H	 0.9646603184	 1.7806858678	-0.1216477178	 0.270479
H	-0.7354824923	 1.897187075	-0.0921248084	 0.260385
H	-2.1223012207	-0.2220416739	 0.0501624457	 0.104443
H	-2.0221136455	-3.8428102546	-0.0401394451	 0.210937
H	 2.0935631668	-2.7148118704	-0.0395681365	 0.117232
H	 3.1672959937	-0.5458074312	-0.0294480417	 0.303432
103.5784	187.7543	244.5994	312.8142	360.9546	363.3738	370.6877	427.955	436.356	457.1761	537.9796	584.7046	676.0828	709.5819	751.0652	776.0272	803.3385	822.4184	849.8635	857.7936	1066.532	1126.7327	1174.5028	1197.4456	1278.4297	1302.5169	1308.7499	1384.7096	1517.5601	1625.3684	1645.4275	1705.4675	1747.5091	3193.808	3212.4584	3497.0018	3599.4893	3714.7099	3829.7622
NC1=CC(=N)OC=C1O	N[C@@H]1C=C([NH])OC=C1O	
InChI=1S/C5H6N2O2/c6-3-1-5(7)9-2-4(3)8/h1-2,7-8H,6H2	InChI=1S/C5H7N2O2/c6-3-1-5(7)9-2-4(3)8/h1-3,7-8H,6H2/t3-/m1/s1
