18
gdb 39208	2.85309	1.9097	1.37711	2.9351	75.89	-0.2376	0.0133	0.2509	951.7452	0.150581	-401.931803	-401.924951	-401.924007	-401.96296	27.814	
C	-0.0216293228	 1.4866093772	 0.3225156112	-0.074825
O	 1.243897465	 2.0240258187	-0.0671341737	-0.285318
C	 1.9984244157	 1.063782449	-0.8084189244	 0.072058
C	 2.0235836475	 1.2090045241	-2.3158754106	-0.106382
C	 1.7582679194	 0.0511123046	-2.9245788157	-0.063108
C	 1.4517489496	-1.0697293973	-1.9469814292	-0.391082
C	 1.297092983	-0.2798650111	-0.6603775133	 0.321484
N	 1.1294864978	-0.7308363898	 0.7223742134	-0.403675
C	 0.0281195182	 0.0016741027	 0.0410776819	-0.112786
H	-0.1778404514	 1.7255107163	 1.3808112986	 0.110397
H	-0.8358296659	 1.9417541786	-0.2616059103	 0.094091
H	 3.0141786904	 1.0857572977	-0.3906025932	 0.090445
H	 2.2855979981	 2.1389094215	-2.8066901953	 0.102265
H	 1.7726720177	-0.112009919	-3.9967988566	 0.0987
H	 0.5567380071	-1.6437043944	-2.2148991385	 0.107931
H	 2.2835049457	-1.786886599	-1.8917263373	 0.117127
H	 0.8995376535	-1.7233044137	 0.7362182734	 0.229277
H	-0.8858821086	-0.529775266	-0.2034191606	 0.0934
107.4203	206.2821	261.8097	362.1044	410.9609	454.2215	535.9091	604.0899	700.5368	737.1605	780.8199	810.072	866.2207	922.0436	926.3187	941.1354	948.3204	977.0188	984.9366	1009.1381	1039.0821	1063.2638	1082.7965	1091.6528	1129.1199	1170.8085	1177.2683	1225.1692	1255.7066	1278.7644	1308.4023	1335.3779	1343.1305	1378.7997	1392.0711	1457.0515	1487.8156	1511.1921	1669.3328	2990.763	3005.5001	3012.948	3048.911	3054.7203	3164.6083	3184.4002	3212.4943	3479.5641
C1OC2C=CCC22NC12	C1O[C@@H]2C=CC[C@]32N[C@@H]13	
InChI=1S/C7H9NO/c1-2-6-7(3-1)5(8-7)4-9-6/h1-2,5-6,8H,3-4H2	InChI=1S/C7H9NO/c1-2-6-7(3-1)5(8-7)4-9-6/h1-2,5-6,8H,3-4H2/t5-,6+,7-/m0/s1
