20
gdb 64322	2.65934	1.40864	1.17896	2.2543	76.29	-0.259	0.0177	0.2767	1136.7336	0.170864	-440.309464	-440.300604	-440.29966	-440.342671	34.121	
C	 0.0349516849	 1.5142368037	 0.0437046117	-0.424857
C	-0.0545235588	-0.0077443892	-0.0092105982	 0.334193
C	-1.5179834012	-0.4673864762	 0.0668538528	-0.433339
C	 0.6524460226	-0.5652698548	-1.2586815828	-0.273271
C	 0.9473431913	-2.0414509445	-1.1474181092	 0.361014
N	 0.8957321058	-2.8132137897	-2.148508665	-0.504982
O	 1.3829361269	-2.4656523869	 0.0792260917	-0.251966
C	 0.8095998966	-1.8391036583	 1.2337499436	 0.004867
O	 0.7044684919	-0.4624920164	 1.1342318964	-0.265262
H	 1.0808123073	 1.8292731315	 0.0878542601	 0.126772
H	-0.4279655096	 1.9561282589	-0.8434392501	 0.119728
H	-0.477433418	 1.8972560692	 0.9308565526	 0.123624
H	-2.1015529271	 0.0338446238	-0.7107401881	 0.126896
H	-1.6307168937	-1.5436769983	-0.0909117098	 0.129148
H	-1.9458630015	-0.2085323686	 1.039622385	 0.126135
H	 0.0743120037	-0.393227411	-2.1681244488	 0.128251
H	 1.6136165537	-0.0481507636	-1.3658238273	 0.127708
H	 1.1747093407	-3.7578445299	-1.8728814786	 0.218504
H	-0.1653106793	-2.3136094082	 1.4210444514	 0.099192
H	 1.4906607637	-2.0547953416	 2.0591489826	 0.127647
94.4053	112.1373	210.6575	231.0457	276.5829	309.3598	331.7784	384.8697	412.7706	472.3903	486.6902	508.296	578.4819	718.9289	788.5205	830.1965	879.0584	922.4458	928.7378	942.7953	970.3923	1008.3022	1026.3941	1077.158	1135.147	1152.3863	1190.6046	1213.8689	1244.3083	1282.7416	1299.7256	1331.0828	1356.2613	1401.1425	1416.8592	1458.7295	1461.7023	1479.7591	1485.0912	1497.6612	1505.8324	1532.5076	1753.5896	2991.0789	3041.5156	3042.3318	3047.8422	3112.6554	3115.3845	3118.0266	3122.3297	3123.3863	3127.8586	3456.859
CC1(C)CC(=N)OCO1	CC1(C)C[C]([NH])OCO1	
InChI=1S/C6H11NO2/c1-6(2)3-5(7)8-4-9-6/h7H,3-4H2,1-2H3	InChI=1S/C6H11NO2/c1-6(2)3-5(7)8-4-9-6/h7H,3-4H2,1-2H3
