19
gdb 57994	3.23438	0.86454	0.77866	3.6301	80.18	-0.2328	0.0378	0.2706	1532.0011	0.156938	-419.201046	-419.190233	-419.189289	-419.238316	37.239	
C	-0.0682132938	 1.2130563025	-0.7153029337	-0.341988
N	-0.0508400925	-0.0350951231	 0.0269403164	-0.123997
C	 1.2338420854	-0.5251397068	 0.4850151983	-0.352082
C	-1.2257485185	-0.7444218878	 0.1500140193	 0.512848
O	-2.3095916017	-0.3012300718	-0.201676573	-0.421996
N	-1.1025323275	-1.9907019308	 0.7533634802	-0.377336
C	-2.2577871177	-2.882188298	 0.7561527873	-0.287005
C	-2.1074152047	-4.0151907276	-0.1558791762	 0.294856
C	-1.9519113874	-4.9545032487	-0.8895130345	-0.464068
H	 0.5204856464	 1.1367813907	-1.6395259557	 0.116061
H	-1.1020274569	 1.4421596848	-0.9672401232	 0.172741
H	 0.3469633062	 2.0283629959	-0.1102608318	 0.117449
H	 1.1433527434	-1.012622906	 1.4602228355	 0.139314
H	 1.707997923	-1.2256757125	-0.2199940868	 0.122843
H	 1.9111752535	 0.3238588471	 0.608894916	 0.13573
H	-0.2087234524	-2.4518990216	 0.7112901144	 0.245024
H	-2.4406644276	-3.2534667297	 1.7725271956	 0.130707
H	-3.1153917793	-2.2672243561	 0.4683741821	 0.180227
H	-1.8340377079	-5.7791548705	-1.548014	 0.20067
26.6948	60.1142	103.2702	117.2935	151.3635	185.3051	215.731	259.9608	319.6339	336.4822	395.9581	476.5804	481.1618	599.9899	613.0378	622.3478	664.7585	761.8402	834.7745	944.3185	987.3788	1054.6082	1089.4345	1117.1231	1134.0287	1171.2706	1212.9516	1268.9299	1299.5743	1363.2208	1397.3394	1433.7278	1472.6789	1473.6487	1496.9415	1501.2714	1506.3852	1522.9946	1544.3187	1760.2065	2237.0076	2983.1194	3007.212	3023.1292	3054.913	3073.2126	3096.7794	3113.5585	3171.7885	3505.0965	3643.2223
CN(C)C(=O)NCC#C	CN(C)C(=O)NCC#C	
InChI=1S/C6H10N2O/c1-4-5-7-6(9)8(2)3/h1H,5H2,2-3H3,(H,7,9)	InChI=1S/C6H10N2O/c1-4-5-7-6(9)8(2)3/h1H,5H2,2-3H3,(H,7,9)
