17
gdb 35335	3.8718	1.08172	0.98297	2.6162	72.28	-0.2578	0.0087	0.2666	1201.8953	0.136697	-417.970083	-417.961981	-417.961036	-418.003636	29.722	
N	-0.2021009734	-1.2079648648	-0.3133643763	-0.320921
C	-0.1218180997	-0.0622521803	-0.1768863514	 0.266365
C	 0.0235021273	 1.3859755262	-0.0093091143	-0.109399
C	-0.2268617922	 1.8819100568	 1.4486470881	-0.318783
C	 1.3113747068	 1.9740561067	 1.5795406788	 0.301783
C	 2.0340712374	 3.0937232375	 2.3458482181	-0.127225
O	 2.5776563631	 2.1513572331	 3.2933022993	-0.270066
C	 2.0735050111	 1.0313103764	 2.542840941	-0.129534
N	 1.4210484524	 1.8633905587	 0.1162722926	-0.34992
H	-0.5433214722	 1.8890762653	-0.798833146	 0.126467
H	-0.7210792008	 2.8545403547	 1.4676522669	 0.127918
H	-0.7393880904	 1.1915766314	 2.1174797361	 0.136454
H	 2.8137213938	 3.594950182	 1.756893167	 0.108494
H	 1.400268063	 3.8487817794	 2.8271082116	 0.106531
H	 1.469559468	 0.3528895025	 3.1572772276	 0.114349
H	 2.8785377572	 0.4571277175	 2.061229355	 0.102535
H	 2.1420514587	 1.2470450568	-0.2452575541	 0.23495
53.2803	79.4093	153.9817	232.2662	280.5825	365.649	397.0408	442.3866	551.2725	591.3674	697.6538	791.0419	845.1674	865.7033	901.6837	946.7752	955.9576	984.5739	999.3591	1034.4251	1064.6357	1101.4443	1148.3437	1150.965	1184.1197	1201.9525	1220.2335	1257.418	1285.9884	1300.9506	1338.534	1379.1785	1401.5419	1478.6347	1499.3189	1525.4964	2346.5176	2993.2699	3011.3008	3054.5313	3058.1356	3058.6647	3090.0319	3154.9494	3527.2871
N#CC1CC2(COC2)N1	N#C[C@H]1CC2(COC2)N1	
InChI=1S/C6H8N2O/c7-2-5-1-6(8-5)3-9-4-6/h5,8H,1,3-4H2	InChI=1S/C6H8N2O/c7-2-5-1-6(8-5)3-9-4-6/h5,8H,1,3-4H2/t5-/m1/s1
