17
gdb 15883	2.86159	1.86498	1.25328	3.0933	65.51	-0.2618	0.0189	0.2807	973.6608	0.142287	-401.000133	-400.992065	-400.991121	-401.032671	29.678	
C	-0.3122866209	 1.5135575103	-0.1389728775	-0.40424
C	 0.0795349015	 0.0565113391	-0.0317783671	 0.109491
O	 1.3708198526	-0.2131752547	-0.7037545436	-0.267042
C	 1.9188471598	-0.6829596992	 0.4610679822	 0.453255
N	 3.0878860212	-1.0486283689	 0.7481346245	-0.564621
C	 0.6701516223	-0.5114345587	 1.2900974881	-0.178405
C	 0.8964304925	 0.3489773519	 2.5374398317	-0.076906
O	 1.7554737678	-0.3258009435	 3.4299406356	-0.421859
H	 0.4663906624	 2.1714795809	 0.2540421717	 0.134721
H	-0.48841869	 1.7787278185	-1.1855389775	 0.136411
H	-1.2375217042	 1.6956654462	 0.4176671995	 0.13032
H	-0.6862067762	-0.5880680984	-0.4728557126	 0.100075
H	 3.7218187023	-0.986641001	-0.0495647323	 0.230913
H	 0.225466913	-1.4633720018	 1.5903577092	 0.116097
H	 1.3010023047	 1.3324086229	 2.2523928078	 0.089992
H	-0.0465764268	 0.5214319679	 3.0670891432	 0.10953
H	 2.5432665279	-0.5801145315	 2.925822187	 0.30227
94.2753	133.8125	161.5194	216.3861	237.3516	339.0293	391.5205	454.1815	502.9364	542.2608	665.3091	730.5658	834.8752	842.4791	861.7411	885.2333	1005.0793	1036.0435	1050.8077	1065.7991	1082.2855	1144.9521	1156.9511	1200.9861	1242.099	1252.8814	1320.5244	1358.925	1384.7154	1393.9951	1414.6119	1458.0468	1483.6574	1497.5974	1514.6816	1808.8694	2982.1982	3044.6005	3064.9304	3067.7365	3091.5947	3113.5503	3131.1074	3481.9458	3712.1455
CC1OC(=N)C1CO	C[C@H]1O[C]([NH])[C@H]1CO	
InChI=1S/C5H9NO2/c1-3-4(2-7)5(6)8-3/h3-4,6-7H,2H2,1H3	InChI=1S/C5H9NO2/c1-3-4(2-7)5(6)8-3/h3-4,6-7H,2H2,1H3/t3-,4+/m1/s1
