19
gdb 14023	5.04198	1.21221	1.13197	1.882	72.54	-0.2346	0.0693	0.3039	1122.5112	0.164743	-365.006909	-364.998677	-364.997733	-365.039822	30.184	
C	 0.3319657787	 1.5306812039	 0.162599646	-0.376771
C	-0.2101273955	 0.13588753	-0.1351601653	-0.119825
N	 0.5106329694	-0.4692601018	-1.2531345543	-0.116803
C	 1.7186010628	-1.2348114476	-0.926885897	-0.32085
C	 0.4805904058	-1.9067238506	-1.3825282729	 0.293268
C	-0.3889568922	-2.9368683715	-0.655788536	-0.143468
O	-0.6202841989	-3.6331916856	-1.8980426797	-0.276951
C	 0.1511667922	-2.6733368811	-2.6579696881	-0.138764
H	 1.3835460488	 1.485242992	 0.4640385865	 0.119168
H	 0.262145901	 2.16633432	-0.7243932924	 0.129287
H	-0.2330965895	 1.9990804313	 0.9741194582	 0.113643
H	-0.1576929659	-0.4870307331	 0.7756989528	 0.083207
H	-1.2679545823	 0.1979309927	-0.41729588	 0.10715
H	 2.5632951673	-1.1046064719	-1.5988668557	 0.117676
H	 1.9845059402	-1.3472175151	 0.1250178413	 0.108208
H	 0.1170539351	-3.5698940256	 0.0838413106	 0.105238
H	-1.3198904676	-2.5505066131	-0.2192731079	 0.103798
H	-0.4629663062	-2.119524618	-3.3792164168	 0.108843
H	 0.9939011569	-3.144083845	-3.1794247092	 0.103948
76.4565	111.757	154.2584	186.4997	253.8605	306.924	370.4964	433.8998	455.6138	613.8462	749.6749	814.4807	865.8069	884.8459	906.5496	955.2821	971.8458	1004.5864	1028.2806	1061.384	1106.2792	1111.1728	1119.6399	1145.1874	1154.2468	1177.8396	1194.7287	1225.9734	1302.4641	1311.0777	1343.0142	1388.7476	1411.2695	1444.7979	1488.3212	1489.6617	1504.996	1507.176	1520.893	1530.133	2941.2638	3002.0373	3015.3507	3040.1199	3045.6737	3048.8709	3058.3735	3078.655	3109.6414	3120.8675	3169.2089
CCN1CC11COC1	CCN1CC21COC2	
InChI=1S/C6H11NO/c1-2-7-3-6(7)4-8-5-6/h2-5H2,1H3	InChI=1S/C6H11NO/c1-2-7-3-6(7)4-8-5-6/h2-5H2,1H3
