18
gdb 24728	3.57923	1.5496	1.12254	1.708	78.59	-0.198	0.0395	0.2374	1059.5273	0.151655	-401.985542	-401.978511	-401.977567	-402.016997	28.001	
C	-0.0074405029	 1.3972533486	 0.0430129165	-0.087929
C	 1.4257273166	 1.9271687545	-0.0166883288	-0.166494
N	 2.1163176749	 1.2840843688	-1.1210905053	-0.037798
C	 3.3147482909	 1.6600182345	-1.6783482009	-0.114439
C	 3.6895226541	 0.6884645747	-2.5766438477	-0.156257
C	 2.6878550584	-0.3215853027	-2.5528640003	-0.272037
C	 1.7327315391	 0.068298472	-1.6401469435	 0.296842
C	 0.4213280264	-0.5268730467	-1.2187217877	-0.201258
O	-0.0163984939	-0.0160599904	 0.035250249	-0.240687
H	-0.4875712938	 1.7167980976	 0.9716659861	 0.116272
H	-0.591438725	 1.7920995505	-0.8048156633	 0.098638
H	 1.4274060358	 3.0129151685	-0.1612960419	 0.116097
H	 1.9386981481	 1.7067562298	 0.9281073762	 0.124677
H	 3.7964200967	 2.576682902	-1.3762418116	 0.109837
H	 4.5801885322	 0.7008313348	-3.1859859291	 0.093529
H	 2.6630141117	-1.2233920988	-3.1462311469	 0.090684
H	-0.3579190937	-0.3344082659	-1.9779401643	 0.102835
H	 0.5039925446	-1.6111134819	-1.1018628866	 0.127489
104.9517	169.8929	258.034	351.3488	371.7777	466.0848	525.3013	614.6513	633.6998	701.7297	706.6844	743.6846	768.7701	831.5665	882.2392	910.2126	958.774	986.4293	1024.1227	1050.5529	1097.9178	1125.6388	1130.9814	1199.0369	1224.6958	1245.0099	1263.796	1312.814	1323.2909	1360.2312	1371.7176	1416.6534	1429.193	1468.0288	1488.7724	1492.3497	1503.7822	1525.6659	1591.3334	2937.567	2973.6426	3021.7873	3073.6913	3082.7559	3097.1229	3236.8819	3248.3807	3265.7721
C1CN2C=CC=C2CO1	C1Cn2cccc2CO1	
InChI=1S/C7H9NO/c1-2-7-6-9-5-4-8(7)3-1/h1-3H,4-6H2	InChI=1S/C7H9NO/c1-2-7-6-9-5-4-8(7)3-1/h1-3H,4-6H2
