16
gdb 43927	3.67086	1.5798	1.37967	3.1602	69.92	-0.2574	0.0062	0.2636	937.7442	0.125793	-437.804325	-437.797936	-437.796992	-437.834929	26.572	
N	-0.034637309	 1.2552750931	-0.4065039265	-0.540323
C	-0.0123499349	 0.0619069148	-0.0433072783	 0.329089
O	 1.0891242201	-0.7947681141	 0.2343099342	-0.330318
C	 0.1772460309	-1.6741242425	 0.9528125892	 0.379926
C	-0.310937129	-3.1274244003	 1.1563685547	-0.33259
C	-1.3670641172	-2.2755453666	 2.0022486822	 0.093831
C	-0.1875739785	-1.3810735285	 2.4251556423	-0.278602
O	-2.0812066282	-1.3897592096	 1.0799482205	-0.290029
C	-0.9940213215	-1.0965606229	 0.2074490536	 0.030933
H	 0.9068059426	 1.6413635575	-0.4977203704	 0.238944
H	-0.6582686907	-3.6780629562	 0.2814251418	 0.12038
H	 0.2859227551	-3.7556828403	 1.8188704433	 0.119313
H	-2.063676522	-2.7462119143	 2.6906978912	 0.107061
H	 0.5011378972	-1.845147407	 3.1328637346	 0.111762
H	-0.4331562162	-0.3553789874	 2.7044397941	 0.124259
H	-1.1679821887	-1.5667876357	-0.7680998663	 0.116364
134.2398	261.0764	369.828	443.5816	475.5829	493.8235	556.7292	597.9971	682.6556	739.0715	765.1952	843.1545	859.5342	874.1864	892.9223	905.2157	943.4389	967.1814	999.3308	1027.0988	1060.6688	1078.6976	1100.7112	1148.0792	1159.3233	1196.6728	1216.189	1230.1255	1250.0521	1289.3429	1309.324	1378.7504	1475.1992	1511.2068	1832.984	3031.3441	3078.452	3085.8946	3149.8718	3156.3041	3169.6363	3476.1884
N=C1OC23CC(C2)OC13	[NH][C]1O[C@@]23C[C@@H](C2)O[C@@H]13	
InChI=1S/C6H7NO2/c7-5-4-6(9-5)1-3(2-6)8-4/h3-4,7H,1-2H2	InChI=1S/C6H7NO2/c7-5-4-6(9-5)1-3(2-6)8-4/h3-4,7H,1-2H2/t3-,4-,6-/m0/s1
