19
gdb 90040	2.10187	1.54913	1.02823	2.9119	78.55	-0.2366	-0.0113	0.2253	1205.0244	0.158339	-423.063123	-423.054139	-423.053195	-423.096984	33.744	
C	 0.3200273926	 1.701026006	 0.0089157556	-0.47123
C	 0.5101342118	 0.2164131428	 0.1544160069	 0.315671
C	-0.496220341	-0.6441028503	-0.576049443	-0.393963
C	-0.2456818303	-2.1442858792	-0.4870594074	 0.399551
C	 0.4462370831	-2.5920407552	 0.784871497	-0.33813
C	 1.7409200653	-1.7918285894	 1.0149707337	 0.060691
O	 2.7495983534	-2.1513210111	 0.0681057971	-0.431156
C	 1.5062409039	-0.311891614	 0.8684032886	-0.148951
O	-0.5942497936	-2.9062476676	-1.3561498633	-0.310664
H	 1.0758894475	 2.26196344	 0.5640533525	 0.125919
H	 0.3749460809	 2.0016422187	-1.044890047	 0.131726
H	-0.6704219973	 2.0087840942	 0.3684543905	 0.124563
H	-1.5042023341	-0.4546684176	-0.1720784744	 0.131766
H	-0.5546509477	-0.3715619998	-1.6362066994	 0.136778
H	-0.2318021671	-2.4066395164	 1.629324556	 0.118251
H	 0.6404589518	-3.667171283	 0.7318835292	 0.108505
H	 2.1009123352	-1.9976794355	 2.0350501614	 0.069933
H	 2.9769012975	-3.076570525	 0.2128973439	 0.283014
H	 2.2300743585	 0.3406424224	 1.348811912	 0.087724
71.8722	98.1073	139.5906	197.407	293.1135	310.4819	371.2652	384.3549	424.2276	465.2212	494.9853	514.2058	585.7926	701.5138	789.4199	835.5017	862.9764	895.7151	939.3955	962.2123	1020.9657	1040.4102	1073.3405	1090.0075	1139.425	1164.7484	1217.4744	1231.922	1241.8685	1274.2489	1329.2845	1371.769	1385.2993	1413.2878	1432.7181	1436.4984	1458.6978	1478.608	1489.1798	1741.2099	1826.6104	2971.6569	2988.5742	3018.5342	3024.8315	3062.527	3066.604	3095.08	3116.8807	3164.6766	3798.7052
CC12CC3(CC(O)C13)O2	CC1=C[C@@H](CC(=O)C1)O	
InChI=1S/C7H10O2/c1-6-3-7(9-6)2-4(8)5(6)7/h4-5,8H,2-3H2,1H3	InChI=1S/C7H10O2/c1-5-2-6(8)4-7(9)3-5/h2,6,8H,3-4H2,1H3/t6-/m0/s1
