19
gdb 119132	2.31021	1.37847	0.97325	4.1059	72.3	-0.2452	0.0222	0.2673	1228.1865	0.160314	-456.351038	-456.341859	-456.340914	-456.385282	34.525	
N	 0.3746956052	 0.8656626961	-0.9526027383	-0.547453
C	 0.0492695522	-0.0126869188	 0.033327742	 0.328457
O	 0.7720987369	-0.2254396708	 0.9965435159	-0.384122
C	-1.2603633194	-0.7695570842	-0.1164966159	 0.234222
C	-2.2455115819	-0.5082627814	-1.2467013718	-0.30931
C	-2.8889263247	 0.8867156446	-1.2863702931	-0.088192
O	-2.1136964342	 1.8581328723	-2.0041710901	-0.403426
C	-1.2007420637	-2.1521617224	 0.4516583277	-0.2559
N	-1.9011995972	-1.0946178891	 1.1782729538	-0.345405
H	 1.1936540718	 1.4241855347	-0.7628831541	 0.253075
H	-0.3575017192	 1.2907096656	-1.5139527299	 0.26829
H	-1.7765191968	-0.7153207179	-2.2183209447	 0.098971
H	-3.0502081132	-1.2409647736	-1.1289219177	 0.117889
H	-3.8906315074	 0.8229467829	-1.7290731211	 0.106826
H	-3.0031943788	 1.2795091863	-0.2721936327	 0.138894
H	-2.2137244826	 1.6738532783	-2.9439092482	 0.292109
H	-1.8359604105	-2.9202636198	 0.0180610971	 0.110419
H	-0.2413675466	-2.4828261612	 0.8345101147	 0.138367
H	-1.2722162598	-0.7617019514	 1.9093209065	 0.246288
55.4713	85.208	174.9723	215.4992	246.5276	310.3627	324.9659	364.1529	395.0225	456.4261	498.6292	569.2408	608.6761	687.4916	695.5845	785.74	824.1801	873.5355	888.3134	953.3086	997.3099	1009.0972	1027.3896	1072.9561	1114.2652	1140.4783	1166.2869	1181.311	1237.5554	1297.48	1319.1707	1335.2393	1392.76	1398.3332	1403.0488	1416.6187	1460.6268	1489.4517	1507.0687	1659.6972	1766.2292	3020.2163	3028.2182	3079.8456	3101.4461	3113.1906	3215.1	3466.0128	3470.4452	3651.6233	3817.7645
NC(=O)C1(CCO)CN1	NC(=O)[C@@]1(CCO)CN1	
InChI=1S/C5H10N2O2/c6-4(9)5(1-2-8)3-7-5/h7-8H,1-3H2,(H2,6,9)	InChI=1S/C5H10N2O2/c6-4(9)5(1-2-8)3-7-5/h7-8H,1-3H2,(H2,6,9)/t5-/m1/s1
