16
gdb 130272	3.01269	1.30476	0.94021	2.5299	68.86	-0.2081	0.0053	0.2134	1192.3769	0.125513	-471.186868	-471.178117	-471.177172	-471.220249	32.528	
N	 0.0751105332	 1.3565718953	 0.1397250245	-0.598894
C	 0.0222589981	-0.0248911405	 0.0082772163	 0.379336
N	-1.1036158479	-0.6848379742	-0.1428002447	-0.236486
O	-0.742598367	-2.0345517643	-0.1607800263	-0.235894
C	 0.6011636376	-2.1357774167	-0.0257033469	 0.342114
C	 1.2114012169	-3.4989980459	-0.0191419679	-0.190837
O	 2.3476055566	-3.558792006	 0.8410475157	-0.408242
C	 1.1528171348	-0.8970189443	 0.0925041365	 0.006811
N	 2.4921583392	-0.4910800962	 0.1898323224	-0.627966
H	 0.8294039372	 1.768211423	-0.396731331	 0.257419
H	-0.808610694	 1.7963292607	-0.0855229913	 0.259882
H	 0.4449502788	-4.2387061499	 0.2508113097	 0.125108
H	 1.589960264	-3.7718591295	-1.0110229983	 0.136702
H	 2.0377225038	-3.3808167642	 1.7360026458	 0.290128
H	 3.0941250114	-1.2842559374	 0.3816741215	 0.254563
H	 2.6198646175	 0.2083136001	 0.9138387439	 0.246255
75.7475	135.4931	193.0821	227.8473	248.6982	299.2645	370.5068	384.1547	403.487	430.9101	501.3332	597.2586	644.8117	701.2599	724.1735	784.4498	810.792	856.1927	960.1863	972.9976	1016.7952	1057.9268	1149.5219	1177.1849	1249.9516	1256.1971	1329.2042	1384.7325	1414.6198	1497.0764	1528.7425	1568.8425	1636.9251	1652.2189	1716.6879	3013.6961	3060.5892	3503.2061	3529.998	3595.1488	3627.3033	3804.6473
NC1=NOC(CO)=C1N	Nc1noc(CO)c1N	
InChI=1S/C4H7N3O2/c5-3-2(1-8)9-7-4(3)6/h8H,1,5H2,(H2,6,7)	InChI=1S/C4H7N3O2/c5-3-2(1-8)9-7-4(3)6/h8H,1,5H2,(H2,6,7)
