25
gdb 122145	2.52898	0.76984	0.67223	1.0979	87.47	-0.2425	0.0828	0.3254	1862.3624	0.225378	-426.611195	-426.599232	-426.598288	-426.64984	41.307	
C	 0.2507474751	 0.3500362594	 1.1218211141	-0.385011
C	 0.2249769206	-1.109757125	 0.7016413078	-0.02016
O	 0.7641109582	-1.2145107713	-0.5986294079	-0.241182
C	 0.7891221987	-2.535111709	-1.0862145123	-0.078876
C	 1.4205346697	-2.5618623542	-2.473588106	 0.128569
C	 0.7766963082	-1.5322218597	-3.4337880741	-0.184276
C	 0.5699335218	-2.0319284549	-4.8681750634	-0.392918
O	 2.8138323475	-2.365338784	-2.275624048	-0.245203
C	 3.6220301228	-2.6045961288	-3.4009057305	-0.231331
H	 1.2759197389	 0.7307241088	 1.1170132696	 0.129307
H	-0.3432393296	 0.9584741245	 0.4337706852	 0.124177
H	-0.159198401	 0.4646192725	 2.1298013452	 0.112291
H	 0.8101620563	-1.7252227114	 1.4060776889	 0.085847
H	-0.807932418	-1.499892888	 0.7192434852	 0.080497
H	 1.3725988449	-3.1874999629	-0.4175148558	 0.092978
H	-0.2345164785	-2.9446670288	-1.1496258515	 0.077136
H	 1.2595947678	-3.579217516	-2.8754284816	 0.056293
H	-0.189328457	-1.2251307547	-3.0203460023	 0.106372
H	 1.4009271637	-0.6327138237	-3.4192705641	 0.116198
H	 1.5101128416	-2.3200047886	-5.3480226401	 0.115332
H	-0.0886766659	-2.907703827	-4.8883193221	 0.112629
H	 0.1058965336	-1.2581888779	-5.4882804058	 0.113338
H	 3.493039569	-1.8455278552	-4.1861572039	 0.107384
H	 4.6612906731	-2.5728101916	-3.0621905815	 0.122995
H	 3.4256408283	-3.5948753627	-3.8438357851	 0.097614
47.3808	53.7356	74.015	88.5075	126.3612	145.568	209.2595	225.723	244.2865	249.2628	309.8593	338.994	366.2107	424.4339	480.3617	673.371	763.538	820.3321	837.9184	894.9256	920.0237	975.2363	1028.543	1043.3754	1084.8648	1118.6267	1129.8362	1146.2816	1161.5397	1182.6705	1188.0754	1191.035	1226.6889	1274.5442	1291.816	1296.0149	1321.3756	1377.4881	1390.3358	1397.8998	1406.3061	1415.871	1448.8782	1473.6932	1476.789	1483.2613	1493.6867	1498.328	1501.7896	1503.5246	1506.0297	1514.186	1534.8006	2930.6698	2944.8156	2956.9756	2967.6173	2972.5161	2998.4112	3021.1145	3032.537	3044.3654	3051.4019	3079.9254	3098.8605	3102.0511	3110.7538	3118.1243	3121.7235
CCOCC(CC)OC	CCOC[C@@H](CC)OC	
InChI=1S/C7H16O2/c1-4-7(8-3)6-9-5-2/h7H,4-6H2,1-3H3	InChI=1S/C7H16O2/c1-4-7(8-3)6-9-5-2/h7H,4-6H2,1-3H3/t7-/m1/s1
