17
gdb 99388	6.84822	0.54944	0.52662	4.1456	67.59	-0.2812	-0.0006	0.2806	2003.3496	0.132939	-496.152797	-496.142569	-496.141625	-496.190848	33.146	
C	 0.0733616266	 1.2235212999	-0.2035725899	-0.242545
O	 0.1279344757	-0.1902129359	 0.0396005464	-0.230969
C	 0.6425739507	-0.5519374984	 1.2265119225	 0.450197
O	 1.0369836641	 0.2276850619	 2.0589506047	-0.357284
C	 0.6657822686	-2.0586529749	 1.373293243	-0.335381
C	 1.1343126067	-2.4704396167	 2.7644043223	-0.08141
O	 1.1001232299	-3.8975100611	 2.8725194381	-0.177153
C	 2.2626738525	-4.5510857929	 3.0600586069	 0.169323
O	 2.32905072	-5.739212726	 3.1481552779	-0.271322
H	 1.0762979842	 1.6566140823	-0.179372684	 0.14393
H	-0.3683648083	 1.3357804753	-1.1932816361	 0.139052
H	-0.5425101839	 1.7192209447	 0.5506136257	 0.144923
H	-0.3317054852	-2.4589489516	 1.1669492095	 0.153011
H	 1.3252284928	-2.4770177512	 0.6042074802	 0.145179
H	 2.1425503049	-2.0909720397	 2.962656185	 0.129958
H	 0.4713193687	-2.0667131858	 3.5331669249	 0.141126
H	 3.1320192721	-3.86683708	 3.1245166026	 0.079364
24.1519	40.0412	63.4168	118.6339	123.2061	172.9059	184.707	292.7069	315.7803	361.8885	460.2002	590.1263	647.2027	730.9742	800.1994	909.0754	1010.724	1039.6532	1046.6547	1079.9703	1088.7844	1158.4513	1179.1892	1204.4632	1223.9134	1259.7155	1323.1773	1348.199	1407.989	1436.32	1463.4902	1475.6939	1482.6533	1496.992	1502.6743	1813.1177	1869.3553	2941.5143	3049.8259	3054.7899	3056.5187	3092.9012	3116.1377	3130.9908	3164.4178
COC(=O)CCOC=O	COC(=O)CCOC=O	
InChI=1S/C5H8O4/c1-8-5(7)2-3-9-4-6/h4H,2-3H2,1H3	InChI=1S/C5H8O4/c1-8-5(7)2-3-9-4-6/h4H,2-3H2,1H3
