19
gdb 85186	2.3916	1.34774	0.97765	3.2183	76.75	-0.2339	-0.0166	0.2173	1243.2049	0.157795	-423.012764	-423.003801	-423.002857	-423.04719	33.367	
O	 0.0182861818	 1.3777274132	-0.1977684258	-0.425135
C	 0.0015536813	-0.0187677285	 0.0148018619	 0.083028
C	 0.2492221629	-0.4085907133	 1.5048338471	-0.373911
C	-1.2824193405	-0.4693117764	 1.6667865818	 0.387058
O	-2.022238679	-0.4222303059	 2.6038248189	-0.292523
C	-1.4860716816	-0.4882403226	 0.1346344843	-0.12131
C	-2.5913890363	 0.3080549602	-0.4949919155	 0.031935
C	-3.1350327846	-0.0711439628	-1.8525638769	-0.278011
C	-3.9704819981	-0.2906505829	-0.6178209865	-0.265913
H	 0.9204825609	 1.6902564951	-0.0775830681	 0.288192
H	 0.6088609468	-0.5477643922	-0.7286883202	 0.069505
H	 0.7070544082	-1.3957363404	 1.6288649752	 0.126249
H	 0.7807357298	 0.3171636083	 2.1254199677	 0.122805
H	-1.5485850601	-1.5418060571	-0.1711188442	 0.096424
H	-2.5438442164	 1.3691739545	-0.2793745139	 0.102261
H	-3.4123837451	 0.7280870566	-2.5305982508	 0.114377
H	-2.7147754388	-0.9425127407	-2.344501746	 0.105778
H	-4.1148222778	-1.3091988341	-0.2736495843	 0.113357
H	-4.8225299033	 0.356952419	-0.445782725	 0.115834
55.6991	70.2928	126.1304	176.7173	276.947	295.0147	328.1513	402.4113	430.602	500.5606	566.5053	702.1429	736.2652	780.4627	825.9069	850.8898	889.7868	907.0026	933.1049	976.3689	998.5781	1045.0664	1058.2485	1060.2222	1077.0668	1118.5358	1136.1593	1189.1472	1195.451	1201.9574	1211.1102	1232.7336	1246.821	1272.5303	1322.0884	1408.8972	1420.3803	1434.1525	1472.1216	1505.8083	1896.6207	3019.7601	3034.4183	3056.5719	3118.0174	3129.6041	3137.7882	3178.522	3208.9145	3225.4001	3820.4181
OC1CC(=O)C1C1CC1	O[C@H]1CC(=O)[C@H]1C1CC1	
InChI=1S/C7H10O2/c8-5-3-6(9)7(5)4-1-2-4/h4-5,7-8H,1-3H2	InChI=1S/C7H10O2/c8-5-3-6(9)7(5)4-1-2-4/h4-5,7-8H,1-3H2/t5-,7-/m0/s1
