19
gdb 49386	3.77431	1.08605	1.04215	3.4942	80.43	-0.2437	-0.0175	0.2262	1213.9109	0.160024	-385.845831	-385.838326	-385.837381	-385.877883	29.809	
O	 0.0130176157	 0.0731787131	-0.2915173461	-0.274923
C	 0.0956200412	 1.2106960716	 0.1008058388	 0.157169
C	 1.3349291303	 2.0215792878	 0.0847137096	-0.117224
C	 1.1260853266	 3.5081662477	-0.1531472204	-0.078949
C	 1.4740887223	 3.0039883741	 1.2360869298	-0.078979
C	 2.8239854269	 3.7583527008	 1.1925161163	-0.027659
C	 4.0891183309	 3.0483508881	 0.623686445	-0.242928
C	 3.7299728588	 3.5680133862	-0.8098838823	-0.242966
C	 2.4673383547	 4.2749554369	-0.2317828501	-0.027649
H	-0.7942860768	 1.7422169762	 0.5166102438	 0.064687
H	 2.1915733538	 1.4955521253	-0.3208143623	 0.104011
H	 0.178367887	 3.8677209183	-0.5382748137	 0.09515
H	 0.8421915883	 2.9059573041	 2.1117980628	 0.095151
H	 2.9646765056	 4.4506208179	 2.0225362694	 0.075875
H	 5.0212622164	 3.4654833611	 1.0114651773	 0.10284
H	 4.1260108165	 1.9635858941	 0.7507048691	 0.108836
H	 4.4649815842	 4.270418169	-1.2094485723	 0.102827
H	 3.5445360171	 2.8047265266	-1.5696389479	 0.10886
H	 2.3506007804	 5.3402805209	-0.4303252969	 0.075872
109.1765	144.4517	224.8418	255.2489	323.3056	391.0954	447.283	551.3025	669.9286	732.5616	736.6875	811.7717	853.4796	872.8122	874.678	890.0043	949.3235	955.2605	971.384	1018.7123	1049.7483	1059.0443	1068.7767	1079.7079	1095.1198	1111.1573	1158.885	1193.1954	1204.4007	1228.1514	1237.3304	1256.9814	1271.7688	1286.2539	1291.2395	1319.2958	1373.7208	1446.1916	1476.7656	1494.3816	1823.1403	2841.3825	3061.771	3067.0439	3098.9711	3109.0316	3111.1389	3124.6444	3165.3572	3175.3597	3179.3361
O=CC1C2C1C1CCC21	O=C[C@H]1[C@H]2[C@@H]1[C@H]1CC[C@@H]21	
InChI=1S/C8H10O/c9-3-6-7-4-1-2-5(4)8(6)7/h3-8H,1-2H2	InChI=1S/C8H10O/c9-3-6-7-4-1-2-5(4)8(6)7/h3-8H,1-2H2/t4-,5+,6+,7+,8-
