19
gdb 66649	3.89571	1.52632	1.39229	1.289	77.15	-0.225	0.0785	0.3035	976.6312	0.162005	-385.84656	-385.839786	-385.838842	-385.877286	28.735	
O	-0.1178226309	 1.4246147507	-0.0046864044	-0.457352
C	 0.0240775592	 0.0618314412	-0.0151561808	 0.374322
C	 0.0655728444	-0.9884778057	 1.0669118261	-0.170298
C	-1.0396488352	-0.988085485	-0.0350963394	-0.124533
C	-0.4102099805	-1.7520681479	-1.2076355216	-0.004692
C	-0.1324968153	-3.238375898	-0.9460064872	-0.226551
C	 0.98013917	-3.2329851291	 0.1509168132	-0.224979
C	 1.235614323	-1.7437591544	 0.4220580771	-0.007929
C	 0.8900303384	-0.9473169631	-0.8784125866	-0.172332
H	 0.6465068123	 1.8081517739	 0.440287716	 0.287745
H	-0.2057453307	-0.9082046157	 2.1123157942	 0.080985
H	-2.0828183394	-0.8921895555	 0.2381699674	 0.084112
H	-0.8700455046	-1.521879942	-2.1706194554	 0.064261
H	-1.0358160759	-3.7665175614	-0.6246637118	 0.096507
H	 0.2192972675	-3.7358072674	-1.8562306696	 0.092864
H	 0.6766156119	-3.7619026312	 1.0599029675	 0.09608
H	 1.889230822	-3.7237881473	-0.213167529	 0.09241
H	 2.2041649073	-1.5112855436	 0.8706247893	 0.055858
H	 1.6363878065	-0.7126605586	-1.6347334251	 0.063521
171.3195	237.6518	255.5689	345.864	414.3144	515.7091	556.5893	652.4704	691.6199	727.3916	758.0448	789.8342	849.0626	879.1678	886.8643	910.8836	917.1567	930.3883	970.2691	993.6594	999.3717	1030.1736	1049.653	1062.7588	1100.2398	1128.6759	1131.3405	1152.3055	1214.2224	1215.2716	1237.8274	1254.5257	1263.8155	1290.396	1293.2813	1326.3162	1344.8415	1356.628	1484.9335	1494.4906	1505.8109	3033.8953	3045.9056	3067.856	3083.3641	3089.3145	3093.972	3135.5426	3188.3252	3198.9621	3784.1452
OC12C3C1C1CCC3C21	O[C@@]12[C@H]3[C@@H]1[C@@H]1CC[C@H]3[C@H]21	
InChI=1S/C8H10O/c9-8-5-3-1-2-4(5)7(8)6(3)8/h3-7,9H,1-2H2	InChI=1S/C8H10O/c9-8-5-3-1-2-4(5)7(8)6(3)8/h3-7,9H,1-2H2/t3-,4+,5-,6+,7-,8-
