18
gdb 32103	3.12606	1.23716	0.96046	0.7386	80.17	-0.2591	-0.0403	0.2188	1267.036	0.148362	-398.203805	-398.194864	-398.19392	-398.239927	31.179	
C	-0.0717895217	 1.499587343	-0.0005838941	-0.380394
C	 0.0367751217	-0.0366044137	 0.0023990115	-0.253115
C	 0.7574958099	-0.5251420856	 1.2272783503	 0.346834
N	 2.0868459102	-0.6701898157	 1.1556552658	-0.278284
C	 2.6582172254	-1.0768906768	 2.2884482808	 0.066955
N	 2.0396326082	-1.3380887711	 3.4353468375	-0.277252
C	 0.7103055832	-1.1564129307	 3.403535745	 0.349716
C	-0.0536175205	-1.4337399921	 4.6643637951	-0.460908
N	 0.0284585845	-0.7526973904	 2.3279988393	-0.299859
H	 0.9212979194	 1.9585559867	 0.0080625427	 0.131691
H	-0.5997476977	 1.8432290034	-0.894399377	 0.120925
H	-0.6209479622	 1.8504391102	 0.8781364987	 0.131492
H	-0.9639106663	-0.476903223	-0.0115879451	 0.119524
H	 0.5866631238	-0.3710540165	-0.8811467551	 0.120507
H	 3.7386345791	-1.2098978577	 2.2716926387	 0.125872
H	 0.3621476183	-0.8488956086	 5.490282282	 0.147585
H	-1.1089679034	-1.1961884215	 4.5322728981	 0.140132
H	 0.0531473081	-2.4882607799	 4.9392427757	 0.148579
18.0258	28.8882	120.9786	177.944	219.1793	279.7823	307.9769	431.4028	445.0296	566.3044	584.4603	665.8413	783.8348	801.4339	848.2877	918.0813	988.9058	1006.3654	1012.745	1024.7828	1070.2691	1079.0022	1090.4909	1200.881	1269.29	1306.8839	1311.8026	1348.2463	1385.5552	1400.5036	1425.1974	1458.9946	1474.4491	1477.0064	1480.4357	1496.8291	1510.5257	1577.6354	1604.3001	3041.4543	3049.5104	3062.0224	3105.3787	3108.2389	3118.0004	3127.5176	3152.3095	3160.4671
CCC1=NC=NC(C)=N1	CCc1ncnc(C)n1	
InChI=1S/C6H9N3/c1-3-6-8-4-7-5(2)9-6/h4H,3H2,1-2H3	InChI=1S/C6H9N3/c1-3-6-8-4-7-5(2)9-6/h4H,3H2,1-2H3
