18
gdb 119600	4.37197	0.93587	0.8582	1.463	71.39	-0.2471	0.0123	0.2594	1344.7041	0.147987	-439.073715	-439.065379	-439.064434	-439.107233	31.147	
O	 0.0973174295	 1.4228113403	-0.204932953	-0.420189
C	 0.0327874644	 0.0049728345	-0.2117859288	-0.05676
C	-1.3634184099	-0.5181855779	 0.1468047222	-0.310828
C	-1.4382369729	-2.0231559865	 0.1162809064	 0.336819
C	-1.6131630347	-2.8004308605	-1.1787883604	-0.352147
C	-2.672059073	-2.8835745358	-0.1182362269	 0.005439
O	-2.5608022352	-3.9666145939	 0.7962163827	-0.213447
C	-1.3729836634	-3.7686563906	 1.4252279169	 0.094869
N	-0.690881636	-2.7338743193	 1.14246701	-0.304353
H	-0.0012914078	 1.7158359387	 0.7064122352	 0.281419
H	 0.2916719475	-0.3009865125	-1.2309814029	 0.111196
H	 0.777349921	-0.4412989005	 0.4617100761	 0.114116
H	-1.6359888878	-0.1656220796	 1.1505963953	 0.095878
H	-2.0920600948	-0.093572017	-0.5527663869	 0.104384
H	-1.876472766	-2.223646167	-2.0592995932	 0.124652
H	-0.9803602852	-3.6627816537	-1.3601682405	 0.126166
H	-3.6932173537	-2.5560650114	-0.2641438157	 0.117254
H	-1.1053223621	-4.5354661175	 2.1417769933	 0.145531
73.0651	92.3058	124.8428	277.703	297.115	330.5053	333.8508	400.016	446.1872	615.5483	713.503	756.5391	788.6271	808.3424	875.8793	905.3287	935.4074	960.3051	988.6165	995.728	1031.2264	1051.0836	1071.9746	1085.23	1102.8221	1137.7072	1161.3634	1246.8343	1269.827	1297.0865	1330.9151	1341.2879	1387.0153	1403.3227	1416.7871	1465.3276	1478.5453	1513.2903	1667.4307	3013.8109	3019.3432	3065.1115	3086.0292	3128.4972	3197.9887	3222.0928	3230.0071	3817.5802
OCCC12CC1OC=N2	OCC[C@]12C[C@H]1OC=N2	
InChI=1S/C6H9NO2/c8-2-1-6-3-5(6)9-4-7-6/h4-5,8H,1-3H2	InChI=1S/C6H9NO2/c8-2-1-6-3-5(6)9-4-7-6/h4-5,8H,1-3H2/t5-,6+/m1/s1
