20
gdb 96055	2.84738	1.12208	0.90029	3.6041	75.99	-0.2448	0.0358	0.2806	1320.4225	0.172146	-440.326068	-440.316935	-440.315991	-440.361308	33.527	
O	-0.0604909263	 1.3999903856	 0.9632565077	-0.443591
C	-0.0699758739	 0.2211208887	 0.1515548146	 0.104863
C	 0.9305313025	-0.856793087	 0.6347583058	-0.250726
C	 0.0835292778	-2.0035190536	 1.2587732231	-0.208604
C	-1.3259684581	-1.4121439952	 1.4303247225	-0.232712
C	-1.447630686	-0.4794949951	 0.2102241508	 0.053258
N	-2.5250688018	 0.4832924637	 0.2417873446	-0.289427
C	-3.7767770178	 0.2094639384	-0.1993760256	 0.147907
O	-4.1428422957	-0.8646480424	-0.6331690843	-0.33451
H	-0.0083326722	 1.1306462438	 1.8865982789	 0.283575
H	 0.151858583	 0.5852154717	-0.8544207601	 0.093894
H	 1.551891975	-1.2179640821	-0.1887920287	 0.113637
H	 1.6149069727	-0.4034208128	 1.3592606593	 0.106043
H	 0.042659707	-2.8544838099	 0.5711944029	 0.112698
H	 0.5060661179	-2.3751163889	 2.1954777271	 0.1026
H	-2.120003089	-2.1606040725	 1.4588814282	 0.124783
H	-1.3990334017	-0.8217374455	 2.3536723573	 0.08391
H	-1.5790225562	-1.1004612859	-0.6829048525	 0.110208
H	-2.289073435	 1.4054098458	 0.5781241132	 0.250571
H	-4.4452887721	 1.0903308529	-0.1216475248	 0.07162
28.4462	64.2761	128.852	188.4886	231.1599	271.55	328.4466	390.9354	430.0224	513.966	585.9669	616.4105	669.1261	780.4874	798.5084	866.5563	884.7736	898.0125	936.2982	990.9645	1030.5287	1033.2255	1043.7975	1090.2125	1126.0368	1147.9804	1193.0752	1218.7343	1230.7936	1271.2684	1282.6655	1306.6991	1324.138	1335.7185	1342.2665	1393.293	1426.3512	1430.6174	1484.7059	1494.6339	1507.6936	1516.4422	1796.8802	2932.0408	3018.4024	3050.5495	3054.9223	3057.2525	3082.1156	3094.0678	3106.4486	3117.0952	3612.3041	3806.9927
OC1CCCC1NC=O	O[C@H]1CCC[C@H]1NC=O	
InChI=1S/C6H11NO2/c8-4-7-5-2-1-3-6(5)9/h4-6,9H,1-3H2,(H,7,8)	InChI=1S/C6H11NO2/c8-4-7-5-2-1-3-6(5)9/h4-6,9H,1-3H2,(H,7,8)/t5-,6+/m1/s1
