18
gdb 16671	2.87863	2.24018	1.72635	2.6939	66.24	-0.2465	0.0574	0.3039	828.523	0.155187	-384.934442	-384.926981	-384.926037	-384.965707	29.434	
O	-0.5419865483	 1.1104741632	 1.1754003969	-0.433176
C	-0.0807665061	 0.1211451565	 0.2485374148	 0.025498
C	 0.8792527113	-0.9007285577	 0.8915463315	-0.234206
C	-0.0104605374	-2.0131555801	 1.4377876838	-0.032403
C	-1.1964656983	-1.6072957667	 2.277978323	-0.295008
C	-1.3767439789	-1.8795045263	 0.8035921042	-0.0583
C	-1.3335130676	-0.7040555481	-0.1678658827	 0.150294
O	-2.5006632448	 0.079089254	-0.25836501	-0.442893
H	 0.1521195811	 1.7630598119	 1.29972146	 0.292048
H	 0.366666282	 0.6204740237	-0.6191417821	 0.074354
H	 1.5498541268	-1.3050780369	 0.1234430054	 0.100352
H	 1.5092394576	-0.4262660284	 1.6533805524	 0.092366
H	 0.4369728515	-2.9862721832	 1.6077470506	 0.078725
H	-1.5939792471	-2.3541341758	 2.9570619168	 0.104844
H	-1.2564119211	-0.5885801329	 2.6402040227	 0.127338
H	-1.9508265764	-2.7496056917	 0.5058870674	 0.080572
H	-1.1583252307	-1.106443678	-1.1736404492	 0.081592
H	-2.4331171537	 0.7358723665	 0.4464282647	 0.288003
140.1508	165.4058	218.1284	296.7966	344.2915	388.8761	406.1623	472.2141	548.8468	636.5879	759.2878	778.377	810.3447	832.8273	872.5196	931.9394	950.3526	993.1997	1040.7068	1061.5958	1072.0556	1085.3361	1110.8517	1118.9981	1134.3435	1187.8042	1206.2672	1225.4406	1273.2851	1305.7397	1331.1011	1342.1828	1363.1364	1397.5846	1422.7177	1448.271	1476.9768	1492.7048	3018.2048	3025.4173	3038.917	3064.2	3139.0827	3163.3721	3175.4442	3231.3469	3774.5516	3845.3906
OC1CC2CC2C1O	O[C@H]1C[C@H]2C[C@H]2[C@H]1O	
InChI=1S/C6H10O2/c7-5-2-3-1-4(3)6(5)8/h3-8H,1-2H2	InChI=1S/C6H10O2/c7-5-2-3-1-4(3)6(5)8/h3-8H,1-2H2/t3-,4-,5+,6-/m1/s1
