18
gdb 91245	2.56134	1.71178	1.47468	3.4698	71.5	-0.2369	0.0176	0.2545	965.2321	0.149573	-439.111851	-439.10427	-439.103326	-439.143846	29.778	
O	-0.5872721244	 0.9110631169	-1.2066043625	-0.426792
C	-0.0711793137	 0.0689680987	-0.1823256951	 0.112425
C	-1.2457164111	-0.8226699408	 0.2597707309	-0.238306
C	-1.2241359311	-2.0161262555	-0.7236092736	 0.024956
C	-1.907124232	-1.8982911097	-2.1150386338	-0.387199
C	-0.4822581857	-1.6777169204	-2.6574532971	 0.407825
O	 0.0148010513	-1.3555815999	-3.699330273	-0.349325
N	 0.1053151108	-1.9356165128	-1.401604096	-0.099689
C	 0.953857535	-0.9409333672	-0.7538252026	-0.227742
H	 0.1473498238	 1.3196588949	-1.6762309408	 0.290876
H	 0.344297238	 0.6618978463	 0.6441699733	 0.070126
H	-1.0841466535	-1.1761486246	 1.2824798759	 0.106236
H	-2.180578464	-0.2587538245	 0.2405190522	 0.124574
H	-1.3888575384	-2.9689272752	-0.2153843103	 0.083991
H	-2.4317478442	-2.7842323908	-2.4787552	 0.125978
H	-2.5346730234	-1.0155228232	-2.2488311481	 0.144461
H	 1.6349445793	-0.4951182946	-1.4843228369	 0.126823
H	 1.5512860833	-1.3956621879	 0.0450587075	 0.110783
103.3578	126.4489	233.0366	325.1223	342.6463	394.7237	418.1373	479.4936	545.4667	637.7422	701.0815	763.7664	800.4521	830.3081	860.832	878.7509	944.7825	975.1633	988.9664	1027.9056	1049.8922	1072.4558	1089.9205	1149.1407	1184.5387	1192.6504	1219.18	1227.3162	1272.3956	1293.8077	1312.1926	1336.7207	1350.2853	1369.2905	1408.8914	1446.1219	1475.2383	1488.6618	1884.3705	3007.2078	3039.6641	3062.2828	3077.3608	3083.7047	3103.4412	3120.9173	3143.0945	3816.2029
OC1CC2CC(=O)N2C1	O[C@H]1C[C@H]2CC(=O)N2C1	
InChI=1S/C6H9NO2/c8-5-1-4-2-6(9)7(4)3-5/h4-5,8H,1-3H2	InChI=1S/C6H9NO2/c8-5-1-4-2-6(9)7(4)3-5/h4-5,8H,1-3H2/t4-,5-/m0/s1
