21
gdb 104700	1.82044	1.65885	1.02545	4.1934	78.07	-0.2688	0.0139	0.2828	1254.4568	0.180775	-424.272465	-424.262685	-424.261741	-424.307377	36.101	
C	-0.1973727779	 1.4132285365	 0.4399024856	-0.41209
C	-0.1403460487	-0.0637952381	 0.03906871	-0.221492
C	 0.5896301823	-0.3824928355	-1.2673439359	 0.405257
C	 0.7260164681	-1.8929778921	-1.4696946087	-0.221469
C	 1.580368142	-2.34250255	-2.6586110347	-0.412117
C	 0.2057754136	 0.4598243244	-2.5087722736	-0.475006
C	 1.6181714742	 1.0205230853	-2.3776472072	 0.453267
O	 2.310602842	 1.8096724151	-2.9366889299	-0.324274
O	 1.9320965146	 0.264008598	-1.2803953119	-0.277496
H	 0.8073127455	 1.834345727	 0.5262712796	 0.144637
H	-0.7601671859	 2.0203098436	-0.2758933654	 0.119533
H	-0.691508192	 1.5179201947	 1.4099442946	 0.120576
H	 0.3515782162	-0.6304471883	 0.8390620649	 0.1122
H	-1.1557914306	-0.4720792351	-0.0437848226	 0.106464
H	 1.1493848084	-2.3125897734	-0.5489563204	 0.112228
H	-0.2872834406	-2.306005187	-1.5552421835	 0.106456
H	 1.6530925915	-3.4336343949	-2.6745942957	 0.120586
H	 1.1572680915	-2.0333955653	-3.6193834537	 0.119531
H	 2.593179467	-1.9382791845	-2.5877614749	 0.144632
H	 0.0266109591	-0.0895573414	-3.4333972172	 0.139288
H	-0.5836766302	 1.1990563513	-2.3703541795	 0.139288
72.3359	85.3609	89.3541	186.634	222.2537	248.8511	310.2502	313.1835	343.0733	395.2513	524.5673	530.2913	544.3477	587.8941	760.5993	770.5836	817.6945	864.1173	869.3397	952.14	985.4171	989.3428	1046.9404	1077.2008	1079.8201	1097.0535	1107.7549	1188.0974	1204.9107	1226.4944	1260.6068	1289.4977	1351.1109	1384.7764	1387.1824	1411.5906	1416.9418	1454.9277	1467.4418	1481.9366	1502.1544	1507.0154	1508.9311	1509.6304	1933.3636	3021.5337	3029.7613	3045.8962	3046.6295	3056.565	3066.1704	3098.189	3108.7998	3110.3903	3127.8069	3128.5919	3152.4187
CCC1(CC)CC(=O)O1	CCC1(CC)CC(=O)O1	
InChI=1S/C7H12O2/c1-3-7(4-2)5-6(8)9-7/h3-5H2,1-2H3	InChI=1S/C7H12O2/c1-3-7(4-2)5-6(8)9-7/h3-5H2,1-2H3
