18
gdb 93389	2.66112	1.64254	1.23502	1.9701	72.98	-0.2588	0.0118	0.2706	1033.3213	0.149596	-439.081937	-439.074175	-439.073231	-439.114528	30.482	
O	 0.088394709	 1.4768113024	 0.088741753	-0.432541
C	 0.0053894147	 0.0646874674	-0.0230988283	 0.102258
C	 0.7813461858	-0.6001894411	 1.1047450679	-0.122604
O	 0.1291645508	-0.3367750451	 2.3614239066	-0.272087
C	-1.1180978665	-0.9055570532	 2.5237787055	 0.368622
N	-1.5254668778	-1.2894134486	 3.6576490671	-0.514262
C	-1.9711188311	-0.9955213611	 1.3094042365	-0.079519
C	-2.5081796761	 0.2778781856	 0.6797049375	-0.277827
C	-1.4298176905	-0.4883587508	-0.0174169867	-0.070368
H	 0.0030960239	 1.6951232914	 1.0244162402	 0.289126
H	 0.4754396381	-0.1834512276	-0.9798866281	 0.094679
H	 0.8668892594	-1.6822624986	 0.9455440591	 0.113046
H	 1.7814030545	-0.171304182	 1.2013884243	 0.124857
H	-0.7911806217	-1.152360359	 4.3556238619	 0.220429
H	-2.6375988056	-1.8487427356	 1.3162698181	 0.115945
H	-3.5147499939	 0.2391397988	 0.2804990743	 0.124552
H	-2.2426283407	 1.2281667973	 1.1275769271	 0.120633
H	-1.7124632322	-1.0513672502	-0.9002617958	 0.09506
48.2239	163.2694	221.173	296.4384	382.3556	389.9483	405.0109	485.163	524.8557	601.6322	686.9774	738.4101	752.1959	822.6333	838.1648	898.4881	915.525	937.7412	957.5352	997.0558	1033.4475	1054.4575	1077.9204	1086.4077	1120.4436	1140.8283	1145.4337	1215.2616	1250.0845	1282.8034	1302.5986	1345.1008	1372.6353	1392.2914	1412.3621	1429.4463	1491.7153	1498.7936	1752.4428	3030.6981	3065.3698	3112.5306	3146.6151	3163.8649	3192.6985	3233.1986	3463.001	3790.0007
OC1COC(=N)C2CC12	O[C@H]1CO[C]([NH])[C@H]2C[C@@H]12	
InChI=1S/C6H9NO2/c7-6-4-1-3(4)5(8)2-9-6/h3-5,7-8H,1-2H2	InChI=1S/C6H9NO2/c7-6-4-1-3(4)5(8)2-9-6/h3-5,7-8H,1-2H2/t3-,4+,5+/m1/s1
