20
gdb 6028	2.43207	1.75664	1.46262	2.8121	70.85	-0.2498	-0.0249	0.2249	1001.2866	0.172595	-386.157331	-386.147143	-386.146198	-386.191962	36.744	
C	-0.0174423897	 1.5257941313	-0.150312299	-0.406237
C	-0.0434131898	-0.0050933889	-0.0228778572	 0.034176
C	 0.839527482	-0.4589761756	 1.1480209338	-0.424682
C	-1.5017464314	-0.529582091	 0.0910204316	 0.263786
C	-1.5876343292	-2.0626552549	 0.2087583695	-0.444889
O	-2.2166488568	 0.0925798268	 1.1575034908	-0.471907
C	-2.2928753831	-0.1570813099	-1.166144543	 0.158288
O	-1.8895833233	-0.3134656257	-2.2887521492	-0.267836
H	 1.013158389	 1.8853019948	-0.2267042988	 0.108889
H	-0.5527676733	 1.8659368488	-1.0413527772	 0.126038
H	-0.481219617	 1.9937508776	 0.7227742364	 0.123418
H	 0.353279646	-0.4352515249	-0.9501500464	 0.095393
H	 0.449755744	-0.0956913422	 2.1071525493	 0.104704
H	 0.935384507	-1.5464413695	 1.2083696794	 0.116843
H	 1.8477500333	-0.0479157198	 1.0396580008	 0.121891
H	-1.1431026269	-2.4052054865	 1.1483981901	 0.11624
H	-2.6331316233	-2.3858067082	 0.1960894804	 0.127731
H	-1.0637783098	-2.5446780165	-0.62084263	 0.139992
H	-1.9060836916	-0.2818236459	 1.9874451027	 0.284861
H	-3.3069626662	 0.2435081302	-0.9456298938	 0.0933
62.7176	71.5998	191.663	208.2368	226.0767	249.3049	252.1852	275.0282	281.2803	328.5717	359.393	415.095	459.6213	529.8727	639.0923	692.9382	880.9467	913.5731	927.1856	948.9058	969.3162	982.5981	1062.747	1072.2539	1143.999	1159.9195	1193.7723	1226.5344	1323.6217	1351.5156	1362.5805	1391.4612	1398.2262	1406.0929	1422.1695	1486.7684	1487.9156	1494.3021	1500.8988	1510.2662	1517.4942	1835.2703	2895.9939	3027.007	3038.4545	3042.7479	3044.297	3093.2904	3104.7818	3110.7565	3114.4419	3119.7654	3126.4729	3829.3073
CC(C)C(C)(O)C=O	CC(C)[C@@](C)(O)C=O	
InChI=1S/C6H12O2/c1-5(2)6(3,8)4-7/h4-5,8H,1-3H3	InChI=1S/C6H12O2/c1-5(2)6(3,8)4-7/h4-5,8H,1-3H3/t6-/m0/s1
