15
gdb 40400	4.76864	1.19061	1.14472	2.5235	64.4	-0.252	0.0264	0.2785	1062.5011	0.110603	-457.628954	-457.62181	-457.620866	-457.661017	27.309	
C	 0.7245306547	 1.3899578953	 0.2322082198	-0.170543
O	 1.0977441499	 0.1692121292	-0.4106999287	-0.226005
C	-0.2331955951	 0.2829465454	 0.0866641916	-0.088338
C	-0.5863485022	-0.5885365946	 1.2319160931	 0.425812
O	 0.2662985196	-0.6559458846	 2.3687894763	-0.254977
C	-0.0580095038	-1.8736350348	 1.6962028508	-0.100096
C	-1.5075825201	-2.3132838369	 2.1531832327	-0.012914
O	-1.9933004521	-1.3446684508	 3.0805294271	-0.207316
C	-2.0451853967	-1.0344110864	 1.6930284254	-0.08271
H	 1.1799234679	 1.5559575535	 1.2054691064	 0.138043
H	 0.6470933788	 2.2585966758	-0.4196876856	 0.11856
H	-1.0039938512	 0.354761846	-0.6819542345	 0.097543
H	 0.7476788945	-2.4883793524	 1.3162597673	 0.128477
H	-1.9293742179	-3.3099299077	 2.1705256018	 0.118551
H	-2.9963219364	-0.7643122471	 1.2507819165	 0.115912
64.9842	161.1364	173.2432	339.6127	371.2915	425.6176	533.9517	646.1387	703.7207	764.378	808.2503	820.6054	852.0948	861.583	893.3083	901.2685	939.4102	984.3816	987.9405	1024.1762	1055.6655	1089.0388	1097.5069	1163.8422	1166.5373	1194.9234	1223.5479	1248.0867	1281.4716	1361.068	1407.5411	1482.5693	1521.043	3092.9704	3103.5116	3191.0615	3192.7143	3205.5357	3213.3389
C1OC1C12OC1C1OC21	C1O[C@H]1[C@]12O[C@H]1[C@H]1O[C@@H]21	
InChI=1S/C6H6O3/c1-2(7-1)6-4-3(8-4)5(6)9-6/h2-5H,1H2	InChI=1S/C6H6O3/c1-2(7-1)6-4-3(8-4)5(6)9-6/h2-5H,1H2/t2-,3+,4-,5+,6-/m1/s1
