23
gdb 110362	4.23739	1.02203	0.99204	0.0833	89.61	-0.245	0.0991	0.3441	1341.9383	0.20838	-351.122854	-351.114885	-351.113941	-351.155356	32.675	
C	 0.0524739324	 1.4381181593	-0.3104562649	-0.372741
C	-0.051894478	 0.0000824736	 0.2105460989	-0.216814
C	-1.4745441494	-0.5273699808	 0.2043111548	-0.023896
C	-1.9897604596	-1.1490733099	-1.0747636332	-0.031838
C	-1.6802281527	-2.0218674785	 0.13440968	-0.051723
C	-3.0700478591	-2.6453973203	 0.3743182933	-0.048759
C	-3.4564162564	-3.0321554731	-1.0982348785	-0.205073
C	-3.4871895164	-1.4700555949	-1.2577930867	-0.047702
C	-4.0635958122	-1.4668613372	 0.1844598899	-0.232378
H	 1.0873570774	 1.7941552871	-0.2915756964	 0.108871
H	-0.3115687276	 1.5100479641	-1.340541917	 0.117493
H	-0.5464323452	 2.1232510762	 0.2997709695	 0.112875
H	 0.5830103252	-0.6575911331	-0.3971082513	 0.091444
H	 0.3473201945	-0.0509783204	 1.2320146618	 0.095303
H	-2.1503006555	 0.0710535487	 0.8080175012	 0.076177
H	-1.3524783575	-1.1438423805	-1.9532358726	 0.078249
H	-0.8123178948	-2.6726224662	 0.1630035832	 0.07855
H	-3.169756696	-3.3478971568	 1.2023926012	 0.056688
H	-2.71785999	-3.5855753944	-1.6853670374	 0.085054
H	-4.4425541988	-3.4983486036	-1.1822440666	 0.087606
H	-4.0091266664	-0.9827883979	-2.0819981264	 0.05649
H	-5.0984807757	-1.8152895068	 0.1985378538	 0.092638
H	-3.979789338	-0.5744369946	 0.8055364835	 0.093484
78.1553	141.7995	186.9484	274.9378	322.6632	380.6115	433.4066	512.3068	566.8355	657.919	759.3138	793.0043	816.9665	837.6229	837.8704	858.9714	892.542	911.8237	946.7641	963.1551	989.0695	1014.1991	1024.5904	1034.3514	1048.8348	1058.3844	1091.0684	1096.2131	1104.7214	1125.5756	1128.8942	1150.6334	1206.2162	1217.2235	1240.4707	1240.802	1268.5904	1278.6639	1299.5584	1307.3082	1320.9095	1363.7083	1408.4167	1434.769	1486.6384	1492.5136	1497.4551	1507.0084	1533.35	3015.3294	3031.093	3046.1102	3046.1635	3074.1801	3097.9702	3104.3162	3105.2866	3106.1279	3110.9094	3122.2412	3146.8121	3153.8985	3164.0161
CCC1C2C1C1CC2C1	CC[C@H]1[C@H]2[C@@H]1[C@@H]1C[C@H]2C1	
InChI=1S/C9H14/c1-2-7-8-5-3-6(4-5)9(7)8/h5-9H,2-4H2,1H3	InChI=1S/C9H14/c1-2-7-8-5-3-6(4-5)9(7)8/h5-9H,2-4H2,1H3/t5-,6+,7-,8-,9+
