18
gdb 29967	3.90199	0.8893	0.7766	3.9564	81.7	-0.2087	-0.0097	0.1991	1468.6473	0.147065	-401.993438	-401.98427	-401.983325	-402.029487	32.106	
C	 0.0020494358	 1.4655830199	-0.0537563289	-0.336371
N	-0.0511738006	 0.0182595011	-0.0377253367	 0.028502
C	-0.070562546	-0.7909356813	-1.1454453309	-0.082559
C	-0.0352305306	-2.0999037031	-0.7240529912	-0.274718
C	 0.0062267061	-2.091334343	 0.6997751216	 0.228363
C	 0.0871986246	-3.2805440872	 1.6169256588	-0.382571
C	 1.5181374254	-3.5027284321	 2.0801685056	 0.166
O	 1.8662748403	-3.5813272459	 3.2298855806	-0.245437
C	 0.0052311318	-0.7651382976	 1.0860120059	-0.179604
H	 1.034166866	 1.8344149078	-0.0493566623	 0.14181
H	-0.4994959931	 1.8400244508	-0.9489674088	 0.142115
H	-0.5150643868	 1.8636577248	 0.8225465995	 0.143582
H	-0.1168456298	-0.3640015319	-2.1349024947	 0.117576
H	-0.0631271013	-2.9725230456	-1.3596079097	 0.095417
H	-0.5443879788	-3.1743594447	 2.5035408197	 0.120696
H	-0.2331960565	-4.1827292696	 1.0791278461	 0.119806
H	 2.2543425082	-3.5682879211	 1.2462144113	 0.074164
H	 0.0322371151	-0.3190758214	 2.0682595142	 0.123228
23.4676	57.5042	77.5266	131.2683	201.3993	254.9668	361.1222	396.2881	455.5329	614.8823	619.7595	666.5228	690.8234	722.146	774.4416	808.831	820.5058	980.5974	1017.4466	1020.5433	1060.4463	1081.3387	1108.0006	1148.4867	1182.531	1191.5444	1275.7798	1290.0711	1379.0257	1406.1592	1418.5553	1421.1739	1455.2344	1457.7396	1488.722	1513.7096	1545.2437	1590.3463	1829.8335	2869.7622	3026.6218	3032.8826	3095.8245	3102.0948	3133.4413	3238.6079	3251.7189	3263.6066
CN1C=CC(CC=O)=C1	Cn1ccc(CC=O)c1	
InChI=1S/C7H9NO/c1-8-4-2-7(6-8)3-5-9/h2,4-6H,3H2,1H3	InChI=1S/C7H9NO/c1-8-4-2-7(6-8)3-5-9/h2,4-6H,3H2,1H3
