23
gdb 102312	2.38257	0.91728	0.77442	0.7723	89.11	-0.2616	0.038	0.2996	1621.1587	0.201784	-388.253829	-388.242431	-388.241487	-388.290894	40.997	
C	 0.1306095731	 1.2499612024	 0.3739514954	-0.236766
O	-0.039666635	-0.0554159428	-0.1365727572	-0.229599
C	-1.3637721694	-0.5553171833	-0.0215560801	-0.090492
C	-1.4276949565	-1.8724806863	-0.8104615865	-0.190508
C	-1.0895245748	-1.7417704063	-2.3063379252	 0.04264
C	-0.9594235916	-3.1357788764	-2.9350548004	-0.397348
C	-2.1212724592	-0.8998207483	-3.0701648538	-0.389848
C	-1.7551563787	-0.7602837089	 1.3809876254	 0.339941
C	-2.0707055189	-0.9382545318	 2.5274621763	-0.458362
H	 1.1728112199	 1.5263317277	 0.1985450622	 0.127401
H	-0.5217793363	 1.9731580161	-0.1401933029	 0.102292
H	-0.0784756078	 1.2968687594	 1.4511152551	 0.120533
H	-2.0642122268	 0.1737277545	-0.4633124398	 0.091936
H	-0.730009828	-2.5703592699	-0.3344476389	 0.110627
H	-2.4328085622	-2.2939729845	-0.6872588321	 0.102289
H	-0.1174500925	-1.2404221335	-2.377344281	 0.093572
H	-0.1953206169	-3.7336165826	-2.4273647826	 0.112028
H	-1.9067724779	-3.6855493702	-2.8748624519	 0.109636
H	-0.6841244523	-3.0668180958	-3.9926309742	 0.109047
H	-2.179767812	 0.1265416749	-2.6949100924	 0.113173
H	-1.8644707601	-0.8422817938	-4.1330260585	 0.111293
H	-3.1227119561	-1.3415478336	-2.9952321591	 0.109716
H	-2.3526183201	-1.092587527	 3.5397902522	 0.196799
35.5096	92.2797	99.3371	123.3583	171.4292	213.1426	231.8211	244.1647	273.8164	295.7727	326.2907	385.3192	417.4877	472.4689	564.504	584.5795	623.3423	672.2591	805.2955	836.2997	930.132	935.1774	961.7155	971.2193	992.1946	1053.2259	1131.2026	1150.6923	1156.3834	1184.4773	1192.2614	1219.1929	1271.2325	1290.881	1347.0585	1361.6907	1377.2579	1388.9148	1403.4202	1423.1664	1467.8617	1478.444	1485.0884	1488.1859	1494.9921	1505.1717	1510.6445	1511.9416	2228.4181	2957.6985	2981.1008	3021.9505	3025.4552	3033.077	3043.4909	3045.9417	3079.0218	3086.2572	3095.7733	3098.8564	3101.5674	3119.6282	3502.3934
COC(CC(C)C)C#C	CO[C@@H](CC(C)C)C#C	
InChI=1S/C8H14O/c1-5-8(9-4)6-7(2)3/h1,7-8H,6H2,2-4H3	InChI=1S/C8H14O/c1-5-8(9-4)6-7(2)3/h1,7-8H,6H2,2-4H3/t8-/m1/s1
