17
gdb 70672	2.51074	1.63884	1.21898	1.5061	67.25	-0.2387	-0.0394	0.1993	1028.8113	0.134824	-458.946425	-458.938264	-458.93732	-458.979368	30.764	
O	 0.4958229694	 1.2101064148	-0.1484678706	-0.478652
C	 0.0948896778	-0.1036551756	 0.0412652487	 0.394472
C	-0.5529294641	-0.8890919234	-1.0874002389	-0.385822
C	-1.3396024962	-0.5025568693	 0.1488427572	 0.046246
O	-1.5083708114	-1.4647237255	 1.1625608646	-0.254751
C	-0.2296142506	-2.0065746808	 1.4837016563	-0.119396
C	 0.8036570152	-0.9135601267	 1.1188258539	-0.184318
C	 2.1716441116	-1.4065919393	 0.7134599742	 0.140429
O	 2.8091564226	-0.9139223584	-0.1858360808	-0.250843
H	 1.3551614961	 1.1667714974	-0.587793311	 0.292852
H	-0.7687628962	-0.3106253092	-1.9789730614	 0.125441
H	-0.2913430664	-1.9262621199	-1.2682042763	 0.116891
H	-2.1669105556	 0.1934091697	 0.0905942022	 0.118809
H	-0.2314868621	-2.2692945044	 2.5442713082	 0.122363
H	-0.04476141	-2.9265035886	 0.9083925681	 0.10383
H	 0.9558703841	-0.2461376685	 1.9806114093	 0.123496
H	 2.5896434258	-2.2501468821	 1.3081165563	 0.088953
74.2968	128.6665	149.7484	243.74	302.312	360.9311	408.8936	435.4937	481.1481	529.8491	654.4912	682.3015	710.2284	821.4195	875.6053	908.4569	944.1946	996.0279	1001.9228	1021.8338	1038.1475	1051.7122	1089.7036	1109.5509	1152.6537	1204.7723	1246.6929	1251.4543	1285.7002	1327.197	1331.6332	1399.6503	1410.6582	1428.3726	1492.0885	1525.9328	1811.1605	2877.065	2985.7202	3005.7569	3094.6327	3134.1584	3199.7384	3225.9025	3769.2698
OC12CC1OCC2C=O	O[C@]12C[C@H]1OC[C@H]2C=O	
InChI=1S/C6H8O3/c7-2-4-3-9-5-1-6(4,5)8/h2,4-5,8H,1,3H2	InChI=1S/C6H8O3/c7-2-4-3-9-5-1-6(4,5)8/h2,4-5,8H,1,3H2/t4-,5-,6+/m1/s1
