13
gdb 27465	2.63543	1.78614	1.18391	2.5218	69.79	-0.2548	-0.0921	0.1626	976.6517	0.091352	-448.943695	-448.936645	-448.935701	-448.975368	26.357	
O	 0.0727106787	 1.2005172851	 0.6246066144	-0.368162
C	-0.0664877904	-0.0541964058	 0.177680761	 0.437822
N	-1.2305263403	-0.5891801795	 0.2829410449	-0.304365
C	-1.4603016227	-1.9175531745	-0.0415275588	 0.288459
N	-2.4742509954	-2.3960630795	-0.6413783191	-0.502425
C	-0.454427419	-2.8704426778	 0.5207395139	 0.02062
N	 0.8022438299	-2.8098960735	 0.2894132438	-0.186207
C	 1.3699459773	-1.7893677535	-0.4374351037	 0.091375
N	 1.0835134364	-0.5325522003	-0.4383879837	-0.322023
H	 0.967175211	 1.4831912392	 0.391309104	 0.312304
H	-3.0789391544	-1.6346426772	-0.961821688	 0.230146
H	-0.820397746	-3.6647596236	 1.1729703746	 0.156462
H	 2.2525143648	-2.0916486592	-1.0000420733	 0.145995
100.282	159.388	257.4074	311.5155	409.2412	419.3303	483.9728	529.743	561.038	603.5991	699.4674	768.2727	841.4198	863.1377	927.3057	945.8051	978.832	1018.6543	1079.1445	1128.1963	1269.9625	1350.4956	1367.4562	1385.5897	1435.1629	1586.9727	1675.773	1707.6891	1728.9226	3128.1368	3146.7725	3445.1271	3785.1635
OC1=NC(=N)C=NC=N1	OC1=N[C]([NH])C=NC=N1	
InChI=1S/C4H4N4O/c5-3-1-6-2-7-4(9)8-3/h1-2H,(H2,5,8,9)	InChI=1S/C4H4N4O/c5-3-1-6-2-7-4(9)8-3/h1-2H,(H2,5,8,9)
