17
gdb 75279	3.04784	1.46175	1.14593	4.2429	73.6	-0.2581	-0.0029	0.2552	1082.7988	0.136982	-421.875163	-421.867531	-421.866587	-421.907432	28.982	
C	-0.3298540418	 1.3694103426	 0.1009541505	-0.502255
C	-0.027102522	-0.0915949889	-0.0016773961	 0.323669
C	-0.0772918922	-0.873269233	-1.0857200761	-0.155467
C	 0.2790130005	-2.3189771857	-0.8260932814	-0.284952
C	 0.4793131903	-2.3543595998	 0.7031202342	-0.22816
C	 0.3562215339	-0.9029204202	 1.2050284845	 0.018625
O	-0.8184016419	-1.2847918031	 2.0320842952	-0.259012
C	-0.7730124856	-2.5736356886	 1.562328771	 0.445552
O	-1.5170368552	-3.4653957707	 1.8166934855	-0.324025
H	 0.5345402841	 1.9278279427	 0.4815689028	 0.128775
H	-0.6093230527	 1.7923447913	-0.8671947677	 0.128598
H	-1.1528240924	 1.5453067696	 0.8038922005	 0.146791
H	-0.3545344173	-0.5239242268	-2.0754619945	 0.100834
H	-0.5050019835	-3.0103256692	-1.1562025879	 0.134982
H	 1.1930505043	-2.6126077095	-1.3562985032	 0.11892
H	 1.3351202209	-2.9398063313	 1.0387370066	 0.112927
H	 1.1231034906	-0.4742672095	 1.8533220362	 0.094198
92.1486	166.6214	189.5524	245.2631	266.3176	338.0635	465.6531	550.1539	593.5878	669.5045	726.9186	790.3175	818.6933	870.8052	884.5632	909.2019	941.558	959.8028	1021.9031	1025.7603	1060.5635	1071.3305	1113.769	1161.0197	1178.4609	1228.1498	1259.7396	1289.313	1307.9694	1335.2686	1364.0076	1414.298	1478.8162	1487.258	1490.7802	1713.8542	1931.889	3023.8734	3031.8745	3063.6968	3074.4628	3096.2933	3118.1252	3122.7976	3184.1359
CC1=CCC2C1OC2=O	CC1=CC[C@H]2[C@@H]1OC2=O	
InChI=1S/C7H8O2/c1-4-2-3-5-6(4)9-7(5)8/h2,5-6H,3H2,1H3	InChI=1S/C7H8O2/c1-4-2-3-5-6(4)9-7(5)8/h2,5-6H,3H2,1H3/t5-,6+/m0/s1
