19
gdb 89641	4.73157	1.02987	0.96865	0.7097	76.22	-0.234	0.0643	0.2983	1272.7562	0.158064	-422.962396	-422.953992	-422.953048	-422.995663	31.913	
C	-0.2047058628	 1.4919782915	 0.1207350577	-0.408268
C	 0.0773338319	 0.0055500847	 0.1736224206	 0.142834
O	 0.9909720931	-0.4529309422	-0.8760833795	-0.352887
C	 1.7929730961	-1.1295486544	 0.0988884773	 0.496327
C	 2.4175905757	-0.1601489431	 1.0468023539	-0.352636
C	 0.9767073175	-0.5956369453	 1.2559153568	-0.212906
C	 2.2955469748	-2.4812219909	-0.2478425532	-0.054977
C	 3.7061192782	-2.71553367	-0.5940302699	-0.170983
O	 3.1952028143	-3.0671613544	 0.6933795872	-0.230316
H	 0.7066191941	 2.0791420107	 0.2596413821	 0.122783
H	-0.6418988279	 1.7596789831	-0.8464735701	 0.128828
H	-0.9190973082	 1.7660840397	 0.9044563396	 0.119463
H	-0.8581083886	-0.5629451027	 0.0900767633	 0.083803
H	 3.1111910318	-0.6010391948	 1.7550050099	 0.133467
H	 2.6632949729	 0.8420806236	 0.7081274625	 0.111675
H	 0.6404074006	-1.085780793	 2.1594524023	 0.10536
H	 1.5455237716	-3.1624706115	-0.650967001	 0.098957
H	 3.9693236727	-3.5545500525	-1.2357811994	 0.119452
H	 4.3943290023	-1.8726456487	-0.6064973401	 0.120024
61.1361	127.0882	167.0661	221.4121	260.3696	294.8065	346.8702	456.3487	498.0154	549.4669	669.5096	706.5883	831.406	856.1409	867.8918	876.3128	898.5721	965.2755	972.4066	993.3594	1018.0905	1056.1411	1060.0793	1089.3562	1096.0618	1114.6557	1147.7476	1154.1166	1168.7015	1171.1088	1269.5463	1281.8887	1306.3468	1379.7723	1382.5798	1410.0758	1442.5551	1484.4967	1493.5497	1498.9381	1521.357	3017.9313	3039.4281	3090.2395	3106.9841	3107.6972	3120.7182	3124.7105	3183.2095	3204.122	3219.6096
CC1OC2(CC12)C1CO1	C[C@H]1O[C@]2(C[C@@H]12)[C@H]1CO1	
InChI=1S/C7H10O2/c1-4-5-2-7(5,9-4)6-3-8-6/h4-6H,2-3H2,1H3	InChI=1S/C7H10O2/c1-4-5-2-7(5,9-4)6-3-8-6/h4-6H,2-3H2,1H3/t4-,5+,6-,7+/m1/s1
