19
gdb 69300	2.45411	1.5408	1.23892	2.4553	76.61	-0.2385	-0.0106	0.2279	1094.2183	0.156869	-423.021177	-423.01191	-423.010966	-423.05464	35.213	
C	-0.0006280436	 1.5847915476	-0.0272442316	-0.448414
C	-0.0037890872	 0.0562491323	-0.0614715967	 0.187684
C	-1.3991723794	-0.4940518549	 0.2557820958	-0.431846
C	 0.6592821532	-0.6477196828	-1.2639842478	-0.171291
C	 2.0915925513	-0.2527219941	-1.4221129726	-0.34779
C	 1.8175296244	-1.2416870236	-0.3309711266	 0.331022
O	 2.4843619993	-2.435219862	-0.302516337	-0.446637
C	 1.0507845678	-0.6926904772	 0.8141232086	 0.275121
O	 1.0165969732	-1.06002847	 1.9630377006	-0.351976
H	 0.9814064605	 2.0113978267	-0.2466618663	 0.117011
H	-0.7122979463	 1.9892043721	-0.7556930569	 0.118283
H	-0.2994090663	 1.9384774297	 0.9649099215	 0.130978
H	-2.1388417762	-0.0928463561	-0.4452540476	 0.114789
H	-1.4243663342	-1.5863360092	 0.1913884805	 0.116351
H	-1.6970553976	-0.2130863243	 1.2696364883	 0.135375
H	 0.116491341	-1.1941644254	-2.0248218055	 0.11114
H	 2.6030011561	-0.7193799738	-2.2596933003	 0.136172
H	 2.4371310998	 0.7539514723	-1.2055857569	 0.122608
H	 2.1209735045	-2.9449273275	 0.4337954805	 0.30142
80.4334	179.9988	188.1157	203.7926	210.2827	270.1798	309.1524	340.366	388.0817	393.1229	479.5971	531.923	554.7594	668.9694	694.6284	765.9618	823.5266	902.2511	923.4038	943.3143	957.9669	991.2838	1009.8081	1027.4752	1055.966	1117.5719	1181.2387	1197.5347	1203.5899	1239.0388	1316.2944	1379.3515	1399.2488	1412.6888	1426.6422	1481.1324	1482.7572	1497.1851	1504.4701	1510.7746	1829.6388	3032.5505	3036.0203	3098.1663	3102.7397	3112.0572	3117.4736	3118.0919	3194.6497	3204.2666	3768.0745
CC1(C)C2CC2(O)C1=O	CC1(C)[C@H]2C[C@@]2(O)C1=O	
InChI=1S/C7H10O2/c1-6(2)4-3-7(4,9)5(6)8/h4,9H,3H2,1-2H3	InChI=1S/C7H10O2/c1-6(2)4-3-7(4,9)5(6)8/h4,9H,3H2,1-2H3/t4-,7+/m1/s1
