17
gdb 79608	2.25225	1.96737	1.524	4.4156	72.13	-0.2383	-0.0149	0.2234	942.9715	0.137313	-417.9737	-417.966262	-417.965317	-418.005475	29.033	
C	-0.2816773093	 1.5371531089	 0.1942609002	-0.427053
C	-0.0594916376	 0.069887796	-0.077942727	-0.005775
C	 0.6933275777	-0.5600797329	-1.211282322	-0.047261
C	 1.7263679713	 0.1119006197	-2.0956611037	-0.056079
N	 2.0596425831	 1.509335142	-1.7719191925	-0.330915
C	 2.898441109	 0.4041480553	-1.2339901499	-0.160229
C	 2.4677225291	 0.0954733591	 0.1976002055	 0.417837
O	 3.0712726683	 0.3635438101	 1.2005562407	-0.324194
N	 1.2344729366	-0.6225605537	 0.1564652267	-0.15005
H	 0.5307616768	 2.1571815308	-0.1769696505	 0.167592
H	-1.2114077778	 1.8529328224	-0.2916433651	 0.120372
H	-0.4006418856	 1.693408668	 1.271579724	 0.131745
H	-0.880000925	-0.5482888024	 0.2879371427	 0.105175
H	 0.3193261578	-1.5050473543	-1.6011869945	 0.098743
H	 1.828528108	-0.2349977022	-3.1172107373	 0.101771
H	 2.5481794416	 1.9262195347	-2.5614995888	 0.24392
H	 3.9394825762	 0.3287730187	-1.5241467184	 0.114401
116.1295	171.3193	186.8149	264.0717	329.7853	399.9225	477.9981	570.1842	613.4842	694.7573	713.5793	746.8435	798.2145	826.4735	865.1692	867.9348	929.1	950.3952	993.7204	1030.9416	1063.2719	1102.9188	1106.6397	1146.2632	1150.5898	1169.5175	1185.8627	1252.438	1317.7108	1343.0645	1388.5257	1400.7946	1418.2162	1432.8058	1490.4439	1503.9032	1848.0873	3041.0474	3096.7448	3097.1627	3122.1416	3180.4554	3181.4756	3192.8659	3493.6126
CC1C2C3NC3C(=O)N12	C[C@H]1[C@H]2[C@H]3N[C@H]3C(=O)N12	
InChI=1S/C6H8N2O/c1-2-5-3-4(7-3)6(9)8(2)5/h2-5,7H,1H3	InChI=1S/C6H8N2O/c1-2-5-3-4(7-3)6(9)8(2)5/h2-5,7H,1H3/t2-,3-,4+,5-,8?/m0/s1
