23
gdb 64278	2.7603	1.37418	1.22081	1.2186	84.32	-0.2534	0.0643	0.3177	1163.8515	0.206864	-388.300858	-388.292034	-388.29109	-388.333615	35.938	
C	 0.0430235375	 1.5524074631	 0.0216635261	-0.427845
C	-0.0178961722	 0.0214236993	-0.0183929601	 0.366555
O	-1.3883361029	-0.4034660228	 0.0352760144	-0.464304
C	 0.6521682369	-0.5270549591	-1.2920597398	-0.247989
C	 0.4861026627	-2.0484451577	-1.4171476472	-0.218075
C	 0.8891592914	-2.7983395092	-0.1610392666	 0.007837
C	 2.2134566127	-2.5570424393	 0.5161330058	-0.29452
C	 0.9358344647	-2.0712275255	 1.1647950601	-0.021807
C	 0.6399743247	-0.5746847745	 1.2395265539	-0.223897
H	 1.0755557902	 1.9146099069	-0.0175055267	 0.111677
H	-0.4918910501	 1.9826762501	-0.8337511433	 0.098234
H	-0.4229239876	 1.9295129276	 0.9371151885	 0.119412
H	-1.8324275434	-0.0583387959	-0.7471208989	 0.271825
H	 0.2174651146	-0.0361103896	-2.1731022394	 0.079821
H	 1.7130967108	-0.2473091407	-1.2857019506	 0.096956
H	-0.5692587396	-2.2616372096	-1.6183770384	 0.099099
H	 1.0540796077	-2.4153461239	-2.2811977847	 0.088343
H	 0.5274903919	-3.8222961326	-0.1269342092	 0.076735
H	 2.7310182972	-3.4044992163	 0.9527734113	 0.102477
H	 2.8773041092	-1.8049628838	 0.0989394123	 0.101315
H	 0.6038644562	-2.6378991693	 2.0286125237	 0.07912
H	 1.5627839402	-0.0192267967	 1.4448042266	 0.091681
H	-0.0377562227	-0.3760663205	 2.0753576222	 0.10735
85.5245	198.3859	240.0374	271.6811	287.7105	299.8633	325.7606	385.5727	396.0313	443.6145	502.1145	536.6123	637.32	726.0533	754.4538	809.1656	845.1241	872.3862	897.0818	922.3204	940.3905	950.8302	987.75	1038.6025	1047.1787	1060.3232	1101.3832	1110.0751	1120.2587	1136.1901	1155.8321	1194.1628	1206.4893	1235.2421	1265.2297	1304.0437	1327.6185	1369.5249	1376.3625	1381.3507	1399.6251	1408.3539	1419.0417	1472.3528	1480.9166	1483.6772	1491.8011	1495.5605	1502.7486	3011.4473	3023.2187	3026.9876	3033.4283	3047.1055	3069.319	3080.5731	3090.1635	3110.388	3118.8543	3137.5146	3153.7394	3202.6645	3797.8448
CC1(O)CCC2CC2C1	C[C@@]1(O)CC[C@H]2C[C@H]2C1	
InChI=1S/C8H14O/c1-8(9)3-2-6-4-7(6)5-8/h6-7,9H,2-5H2,1H3	InChI=1S/C8H14O/c1-8(9)3-2-6-4-7(6)5-8/h6-7,9H,2-5H2,1H3/t6-,7-,8+/m0/s1
