19
gdb 74339	3.28891	1.18453	1.01391	1.64	76.53	-0.2222	0.0568	0.279	1223.7718	0.161379	-419.21903	-419.210613	-419.209669	-419.252796	31.893	
N	-0.1167480328	 1.3246482387	-0.0235139949	-0.575887
C	-0.1217235775	-0.0430174253	-0.0002033104	 0.474635
N	-1.1053863446	-0.8069179548	-0.2748946822	-0.3595
C	-0.6394291711	-2.1808844571	-0.0540407063	-0.008675
C	 0.8106499771	-2.0056406607	 0.4922047225	-0.119675
O	 1.0584412205	-0.5857783192	 0.4008703067	-0.25323
C	-1.5339289311	-2.9762901339	 0.8826973171	 0.004298
C	-2.1988697475	-2.319569145	 2.0653578924	-0.263481
C	-3.0240627764	-2.773186321	 0.8842532463	-0.266453
H	 0.7887847432	 1.7511338184	-0.1418306881	 0.263006
H	-0.8562789576	 1.7311701223	-0.5741669736	 0.267985
H	-0.6170324063	-2.7043087868	-1.0208163283	 0.076872
H	 0.8984295069	-2.3022795908	 1.5423547155	 0.115297
H	 1.5731501727	-2.5235124672	-0.0948858758	 0.11269
H	-1.1893813815	-3.9975366612	 1.0310404479	 0.076213
H	-2.2680260644	-2.8762180172	 2.9935365013	 0.101652
H	-2.0623308446	-1.2505664675	 2.1839421646	 0.121083
H	-3.4127552791	-1.9987247957	 0.233807357	 0.131499
H	-3.6622170459	-3.6424776259	 0.9998973881	 0.101668
46.0153	86.1721	163.3531	211.0002	274.5015	357.4673	401.1329	450.2589	531.1968	557.0028	682.5794	714.8676	745.3682	784.6407	817.6099	829.4003	904.8312	924.9308	946.9354	991.8674	1030.0117	1047.4115	1061.6967	1078.2303	1090.0145	1133.4248	1141.7448	1188.0563	1202.2355	1225.4084	1236.2233	1300.4315	1337.2655	1369.2572	1395.7649	1433.5927	1456.5219	1499.2587	1522.5745	1619.7806	1753.9868	2986.9168	3047.9433	3101.838	3125.6338	3135.0876	3139.9372	3218.8776	3233.1836	3594.79	3708.861
NC1=NC(CO1)C1CC1	NC1=N[C@@H](CO1)C1CC1	
InChI=1S/C6H10N2O/c7-6-8-5(3-9-6)4-1-2-4/h4-5H,1-3H2,(H2,7,8)	InChI=1S/C6H10N2O/c7-6-8-5(3-9-6)4-1-2-4/h4-5H,1-3H2,(H2,7,8)/t5-/m0/s1
