25
gdb 122666	4.77876	0.63533	0.58815	1.4927	90.32	-0.2373	0.0872	0.3245	2010.9136	0.229343	-389.513155	-389.50281	-389.501865	-389.550063	37.341	
C	 0.0130387422	 1.5843331892	-0.0411858306	-0.378992
C	 0.0151324615	 0.0535973161	-0.0073835338	-0.164601
C	 0.7461378573	-0.5201333968	 1.2106853242	-0.159235
C	 0.7527088619	-2.0517440816	 1.2488296439	-0.198542
C	 1.4989613866	-2.6269804294	 2.4479386769	 0.15297
C	 1.5397046019	-4.1592679848	 2.5204017636	-0.238417
C	 2.8406605087	-4.4105433914	 3.2939980995	-0.232679
C	 3.7378710221	-3.281810689	 2.7679268497	-0.05538
O	 2.8710290192	-2.2091589626	 2.4040285779	-0.278498
H	 1.034543585	 1.9799415239	-0.0636976457	 0.114427
H	-0.5115723912	 1.9657212876	-0.923037889	 0.107917
H	-0.480415206	 1.9993334689	 0.8448942634	 0.111628
H	-1.0197848888	-0.3148072719	-0.0185553464	 0.089199
H	 0.4818973833	-0.3319469895	-0.923727145	 0.092806
H	 1.7827357856	-0.1639598335	 1.2235472929	 0.11433
H	 0.2787421214	-0.1360006917	 2.1285987034	 0.08568
H	-0.2792500904	-2.4287490679	 1.2702160961	 0.087251
H	 1.2154378284	-2.4443543744	 0.3336009771	 0.092242
H	 1.045831405	-2.2301199622	 3.373319441	 0.05981
H	 0.6547465642	-4.5797999884	 3.0042872378	 0.10035
H	 1.6051492987	-4.5792933739	 1.5094366148	 0.100385
H	 2.6716225358	-4.2951633491	 4.3700223923	 0.105954
H	 3.2672605462	-5.402410531	 3.1256291941	 0.101382
H	 4.4568973634	-2.9250522659	 3.5146914884	 0.098751
H	 4.3066270979	-3.6072371907	 1.8840526535	 0.091262
37.8438	61.5351	79.5042	105.9033	145.1772	209.514	242.4734	275.9456	298.9117	433.3042	488.9795	585.5266	666.9915	736.0999	783.1506	842.4475	876.0438	887.887	902.5515	922.7495	942.2033	969.2213	1013.9137	1031.5801	1049.364	1068.5728	1087.2845	1120.2883	1148.3547	1178.6852	1192.2106	1207.7987	1242.5651	1259.5084	1272.6803	1308.7526	1316.8104	1330.2425	1337.3212	1356.5894	1363.2101	1394.3525	1401.8695	1408.6327	1415.3595	1470.7419	1485.6201	1486.2948	1498.1142	1498.862	1499.2397	1512.7705	1533.255	2942.5153	2989.272	3005.9948	3006.8933	3014.701	3028.4522	3036.95	3037.4528	3041.3477	3047.1509	3055.9038	3074.4112	3095.424	3099.3984	3100.5903	3108.6634
CCCCC1CCCO1	CCCC[C@H]1CCCO1	
InChI=1S/C8H16O/c1-2-3-5-8-6-4-7-9-8/h8H,2-7H2,1H3	InChI=1S/C8H16O/c1-2-3-5-8-6-4-7-9-8/h8H,2-7H2,1H3/t8-/m0/s1
