21
gdb 84110	2.53995	1.46591	1.11395	1.7089	84.39	-0.2314	0.0115	0.243	1201.3622	0.180938	-387.099724	-387.09043	-387.089486	-387.133117	35.546	
C	-0.1337849371	 1.5398015549	 0.083325351	-0.3956
C	-0.0177330096	 0.0114694405	-0.0193152398	-0.093099
C	 0.7977124141	-0.4617908994	-1.2076835317	-0.191131
C	 1.8222592731	-1.2526255522	-0.8692912729	 0.330377
C	 2.8322263577	-1.8975609835	-1.7637948156	-0.500268
C	 1.8532991886	-1.391023151	 0.6233058112	-0.142903
O	 2.0688778172	-0.1297913403	 1.3079275406	-0.30215
C	 0.7256294618	-0.619596791	 1.1712320608	 0.413789
C	-0.0018064362	-0.9245063518	 2.4513309399	-0.489088
H	 0.8581080566	 1.980643217	 0.2113316808	 0.137036
H	-0.5882276316	 1.9611477363	-0.8188166085	 0.110671
H	-0.7552504258	 1.8321469728	 0.9364394302	 0.112046
H	-1.0316585592	-0.4131286181	-0.0688708606	 0.076166
H	 0.5756906563	-0.1361160343	-2.2195974984	 0.089248
H	 2.6257930253	-1.6884797068	-2.8168929172	 0.124525
H	 3.8458937575	-1.5442414561	-1.5369329141	 0.134546
H	 2.8440813893	-2.9870190888	-1.6315659072	 0.124705
H	 2.291503043	-2.2564390617	 1.1151398771	 0.085003
H	-0.3917453189	-0.0057694288	 2.9044235933	 0.12691
H	-0.8493097918	-1.5938167101	 2.2695046905	 0.120585
H	 0.6707142499	-1.3961098076	 3.1722053205	 0.12863
135.0789	146.6345	181.6214	193.1017	226.8654	232.2223	244.5311	322.5032	379.029	441.9942	508.4188	580.4105	597.8967	643.2018	726.6139	816.3107	858.9139	867.6523	916.3644	932.2489	991.3633	1005.985	1028.6549	1048.9334	1066.8979	1081.537	1105.8388	1135.8891	1194.6866	1221.4015	1262.171	1306.7239	1337.4104	1345.8376	1401.4308	1407.0661	1414.2493	1449.0474	1479.0071	1483.8288	1489.4331	1494.8324	1496.5288	1505.0633	1706.3865	2992.6776	3018.1343	3032.1462	3036.3068	3064.8737	3093.199	3099.7104	3111.1842	3121.5804	3125.4113	3140.8654	3174.9008
CC1C=C(C)C2OC12C	C[C@H]1C=C(C)[C@H]2O[C@@]12C	
InChI=1S/C8H12O/c1-5-4-6(2)8(3)7(5)9-8/h4,6-7H,1-3H3	InChI=1S/C8H12O/c1-5-4-6(2)8(3)7(5)9-8/h4,6-7H,1-3H3/t6-,7+,8-/m0/s1
