18
gdb 17800	4.34891	1.57192	1.38798	2.5356	72.57	-0.2373	-0.0137	0.2236	953.0993	0.153833	-347.771365	-347.76386	-347.762915	-347.803717	28.193	
C	-1.2966426648	 0.7172621832	 0.4643340846	-0.480747
C	-0.0213245374	-0.060762697	 0.1811735045	 0.346604
O	 0.9097661152	-0.0592662639	 0.9569911611	-0.302665
C	 0.0033823586	-0.8104434898	-1.1332528448	-0.05642
C	 1.2291599192	-1.6769142542	-1.5436015221	-0.046173
C	 0.7899932565	-2.7328978687	-0.4825432833	-0.218718
C	-0.5155057786	-2.2975639838	-1.2075402553	-0.054583
C	 0.2774850066	-2.4044092583	-2.5406463721	-0.223298
H	-1.4057650545	 1.5323328465	-0.2609017219	 0.140152
H	-2.1773250693	 0.0751556563	 0.35199148	 0.136369
H	-1.2624928813	 1.1333045178	 1.4718692533	 0.140591
H	-0.411705931	-0.1758085969	-1.9262062823	 0.07207
H	 2.2387936725	-1.3139782512	-1.7339908674	 0.079853
H	 1.112922699	-3.7604025	-0.6702372845	 0.0888
H	 0.9084964341	-2.4577730565	 0.5637093947	 0.122424
H	-1.5344650002	-2.6371680316	-1.0137478771	 0.073206
H	-0.0962154831	-1.8221666362	-3.3878386054	 0.088915
H	 0.5740883586	-3.4117592558	-2.8439871619	 0.093619
52.16	117.9765	166.8148	213.3543	357.1772	426.8591	550.4625	571.8514	622.0443	773.0736	800.6588	844.0527	871.6799	901.0735	907.7457	935.262	987.0341	1008.9822	1018.6329	1031.0099	1068.6591	1092.0839	1115.0218	1122.2584	1139.9333	1191.9233	1202.603	1211.2809	1238.1513	1246.6667	1265.0149	1376.7766	1401.3401	1463.2257	1475.0246	1502.1811	1540.9121	1798.5004	3028.3443	3035.9324	3048.0409	3067.2706	3094.0004	3096.3345	3114.7265	3119.3717	3151.3739	3159.9059
CC(=O)C1C2CC1C2	CC(=O)[C@H]1[C@H]2C[C@@H]1C2	
InChI=1S/C7H10O/c1-4(8)7-5-2-6(7)3-5/h5-7H,2-3H2,1H3	InChI=1S/C7H10O/c1-4(8)7-5-2-6(7)3-5/h5-7H,2-3H2,1H3/t5-,6+,7-
