20
gdb 120679	2.41435	0.76245	0.61444	1.7886	85.72	-0.2344	0.041	0.2754	1838.3307	0.16918	-403.092153	-403.081502	-403.080558	-403.129932	36.745	
C	 0.1047696339	 1.5304692974	 0.1628235599	-0.500168
C	 0.0399121176	 0.0772576102	 0.1149979563	 0.087913
C	-0.0147570647	-1.125946018	 0.0868677284	 0.135356
C	-0.0510185717	-2.5611110351	 0.0175304825	-0.267203
N	-0.7264990997	-3.2961796392	 1.117992846	-0.324986
C	-1.310387446	-3.3363331382	-0.2290758613	-0.008126
C	-2.6564417712	-2.6758567589	-0.4009593434	-0.218767
C	-3.7960847137	-3.5453487069	 0.1379752077	-0.054949
O	-5.0725523726	-2.9541940001	-0.0487485407	-0.42038
H	 1.1421849726	 1.8822919599	 0.1422404519	 0.149417
H	-0.4159903893	 1.9835405739	-0.6881675058	 0.148181
H	-0.3568465326	 1.9166189688	 1.0783604299	 0.150969
H	 0.8561942281	-3.0121503804	-0.3808497406	 0.104472
H	-0.2127422929	-4.1513774294	 1.3142661563	 0.233636
H	-1.1756849093	-4.2566257443	-0.7981525696	 0.086627
H	-2.6471986937	-1.7148928902	 0.1258035002	 0.105431
H	-2.8354917227	-2.4641764334	-1.4618815515	 0.105812
H	-3.8330093587	-4.49854346	-0.4022804859	 0.103198
H	-3.6067868173	-3.7770010154	 1.1968201414	 0.102639
H	-5.0959056462	-2.1439129505	 0.4702737779	 0.280927
29.4972	54.6718	76.7105	99.0229	137.3308	164.9776	251.0924	302.2012	321.1166	358.3755	399.4445	469.7716	525.8758	587.1179	736.5203	778.3777	830.6003	879.5934	923.2435	1003.5791	1014.2838	1044.8779	1052.6949	1053.1618	1076.2717	1108.7978	1148.4725	1156.1258	1212.5355	1250.4085	1270.2708	1295.9549	1316.5596	1388.6594	1414.4628	1415.8997	1422.5152	1461.302	1477.1231	1478.2287	1478.9247	1514.1509	2370.3958	2995.1029	3026.3762	3036.4237	3056.4374	3083.4359	3086.3376	3088.4188	3103.5547	3118.2531	3501.4118	3814.3271
CC#CC1NC1CCO	CC#C[C@H]1N[C@H]1CCO	
InChI=1S/C7H11NO/c1-2-3-6-7(8-6)4-5-9/h6-9H,4-5H2,1H3	InChI=1S/C7H11NO/c1-2-3-6-7(8-6)4-5-9/h6-9H,4-5H2,1H3/t6-,7+/m1/s1
