15
gdb 125360	3.3158	1.65844	1.1131	5.6909	73.56	-0.2087	0.0035	0.2122	1026.1007	0.115075	-412.993742	-412.986172	-412.985228	-413.025626	28.397	
C	-0.0159197452	 1.5094640826	 0.0409607669	-0.502943
C	-0.0055083603	 0.0137937532	 0.0303362234	 0.13631
C	-0.0323975221	-0.8045856717	-1.0709764325	-0.152583
N	-0.0113277642	-2.1608447481	-0.6953291612	-0.427842
C	 0.0296543924	-2.1791585758	 0.6620551273	 0.441958
C	 0.0348219663	-0.8824063891	 1.154642014	 0.237806
N	 0.0756107413	-0.9403104452	 2.5189066989	-0.298794
N	 0.0960720357	-2.1840038458	 2.8841341014	-0.130131
N	 0.067274363	-2.9771261315	 1.7455651973	-0.359153
H	 0.879067707	 1.9115595656	 0.5287699699	 0.136267
H	-0.0556002199	 1.9108062169	-0.9755433826	 0.117812
H	-0.8790264187	 1.8986063306	 0.5924472969	 0.136376
H	-0.0657731286	-0.5461610601	-2.1180836113	 0.123406
H	-0.0240503976	-2.9402170217	-1.3269399179	 0.267475
H	 0.0782665009	-3.9765371998	 1.8499605395	 0.274035
130.3075	181.2801	208.2171	235.3627	255.0857	360.9675	427.2866	527.3033	603.7244	604.9864	675.4707	699.7668	733.7042	781.3259	811.4618	925.2252	1004.6888	1016.4625	1065.9837	1080.4779	1138.8443	1242.1348	1252.2372	1298.0455	1364.5712	1375.1162	1421.3608	1468.767	1478.9121	1501.9141	1508.8773	1612.3541	1653.0329	3030.8457	3082.0677	3110.6106	3255.2254	3688.065	3699.9465
CC1=CNC2=C1N=NN2	Cc1c[nH]c2c1nn[nH]2	
InChI=1S/C5H6N4/c1-3-2-6-5-4(3)7-9-8-5/h2H,1H3,(H2,6,7,8,9)	InChI=1S/C5H6N4/c1-3-2-6-5-4(3)7-9-8-5/h2H,1H3,(H2,6,7,8,9)
