18
gdb 128854	5.80283	0.69882	0.67788	5.799	73.67	-0.2498	0.0162	0.2661	1662.4305	0.148354	-435.262978	-435.254038	-435.253094	-435.298467	30.661	
C	-0.0343607266	 1.3855930421	 0.0480068753	-0.232474
O	 0.0059382507	-0.023703251	-0.0018129645	-0.228673
C	 0.6546526834	-0.5171281524	-1.1445492915	-0.047564
C	 0.6205161321	-2.0438200361	-1.0529026598	-0.207342
N	 1.2669417332	-2.6759394038	-2.1900814442	-0.004475
C	 0.7142437567	-3.0178511864	-3.3934852381	 0.017563
N	 1.6142998995	-3.5175268694	-4.2000604498	-0.222065
N	 2.8173219931	-3.5096765062	-3.5205448926	-0.222097
C	 2.5862210589	-3.0056406551	-2.3361264538	 0.017589
H	 0.9768600862	 1.8200677758	 0.06470826	 0.112421
H	-0.5770488825	 1.8067170228	-0.8120895572	 0.112416
H	-0.5552817556	 1.6626643319	 0.9669164146	 0.135572
H	 0.1524334689	-0.1842937262	-2.0685850532	 0.101734
H	 1.6992457448	-0.1666887423	-1.1981240315	 0.101775
H	 1.119762298	-2.3668354694	-0.135879009	 0.141645
H	-0.4166622253	-2.3843347763	-0.9989494409	 0.141697
H	-0.3345036148	-2.8889916639	-3.6140829081	 0.141134
H	 3.3151819593	-2.8651469141	-1.5525315757	 0.141144
38.4226	76.8035	84.8456	103.1774	227.5411	231.9481	333.1922	339.4108	447.9477	654.5712	696.5645	751.9879	801.6518	818.6817	848.3297	958.1359	998.3291	1023.9145	1065.9159	1086.7594	1091.4199	1168.4938	1179.1478	1212.9819	1219.8951	1231.7524	1235.185	1293.6538	1346.506	1387.851	1395.6843	1427.2115	1482.7379	1487.1119	1489.7268	1499.3541	1504.9043	1531.5654	1554.2318	2957.1842	2980.7392	2989.0432	3027.4477	3071.1807	3121.0054	3123.9464	3258.765	3263.069
COCCN1C=NN=C1	COCCn1cnnc1	
InChI=1S/C5H9N3O/c1-9-3-2-8-4-6-7-5-8/h4-5H,2-3H2,1H3	InChI=1S/C5H9N3O/c1-9-3-2-8-4-6-7-5-8/h4-5H,2-3H2,1H3
