14
gdb 11741	4.68771	1.48333	1.28832	2.9506	58.13	-0.2826	-0.0037	0.2789	921.346	0.1066	-419.666677	-419.659506	-419.658562	-419.69845	26.355	
O	 0.0685648698	 1.4169014489	 0.225836944	-0.403898
C	 0.0080931462	 0.0429696572	-0.1080649061	-0.175785
C	-1.3716428706	-0.5099519937	 0.0442151105	 0.44699
C	-2.0934646695	-1.003796828	 1.2385308626	-0.321879
C	-1.9530068549	-1.9050176222	-0.0043980384	-0.333394
C	-2.8423565273	-1.3383610066	-1.0768293726	 0.466294
O	-3.6413954849	-1.7218339898	-1.8649598707	-0.319564
O	-2.3654830267	-0.0366572642	-0.9236474482	-0.306827
H	-0.5006983728	 1.8892772667	-0.391995341	 0.298783
H	 0.3594637102	-0.1429827244	-1.1337167682	 0.110528
H	 0.6828214118	-0.4773346799	 0.5788570464	 0.123892
H	-1.4799112974	-1.3200601213	 2.0768794532	 0.137817
H	-3.0594011211	-0.5849951464	 1.4998826731	 0.142898
H	-1.4981748728	-2.8843537162	 0.0181641053	 0.134146
77.6842	126.9497	206.5003	321.8567	373.7382	412.6735	458.416	483.2194	659.4497	717.6689	777.4699	848.2685	893.0502	905.5949	962.381	982.7316	1005.4966	1026.6154	1071.1253	1081.4225	1101.9554	1175.2985	1218.8568	1277.5676	1385.1163	1393.5777	1437.7676	1485.5939	1497.5797	1947.855	3000.8284	3087.2955	3128.9331	3221.3547	3232.4225	3807.8637
OCC12CC1C(=O)O2	OC[C@]12C[C@H]1C(=O)O2	
InChI=1S/C5H6O3/c6-2-5-1-3(5)4(7)8-5/h3,6H,1-2H2	InChI=1S/C5H6O3/c6-2-5-1-3(5)4(7)8-5/h3,6H,1-2H2/t3-,5+/m0/s1
