18
gdb 44968	2.55153	1.80096	1.6009	3.469	70.2	-0.2278	0.01	0.2377	927.656	0.152372	-439.133106	-439.126341	-439.125397	-439.164068	27.673	
O	-0.0114991751	 0.0051410554	-0.3711720895	-0.34988
C	 0.0215314646	 1.1741292721	-0.1185661448	 0.425032
O	-1.1038242263	 1.9103278583	 0.1321993483	-0.239035
C	-0.7149021425	 3.2744559858	 0.4612474271	 0.093552
C	 0.6060173771	 3.4524582245	-0.2983943019	-0.221854
C	 1.235102639	 2.1096368872	 0.0686798742	-0.132913
N	 1.6486353218	 2.1605044655	 1.4807362633	-0.297248
C	 0.5182781326	 2.2818863877	 2.4203391726	-0.171945
C	-0.462348453	 3.3796930556	 1.9703413833	-0.203208
H	-1.5271116775	 3.9220516943	 0.1282917592	 0.092617
H	 0.4306127063	 3.5318545206	-1.3750495954	 0.112801
H	 1.1955451175	 4.3030166936	 0.0460974395	 0.115174
H	 2.0774223662	 1.7961674216	-0.5467797443	 0.097678
H	 2.1781346155	 1.3247599492	 1.7059582834	 0.232469
H	-0.0452358373	 1.3402448723	 2.5169707566	 0.115102
H	 0.9196966786	 2.5164832565	 3.4108273496	 0.10758
H	-0.0589277063	 4.3760647908	 2.182091995	 0.11065
H	-1.3984035913	 3.274901239	 2.5265955636	 0.11343
137.8856	234.7609	280.5582	360.1747	423.917	456.4272	498.8323	571.2863	688.0817	726.864	756.6078	807.1364	829.2706	848.2232	890.3204	910.1553	926.4203	976.8078	1015.6903	1063.3474	1079.0243	1095.461	1118.331	1145.9098	1182.0046	1203.177	1236.5892	1271.0552	1317.3332	1331.1916	1349.382	1354.9633	1381.2079	1410.7321	1470.786	1486.5574	1492.3789	1522.0873	1882.2784	2974.8658	3047.164	3066.4618	3073.535	3096.37	3105.7652	3126.7732	3133.3031	3526.0618
O=C1OC2CC1NCC2	O=C1O[C@@H]2C[C@H]1NCC2	
InChI=1S/C6H9NO2/c8-6-5-3-4(9-6)1-2-7-5/h4-5,7H,1-3H2	InChI=1S/C6H9NO2/c8-6-5-3-4(9-6)1-2-7-5/h4-5,7H,1-3H2/t4-,5+/m0/s1
