15
gdb 113534	3.91436	0.96917	0.86707	3.446	62.56	-0.2808	-0.022	0.2588	1294.163	0.111257	-494.885172	-494.876873	-494.875929	-494.918835	29.561	
O	 0.0468549608	 1.3715732624	-0.4523567428	-0.408104
C	 0.0484412856	 0.1422979987	 0.245358346	-0.080259
C	-1.3309905881	-0.4655904495	 0.2957900222	-0.063452
O	-1.7632265055	-1.1218089948	-0.9164049579	-0.271688
C	-1.54774649	-1.9134693105	 0.2215347599	 0.205307
C	-0.6298393075	-3.1272222345	 0.3515728549	-0.160722
O	-1.6988686258	-3.8211711074	 1.0714852239	-0.246258
C	-2.5906367239	-2.7785038479	 0.9176795251	 0.413916
O	-3.7219030352	-2.7164405939	 1.2649319895	-0.321809
H	-0.2503449708	 1.192927448	-1.3516706559	 0.297076
H	 0.7510005672	-0.5807399456	-0.1965221192	 0.096635
H	 0.3884650045	 0.36553808	 1.2624179577	 0.126641
H	-2.1065167551	 0.142081938	 0.7612553783	 0.133161
H	-0.3936860385	-3.631322498	-0.5876518459	 0.143301
H	 0.2578394723	-3.0213331151	 0.9779790642	 0.136254
69.3163	110.1794	149.7895	164.2664	264.078	290.0043	389.484	412.7303	478.5035	585.2532	639.0364	735.6859	785.2964	843.5185	892.4792	947.0698	996.3383	1005.7807	1075.052	1087.5963	1105.02	1116.2313	1151.093	1179.6867	1225.7728	1308.0265	1337.5313	1387.3651	1421.7732	1487.2417	1507.9512	1516.2594	1952.2002	2991.104	3075.4719	3077.0614	3130.8997	3138.9892	3805.1399
OCC1OC11COC1=O	OC[C@H]1O[C@]21COC2=O	
InChI=1S/C5H6O4/c6-1-3-5(9-3)2-8-4(5)7/h3,6H,1-2H2	InChI=1S/C5H6O4/c6-1-3-5(9-3)2-8-4(5)7/h3,6H,1-2H2/t3-,5+/m1/s1
