17
gdb 26682	2.27188	1.6045	0.95452	0.3562	73.75	-0.1722	0.0416	0.2138	1196.3807	0.134871	-455.164484	-455.154582	-455.153638	-455.198862	35.645	
C	 0.0392770272	 1.5513371191	 0.0889382233	-0.514425
C	 0.0526613438	 0.058680366	 0.0356584028	 0.160882
C	 0.0256006262	-0.7272379046	-1.0727619172	 0.168647
N	-0.0292629717	-0.4063976055	-2.429065145	-0.59304
O	 0.0435829274	-2.0697069631	-0.7032093546	-0.199946
C	 0.0812714341	-2.1112858428	 0.6509734397	 0.289009
N	 0.1826418812	-3.3634043303	 1.2505193736	-0.601301
C	 0.0819981907	-0.8473729035	 1.1563619366	 0.07931
O	 0.0288094326	-0.541646714	 2.4985447304	-0.453894
H	 0.9409483007	 1.9509511953	 0.5706282907	 0.112101
H	-0.0120980099	 1.9629721905	-0.9214200106	 0.141818
H	-0.818128498	 1.9237776666	 0.6613940011	 0.128758
H	-0.9009613377	-0.6929527022	-2.8651820417	 0.24071
H	 0.7312176331	-0.8244004931	-2.9566317238	 0.241657
H	-0.5278523832	-4.0111001371	 0.9255484613	 0.24859
H	 0.1152182416	-3.2666475924	 2.2567925833	 0.255931
H	 0.7956873818	-0.0054626189	 2.7267851302	 0.295193
99.7984	128.7436	151.0583	188.5085	216.9789	221.401	238.0022	281.0705	304.7718	339.6311	357.4607	547.9364	607.2798	625.5702	638.0045	672.7249	732.0603	787.7637	805.1614	891.063	1027.3788	1065.7556	1084.589	1120.6845	1184.5261	1212.0442	1267.1074	1334.5235	1358.9197	1412.8115	1463.4602	1488.121	1494.6274	1626.9368	1649.4262	1698.1434	1729.3982	3019.0952	3066.72	3126.4421	3482.5276	3507.3516	3544.3021	3608.9173	3792.7756
CC1=C(N)OC(N)=C1O	Cc1c(N)oc(N)c1O	
InChI=1S/C5H8N2O2/c1-2-3(8)5(7)9-4(2)6/h8H,6-7H2,1H3	InChI=1S/C5H8N2O2/c1-2-3(8)5(7)9-4(2)6/h8H,6-7H2,1H3
