17
gdb 105659	2.02889	1.43786	1.22427	4.5408	68.96	-0.2455	0.0049	0.2504	1120.6642	0.135292	-455.117411	-455.108073	-455.107129	-455.151697	33.548	
N	-0.1593950371	 1.3852008652	 0.1842000308	-0.508516
C	 0.0844368245	-0.0428761011	 0.0217719712	-0.192223
C	 0.9818509284	-0.5186895538	 1.1621681915	 0.218968
O	 0.3271366207	-0.3458223221	 2.4457784169	-0.312054
C	 0.1638123488	-1.7730636001	 2.6214567939	-0.090786
C	 1.0325599902	-2.0755024105	 1.3934452403	 0.003192
O	 0.414855378	-2.9037987096	 0.4523572201	-0.408959
C	 2.2961539087	 0.1328419034	 1.1427178798	 0.279165
N	 3.3694022146	 0.5610415696	 1.1208424852	-0.340711
H	-0.7526410623	 1.7289044817	-0.5629127279	 0.234761
H	-0.6558468028	 1.5385184567	 1.056850403	 0.243092
H	-0.813722407	-0.6782948162	 0.024887928	 0.105594
H	 0.6000234945	-0.2143869587	-0.9304590788	 0.113473
H	 0.5386826522	-2.1105055634	 3.5918467117	 0.12363
H	-0.8768055877	-2.0911948209	 2.4909763896	 0.121063
H	 2.042265336	-2.4144478327	 1.6440607685	 0.11033
H	 1.0701815403	-3.1918768376	-0.1908103338	 0.299979
75.7908	104.0976	153.0769	166.8194	190.5528	259.3271	301.1538	313.4187	381.6065	417.7533	505.6346	550.3381	598.5207	650.3985	774.8544	849.8311	902.1585	951.3867	998.1874	1010.7054	1027.7416	1081.3731	1117.6538	1153.1699	1158.6364	1183.0772	1215.4196	1252.9372	1302.6778	1332.1302	1340.3138	1421.6344	1453.6214	1497.0342	1517.743	1652.5156	2353.5164	2992.5191	3038.7892	3060.8444	3061.365	3098.6762	3504.2815	3586.7248	3826.2227
NCC1(OCC1O)C#N	NC[C@]1(OC[C@H]1O)C#N	
InChI=1S/C5H8N2O2/c6-2-5(3-7)4(8)1-9-5/h4,8H,1-2,6H2	InChI=1S/C5H8N2O2/c6-2-5(3-7)4(8)1-9-5/h4,8H,1-2,6H2/t4-,5+/m1/s1
