22
gdb 116214	2.16184	1.57478	1.02984	2.3113	82.09	-0.2335	0.0741	0.3076	1236.4274	0.195425	-404.326469	-404.317348	-404.316404	-404.360939	34.23	
C	 0.1890838749	 1.5464108437	 0.2559219123	-0.240128
O	 0.4639971854	 0.1938953063	-0.0327405921	-0.253372
C	 0.7040572435	-0.6054384691	 1.1030519244	 0.063724
C	-0.520876182	-1.0127789722	 1.937549793	-0.239562
C	 0.0193200386	-2.1864589031	 2.7811095459	-0.21631
C	 1.067977192	-2.9012588153	 1.8791295475	-0.282944
C	 1.2979772041	-1.9518345795	 0.701716034	 0.350565
C	 1.2580269126	-2.3936795199	-0.713481175	-0.284426
N	 2.5401121038	-2.0327694579	-0.0683993668	-0.387456
H	 0.9997437205	 2.0089656271	 0.840458339	 0.10589
H	 0.1003023183	 2.0692903318	-0.6994460732	 0.127998
H	-0.7506200373	 1.669307741	 0.8128844835	 0.111456
H	 1.4254553391	-0.0852188695	 1.7619337794	 0.062657
H	-0.9272178686	-0.2028892146	 2.5493576332	 0.091987
H	-1.3080114167	-1.3480091343	 1.2519560356	 0.107312
H	 0.5011170331	-1.7998786315	 3.6852099446	 0.103004
H	-0.7770755482	-2.8569963761	 3.1125405947	 0.101992
H	 2.0052973248	-3.0825042834	 2.4125543051	 0.111477
H	 0.7079242137	-3.873509325	 1.5314737199	 0.104855
H	 1.1447158087	-3.4521346772	-0.9347942176	 0.106763
H	 0.8448085092	-1.7143326768	-1.4508550021	 0.126208
H	 2.7965542105	-1.0953176043	-0.3754518354	 0.228309
42.8843	93.2722	148.9684	184.2233	217.4503	269.424	324.457	365.2103	450.4681	498.0829	533.6324	584.2872	747.6363	788.9371	839.7846	892.3651	913.854	933.1349	943.643	991.9004	1003.5956	1027.8283	1038.1813	1076.5782	1096.9109	1132.8478	1160.1213	1169.4645	1186.3904	1203.0524	1231.3719	1239.7127	1277.6656	1294.2099	1301.0734	1319.615	1345.6005	1349.3893	1402.127	1406.2921	1481.0035	1489.4389	1489.7681	1493.3124	1505.0241	1510.4112	1513.8861	2918.6943	2979.4185	3031.5503	3041.9183	3047.5601	3058.0244	3086.6062	3094.9021	3107.1853	3110.9232	3114.5265	3210.6677	3471.1799
COC1CCCC11CN1	CO[C@H]1CCC[C@]21CN2	
InChI=1S/C7H13NO/c1-9-6-3-2-4-7(6)5-8-7/h6,8H,2-5H2,1H3	InChI=1S/C7H13NO/c1-9-6-3-2-4-7(6)5-8-7/h6,8H,2-5H2,1H3/t6-,7+/m0/s1
