12
gdb 132474	3.2278	1.43691	0.99428	1.5229	63.27	-0.2236	-0.0573	0.1664	1048.1323	0.077486	-513.930905	-513.923903	-513.922959	-513.962623	26.485	
O	-0.0767873824	 1.2909116594	 0.1545076284	-0.377749
C	 0.0174108382	-0.0386900946	 0.037323968	 0.377569
N	 1.1554889638	-0.6187223409	-0.0742902907	-0.336296
C	 1.1849185658	-2.0021590482	-0.1924212405	-0.258192
C	 0.0414808789	-2.6943424049	-0.1876451445	 0.340283
F	-0.0675115237	-3.9987246267	-0.2914822578	-0.036308
O	-1.1692375317	-2.1229272892	-0.0727455276	-0.233502
C	-1.2831644025	-0.7403261758	 0.0499573045	 0.335501
N	-2.4013075267	-0.1674927586	 0.1598601661	-0.494834
H	 0.8304821357	 1.6294196712	 0.1329827918	 0.307633
H	 2.1432149641	-2.4914835225	-0.2864877588	 0.137119
H	-3.1671354094	-0.8421718393	 0.1452769012	 0.238776
98.1809	162.3068	329.3847	353.3029	407.5319	419.4671	488.4342	512.5278	576.0306	593.6293	636.7421	719.4431	778.5091	792.1787	829.8916	874.0587	987.7261	1060.6156	1137.1599	1233.1822	1282.6692	1299.416	1382.7375	1455.7254	1656.426	1701.2416	1758.2534	3237.4725	3491.0588	3757.1478
OC1=NC=C(F)OC1=N	OC1=C(OC(=C[N]1)F)[NH]	
InChI=1S/C4H3FN2O2/c5-2-1-7-4(8)3(6)9-2/h1,6H,(H,7,8)	InChI=1S/C4H3FN2O2/c5-2-1-7-4(8)3(6)9-2/h1,6H,(H,7,8)
