19
gdb 41311	3.04683	2.10736	1.75349	1.6659	76.96	-0.2295	0.0592	0.2888	855.1983	0.162696	-385.787371	-385.781334	-385.78039	-385.817194	26.981	
C	 0.0400685719	 1.5263134118	-0.221366924	-0.177861
O	 1.4456434037	 1.5427572115	 0.2177184138	-0.336254
C	 1.2426337687	 0.2412309487	 0.7932654223	 0.38761
C	 0.4779135152	 0.1150293816	 2.1320326607	-0.30087
C	-0.3991332078	-0.8440019788	 1.2770009199	-0.112894
C	 0.6428983684	-1.9853189778	 1.0390447434	-0.199376
C	 1.6655835811	-1.1546921387	 0.2008927111	-0.113791
C	 0.7847944138	-0.836949725	-1.0335960836	-0.274934
C	-0.0417491439	-0.0018503925	-0.0132083188	 0.170511
H	-0.5873009057	 2.1417714419	 0.4328406744	 0.109908
H	-0.0564063907	 1.8764742478	-1.2534888983	 0.11274
H	 0.9710108879	-0.2969906706	 3.0161401656	 0.09458
H	-0.0080167143	 1.0577429007	 2.3881110356	 0.107799
H	-1.4056581153	-1.1454452837	 1.5679552596	 0.066246
H	 1.0425760295	-2.3606466313	 1.9846240944	 0.098301
H	 0.2540851507	-2.830031754	 0.4642060453	 0.09875
H	 2.6848681914	-1.5376615774	 0.1373712202	 0.067166
H	 1.2732719049	-0.1815488048	-1.7565881272	 0.111577
H	 0.3169525606	-1.6777029993	-1.5531746344	 0.090793
308.1611	326.4297	359.6856	456.099	490.6362	523.1409	543.3518	685.3931	743.1332	776.3812	808.9685	856.793	868.7097	896.0284	901.0903	916.7296	930.1237	954.7185	967.2465	995.0786	1038.2484	1059.3816	1072.7411	1111.1902	1134.7094	1156.4578	1169.259	1174.8333	1198.4952	1217.0372	1225.7871	1228.7428	1261.8399	1268.0167	1289.0115	1307.2061	1324.9401	1481.2993	1491.8892	1509.6009	1521.9947	3031.0557	3055.6679	3059.3128	3064.3638	3086.9615	3100.8744	3105.4994	3106.4886	3125.6194	3128.7855
C1OC23CC4CC2CC134	C1O[C@]23C[C@@H]4C[C@H]2C[C@]134	
InChI=1S/C8H10O/c1-5-3-8-6(1)2-7(5,8)4-9-8/h5-6H,1-4H2	InChI=1S/C8H10O/c1-5-3-8-6(1)2-7(5,8)4-9-8/h5-6H,1-4H2/t5-,6-,7+,8+/m0/s1
