13
gdb 6635	6.01601	0.81756	0.72365	4.0946	69.82	-0.2557	-0.0219	0.2338	1455.0039	0.09266	-361.426091	-361.416862	-361.415918	-361.462986	30.679	
N	-0.0545055209	 1.3758594235	 0.044987691	-0.520751
C	 0.0756939025	 0.0208562659	-0.0595725448	 0.268759
O	 1.1463493739	-0.5431727886	-0.1684144019	-0.330404
C	-1.1948003745	-0.6932882105	-0.038422927	 0.054036
C	-2.2129132752	-1.3362301389	-0.0253019409	 0.065371
C	-3.4531020304	-2.1124377654	-0.0122396787	-0.502248
C	-3.2418375026	-3.5596980072	 0.0307221602	 0.317194
C	-3.0817561567	-4.7483205378	 0.0667071425	-0.428747
H	 0.7830939216	 1.9334377586	 0.0795483607	 0.266815
H	-0.9484527395	 1.8108264533	 0.1899338259	 0.265222
H	-4.062612161	-1.8038775307	 0.8484710737	 0.168233
H	-4.04609209	-1.8535038266	-0.9005449618	 0.169892
H	-2.9302385172	-5.7989777855	 0.0977816811	 0.206629
5.8949	66.0428	91.7618	140.9718	155.1729	314.8166	322.6186	365.8113	413.8335	532.5131	566.4721	622.5963	632.3536	658.224	726.2544	772.2044	929.1664	939.7935	1079.0168	1088.8083	1231.0209	1331.4964	1349.8274	1445.3971	1607.6379	1777.3552	2251.2238	2357.0173	3009.0905	3034.1207	3506.1295	3603.0162	3745.5631
NC(=O)C#CCC#C	NC(=O)C#CCC#C	
InChI=1S/C6H5NO/c1-2-3-4-5-6(7)8/h1H,3H2,(H2,7,8)	InChI=1S/C6H5NO/c1-2-3-4-5-6(7)8/h1H,3H2,(H2,7,8)
