23
gdb 112733	2.41773	1.18528	1.00357	1.0669	82.5	-0.244	0.0819	0.3259	1342.5892	0.202844	-425.415183	-425.404567	-425.403623	-425.450247	39.612	
C	-0.7366157893	 1.793126636	 0.0945883779	-0.238336
O	-0.5800066504	 0.5382167374	 0.7175763087	-0.24981
C	-1.2470564886	-0.5019748942	 0.0541104461	 0.113592
C	-0.6642597659	-1.0779480651	-1.2659916238	-0.301518
C	-1.0281977799	-2.4952596321	-0.7391214687	 0.018135
C	-0.1210122997	-3.6742413668	-1.0533951513	-0.419846
C	-1.0996822512	-1.9076840816	 0.7022957828	 0.333449
C	 0.1680578915	-2.0553844202	 1.5370991442	-0.444693
O	-2.2293258948	-2.3974374659	 1.4025940072	-0.481063
H	-0.2015451624	 2.5284614532	 0.7007246398	 0.124679
H	-0.3191463607	 1.8025899424	-0.9232811021	 0.108916
H	-1.7968202088	 2.0856941742	 0.0335403304	 0.104112
H	-2.3167889206	-0.2685202621	-0.0606278812	 0.067852
H	-1.1080330323	-0.7578593053	-2.2107154011	 0.09601
H	 0.4192967831	-0.9275296893	-1.3095772936	 0.102512
H	-2.0570165277	-2.735474962	-1.0271242487	 0.085379
H	 0.9218108118	-3.4660561135	-0.7928334749	 0.111994
H	-0.4333392541	-4.5702488174	-0.5061342882	 0.122222
H	-0.1521280868	-3.9120884799	-2.1223028946	 0.113783
H	 1.0577072559	-1.7183635673	 0.9995339116	 0.123188
H	 0.0945711983	-1.4422577024	 2.4418404757	 0.116895
H	 0.3057391841	-3.1005634611	 1.8286583713	 0.117999
H	-2.1986369415	-2.0509487668	 2.3011331125	 0.274552
77.8878	105.775	168.3002	196.4577	208.1999	234.0874	239.6357	264.2058	285.4434	321.3049	339.5957	400.4297	459.9824	495.4196	555.0078	598.3434	740.2482	817.8549	884.581	904.119	936.2206	967.7372	1010.3112	1024.9939	1090.9793	1098.3724	1129.8406	1161.1865	1169.8644	1182.5032	1186.0676	1206.2841	1228.7849	1248.5126	1265.3824	1311.3594	1360.0176	1378.6277	1396.867	1411.9305	1415.4056	1480.8239	1484.8449	1486.5996	1488.3795	1494.1193	1500.639	1501.8798	1510.5458	2973.9402	2987.5631	3023.377	3029.023	3038.9924	3051.1103	3056.2628	3093.6697	3099.9907	3106.005	3111.3197	3115.0143	3125.5381	3800.5991
COC1CC(C)C1(C)O	CO[C@H]1C[C@@H](C)[C@]1(C)O	
InChI=1S/C7H14O2/c1-5-4-6(9-3)7(5,2)8/h5-6,8H,4H2,1-3H3	InChI=1S/C7H14O2/c1-5-4-6(9-3)7(5,2)8/h5-6,8H,4H2,1-3H3/t5-,6+,7+/m1/s1
