21
gdb 58142	1.77551	1.5334	1.12328	2.0375	79.49	-0.2543	-0.0608	0.1935	1222.0829	0.177671	-424.252155	-424.241161	-424.240217	-424.288424	38.898	
C	-0.0285569964	 1.628514944	-0.0437001859	-0.41732
C	-0.0000598987	 0.0934431193	-0.0753689503	 0.023118
C	 1.0024265827	-0.4503850172	 0.9531776077	-0.420261
C	-1.4243420779	-0.5299181256	 0.0900514458	 0.072948
C	-2.1535434473	-0.1845232453	 1.3903199253	-0.45083
C	-2.292831612	-0.1519227706	-1.1178500097	 0.129269
O	-1.878328783	-0.0298670361	-2.2417491293	-0.257609
C	-1.2752766372	-2.0555714121	-0.0485083094	 0.134925
O	-1.7294360019	-2.8610793487	 0.7184067195	-0.244423
H	 0.970258852	 2.0228052725	-0.2556510079	 0.120385
H	-0.7110188569	 2.0386441898	-0.7928330808	 0.128306
H	-0.3261181744	 2.0074723536	 0.9395196354	 0.118724
H	 0.3334316034	-0.2061749678	-1.0755520868	 0.103083
H	 0.7383736935	-0.1501986846	 1.9724233441	 0.123913
H	 1.0683299096	-1.5430828929	 0.9366577121	 0.124873
H	 2.0020709874	-0.0564288655	 0.7453062424	 0.120974
H	-2.3378760436	 0.8901585866	 1.4691677733	 0.121681
H	-3.1149196069	-0.7031075379	 1.4364499935	 0.136114
H	-1.5788720413	-0.5034785213	 2.2619625887	 0.137402
H	-3.3750721189	-0.0353422891	-0.8869422708	 0.09233
H	-0.7021459821	-2.3629321614	-0.950486547	 0.102399
56.6718	72.3749	89.2368	165.2796	193.5442	225.4861	241.3309	258.5363	278.9172	296.6808	320.2217	368.4228	416.8585	452.0501	570.1097	655.9449	734.1791	841.811	885.4575	920.6588	932.5112	968.504	983.2102	1023.2551	1076.1133	1114.4041	1166.088	1184.7157	1210.5155	1227.4182	1346.7021	1364.0479	1399.0339	1404.4918	1418.3241	1425.2141	1431.5753	1482.2032	1487.1643	1493.7535	1502.3849	1509.5544	1511.3951	1797.8024	1838.0874	2884.0798	2896.728	3035.6056	3039.0639	3044.7502	3054.7547	3100.875	3103.5665	3108.1351	3118.9529	3123.1073	3136.8197
CC(C)C(C)(C=O)C=O	CC(C)C(C)(C=O)C=O	
InChI=1S/C7H12O2/c1-6(2)7(3,4-8)5-9/h4-6H,1-3H3	InChI=1S/C7H12O2/c1-6(2)7(3,4-8)5-9/h4-6H,1-3H3
