16
gdb 34931	4.97815	0.98755	0.91322	2.2937	77.25	-0.2414	0.0265	0.2678	1261.2425	0.12266	-400.632682	-400.624863	-400.623918	-400.664984	30.203	
C	-0.0772609429	-1.1099796155	-0.0058311044	-0.375514
C	-0.0046618615	 0.0889152545	 0.0331940951	 0.304165
C	 0.0448643115	 1.5223378733	 0.0922503611	-0.236319
C	 0.5955376002	 2.2016356529	 1.3020951986	-0.144423
N	 1.3993114719	 2.1354655486	 0.023423994	-0.129136
C	 1.1573699029	 3.6163424655	-0.169899089	-0.262029
C	 0.4006530466	 3.6917303023	 1.1614466415	 0.452737
C	-0.6112142563	 4.5974126864	 1.7064031582	-0.271493
O	 0.749416071	 4.6085774208	 2.1739282111	-0.271711
H	-0.1296735605	-2.1696637734	-0.0491291084	 0.197535
H	-0.7570129459	 2.0282552474	-0.4450121578	 0.113493
H	 0.8772373686	 1.662915251	 2.1997762756	 0.123611
H	 2.1072126334	 4.1533371094	-0.1288627849	 0.138459
H	 0.6247910986	 3.8672863821	-1.0923526422	 0.115432
H	-0.9129293499	 5.4765912384	 1.1390206836	 0.121823
H	-1.3457700578	 4.2248167964	 2.4187621879	 0.12337
106.2475	129.6465	187.2051	280.8799	338.0682	381.6968	452.9118	488.4101	497.68	578.3495	614.6704	661.8261	782.364	828.4446	841.3228	877.1091	891.9245	949.5541	987.6348	999.9385	1047.389	1072.3368	1106.8525	1123.5722	1152.3077	1173.5992	1177.9254	1207.621	1268.0978	1289.0191	1397.9457	1448.0075	1483.7867	1537.28	2245.3081	3055.4208	3084.5988	3105.3947	3124.9533	3173.5347	3185.9125	3504.5758
C#CC1C2N1CC21CO1	C#C[C@H]1[C@H]2N1C[C@]12CO1	
InChI=1S/C7H7NO/c1-2-5-6-7(4-9-7)3-8(5)6/h1,5-6H,3-4H2	InChI=1S/C7H7NO/c1-2-5-6-7(4-9-7)3-8(5)6/h1,5-6H,3-4H2/t5-,6+,7+,8?/m0/s1
