23
gdb 80907	2.38012	1.38402	1.31652	1.2125	86.29	-0.2505	0.0749	0.3253	1175.6757	0.203848	-388.243122	-388.233027	-388.232083	-388.277538	38.708	
C	-0.3591497623	 1.4874233313	 0.8907016067	-0.459167
C	-0.0747879263	 0.0432390828	 0.4940461798	-0.009493
C	 1.2213273512	-0.3746021767	-0.2801994097	-0.110356
C	 2.0137879897	-0.1483902844	 1.0404471279	-0.323482
C	 0.7217921184	-0.942274731	 1.423232461	 0.354299
O	 0.3521256275	-1.4472967624	 2.6593217407	-0.479972
C	 0.9637672752	-1.8662932045	 0.1804641658	 0.333682
C	-0.2184447115	-2.6460618034	-0.4153996226	-0.476444
C	 2.1447175788	-2.846272534	 0.2252926783	-0.473103
H	 0.4994180979	 2.0282427617	 1.2949295227	 0.116255
H	-0.7205453956	 2.0524317446	 0.0242486965	 0.119842
H	-1.1547103452	 1.5200215577	 1.6449633826	 0.113579
H	-0.9948457261	-0.3763675054	 0.0904838625	 0.063008
H	 1.5160868159	-0.0435561261	-1.2750611542	 0.06919
H	 2.9748353254	-0.6433378752	 1.1535378144	 0.094733
H	 2.08452581	 0.8794918271	 1.3944571796	 0.085958
H	 0.2740338949	-0.7151653724	 3.2804755813	 0.281672
H	-1.1002099138	-2.0510985386	-0.6502590603	 0.116328
H	 0.0946411987	-3.1380746982	-1.3428620023	 0.110597
H	-0.5292541012	-3.4350060974	 0.27844267	 0.125271
H	 1.8505590155	-3.7489619542	 0.77185988	 0.121608
H	 2.4124769596	-3.1583959757	-0.7904634589	 0.111401
H	 3.0473440432	-2.4638855757	 0.7000008684	 0.114593
67.634	152.3514	156.5393	166.4494	191.1549	230.5362	238.1297	276.9714	393.666	423.9391	457.9751	495.3801	529.2222	569.8991	647.0646	691.4764	736.6947	801.2228	827.2118	911.2688	943.404	952.7231	963.4124	1003.0222	1021.8471	1047.3022	1056.9897	1081.2116	1106.6395	1135.0749	1158.2387	1175.9926	1213.9564	1215.0328	1227.2727	1259.1186	1278.445	1369.7427	1398.2331	1411.4347	1420.3501	1435.7406	1483.9596	1490.04	1498.0849	1500.1104	1511.8858	1516.3962	1552.1804	3029.6369	3033.9094	3040.8704	3081.6059	3086.1436	3092.5143	3098.7622	3108.5852	3123.7338	3127.085	3140.646	3147.3194	3169.0557	3806.5809
CC1C2CC1(O)C2(C)C	C[C@H]1[C@H]2C[C@]1(O)C2(C)C	
InChI=1S/C8H14O/c1-5-6-4-8(5,9)7(6,2)3/h5-6,9H,4H2,1-3H3	InChI=1S/C8H14O/c1-5-6-4-8(5,9)7(6,2)3/h5-6,9H,4H2,1-3H3/t5-,6+,8+/m0/s1
