16
gdb 106027	2.74863	1.68686	1.29581	4.0676	68.64	-0.2359	-0.0058	0.2301	994.8365	0.123563	-437.813113	-437.805348	-437.804404	-437.845737	28.809	
C	 0.0706701755	 1.299681	 0.22281767	-0.266425
O	-0.0592235294	-0.0710905847	-0.1525413035	-0.283076
C	-1.3384180817	-0.529141323	-0.1159543439	 0.292825
C	-2.048486164	-0.9696929072	 1.2229280041	-0.148083
C	-3.5379510683	-0.9717684843	 0.9052868903	-0.196815
N	-3.1795014321	-1.5517835236	-0.4627744898	-0.224266
C	-1.8197979311	-1.9460989183	 0.1251753415	-0.09997
C	-2.4808273456	-0.375407776	-1.0705053493	 0.361316
O	-2.7747364757	 0.2874770009	-2.0123590362	-0.318611
H	 1.1316718872	 1.5427516133	 0.148684004	 0.138727
H	-0.500483172	 1.94760031	-0.45192842	 0.142673
H	-0.2706313671	 1.4609054774	 1.253719227	 0.116163
H	-1.5120645572	-0.8677051085	 2.1597167827	 0.109706
H	-4.1115575352	-1.6995420439	 1.4850893085	 0.124289
H	-4.0799675439	-0.0211921086	 0.8543056412	 0.120909
H	-1.3231105094	-2.8946814737	-0.0093049466	 0.130637
76.1628	144.918	164.2102	180.8656	294.201	364.5899	475.3385	486.0217	618.0745	678.6704	745.5798	797.669	831.452	874.7356	883.354	931.6737	953.0067	965.4963	982.5102	1019.2266	1049.869	1090.9895	1140.2901	1162.0317	1178.7186	1208.913	1214.9272	1288.8724	1309.0878	1403.1059	1486.6792	1495.3483	1505.0452	1512.1598	1922.443	3011.5874	3043.3587	3079.2144	3103.7409	3140.5971	3180.1761	3243.0757
COC12C3CN(C13)C2=O	CO[C@]12[C@H]3CN([C@@H]13)C2=O	
InChI=1S/C6H7NO2/c1-9-6-3-2-7(4(3)6)5(6)8/h3-4H,2H2,1H3	InChI=1S/C6H7NO2/c1-9-6-3-2-7(4(3)6)5(6)8/h3-4H,2H2,1H3/t3-,4+,6+/m0/s1
