19
gdb 73015	2.84435	1.52636	1.23578	2.2454	75.72	-0.2159	0.0657	0.2817	1071.2098	0.159336	-422.97007	-422.962051	-422.961107	-423.002546	31.395	
O	 0.2928593376	 1.3449534374	 0.0640754768	-0.463054
C	 0.0379621734	-0.0026983957	 0.0524650567	 0.368133
C	-0.8361332784	-0.6700855057	-0.9903351405	-0.293726
C	-1.2799050556	-1.7252222204	 0.0785757864	-0.229058
C	-0.4529180824	-1.0162241808	 1.1563964819	-0.239232
C	 0.9732019664	-0.9502512489	 0.7150537724	 0.385812
C	 2.0273894232	-1.9563997058	 0.2452043179	-0.376409
C	 2.9782919981	-1.1403590612	 1.1438466381	-0.074826
O	 1.9003831836	-0.2757925343	 1.591228707	-0.340305
H	 1.081753414	 1.4598193989	 0.6166737794	 0.290933
H	-1.6666657365	-0.0280409139	-1.2924612246	 0.118559
H	-0.3308560594	-1.0368222395	-1.8911207745	 0.092914
H	-2.3525060024	-1.6901215877	 0.2768787615	 0.111365
H	-1.000812032	-2.7635806738	-0.1315329184	 0.095811
H	-0.7212409291	-0.8931332077	 2.1996957873	 0.094739
H	 1.8571123276	-2.9838897372	 0.57273228	 0.117618
H	 2.253008888	-1.9471514515	-0.8227813597	 0.116947
H	 3.4277603932	-1.6775930712	 1.9848087064	 0.11341
H	 3.7545358408	-0.5733571112	 0.6186324156	 0.110368
91.7555	155.4495	180.775	232.555	261.6964	397.3506	422.6846	493.7354	528.7423	563.793	674.1256	714.3239	793.9366	799.4369	843.037	887.3137	920.6263	940.155	968.0553	976.1786	1008.3497	1032.5224	1061.3096	1089.7924	1133.2995	1159.5672	1170.2473	1197.2756	1210.8166	1218.5007	1240.0732	1258.154	1259.0835	1306.4608	1346.4736	1415.0658	1473.4331	1484.2563	1488.8999	1514.4448	1530.2131	3035.2122	3035.6058	3044.1721	3074.4367	3082.3871	3098.7261	3115.9398	3128.443	3177.5807	3703.9642
OC12CCC1C21CCO1	O[C@]12CC[C@H]1[C@]12CCO1	
InChI=1S/C7H10O2/c8-6-2-1-5(6)7(6)3-4-9-7/h5,8H,1-4H2	InChI=1S/C7H10O2/c8-6-2-1-5(6)7(6)3-4-9-7/h5,8H,1-4H2/t5-,6-,7+/m1/s1
