23
gdb 10605	2.05437	1.90992	1.20389	1.1328	82.56	-0.2186	0.0873	0.3059	1150.3087	0.20997	-330.306151	-330.296062	-330.295118	-330.34136	36.778	
C	 1.1618280745	-0.164845561	 1.2234681437	-0.381044
C	 0.1766627497	 0.1086380159	 0.0781088958	-0.246471
C	 0.692158012	-0.3071408821	-1.2970756769	 0.338156
C	 1.8381064239	 0.5644642003	-1.8116782956	-0.22877
C	 2.4366720856	 0.1583081536	-3.1600653301	-0.392321
C	 0.5813937246	-1.7521641178	-1.674660021	-0.290594
N	-0.2399165802	-0.7502682697	-2.3418799348	-0.111605
C	-1.6776847033	-0.7780631429	-2.1331565299	-0.315
H	 1.4227114925	-1.2273371231	 1.2706084939	 0.117476
H	 2.0911618241	 0.4008481638	 1.1115575361	 0.12116
H	 0.7218458967	 0.1157209855	 2.1856737445	 0.111208
H	-0.7585263583	-0.4141517555	 0.29770485	 0.095703
H	-0.068005527	 1.1794361694	 0.0572188581	 0.094809
H	 1.4577703926	 1.5935230666	-1.8817352086	 0.094434
H	 2.631090264	 0.5886009431	-1.0543780549	 0.096507
H	 2.971031593	-0.7950342885	-3.0951048918	 0.110161
H	 1.6525813787	 0.0573293911	-3.9138953054	 0.136927
H	 3.1541387577	 0.9111951993	-3.5002152727	 0.104835
H	 1.3326805728	-2.2456201334	-2.2857919969	 0.108281
H	 0.0903366418	-2.4088037516	-0.9548448704	 0.095235
H	-2.0001824423	-1.209124991	-1.1723818282	 0.099487
H	-2.0800315737	 0.2378484125	-2.2054360982	 0.120006
H	-2.1318746893	-1.3768626945	-2.9298835367	 0.121419
34.4767	78.0905	155.1533	192.5361	209.934	220.5692	239.076	257.3285	315.3457	372.0239	453.9162	488.7968	520.0583	663.2049	727.0479	782.9276	828.9814	882.1388	906.3032	990.8238	994.4498	1045.6073	1052.5933	1075.1094	1090.8701	1121.345	1136.1598	1153.7031	1183.7157	1211.6221	1238.2728	1290.8629	1306.053	1359.804	1382.2934	1392.545	1411.0229	1414.5571	1450.1085	1477.5812	1481.3669	1489.18	1493.2154	1499.054	1505.3016	1507.5211	1510.8707	1521.9734	2973.2717	3006.7438	3018.774	3036.9196	3040.4023	3051.0309	3059.2635	3075.9412	3079.9497	3095.2567	3101.0301	3102.5813	3114.1976	3130.2873	3165.0962
CCC1(CC)CN1C	CCC1(CC)CN1C	
InChI=1S/C7H15N/c1-4-7(5-2)6-8(7)3/h4-6H2,1-3H3	InChI=1S/C7H15N/c1-4-7(5-2)6-8(7)3/h4-6H2,1-3H3
