21
gdb 36837	4.12785	1.00853	0.96595	1.6962	82.9	-0.2299	0.0947	0.3246	1321.2965	0.182516	-387.010751	-387.00248	-387.001535	-387.044383	32.352	
C	-0.0285159816	 1.5595837351	-0.2529355354	-0.374293
C	-0.1335208489	 0.0482571188	-0.2788267428	 0.034955
C	-0.0441642017	-0.73531756	 1.0043623253	-0.239242
C	-1.3586429921	-0.639601558	 0.270308036	-0.283587
C	 1.3836857559	 2.06235614	-0.1431819096	 0.450488
C	 2.65862517	 1.6758387704	-0.9486944925	-0.257249
C	 3.0644249224	 2.5506965745	 0.2568229301	 0.052299
C	 1.9064932632	 3.5234306481	-0.0560362356	-0.266959
O	 2.1445999506	 1.7658739007	 1.1085511521	-0.342443
H	-0.4751199919	 1.9901205315	-1.159368459	 0.104097
H	-0.5967953596	 1.9594926366	 0.596638416	 0.107306
H	 0.3194510393	-0.413959834	-1.152109608	 0.081978
H	 0.4850939055	-1.6815089421	 0.9946969163	 0.108529
H	 0.0733936838	-0.1727538552	 1.9235736385	 0.124925
H	-2.1382339006	-0.018633534	 0.7001948879	 0.108315
H	-1.7291133348	-1.5193481375	-0.244366625	 0.108459
H	 2.9506458362	 0.6275330136	-0.8780905455	 0.106676
H	 2.7780134989	 2.0899658141	-1.9537456409	 0.090353
H	 4.0567672768	 2.7612824695	 0.6550595076	 0.092266
H	 1.9546163386	 4.1093869743	-0.9780329902	 0.090304
H	 1.5382664999	 4.0950065136	 0.7972475348	 0.102822
50.5382	77.3362	129.5906	280.884	308.8758	336.3864	412.133	516.806	595.6355	677.0033	709.7652	769.849	796.3598	806.1985	838.6261	869.2488	902.8654	911.8102	945.1444	963.819	982.4053	988.4197	1018.5297	1056.17	1071.7386	1076.7821	1095.4105	1115.4721	1136.7216	1148.9828	1179.511	1195.5492	1212.6985	1227.2131	1238.3024	1241.2234	1281.4324	1304.0795	1366.6147	1418.6638	1462.5127	1465.1416	1473.0074	1508.6292	1511.9048	3016.4733	3053.5835	3055.9298	3062.5002	3120.8196	3128.5651	3136.6996	3140.5742	3142.0729	3146.6138	3208.1293	3227.1713
C(C1CC1)C12CC(C1)O2	C(C1CC1)[C@@]12C[C@@H](C1)O2	
InChI=1S/C8H12O/c1-2-6(1)3-8-4-7(5-8)9-8/h6-7H,1-5H2	InChI=1S/C8H12O/c1-2-6(1)3-8-4-7(5-8)9-8/h6-7H,1-5H2/t7-,8+
