19
gdb 23545	2.12605	1.57861	1.00283	1.9723	79.74	-0.2307	0.0076	0.2383	1207.2773	0.158516	-419.115716	-419.106773	-419.105829	-419.149501	33.706	
C	-0.1134042078	 1.5134806986	 0.2155945415	-0.38349
C	 0.1102060405	 0.0020830312	 0.1140075198	-0.186762
C	 0.6671321276	-0.4707141709	-1.2298596441	-0.092907
C	 0.8973124243	-1.9920745778	-1.4018567325	-0.067696
N	-0.4237263223	-2.6348085948	-1.2801743168	-0.328948
C	-0.0045551544	-2.0503065181	-2.5966757866	-0.162406
C	-0.2241194962	-0.5811317971	-2.4911195783	 0.468839
N	-0.7610002619	 0.1914013188	-3.3382999446	-0.270287
O	-0.6503988198	 1.5442365498	-2.9616289142	-0.385441
H	 0.8207645074	 2.06427202	 0.056897206	 0.10593
H	-0.8272474315	 1.8599380586	-0.5344518648	 0.140362
H	-0.4917200187	 1.7795201323	 1.2077600292	 0.104306
H	 0.8210432592	-0.313213784	 0.8902414358	 0.091187
H	-0.8201310518	-0.5376904453	 0.312814905	 0.120941
H	 1.5694770434	 0.0934575649	-1.4972430438	 0.096697
H	 1.8140623369	-2.5372095477	-1.2163723793	 0.101416
H	-0.2785833678	-3.6417652931	-1.3624034722	 0.233698
H	 0.0362949224	-2.6581947442	-3.4903272771	 0.108064
H	-1.0966197096	 1.9919434988	-3.6882881932	 0.306498
65.6047	122.5256	169.8088	204.0066	221.4521	269.0293	320.596	388.6235	427.7091	466.8932	583.2906	623.9763	707.7824	734.3899	802.5795	826.2635	859.1703	878.2817	931.4651	970.0386	989.3251	1006.85	1056.859	1080.2784	1103.6768	1114.4832	1138.9268	1158.9832	1195.1677	1261.2772	1299.0871	1317.3149	1329.6692	1362.2479	1379.1559	1414.5096	1417.1128	1490.099	1497.8581	1508.7828	1784.8477	3016.0991	3034.552	3038.213	3083.1032	3101.2539	3135.964	3195.7915	3214.2427	3462.6858	3818.539
CCC1C2NC2C1=NO	CC[C@H]1[C@H]2N[C@H]2C1=NO	
InChI=1S/C6H10N2O/c1-2-3-4-6(7-4)5(3)8-9/h3-4,6-7,9H,2H2,1H3	InChI=1S/C6H10N2O/c1-2-3-4-6(7-4)5(3)8-9/h3-4,6-7,9H,2H2,1H3/t3-,4+,6+/m0/s1
