12
gdb 133330	2.44388	1.89149	1.06663	2.2754	63.3	-0.2303	-0.0641	0.1663	986.2997	0.078148	-510.100732	-510.093448	-510.092504	-510.132425	27.33	
N	 0.0093245714	 1.394665838	 0.1145700358	-0.590666
C	-0.0152497706	 0.043323576	 0.0410810268	 0.072774
C	-1.1285637397	-0.753905628	 0.0159834957	 0.304125
F	-2.3332703783	-0.182266792	 0.0237680091	-0.070135
N	-1.1363795147	-2.0991615984	-0.0160875938	-0.247238
N	-0.035603867	-2.7500321431	-0.0329303284	-0.070506
N	 1.1063860399	-2.023045409	-0.0218860678	-0.292242
C	 1.2657707967	-0.6459007026	 0.0070631791	 0.448359
O	 2.3547052442	-0.0933122503	-0.0017239764	-0.400763
H	 0.9074209529	 1.824766531	-0.0471788899	 0.284537
H	-0.8247550239	 1.9208765782	-0.0793811069	 0.276342
H	 1.9471466392	-2.5858744798	-0.0453423333	 0.285414
129.5199	213.6207	255.689	291.8632	328.6827	356.6091	498.0534	505.7011	548.6604	571.9779	580.1305	654.3092	714.7282	751.1193	768.9951	923.8733	970.7648	1096.8882	1220.735	1268.4108	1341.2579	1363.2865	1456.7734	1514.0558	1606.0545	1676.1429	1776.3947	3590.1347	3600.6618	3728.0076
NC1=C(F)N=NNC1=O	N[C]1C(=N[N]NC1=O)F	
InChI=1S/C3H3FN4O/c4-2-1(5)3(9)7-8-6-2/h(H2,5,8)(H,6,7,9)	InChI=1S/C3H3FN4O/c4-2-1(5)3(9)7-8-6-2/h(H2,5,8)(H,6,7,9)
