23
gdb 96375	2.29321	1.634	1.11625	1.5553	85.22	-0.2489	0.0763	0.3252	1176.6312	0.20786	-388.302753	-388.294149	-388.293205	-388.335343	35.022	
O	-0.0201650271	 1.4162563422	-0.0808344333	-0.444899
C	-0.0147891454	-0.0042389906	-0.0016147803	 0.056991
C	 0.7345379957	-0.5021649252	 1.2429962131	-0.219152
C	 0.6720260736	-2.0316589617	 1.3658417819	-0.196926
C	-0.7808229942	-2.5278257493	 1.3622220912	-0.187107
C	-1.5323894489	-2.0175505176	 0.1231634742	-0.282586
C	-1.4531520601	-0.5028821126	 0.0060994116	 0.397877
C	-2.5049753849	 0.3308171838	 0.6981923819	-0.299844
C	-2.4885779342	 0.2210709793	-0.8103777771	-0.337851
H	 0.8915070382	 1.7174710927	-0.024158203	 0.280953
H	 0.4812184574	-0.422589562	-0.8968968787	 0.058895
H	 1.779490642	-0.1655440096	 1.2023477468	 0.074998
H	 0.2794816957	-0.0329741376	 2.1243314948	 0.103954
H	 1.2123387996	-2.4867061581	 0.5238701928	 0.092779
H	 1.1878814355	-2.3572488486	 2.2758119017	 0.092249
H	-0.8090332641	-3.6226460494	 1.3990020331	 0.087934
H	-1.2892276228	-2.1671385632	 2.2659910929	 0.096854
H	-1.0978302079	-2.4768620511	-0.7770640171	 0.090556
H	-2.5819906258	-2.3307449383	 0.1540024136	 0.089965
H	-3.2864877494	-0.1868845143	 1.2453824642	 0.098442
H	-2.197500782	 1.2773524573	 1.1258618168	 0.123273
H	-2.1721520546	 1.0959431498	-1.3655375479	 0.123459
H	-3.258668996	-0.3732720459	-1.2921115732	 0.099188
111.0005	172.0186	243.7938	267.5167	277.5305	295.8383	362.995	374.2506	428.4344	462.9725	534.0737	573.4573	689.0597	794.2445	810.4592	849.5448	853.9945	902.9025	919.3579	937.9126	969.0343	980.7959	996.4676	1045.6	1057.0729	1077.3001	1084.4157	1107.1978	1132.3933	1157.1204	1171.6356	1196.9395	1226.6091	1266.6488	1275.7503	1297.8753	1342.1253	1357.7787	1369.7853	1371.5373	1384.8125	1392.1194	1442.2157	1457.6594	1483.0077	1485.0696	1488.4907	1501.6688	1502.2013	2925.4588	2999.6883	3007.8042	3013.2524	3021.4234	3055.8531	3059.7506	3064.2247	3070.9208	3129.3288	3133.1649	3217.8948	3230.4211	3828.1798
OC1CCCCC11CC1	O[C@H]1CCCCC21CC2	
InChI=1S/C8H14O/c9-7-3-1-2-4-8(7)5-6-8/h7,9H,1-6H2	InChI=1S/C8H14O/c9-7-3-1-2-4-8(7)5-6-8/h7,9H,1-6H2/t7-/m0/s1
