16
gdb 10974	2.77366	2.47458	1.83989	2.1295	63.89	-0.2343	-0.0084	0.2258	779.8779	0.131554	-383.745199	-383.738323	-383.737379	-383.775948	26.934	
O	 0.2447515416	 1.4104946872	-0.1389623213	-0.481173
C	 0.129963948	 0.0391125591	-0.0565490286	 0.313791
C	-1.2404518344	-0.7622624459	-0.0436001157	-0.300419
C	-0.3721147165	-1.9115144217	 0.5661263534	-0.148051
C	 0.5849832161	-2.2282197197	-0.6083147413	-0.224133
C	 0.9480397497	-0.7749632571	-1.0737678116	-0.25249
C	 0.3616850789	-0.7430445105	 1.2445317555	 0.36619
O	 0.7010351084	-0.4324985571	 2.3507866291	-0.338244
H	 0.1473654435	 1.7695634394	 0.7515886943	 0.294606
H	-1.9729426308	-0.3483275867	 0.6514634807	 0.115091
H	-1.6853695492	-0.956701288	-1.0220975119	 0.111205
H	-0.8023704367	-2.7324542986	 1.1330905215	 0.090068
H	 1.4611274187	-2.7977203067	-0.2885427069	 0.114536
H	 0.0774029246	-2.7993965541	-1.3897965694	 0.110221
H	 0.6288346359	-0.5626733227	-2.0974166094	 0.112836
H	 2.0151434122	-0.552354877	-0.9974786085	 0.115966
143.7654	189.4272	252.2164	312.4887	374.503	431.8465	503.3929	574.4165	684.293	707.2357	778.7895	796.6165	862.0649	885.0574	902.168	956.7956	971.4976	1010.6393	1022.2676	1079.3487	1109.7481	1127.773	1164.2706	1215.3673	1217.4131	1246.5042	1261.7403	1318.6454	1359.4245	1398.0064	1486.3644	1496.7359	1520.1829	1887.2542	3058.6202	3067.5925	3069.7622	3099.6529	3117.7835	3140.6207	3161.5415	3781.5155
OC12CC(CC1)C2=O	O[C@@]12C[C@@H](CC1)C2=O	
InChI=1S/C6H8O2/c7-5-4-1-2-6(5,8)3-4/h4,8H,1-3H2	InChI=1S/C6H8O2/c7-5-4-1-2-6(5,8)3-4/h4,8H,1-3H2/t4-,6-/m1/s1
