16
gdb 24217	4.20746	1.55389	1.35359	2.8293	74.84	-0.2109	0.0425	0.2534	938.6982	0.128245	-400.724246	-400.718051	-400.717106	-400.754564	25.98	
C	-0.058871639	 1.595523887	-0.0403184801	-0.218086
C	 1.4794905266	 1.3365119544	 0.0060030143	-0.102872
O	 1.1771031844	 0.1815189806	 0.8798148292	-0.2935
C	-0.0138281795	 0.0364179885	 0.0140065104	-0.102873
C	 0.6376300431	-0.3007919157	-1.3117437095	 0.340948
C	 0.7117799037	-1.0433840446	-2.4522001708	-0.292927
N	 1.810250836	-0.5705640014	-3.1540514844	-0.249319
C	 2.4340606345	 0.4560480384	-2.4614323743	-0.292926
C	 1.7157157752	 0.637798163	-1.3175224669	 0.340947
H	-0.4292758429	 2.0267197278	 0.8921944328	 0.105165
H	-0.4866559666	 2.0814702408	-0.9202525971	 0.099105
H	 2.1986994388	 2.0378844913	 0.4239903428	 0.081706
H	-0.8049708798	-0.5771327277	 0.4400898478	 0.081706
H	 0.1137897468	-1.8487480208	-2.8474478307	 0.122662
H	 2.1313002247	-0.9447194391	-4.0296000159	 0.257601
H	 3.3116527841	 0.9353390576	-2.8645901475	 0.122662
148.5751	302.5325	389.3636	424.7737	480.6065	570.6247	605.3725	678.1199	702.091	707.7373	741.3366	764.5946	828.8985	836.5551	883.9335	918.7023	941.4144	1008.6719	1011.2623	1051.5998	1062.4706	1103.734	1155.1147	1161.4943	1211.1825	1241.5126	1251.5252	1272.1239	1276.9231	1279.6101	1419.4725	1449.7604	1479.9012	1582.4491	1656.4626	3062.7056	3135.0998	3145.2466	3148.0317	3257.8922	3260.4774	3683.0538
C1C2OC1C1=CNC=C21	C1[C@H]2O[C@@H]1c1c[nH]cc21	
InChI=1S/C7H7NO/c1-6-4-2-8-3-5(4)7(1)9-6/h2-3,6-8H,1H2	InChI=1S/C7H7NO/c1-6-4-2-8-3-5(4)7(1)9-6/h2-3,6-8H,1H2/t6-,7+
