17
gdb 64888	2.0078	1.69873	1.09835	6.758	78.08	-0.2975	0.0029	0.3004	1131.4882	0.134336	-380.893131	-380.883656	-380.882712	-380.927091	34.257	
C	-0.0586823585	 1.5263781469	-0.0667651931	-0.461931
C	 0.0089397771	 0.0064750912	-0.0083263658	 0.119233
C	 1.3255965161	-0.7142300096	-0.216561355	-0.338419
C	 0.7169911269	-0.7057930981	 1.171203583	 0.119233
C	 1.3570728245	 0.1021923876	 2.2917160565	-0.461931
C	 0.135474297	-1.9460440513	 1.630069502	 0.263392
N	-0.3045804047	-2.9346276859	 2.0374484847	-0.335552
C	-1.1702397269	-0.6325533306	-0.5450948943	 0.263393
N	-2.1254528508	-1.1029074835	-0.9959145915	-0.335553
H	 0.8770583796	 1.981494072	 0.2606748994	 0.130644
H	-0.2452666909	 1.8456421228	-1.0958553165	 0.153004
H	-0.8703560913	 1.9076069752	 0.5588662734	 0.150292
H	 1.3177193612	-1.6431936334	-0.7727935998	 0.162248
H	 2.2015780024	-0.0925256846	-0.3669756638	 0.138008
H	 1.8652841433	 0.9873955461	 1.9068846707	 0.130644
H	 0.6092926999	 0.4191740445	 3.0237761192	 0.150291
H	 2.0988278351	-0.5124482792	 2.8091964708	 0.153004
107.9929	113.7173	169.5939	174.9184	195.4461	201.687	292.6506	313.3398	372.3429	396.7392	485.3209	560.2168	590.8458	623.6228	645.6339	698.892	843.0952	916.3954	947.9486	949.7483	1011.8513	1085.6413	1091.7402	1112.235	1160.246	1223.0787	1305.459	1349.274	1411.7637	1424.5812	1480.0663	1480.9566	1489.9231	1495.3528	1508.174	2355.2056	2357.3759	3051.4743	3056.1066	3121.3629	3122.5803	3135.438	3144.1981	3149.4336	3243.0557
CC1(CC1(C)C#N)C#N	C[C@]1(C[C@]1(C)C#N)C#N	
InChI=1S/C7H8N2/c1-6(4-8)3-7(6,2)5-9/h3H2,1-2H3	InChI=1S/C7H8N2/c1-6(4-8)3-7(6,2)5-9/h3H2,1-2H3/t6-,7+
