20
gdb 40780	3.72964	1.18063	1.00438	2.6498	79.46	-0.2369	0.0757	0.3126	1231.1175	0.172812	-403.109012	-403.101153	-403.100208	-403.141773	30.721	
C	 0.8793935278	 1.5554139768	 0.3017127599	-0.266065
C	 0.9238455544	 0.3514887767	-0.6042395964	-0.277216
C	-0.2762885711	 0.5914248599	 0.2797356504	 0.022991
C	-0.5246856925	-0.3126394338	 1.4562335033	 0.126781
O	-1.2220103744	 0.4227219226	 2.469678992	-0.275514
C	-2.0942603867	-0.4351791009	 3.1946275944	-0.076066
C	-2.399473199	-1.5918689565	 2.2663491487	-0.056065
N	-2.8129470014	-1.1349974621	 0.9225335485	-0.331118
C	-1.4072641668	-1.5185058151	 1.1746049872	-0.079631
H	 1.5195998234	 1.5555566944	 1.1777674384	 0.113443
H	 0.7371106188	 2.5334049783	-0.1437640509	 0.11209
H	 0.8089741849	 0.4992474813	-1.6721351485	 0.110766
H	 1.6009529116	-0.455256216	-0.3408314525	 0.10504
H	-1.1904634345	 0.9215645065	-0.2019184718	 0.100764
H	 0.4414981715	-0.6775290453	 1.8494670057	 0.056788
H	-1.6169192046	-0.8158830561	 4.1127717893	 0.086565
H	-2.9766346333	 0.1494532147	 3.4758119647	 0.111934
H	-2.7722632867	-2.5303696024	 2.6623686749	 0.091907
H	-3.2811547343	-1.9007885756	 0.4435260309	 0.231102
H	-0.986457567	-2.3962491574	 0.6966113117	 0.091503
79.1519	109.2949	160.9582	266.1731	294.8412	380.3692	437.7632	486.8657	667.0776	762.9537	774.1263	806.5755	833.5573	858.5199	876.7715	892.7875	915.897	928.473	969.7473	995.4792	1018.9255	1037.0649	1058.5053	1076.6586	1083.5549	1102.7432	1141.0699	1149.1656	1158.5728	1197.2554	1204.6533	1221.969	1232.3223	1257.1133	1312.6814	1317.4088	1360.2636	1387.2099	1427.7346	1441.8933	1471.0486	1506.9547	1509.3925	2936.3967	2970.2445	3067.4629	3128.1584	3135.1777	3167.889	3171.7531	3178.9616	3206.952	3223.1729	3498.1388
C1CC1C1OCC2NC12	C1CC1[C@H]1OC[C@H]2N[C@@H]12	
InChI=1S/C7H11NO/c1-2-4(1)7-6-5(8-6)3-9-7/h4-8H,1-3H2	InChI=1S/C7H11NO/c1-2-4(1)7-6-5(8-6)3-9-7/h4-8H,1-3H2/t5-,6-,7-/m1/s1
