19
gdb 99294	5.69763	0.65133	0.60931	1.5493	73.66	-0.2702	0.0158	0.286	1841.8302	0.156653	-460.176772	-460.166786	-460.165842	-460.213997	34.073	
C	-0.0177561242	 1.4051762945	 0.186062444	-0.370957
C	 0.1709545672	-0.0923588155	-0.0427146811	-0.301826
C	 0.7230466103	-0.4108521957	-1.4166222525	 0.452871
O	 1.0130899147	 0.3943498128	-2.26537648	-0.353299
O	 0.8568962191	-1.7456423189	-1.5811753496	-0.251248
C	 1.3881656468	-2.1642711053	-2.849236464	-0.086962
C	 1.3749571136	-3.6641083284	-2.8731804464	 0.075661
C	 2.3458815707	-4.4111960516	-3.6811176126	-0.180689
O	 2.4814152175	-4.3291615987	-2.2634331209	-0.225972
H	 0.9298718262	 1.9391646364	 0.0806987165	 0.133626
H	-0.7134481257	 1.8285254035	-0.5428464131	 0.13161
H	-0.4111491027	 1.5917362411	 1.1890353256	 0.112691
H	 0.8525777567	-0.5299187861	 0.6963653476	 0.136654
H	-0.7714957449	-0.6405204318	 0.0730817545	 0.131806
H	 0.7726117283	-1.7504784416	-3.6554199001	 0.125666
H	 2.4073078802	-1.784144697	-2.9677652324	 0.127037
H	 0.4071856918	-4.1219397602	-2.6667900965	 0.103279
H	 2.0750067477	-5.3891079384	-4.0756008706	 0.120787
H	 3.0988334967	-3.872272629	-4.2552571085	 0.119265
27.6595	46.3161	62.7	112.7599	164.3534	217.1191	237.4057	290.7227	342.7533	435.5698	515.5245	580.0384	662.7219	798.5536	810.5294	866.3566	904.5805	948.5593	988.0987	1005.3213	1033.4769	1100.0397	1105.5268	1107.943	1151.888	1162.232	1174.252	1211.3435	1267.4041	1277.7482	1292.7992	1358.2929	1388.1528	1417.5271	1457.7777	1459.6487	1491.1351	1494.6065	1501.1089	1532.928	1819.3148	3042.9812	3048.2651	3052.8374	3072.3876	3084.5375	3096.1249	3117.0991	3124.5923	3129.6075	3171.4484
CCC(=O)OCC1CO1	CCC(=O)OC[C@H]1CO1	
InChI=1S/C6H10O3/c1-2-6(7)9-4-5-3-8-5/h5H,2-4H2,1H3	InChI=1S/C6H10O3/c1-2-6(7)9-4-5-3-8-5/h5H,2-4H2,1H3/t5-/m1/s1
