16
gdb 27324	3.28585	1.34342	0.95632	6.1743	78.42	-0.1844	0.0009	0.1852	1165.9274	0.127142	-434.128029	-434.119901	-434.118956	-434.160125	32.103	
N	 0.0747614265	 1.4104299432	 0.1191737535	-0.588497
C	 0.0089294785	 0.0153616929	 0.0422299402	 0.421801
C	-1.1499659747	-0.7137291879	 0.032820337	-0.335698
C	-1.1454006028	-2.1517971991	 0.0404444723	 0.368854
O	-2.153000443	-2.8668138999	 0.0080351236	-0.435186
C	 0.1997534768	-2.7804028388	 0.045524704	 0.160045
N	 0.1806363223	-4.1644278108	 0.0905926206	-0.584953
C	 1.311122469	-2.0044210738	 0.0385261982	-0.101534
N	 1.2116331359	-0.6186323211	 0.0274435959	-0.371794
H	 0.6937966794	 1.8280550985	-0.5659087129	 0.249638
H	-0.8392679837	 1.8378853534	 0.0610049874	 0.260426
H	-2.107369365	-0.2083709452	-0.0120757091	 0.089886
H	-0.7565069019	-4.4934460181	-0.1220140918	 0.259144
H	 0.9096197771	-4.6471914178	-0.4118485065	 0.238837
H	 2.320650548	-2.3951461469	 0.0346395762	 0.111134
H	 2.0385091574	-0.0746750785	 0.2112407913	 0.257897
131.0183	193.0496	259.5029	314.5588	329.9602	353.2926	376.9268	418.6201	453.6281	459.8042	527.156	601.3705	639.5593	681.0975	734.1708	746.9046	781.1095	801.4491	818.1119	850.0021	977.0481	1101.8882	1138.7739	1221.2131	1242.4431	1252.7844	1313.9149	1401.4937	1434.459	1576.3296	1596.7002	1627.5077	1665.6048	1695.4623	1708.6964	3200.8277	3206.3135	3506.3241	3532.7891	3636.7648	3649.5921	3650.4847
NC1=CC(=O)C(N)=CN1	Nc1cc(=O)c(N)c[nH]1	
InChI=1S/C5H7N3O/c6-3-2-8-5(7)1-4(3)9/h1-2H,6H2,(H3,7,8,9)	InChI=1S/C5H7N3O/c6-3-2-8-5(7)1-4(3)9/h1-2H,6H2,(H3,7,8,9)
