17
gdb 67780	2.812	2.08027	1.57443	1.1025	71.23	-0.2233	0.007	0.2302	871.4173	0.137629	-421.792504	-421.785935	-421.78499	-421.822904	27.969	
O	 0.0712327296	 1.4220407586	 0.115450369	-0.50439
C	 0.0122417408	 0.0386487229	 0.0764808063	 0.385676
C	 0.8575663788	-0.7383461725	 1.0595001606	-0.150708
C	 0.6009488697	-2.0138402735	 0.7504970524	-0.107085
C	-0.3897132087	-1.920561962	-0.3963893175	-0.116235
C	-1.363482373	-0.7602135053	 0.0286187629	-0.116102
C	-1.9776995469	-0.2957452029	-1.279257108	-0.123762
O	-0.807449327	-0.2837459149	-2.1425612783	-0.289076
C	 0.2021093792	-0.752973143	-1.2721638544	 0.057854
H	-0.1864372567	 1.7434642115	-0.7572658396	 0.291094
H	 1.5244183602	-0.3024046452	 1.7885862877	 0.110812
H	 1.0076680791	-2.9232893957	 1.1678701465	 0.106935
H	-0.7710135684	-2.8251129572	-0.8672960053	 0.072126
H	-1.9987674507	-0.8459023331	 0.9100706619	 0.07737
H	-2.7294875318	-0.9783103423	-1.690234567	 0.111443
H	-2.4063387311	 0.7121150545	-1.2247927562	 0.10635
H	 1.161823167	-0.8241214697	-1.7848632512	 0.0877
226.5917	265.1878	327.5135	383.2206	411.6405	450.0215	530.6256	628.8294	665.031	671.3883	718.8788	738.2327	828.5011	899.3828	904.3132	928.6817	956.157	959.7122	969.5219	993.2781	1024.6886	1045.8877	1074.8905	1081.7128	1104.0135	1163.5913	1182.5097	1208.4576	1235.0871	1254.3061	1279.1361	1296.7692	1322.6746	1370.4981	1409.5305	1516.2361	1627.3155	3029.0882	3071.227	3125.0212	3126.5156	3137.2663	3229.1159	3255.6748	3784.0963
OC12C=CC3C1COC23	O[C@@]12C=C[C@H]3[C@@H]1CO[C@@H]23	
InChI=1S/C7H8O2/c8-7-2-1-4-5(7)3-9-6(4)7/h1-2,4-6,8H,3H2	InChI=1S/C7H8O2/c8-7-2-1-4-5(7)3-9-6(4)7/h1-2,4-6,8H,3H2/t4-,5-,6+,7-/m0/s1
