19
gdb 32194	2.42002	1.48756	0.9319	1.8669	85.97	-0.2284	0.0081	0.2365	1244.5724	0.160154	-385.957972	-385.949225	-385.948281	-385.991528	32.809	
C	-0.0302299488	 1.5156636609	 0.0085719669	-0.50163
C	-0.0077855614	 0.0063596278	 0.0107069068	 0.238672
C	-0.0206573533	-0.6971504164	-1.1942726956	-0.17985
C	-0.0003087508	-2.0893885131	-1.2213012872	-0.114422
C	 0.0335504399	-2.7979791445	-0.0259861695	-0.121251
C	 0.046843357	-2.1120972442	 1.1864118033	-0.178158
C	 0.0265139161	-0.7186226039	 1.2165847847	 0.200519
C	 0.0412703529	 0.020529491	 2.5347706534	-0.171631
O	 0.0741962555	-0.8995562607	 3.6102829738	-0.416765
H	 0.8536942324	 1.9385000234	 0.5021146149	 0.127373
H	-0.0571191187	 1.9056620709	-1.0118852069	 0.121639
H	-0.9050632075	 1.9124615414	 0.5385490213	 0.127376
H	-0.0471524327	-0.1407768704	-2.1268740762	 0.084236
H	-0.010935451	-2.6133590452	-2.1714672852	 0.090235
H	 0.0496934877	-3.8830210507	-0.032246017	 0.091571
H	 0.0731408666	-2.6522985455	 2.1239321033	 0.115534
H	 0.9151957217	 0.693852905	 2.5664502742	 0.098253
H	-0.8489218967	 0.669690432	 2.599855781	 0.098234
H	 0.085159091	-0.3981967178	 4.429803354	 0.290064
68.4382	130.8684	170.6438	216.9545	222.5694	255.9431	322.7202	447.7194	473.0971	516.1487	520.0977	604.1616	727.8085	765.833	768.88	827.1873	886.2468	931.7244	974.6125	1003.7671	1032.3562	1064.0725	1069.7388	1079.801	1138.4628	1184.33	1196.0599	1210.1376	1254.1442	1261.815	1314.8555	1341.8926	1412.817	1455.3209	1472.8431	1483.2042	1496.495	1507.8503	1523.989	1620.559	1647.9964	2945.8663	2961.0048	3018.7393	3064.4703	3112.5912	3161.5278	3174.2945	3190.9096	3221.4858	3844.6423
CC1=CC=CC=C1CO	Cc1ccccc1CO	
InChI=1S/C8H10O/c1-7-4-2-3-5-8(7)6-9/h2-5,9H,6H2,1H3	InChI=1S/C8H10O/c1-7-4-2-3-5-8(7)6-9/h2-5,9H,6H2,1H3
