20
gdb 47480	2.80645	1.40708	1.08747	3.1552	80.52	-0.2538	0.0254	0.2792	1159.863	0.172958	-403.159201	-403.151159	-403.150215	-403.191842	31.736	
N	-0.1001406303	 1.3147191069	-0.1828814392	-0.502224
C	-0.0203595224	 0.0727286474	 0.047922393	 0.380938
C	-1.2552437233	-0.8030460542	 0.0677815084	-0.344561
C	-1.1535380122	-1.9500199236	 1.0569807803	 0.368486
C	-1.7213358826	-1.7741628174	 2.4458557266	-0.303281
C	-2.3996191725	-2.6905361051	 1.4511273727	-0.337198
C	 0.1596875708	-2.6855309152	 0.8854364403	-0.293584
C	 1.3070085857	-1.6931581229	 1.0399694921	-0.07066
O	 1.1899832231	-0.5548879816	 0.1712763523	-0.257699
H	 0.837656695	 1.7229042088	-0.1974545487	 0.216138
H	-2.1196252184	-0.1638121219	 0.2551373174	 0.127864
H	-1.3719585692	-1.2157205334	-0.9451822057	 0.123651
H	-1.1971004826	-2.2292015196	 3.280225361	 0.110282
H	-2.2057220231	-0.8341217908	 2.6873956772	 0.121238
H	-3.3430492415	-2.3687179275	 1.0220935599	 0.115298
H	-2.3284118627	-3.7611344279	 1.6141861566	 0.111512
H	 0.2744891163	-3.4831866335	 1.6275719223	 0.101404
H	 0.2046904712	-3.1509881988	-0.1078888253	 0.10725
H	 1.3549483612	-1.335711049	 2.0778357899	 0.109275
H	 2.2705402876	-2.1438381608	 0.789763449	 0.11587
85.7745	114.2676	210.465	268.2408	338.0498	362.9346	434.6039	452.7915	474.8664	558.6318	634.5868	738.7767	783.4097	811.9804	869.3335	897.1065	918.0085	927.7841	961.9652	971.3505	996.7252	1015.2041	1047.0373	1059.3567	1081.2385	1104.3892	1135.0851	1186.6983	1195.8615	1213.2858	1276.2212	1294.7128	1318.3574	1338.8262	1364.4232	1402.333	1429.8255	1464.0854	1467.7551	1481.9147	1506.7489	1510.6314	1748.2856	3007.3899	3011.9838	3024.2466	3075.8836	3099.0928	3117.738	3125.0211	3129.4296	3203.5042	3217.4959	3454.1529
N=C1CC2(CC2)CCO1	[NH][C]1CC2(CC2)CCO1	
InChI=1S/C7H11NO/c8-6-5-7(1-2-7)3-4-9-6/h8H,1-5H2	InChI=1S/C7H11NO/c8-6-5-7(1-2-7)3-4-9-6/h8H,1-5H2
