18
gdb 66493	3.63552	1.83996	1.69178	0.8411	80.08	-0.1926	-0.0872	0.1054	874.1059	0.148111	-364.64323	-364.636346	-364.635402	-364.673865	28.766	
C	-0.0087184649	 1.5632901418	-0.0862476914	-0.52456
C	 0.0113905827	 0.0730503514	 0.0634094078	 0.346285
C	 0.4370796307	-1.0228348133	-0.8672678873	-0.082415
C	 1.1878210736	-0.8118022148	 0.4341846179	-0.144932
C	 0.615457206	-1.8953980889	 1.3586185768	 0.009219
C	-0.580925076	-1.4672167119	 1.8999345109	-0.144317
C	-1.0821842916	-0.8271194145	 0.6343592887	-0.076495
N	-0.6271940206	-1.9891211006	-0.4675933215	-0.170775
C	 0.1410371255	-3.0016170795	 0.3948878632	-0.18794
H	 0.9115426911	 1.918815049	-0.5611472325	 0.123058
H	-0.8508498348	 1.8938445364	-0.7044052561	 0.12402
H	-0.0902064339	 2.0580897443	 0.8878563181	 0.128077
H	 0.8636838823	-1.0031101391	-1.8635430324	 0.088528
H	 2.2041830064	-0.4462091666	 0.4939312195	 0.087911
H	-1.2259782762	-2.1698906366	 2.4242373978	 0.104949
H	-2.1344266053	-0.5716949613	 0.5239084256	 0.088826
H	 0.9065664957	-3.4717714278	-0.2275609641	 0.113852
H	-0.5208618707	-3.747003798	 0.833481059	 0.116709
190.6745	215.8343	256.8707	270.3739	440.1277	541.6466	559.1635	606.398	636.9114	676.1038	725.0876	773.0496	810.7234	858.1194	864.8611	895.4435	904.3516	953.2832	972.9783	997.3579	1014.6286	1041.1023	1049.2223	1060.751	1117.4158	1138.8008	1153.8814	1168.9719	1204.3444	1217.7895	1252.5285	1271.187	1303.2664	1407.7515	1431.2761	1464.8512	1487.5659	1492.2112	1498.6565	3026.958	3073.7939	3089.0624	3098.2279	3127.0637	3138.7027	3154.3262	3174.2003	3205.139
CC12C3C1C1=CC2N3C1	C[C@@]12[C@H]3[C@@H]1[C]1[CH][C@@H]2N3C1	
InChI=1S/C8H9N/c1-8-5-2-4-3-9(5)7(8)6(4)8/h2,5-7H,3H2,1H3	InChI=1S/C8H9N/c1-8-5-2-4-3-9(5)7(8)6(4)8/h2,5-7H,3H2,1H3/t5-,6-,7+,8-/m0/s1
