16
gdb 114156	5.43333	0.92362	0.85765	4.6618	71.81	-0.2729	-0.0071	0.2658	1323.628	0.122676	-437.83906	-437.830594	-437.82965	-437.872594	30.443	
C	 0.1003762724	 1.3033864481	 0.1515179656	-0.240838
O	-0.2795876819	-0.0145771467	-0.1910126551	-0.238496
C	 0.504580677	-0.5747400636	-1.1915034061	 0.14156
C	 1.9529606112	-1.1134286009	-0.8482659241	-0.352031
C	 1.4749934913	-2.4873380503	-1.3415061714	 0.304605
O	 0.3830238091	-2.8707086477	-0.501516267	-0.254293
C	 0.095025842	-1.9952818117	-1.5869359017	-0.078942
C	 2.2241619575	-3.5008465105	-2.0155894708	 0.206844
N	 2.8661723443	-4.2900700648	-2.5653317955	-0.33425
H	 1.1222289137	 1.3423864818	 0.5559067845	 0.11544
H	 0.0427998818	 1.9786547056	-0.7157935259	 0.111181
H	-0.5958924171	 1.6484067228	 0.9182542782	 0.139568
H	 0.5515127399	 0.0729442444	-2.0809119962	 0.085398
H	 2.7401672023	-0.6629677802	-1.4539591912	 0.13047
H	 2.224842393	-1.1077412372	 0.2082711371	 0.133486
H	-0.6473083167	-2.3200054692	-2.3063076702	 0.130299
78.1951	103.715	139.1999	191.281	214.9995	287.281	384.4032	445.1844	469.8219	554.4758	583.7159	650.6864	740.9117	822.7751	879.8741	935.3796	959.3522	995.587	1028.0903	1055.6647	1132.6461	1156.239	1179.6674	1185.3455	1203.2286	1240.9672	1273.2743	1284.0522	1385.275	1413.7767	1465.0867	1483.9517	1488.9618	1506.916	2358.7597	2980.0656	2988.3984	3033.6969	3086.291	3128.5167	3153.1996	3199.4383
COC1CC2(OC12)C#N	CO[C@H]1C[C@]2(O[C@@H]12)C#N	
InChI=1S/C6H7NO2/c1-8-4-2-6(3-7)5(4)9-6/h4-5H,2H2,1H3	InChI=1S/C6H7NO2/c1-8-4-2-6(3-7)5(4)9-6/h4-5H,2H2,1H3/t4-,5-,6-/m0/s1
