21
gdb 63909	2.90526	1.43773	1.29762	1.1196	84.26	-0.2305	0.0163	0.2468	1105.0846	0.182085	-387.087794	-387.079223	-387.078279	-387.120334	34.421	
C	 0.1645079673	 1.4600110572	-0.0796831079	-0.411062
C	-0.0843239817	-0.0464759313	 0.0312531398	 0.319065
C	-1.5933024475	-0.3504180939	 0.0664407937	-0.405838
O	 0.4970855167	-0.5897532146	-1.1699517182	-0.300428
C	 0.6969504522	-1.9727098837	-1.2080969303	 0.097142
C	 2.1211333832	-2.4493685566	-1.0983741181	-0.307324
C	 1.1442074419	-2.6548115925	 0.0527216175	-0.098556
C	 1.1863892386	-1.8004253865	 1.2637434288	-0.107809
C	 0.5991372831	-0.6059064663	 1.2646306304	-0.07584
H	 1.2376837569	 1.6657237397	-0.1092017417	 0.12245
H	-0.2865575319	 1.8463247153	-0.9979531533	 0.120858
H	-0.2717587832	 1.9878121499	 0.7737203674	 0.109521
H	-2.0825385729	 0.0736107374	-0.8161038424	 0.116835
H	-1.7672971422	-1.4298535498	 0.0815824594	 0.119303
H	-2.0583692997	 0.0761883726	 0.9609723124	 0.11191
H	 0.0231328224	-2.4973772044	-1.8830044805	 0.085645
H	 2.4276358135	-3.3195480703	-1.6689361482	 0.108728
H	 2.872415913	-1.6768517873	-0.9817113346	 0.121843
H	 0.8093738479	-3.6764020656	 0.2117600288	 0.094122
H	 1.6867119035	-2.1817209087	 2.1500834124	 0.091816
H	 0.5871257787	 0.0175770894	 2.1543666746	 0.087619
99.0754	167.9425	219.1458	256.1239	289.2902	308.0398	360.7003	374.4152	469.3245	504.4395	543.48	575.3943	694.3793	748.5048	774.1939	821.1459	837.3245	898.1194	914.3162	930.2871	961.205	988.4304	1012.4905	1024.2924	1034.5043	1048.2757	1097.7889	1122.1673	1157.7901	1174.9238	1191.9536	1228.1975	1244.6544	1250.9022	1358.9508	1389.5421	1396.8961	1407.7331	1423.9513	1472.9423	1476.5267	1481.1487	1493.0316	1505.5892	1711.4705	3034.3758	3043.2205	3106.6059	3111.3103	3116.7202	3119.2365	3123.8369	3133.4639	3139.1894	3151.3223	3174.7022	3230.9985
CC1(C)OC2CC2C=C1	CC1(C)O[C@H]2C[C@H]2C=C1	
InChI=1S/C8H12O/c1-8(2)4-3-6-5-7(6)9-8/h3-4,6-7H,5H2,1-2H3	InChI=1S/C8H12O/c1-8(2)4-3-6-5-7(6)9-8/h3-4,6-7H,5H2,1-2H3/t6-,7+/m1/s1
