17
gdb 116106	2.28091	1.62644	1.128	3.4913	64.81	-0.2538	0.0021	0.2559	1098.3064	0.135609	-496.11774	-496.109184	-496.10824	-496.151886	30.397	
C	-0.4902868658	 1.1207168443	-0.3926020027	-0.25227
O	-0.2735369078	-0.2763858237	-0.5574946195	-0.236192
C	 0.9895602673	-0.6067103957	-1.0423806371	 0.160396
C	 1.1425613987	-2.1383475574	-0.9573037666	-0.095595
O	 0.9537821311	-2.7784219198	-2.2019610065	-0.238139
C	-0.0225797235	-2.1380245336	-2.9990677215	-0.229486
C	 0.4455417758	-0.7372739884	-3.3612633036	 0.421979
O	 0.2654237676	-0.1975686753	-4.4136007251	-0.319753
O	 1.1702293178	-0.1206957943	-2.3802998062	-0.226253
H	 0.2549477083	 1.5530695086	 0.2898491682	 0.116461
H	-0.4463406967	 1.6515513545	-1.3492042223	 0.144191
H	-1.484357993	 1.2330631215	 0.0430700105	 0.137404
H	 1.7713418382	-0.0882805594	-0.4723589495	 0.095633
H	 2.1524094053	-2.3961011822	-0.6288496617	 0.124327
H	 0.4209285703	-2.4962656894	-0.2096389998	 0.117536
H	-0.130895025	-2.7131213912	-3.919125264	 0.147929
H	-0.9993167587	-2.0816972484	-2.4942462226	 0.131833
50.0997	85.5937	129.6988	193.0463	242.7048	273.7676	387.8613	415.2357	479.3141	493.0537	597.3925	666.1947	796.2602	838.8837	863.7848	941.1385	999.2259	1031.0287	1058.7613	1101.7121	1142.9928	1166.4281	1181.6211	1198.653	1225.0569	1270.588	1303.6946	1360.6331	1382.9855	1402.4349	1421.3722	1472.1766	1480.3362	1485.8245	1499.018	1510.46	1874.1607	2996.5647	3006.4104	3013.4466	3025.6872	3083.7903	3100.747	3136.1204	3139.4589
COC1COCC(=O)O1	CO[C@H]1COCC(=O)O1	
InChI=1S/C5H8O4/c1-7-5-3-8-2-4(6)9-5/h5H,2-3H2,1H3	InChI=1S/C5H8O4/c1-7-5-3-8-2-4(6)9-5/h5H,2-3H2,1H3/t5-/m1/s1
