15
gdb 52085	3.07446	1.08539	0.89862	5.7342	64.12	-0.2754	-0.0566	0.2188	1256.9884	0.109217	-494.897351	-494.888428	-494.887484	-494.932087	30.512	
O	 0.2739441997	 0.0494480405	 0.2327987644	-0.267982
C	 0.3640727321	 1.1722717412	-0.1546299389	 0.184428
O	 0.8057389251	 2.175711052	 0.6429956813	-0.187598
C	 0.8849238638	 3.4875021767	 0.089746586	-0.161475
C	 2.325710839	 3.9174391754	-0.0338317294	 0.303581
C	 2.7108426141	 5.3301823709	 0.1921789342	-0.223662
O	 2.9918233204	 4.340028094	 1.1625421974	-0.24788
C	 3.1983253394	 3.1267421368	-0.962534138	 0.121902
O	 2.7686299566	 2.3646086025	-1.7901444734	-0.252635
H	 0.1003061622	 1.5169151766	-1.1705392543	 0.094305
H	 0.4070576109	 3.5197791258	-0.8968603227	 0.130744
H	 0.3539532538	 4.1613785349	 0.7669184821	 0.13054
H	 3.5725508809	 5.7448585406	-0.32924621	 0.134355
H	 1.9280736607	 6.0433459464	 0.4470262696	 0.136051
H	 4.2843813812	 3.3134362357	-0.8213120382	 0.105326
57.9513	71.0984	140.1324	151.6593	194.6572	270.6382	308.5298	348.9165	396.4437	463.6059	537.5441	680.2711	800.1383	863.9584	890.7914	944.2637	1005.6927	1029.1174	1040.1021	1069.8059	1134.8452	1147.8882	1172.1507	1278.6282	1334.6786	1348.1304	1387.3393	1425.1558	1442.3711	1479.1864	1523.4367	1823.2743	1875.2578	2915.5344	2982.8776	3038.7489	3085.0062	3105.5392	3175.3418
O=COCC1(CO1)C=O	O=COC[C@]1(CO1)C=O	
InChI=1S/C5H6O4/c6-1-5(3-9-5)2-8-4-7/h1,4H,2-3H2	InChI=1S/C5H6O4/c6-1-5(3-9-5)2-8-4-7/h1,4H,2-3H2/t5-/m0/s1
