18
gdb 10489	2.65563	1.64791	1.2311	1.1311	73.28	-0.2571	0.0543	0.3114	1037.5982	0.151582	-347.751842	-347.742862	-347.741918	-347.785457	33.088	
O	 0.1869934218	-1.151218556	 1.6215456053	-0.42501
C	 0.0457914968	-0.5289536869	 0.3482889019	-0.152637
C	-1.4111691152	-0.5777358623	-0.0432257432	 0.389032
C	-2.3411248639	 0.1954087894	 0.8917340435	-0.429434
C	-2.1081930214	 1.6373664814	 0.8737607764	 0.318873
C	-1.8987548017	 2.8211522272	 0.8470585463	-0.468172
C	-1.7444820863	-0.6258240195	-1.5117109352	-0.30989
C	-1.9335305287	-1.8539281692	-0.6537395692	-0.310419
H	 1.0417796808	-0.9017329586	 1.9837671184	 0.288163
H	 0.3789859225	 0.5187410999	 0.3835908255	 0.10273
H	 0.6487986921	-1.0477175071	-0.413694501	 0.079652
H	-3.3840309805	-0.0065043539	 0.6192359753	 0.120975
H	-2.2023565454	-0.1844016599	 1.9107845023	 0.14774
H	-1.726490054	 3.868559091	 0.8299473258	 0.192733
H	-2.6266134322	-0.0899415298	-1.845228787	 0.11646
H	-0.927888148	-0.6184484977	-2.226135799	 0.110883
H	-1.2391522916	-2.6782880777	-0.7737826825	 0.117371
H	-2.9461346449	-2.15949113	-0.4125493935	 0.110948
56.8315	110.8736	140.6953	225.1296	233.1105	312.2423	333.5577	348.4572	353.8733	465.5982	567.6157	611.7269	635.5025	743.3134	778.8171	875.9124	913.1957	933.0566	945.4491	985.4009	1005.0931	1045.9317	1066.2019	1068.2806	1082.1608	1184.232	1205.0734	1245.2451	1256.1152	1319.8112	1340.1567	1377.9027	1458.1603	1465.0954	1473.7098	1505.3899	1515.171	2234.1782	2971.9451	3014.3256	3029.6561	3067.8624	3130.0144	3133.9978	3207.6445	3221.3172	3506.8904	3834.7868
OCC1(CC#C)CC1	OCC1(CC#C)CC1	
InChI=1S/C7H10O/c1-2-3-7(6-8)4-5-7/h1,8H,3-6H2	InChI=1S/C7H10O/c1-2-3-7(6-8)4-5-7/h1,8H,3-6H2
