16
gdb 76538	2.78683	1.21587	1.17212	3.2374	66.82	-0.2382	0.0306	0.2688	1112.4201	0.123306	-475.007209	-474.9984	-474.997456	-475.041063	31.9	
O	 0.0599433034	 1.3811162463	-0.0090051709	-0.428053
C	 0.0343037729	-0.0092815637	-0.0122764454	 0.032496
C	-0.42945373	-0.7082283835	 1.2399493503	-0.046188
O	-0.8698457252	 0.131774076	 2.2780734184	-0.427671
C	-1.305721311	-0.7180800081	 0.021766792	 0.099027
C	-2.6981937799	-0.1101828322	-0.1845406089	-0.231748
N	-3.0137031312	-1.337355151	-0.9365432654	-0.351814
C	-1.7682253061	-1.9116078681	-0.799187274	 0.390574
O	-1.2788872911	-2.9376333406	-1.1916742918	-0.374527
H	-0.3137273788	 1.6531723139	 0.8417471696	 0.286952
H	 0.8251041805	-0.4440654402	-0.6155714518	 0.125709
H	 0.021548367	-1.6498467456	 1.5469412155	 0.116439
H	-0.1340867087	 0.2554531871	 2.888797283	 0.301628
H	-3.2947505429	 0.0239378711	 0.7220188461	 0.127067
H	-2.7054009395	 0.8055982845	-0.7833875341	 0.126881
H	-3.8048784794	-1.587652846	-1.5092422826	 0.253227
70.9287	126.5675	142.5154	145.4458	233.2737	286.7055	321.6292	349.5945	499.5879	515.6062	610.9298	620.6295	662.9948	706.2872	795.5408	853.2026	898.5284	971.7219	991.3806	1058.0418	1077.7256	1111.6548	1142.1605	1149.5723	1159.0204	1169.157	1252.9389	1286.0898	1296.8597	1332.2992	1384.2773	1409.9286	1483.2431	1527.2853	1889.0803	3048.844	3100.1004	3125.9032	3165.1149	3625.9066	3729.6933	3797.1047
OC1C(O)C11CNC1=O	O[C@H]1[C@@H](O)[C@]21CNC2=O	
InChI=1S/C5H7NO3/c7-2-3(8)5(2)1-6-4(5)9/h2-3,7-8H,1H2,(H,6,9)	InChI=1S/C5H7NO3/c7-2-3(8)5(2)1-6-4(5)9/h2-3,7-8H,1H2,(H,6,9)/t2-,3+,5+
