17
gdb 51020	2.49234	1.27718	0.99802	3.1996	75.29	-0.2797	-0.0013	0.2784	1220.9306	0.135152	-418.002239	-417.99332	-417.992376	-418.036715	31.776	
N	 0.1501344621	 1.3212851639	-0.1824024862	-0.431899
C	 0.1119293005	 0.0641515389	-0.1313320235	 0.112795
O	-1.0947576087	-0.5607959439	-0.1699159707	-0.230609
C	-1.1261369563	-1.953434681	 0.0916886866	 0.268169
C	-0.9699238371	-2.4191794553	 1.5768898257	-0.270797
C	-2.2046863438	-3.33800617	 1.3788426832	-0.21973
C	-2.5732367478	-2.5184068873	 0.1132282207	-0.269712
C	-0.2461175119	-2.6961989969	-0.8228476852	 0.244519
N	 0.4486284233	-3.2938400605	-1.5275496283	-0.333388
H	 1.1161212304	 1.6425737344	-0.1700336622	 0.23768
H	 0.9656888902	-0.6210050683	-0.0737265018	 0.113943
H	-0.0206355359	-2.8734144924	 1.8636443867	 0.125082
H	-1.1859758312	-1.5713344602	 2.2311419596	 0.134269
H	-1.9188497948	-4.3637267592	 1.1367399684	 0.129559
H	-2.9387328606	-3.3581905472	 2.1844901689	 0.120022
H	-3.2557380588	-1.6952621986	 0.3338201422	 0.138862
H	-2.9123623895	-3.0482077466	-0.7769834841	 0.131236
68.1919	83.9613	111.4205	146.722	188.855	234.9268	383.4443	402.5611	470.5562	536.0886	576.826	692.5868	743.4462	793.8409	824.0044	866.1007	919.0207	936.7821	963.7423	1040.8995	1050.0273	1060.4139	1064.1486	1157.208	1190.0073	1210.514	1253.0493	1266.2589	1279.1453	1288.699	1294.4656	1424.9901	1467.8904	1484.5598	1503.9515	1748.4903	2349.0336	3055.9847	3076.2395	3083.0297	3086.7254	3131.1159	3143.2523	3152.8954	3518.8345
N=COC1(CCC1)C#N	[NH][CH]OC1(CCC1)C#N	
InChI=1S/C6H8N2O/c7-4-6(9-5-8)2-1-3-6/h5,8H,1-3H2	InChI=1S/C6H8N2O/c7-4-6(9-5-8)2-1-3-6/h5,8H,1-3H2
