16
gdb 28465	3.18148	1.4209	0.98867	1.3233	76.59	-0.2146	-0.0106	0.204	1149.0511	0.126439	-434.158282	-434.150159	-434.149215	-434.190738	30.962	
C	-0.0446821228	 1.5439556932	-0.0195219095	-0.495067
C	 0.0052105743	 0.0430092286	-0.0243821691	 0.155628
C	-0.0933237495	-0.7343393359	-1.1690138866	-0.053778
N	-0.0515405114	-2.0699448553	-1.193392016	-0.333045
C	 0.1013462526	-2.658724278	-0.0022697229	 0.425868
N	 0.2019805856	-4.0225843804	 0.012681331	-0.556521
N	 0.1979306872	-2.0331919821	 1.184251638	-0.411639
C	 0.1505675914	-0.7110471727	 1.1511573681	 0.365782
O	 0.2451070275	-0.0608148001	 2.3256532694	-0.408258
H	 0.8717387224	 1.9775960295	 0.3959470654	 0.134836
H	-0.1701621851	 1.9275111183	-1.0360840838	 0.120391
H	-0.8742455302	 1.9191643033	 0.589965736	 0.134287
H	-0.2170378109	-0.2463320897	-2.1351014338	 0.104877
H	-0.1126508027	-4.4968383223	-0.8172889666	 0.261529
H	 0.0466880513	-4.4789635744	 0.8956775493	 0.258096
H	 0.3411712703	-0.7445258421	 3.0040459011	 0.297016
114.4	127.9347	230.183	264.4439	313.3408	337.918	409.6584	463.013	479.3495	497.9431	549.0968	575.8721	592.1749	746.3629	773.5187	793.6258	823.6852	981.513	982.1602	1026.7426	1071.0972	1089.7249	1210.0762	1249.206	1320.0585	1351.4154	1378.7094	1416.4911	1476.3812	1477.1959	1501.7396	1502.1197	1613.4174	1630.2175	1671.0888	3029.929	3082.0747	3109.556	3136.7988	3607.3981	3734.6938	3757.8187
CC1=CN=C(N)N=C1O	Cc1cnc(N)nc1O	
InChI=1S/C5H7N3O/c1-3-2-7-5(6)8-4(3)9/h2H,1H3,(H3,6,7,8,9)	InChI=1S/C5H7N3O/c1-3-2-7-5(6)8-4(3)9/h2H,1H3,(H3,6,7,8,9)
