15
gdb 49299	2.64786	1.47716	0.97931	4.7569	69.62	-0.2575	-0.0856	0.1719	1135.8951	0.112925	-457.818807	-457.811038	-457.810094	-457.851479	28.236	
O	-0.909055831	 1.2234323198	 0.3949509187	-0.269661
C	 0.2104181151	 0.8568243572	 0.121172069	 0.102793
C	 1.3770876117	 1.78317504	 0.0591633727	 0.000218
C	 1.2207548451	 3.103384224	 0.2430576585	-0.107588
C	 2.3938891837	 4.0266052556	 0.1824402019	-0.28384
C	 3.6611047974	 3.247594504	 0.519809958	-0.0832
O	 3.774687808	 2.0339813228	-0.2386380845	-0.233051
C	 2.6970020577	 1.213951985	-0.3262899887	 0.400398
O	 2.8308155059	 0.0977888742	-0.7580498162	-0.327944
H	 0.4469420434	-0.1990790978	-0.101837375	 0.118483
H	 0.2200051553	 3.489508638	 0.4217828489	 0.145058
H	 2.4610624223	 4.4695514064	-0.8218314068	 0.146884
H	 2.2748891931	 4.8627590359	 0.8801098377	 0.133845
H	 4.5641905037	 3.8163395775	 0.2915426679	 0.133632
H	 3.6707104288	 2.9972294275	 1.5882608479	 0.123975
90.726	140.953	195.4019	212.4394	289.9155	344.2387	363.3922	492.2432	528.0831	585.0012	688.1806	780.3754	796.9501	893.1243	910.2771	942.6139	994.1954	1054.1237	1085.7303	1097.1903	1134.1326	1197.8268	1230.9926	1297.6781	1350.7509	1365.0497	1422.0925	1430.5566	1455.5608	1509.7288	1673.3578	1799.9306	1821.5899	2982.8185	3013.5793	3032.0435	3074.6345	3118.2503	3172.5592
O=CC1=CCCOC1=O	O=CC1=CCCOC1=O	
InChI=1S/C6H6O3/c7-4-5-2-1-3-9-6(5)8/h2,4H,1,3H2	InChI=1S/C6H6O3/c7-4-5-2-1-3-9-6(5)8/h2,4H,1,3H2
