16
gdb 9084	5.28222	0.83988	0.75778	3.0942	68.6	-0.2511	-0.0221	0.2291	1418.5151	0.126746	-383.70834	-383.699071	-383.698126	-383.743156	32.099	
O	-0.0067570259	 1.4285768711	-0.0774743495	-0.414311
C	 0.0248690152	 0.0078525793	 0.0343175485	-0.053248
C	 0.631983529	-0.6505918631	-1.2228689115	-0.20867
C	-0.123884279	-0.2515547612	-2.4988432253	-0.277342
C	 0.6092115408	-0.6813348925	-3.7469156192	 0.155891
O	 0.1435086179	-1.3551257366	-4.6287730555	-0.237214
C	 0.7290096346	-0.4241269305	 1.2434518211	 0.285754
C	 1.3509470034	-0.7576960791	 2.2165972617	-0.427914
H	 0.8786673829	 1.7551299715	 0.1186844646	 0.288469
H	-1.0289543565	-0.288886139	 0.1078966275	 0.12446
H	 1.6855397345	-0.3501583182	-1.2946477424	 0.105404
H	 0.622537142	-1.7380737768	-1.0919396598	 0.125733
H	-1.1336258222	-0.6719839541	-2.5210293878	 0.121583
H	-0.2060945061	 0.8437558751	-2.5149363839	 0.138523
H	 1.6630625873	-0.3161721847	-3.8026510366	 0.068231
H	 1.8806307821	-1.0564837411	 3.0876554081	 0.20465
56.7972	75.802	101.3862	139.3523	209.2654	250.4899	300.4589	316.7621	424.5651	503.6675	559.602	573.943	638.1987	678.2769	767.6603	834.9344	897.4541	996.7256	1006.7396	1062.2676	1102.4317	1109.7078	1188.0364	1245.0628	1264.2798	1319.5253	1336.1574	1376.6279	1419.3538	1431.8972	1465.7135	1486.3996	1837.5575	2234.07	2843.4245	3024.4552	3028.9063	3039.667	3078.2442	3103.0872	3501.4834	3804.5635
OC(CCC=O)C#C	O[C@@H](CCC=O)C#C	
InChI=1S/C6H8O2/c1-2-6(8)4-3-5-7/h1,5-6,8H,3-4H2	InChI=1S/C6H8O2/c1-2-6(8)4-3-5-7/h1,5-6,8H,3-4H2/t6-/m1/s1
