13
gdb 29167	3.19804	1.48015	1.01184	3.2139	66.86	-0.2052	-0.0553	0.15	1062.8049	0.089585	-489.942352	-489.934512	-489.933567	-489.974716	29.288	
N	-0.0053657097	 1.2980154816	-0.1296656298	-0.53882
C	-0.0533527889	-0.0445537653	-0.0533526704	 0.267911
N	-1.1703805767	-0.7110808754	-0.0498420512	-0.413979
C	-1.08483864	-2.0758925333	 0.0314952184	 0.339601
O	-2.2619079569	-2.7448783631	 0.0332065843	-0.428201
C	 0.0875791886	-2.7360546864	 0.1062253662	-0.074147
O	 1.2700003829	-2.0292551877	 0.1026148746	-0.193069
C	 1.2903837625	-0.6870600951	 0.0260175051	 0.406234
O	 2.3264069927	-0.0624644907	 0.0224082883	-0.368603
H	 0.900788863	 1.7359777108	-0.1251636845	 0.287532
H	-0.8507832685	 1.8374568615	-0.1859377918	 0.272176
H	-2.950354526	-2.0706207064	-0.0273349007	 0.299268
H	 0.2285336971	-3.8022192405	 0.1720268514	 0.144097
90.0518	147.8927	221.0603	311.9826	335.8405	373.201	398.6902	461.0145	490.2668	528.7639	593.8572	606.6757	664.3699	687.305	740.4184	808.8356	822.3861	978.6663	1105.7637	1146.66	1199.9263	1245.9629	1345.2675	1397.4083	1438.9887	1568.9953	1670.8481	1706.6901	1805.8764	3270.7574	3610.5709	3752.8978	3795.3247
NC1=NC(O)=COC1=O	Nc1nc(O)coc1=O	
InChI=1S/C4H4N2O3/c5-3-4(8)9-1-2(7)6-3/h1,7H,(H2,5,6)	InChI=1S/C4H4N2O3/c5-3-4(8)9-1-2(7)6-3/h1,7H,(H2,5,6)
