14
gdb 43487	2.36258	2.02272	1.21046	2.2377	63.24	-0.2768	-0.0278	0.2489	964.5418	0.102318	-473.845419	-473.838496	-473.837552	-473.877317	25.709	
N	-0.0604746013	 1.2157005329	 0.2421629907	-0.510326
C	-0.0204196948	-0.0179575231	 0.0206953482	 0.416091
O	 1.1468892708	-0.7548581116	-0.144106478	-0.218952
C	 0.8879596974	-2.0541185849	-0.55453772	 0.437484
O	 1.7665833184	-2.818067521	-0.8019676069	-0.311927
C	-0.6124158844	-2.2736630513	-0.598345892	-0.240905
C	-1.1850943046	-2.8541485903	 0.7169207949	-0.082137
O	-1.5727422225	-1.5353189067	 1.1632158402	-0.279067
C	-1.2058585722	-0.946085674	-0.1067315673	 0.03941
H	 0.8769517035	 1.6161522449	 0.3117308406	 0.242464
H	-0.9271612056	-2.7270782914	-1.5358731958	 0.130603
H	-2.0550307133	-3.5034036432	 0.5692752527	 0.124374
H	-0.4750678707	-3.3391705524	 1.3936721029	 0.135761
H	-2.0519502007	-0.4804407779	-0.6149979202	 0.117127
86.0898	131.5743	242.1542	250.905	371.8235	486.5796	620.9615	624.4043	689.7932	719.5372	801.7937	862.924	888.1618	918.951	929.5664	965.945	1010.5062	1024.9533	1058.6565	1088.0593	1136.3359	1160.1753	1212.6265	1253.3057	1285.0508	1319.7397	1324.6538	1351.4945	1526.5172	1796.2574	1916.0868	3037.4633	3092.1315	3104.6762	3145.5427	3477.1181
N=C1OC(=O)C2COC12	[NH][C]1OC(=O)[C@H]2CO[C@@H]12	
InChI=1S/C5H5NO3/c6-4-3-2(1-8-3)5(7)9-4/h2-3,6H,1H2	InChI=1S/C5H5NO3/c6-4-3-2(1-8-3)5(7)9-4/h2-3,6H,1H2/t2-,3+/m0/s1
