23
gdb 63248	2.4849	1.36932	1.12058	0.0773	93.99	-0.2339	0.0254	0.2593	1241.022	0.206531	-351.169054	-351.159795	-351.15885	-351.203187	36.36	
C	 0.4862838936	 1.3400899951	 0.0310158472	-0.396286
C	-0.2341954832	-0.0355021796	-0.0006591067	 0.157057
C	-1.7630975151	 0.219499693	 0.098057242	-0.3963
C	 0.0517197952	-0.6525463116	-1.3523583232	-0.034935
C	 0.7903712519	-1.6977372692	-1.7218546334	-0.099915
C	 1.5564077612	-2.6683940628	-0.861554738	-0.249472
C	 0.8177770419	-3.135531585	 0.4016985902	-0.249463
C	 0.569008053	-2.0591919045	 1.4257553459	-0.099934
C	 0.1663487938	-0.802987018	 1.240339228	-0.034916
H	 1.57149465	 1.2124289931	-0.0127531021	 0.120141
H	 0.1804943507	 1.9583619275	-0.8194773681	 0.109114
H	 0.2406535554	 1.885428955	 0.9491615701	 0.108378
H	-2.1038795302	 0.8571426705	-0.7253496659	 0.108379
H	-2.3183252155	-0.7217055238	 0.0561265624	 0.12014
H	-2.013105914	 0.721977566	 1.0383323036	 0.109117
H	-0.411145571	-0.0822072855	-2.1586962828	 0.076353
H	 0.8615739176	-1.8815074985	-2.7926885673	 0.080739
H	 1.8045582615	-3.5483532842	-1.4660946135	 0.095158
H	 2.5189104038	-2.2281347578	-0.5661024816	 0.112198
H	-0.1342910777	-3.5968172629	 0.1045262963	 0.112204
H	 1.4019889321	-3.9348800808	 0.871924591	 0.095148
H	 0.7391148737	-2.3621008391	 2.4576608756	 0.080741
H	 0.0466263112	-0.1989435169	 2.1406203904	 0.076354
27.965	157.5542	221.0521	236.6308	279.4921	279.6499	297.9997	357.5724	387.4482	403.0498	501.5388	553.4413	643.0467	658.4747	736.8284	775.2395	805.2187	837.1103	878.3109	933.4515	943.3988	957.1995	986.5331	1013.0757	1021.9381	1032.4849	1045.156	1084.6285	1138.1616	1183.757	1192.6569	1234.9074	1270.6027	1302.5644	1346.1645	1357.5684	1387.5032	1390.1551	1406.1153	1428.6912	1451.7351	1480.1607	1482.116	1484.5092	1484.7609	1500.9659	1507.7948	1733.5526	1744.3123	3007.7037	3014.2141	3025.153	3029.0862	3053.2723	3054.7912	3092.5362	3096.2392	3106.4611	3107.6609	3112.1836	3114.2745	3138.1227	3140.5804
CC1(C)C=CCCC=C1	CC1(C)C=CCCC=C1	
InChI=1S/C9H14/c1-9(2)7-5-3-4-6-8-9/h5-8H,3-4H2,1-2H3	InChI=1S/C9H14/c1-9(2)7-5-3-4-6-8-9/h5-8H,3-4H2,1-2H3
