19
gdb 53014	4.42343	0.8797	0.81693	1.9259	86.01	-0.2365	0.0359	0.2724	1486.1501	0.159054	-385.870478	-385.861574	-385.86063	-385.905153	32.679	
C	 0.043495191	 1.4932173132	 0.3121027027	-0.511661
C	-0.0137753422	 0.0548414556	 0.1019294146	 0.325239
C	-0.0693767464	-1.1376374759	-0.0597403137	-0.206287
C	-0.0859218545	-2.5531220172	-0.2899059257	 0.267027
C	 0.8472711103	-3.1814798033	-1.3187991076	-0.300707
C	 0.3374860813	-4.6353311166	-1.4569208383	-0.225626
C	-1.1730338183	-4.5786975169	-1.1213651355	-0.241326
C	-1.2845765851	-3.4105600918	-0.163708277	-0.01185
O	-0.2880002511	-3.4092081701	 0.8620590945	-0.303527
H	 0.8782319755	 1.9416708896	-0.2376914155	 0.150325
H	-0.8775455835	 1.9841189271	-0.0214149935	 0.149498
H	 0.1804343839	 1.7296806026	 1.3730705699	 0.154588
H	 0.7496512627	-2.6259032401	-2.2585751345	 0.109965
H	 1.8952345314	-3.1261883336	-1.0108067292	 0.113231
H	 0.5295975285	-5.0501172425	-2.4491251036	 0.098544
H	 0.8466844084	-5.2703657704	-0.7294855635	 0.121593
H	-1.7783788316	-4.364468089	-2.0109084247	 0.104578
H	-1.5429341768	-5.5139359649	-0.6895609965	 0.110439
H	-2.2512813836	-3.0050409761	 0.1247059671	 0.095957
34.0695	92.6634	94.5655	216.0448	248.7549	300.4068	356.6579	395.0763	440.5237	520.2288	556.9474	654.5449	673.1569	809.8037	849.9522	889.3552	891.6741	924.4633	960.2123	964.173	1036.3738	1052.058	1054.0305	1072.6539	1118.9429	1167.1496	1202.992	1237.0635	1256.893	1296.2961	1321.2027	1332.7294	1347.2289	1412.7852	1438.641	1476.2668	1477.6502	1479.2208	1484.2324	1500.1192	2370.5285	3027.281	3035.4795	3045.4596	3073.6933	3083.9063	3087.8561	3090.3643	3093.2845	3122.6496	3148.4789
CC#CC12CCCC1O2	CC#C[C@]12CCC[C@H]1O2	
InChI=1S/C8H10O/c1-2-5-8-6-3-4-7(8)9-8/h7H,3-4,6H2,1H3	InChI=1S/C8H10O/c1-2-5-8-6-3-4-7(8)9-8/h7H,3-4,6H2,1H3/t7-,8+/m1/s1
