17
gdb 75813	3.09093	1.31295	1.11558	1.9454	68.5	-0.2402	-0.0362	0.2041	1107.6803	0.13412	-458.943125	-458.934641	-458.933697	-458.976557	31.29	
O	 0.5745840366	 0.9886567548	-0.5892657369	-0.432196
C	 0.1975328759	-0.2196671558	-0.0022993259	-0.004518
C	-0.0027653721	-0.258785919	 1.5110092471	 0.343075
O	 0.4342222423	 0.4463234284	 2.3783931973	-0.308275
C	-1.192519221	-1.2130653722	 1.3833173963	-0.420444
C	-1.2759474068	-0.7478567435	-0.1000636928	 0.391151
C	-2.3777342383	 0.2022231202	-0.5993981201	-0.343509
C	-2.6227891513	-0.889009251	-1.6610831651	-0.077502
O	-1.5736035435	-1.718729505	-1.1056969887	-0.316729
H	 0.7449606174	 1.6101878014	 0.1302549529	 0.299503
H	 0.8528368154	-1.0402232281	-0.3337531611	 0.117753
H	-0.8950290469	-2.2650840265	 1.4448789829	 0.147197
H	-2.0460410522	-1.0343128095	 2.0395779193	 0.13489
H	-3.1997777495	 0.3792224821	 0.0956307498	 0.114312
H	-1.997589545	 1.1512263772	-0.9796668472	 0.13155
H	-3.5963390353	-1.3895327374	-1.6190106159	 0.108813
H	-2.4073298457	-0.6029555561	-2.6960599219	 0.114927
80.5311	88.7218	178.7431	208.5736	240.684	293.3992	348.9296	383.9443	500.8406	533.3929	629.3614	747.5047	759.0798	793.3757	854.4665	866.4281	873.725	970.0947	1003.7773	1019.2087	1065.2523	1093.6492	1128.3665	1152.5803	1167.0715	1197.0958	1220.851	1228.1263	1243.3369	1285.6208	1335.962	1360.4039	1393.7182	1432.4205	1486.0719	1530.5999	1878.6443	2997.4818	3032.593	3062.5272	3077.5349	3084.5105	3130.5221	3144.2298	3768.121
OC1C(=O)CC11CCO1	O[C@H]1C(=O)C[C@]21CCO2	
InChI=1S/C6H8O3/c7-4-3-6(5(4)8)1-2-9-6/h5,8H,1-3H2	InChI=1S/C6H8O3/c7-4-3-6(5(4)8)1-2-9-6/h5,8H,1-3H2/t5-,6-/m0/s1
