15
gdb 44474	4.39294	1.47075	1.35398	5.0358	65.02	-0.2955	0.0251	0.3206	932.7648	0.1145	-457.725916	-457.719852	-457.718908	-457.75629	24.986	
O	 0.0545935456	 0.0064548042	-0.0043083185	-0.339521
C	-0.0100914348	 1.1885755685	 0.0002440715	 0.449428
O	-1.1930875718	 1.9050653613	-0.0766507901	-0.274712
C	-0.8169663435	 3.2646996756	-0.3413644357	 0.098575
C	-0.8332450345	 4.5220404864	 0.5911488438	-0.122402
C	-0.136249027	 3.6755158472	 1.6777924797	-0.28513
C	 0.5264740773	 3.2934213801	 0.318737744	 0.396959
C	 0.6185123962	 4.7992267866	-0.0262823933	-0.304319
O	 1.0991469384	 2.0276113088	 0.096633407	-0.305289
H	-0.8988737325	 3.455033225	-1.4138369042	 0.10008
H	-1.6150313093	 5.2663576808	 0.7185128742	 0.105674
H	 0.4916456334	 4.2132630667	 2.3891921268	 0.107887
H	-0.7390314746	 2.9057758809	 2.1587220825	 0.128677
H	 0.6640456853	 5.0663627936	-1.0835451223	 0.121108
H	 1.2694837818	 5.4208616142	 0.5892528747	 0.122985
140.0198	317.6679	351.355	444.4961	493.6995	547.7866	588.5443	734.8799	757.6742	775.3228	781.6986	849.2985	864.1975	902.1662	918.9974	948.2733	964.9554	994.8498	1034.7365	1073.8287	1087.5027	1108.467	1143.5052	1169.5296	1178.6476	1211.5277	1231.0665	1262.1391	1285.9369	1396.8869	1495.2903	1536.2747	1941.5529	3078.4941	3086.9248	3090.0324	3155.005	3155.4009	3160.9942
O=C1OC2C3CC2(C3)O1	O=C1O[C@H]2[C@H]3C[C@@]2(C3)O1	
InChI=1S/C6H6O3/c7-5-8-4-3-1-6(4,2-3)9-5/h3-4H,1-2H2	InChI=1S/C6H6O3/c7-5-8-4-3-1-6(4,2-3)9-5/h3-4H,1-2H2/t3-,4-,6-/m0/s1
