13
gdb 20322	5.84204	1.31491	1.21536	2.9342	63.93	-0.2586	0.0044	0.263	967.5771	0.096905	-357.633539	-357.626532	-357.625588	-357.665662	25.199	
C	-0.0466498987	-1.2093597405	-0.1337513266	-0.46234
C	 0.0015525485	-0.0135951415	-0.0336278283	 0.31829
C	 0.054373733	 1.4409278378	 0.0955036275	-0.434112
C	 1.4513063177	 1.9914703209	 0.0215743759	 0.352059
N	 2.0490873977	 2.5274144158	 1.0747185193	-0.258564
N	 3.2537613897	 2.8829913518	 0.5667265813	-0.177218
C	 3.3246957768	 2.5551235155	-0.7382609004	 0.019279
N	 2.1989723375	 1.9886521024	-1.1214087086	-0.288973
H	-0.0854979917	-2.2660985863	-0.227326655	 0.196903
H	-0.5477036405	 1.8980629859	-0.699157531	 0.150055
H	-0.3821253384	 1.7481855672	 1.051356048	 0.152556
H	 3.9363316612	 3.3280775951	 1.1577933144	 0.283851
H	 4.192240377	 2.746168906	-1.3519950766	 0.148215
38.7651	107.5004	289.6687	325.2415	327.7003	459.0635	542.2614	615.0643	638.6268	682.0672	700.653	817.372	859.7203	930.5529	959.2705	999.1557	1008.6228	1103.7321	1160.5922	1215.2878	1293.5074	1331.8421	1361.7922	1454.2271	1470.3027	1484.2913	1559.3103	2245.0685	3036.4662	3085.2432	3259.353	3507.5512	3666.3359
C#CCC1=NNC=N1	C#CCc1n[nH]cn1	
InChI=1S/C5H5N3/c1-2-3-5-6-4-7-8-5/h1,4H,3H2,(H,6,7,8)	InChI=1S/C5H5N3/c1-2-3-5-6-4-7-8-5/h1,4H,3H2,(H,6,7,8)
