18
gdb 71167	2.59477	1.90673	1.50136	0.9268	75.23	-0.2362	0.0629	0.2991	941.0008	0.147743	-401.861302	-401.854	-401.853056	-401.892495	30.216	
O	-0.0994000416	 1.4523049555	 0.0144200196	-0.468878
C	 0.0338340513	 0.0831856405	 0.0567617449	 0.281629
C	-1.2314772386	-0.7768955403	-0.1545522471	-0.278653
C	-0.4775944491	-1.8630747426	 0.6145483654	-0.036213
C	 0.4246524776	-0.8937583394	 1.2702916306	-0.144185
N	 0.9917251647	-1.8167413946	 0.2472342653	-0.191255
C	 1.0856930955	-0.6996843513	-0.7191784424	 0.375072
C	 1.380252957	-0.8230712817	-2.1732218323	-0.342971
C	 2.4054303498	-0.2211724084	-1.217445615	-0.365733
H	 0.7767823999	 1.8446065158	 0.1057880776	 0.286967
H	-2.072491811	-0.399055189	 0.4322006296	 0.111596
H	-1.538099452	-0.9660929397	-1.1880679342	 0.101234
H	-0.8471711639	-2.8124248207	 0.9782212073	 0.100832
H	 0.8103307155	-0.7778376989	 2.2746941298	 0.099288
H	 1.5831760964	-1.8149984843	-2.5622564064	 0.124212
H	 0.8734084579	-0.1560790987	-2.8636853696	 0.117255
H	 2.5842345612	 0.8490314214	-1.2813457554	 0.101981
H	 3.2811872495	-0.8120371936	-0.9722477678	 0.127821
170.8274	205.7946	222.5462	324.682	365.4629	398.0993	456.3947	542.6542	606.6565	650.7012	728.8952	769.4737	792.8285	820.4179	842.1416	898.7649	910.7852	943.3516	959.4058	980.2411	989.6278	1013.6439	1034.0949	1046.3633	1070.7799	1076.2796	1133.294	1145.8481	1185.4636	1198.6534	1212.9421	1255.729	1306.1119	1316.4223	1386.4567	1406.4659	1448.015	1493.2397	1508.0348	3050.5103	3114.504	3116.4931	3127.9752	3196.2116	3205.192	3212.0609	3220.089	3791.1366
OC12CC3C1N3C21CC1	O[C@]12C[C@@H]3[C@H]1N3C12CC1	
InChI=1S/C7H9NO/c9-7-3-4-5(7)8(4)6(7)1-2-6/h4-5,9H,1-3H2	InChI=1S/C7H9NO/c9-7-3-4-5(7)8(4)6(7)1-2-6/h4-5,9H,1-3H2/t4-,5-,7-,8?/m1/s1
