20
gdb 76562	2.77962	1.245	1.18544	1.551	80.48	-0.2234	0.0248	0.2482	1176.9633	0.171106	-403.155792	-403.146875	-403.145931	-403.189395	33.228	
C	-0.24390705	 1.0404468717	-1.6847117739	-0.417738
C	-0.01698669	-0.1920384364	-0.8368882324	-0.075734
C	 1.3557570418	-0.6426802255	-0.3714590775	-0.075739
C	 2.6319981249	 0.0963489082	-0.7096336889	-0.417739
C	 0.3567231645	-0.0995296407	 0.6257326151	 0.298413
C	 0.5317650382	 1.2213266154	 1.3884223001	-0.179253
O	-0.0100247929	 0.9244766402	 2.6989105669	-0.22627
C	-0.4135037498	-0.3691923196	 2.6360899141	 0.098837
N	-0.262698001	-1.0216670989	 1.5598819016	-0.296586
H	 0.4411793623	 1.8564776593	-1.4371333836	 0.114797
H	-0.1068295566	 0.8131184696	-2.7474855752	 0.122654
H	-1.2640101224	 1.4197963092	-1.5578267778	 0.1223
H	-0.7048067568	-1.0058177622	-1.0492378368	 0.097745
H	 1.4737958617	-1.7210060164	-0.3105815337	 0.097745
H	 2.4973743258	 1.1814763746	-0.7399579275	 0.114797
H	 3.4138071531	-0.1158471459	 0.0281762638	 0.1223
H	 3.0121757055	-0.2107715536	-1.6899900335	 0.122654
H	 1.5746335056	 1.5298085906	 1.5140337164	 0.118752
H	-0.035157799	 2.0583138585	 0.9682273318	 0.118751
H	-0.8489596848	-0.7489805582	 3.5529025211	 0.139314
81.2812	153.2283	154.4009	179.4434	211.4926	245.6857	254.1148	424.562	429.1341	520.0426	535.1735	580.4654	774.7024	812.611	814.6246	877.6891	940.7337	944.7746	968.0636	1018.5844	1019.4295	1022.4377	1080.1172	1088.0927	1110.8811	1138.2874	1153.9896	1173.7861	1215.8642	1218.8076	1295.3168	1331.5164	1364.2813	1380.2901	1413.3873	1421.991	1455.3783	1488.0271	1494.0128	1501.1214	1511.724	1525.0539	1697.5153	3029.5335	3032.7867	3039.0466	3078.2858	3088.2504	3089.7071	3098.6547	3108.2873	3144.0177	3153.6497	3222.4561
CC1C(C)C11COC=N1	C[C@H]1[C@@H](C)[C@]21COC=N2	
InChI=1S/C7H11NO/c1-5-6(2)7(5)3-9-4-8-7/h4-6H,3H2,1-2H3	InChI=1S/C7H11NO/c1-5-6(2)7(5)3-9-4-8-7/h4-6H,3H2,1-2H3/t5-,6+,7+
