16
gdb 25249	3.06149	1.66762	1.09406	3.1046	79.32	-0.2248	-0.0285	0.1963	1047.4868	0.127936	-400.824582	-400.817611	-400.816667	-400.856127	27.235	
O	-0.0033069176	-0.0578069915	 0.0039100748	-0.36765
C	 0.0058472744	 1.1557378082	 0.0100471531	 0.294381
C	-1.2385841053	 2.0804100328	 0.0316743232	-0.319709
C	-0.731334594	 3.5543487687	 0.0321761468	-0.370099
C	 0.7655961577	 3.4005628032	 0.010713496	 0.301245
C	 1.1303280989	 2.0703089996	-0.0009867023	 0.202771
N	 2.4974910897	 1.9859699892	-0.0204055532	-0.378754
C	 3.0010548609	 3.2583579547	-0.0208691172	-0.048769
C	 1.9522643489	 4.167652105	-0.0018526661	-0.324084
H	-1.8623207631	 1.8519064145	-0.8379336993	 0.130624
H	-1.8384178505	 1.8430574766	 0.915605607	 0.130606
H	-1.1009483693	 4.110100856	-0.8369111	 0.118052
H	-1.0767153303	 4.1011638705	 0.9167639137	 0.118052
H	 3.0328947694	 1.1347057147	-0.0321188502	 0.27725
H	 4.0668296024	 3.4295406855	-0.034719374	 0.131059
H	 2.0589045278	 5.2415419223	 0.0020477078	 0.105025
103.551	154.1119	250.0045	284.987	505.3086	516.3105	556.0063	601.0065	635.4134	641.4036	683.185	726.038	760.0851	839.5835	845.117	929.8525	970.1672	1011.9743	1031.4181	1064.0285	1090.1798	1156.4761	1157.1458	1227.6685	1257.1472	1261.9128	1299.7194	1376.7628	1445.5129	1455.4409	1471.4111	1492.2462	1530.4989	1586.7306	1795.0429	3036.5205	3061.613	3062.8371	3101.8953	3243.4867	3261.3671	3676.1021
O=C1CCC2=C1NC=C2	O=C1CCc2c1[nH]cc2	
InChI=1S/C7H7NO/c9-6-2-1-5-3-4-8-7(5)6/h3-4,8H,1-2H2	InChI=1S/C7H7NO/c9-6-2-1-5-3-4-8-7(5)6/h3-4,8H,1-2H2
