16
gdb 89873	2.93414	1.1851	0.99069	3.8322	70.08	-0.2802	-0.0041	0.2761	1190.7101	0.122831	-437.856726	-437.848361	-437.847417	-437.890281	30.977	
O	-0.5937357291	 1.190678585	 0.7639906097	-0.432104
C	-0.0348416707	 0.0891744766	 0.0814709512	 0.121578
C	 0.5548927513	-1.00637944	 1.0303277276	-0.353689
C	-0.7764272544	-1.7412391273	 0.8891026338	 0.467116
C	-1.1824407943	-0.8821848099	-0.3081090917	-0.321822
O	-0.9642819806	-3.1355105653	 1.0058352348	-0.264678
C	-1.6406956614	-2.2921804994	 1.9502047511	-0.214188
C	-1.1725390546	-2.3503738775	 3.3172000217	 0.313983
N	-0.8017030564	-2.3687539505	 4.4119250114	-0.330985
H	 0.1226227923	 1.6911808239	 1.1683166735	 0.289033
H	 0.620718893	 0.4083261023	-0.7369558347	 0.077711
H	 1.3723515338	-1.5707270829	 0.5725886412	 0.123727
H	 0.8481538615	-0.6830407211	 2.0318183426	 0.128305
H	-2.1822673673	-0.4454001267	-0.3153003027	 0.128806
H	-0.9953854027	-1.4013640807	-1.2516612287	 0.12507
H	-2.7221050404	-2.2435573665	 1.8400361891	 0.142137
49.0688	124.5355	138.6944	296.8568	300.1922	344.8017	363.3617	393.5179	416.5308	528.7769	579.7477	609.9844	795.9029	820.8855	843.265	870.9484	925.2461	963.1457	982.3837	1024.6598	1050.6537	1071.2293	1142.9168	1152.2763	1202.1048	1220.1022	1237.4236	1267.8942	1320.9254	1334.8849	1414.7775	1447.1916	1453.8385	1486.8154	2359.4216	3031.141	3063.2806	3074.7356	3123.5823	3136.993	3138.4253	3813.3207
OC1CC2(C1)OC2C#N	O[C@H]1C[C@@]2(C1)O[C@H]2C#N	
InChI=1S/C6H7NO2/c7-3-5-6(9-5)1-4(8)2-6/h4-5,8H,1-2H2	InChI=1S/C6H7NO2/c7-3-5-6(9-5)1-4(8)2-6/h4-5,8H,1-2H2/t4-,5-,6-/m0/s1
