22
gdb 122826	6.64123	0.52674	0.49556	1.1072	81.73	-0.2547	0.0624	0.3171	2276.6469	0.192353	-441.499795	-441.488828	-441.487884	-441.537116	37.904	
C	-0.1640813155	 1.583381484	 0.0126072506	-0.380126
C	-0.0612000622	 0.0558757088	 0.0030564742	-0.166335
C	-1.4309389617	-0.6318891104	 0.0127473299	-0.184239
C	-1.3112528484	-2.1470377977	 0.0030528159	-0.046911
O	-2.6419734515	-2.6863449174	 0.0132547015	-0.246343
C	-2.7395148135	-4.0180227038	 0.0067507139	 0.495392
N	-1.7324804005	-4.7907441105	-0.0075142058	-0.608236
O	-4.0608400584	-4.3068768885	 0.0183250499	-0.222241
C	-4.4142801764	-5.6800756202	 0.0143177203	-0.256858
H	 0.826028161	 2.049393676	 0.0054451085	 0.112498
H	-0.7112765129	 1.9481045802	-0.8636041616	 0.115793
H	-0.6938458334	 1.9382291996	 0.9034632867	 0.115793
H	 0.5031664983	-0.2680249722	-0.8812344092	 0.099198
H	 0.5204901353	-0.2778222169	 0.8723510666	 0.099198
H	-1.9990240899	-0.323774443	 0.8991365024	 0.105218
H	-2.0164210559	-0.3138898889	-0.8587045917	 0.105217
H	-0.7838228432	-2.5096578173	-0.8860219084	 0.118118
H	-0.7662873694	-2.5195479264	 0.8773404755	 0.11812
H	-1.9918678692	-5.771343228	-0.010372813	 0.220315
H	-4.0287847148	-6.1958934478	 0.9021149763	 0.131224
H	-5.5043552122	-5.7096139849	 0.025089069	 0.143982
H	-4.0467295355	-6.1860518847	-0.8866569114	 0.131223
45.4401	69.8952	88.7304	112.5315	133.6434	174.135	215.6901	228.374	246.7064	290.2036	350.4657	434.642	556.5258	664.5235	743.5433	751.0934	768.2136	810.3898	900.5044	950.1458	950.7196	998.4538	1039.8529	1073.5412	1109.7809	1145.7747	1166.4474	1179.4106	1194.2488	1223.7214	1253.3169	1293.2986	1305.9805	1327.4461	1355.8432	1390.5147	1413.1144	1427.3083	1482.4916	1489.0842	1492.5159	1496.4772	1499.5749	1508.5613	1509.5906	1523.2335	1728.1065	3015.3465	3015.9928	3028.1321	3032.3464	3042.008	3043.088	3064.3173	3078.391	3090.7119	3099.5764	3103.7435	3144.3311	3561.5303
CCCCOC(=N)OC	CCCCO[C]([NH])OC	
InChI=1S/C6H13NO2/c1-3-4-5-9-6(7)8-2/h7H,3-5H2,1-2H3	InChI=1S/C6H13NO2/c1-3-4-5-9-6(7)8-2/h7H,3-5H2,1-2H3
