20
gdb 11969	2.74453	1.97437	1.7144	1.3553	75.02	-0.2482	0.075	0.3232	906.3133	0.175827	-348.985069	-348.976664	-348.97572	-349.017202	32.94	
C	 0.3541140577	 1.5267752317	-0.2219618292	-0.447481
C	 0.0023648181	 0.0648001926	 0.0396975588	 0.341226
O	-1.3983345663	-0.1054367492	 0.1580616897	-0.474306
C	 0.7531290358	-0.937218176	-0.8976830467	-0.271868
C	 1.7519041528	-1.2389858473	 0.2578821178	-0.313186
C	 0.7678177838	-0.5615135641	 1.2177903548	 0.361245
C	 0.985996698	-0.0054426805	 2.5927190389	-0.344143
C	 0.1037552008	-1.2163518138	 2.3911342879	-0.312104
H	 1.4372262696	 1.6729264805	-0.2733449479	 0.12138
H	-0.0699700656	 1.8619556296	-1.1776426647	 0.102473
H	-0.0409334124	 2.1657234988	 0.5740192359	 0.12101
H	-1.8250968675	 0.4170791318	-0.5289963006	 0.273489
H	 0.1109689867	-1.792417092	-1.118648325	 0.107857
H	 1.1639097892	-0.5391288525	-1.8295569178	 0.086607
H	 1.9764582489	-2.2913603083	 0.4482880802	 0.100105
H	 2.6968285797	-0.6959733539	 0.1540034657	 0.098386
H	 1.9604019762	-0.1459691431	 3.0504586203	 0.106687
H	 0.5062408277	 0.9343987407	 2.8487500566	 0.109443
H	-0.9680710213	-1.0873563206	 2.4887918324	 0.128711
H	 0.4786727682	-2.1835891242	 2.7116236931	 0.104466
91.2865	202.9389	228.1529	239.7267	264.8821	281.9561	331.6919	398.3721	434.098	500.473	573.2618	658.0695	751.7196	782.0633	868.0666	884.5699	893.0196	921.0948	943.7921	947.3578	982.3587	998.426	1051.6851	1074.3374	1092.4978	1141.1483	1178.2585	1189.7641	1191.1086	1220.3457	1241.9141	1261.8847	1270.434	1343.0145	1404.027	1405.0224	1461.1814	1472.4791	1488.4376	1492.8056	1497.6011	1504.2184	3018.016	3046.0648	3059.3527	3086.941	3095.4447	3111.9241	3119.5804	3123.934	3128.2689	3199.243	3222.1281	3808.5656
CC1(O)CCC11CC1	C[C@@]1(O)CCC21CC2	
InChI=1S/C7H12O/c1-6(8)2-3-7(6)4-5-7/h8H,2-5H2,1H3	InChI=1S/C7H12O/c1-6(8)2-3-7(6)4-5-7/h8H,2-5H2,1H3/t6-/m1/s1
