19
gdb 67684	2.18278	2.09068	1.63545	1.1403	80.72	-0.2274	-0.0061	0.2213	940.5187	0.161289	-385.850587	-385.843395	-385.842451	-385.881576	30.084	
O	-0.322226119	 1.4952935798	-0.0449120701	-0.476814
C	-0.0566337895	 0.1351147997	 0.050967931	 0.364644
C	-1.086090723	-0.9223023162	-0.0248587842	-0.095458
C	-0.8493492073	-1.741213891	-1.3240294204	-0.21727
C	 0.3514154853	-1.0152010284	-2.053435697	-0.277305
C	 1.0189766808	-0.5526924604	-0.7829299075	 0.04876
C	 1.7968516536	-1.3290734065	-0.0144065901	-0.114552
C	 1.2254667662	-1.4571835367	 1.3894417463	-0.269509
C	-0.1280975783	-0.7646211947	 1.2369259115	-0.133006
H	 0.4303335102	 1.9704651706	 0.3251908292	 0.279839
H	-2.1142225781	-0.6925702772	 0.2386570023	 0.090462
H	-0.5773164101	-2.7836154931	-1.12902364	 0.103384
H	-1.7614323353	-1.7438534177	-1.9309718305	 0.100547
H	 0.9509645701	-1.6954474327	-2.6620702999	 0.098345
H	-0.0166512331	-0.1982214816	-2.6814479956	 0.110833
H	 2.5053498951	-2.0546848136	-0.4032296087	 0.090612
H	 1.1486361488	-2.524819928	 1.6364973551	 0.110891
H	 1.8137224927	-0.9986372298	 2.1979564058	 0.1034
H	-0.6684133991	-0.4521551725	 2.1261716325	 0.082196
214.913	220.6831	264.4456	280.4375	323.3039	432.6907	482.7175	579.974	590.5194	656.0021	673.4941	749.1457	818.5319	838.595	849.3803	859.8075	893.5056	932.0295	940.6967	992.9267	1010.022	1033.3706	1066.6462	1072.3171	1079.6619	1138.3597	1164.1225	1194.4836	1209.5223	1228.8235	1272.3143	1285.28	1301.6358	1316.8971	1327.2621	1341.7185	1461.5173	1472.1259	1482.6962	1492.9637	1658.8245	2997.1831	3030.168	3037.6315	3055.7642	3082.0228	3117.5119	3150.1614	3161.3673	3170.4959	3790.9801
OC12C3CCC1=CCC23	O[C@@]12[C@H]3CC[C]1[CH]C[C@@H]23	
InChI=1S/C8H10O/c9-8-5-1-3-6(8)7(8)4-2-5/h1,6-7,9H,2-4H2	InChI=1S/C8H10O/c9-8-5-1-3-6(8)7(8)4-2-5/h1,6-7,9H,2-4H2/t6-,7+,8+/m1/s1
