19
gdb 67221	2.68108	1.70711	1.31378	0.7498	74.72	-0.2241	0.0733	0.2974	1032.6535	0.157344	-422.962025	-422.953538	-422.952593	-422.994374	33.487	
C	-0.0477088212	 1.5841900851	-0.070678762	-0.533248
C	 0.0135517778	 0.0956896652	 0.0017318663	 0.30096
C	 0.0796883053	-1.0209250751	-0.978908265	 0.020676
O	 1.2116177839	-1.6738874202	-0.3924168317	-0.293381
C	 0.8829895266	-0.9408450587	 0.8184984763	-0.059797
C	-0.4452445514	-1.5984921844	 1.3219260459	 0.426443
C	-0.4683349995	-3.100462991	 1.5404880636	-0.470388
O	-0.9608020463	-0.8831746909	 2.4376098882	-0.479486
C	-1.0566833386	-0.9967630344	 0.0611430662	-0.203047
H	 0.9215824012	 2.0150275617	-0.345528675	 0.124878
H	-0.7799461183	 1.9028572332	-0.8204079811	 0.12403
H	-0.351733333	 2.0088160807	 0.8918603438	 0.135203
H	-0.0646057364	-1.0742920743	-2.0504644219	 0.108254
H	 1.7317081885	-0.7578141904	 1.4775353941	 0.075626
H	 0.093069822	-3.3717770885	 2.4443798813	 0.099147
H	-1.4966020556	-3.4545375365	 1.6634394519	 0.121147
H	-0.0095051134	-3.612075047	 0.692101249	 0.139933
H	-0.5000041614	-1.2013115759	 3.2219003037	 0.275101
H	-2.1046637401	-0.9298826986	-0.2047687335	 0.087948
139.7306	191.7871	205.8032	224.2589	281.8762	295.0987	326.386	379.5447	397.161	523.1149	593.1105	603.3821	654.9652	776.5966	802.4611	853.7056	888.8825	908.9689	924.3656	959.393	962.392	996.6944	1025.0827	1065.6426	1093.0907	1124.0969	1139.9919	1169.2534	1172.141	1202.2391	1218.4722	1255.2206	1285.9998	1393.5778	1405.8356	1407.4886	1470.8652	1484.5287	1485.997	1497.268	1499.6003	3020.7226	3026.1456	3090.996	3091.2834	3096.9977	3123.8181	3137.0489	3191.2895	3204.5269	3797.1239
CC12C3OC1C(C)(O)C23	C[C@@]12[C@H]3O[C@@H]1[C@@](C)(O)[C@@H]23	
InChI=1S/C7H10O2/c1-6-3-4(6)9-5(6)7(3,2)8/h3-5,8H,1-2H3	InChI=1S/C7H10O2/c1-6-3-4(6)9-5(6)7(3,2)8/h3-5,8H,1-2H3/t3-,4+,5+,6-,7+/m1/s1
