18
gdb 74816	3.55957	1.16911	0.99848	4.5329	83.43	-0.2425	0.0019	0.2444	1217.7222	0.148397	-364.839135	-364.830998	-364.830054	-364.871643	31.397	
C	 0.0509287646	 1.4808680961	 0.0527712514	-0.489258
C	-0.0117391354	-0.0117262502	-0.0117605872	 0.310898
C	-0.0585703416	-0.7791042214	-1.1062287626	-0.177899
C	-0.0294582538	-2.2355605508	-0.7939316394	-0.106489
C	 1.2088095989	-2.7307960117	-0.0938315307	-0.30989
C	 0.0152421255	-2.2989158394	 0.7428098413	 0.187814
C	-0.0227053359	-0.8525577651	 1.2537243318	-0.382575
C	-0.7041917348	-3.3050183823	 1.4657170226	 0.20217
N	-1.2868170787	-4.1090857716	 2.0608147021	-0.352385
H	 0.9706691491	 1.8207435697	 0.5454188384	 0.130171
H	 0.0170088096	 1.9271859382	-0.9443961361	 0.129074
H	-0.7836550107	 1.886517691	 0.6385648661	 0.131324
H	-0.07620214	-0.4076412543	-2.1246109996	 0.100084
H	-0.6256355293	-2.940067982	-1.3624181127	 0.114647
H	 1.4147307269	-3.7950854682	-0.1159907239	 0.136662
H	 2.0830739042	-2.0882341903	-0.0858396978	 0.124108
H	 0.8259150599	-0.6259770984	 1.9110884625	 0.122074
H	-0.9298064385	-0.6705275494	 1.8436968537	 0.12947
111.4028	148.5351	180.5728	216.5334	313.3714	329.1284	397.2943	474.4397	483.2753	553.0199	586.8638	643.0871	736.4944	817.4959	849.118	866.6798	894.1113	940.434	970.9962	998.215	1018.4852	1059.619	1067.5439	1083.6532	1092.8792	1178.42	1194.2448	1239.327	1261.2452	1299.1797	1342.0468	1382.5384	1415.7472	1468.6921	1478.634	1481.279	1489.2494	1709.5295	2347.3394	3018.597	3026.3642	3056.3988	3065.4591	3115.2395	3131.3571	3180.3731	3197.512	3226.9386
CC1=CC2CC2(C1)C#N	CC1=C[C@H]2C[C@]2(C1)C#N	
InChI=1S/C8H9N/c1-6-2-7-4-8(7,3-6)5-9/h2,7H,3-4H2,1H3	InChI=1S/C8H9N/c1-6-2-7-4-8(7,3-6)5-9/h2,7H,3-4H2,1H3/t7-,8+/m0/s1
