23
gdb 82898	2.91333	1.76972	1.52939	0.0831	87.31	-0.2714	0.0932	0.3645	1000.7433	0.211762	-351.155965	-351.149185	-351.148241	-351.186649	30.051	
C	-0.2119879329	 1.5657152014	 0.0408502492	-0.447204
C	 0.0482835022	 0.0578055048	-0.0129084897	 0.096351
C	 0.9939118642	-0.5068308083	-1.1092919801	-0.052518
C	 2.2730089816	 0.2714513682	-0.7402546357	-0.202264
C	 2.4116366721	-0.4390593402	 0.6293144339	-0.032814
C	 2.7277892661	-1.8442295488	 0.0609705551	-0.195413
C	 1.3172256848	-2.0026891414	-0.5576448603	-0.034779
C	 0.5459907609	-2.0640150061	 0.7854746665	-0.208167
C	 0.8738871356	-0.5933557308	 1.1328392299	-0.046526
H	 0.6490187771	 2.1498825106	 0.3731521432	 0.120373
H	-0.5209694179	 1.9505784622	-0.9382803896	 0.111427
H	-1.0252471261	 1.7730575486	 0.7448748222	 0.109715
H	-0.933179275	-0.4225945928	-0.0703988706	 0.05979
H	 0.6453364219	-0.4516341853	-2.1413977213	 0.050715
H	 3.1321594409	 0.0769024322	-1.3865435855	 0.084222
H	 2.1227383981	 1.3499890383	-0.7138963605	 0.087294
H	 3.1068906407	-0.0166085842	 1.3543848477	 0.054567
H	 3.557604076	-1.8215819892	-0.6494053491	 0.084766
H	 2.9385053185	-2.6189933387	 0.8020671632	 0.084361
H	 1.1630766883	-2.8137517324	-1.269185353	 0.054957
H	-0.5291693499	-2.2430479581	 0.7149361621	 0.085285
H	 0.9672377926	-2.8141517306	 1.4591899349	 0.083485
H	 0.6746981102	-0.2530740293	 2.1496272172	 0.052375
165.9111	211.788	305.7018	390.8449	487.083	535.6675	601.1316	618.9617	655.141	759.9145	772.5679	783.567	843.6988	874.0604	878.4288	909.0452	913.6935	923.2161	936.3584	945.916	954.2218	985.375	1023.8785	1050.2508	1065.5234	1083.0771	1094.2594	1106.22	1130.6063	1161.2108	1166.4293	1200.0384	1205.1591	1211.156	1245.0824	1267.0987	1273.1399	1279.217	1299.0183	1308.0001	1318.1917	1333.8893	1409.0792	1413.0562	1494.4885	1498.9528	1511.7232	1538.7933	1556.6444	3029.4178	3043.3734	3057.897	3065.7689	3074.9809	3087.3613	3099.5318	3101.9043	3103.9926	3108.9946	3112.177	3115.0869	3120.7804	3135.0721
CC1C2CC3CC2CC13	C[C@H]1[C@H]2C[C@@H]3C[C@H]2C[C@H]13	
InChI=1S/C9H14/c1-5-8-3-6-2-7(8)4-9(5)6/h5-9H,2-4H2,1H3	InChI=1S/C9H14/c1-5-8-3-6-2-7(8)4-9(5)6/h5-9H,2-4H2,1H3/t6-,7-,8+,9+/m0/s1
