19
gdb 108831	2.83222	1.328	1.01559	3.3254	76.39	-0.2505	0.	0.2505	1206.7569	0.159868	-419.193898	-419.185331	-419.184387	-419.227078	32.294	
C	-0.110817532	 1.5488373151	-0.0969073617	-0.390824
C	 0.0771586448	 0.0335013701	-0.0293428837	 0.023564
N	 0.8679008442	-0.477487846	-1.1675348536	-0.297879
C	 1.786571229	-1.2301039445	-0.708423588	 0.309388
C	 2.764618569	-1.9311450693	-1.6008319286	-0.126041
O	 2.5850855937	-1.5924191791	-2.9501402268	-0.423408
N	 1.8619229252	-1.4371802456	 0.7049268395	-0.157957
C	 2.2501771497	-0.167074559	 1.3811733677	-0.255711
C	 0.8187860007	-0.5049543671	 1.2019991403	-0.041929
H	 0.850573443	 2.0689035321	-0.0566518581	 0.119377
H	-0.6076180649	 1.8258259145	-1.0303302389	 0.132921
H	-0.7259282746	 1.8976225194	 0.7384277804	 0.118436
H	-0.9143614065	-0.4369115384	-0.0754019379	 0.096336
H	 3.7853248485	-1.6814851344	-1.2691191159	 0.113228
H	 2.6513383395	-3.0157826003	-1.4412444255	 0.121167
H	 1.8058315481	-1.0178205017	-2.9750841514	 0.293799
H	 2.7177941207	-0.3015628424	 2.3512538881	 0.1292
H	 2.6885903801	 0.6087778653	 0.7597200552	 0.131758
H	 0.2453299416	-0.8474204887	 2.056789519	 0.104574
94.0641	140.6248	185.6656	200.4741	217.7614	280.2209	339.1998	409.2	435.2193	505.9108	619.2896	679.9414	727.2204	767.5749	817.1518	870.7745	941.8222	953.0511	1005.2239	1032.2033	1069.7548	1074.5989	1101.8759	1113.1542	1128.0628	1144.4692	1164.9506	1202.7034	1242.5416	1266.2216	1314.7096	1338.1256	1360.1509	1375.4942	1409.3824	1472.9921	1488.0693	1494.6853	1498.4471	1503.149	1708.1859	2979.8081	2993.4105	3012.9649	3043.0453	3114.3952	3118.5685	3123.7883	3167.8018	3210.1684	3715.5218
CC1N=C(CO)N2CC12	C[C@H]1N=C(CO)N2C[C@@H]12	
InChI=1S/C6H10N2O/c1-4-5-2-8(5)6(3-9)7-4/h4-5,9H,2-3H2,1H3	InChI=1S/C6H10N2O/c1-4-5-2-8(5)6(3-9)7-4/h4-5,9H,2-3H2,1H3/t4-,5+,8?/m1/s1
