15
gdb 99421	1.71525	1.51501	1.32689	1.2203	79.41	-0.2695	-0.0099	0.2596	1120.4804	0.106373	-383.346839	-383.336778	-383.335834	-383.381359	36.459	
C	 0.0558041392	 1.4020408474	 0.0091012635	-0.249835
O	 0.0044567974	-0.0182442221	 0.0019367003	-0.244131
C	-1.3064623557	-0.5809421391	 0.0113698289	-0.199921
C	-1.1246832427	-2.0430727952	 0.0017818204	 0.320451
C	-0.99333621	-3.2350649557	-0.0058245782	-0.404643
C	-2.055263423	-0.1898680433	 1.2277059284	 0.357365
C	-2.6432608965	 0.1393888825	 2.2213114278	-0.46932
C	-2.0782081757	-0.1768815001	-1.1862339691	 0.357355
C	-2.6849499059	 0.1630181636	-2.164873463	-0.469312
H	 1.1167068162	 1.6577955048	 0.0004119808	 0.134607
H	-0.4289812655	 1.8275429976	-0.87801644	 0.124343
H	-0.4120131019	 1.8179103684	 0.909794112	 0.124344
H	-0.8732508418	-4.2905327135	-0.0124591136	 0.203704
H	-3.1697267835	 0.4205579594	 3.1003170345	 0.207497
H	-3.2279458806	 0.4536888753	-3.0306327126	 0.207496
109.7117	118.0479	124.0917	145.9001	179.5359	186.4826	255.6608	328.9581	352.4895	501.1451	505.928	544.7283	551.8734	566.3951	644.2296	648.5718	649.9072	667.0944	671.5778	675.6057	676.0919	971.2075	1074.6598	1083.5145	1130.1355	1182.4225	1228.0868	1469.566	1484.7848	1511.0843	2234.6956	2237.8433	2252.6482	3015.9131	3079.0184	3135.2288	3497.8614	3498.3323	3501.236
COC(C#C)(C#C)C#C	COC(C#C)(C#C)C#C	
InChI=1S/C8H6O/c1-5-8(6-2,7-3)9-4/h1-3H,4H3	InChI=1S/C8H6O/c1-5-8(6-2,7-3)9-4/h1-3H,4H3
