21
gdb 59811	4.18676	0.65871	0.65181	2.6102	88.65	-0.2475	-0.0121	0.2354	1827.0253	0.180287	-420.448873	-420.438167	-420.437223	-420.485269	37.592	
C	-0.0422070753	 1.540447092	 0.0383710482	-0.369645
C	 0.0233616281	 0.0086900319	 0.0141476707	 0.065963
C	 0.7092952813	-0.5023471726	-1.2584353224	-0.369633
N	 0.7747786892	-0.4523967005	 1.1758984336	-0.246856
C	 0.181712234	-1.1983499445	 2.0070151213	 0.103521
N	 0.8125468353	-1.6869947204	 3.1431400875	-0.090042
C	 2.2050915665	-1.336581222	 3.3986690452	-0.337766
C	 0.1257197917	-2.4977604528	 4.0225271656	 0.167273
O	 0.5840004019	-2.9714174011	 5.0347192267	-0.32148
H	 0.9670896358	 1.9634746414	 0.0285244241	 0.124668
H	-0.5859836244	 1.9165525554	-0.8339719971	 0.11134
H	-0.5497089179	 1.8958708425	 0.9400096923	 0.112466
H	-1.009339266	-0.3848479161	 0.0355951462	 0.057496
H	 1.740340933	-0.1384445149	-1.3058237637	 0.124667
H	 0.7348297784	-1.5958980657	-1.2766729573	 0.112464
H	 0.1762020308	-0.1552925523	-2.1492193741	 0.111334
H	-0.8631033445	-1.5245218357	 1.9152834495	 0.100699
H	 2.3080799277	-0.251641763	 3.4764800407	 0.146032
H	 2.4984034155	-1.8185602827	 4.3297659145	 0.162958
H	 2.8330728812	-1.6785623961	 2.5725532031	 0.146003
H	-0.9153258525	-2.6714114629	 3.6922261553	 0.08854
47.7155	95.5858	108.573	126.6067	140.1838	220.9845	252.5294	274.2441	326.3622	334.0833	358.4209	379.1375	445.1315	476.7432	569.0615	745.4615	856.3391	899.9278	929.6738	954.2079	967.6112	990.7888	1029.9429	1094.4918	1133.8137	1161.5237	1168.1516	1193.6009	1305.6691	1352.0221	1352.8718	1376.8367	1394.008	1414.3115	1428.1474	1446.5281	1455.4378	1481.4198	1486.3982	1487.5188	1494.4899	1508.5766	1513.788	1737.6329	1820.7545	2928.0179	2958.7275	3026.9596	3034.8092	3039.0233	3060.6381	3108.6771	3112.1941	3112.328	3116.6805	3123.8266	3177.5573
CC(C)N=CN(C)C=O	CC(C)N=CN(C)C=O	
InChI=1S/C6H12N2O/c1-6(2)7-4-8(3)5-9/h4-6H,1-3H3	InChI=1S/C6H12N2O/c1-6(2)7-4-8(3)5-9/h4-6H,1-3H3
