25
gdb 93772	2.66878	1.2001	0.93519	0.242	95.8	-0.2261	0.0355	0.2616	1399.0892	0.229545	-352.392983	-352.383159	-352.382215	-352.42689	38.483	
C	-0.0600389313	 1.5716128673	-0.0763512845	-0.41618
C	 0.0589621784	 0.0451741322	-0.0309282088	 0.032617
C	 0.7141257671	-0.5230424781	-1.298230856	-0.203913
C	 0.6299613872	-2.0537956566	-1.3275740551	-0.298384
C	 0.9625651077	-2.6892760401	 0.0035656736	 0.316215
C	 1.2020575839	-4.1750376158	-0.0162935515	-0.473527
C	 1.0238255553	-1.9711488529	 1.1280006325	-0.152816
C	 0.7837948999	-0.4836036714	 1.2326092017	-0.01855
C	 2.1004943855	 0.2471486784	 1.5696247711	-0.390767
H	 0.9132449387	 2.0516643968	-0.2232345874	 0.115345
H	-0.7064881174	 1.8832094122	-0.903802886	 0.107618
H	-0.4911245788	 1.968384672	 0.8497330327	 0.107436
H	-0.9610860263	-0.3639055872	 0.0119230535	 0.068665
H	 0.2361860056	-0.1036471918	-2.191206023	 0.086068
H	 1.7659828544	-0.2114228803	-1.3372746046	 0.096293
H	-0.3812741243	-2.3683384971	-1.6294488587	 0.102296
H	 1.2969606826	-2.4567695284	-2.101741662	 0.09482
H	 2.0520813136	-4.4315639492	-0.6622452688	 0.118465
H	 1.4031940626	-4.56797817	 0.9840228081	 0.116412
H	 0.3338132324	-4.7103865465	-0.4233725706	 0.118344
H	 1.2823131251	-2.4750507816	 2.0590103297	 0.068518
H	 0.1093616618	-0.3163558193	 2.0859644235	 0.068514
H	 2.8111576585	 0.1979076125	 0.7382687041	 0.115388
H	 1.9297753239	 1.2998885525	 1.813059821	 0.111321
H	 2.5816576839	-0.2195619775	 2.4354734755	 0.109801
94.7545	139.6654	201.2897	211.6083	229.2783	261.7606	276.8091	292.9319	357.907	382.0733	408.0733	469.1072	509.1785	566.5326	673.6968	722.7634	796.2484	850.7456	875.6351	927.7976	951.892	967.274	981.2422	1024.5719	1036.1065	1056.2423	1058.6509	1088.7729	1118.1467	1139.9485	1172.0638	1183.417	1220.0552	1260.6413	1323.1297	1329.5301	1340.4498	1351.5019	1369.4207	1388.7023	1400.5122	1405.9119	1412.6899	1415.7201	1474.225	1479.7086	1488.4742	1492.2845	1495.9902	1499.9137	1504.7034	1510.1972	1739.4114	2979.1918	2987.6663	2996.5233	3010.6186	3018.4832	3026.501	3031.0589	3035.1639	3054.6719	3061.5492	3091.5207	3095.6951	3099.8667	3107.4979	3108.7607	3124.4522
CC1CCC(C)=CC1C	C[C@H]1CCC(=C[C@H]1C)C	
InChI=1S/C9H16/c1-7-4-5-8(2)9(3)6-7/h6,8-9H,4-5H2,1-3H3	InChI=1S/C9H16/c1-7-4-5-8(2)9(3)6-7/h6,8-9H,4-5H2,1-3H3/t8-,9+/m0/s1
