20
gdb 39603	3.20414	1.48955	1.08419	2.0193	78.12	-0.246	0.0184	0.2644	1117.5255	0.175483	-403.180398	-403.173345	-403.172401	-403.211627	29.01	
C	-0.0255922611	 1.5105352732	-0.0307008204	-0.194887
C	 1.3856399336	 2.1427954016	 0.0217107499	-0.190985
C	 2.2818643583	 1.5898382393	 1.1575358794	-0.243153
C	 2.2602207907	 0.0764107002	 1.0219193036	 0.076807
N	 3.013968714	-0.8060369268	 1.9419537732	-0.305373
C	 2.2727331254	-1.8350020675	 2.0359974481	 0.090678
O	 1.0385149204	-1.839351299	 1.4500403596	-0.257653
C	 0.8314105394	-0.432236109	 1.1620223265	 0.163173
C	-0.0235996043	-0.0410126948	-0.0210170286	-0.255617
H	-0.6048081634	 1.8589158584	 0.8345288182	 0.10383
H	-0.5541155385	 1.8719874749	-0.9186516599	 0.101794
H	 1.8917088472	 1.9601138314	-0.9355610552	 0.101663
H	 1.2886166227	 3.2295550447	 0.1148400112	 0.099152
H	 3.2978151592	 1.9875291962	 1.0727681605	 0.106901
H	 1.8953923753	 1.8891536185	 2.139758148	 0.099395
H	 2.6266852253	-0.1636861015	 0.0088074284	 0.081346
H	 2.5298906944	-2.7547130838	 2.5500319843	 0.133948
H	 0.3891271612	-0.0039542472	 2.0766445779	 0.07859
H	-1.0464246052	-0.422317501	 0.0611271465	 0.105153
H	 0.4065008252	-0.437319458	-0.9483181812	 0.105237
174.8051	188.5307	314.7304	324.7934	334.5211	421.8089	486.0776	524.9896	567.0317	638.3989	801.2882	830.0969	842.3593	867.0786	891.7579	932.8372	937.275	961.5383	1025.7352	1040.7042	1059.9422	1063.9727	1097.4741	1129.3765	1166.8196	1175.8882	1218.8443	1257.5585	1261.2514	1297.8107	1330.0049	1332.258	1347.2546	1367.9208	1374.203	1390.1879	1400.7683	1424.9046	1486.7479	1488.2314	1497.6621	1506.5629	1666.4286	2951.5804	2971.6681	3020.0939	3025.5822	3033.889	3038.7732	3073.7371	3076.9468	3086.2511	3088.8896	3212.2512
C1CCC2N=COC2C1	C1CC[C@H]2[N][CH]O[C@@H]2C1	
InChI=1S/C7H11NO/c1-2-4-7-6(3-1)8-5-9-7/h5-7H,1-4H2	InChI=1S/C7H11NO/c1-2-4-7-6(3-1)8-5-9-7/h5-7H,1-4H2/t6-,7-/m1/s1
