17
gdb 52906	1.73199	1.24454	0.79028	2.8604	78.44	-0.2472	-0.0258	0.2215	1456.2685	0.131619	-421.786483	-421.776348	-421.775404	-421.8241	34.074	
C	-0.1423152606	 1.5587461873	 0.2039005597	-0.504204
C	-0.0597948288	 0.106851592	 0.1742925826	 0.145576
C	-0.0037081209	-1.0960646632	 0.1490161482	 0.031574
C	 0.1270983593	-2.53196381	 0.0892807674	 0.15623
C	 1.4475711308	-3.0477782038	-0.4615726256	-0.354811
C	 1.6673979982	-2.622839076	-1.9040556392	 0.16816
O	 2.7278643591	-2.2716454602	-2.3502444364	-0.241996
C	-0.6798511012	-3.384754818	 0.9862950959	-0.214316
O	-1.0328509823	-3.2521901797	-0.386049126	-0.260316
H	 0.7495716394	 2.0127018779	-0.2407785855	 0.158961
H	-1.0129133562	 1.9128503313	-0.358592336	 0.158346
H	-0.2330699299	 1.9314994019	 1.2298703612	 0.153728
H	 2.2943110654	-2.7075379994	 0.1406082571	 0.130436
H	 1.4245426602	-4.1452220001	-0.4430647089	 0.132238
H	 0.7587120483	-2.6822698658	-2.5422839748	 0.097829
H	-0.2895119415	-4.3575466253	 1.2843014867	 0.116792
H	-1.3596376793	-2.9131365289	 1.6929319336	 0.125772
22.327	44.2708	74.5438	104.468	124.7211	205.0098	304.9591	313.2019	329.293	420.9969	459.1645	525.1657	568.4439	639.705	774.3809	804.9461	911.192	943.8232	1022.1589	1050.886	1054.0064	1063.875	1068.3035	1133.3268	1167.34	1201.5697	1271.133	1311.1402	1383.0172	1413.1072	1425.2838	1438.3806	1474.7121	1475.843	1520.2809	1836.207	2369.4049	2899.0835	3031.3573	3033.2923	3083.0184	3093.9048	3096.8268	3108.5609	3177.4418
CC#CC1(CC=O)CO1	CC#C[C@@]1(CC=O)CO1	
InChI=1S/C7H8O2/c1-2-3-7(4-5-8)6-9-7/h5H,4,6H2,1H3	InChI=1S/C7H8O2/c1-2-3-7(4-5-8)6-9-7/h5H,4,6H2,1H3/t7-/m1/s1
