14
gdb 28656	5.95295	1.03992	0.88545	1.1199	85.	-0.2189	-0.035	0.1839	1226.6087	0.102514	-395.76786	-395.760118	-395.759173	-395.799933	29.457	
N	-0.0157609805	 1.3481969338	 0.0958782473	-0.552692
C	 0.0023247888	-0.0077424809	 0.0367771866	 0.455212
N	-1.1910552412	-0.6316583408	 0.0281721154	-0.309848
C	-1.154449559	-1.9550621962	 0.0089117187	-0.05588
C	 0.0386081233	-2.6955606706	-0.0050752552	 0.053238
C	 1.2111869284	-1.9229165506	-0.0046764955	-0.05588
N	 1.2120392405	-0.5990037233	 0.0143685056	-0.309848
C	 0.0577514219	-4.1129292069	-0.0253940619	 0.214134
C	 0.0740231097	-5.3175254437	-0.042295748	-0.412939
H	 0.844578446	 1.8397389508	-0.072495114	 0.268245
H	-0.8910143248	 1.816156273	-0.0625282916	 0.268245
H	-2.1118624005	-2.4708981635	 0.0011894668	 0.122809
H	 2.1821103508	-2.4125491043	-0.0234748976	 0.122809
H	 0.088362218	-6.3790092165	-0.0570952868	 0.192397
95.2799	142.6515	229.3831	283.673	393.9808	418.2108	456.7833	476.3816	527.2474	541.664	542.6184	578.2057	656.6868	668.5127	750.6676	833.3856	891.1363	982.2595	1002.4254	1047.5594	1048.0592	1250.7343	1263.2163	1330.9386	1399.8759	1416.9738	1502.8543	1563.2517	1626.9134	1653.0258	2225.2873	3159.0517	3160.2645	3503.6856	3620.4375	3755.0604
NC1=NC=C(C=N1)C#C	Nc1ncc(cn1)C#C	
InChI=1S/C6H5N3/c1-2-5-3-8-6(7)9-4-5/h1,3-4H,(H2,7,8,9)	InChI=1S/C6H5N3/c1-2-5-3-8-6(7)9-4-5/h1,3-4H,(H2,7,8,9)
