17
gdb 73323	3.19507	1.95205	1.45035	1.3324	71.08	-0.2335	0.058	0.2915	902.5095	0.135657	-421.704675	-421.697938	-421.696994	-421.735296	28.097	
C	 0.0441138221	 1.6059276855	-0.192580905	-0.493535
C	 0.0411276884	 0.1286165755	 0.0737251207	 0.430253
O	 0.5432556344	-0.5805263427	-1.1211396164	-0.330019
C	 0.5157906951	-1.9917609766	-0.8020727395	-0.175797
C	-0.0286834359	-1.8248966024	 0.5988824285	 0.408305
O	-0.4532018097	-2.4553347959	 1.8242761388	-0.393045
C	-0.6255241341	-0.9661201295	 2.0163620562	-0.008547
C	 0.6762216923	-0.6050760897	 1.2655105923	-0.169274
C	-1.1333625703	-0.7256124052	 0.5765922689	-0.169276
H	 1.0563139396	 1.9542650301	-0.4186509594	 0.131741
H	-0.5954403185	 1.8442052596	-1.0476770343	 0.131743
H	-0.3250716752	 2.1489794843	 0.6818470016	 0.122063
H	-0.1487218815	-2.5262790408	-1.4888877194	 0.116119
H	 1.524523844	-2.4148215871	-0.8518611845	 0.116119
H	-1.0144856858	-0.6583936844	 2.984206712	 0.103614
H	 1.6966112981	-0.5999765638	 1.6440598269	 0.089768
H	-2.1398966329	-0.8555208071	 0.1834849726	 0.089768
207.1271	250.5425	267.0856	326.2238	401.5362	448.6509	561.7091	609.9164	674.1	699.1263	747.2727	760.4809	812.8826	833.2357	856.0946	898.1643	935.8257	947.9251	984.5416	1025.7786	1062.1202	1088.8815	1097.4163	1105.0066	1148.8902	1159.4613	1171.9665	1199.3101	1223.7626	1256.6172	1312.8058	1330.531	1388.3229	1428.9724	1477.7802	1495.4385	1523.8502	3036.4146	3043.1955	3084.3158	3113.6299	3121.0384	3136.0039	3139.5457	3152.9351
CC12OCC34OC(C13)C24	C[C@@]12OC[C@@]34O[C@@H]([C@H]13)[C@@H]24	
InChI=1S/C7H8O2/c1-6-4-3-5(6)7(4,9-3)2-8-6/h3-5H,2H2,1H3	InChI=1S/C7H8O2/c1-6-4-3-5(6)7(4,9-3)2-8-6/h3-5H,2H2,1H3/t3-,4+,5-,6+,7+
