17
gdb 11641	3.27864	1.84952	1.45541	1.2857	75.45	-0.2388	0.0364	0.2752	912.6345	0.142044	-326.614498	-326.607025	-326.60608	-326.645998	29.061	
C	-0.0750078128	 1.5612848606	-0.0763202823	-0.445363
C	 0.1120940315	 0.0605327959	 0.0007730553	 0.056358
N	 1.3183238908	-0.5854345506	-0.7243650422	-0.175135
C	 2.1515251128	-0.1389381457	 0.4883787264	-0.214114
C	 0.8586996895	-0.6610319545	 1.170883371	 0.242397
C	 0.9949894826	-1.8137961286	 0.1398257922	-0.20007
C	 0.5164768629	-0.717262258	 2.5677071822	 0.000435
C	 0.2215878411	-0.7575440528	 3.7335885522	-0.340918
H	-0.2831180104	 1.8518561483	-1.1112774925	 0.134425
H	-0.9371733685	 1.8517212617	 0.5329419626	 0.129527
H	 0.7850806156	 2.1378770493	 0.2694058439	 0.123635
H	-0.8182451673	-0.4359778141	-0.2970167491	 0.077664
H	 3.0607373304	-0.7283613453	 0.6294942614	 0.107405
H	 2.3720628109	 0.9272907207	 0.5242612929	 0.108826
H	 0.0843920682	-2.3390723001	-0.1594256931	 0.106022
H	 1.8379421871	-2.4984576297	 0.2581566413	 0.105961
H	-0.0375543842	-0.7953042872	 4.7628232179	 0.182945
121.306	143.1368	174.4567	283.4822	358.8374	480.8929	496.5547	543.4427	585.6387	620.7958	644.183	644.6985	755.0614	806.4882	822.4793	888.5243	963.5892	985.6122	1007.5474	1047.1094	1089.2659	1112.2957	1142.7888	1157.3552	1176.6312	1196.2372	1199.985	1260.4837	1296.7687	1405.955	1430.1748	1487.7097	1492.4132	1520.0206	1554.7305	2228.1674	3039.4153	3045.1248	3057.2488	3074.467	3105.3115	3125.8671	3129.6675	3148.8754	3499.2506
CC1N2CC1(C2)C#C	C[C@H]1N2C[C@@]1(C2)C#C	
InChI=1S/C7H9N/c1-3-7-4-8(5-7)6(7)2/h1,6H,4-5H2,2H3	InChI=1S/C7H9N/c1-3-7-4-8(5-7)6(7)2/h1,6H,4-5H2,2H3/t6-/m1/s1
