17
gdb 7328	4.23348	1.18894	0.98814	1.3809	68.38	-0.2376	-0.0168	0.2209	1196.265	0.142381	-397.233804	-397.22464	-397.223696	-397.268689	32.342	
C	-0.0243040506	 1.2545416708	-0.4921691332	-0.372134
C	-0.0933310042	 0.0812482239	 0.4882176185	-0.146403
N	-1.3819043182	-0.5844941051	 0.4741634726	-0.309584
C	-1.5666378877	-1.8424361015	 0.0360022518	 0.41752
O	-0.6950800234	-2.5987722494	-0.3748057577	-0.410372
C	-3.0294646896	-2.2910431148	 0.0867495069	 0.272805
N	-3.1511723319	-3.5923783324	-0.2779383197	-0.530363
N	-3.9190357512	-1.44782851	 0.4602119825	-0.546066
H	 0.9562061128	 1.7379220231	-0.437865812	 0.119413
H	-0.1847808879	 0.9126016174	-1.518618529	 0.131379
H	-0.784057519	 2.0091619854	-0.2622589323	 0.117954
H	 0.6486098166	-0.6793934494	 0.2343064066	 0.145408
H	 0.1215710762	 0.4290804009	 1.50640483	 0.109825
H	-2.228516657	-0.1045374667	 0.7539802318	 0.265747
H	-2.3165675992	-4.0259886059	-0.6449144486	 0.275349
H	-4.0501539677	-4.0002435628	-0.4633025573	 0.253544
H	-4.8589561479	-1.8452749035	 0.4587372091	 0.205979
30.6575	82.4725	87.4355	180.655	246.7585	260.9392	346.04	367.356	424.8991	497.415	540.2586	586.1577	626.3106	662.813	779.2653	821.8332	852.3993	892.7842	916.2282	1067.0269	1090.1327	1123.5707	1144.5704	1183.7436	1240.8712	1321.6151	1390.0137	1410.6171	1428.5184	1488.1003	1492.0786	1504.6296	1572.1817	1592.1177	1724.2123	1777.3551	3028.0416	3036.7055	3098.3083	3115.4354	3123.6704	3465.6032	3570.4744	3578.4785	3727.1098
CCNC(=O)C(N)=N	CCNC(=O)C(=N)N	
InChI=1S/C4H9N3O/c1-2-7-4(8)3(5)6/h2H2,1H3,(H3,5,6)(H,7,8)	InChI=1S/C4H9N3O/c1-2-7-4(8)3(5)6/h2H2,1H3,(H3,5,6)(H,7,8)
