22
gdb 79344	3.14399	1.47412	1.38403	1.5991	84.67	-0.2313	0.0893	0.3207	1077.8249	0.196696	-367.224777	-367.216876	-367.215932	-367.256526	32.464	
C	-0.1108594287	 1.5609134096	-0.0268118706	-0.424438
C	 0.0367863479	 0.039743532	 0.0029596609	 0.031848
C	 0.9360477324	-0.5601374548	-1.0776868806	-0.088099
N	 2.3278877901	-0.693427522	-0.5591671243	-0.162662
C	 2.265208717	-0.1977513405	 0.8367172094	-0.162625
C	 0.8158199986	-0.5731817487	 1.1975981257	-0.068929
C	 0.8367412121	-2.0669057025	 0.8093153448	-0.284934
C	 1.4289434096	-1.881252532	-0.5901315678	 0.348024
C	 1.806638249	-3.0418172297	-1.4655748791	-0.494911
H	 0.8554622458	 2.0726576131	-0.0098673197	 0.123377
H	-0.6308778048	 1.8792108715	-0.936723202	 0.115496
H	-0.6960393742	 1.9148917891	 0.8288150602	 0.112084
H	-0.9628499671	-0.4106356054	-0.0524339483	 0.068547
H	 0.827509475	-0.3150244794	-2.1287067564	 0.079138
H	 3.0082495504	-0.7169697708	 1.4503978764	 0.09846
H	 2.478898597	 0.873638818	 0.8696058281	 0.101184
H	 0.4604068866	-0.3216028386	 2.1964325736	 0.061996
H	 1.4742913542	-2.6745367207	 1.460942202	 0.093566
H	-0.161063133	-2.5174840663	 0.7821470938	 0.094876
H	 0.9315183421	-3.6590579034	-1.6985403607	 0.113148
H	 2.2411309462	-2.6920276204	-2.4056454431	 0.127605
H	 2.5462464639	-3.6822416283	-0.9714404023	 0.11725
171.1753	191.3999	218.2167	224.231	292.4445	331.8074	439.1122	468.9919	514.4538	595.5771	672.1156	713.0343	771.0325	812.8635	863.0155	896.086	913.6422	927.8425	940.3165	958.4014	992.1393	1017.6787	1030.643	1042.2292	1076.4839	1090.4999	1109.151	1126.427	1164.4779	1176.6653	1218.7633	1229.4129	1250.8147	1273.7175	1304.0731	1308.584	1324.8337	1379.7107	1407.4263	1412.9244	1429.8388	1486.9342	1489.3119	1494.2668	1497.801	1500.3215	1521.2127	3018.8572	3027.9426	3034.0818	3039.6234	3056.0011	3082.8143	3087.1633	3094.6154	3101.4378	3114.4237	3115.9926	3124.0066	3170.4099
CC1C2N3CC1CC23C	C[C@H]1[C@H]2N3C[C@@H]1C[C@@]23C	
InChI=1S/C8H13N/c1-5-6-3-8(2)7(5)9(8)4-6/h5-7H,3-4H2,1-2H3	InChI=1S/C8H13N/c1-5-6-3-8(2)7(5)9(8)4-6/h5-7H,3-4H2,1-2H3/t5-,6+,7-,8+,9?/m1/s1
