13
gdb 26649	3.39772	1.28947	0.93473	4.4361	68.28	-0.1983	-0.0096	0.1886	1131.5944	0.089398	-452.788565	-452.780015	-452.779071	-452.82174	30.649	
O	 0.0880158465	 1.348774398	 0.18559687	-0.440627
C	 0.0649592081	 0.0043225673	 0.0259207558	 0.337327
C	 0.1022455173	-0.7974281	-1.0837219686	 0.09066
O	 0.1743022106	-0.3234611367	-2.3606099957	-0.46103
C	 0.0457821949	-2.1545794646	-0.6189698995	 0.075279
C	-0.0243068869	-2.1170702197	 0.7649119641	-0.182261
N	-0.0120606647	-0.802849684	 1.1347472882	-0.298019
C	 0.0637988834	-3.2852499438	-1.4628603216	 0.183269
N	 0.0837643093	-4.1666553084	-2.2168438779	-0.370678
H	 0.1507908325	 1.7459797591	-0.6905846772	 0.320032
H	 0.2258317152	-1.0687820095	-2.9691896689	 0.313539
H	-0.0793324759	-2.9144927639	 1.4846797342	 0.151244
H	-0.0518931104	-0.4534358037	 2.0768333673	 0.281267
108.2806	123.4486	142.1817	234.8272	253.8523	279.3877	316.4177	440.0851	448.6336	508.3447	539.9457	606.5862	628.7854	668.5584	698.5063	729.4406	782.3829	1018.6904	1104.3323	1171.6205	1222.96	1287.7689	1318.037	1411.7656	1431.0211	1545.2015	1563.1884	1710.1809	2332.2859	3294.3653	3682.3622	3815.1235	3822.5688
OC1=C(O)C(=CN1)C#N	Oc1c(O)c(c[nH]1)C#N	
InChI=1S/C5H4N2O2/c6-1-3-2-7-5(9)4(3)8/h2,7-9H	InChI=1S/C5H4N2O2/c6-1-3-2-7-5(9)4(3)8/h2,7-9H
