20
gdb 68304	3.13992	1.34084	1.20223	1.4792	79.99	-0.2238	0.0886	0.3123	1130.3742	0.170017	-403.048208	-403.039843	-403.038898	-403.081211	32.49	
C	 0.3302907873	 1.3293617484	 0.4912288119	-0.513892
C	 0.0141287882	-0.0532628361	 0.0186338807	 0.388542
C	 0.6156442843	-0.8900829031	-1.1416938782	-0.257843
C	-0.2726097563	-1.8125445276	-0.2812411218	-0.004104
O	 0.3198391365	-1.2000332811	 0.9289452447	-0.349438
C	-1.372913357	-0.6958584291	-0.2839690709	 0.04127
N	-2.4160485951	-0.5661852083	 0.6926664367	-0.098596
C	-3.4464978398	-1.6014137449	 0.7378819777	-0.229025
C	-2.4733652416	-1.4461035215	 1.8539429647	-0.210365
H	 1.3878498742	 1.4140144958	 0.7581459751	 0.13117
H	 0.1109352389	 2.0551938029	-0.2981973335	 0.126307
H	-0.2772707236	 1.5779495151	 1.3659125199	 0.143104
H	 0.3078749401	-0.6617582078	-2.1656938957	 0.092474
H	 1.6836774407	-1.0862899865	-1.0464585348	 0.108137
H	-0.3534119536	-2.8995941767	-0.3021812079	 0.089819
H	-1.787161657	-0.4557659532	-1.2688103923	 0.07628
H	-4.4688145953	-1.2456899195	 0.8334097546	 0.114086
H	-3.3251933769	-2.4705827473	 0.0931232521	 0.106367
H	-1.704736071	-2.2016002585	 1.9689599267	 0.132077
H	-2.778309523	-0.9651541311	 2.7793719104	 0.113629
69.9886	139.074	169.8282	220.7455	258.8245	305.9225	381.0625	448.1171	509.934	635.1168	652.2167	739.5869	759.908	804.1083	841.6606	873.5149	892.0684	905.8456	933.2273	969.1924	1017.9421	1023.1499	1049.2634	1089.468	1102.9354	1116.7215	1134.2363	1136.6364	1167.0617	1173.2657	1186.1403	1202.371	1228.4928	1243.757	1335.023	1350.1442	1404.0111	1414.9096	1476.0604	1486.3904	1492.0085	1496.6348	1523.7474	3041.6436	3051.8666	3065.234	3093.0609	3114.236	3114.5737	3121.5308	3121.8786	3150.2989	3177.925	3216.2146
CC12CC(O1)C2N1CC1	C[C@@]12C[C@@H](O1)[C@H]2N1CC1	
InChI=1S/C7H11NO/c1-7-4-5(9-7)6(7)8-2-3-8/h5-6H,2-4H2,1H3	InChI=1S/C7H11NO/c1-7-4-5(9-7)6(7)8-2-3-8/h5-6H,2-4H2,1H3/t5-,6-,7+/m1/s1
