17
gdb 26239	3.91404	1.03566	0.84727	0.9132	71.01	-0.2039	0.0354	0.2394	1322.0559	0.136706	-455.189162	-455.180434	-455.17949	-455.22276	32.734	
C	 0.2231252936	 1.3097843709	 0.9565989987	-0.400452
C	-0.1170432619	 0.267981962	-0.1074360013	-0.004926
O	 0.7572003756	-0.8680927443	-0.0480080975	-0.43269
C	-1.5458471769	-0.1712384213	-0.0447566734	 0.289694
C	-2.6673800357	 0.2741252116	 0.5975534498	-0.19274
N	-3.770509473	-0.5065386388	 0.2849645339	-0.369769
C	-3.3033932361	-1.411510454	-0.533240924	 0.445324
O	-3.9919595223	-2.415066532	-1.1019229902	-0.424143
N	-1.9808917128	-1.2696471335	-0.7881205012	-0.358149
H	 1.2806549684	 1.5744434142	 0.8853481078	 0.125989
H	-0.3744430774	 2.2166283866	 0.8235327016	 0.127894
H	 0.0255835832	 0.91815323	 1.9603561682	 0.116399
H	 0.0981007309	 0.6939988615	-1.0970118203	 0.100811
H	 0.6126688429	-1.2911502011	 0.8069753044	 0.278778
H	-2.7595094848	 1.119719629	 1.2612910752	 0.10836
H	-4.8987337624	-2.3329152524	-0.7804165658	 0.314221
H	-1.3903945513	-1.8891116283	-1.3174595459	 0.275402
54.6693	136.3253	163.0732	243.0044	293.1148	329.58	360.2	405.0699	416.8723	473.6813	515.2777	526.3451	618.1784	698.3336	731.6978	749.4293	841.1821	886.5863	991.423	1028.5014	1046.0159	1085.0609	1112.8931	1155.7078	1201.5359	1228.8034	1281.2712	1295.6456	1345.5661	1391.4287	1402.6662	1420.5463	1490.5393	1494.8212	1553.7901	1599.61	1635.0419	3012.3423	3038.9619	3109.3892	3129.292	3255.0199	3670.1738	3784.7076	3803.5992
CC(O)C1=CN=C(O)N1	C[C@@H](O)c1cnc(O)[nH]1	
InChI=1S/C5H8N2O2/c1-3(8)4-2-6-5(9)7-4/h2-3,8H,1H3,(H2,6,7,9)	InChI=1S/C5H8N2O2/c1-3(8)4-2-6-5(9)7-4/h2-3,8H,1H3,(H2,6,7,9)/t3-/m1/s1
