21
gdb 119735	3.4289	1.0319	0.91453	2.2317	79.13	-0.2396	0.0681	0.3077	1363.7613	0.181882	-424.177588	-424.168467	-424.167523	-424.21227	33.252	
C	-0.1193157552	 1.3700400292	 0.0761284059	-0.22022
O	-0.0009346712	-0.0315918353	 0.0241044963	-0.240258
C	 0.6213483766	-0.577329178	 1.1700903127	-0.185449
C	 0.6846317369	-2.070522714	 0.9969316333	 0.319982
C	-0.6336903525	-2.8927299978	 1.0971463472	-0.283651
C	 0.0325932373	-3.8443478267	 2.141018079	-0.230253
C	 1.3569476439	-3.0614411858	 1.9951327553	 0.054988
O	 2.211470751	-3.5857625134	 0.9598882495	-0.295132
C	 1.6916281217	-2.6486164192	-0.0144965585	-0.115455
H	 0.8640825335	 1.8612686693	 0.1490736277	 0.104378
H	-0.6074999882	 1.692513191	-0.8467129871	 0.128406
H	-0.7283774585	 1.6970548036	 0.9340157458	 0.103564
H	 1.6364853745	-0.1599011898	 1.2935958146	 0.086285
H	 0.0506017664	-0.3162340786	 2.0791042078	 0.082746
H	-1.4689734972	-2.3146760528	 1.4993842766	 0.105055
H	-0.9596826475	-3.355148706	 0.1625015661	 0.104538
H	-0.4090565289	-3.7718871228	 3.138853935	 0.099852
H	 0.1148566022	-4.8977729797	 1.8655661852	 0.111565
H	 1.9152468898	-2.783186076	 2.8944754914	 0.069569
H	 1.2720631982	-3.1494314421	-0.8952689577	 0.101363
H	 2.4653965972	-1.940725485	-0.340024816	 0.098128
57.4097	94.2492	108.1056	125.2647	226.0745	286.9559	326.0092	353.3213	397.1683	425.8032	669.8155	714.4423	739.1585	866.591	883.4375	931.8459	934.8302	954.991	972.2195	998.5438	1008.9537	1035.1575	1096.3335	1114.256	1146.6931	1153.903	1174.6526	1196.8145	1207.909	1224.9606	1226.5675	1251.3775	1269.371	1290.0599	1305.293	1325.7847	1377.709	1421.3934	1464.8256	1480.6587	1485.022	1487.4458	1502.6327	1518.7349	1528.3878	2937.0151	2964.6774	2969.9259	3005.9839	3012.7088	3052.6131	3054.7482	3061.2093	3068.5631	3107.763	3114.3066	3126.5309
COCC12CCC1OC2	COC[C@]12CC[C@H]1OC2	
InChI=1S/C7H12O2/c1-8-4-7-3-2-6(7)9-5-7/h6H,2-5H2,1H3	InChI=1S/C7H12O2/c1-8-4-7-3-2-6(7)9-5-7/h6H,2-5H2,1H3/t6-,7+/m1/s1
