20
gdb 69522	2.41006	1.64057	1.33509	2.0083	78.61	-0.2452	0.069	0.3143	1066.749	0.169591	-403.097586	-403.088533	-403.087589	-403.130494	35.224	
C	 0.042644082	 1.520248363	 0.0374603272	-0.479648
C	-0.0624364196	 0.0239440004	 0.0520004399	 0.302693
N	 1.1141346612	-0.7848402176	-0.2911819393	-0.424425
C	 0.4991092792	-0.9875578263	 1.028543154	 0.215436
C	 1.3350990664	-0.8199487014	 2.2629664233	-0.49947
C	-0.7853097856	-1.7963559876	 0.9088218693	 0.340846
O	-0.8428319605	-3.174256329	 0.7595381697	-0.466283
C	-1.9902475449	-0.9680267413	 1.2828645007	-0.355161
C	-1.3427632	-0.7843766266	-0.078849266	-0.199765
H	 1.025163381	 1.8438735428	 0.3905046657	 0.129455
H	-0.0895662926	 1.9099121049	-0.9786416485	 0.122551
H	-0.7270573439	 1.9742025683	 0.6707485775	 0.116147
H	 0.8890532035	-1.542326465	-0.9337783027	 0.228693
H	 2.0463670549	 0.000982557	 2.1409468571	 0.132827
H	 0.7100709758	-0.6136947887	 3.1389079413	 0.113018
H	 1.9138359734	-1.7282783102	 2.4689288117	 0.122273
H	-0.9089122674	-3.5720770371	 1.6342938741	 0.287092
H	-2.9307854891	-1.5121624508	 1.2742604904	 0.112538
H	-1.9275291554	-0.1827285791	 2.0319965933	 0.107814
H	-1.8779322185	-0.9905503156	-0.9992422785	 0.093368
155.9994	178.9304	180.8553	199.2927	222.7298	245.4057	271.7584	349.6933	445.5064	449.5688	516.4159	572.5838	606.5648	651.0787	712.6774	784.1115	804.8898	892.4286	924.2286	946.6138	980.8807	995.8358	1028.8406	1064.6309	1082.9945	1090.4744	1111.5403	1145.6793	1168.6202	1207.885	1214.5673	1263.0407	1297.9862	1340.9918	1385.3775	1407.3816	1414.3729	1460.5501	1480.6779	1488.5621	1492.4291	1495.7163	1500.1295	3027.0596	3030.5333	3084.6043	3088.3339	3106.9825	3116.6212	3119.093	3175.3101	3196.61	3466.7036	3799.5752
CC12NC1(C)C1(O)CC21	C[C@@]12N[C@]1(C)[C@@]1(O)C[C@@H]21	
InChI=1S/C7H11NO/c1-5-4-3-7(4,9)6(5,2)8-5/h4,8-9H,3H2,1-2H3	InChI=1S/C7H11NO/c1-5-4-3-7(4,9)6(5,2)8-5/h4,8-9H,3H2,1-2H3/t4-,5-,6-,7+/m0/s1
