14
gdb 127365	3.49194	1.79348	1.19382	5.5548	68.63	-0.2329	-0.0118	0.2212	955.9506	0.104293	-429.043801	-429.036891	-429.035947	-429.075653	25.167	
C	 0.0229937602	 1.4600560725	 0.0196668449	-0.343516
N	-0.0045208991	 0.0109298698	 0.0118237988	-0.170109
C	-0.1223384918	-0.8379420326	-1.0642021161	 0.040574
N	-0.1170549269	-2.1105872227	-0.7595918397	-0.259643
N	 0.0136326721	-2.0791025819	 0.6114500382	 0.004365
C	 0.1032499137	-2.883856421	 1.7177582651	-0.00962
N	 0.218315061	-2.12231832	 2.7844209655	-0.214682
N	 0.208092937	-0.7808750479	 2.4127198856	-0.373234
C	 0.0842327755	-0.8152719286	 1.1096078388	 0.527385
H	 0.9631809277	 1.8207803171	 0.4456975199	 0.166567
H	-0.0679253443	 1.8201267869	-1.0062234291	 0.148719
H	-0.8062667993	 1.8533898675	 0.6139590033	 0.166584
H	-0.211353275	-0.4696921725	-2.0749841078	 0.160744
H	 0.0811493291	-3.9596673665	 1.6946500826	 0.155866
72.0072	139.8756	236.8444	245.1164	353.4157	532.5687	623.1248	628.4804	658.6835	727.8379	750.2628	778.4857	844.7241	857.3399	984.861	1009.6486	1073.8595	1145.7923	1158.2532	1200.1483	1250.015	1299.876	1335.9518	1414.4202	1430.9464	1461.8808	1476.6958	1477.3988	1516.3129	1581.7661	1633.366	3050.6504	3117.5576	3148.5271	3265.5902	3297.0302
CN1C=NN2C=NN=C12	Cn1cnn2cnnc12	
InChI=1S/C4H5N5/c1-8-3-6-9-2-5-7-4(8)9/h2-3H,1H3	InChI=1S/C4H5N5/c1-8-3-6-9-2-5-7-4(8)9/h2-3H,1H3
