21
gdb 86306	1.8982	1.70848	1.11096	2.4842	77.8	-0.2439	0.0582	0.3021	1178.0698	0.182002	-424.190904	-424.181799	-424.180855	-424.224801	34.438	
C	-0.8219016085	 1.2048446044	-0.1510350549	-0.417566
C	 0.0728321884	-0.0245782278	-0.1910944682	-0.027629
C	 1.4911037979	 0.0889266568	-0.8174194554	-0.292894
C	 1.9862387999	-0.9108764969	 0.2545056133	 0.097626
O	 3.2751471656	-0.7990964418	 0.7982308484	-0.427906
C	 0.7320043164	-0.5687574895	 1.1092846699	 0.233271
C	 0.8999354527	 0.3106458125	 2.3690669653	-0.129052
O	 0.2685580683	-0.6803502727	 3.2007821578	-0.272272
C	 0.0659966351	-1.5588068701	 2.0750084541	-0.146947
H	-0.3033534401	 2.0678792106	 0.2800072613	 0.113937
H	-1.1398447048	 1.4840659718	-1.1612934327	 0.119154
H	-1.7249837452	 1.0265589849	 0.4432741118	 0.122457
H	-0.4690857551	-0.8513766484	-0.6672713224	 0.077269
H	 1.6285279287	-0.1644885938	-1.870989029	 0.103264
H	 1.9127408794	 1.0863494854	-0.6382639951	 0.090344
H	 1.9115399707	-1.9418344502	-0.1086949598	 0.092991
H	 3.4333450518	 0.1255710617	 1.0151440664	 0.279582
H	 1.9387205474	 0.49238268	 2.677392976	 0.087426
H	 0.353836524	 1.2620517589	 2.3789475285	 0.098856
H	-1.0000802458	-1.7532053026	 1.8920526288	 0.095119
H	 0.5875594932	-2.5174372432	 2.200034156	 0.102968
78.8394	86.2718	192.4116	210.2999	240.0695	272.5144	298.8575	309.6712	440.0847	478.57	501.9873	534.0045	650.6064	776.1843	851.5427	867.0443	891.6692	940.2415	953.4195	988.7968	1002.3461	1044.1036	1065.2641	1080.4165	1130.631	1150.3335	1161.053	1170.1472	1178.5813	1199.0969	1240.5286	1256.8147	1259.2017	1303.7031	1309.648	1321.4746	1374.071	1388.6585	1411.1366	1438.3194	1487.78	1494.5084	1496.9582	1506.5471	1529.2585	2991.3253	3005.2215	3022.3875	3027.9888	3031.1668	3037.1648	3046.0858	3053.2473	3094.4582	3097.9829	3106.2803	3812.7537
CC1CC(O)C11COC1	C[C@H]1C[C@@H](O)C21COC2	
InChI=1S/C7H12O2/c1-5-2-6(8)7(5)3-9-4-7/h5-6,8H,2-4H2,1H3	InChI=1S/C7H12O2/c1-5-2-6(8)7(5)3-9-4-7/h5-6,8H,2-4H2,1H3/t5-,6+/m0/s1
