22
gdb 81770	2.08989	1.70701	1.30238	2.8014	81.55	-0.2311	0.0735	0.3046	1115.3098	0.192793	-404.318655	-404.309052	-404.308107	-404.352003	37.667	
C	-0.1595620932	 1.5024663008	 0.1042338391	-0.518912
C	 0.1169747633	 0.0317932242	 0.0251812759	 0.333708
N	-0.7160869084	-0.9448413176	 0.7778756595	-0.406909
C	 0.7561072679	-0.892075084	 1.0020429699	-0.158995
C	 1.3104033469	-1.78293758	-0.1134815132	 0.112633
O	 0.8589704636	-3.1080177165	-0.1252491108	-0.437898
C	 0.7013577078	-0.7560238785	-1.175458399	 0.233511
C	-0.2980661314	-1.3307327529	-2.1720203863	-0.448548
C	 1.8200565987	 0.0144383379	-1.8760420839	-0.454517
H	 0.6842330049	 2.0865336626	-0.2758431307	 0.130225
H	-1.0437034628	 1.7726857982	-0.4850418773	 0.12977
H	-0.340791384	 1.8133945435	 1.1393106834	 0.116112
H	-1.1619731606	-0.4455238974	 1.5462223714	 0.226508
H	 1.1551011663	-0.7090300027	 1.9934849684	 0.08889
H	 2.4017531801	-1.8114822061	-0.1633990987	 0.077162
H	-0.0722316087	-3.0606747079	 0.1328201666	 0.291274
H	-1.1397836105	-1.8024704148	-1.6608854341	 0.123164
H	-0.6949082501	-0.5442811919	-2.8247140706	 0.102982
H	 0.1802727676	-2.0836500087	-2.8068591775	 0.119675
H	 2.3656496774	-0.64458337	-2.5600945093	 0.11941
H	 1.4259595311	 0.8511163108	-2.4641537737	 0.111236
H	 2.5423095142	 0.420935541	-1.1585522193	 0.109518
121.9569	181.1015	202.023	205.706	240.2316	248.8676	270.3527	302.6667	343.5979	382.0362	475.7731	507.4655	546.8435	571.7389	648.5916	676.6114	761.8052	840.7235	855.895	926.216	949.3684	958.1133	981.5382	1004.4555	1015.4641	1046.5419	1089.8821	1106.8796	1137.9892	1181.5639	1195.7028	1234.596	1241.3322	1297.0316	1312.2338	1351.5478	1394.5173	1404.5332	1414.5551	1436.3152	1449.754	1479.8456	1482.7743	1492.5894	1495.6591	1503.6112	1514.1313	3019.8401	3025.4242	3031.9161	3079.7344	3085.4193	3087.18	3091.5672	3095.0361	3102.0966	3126.9012	3175.105	3478.161	3745.4225
CC12NC1C(O)C2(C)C	C[C@]12N[C@H]1[C@@H](O)C2(C)C	
InChI=1S/C7H13NO/c1-6(2)5(9)4-7(6,3)8-4/h4-5,8-9H,1-3H3	InChI=1S/C7H13NO/c1-6(2)5(9)4-7(6,3)8-4/h4-5,8-9H,1-3H3/t4-,5+,7-/m0/s1
