14
gdb 125438	4.08176	0.99108	0.86266	4.0762	67.76	-0.2996	-0.0375	0.2621	1298.4693	0.100861	-432.894383	-432.88613	-432.885186	-432.928702	28.232	
C	-0.0045190586	 1.4576974798	-0.1022199187	-0.49715
C	-0.0737327337	-0.0186389893	 0.0384877385	 0.415409
N	-1.0439275126	-0.8215730599	-0.2862249823	-0.329072
C	-0.5332962335	-2.0465160754	 0.0679708487	 0.360402
C	-1.2850939155	-3.3356134564	-0.0905255117	-0.439159
C	-1.5944387118	-3.6390486831	-1.4892148508	 0.274162
N	-1.8397541484	-3.8912597183	-2.5888098546	-0.297643
N	 0.6663474474	-2.0178870302	 0.5809847986	-0.161975
O	 0.9828151897	-0.6563505116	 0.565733137	-0.1884
H	 0.8240119005	 1.7408658389	-0.7582494832	 0.166197
H	-0.940421818	 1.8215060396	-0.5250909577	 0.170166
H	 0.1653690978	 1.9294787031	 0.8699930039	 0.163067
H	-0.6898565722	-4.1486247884	 0.3343546967	 0.184525
H	-2.225484041	-3.2790672188	 0.4692433156	 0.17947
48.0174	66.8779	95.0953	209.1565	261.2679	347.6664	378.3602	399.7748	475.334	644.3423	679.3986	725.9315	822.2768	924.1968	944.4805	952.4812	995.5947	1033.9152	1070.3401	1074.2118	1219.1122	1297.5518	1329.1305	1397.3672	1412.1989	1448.1558	1474.0316	1475.1613	1564.7901	1629.7198	2373.536	3054.5517	3055.7406	3109.9448	3116.2015	3167.1017
CC1=NC(CC#N)=NO1	Cc1nc(CC#N)no1	
InChI=1S/C5H5N3O/c1-4-7-5(2-3-6)8-9-4/h2H2,1H3	InChI=1S/C5H5N3O/c1-4-7-5(2-3-6)8-9-4/h2H2,1H3
