15
gdb 19898	3.95063	1.96347	1.6648	1.8369	65.01	-0.23	-0.0328	0.1972	792.9125	0.11818	-362.564188	-362.557379	-362.556434	-362.59595	25.39	
O	-0.4693876942	 0.3562166053	-0.8335933246	-0.243743
C	 0.0175092382	 0.9921585082	 0.0663253885	 0.110813
C	 1.1189889057	 2.0027393078	-0.0699133744	-0.102995
C	 1.5476206354	 2.8143454887	-1.2502071441	-0.110343
C	 0.4114311502	 3.6282853649	-1.9032475119	-0.023114
C	-0.9122952826	 3.5606319147	-1.2532620765	-0.251381
N	 0.1339051277	 4.3898535715	-0.6279114877	-0.137757
C	 1.1734442155	 3.5227675176	 0.0381245692	-0.034374
H	-0.2868237657	 0.8145580077	 1.1240470495	 0.078507
H	 1.9814151852	 1.6281566643	 0.489398895	 0.122258
H	 2.5192634426	 2.7128731966	-1.7151842797	 0.105289
H	 0.5711715699	 4.1659273234	-2.8317078169	 0.106808
H	-1.6924965977	 4.1738954642	-1.696842633	 0.127732
H	-1.281271973	 2.6680674322	-0.7685670933	 0.141558
H	 1.7897948228	 4.0018105428	 0.7883481699	 0.110741
41.0857	125.4943	223.122	333.2148	416.9923	585.8314	650.8279	698.7134	704.738	721.7497	795.3729	865.9595	895.0729	913.8062	946.2698	1002.108	1022.2952	1042.1666	1058.1939	1069.5971	1091.4787	1106.4783	1136.4665	1181.3689	1237.394	1275.8698	1326.3964	1349.6431	1420.8084	1435.2903	1506.9372	1816.7419	2860.6461	3076.9068	3133.7445	3168.7058	3189.452	3203.4084	3244.8827
O=CC1C2C3CN3C12	O=C[C@H]1[C@H]2[C@H]3CN3[C@@H]12	
InChI=1S/C6H7NO/c8-2-3-5-4-1-7(4)6(3)5/h2-6H,1H2	InChI=1S/C6H7NO/c8-2-3-5-4-1-7(4)6(3)5/h2-6H,1H2/t3-,4+,5-,6-,7?/m0/s1
