19
gdb 92603	2.07493	1.76357	1.54373	2.1012	70.35	-0.2501	0.0566	0.3067	1003.0288	0.158909	-460.148361	-460.139993	-460.139049	-460.180961	32.233	
C	 0.2550851132	 1.5218857233	-0.2310471374	-0.421351
C	 0.0456812911	 0.0540008531	 0.0773756984	 0.112193
O	 0.692079246	-0.8113307906	-0.8909747439	-0.313753
C	 1.3603899571	-1.5686147726	 0.1362014254	 0.093188
C	 2.8655315249	-1.3410148455	 0.1508299391	-0.111591
O	 3.0455235725	-0.0499672247	 0.7347115991	-0.249029
C	 2.0765946631	 0.067808327	 1.7653582912	-0.151984
C	 0.8135878347	-0.6371857893	 1.2434253451	 0.273045
O	 0.0403184449	-1.2575603484	 2.2376040734	-0.480361
H	 1.3204209208	 1.7564608914	-0.2965229196	 0.143338
H	-0.2098256377	 1.7688500191	-1.1905850414	 0.129147
H	-0.2081202114	 2.1509386169	 0.5377977069	 0.107859
H	-1.0247171344	-0.1855966582	 0.1453285357	 0.076615
H	 1.0515206619	-2.6177181892	 0.1600671048	 0.088635
H	 3.3585617575	-2.1173494553	 0.7584354469	 0.093316
H	 3.3068952494	-1.3271501248	-0.8482097802	 0.123169
H	 2.3962592746	-0.4505261991	 2.6844201966	 0.096691
H	 1.949751554	 1.1321811482	 1.983526728	 0.107516
H	-0.2800395922	-0.5815824011	 2.8448194518	 0.283356
100.0583	194.0987	205.7911	233.875	243.3145	290.5975	351.7228	379.0864	447.3847	496.8497	581.0992	632.0514	739.1258	806.6443	862.8522	890.2644	923.7567	938.97	997.8559	1013.3287	1063.4792	1072.7279	1100.1281	1111.8923	1135.7466	1188.2542	1191.197	1229.3941	1240.7118	1281.3841	1303.88	1327.9091	1337.7606	1359.3959	1381.0619	1405.761	1422.6948	1480.7346	1485.3322	1500.1424	1511.8333	2972.3573	2979.2918	3005.9681	3034.4529	3073.6585	3086.1755	3101.8903	3110.6204	3126.78	3801.7185
CC1OC2COCC12O	C[C@H]1O[C@H]2COC[C@@]12O	
InChI=1S/C6H10O3/c1-4-6(7)3-8-2-5(6)9-4/h4-5,7H,2-3H2,1H3	InChI=1S/C6H10O3/c1-4-6(7)3-8-2-5(6)9-4/h4-5,7H,2-3H2,1H3/t4-,5+,6-/m1/s1
