16
gdb 27635	3.22732	1.21973	0.89102	1.5803	84.3	-0.181	0.0188	0.1998	1266.8761	0.123085	-400.759626	-400.750642	-400.749697	-400.792977	33.527	
C	 0.1248684589	 1.4706676016	-0.0046496074	-0.492886
C	-0.0623046749	-0.0008965876	-0.0306906026	 0.363423
C	-1.1337707791	-0.8201001054	-0.1109910568	-0.399371
C	-0.6428904492	-2.1830635417	-0.0728012548	 0.100055
C	-1.3575494977	-3.3960348201	-0.1082065251	 0.183416
C	-1.9501290613	-4.4471651949	-0.128707001	-0.434559
C	 0.723841333	-2.0619845864	 0.0186022813	 0.271348
N	 1.7339485877	-2.996248717	 0.0116956869	-0.607104
O	 1.0940642642	-0.767479444	 0.0459368309	-0.20708
H	 0.7414939654	 1.8180188541	-0.8421602307	 0.136197
H	-0.8477240945	 1.9634346043	-0.0713391853	 0.137299
H	 0.6125126334	 1.8034108567	 0.9195802821	 0.13376
H	-2.1673161023	-0.5203202258	-0.1809847803	 0.111863
H	-2.479595143	-5.3663166714	-0.1596838051	 0.178338
H	 1.4006328701	-3.9281654176	 0.2179260761	 0.266292
H	 2.5377877095	-2.7424433247	 0.5703899716	 0.259008
119.8599	123.8907	145.0938	212.7658	246.5775	280.6725	300.9002	396.9712	445.3735	504.2505	511.7978	578.2862	616.3387	637.6711	661.5129	667.3403	729.7067	804.1146	812.8001	950.6735	1012.4394	1065.508	1083.1003	1161.6156	1189.1267	1263.6748	1320.5771	1417.9625	1459.1114	1469.7621	1495.3252	1602.4294	1662.081	1669.3428	2218.8629	3023.4645	3070.2276	3127.2147	3262.9586	3504.6311	3548.7823	3653.1455
CC1=CC(C#C)=C(N)O1	Cc1cc(C#C)c(N)o1	
InChI=1S/C7H7NO/c1-3-6-4-5(2)9-7(6)8/h1,4H,8H2,2H3	InChI=1S/C7H7NO/c1-3-6-4-5(2)9-7(6)8/h1,4H,8H2,2H3
