16
gdb 45044	2.58345	1.89262	1.29291	3.4102	69.86	-0.2532	0.0001	0.2534	969.6189	0.12494	-437.859214	-437.852086	-437.851142	-437.890834	28.076	
N	-0.0821318262	 1.2243010697	-0.4355841417	-0.534763
C	-0.0193398497	 0.0374100883	-0.0189931723	 0.339143
O	 1.1203118555	-0.6049206325	 0.3902499981	-0.243091
C	 0.8160825459	-1.9010629379	 0.8817525412	 0.083639
C	 0.0004461546	-1.9530752797	 2.1366883036	-0.331398
C	-0.6644332733	-2.1370501765	 0.7799590812	-0.168176
C	-1.1940527152	-0.9034179469	 0.1165451908	 0.369345
C	-2.5771169039	-0.4163264298	 0.130318235	-0.235354
O	-2.0333310474	-1.0573003653	-1.0265827255	-0.270472
H	 0.8403330089	 1.6606481396	-0.4514519631	 0.229655
H	 1.5833769273	-2.625451986	 0.6428964827	 0.120162
H	 0.0896619223	-2.836422315	 2.7591568561	 0.128631
H	-0.1579275173	-1.0253211448	 2.6772385916	 0.133897
H	-1.0915375637	-3.0916416416	 0.5024271163	 0.118479
H	-3.3326905393	-0.9854524963	 0.6700605526	 0.116853
H	-2.7508276586	 0.6523885147	 0.0266753633	 0.14345
90.0972	186.2025	269.2459	278.4	381.4114	453.7821	480.3481	550.1527	690.6098	704.2641	720.3748	803.2928	817.4174	862.9772	892.6037	907.7268	952.0632	992.6531	1004.1639	1024.2391	1047.051	1065.8842	1095.8579	1131.5812	1145.8964	1166.2618	1185.573	1208.8496	1299.4177	1305.452	1383.349	1439.0003	1473.0131	1518.1355	1782.9107	3088.947	3132.5042	3189.836	3200.801	3206.9023	3225.7855	3487.4369
N=C1OC2CC2C11CO1	[NH][C]1O[C@H]2C[C@H]2[C@]21CO2	
InChI=1S/C6H7NO2/c7-5-6(2-8-6)3-1-4(3)9-5/h3-4,7H,1-2H2	InChI=1S/C6H7NO2/c7-5-6(2-8-6)3-1-4(3)9-5/h3-4,7H,1-2H2/t3-,4+,6+/m1/s1
