15
gdb 10417	2.72916	1.97495	1.42994	2.6422	61.48	-0.2732	0.0039	0.2772	897.2008	0.117483	-399.768652	-399.760525	-399.759581	-399.801726	28.079	
C	 0.0072740475	 1.4345581826	-0.0119374138	-0.269145
O	-0.0052924664	 0.0197897028	 0.1337680477	-0.268954
C	-1.2655224503	-0.5763613973	 0.0250186096	 0.209303
C	-1.8598747492	-0.7095448322	-1.4124949966	-0.113012
O	-1.7359730898	-2.1399140116	-1.3730300829	-0.26111
C	-1.1505287205	-2.117963735	-0.0604387335	-0.110049
C	-2.2064971942	-0.0697584527	 1.0365294561	 0.24339
N	-2.9427665139	 0.3400376736	 1.8276161986	-0.338954
H	 1.050630125	 1.7413413868	 0.073305762	 0.144929
H	-0.3776720554	 1.7432475917	-0.9935133794	 0.118729
H	-0.5818956836	 1.924614101	 0.7731184972	 0.142748
H	-2.8969414443	-0.3836282612	-1.5415506238	 0.126194
H	-1.2206155095	-0.252467371	-2.1770329006	 0.117867
H	-0.1049817945	-2.4436854786	-0.0527985316	 0.12919
H	-1.7350320111	-2.6863889388	 0.6691410209	 0.128874
62.1204	115.7671	165.2313	191.0732	193.1549	270.6923	390.0051	432.6542	529.7234	574.6492	644.0562	830.6626	879.0156	955.0424	982.1156	1052.537	1062.8701	1072.766	1152.5837	1162.5466	1183.653	1199.3888	1218.1595	1256.8373	1306.1386	1373.505	1480.1808	1489.8107	1494.8404	1506.8529	1519.9349	2350.9435	3004.9167	3026.2004	3042.4309	3068.4561	3086.744	3100.153	3140.776
COC1(COC1)C#N	COC1(COC1)C#N	
InChI=1S/C5H7NO2/c1-7-5(2-6)3-8-4-5/h3-4H2,1H3	InChI=1S/C5H7NO2/c1-7-5(2-6)3-8-4-5/h3-4H2,1H3
