19
gdb 92429	2.53846	1.58061	1.45154	2.6983	74.2	-0.2275	-0.0203	0.2072	1015.6898	0.161032	-423.046604	-423.038897	-423.037952	-423.07876	30.232	
C	-0.2198261029	 1.5341074324	-0.0082424542	-0.422657
C	 0.0456555643	 0.0301634533	 0.0189548814	 0.029879
C	 0.7808772676	-0.5210884339	-1.2634550603	-0.250039
C	 1.9315154819	-1.3531412972	-0.6726839412	 0.000204
O	 2.9130896505	-0.4543294757	-0.1389336123	-0.28831
C	 2.3540866545	 0.1267037587	 1.0694854228	-0.084033
C	 0.9504933833	-0.4842790967	 1.1806980352	-0.172301
C	 1.2739179557	-1.8756853306	 0.6147280489	 0.424882
O	 1.0560888461	-2.9796248484	 1.0219554441	-0.323464
H	 0.700599312	 2.1108483198	-0.1424497692	 0.126373
H	-0.8839856886	 1.7840523998	-0.8424083012	 0.12244
H	-0.7017440145	 1.873463581	 0.9147384096	 0.117591
H	-0.9188328235	-0.4810502053	 0.1169009463	 0.089122
H	 0.1142773015	-1.1230835393	-1.8880400776	 0.110847
H	 1.1915328886	 0.2864058564	-1.8765988742	 0.114621
H	 2.4186667444	-2.0767209814	-1.3228883032	 0.095434
H	 2.9815615405	-0.1477070172	 1.9267315081	 0.112759
H	 2.3585860335	 1.2175573237	 0.9767845745	 0.108285
H	 0.506397235	-0.4594028996	 2.1739945725	 0.088367
93.8371	142.905	228.2728	283.0336	290.1391	381.0166	434.1304	495.7469	539.4593	638.2601	696.0742	756.4632	806.001	852.1013	860.8564	901.3371	941.2756	964.4223	973.7244	1018.7552	1036.2144	1069.7893	1089.5949	1112.9243	1150.7254	1174.5182	1204.1034	1212.2752	1234.4966	1265.8322	1301.4475	1313.9767	1342.188	1372.0885	1384.0477	1415.4151	1475.3557	1495.3913	1498.3958	1538.2509	1893.4633	3022.1966	3032.411	3033.5731	3053.4624	3065.919	3098.8137	3102.5149	3108.0836	3140.9922	3148.6918
CC1CC2OCC1C2=O	C[C@H]1C[C@H]2OC[C@@H]1C2=O	
InChI=1S/C7H10O2/c1-4-2-6-7(8)5(4)3-9-6/h4-6H,2-3H2,1H3	InChI=1S/C7H10O2/c1-4-2-6-7(8)5(4)3-9-6/h4-6H,2-3H2,1H3/t4-,5-,6+/m0/s1
