19
gdb 121557	6.66585	0.42389	0.41869	2.7841	84.23	-0.2485	-0.0295	0.2189	2587.6162	0.154874	-422.995916	-422.984927	-422.983983	-423.035091	36.125	
C	-0.2652852473	 1.4790513398	-0.6173395115	-0.386847
C	-0.1101113416	 0.0346742097	-0.1749404773	-0.018018
O	-1.4006078042	-0.520417551	-0.0006049617	-0.241169
C	-1.3549891817	-1.8705046577	 0.4136039332	-0.205344
C	-2.7056053361	-2.3922331365	 0.5768869707	 0.012614
C	-3.8140762927	-2.8339113728	 0.7329616255	 0.120392
C	-5.1503566351	-3.3934244601	 0.8650731292	-0.417244
C	-5.5302052522	-4.2874785552	-0.3181411201	 0.170098
O	-6.1714569807	-5.2964523593	-0.2100551127	-0.22977
H	 0.7162697474	 1.9398526196	-0.7626066652	 0.116373
H	-0.8185946762	 1.5339318563	-1.5589374257	 0.129774
H	-0.8118438302	 2.0537243494	 0.1355109295	 0.129988
H	 0.4538365443	-0.5440527854	-0.9265227165	 0.087436
H	 0.4592557622	-0.0242499238	 0.7685167077	 0.087534
H	-0.8068660915	-2.482970255	-0.323986338	 0.115863
H	-0.8043498868	-1.9651092541	 1.3661622851	 0.116979
H	-5.2741634302	-3.9714752285	 1.7866768191	 0.155334
H	-5.8925913581	-2.5807633352	 0.8969185835	 0.160104
H	-5.1723009094	-3.9161553402	-1.3027808948	 0.095902
17.2559	47.0865	67.5339	81.2046	108.7817	130.1509	227.8514	242.2132	284.1246	332.7222	395.024	460.811	493.7315	540.6277	724.773	822.4774	833.7757	908.9073	1024.3237	1032.4739	1036.1202	1042.9808	1131.3363	1147.7365	1177.5338	1188.4271	1212.4595	1255.0894	1291.8159	1294.5945	1378.7206	1405.6788	1414.371	1437.7938	1448.565	1483.0165	1496.1832	1501.2485	1531.591	1841.4074	2374.7239	2903.0039	2942.8464	2955.1587	2961.1108	2976.9637	3003.5088	3046.5113	3080.1477	3120.9609	3124.3512
CCOCC#CCC=O	CCOCC#CCC=O	
InChI=1S/C7H10O2/c1-2-9-7-5-3-4-6-8/h6H,2,4,7H2,1H3	InChI=1S/C7H10O2/c1-2-9-7-5-3-4-6-8/h6H,2,4,7H2,1H3
