19
gdb 74712	2.21042	1.70609	1.44149	2.5638	81.69	-0.2322	0.0086	0.2409	1039.274	0.158264	-385.895399	-385.886815	-385.885871	-385.928217	32.932	
C	-0.066963819	 1.4304998755	 0.0387849164	-0.516868
C	 0.0614586381	-0.0540798184	 0.0173613883	 0.294844
C	 0.0416962376	-0.9167013646	-1.0186542104	-0.193693
C	 0.0436659364	-2.2945021603	-0.3780827561	-0.18478
C	 1.0645944715	-2.0813802304	 0.7800592618	-0.254118
C	 0.0815968701	-0.9587893293	 1.2565774953	 0.117707
C	 0.0847302537	-0.3763971101	 2.6480517166	-0.511477
C	-1.0309569056	-1.9639354454	 0.731460893	 0.398691
O	-2.1144814624	-2.3179431196	 1.0619777612	-0.313193
H	 0.7698567708	 1.9057160842	 0.5652121536	 0.128762
H	-0.103299416	 1.8339548236	-0.9770907878	 0.128788
H	-0.9815578029	 1.7449712288	 0.5576361919	 0.136143
H	-0.0929593858	-0.7048498672	-2.0705394955	 0.103918
H	 0.0174716028	-3.1857260788	-0.9998842019	 0.081425
H	 1.1271848606	-2.9248927119	 1.4764223931	 0.103478
H	 2.0559498887	-1.7373143891	 0.4726284828	 0.101255
H	 1.0021527178	 0.1898135951	 2.8428185431	 0.121765
H	-0.7634359276	 0.2995231828	 2.7965859121	 0.130306
H	 0.0112223213	-1.1664250551	 3.4014713825	 0.127047
107.8575	151.6821	178.5809	206.3197	235.0165	243.3198	360.2238	440.9427	481.6703	561.3113	576.5871	635.7231	694.5889	751.1003	791.328	818.2605	838.4584	875.5412	953.4195	956.2846	1005.763	1014.2434	1054.7451	1060.3059	1096.2476	1149.7198	1160.4492	1184.3653	1231.5555	1250.3225	1280.142	1342.9581	1409.9113	1418.8811	1475.2448	1479.6791	1483.4373	1494.0427	1494.9348	1653.1317	1905.5562	3018.0627	3033.7801	3040.8416	3064.671	3098.2819	3106.8369	3109.0924	3114.5055	3156.002	3223.9673
CC1=CC2CC1(C)C2=O	CC1=C[C@H]2C[C@]1(C)C2=O	
InChI=1S/C8H10O/c1-5-3-6-4-8(5,2)7(6)9/h3,6H,4H2,1-2H3	InChI=1S/C8H10O/c1-5-3-6-4-8(5,2)7(6)9/h3,6H,4H2,1-2H3/t6-,8-/m0/s1
