17
gdb 105164	2.72424	1.13403	0.97202	2.7606	77.42	-0.2588	-0.04	0.2188	1244.0842	0.133388	-421.786762	-421.777515	-421.776571	-421.82084	34.038	
O	 0.098917214	 1.3827406352	-0.2994740217	-0.423818
C	 0.0627367752	 0.0407530789	 0.1395407988	-0.147302
C	-1.34592449	-0.5307092862	 0.099567304	 0.199435
C	-1.8971789307	-1.125655587	-1.1818618922	-0.316828
C	-1.5749696919	-2.0515362549	-0.0426133622	-0.261886
C	-0.4518333981	-2.9403874369	-0.0926928402	 0.320863
C	 0.4784878567	-3.7016454107	-0.1249372578	-0.424935
C	-2.3298216148	 0.1682837271	 0.959807049	 0.123811
O	-2.0873413541	 1.1756896202	 1.5852335511	-0.281228
H	-0.412419402	 1.8838833597	 0.3482183908	 0.29715
H	 0.7153967389	-0.5346697213	-0.5214739858	 0.118058
H	 0.4570329713	-0.0618086351	 1.1613723543	 0.104895
H	-2.9436322892	-0.9668685031	-1.4197400968	 0.130766
H	-1.2273542143	-1.1154995195	-2.0333681341	 0.149769
H	-2.4296733595	-2.4369012044	 0.5083945696	 0.124708
H	 1.3027548431	-4.3708481629	-0.1549138847	 0.204557
H	-3.3437788744	-0.2925582492	 0.9932985081	 0.081985
85.3442	110.6555	121.7978	186.2148	219.4429	280.0003	315.3892	345.3622	411.6934	506.4014	523.9197	542.769	599.8964	624.8528	662.3494	764.9981	832.4337	860.9164	938.2435	946.3065	995.0243	1049.7961	1070.1901	1082.5048	1089.3715	1138.4314	1196.2845	1288.4261	1328.9103	1386.8065	1396.782	1433.0139	1444.4756	1479.4949	1501.2417	1795.4901	2239.5394	2869.309	2999.1025	3101.0648	3132.3357	3140.5545	3234.6859	3500.8074	3778.079
OCC1(CC1C#C)C=O	OC[C@]1(C[C@H]1C#C)C=O	
InChI=1S/C7H8O2/c1-2-6-3-7(6,4-8)5-9/h1,4,6,9H,3,5H2	InChI=1S/C7H8O2/c1-2-6-3-7(6,4-8)5-9/h1,4,6,9H,3,5H2/t6-,7+/m1/s1
