19
gdb 81197	3.03717	1.38547	1.27459	2.7868	81.46	-0.2408	-0.0221	0.2187	1078.755	0.158838	-385.792473	-385.784767	-385.783823	-385.824413	30.972	
C	-0.0924138328	 1.5831218978	 0.1196098877	-0.451289
C	 0.0861490284	 0.0779623601	 0.0006399972	 0.037829
C	 1.2220341798	-0.5669344397	-0.8372009221	-0.095376
C	 2.2391088049	-0.1683237663	 0.3183427947	-0.327435
C	 0.9629170491	-0.7338812739	 1.0240450433	 0.268254
C	 0.2320807361	-1.5861565614	 2.0782968295	-0.439392
C	-0.2303830022	-2.4511567824	 0.8271564733	 0.341317
O	-1.1059283126	-3.2390726167	 0.656607087	-0.280761
C	 0.973428522	-1.875652139	-0.0066726733	-0.127858
H	 0.8408829852	 2.1220122856	 0.3005676017	 0.119636
H	-0.5342889896	 1.9867044027	-0.7980759022	 0.12194
H	-0.7767210934	 1.8222094671	 0.9412984553	 0.121221
H	-0.8893070917	-0.3870413752	-0.1889573511	 0.082435
H	 1.4011118874	-0.467938738	-1.9108433033	 0.076693
H	 3.1400097884	-0.7819555083	 0.3944515308	 0.102373
H	 2.4796866904	 0.8898580544	 0.4296749281	 0.102795
H	 0.895430458	-2.1866144372	 2.7104221948	 0.132088
H	-0.546701998	-1.1319209368	 2.6959983317	 0.124471
H	 1.8200789505	-2.5697664828	 0.0554763171	 0.091058
107.5319	175.5418	207.604	274.3096	328.3669	398.0581	468.3938	488.0853	558.2019	606.8934	660.8902	736.738	770.416	801.7607	834.3315	871.7755	885.238	962.3427	976.7295	1004.9825	1013.2642	1034.2196	1061.8338	1090.8597	1100.8687	1125.5958	1140.2302	1176.3545	1191.5013	1200.7287	1211.6297	1232.9014	1255.5606	1307.3705	1411.0135	1432.1415	1448.4283	1495.2272	1498.3782	1528.2806	1892.2366	3025.5668	3035.1618	3038.8419	3051.4306	3066.6947	3081.1887	3090.8873	3113.4251	3115.7159	3135.9152
CC1C2CC11CC(=O)C21	C[C@H]1[C@H]2C[C@]31CC(=O)[C@@H]23	
InChI=1S/C8H10O/c1-4-5-2-8(4)3-6(9)7(5)8/h4-5,7H,2-3H2,1H3	InChI=1S/C8H10O/c1-4-5-2-8(4)3-6(9)7(5)8/h4-5,7H,2-3H2,1H3/t4-,5+,7+,8+/m0/s1
