16
gdb 123359	6.75079	0.77686	0.73839	0.1701	77.68	-0.2594	-0.0079	0.2515	1490.8106	0.125378	-396.901199	-396.892931	-396.891986	-396.935563	29.433	
C	-0.0026290501	-1.1878977384	-0.004069838	-0.434619
C	-0.0278589065	 0.0134107379	 0.0027764762	 0.290168
C	-0.0125374595	 1.4690607959	 0.010509533	-0.348261
C	 1.4288256532	 2.0214977413	-0.0010494595	-0.136983
N	 1.4442982525	 3.4722606869	 0.0065800254	 0.14883
N	 1.3906898314	 4.1839554118	-1.1147183145	-0.231412
C	 1.3386531319	 5.4453483443	-0.682225993	-0.059515
C	 1.3553902547	 5.4378336079	 0.7188430494	-0.059545
N	 1.417603965	 4.17188289	 1.1364168346	-0.231359
H	 0.0020904477	-2.2497427941	-0.0099820844	 0.201378
H	-0.5463729245	 1.860475196	-0.8632404808	 0.152386
H	-0.5286109622	 1.8509365392	 0.8990277793	 0.152313
H	 1.9732523844	 1.6839006491	 0.8814978646	 0.151327
H	 1.9553342795	 1.6931707877	-0.8978641742	 0.151279
H	 1.3007074694	 6.2695885676	-1.3762153698	 0.127005
H	 1.3341334432	 6.2545738268	 1.4223450517	 0.127007
42.5037	64.5219	89.1136	172.6523	335.8347	358.5178	386.0205	470.5569	627.0326	656.7669	681.1189	697.5618	777.1948	784.8165	848.8856	897.8976	973.8704	981.1834	997.7045	1026.7156	1038.4438	1099.719	1153.374	1226.7702	1293.8932	1296.8953	1306.2734	1383.4347	1392.1795	1402.231	1445.6369	1470.2646	1482.3198	1506.261	2242.484	3037.9591	3076.2781	3097.949	3158.7055	3264.7624	3282.1385	3506.1779
C#CCCN1N=CC=N1	C#CCCn1nccn1	
InChI=1S/C6H7N3/c1-2-3-6-9-7-4-5-8-9/h1,4-5H,3,6H2	InChI=1S/C6H7N3/c1-2-3-6-9-7-4-5-8-9/h1,4-5H,3,6H2
