22
gdb 93280	2.18328	1.6638	1.21879	2.5585	82.09	-0.2141	-0.0155	0.1987	1139.4065	0.192648	-404.377416	-404.36766	-404.366716	-404.411386	37.073	
C	-0.308316282	 1.3768085425	-0.075317239	-0.330154
N	 0.0936900581	-0.012168526	-0.0145576805	-0.079763
C	 0.8724955684	-0.4678506342	-1.1639349183	-0.167254
C	 1.2845226128	-1.8875414076	-0.7722724887	-0.33619
C	 1.3610007382	-1.8222560262	 0.7507460134	 0.405098
O	 1.8324607695	-2.6533616342	 1.4823381288	-0.331931
C	 0.7478007182	-0.4856338351	 1.2169809897	 0.16118
C	 1.9145425235	 0.4016491751	 1.7189562663	-0.430133
C	-0.2614096667	-0.7264056529	 2.3436606316	-0.419338
H	 0.5369073514	 2.086884216	-0.1273786479	 0.096401
H	-0.9260752785	 1.5347208375	-0.9663835475	 0.118948
H	-0.9153247778	 1.6348070814	 0.7974514316	 0.121774
H	 0.2582086415	-0.4277937446	-2.0694538272	 0.105379
H	 1.7669717865	 0.1571105536	-1.3520185767	 0.082321
H	 0.5089332444	-2.6151277376	-1.0374683007	 0.139563
H	 2.2270681328	-2.2334517015	-1.2012510249	 0.129454
H	 2.6435376408	 0.6069294192	 0.9280442117	 0.116229
H	 1.5400940449	 1.3595919411	 2.0919786683	 0.117621
H	 2.4366487771	-0.1054942127	 2.534581115	 0.137759
H	 0.2177198121	-1.2862833648	 3.1513586741	 0.13481
H	-0.6327065912	 0.2183285285	 2.7537412818	 0.109895
H	-1.115127264	-1.3003092374	 1.9740279991	 0.118331
66.7409	167.9533	194.6789	223.5015	230.2492	250.4426	256.2899	290.3096	295.2243	365.7615	451.6127	526.0001	539.9779	550.4077	656.8498	674.7045	792.457	841.0889	897.8391	937.1165	981.7405	993.778	1032.1328	1057.6106	1095.2461	1136.9753	1153.225	1164.2155	1209.1316	1210.5019	1230.6072	1279.9412	1289.5837	1309.1098	1381.3201	1385.3582	1406.4922	1447.0592	1456.8195	1480.4209	1481.2927	1488.3388	1499.4361	1506.8915	1512.338	1529.8454	1848.5791	2910.9728	2941.3216	3036.1608	3040.8107	3050.8863	3055.3699	3063.4218	3102.1134	3104.7687	3110.4583	3119.027	3121.1547	3128.823
CN1CCC(=O)C1(C)C	CN1CCC(=O)C1(C)C	
InChI=1S/C7H13NO/c1-7(2)6(9)4-5-8(7)3/h4-5H2,1-3H3	InChI=1S/C7H13NO/c1-7(2)6(9)4-5-8(7)3/h4-5H2,1-3H3
