18
gdb 95923	2.2458	1.55378	1.29262	3.7602	71.4	-0.2644	0.008	0.2724	1068.0711	0.146852	-439.099306	-439.090147	-439.089203	-439.13337	33.484	
C	 0.6278408684	 1.4093371109	-0.3670881087	-0.412945
C	-0.0787976037	 0.1648874272	 0.1668006067	 0.090854
O	-0.1573722966	-0.8831262289	-0.7833983708	-0.263052
C	 1.0349164502	-1.6712348324	-0.7317742239	-0.072955
C	 1.6959369083	-1.3986528306	 0.6362613812	-0.314918
C	 0.6682480792	-0.4911954676	 1.3654677795	 0.242371
O	 1.2398507915	 0.5054878205	 2.1875729501	-0.460825
C	-0.2737465617	-1.3135457729	 2.1523325669	 0.250345
N	-0.9786883484	-1.9581854815	 2.8031752718	-0.337447
H	 1.666517583	 1.2045959467	-0.6429155605	 0.11792
H	 0.0987243791	 1.7577552144	-1.2578614307	 0.129025
H	 0.6264751225	 2.2037985747	 0.3822191358	 0.139714
H	-1.1073957121	 0.415601329	 0.4408707632	 0.110838
H	 0.7385647096	-2.7163655937	-0.855726535	 0.123958
H	 1.7084169274	-1.4084842675	-1.5575845643	 0.106799
H	 1.9135836591	-2.3127833657	 1.1909674502	 0.127255
H	 2.6214908849	-0.8263052076	 0.5396723332	 0.126105
H	 1.6225010289	 0.084838485	 2.9653302853	 0.296959
57.747	112.3368	145.9148	199.4662	223.1929	275.5558	282.0567	366.9239	380.2972	462.4994	512.6054	564.9744	653.1124	710.7385	742.9562	820.9184	877.9887	920.4003	971.225	994.7419	1027.9788	1088.4197	1106.6174	1133.6373	1151.045	1176.2227	1239.5759	1240.4094	1288.7291	1317.3606	1364.7633	1387.3016	1400.0515	1403.5722	1486.3974	1487.9445	1497.5112	1530.7291	2350.0623	3019.1113	3050.1549	3073.3623	3076.7867	3083.7184	3122.3918	3130.4351	3138.4486	3812.0499
CC1OCCC1(O)C#N	C[C@H]1OCC[C@]1(O)C#N	
InChI=1S/C6H9NO2/c1-5-6(8,4-7)2-3-9-5/h5,8H,2-3H2,1H3	InChI=1S/C6H9NO2/c1-5-6(8,4-7)2-3-9-5/h5,8H,2-3H2,1H3/t5-,6+/m1/s1
