16
gdb 18675	3.11433	2.2518	1.54069	3.1272	64.29	-0.2445	-0.0269	0.2176	831.0393	0.132069	-383.75525	-383.74855	-383.747606	-383.786183	25.757	
O	 0.0733838166	-0.011357965	-0.3129218683	-0.316547
C	 0.0102300852	 1.1734292055	-0.0770955789	 0.401161
C	-1.2857399475	 1.946835444	 0.080281844	-0.312514
C	-1.3017366292	 3.1091381633	-0.9358158016	-0.217243
C	-0.1529428502	 4.1102911781	-0.7140982864	-0.225579
C	 1.1594255134	 3.4620220576	-0.3064461186	 0.048499
O	 1.2369373716	 3.0170540508	 1.0426182858	-0.241138
C	 1.2529607709	 2.014173086	 0.0150265954	-0.062066
H	-2.1189222018	 1.2597957731	-0.0810775597	 0.121006
H	-1.34466543	 2.3424237259	 1.1007629757	 0.133079
H	-1.2246881373	 2.6870447121	-1.9452465348	 0.115327
H	-2.2634717969	 3.6295021071	-0.8910088986	 0.109917
H	 0.0059395054	 4.6985486374	-1.6240578356	 0.109139
H	-0.4168016113	 4.8234621723	 0.0764040024	 0.123627
H	 2.0712937311	 3.9451022934	-0.6587061786	 0.105438
H	 2.1908679999	 1.4768956483	-0.109713972	 0.107894
98.6227	192.1864	250.5196	367.6114	416.8151	461.2642	500.2968	575.1437	722.0665	752.499	781.7246	849.1475	872.2912	902.1249	963.848	983.6207	1023.144	1073.9661	1082.1901	1141.266	1156.6143	1207.9072	1258.6861	1264.0736	1283.8323	1343.115	1357.3432	1369.0879	1380.2214	1434.7112	1464.244	1478.1166	1500.7654	1813.6411	3032.8036	3034.5378	3049.1115	3073.8402	3085.8428	3108.0643	3119.5582	3145.0824
O=C1CCCC2OC12	O=C1CCC[C@H]2O[C@@H]12	
InChI=1S/C6H8O2/c7-4-2-1-3-5-6(4)8-5/h5-6H,1-3H2	InChI=1S/C6H8O2/c7-4-2-1-3-5-6(4)8-5/h5-6H,1-3H2/t5-,6+/m1/s1
