18
gdb 76263	2.453	1.5425	1.05278	5.8009	76.96	-0.2273	-0.0183	0.209	1136.482	0.147977	-439.134023	-439.1251	-439.124156	-439.167288	33.997	
C	 0.1825919831	 1.6038677628	 0.041769228	-0.380011
C	 0.0142962972	 0.0756585336	 0.0230652307	-0.138662
C	 0.7083889305	-0.5925310871	-1.1874411053	 0.039163
O	 0.9339527752	 0.2458997628	-2.2893889549	-0.440029
C	 2.0343429967	-1.1197550769	-0.6089260619	 0.359864
O	 2.9988982068	-1.334434094	-1.3237205105	-0.391279
C	 1.8704284717	-1.2311324588	 0.8219206718	-0.342051
C	 0.7255570379	-0.5890077288	 1.1924017034	 0.40449
N	 0.1984960922	-0.4868560726	 2.4334638115	-0.577065
H	 1.2407709623	 1.877870008	 0.0341086914	 0.13208
H	-0.2818021646	 2.0399832151	-0.8443499613	 0.14487
H	-0.2810895705	 2.0444512419	 0.9307948996	 0.095462
H	-1.0559297268	-0.1629016624	 0.0567868979	 0.083814
H	 0.114566857	-1.472218653	-1.4890619092	 0.088673
H	 1.815636098	-0.0081066911	-2.6067927449	 0.290647
H	 2.5869074117	-1.6972082345	 1.4856866769	 0.095659
H	 0.7198076664	-0.8014857588	 3.2347222181	 0.267616
H	-0.5440539349	 0.1676879639	 2.6099371685	 0.266759
76.1603	164.3809	210.859	248.0889	262.8933	273.2846	283.7174	340.4801	466.3182	481.6266	509.6149	532.7155	603.8463	642.5059	673.0031	742.121	797.354	837.5916	879.9985	908.9983	1048.3874	1066.2778	1075.0065	1108.8038	1164.8069	1213.3648	1221.2159	1279.852	1310.4872	1345.2639	1371.228	1393.404	1409.3682	1432.6622	1488.8695	1495.0323	1624.6896	1672.9961	1786.0062	2953.8541	3029.4823	3041.8847	3112.9955	3141.0958	3214.9177	3607.2882	3686.4012	3723.2911
CC1C(O)C(=O)C=C1N	C[C@H]1[C@@H](O)C(=O)C=C1N	
InChI=1S/C6H9NO2/c1-3-4(7)2-5(8)6(3)9/h2-3,6,9H,7H2,1H3	InChI=1S/C6H9NO2/c1-3-4(7)2-5(8)6(3)9/h2-3,6,9H,7H2,1H3/t3-,6-/m1/s1
