20
gdb 50587	3.54476	1.21631	1.02107	3.8548	80.01	-0.2369	0.0337	0.2706	1197.0718	0.174097	-403.174377	-403.166493	-403.165549	-403.207135	30.722	
O	-0.0707490744	-0.0549784582	 0.0234691274	-0.346215
C	-0.0038860482	 1.1574421688	 0.0223941987	 0.14701
N	 1.1362230138	 1.8880455277	-0.1129172023	-0.029789
C	 2.4322173617	 1.2322744478	-0.1953894459	-0.197854
C	 3.2469782609	 1.513256477	 1.0748150553	-0.217521
C	 3.2622162127	 2.9878617744	 1.4443144783	-0.00644
C	 3.6274175189	 4.0468515638	 0.4375013794	-0.289884
C	 2.191637244	 3.9040422477	 0.8868275914	-0.030884
C	 1.1417791588	 3.3414400566	-0.0752594391	-0.2
H	-0.8950386263	 1.807907542	 0.1310728941	 0.067925
H	 2.2480728678	 0.1641442837	-0.3152571978	 0.14865
H	 2.9597532285	 1.5905917499	-1.0899223824	 0.105152
H	 2.7971705414	 0.9461672104	 1.8981400531	 0.116591
H	 4.2694977991	 1.1373176738	 0.948480935	 0.102333
H	 3.5680820617	 3.185558145	 2.4675800954	 0.088013
H	 4.1917792018	 4.9088206472	 0.7756917156	 0.112159
H	 3.8678796698	 3.7344311484	-0.5750212069	 0.110701
H	 1.8170521233	 4.6775289013	 1.5488867348	 0.092322
H	 1.3124513986	 3.7380836305	-1.0874610218	 0.109988
H	 0.1439806563	 3.6705354923	 0.2297549477	 0.117744
53.6683	136.5804	254.6645	296.5163	311.2362	351.2067	372.5893	457.2444	513.5329	607.6437	704.9864	758.3974	801.0975	819.4695	861.5583	910.1385	951.7677	964.5393	978.155	1027.552	1057.8872	1062.4122	1084.4456	1120.8334	1129.5578	1140.9388	1198.3639	1228.6915	1250.8091	1259.642	1302.1919	1356.1648	1364.4353	1381.9621	1396.7228	1418.4978	1436.4361	1461.5805	1485.9774	1488.2807	1496.8523	1504.7438	1789.9993	2927.6706	2984.7586	3013.8978	3029.1975	3068.6772	3077.7256	3123.7224	3133.513	3143.0135	3159.2831	3208.4543
O=CN1CCC2CC2C1	O=CN1CC[C@H]2C[C@H]2C1	
InChI=1S/C7H11NO/c9-5-8-2-1-6-3-7(6)4-8/h5-7H,1-4H2	InChI=1S/C7H11NO/c9-5-8-2-1-6-3-7(6)4-8/h5-7H,1-4H2/t6-,7-/m0/s1
