21
gdb 104152	2.72019	1.19315	1.0558	1.4311	80.14	-0.2204	0.0603	0.2807	1268.7309	0.182736	-420.445468	-420.435813	-420.434869	-420.48053	36.333	
C	 0.0655291284	 1.5345179175	 0.0084234287	-0.389511
C	-0.0772641084	 0.0133745926	 0.1023873427	-0.195997
C	-1.5236646318	-0.5149294864	-0.027423686	 0.284726
C	-2.140508285	-0.1603467599	-1.3872144692	-0.422952
C	-1.563005764	-2.0585522517	 0.2275796697	-0.151156
O	-2.3435403756	-2.2155990855	 1.4289351723	-0.25538
C	-2.7252512545	-0.9555958635	 1.7750348011	 0.461844
N	-3.4485001634	-0.9044763167	 2.9368991446	-0.579219
N	-2.3615833273	 0.0311586732	 1.0567217504	-0.373641
H	 1.0962511712	 1.8377099246	 0.217402894	 0.10521
H	-0.189446702	 1.9081739404	-0.9880194568	 0.111413
H	-0.5916839521	 2.0233479591	 0.7320783215	 0.138934
H	 0.5409479661	-0.4706451969	-0.6665275137	 0.085179
H	 0.3110991	-0.3241782068	 1.0714268383	 0.094207
H	-1.5278055965	-0.5442336782	-2.2112715821	 0.104543
H	-3.1428831589	-0.5908271703	-1.4734114433	 0.109338
H	-2.2339570871	 0.9219687516	-1.5001380507	 0.128092
H	-2.0554108974	-2.6139817922	-0.5769225187	 0.106689
H	-0.5735556323	-2.4910137314	 0.4041800717	 0.110317
H	-3.9752747106	-1.7371172158	 3.1511248467	 0.260981
H	-3.9507816788	-0.0404078037	 3.0670008287	 0.266382
23.1298	111.9479	163.0412	217.85	233.4141	261.4944	319.7869	343.0477	361.2299	404.3616	464.0493	494.9465	556.6319	612.4658	707.6866	740.0444	786.7131	821.0525	894.0811	918.5985	947.3854	976.7842	1010.3245	1032.3869	1053.7737	1073.6398	1154.9772	1181.2871	1204.1982	1218.6611	1259.7801	1319.6565	1349.1026	1370.1604	1401.0874	1405.8503	1432.0247	1475.9911	1487.7935	1492.9793	1506.0896	1511.9382	1525.4557	1618.4812	1756.0819	3007.8292	3030.9911	3041.5424	3043.4148	3048.5631	3088.7763	3099.5123	3102.9532	3125.062	3127.825	3590.0571	3703.6554
CCC1(C)COC(N)=N1	CC[C@@]1(C)COC(=N1)N	
InChI=1S/C6H12N2O/c1-3-6(2)4-9-5(7)8-6/h3-4H2,1-2H3,(H2,7,8)	InChI=1S/C6H12N2O/c1-3-6(2)4-9-5(7)8-6/h3-4H2,1-2H3,(H2,7,8)/t6-/m0/s1
