17
gdb 19312	7.15568	0.80799	0.79971	2.1341	81.04	-0.2281	0.0349	0.263	1460.9294	0.14275	-326.656009	-326.64788	-326.646936	-326.690485	29.088	
C	-0.1508842412	 1.386961304	-0.1493026111	-0.251318
C	 1.2555383508	 0.9700804584	 0.1571900398	-0.249856
C	 0.168191691	-0.088839303	 0.0415240202	-0.158229
C	-0.2907206406	-0.781285149	 1.2092380019	 0.074899
C	-0.6775191171	-1.36570253	 2.192650763	 0.079583
C	-1.1383701287	-2.0826744587	 3.3470760297	-0.159759
C	-2.0332189067	-1.407682131	 4.3360268858	-0.22625
N	-2.5710427887	-2.4603700061	 3.4704380613	-0.307382
H	-0.7215196234	 1.8715853587	 0.6337459127	 0.125049
H	-0.3891516897	 1.715168558	-1.1547221214	 0.119553
H	 1.9940705803	 1.0086040698	-0.6355139591	 0.119777
H	 1.6424304575	 1.1694958759	 1.1491605039	 0.127708
H	 0.1904237013	-0.6840556881	-0.8670910359	 0.111064
H	-0.468762771	-2.854214295	 3.7192962194	 0.113735
H	-1.9541241229	-1.6722083005	 5.3867890467	 0.12309
H	-2.3007022015	-0.3737213548	 4.1395384142	 0.120124
H	-3.0813589294	-2.0369503184	 2.6987580489	 0.238212
17.8248	88.2887	99.7333	210.4726	222.0813	402.5122	475.7802	534.7869	548.3958	668.4017	789.28	808.1544	821.608	839.0591	893.9596	912.8462	960.737	992.3516	1045.903	1062.8521	1080.9003	1109.3025	1118.5047	1132.5558	1165.4113	1201.1418	1205.4602	1236.5294	1259.9657	1300.3286	1375.2821	1413.1389	1466.4864	1496.6981	1504.6447	2350.6588	3113.1381	3133.9984	3140.5431	3141.0175	3146.6549	3203.3414	3225.6507	3240.8095	3502.6972
C1CC1C#CC1CN1	C1CC1C#C[C@H]1CN1	
InChI=1S/C7H9N/c1-2-6(1)3-4-7-5-8-7/h6-8H,1-2,5H2	InChI=1S/C7H9N/c1-2-6(1)3-4-7-5-8-7/h6-8H,1-2,5H2/t7-/m0/s1
