17
gdb 7075	6.63211	0.88151	0.83729	2.3954	71.92	-0.2346	-0.0297	0.2049	1334.233	0.138347	-363.812518	-363.803245	-363.802301	-363.846941	32.398	
C	-0.1171692678	 1.5766429982	-0.0107093494	-0.335267
N	-0.023707177	 0.1215081925	 0.0434216669	-0.072804
C	 0.6670280673	-0.3281779018	 1.2385661736	-0.227672
C	 2.1568097283	-0.0264232858	 1.1597312498	 0.150624
O	 2.8588607502	 0.1827319515	 2.1129823535	-0.237151
C	-1.3273386075	-0.5273860032	-0.1153483927	-0.304795
C	-1.9340971932	-0.2703672498	-1.4191623898	 0.296645
C	-2.4532244705	-0.065425805	-2.4830238243	-0.417427
H	 0.884756294	 2.0141414413	 0.0351663466	 0.128798
H	-0.5794666367	 1.8796118529	-0.9523709059	 0.143059
H	-0.7100822106	 1.9970681371	 0.8230561865	 0.100359
H	 0.2691499642	 0.0827846471	 2.1838884403	 0.108313
H	 0.585436194	-1.4229102186	 1.30352047	 0.127323
H	 2.5550071447	-0.0458746674	 0.1199532606	 0.090919
H	-1.1817414952	-1.6082604713	 0.00072465	 0.134456
H	-2.041528849	-0.2231874094	 0.6755232213	 0.113792
H	-2.9072964052	 0.1106375917	-3.4268427469	 0.200826
54.5445	78.5784	121.6415	154.8398	236.4831	254.5796	334.8416	344.7957	361.9195	404.1771	466.9173	611.9382	614.5879	669.1497	762.0825	871.5304	966.1313	1003.7563	1049.8204	1061.4676	1077.7461	1153.4738	1182.644	1215.7812	1281.2639	1308.5861	1344.3235	1391.5078	1407.1253	1452.5704	1467.2171	1481.5855	1495.3334	1505.4517	1840.9334	2242.0641	2883.6632	2906.4941	2937.3206	2949.8223	3027.759	3042.9378	3074.5485	3129.4742	3503.9538
CN(CC=O)CC#C	CN(CC=O)CC#C	
InChI=1S/C6H9NO/c1-3-4-7(2)5-6-8/h1,6H,4-5H2,2H3	InChI=1S/C6H9NO/c1-3-4-7(2)5-6-8/h1,6H,4-5H2,2H3
