17
gdb 46852	2.29277	1.85307	1.28182	4.7913	73.73	-0.2327	-0.0476	0.1851	1008.9649	0.138141	-418.001808	-417.99407	-417.993126	-418.034542	29.384	
N	-0.1091881286	 1.2764542373	 0.2956532784	-0.436551
C	-0.005466154	 0.0356623174	 0.0865018682	 0.189453
N	 1.2482787289	-0.671024091	-0.0459640708	-0.344128
C	 1.4263523419	-1.6775247858	 1.0224059258	-0.208894
C	 0.1889875989	-2.5283638608	 1.3447465905	-0.050994
C	-0.8736146249	-1.9841520285	 2.243288972	-0.288353
C	-1.1532556958	-2.1193724714	 0.7477117859	-0.133937
C	-1.2285241138	-0.8619115726	-0.0473377222	 0.394255
O	-2.1443751668	-0.6032378541	-0.7937540922	-0.318189
H	 0.8313814651	 1.6838131492	 0.3334790041	 0.228503
H	 1.2396280655	-1.1600977275	-0.9395849474	 0.237398
H	 2.2513542511	-2.3267781738	 0.7179945758	 0.120149
H	 1.7558657639	-1.1492228595	 1.9239645844	 0.1273
H	 0.362399561	-3.598651275	 1.3984874064	 0.102821
H	-1.409893622	-2.6582346741	 2.9009891155	 0.130117
H	-0.7451910908	-0.9797211719	 2.6348746754	 0.139224
H	-1.8577468196	-2.883262158	 0.4392113901	 0.111827
56.7353	113.4792	180.0239	303.6873	337.6637	377.8028	451.5555	469.4617	567.0977	674.3248	747.085	766.8818	781.7296	825.6596	863.5233	909.566	921.8441	946.9296	976.1461	998.0552	1062.8438	1077.0358	1106.6704	1125.6731	1145.5135	1205.3672	1223.7919	1278.2002	1316.8985	1348.2716	1375.5773	1392.7407	1449.3608	1485.1279	1497.477	1755.0094	1796.5012	3043.4716	3095.4329	3133.2875	3155.1554	3182.654	3223.5602	3419.179	3472.6371
N=C1NCC2CC2C1=O	[NH][C]1NC[C@H]2C[C@H]2C1=O	
InChI=1S/C6H8N2O/c7-6-5(9)4-1-3(4)2-8-6/h3-4H,1-2H2,(H2,7,8)	InChI=1S/C6H8N2O/c7-6-5(9)4-1-3(4)2-8-6/h3-4H,1-2H2,(H2,7,8)/t3-,4-/m1/s1
