23
gdb 117344	4.03996	0.67535	0.63923	1.6814	83.79	-0.2651	0.0197	0.2848	1903.6377	0.202726	-425.482026	-425.470748	-425.469804	-425.519987	39.574	
C	-0.2178282932	 1.5372247979	-0.1975290325	-0.390862
C	-0.0040198542	 0.0461077763	-0.0216606076	-0.041602
O	-1.2977031101	-0.588205096	-0.0654227696	-0.244834
C	-1.3009856725	-1.9299037369	 0.069387653	 0.444254
O	-0.2975752737	-2.5871711138	 0.2028955482	-0.36098
C	-2.7183735273	-2.4692434654	 0.0601799331	-0.320887
C	-2.8039255956	-3.984833483	-0.1705710189	 0.05568
C	-4.2175189915	-4.4944140321	 0.1367928795	-0.396034
C	-2.3756942003	-4.3607274488	-1.5953938688	-0.389069
H	 0.7445893597	 2.0567291888	-0.1682866133	 0.122687
H	-0.6967955738	 1.7526547929	-1.1568505173	 0.129295
H	-0.8502541051	 1.9379929719	 0.5996684992	 0.129099
H	 0.6241908951	-0.3748187319	-0.812996122	 0.121478
H	 0.475095827	-0.1899498325	 0.9339326465	 0.120455
H	-3.1579415013	-2.2055825481	 1.0318096271	 0.125879
H	-3.2994377762	-1.9158011696	-0.6865486423	 0.121143
H	-2.1015642442	-4.45636609	 0.5267681283	 0.09519
H	-4.9578199343	-4.0340456977	-0.5288829878	 0.110733
H	-4.2804746561	-5.5786978693	-0.000212937	 0.112775
H	-4.5121457423	-4.26910776	 1.1675579838	 0.108714
H	-1.3537603871	-4.031033548	-1.7987609889	 0.131098
H	-2.4139837114	-5.4451789613	-1.7402217327	 0.110815
H	-3.0411119019	-3.9037651035	-2.33847522	 0.104974
23.974	57.4974	80.2176	112.1414	154.8065	220.0702	231.5248	255.2846	258.5369	303.1231	351.3403	378.1974	417.9323	460.6709	597.5342	724.3148	806.105	831.5998	884.4216	899.5996	931.3676	938.847	972.1017	985.1693	1056.978	1127.9191	1133.2156	1144.3481	1182.7005	1193.2819	1216.68	1255.2225	1290.902	1320.5706	1364.8037	1385.754	1401.0044	1402.8978	1420.4562	1424.5334	1455.2592	1485.5053	1489.6019	1494.6304	1495.9839	1505.1284	1513.4034	1519.973	1809.5896	3021.9763	3024.5532	3028.4191	3040.9969	3046.0051	3050.5422	3071.2222	3086.7298	3087.9728	3094.2521	3100.0534	3120.2385	3121.1502	3125.5595
CCOC(=O)CC(C)C	CCOC(=O)CC(C)C	
InChI=1S/C7H14O2/c1-4-9-7(8)5-6(2)3/h6H,4-5H2,1-3H3	InChI=1S/C7H14O2/c1-4-9-7(8)5-6(2)3/h6H,4-5H2,1-3H3
