20
gdb 83772	2.77771	1.86342	1.66209	0.404	76.98	-0.2158	0.078	0.2938	929.6402	0.174037	-403.096612	-403.089671	-403.088727	-403.127448	29.158	
C	-0.1046667343	 1.6317335982	 0.0687438259	-0.440273
C	 0.0654785728	 0.1194959582	 0.0305661386	 0.040989
C	 1.0656469141	-0.5910520659	-0.9268205378	-0.045307
C	 2.3536665113	 0.2178279738	-1.0289921656	-0.099016
O	 2.7737684879	 0.6110935822	 0.2809910488	-0.270076
C	 2.3533967592	-0.3455969275	 1.2449328369	 0.090205
C	 2.5636735627	-1.775425627	 0.7050475018	-0.198171
N	 1.1915424513	-1.7302813988	 0.0945013655	-0.155958
C	 0.8187037559	-0.6568661434	 1.1173152895	-0.029033
H	 0.84523031	 2.1459601611	 0.225108524	 0.141459
H	-0.5513687492	 1.999118679	-0.8620277781	 0.113778
H	-0.7800320314	 1.9146566024	 0.8837996612	 0.115068
H	-0.9109784292	-0.3633889954	-0.0834756155	 0.089388
H	 0.7132307376	-0.9188720043	-1.9084441022	 0.073403
H	 3.142818637	-0.3614241635	-1.5294781837	 0.101337
H	 2.1993612181	 1.1341191364	-1.6089406228	 0.11082
H	 2.7711311882	-0.0337038055	 2.204803996	 0.077653
H	 3.4092636657	-1.954644846	 0.0350467084	 0.107415
H	 2.5631917947	-2.5385427341	 1.4890420727	 0.109897
H	 0.3184983677	-0.9805049999	 2.0350639263	 0.066422
199.7881	209.443	246.0832	340.9635	413.1103	445.9531	482.084	599.1995	602.5852	703.4872	745.7523	796.9318	830.9348	840.1671	891.9669	914.2671	948.5786	968.0427	994.5352	999.6351	1028.5603	1067.7033	1098.5478	1110.3797	1125.5822	1161.8442	1188.9147	1202.558	1214.708	1234.7745	1250.7752	1265.1954	1285.7655	1325.2167	1346.5794	1350.1565	1371.7672	1405.6045	1414.2233	1488.9586	1495.6656	1512.4915	1526.1609	2999.159	3033.462	3046.1103	3051.4785	3062.3624	3065.3633	3073.1177	3087.4676	3088.9869	3104.3515	3136.0505
CC1C2COC3CN2C13	C[C@H]1[C@H]2CO[C@@H]3CN2[C@H]13	
InChI=1S/C7H11NO/c1-4-5-3-9-6-2-8(5)7(4)6/h4-7H,2-3H2,1H3	InChI=1S/C7H11NO/c1-4-5-3-9-6-2-8(5)7(4)6/h4-7H,2-3H2,1H3/t4-,5+,6+,7+/m0/s1
