15
gdb 27732	2.35963	1.49526	0.92091	3.7593	75.54	-0.2238	-0.0446	0.1793	1201.3786	0.112483	-454.007323	-453.998845	-453.997901	-454.040504	30.679	
C	 0.0079243988	 1.5123961767	 0.1041211149	-0.495861
C	 0.0320557123	 0.0259782045	 0.0035384833	 0.212952
C	-0.0119889815	-0.7730230287	-1.1116813413	 0.15698
O	 0.03788794	-2.0932975298	-0.6630001034	-0.198276
C	 0.1070941556	-1.9822367206	 0.6673463131	 0.478211
N	 0.2195536073	-3.1277895399	 1.3816215995	-0.586545
N	 0.104757997	-0.7578600631	 1.1355677524	-0.384423
C	-0.0995344912	-0.5123190166	-2.5242470492	 0.05203
O	-0.138680685	-1.351385927	-3.4017949196	-0.30112
H	 0.9128024816	 1.8708193167	 0.6057606299	 0.150379
H	-0.0597875402	 1.9875261223	-0.875962616	 0.135547
H	-0.8445700608	 1.8355330228	 0.7104923725	 0.149103
H	-0.0783359696	-3.9796707909	 0.9346124155	 0.279657
H	 0.0336950884	-3.0458213626	 2.3676930731	 0.281713
H	-0.1307286726	 0.5748202563	-2.7562104245	 0.069653
111.6381	135.983	166.387	204.9475	237.6013	271.9647	379.118	411.3945	425.7631	453.9163	553.6822	626.5077	669.6932	709.7665	769.2628	857.6531	997.7712	1006.9159	1038.4671	1059.5625	1104.2151	1118.2709	1305.153	1327.445	1412.0227	1426.3198	1471.0715	1473.6007	1480.4583	1586.2769	1631.6904	1679.3285	1770.1281	2885.7259	3043.9485	3099.7165	3139.5898	3605.9373	3725.3208
CC1=C(OC(N)=N1)C=O	Cc1c(oc(N)n1)C=O	
InChI=1S/C5H6N2O2/c1-3-4(2-8)9-5(6)7-3/h2H,1H3,(H2,6,7)	InChI=1S/C5H6N2O2/c1-3-4(2-8)9-5(6)7-3/h2H,1H3,(H2,6,7)
