19
gdb 107034	3.97674	1.1245	1.00042	1.977	76.25	-0.2469	-0.0005	0.2464	1234.8973	0.158752	-423.013184	-423.004546	-423.003601	-423.046532	32.893	
C	 0.1345053175	 1.6223085704	 0.0777270891	-0.393117
C	 0.0382041016	 0.0899811984	 0.0255308599	-0.068038
C	 0.6601655684	-0.5213373133	-1.2204253069	-0.080042
C	 1.5851961214	-1.440514303	-0.9381989067	-0.144516
C	 1.7452798462	-1.5742101879	 0.544300903	 0.363172
C	 2.2820139473	-2.8181203952	 1.193622023	-0.164878
O	 3.6398636705	-3.0363341171	 0.8434468625	-0.417382
O	 2.2161910157	-0.3318875566	 1.1558396075	-0.30979
C	 0.81140257	-0.6094053092	 1.1471115452	-0.048517
H	 1.1829278996	 1.9303863678	 0.096061404	 0.138954
H	-0.3455425362	 2.075085359	-0.7953677681	 0.114595
H	-0.3573938278	 2.016500188	 0.9726775303	 0.116044
H	-1.020523342	-0.1993245798	 0.0939428568	 0.085392
H	 0.3883152379	-0.1862370891	-2.2160013255	 0.100356
H	 2.1735330257	-2.010198666	-1.6460517095	 0.112555
H	 2.1495407666	-2.7449520759	 2.2830023177	 0.0956
H	 1.7319352787	-3.6974500587	 0.8418458738	 0.114165
H	 4.1250663347	-2.249058812	 1.1159162019	 0.293881
H	 0.3605560442	-0.7432116296	 2.1279428219	 0.091567
66.7021	118.7796	197.6323	209.2948	229.7238	330.0341	349.0837	415.1515	431.1021	513.8713	582.3859	697.0318	706.1369	751.7971	801.6159	853.0421	864.034	925.1928	959.6547	972.2174	979.5604	1030.2245	1035.2284	1079.8986	1099.8636	1125.3625	1136.5774	1187.3927	1261.7706	1273.8969	1311.9896	1324.1898	1351.8328	1388.0551	1403.2055	1422.2881	1452.1119	1489.6844	1494.4103	1504.4486	1664.2711	2999.0537	3003.1928	3039.1093	3076.3423	3104.258	3126.3461	3136.9045	3184.6211	3223.2677	3800.0377
CC1C=CC2(CO)OC12	C[C@H]1C=C[C@@]2(CO)O[C@@H]12	
InChI=1S/C7H10O2/c1-5-2-3-7(4-8)6(5)9-7/h2-3,5-6,8H,4H2,1H3	InChI=1S/C7H10O2/c1-5-2-3-7(4-8)6(5)9-7/h2-3,5-6,8H,4H2,1H3/t5-,6-,7-/m0/s1
