16
gdb 62302	3.4181	1.46613	1.18114	3.293	72.18	-0.2527	0.0226	0.2753	1024.0291	0.123521	-400.665673	-400.65825	-400.657306	-400.697424	28.842	
C	-0.1422906862	 1.5837245207	-0.0221306723	-0.460306
C	-0.0519317343	 0.0567582447	-0.0077533369	 0.117041
C	-1.3409876918	-0.5529349238	-0.3314201191	 0.238876
N	-2.3602625563	-1.0358243378	-0.5873539506	-0.339555
C	 1.1722646669	-0.6132539579	-0.6996946621	-0.120351
C	 2.1007707405	-0.3325559686	 0.5253121005	 0.066427
O	 2.567615832	-1.7046084244	 0.634100832	-0.324472
C	 1.1587342984	-1.8248160551	 0.2832404944	 0.091112
C	 0.7074571501	-0.623148868	 1.1701308358	-0.120351
H	 0.8269419811	 2.027445449	 0.2211337092	 0.127762
H	-0.4484841786	 1.9470397065	-1.0073509879	 0.14175
H	-0.8750187805	 1.9379543857	 0.7086514437	 0.14175
H	 1.4411551868	-0.616325158	-1.7551025911	 0.102168
H	 2.8071914007	 0.4754922073	 0.7051915166	 0.111079
H	 0.7195091716	-2.8133955689	 0.168825764	 0.124902
H	 0.4508935797	-0.6374024814	 2.2285113937	 0.102168
131.1518	167.6947	208.4552	241.5611	277.0826	463.5334	492.0952	524.503	605.7849	632.5776	776.881	799.76	803.034	832.8903	885.2798	888.0324	908.1691	942.0846	975.4897	1026.9649	1098.211	1104.5264	1118.9967	1143.9549	1157.7287	1178.8651	1187.4665	1202.718	1219.1164	1297.2739	1331.426	1417.0209	1486.3641	1497.4948	2347.5205	3044.8538	3117.1822	3121.3043	3129.6569	3134.5758	3143.3752	3156.7166
CC1(C#N)C2C3OC2C13	C[C@@]1(C#N)[C@H]2[C@@H]3O[C@H]2[C@H]13	
InChI=1S/C7H7NO/c1-7(2-8)3-5-4(7)6(3)9-5/h3-6H,1H3	InChI=1S/C7H7NO/c1-7(2-8)3-5-4(7)6(3)9-5/h3-6H,1H3/t3-,4+,5-,6+,7-
