21
gdb 40049	3.10296	1.51883	1.41645	1.4029	80.51	-0.2487	0.0863	0.335	1032.7167	0.185946	-387.094455	-387.08723	-387.086286	-387.125918	30.181	
C	 0.03055888	 1.5290809808	 0.0147177192	-0.329796
C	 1.3165401003	 0.7324704522	-0.0180816535	-0.334953
C	-0.0090214961	 0.0276991657	 0.0204960955	 0.424299
C	-0.4534424135	-0.8232776876	 1.2257857059	-0.320192
C	-1.1559964704	-1.9915792623	 0.493785656	 0.083337
C	-2.517459188	-1.5205112347	-0.0674457749	-0.215409
C	-2.0560799713	-0.6528059807	-1.2777656278	-0.219522
C	-0.5199583762	-0.7922674057	-1.1676388864	-0.012281
O	-0.3620286598	-2.1389056042	-0.6948842668	-0.262916
H	-0.224575878	 2.0556233307	 0.9289194166	 0.109897
H	-0.2678030786	 2.0497827169	-0.8905760227	 0.108986
H	 1.8844440934	 0.7162774653	-0.9433111637	 0.110897
H	 1.9284641632	 0.7138504473	 0.8784867665	 0.109551
H	 0.4060040702	-1.1870595299	 1.7964583199	 0.103821
H	-1.1210268758	-0.2934857381	 1.9119475556	 0.096596
H	-1.1764051097	-2.9357953297	 1.038174238	 0.074297
H	-3.1140307193	-2.3750180391	-0.3947802896	 0.103436
H	-3.1026922547	-0.9609333936	 0.6667725367	 0.096667
H	-2.4121308833	-1.0673425112	-2.2238464765	 0.10056
H	-2.3865681727	 0.3864507157	-1.215050022	 0.101255
H	 0.0337817203	-0.6570368576	-2.0977352758	 0.07147
95.3439	214.9716	265.3777	297.2953	380.9382	432.7988	510.6987	562.7085	675.5399	773.807	784.3663	818.1642	826.6538	848.6921	886.5294	893.316	921.7359	946.4682	949.6567	973.5363	986.1902	1007.2225	1024.4072	1036.1155	1056.2148	1077.4848	1087.5769	1132.0768	1185.7122	1187.6883	1218.4512	1231.4119	1261.6636	1268.4446	1283.9801	1299.3601	1321.318	1329.3776	1351.7674	1393.3384	1467.9409	1480.7706	1491.8025	1505.152	1507.5549	3048.7685	3061.2727	3070.6462	3092.8567	3101.5783	3109.977	3117.3004	3118.8507	3121.5522	3123.1727	3194.0906	3209.3761
C1CC11CC2CCC1O2	C1CC21C[C@H]1CC[C@@H]2O1	
InChI=1S/C8H12O/c1-2-7-8(3-4-8)5-6(1)9-7/h6-7H,1-5H2	InChI=1S/C8H12O/c1-2-7-8(3-4-8)5-6(1)9-7/h6-7H,1-5H2/t6-,7+/m1/s1
