22
gdb 102513	1.94001	1.22483	0.94018	4.8469	82.78	-0.2625	0.0375	0.3	1395.4808	0.191484	-404.362635	-404.35146	-404.350516	-404.399377	39.113	
C	 0.5504606348	 1.1268596197	-0.4405716149	-0.395365
C	 0.1562651042	-0.3101322708	-0.0931136734	-0.184987
C	-1.3521376447	-0.4929459929	 0.1029193992	 0.115732
O	-2.0401860459	-0.182183134	-1.0997490055	-0.2467
C	-2.9386245493	 0.9057626659	-1.0289924943	-0.239498
C	-1.7231199439	-1.9368588275	 0.5382745528	-0.142505
C	-3.2318890421	-2.1028133803	 0.7970219363	-0.405395
C	-1.2666602527	-2.9212020235	-0.4499339584	 0.293876
N	-0.9129290852	-3.7122304422	-1.2147616493	-0.337513
H	 1.632130768	 1.2101468042	-0.579790001	 0.11891
H	 0.0680428542	 1.4463953405	-1.3682781939	 0.133374
H	 0.263606552	 1.8267101222	 0.3528371832	 0.108793
H	 0.4838436322	-0.9880017008	-0.8890369287	 0.133769
H	 0.6674976235	-0.6284428493	 0.8244505408	 0.094206
H	-1.6946784193	 0.1709089138	 0.9114314683	 0.071816
H	-3.7447829145	 0.7307663049	-0.3019354425	 0.106751
H	-2.4301209184	 1.8438198431	-0.7655016137	 0.11187
H	-3.3820395623	 1.0151672964	-2.02187188	 0.134439
H	-1.177448848	-2.1440063389	 1.4677926616	 0.122481
H	-3.7956025167	-1.8870812817	-0.1126077991	 0.150967
H	-3.4638754741	-3.1221617493	 1.1140621342	 0.136394
H	-3.552929342	-1.4149929394	 1.5849616984	 0.118584
58.864	72.195	97.2375	132.9253	162.7735	193.2821	217.2787	239.7963	257.1579	282.6305	337.4108	374.0013	408.1407	486.3739	578.7352	695.381	761.0212	786.4077	895.147	935.253	962.0286	1006.1452	1053.5541	1066.8366	1111.9217	1131.716	1144.8437	1180.8049	1181.4209	1218.5145	1283.8735	1295.815	1318.9529	1347.1488	1388.8002	1399.0039	1405.6193	1412.1686	1478.0299	1483.0698	1488.5573	1494.7093	1497.5381	1503.4025	1508.4298	1516.1921	2356.5363	2981.5717	2993.469	3026.8009	3033.3172	3036.2426	3040.0651	3050.798	3076.6199	3102.9107	3115.631	3119.4412	3123.716	3143.589
CCC(OC)C(C)C#N	CC[C@@H](OC)[C@@H](C)C#N	
InChI=1S/C7H13NO/c1-4-7(9-3)6(2)5-8/h6-7H,4H2,1-3H3	InChI=1S/C7H13NO/c1-4-7(9-3)6(2)5-8/h6-7H,4H2,1-3H3/t6-,7+/m0/s1
