20
gdb 77459	1.98234	1.50394	1.46248	2.526	81.16	-0.2242	-0.0141	0.2101	1110.521	0.167955	-403.135213	-403.125439	-403.124495	-403.169388	36.001	
C	-0.0653209094	 1.5117569615	 0.0416568083	-0.330555
N	 0.1343812674	 0.0734844907	-0.1107690879	-0.151616
C	 0.6928084976	-0.5546835485	-1.2803029472	 0.273901
C	-0.0523454012	-1.6575929569	-1.9714222334	-0.483288
C	 1.7836122805	 0.3247464774	-1.9242211741	-0.430988
C	 2.5264927904	 0.2449574062	-0.5653421024	 0.37771
O	 3.6366998496	 0.5408461436	-0.222118809	-0.313759
C	 1.4298166883	-0.5797149413	 0.0791759895	 0.149187
C	 1.6068094764	-1.6179567846	 1.1455976857	-0.496754
H	 0.7165738227	 2.1495497606	-0.3912405541	 0.118494
H	-1.0214704878	 1.7801225285	-0.4184660048	 0.127057
H	-0.1317100324	 1.7365557433	 1.1099993099	 0.132994
H	-0.7632369343	-1.2490851566	-2.6993295028	 0.127867
H	 0.6336790636	-2.3180576231	-2.5118555152	 0.122907
H	-0.618668069	-2.2481517478	-1.2468177165	 0.133671
H	 2.3680345134	-0.1903967859	-2.6931565345	 0.128884
H	 1.4872751976	 1.3057188682	-2.304875392	 0.118735
H	 1.7505055038	-1.1478703302	 2.1245079512	 0.135261
H	 0.721880636	-2.2567970811	 1.2068865646	 0.13086
H	 2.4841182069	-2.2402643439	 0.9443914846	 0.129432
95.4487	139.6787	146.6426	173.1075	187.0939	214.2839	245.0991	283.9079	324.8877	431.4328	501.0709	525.6644	574.8512	623.9973	678.5149	680.4815	742.1853	835.9887	907.2559	957.3061	1006.691	1047.0231	1088.2905	1113.8793	1120.7514	1149.4836	1158.0203	1179.4288	1196.5549	1238.1398	1301.5164	1402.4449	1409.2881	1436.3275	1448.1657	1470.0828	1476.5065	1485.9123	1489.5627	1495.5482	1497.1426	1502.7763	1871.8617	3009.7147	3030.5241	3037.9566	3057.3744	3080.8093	3090.7128	3100.7351	3107.1511	3110.6106	3121.0252	3122.8491
CN1C2(C)CC(=O)C12C	CN1[C@@]2(C)CC(=O)[C@@]12C	
InChI=1S/C7H11NO/c1-6-4-5(9)7(6,2)8(6)3/h4H2,1-3H3	InChI=1S/C7H11NO/c1-6-4-5(9)7(6,2)8(6)3/h4H2,1-3H3/t6-,7+,8?/m0/s1
