19
gdb 114606	2.22397	1.42393	1.02504	3.9942	77.21	-0.2396	-0.0192	0.2204	1202.497	0.158075	-423.003741	-422.994722	-422.993778	-423.037813	33.129	
O	 0.259544391	 0.5635355164	 0.95799841	-0.421116
C	-0.1404009891	 0.351440634	-0.3877238306	-0.098587
C	-1.4364581266	-0.4358493001	-0.3426818287	-0.057281
C	-2.0765269694	-0.9385056355	-1.6784406537	-0.272869
C	-2.0771110481	-2.3725853319	-1.134627449	-0.077837
C	-0.7032284718	-2.8167202032	-0.7951643477	-0.326921
C	-1.3833576437	-1.8793966848	 0.1779504371	 0.273784
C	-1.7208840998	-2.3209557225	 1.5398597577	 0.051578
O	-1.7535967716	-3.4760401789	 1.9020719122	-0.279913
H	 1.1249751617	 0.9824218199	 0.9586964559	 0.290362
H	-0.3052546027	 1.3046870022	-0.9167109858	 0.087087
H	 0.6258454839	-0.2050897912	-0.949876667	 0.085201
H	-2.1657014862	 0.1406544155	 0.2361052232	 0.088654
H	-3.0723477701	-0.52754168	-1.8512594174	 0.113322
H	-1.4780660478	-0.7933787357	-2.5847468146	 0.102232
H	-2.9080964211	-3.0654659191	-1.1796918685	 0.110693
H	-0.6146081078	-3.8271718189	-0.4113905273	 0.145572
H	 0.1479402622	-2.4630602101	-1.3716306742	 0.111351
H	-1.974585903	-1.4924668263	 2.2383917085	 0.074688
80.0578	93.4105	138.2385	203.3906	215.8371	259.4113	261.4427	397.5969	401.2406	444.7265	584.7557	675.4089	733.1568	773.8171	831.4328	888.3189	930.1559	946.6908	997.5239	1020.9175	1038.6359	1056.4151	1073.2571	1085.4267	1097.3259	1126.4525	1161.923	1210.007	1226.2213	1251.7725	1264.62	1281.7554	1297.6925	1359.0185	1394.6003	1429.5778	1459.641	1473.0659	1493.5683	1520.0187	1792.4823	2881.4837	2964.0098	2993.0539	3044.033	3056.1358	3113.887	3116.9225	3194.7424	3218.7061	3833.1153
OCC1CC2CC12C=O	OC[C@H]1C[C@H]2C[C@@]12C=O	
InChI=1S/C7H10O2/c8-3-6-1-5-2-7(5,6)4-9/h4-6,8H,1-3H2	InChI=1S/C7H10O2/c8-3-6-1-5-2-7(5,6)4-9/h4-6,8H,1-3H2/t5-,6+,7-/m0/s1
