16
gdb 7523	5.00266	1.19304	1.12861	1.7196	65.09	-0.2435	0.0234	0.267	1053.8753	0.130246	-379.911678	-379.903419	-379.902475	-379.944391	30.631	
N	-0.3634988619	 1.4488782633	-0.1049652784	-0.569172
C	-0.0781222763	 0.0352828822	-0.0995053354	 0.256725
C	 1.0540439265	-0.4673218975	-0.9936959533	-0.417143
C	 2.3460518446	 0.1051652964	-0.6076928874	 0.260935
N	 3.3420877215	 0.5902048658	-0.2785386359	-0.305897
C	-0.3294330565	-0.6633589631	 1.224095136	-0.345391
C	-1.3128847481	-0.8230201905	 0.0873525776	 0.118992
O	-2.5519555383	-0.2038385369	 0.1262301426	-0.430924
H	 0.3424510092	 1.9748715815	 0.4011456965	 0.25431
H	-0.3994358379	 1.8148841965	-1.0521746931	 0.239237
H	 1.1235464711	-1.5597105396	-0.9495948686	 0.152701
H	 0.8567788248	-0.206919382	-2.0416512918	 0.148013
H	 0.3101817968	-1.497615472	 1.4919615171	 0.12001
H	-0.6384382936	-0.0379085524	 2.0542470759	 0.126224
H	-1.3596429894	-1.7826392374	-0.4192198348	 0.1035
H	-2.3594764024	 0.7432085757	 0.2198814829	 0.287881
65.9004	111.3723	222.5469	267.1508	277.4914	326.2342	382.5089	398.6133	440.7817	486.4549	566.9644	656.9279	731.3502	836.3748	842.1172	895.6051	910.3797	949.0119	975.3958	1032.3847	1043.0916	1093.084	1149.2396	1191.5119	1220.9384	1292.051	1323.6373	1341.9495	1369.9886	1441.2996	1459.6002	1485.2484	1658.5542	2358.5767	3030.5375	3077.5223	3134.3955	3155.415	3227.1788	3490.8603	3568.9742	3682.2913
NC1(CC#N)CC1O	N[C@@]1(CC#N)C[C@H]1O	
InChI=1S/C5H8N2O/c6-2-1-5(7)3-4(5)8/h4,8H,1,3,7H2	InChI=1S/C5H8N2O/c6-2-1-5(7)3-4(5)8/h4,8H,1,3,7H2/t4-,5+/m1/s1
