16
gdb 37038	2.98075	1.86136	1.5469	1.2143	67.43	-0.2438	0.0164	0.2602	884.064	0.12597	-437.835216	-437.828528	-437.827584	-437.866188	26.771	
C	-0.0593845893	 1.3743820668	 0.0559125224	-0.386185
C	 1.3129843888	 0.7526965887	 0.0337465347	 0.33874
C	 2.263216051	 0.6574972734	 1.190703827	-0.249253
N	 1.7842531858	-0.2586633294	 2.2378200005	-0.262252
C	 0.7136581682	-0.9138752715	 2.120446061	 0.109146
O	-0.2187946116	-0.9398793013	 1.1039278303	-0.262195
C	 0.1076690894	-0.1265276774	 0.0260092917	 0.292673
C	 0.6012005378	-0.6183685458	-1.3266049112	-0.144976
O	 1.679302768	 0.3671204786	-1.3041515926	-0.326838
H	-0.3801755534	 1.7669493617	 1.0155702442	 0.134686
H	-0.4230123918	 1.9064877675	-0.8175120545	 0.123919
H	 3.222235441	 0.2766608028	 0.8239342953	 0.141258
H	 2.4680415355	 1.6227790823	 1.666886066	 0.123912
H	 0.3853467451	-1.585780843	 2.9095489242	 0.13189
H	 1.0014639153	-1.6372487061	-1.2871813686	 0.121737
H	-0.0565521397	-0.5015309774	-2.1944683502	 0.113739
107.9466	219.5938	344.8761	366.1296	397.6851	509.8246	516.7608	541.8402	576.4031	744.137	778.8521	855.4387	895.7119	910.3704	929.1719	945.9101	957.7115	967.3014	1008.9393	1027.4622	1055.469	1104.9067	1144.1647	1147.524	1213.5096	1263.7568	1292.6805	1330.5809	1370.2923	1388.6786	1417.4528	1471.8463	1481.2843	1514.6475	1729.311	3033.5546	3040.2569	3078.8213	3089.4753	3125.3069	3175.8329	3222.8225
C1C23CN=COC12CO3	C1[C@@]23CN=CO[C@@]12CO3	
InChI=1S/C6H7NO2/c1-5-2-7-4-9-6(1,5)3-8-5/h4H,1-3H2	InChI=1S/C6H7NO2/c1-5-2-7-4-9-6(1,5)3-8-5/h4H,1-3H2/t5-,6-/m1/s1
