15
gdb 79432	4.04547	1.23632	1.07307	4.4873	66.63	-0.2467	-0.0396	0.2071	1081.8061	0.110486	-457.660773	-457.653211	-457.652267	-457.692977	28.505	
O	-0.0334134583	 1.4994068854	-0.038533439	-0.436728
C	 0.0747066314	 0.0964151072	-0.0334605917	 0.097847
C	 0.0784931635	-0.6118627682	 1.3377015074	-0.18764
C	-1.460084176	-0.3953584003	 1.5110863749	 0.085643
O	-1.7556195903	-1.794205107	 1.7976331979	-0.341505
C	-0.7333418224	-1.8426690676	 0.7751152769	 0.387074
C	-0.2159973944	-3.1301293166	 0.2489639235	 0.0249
O	-0.5792765506	-4.2152470089	 0.6192398039	-0.239943
C	-1.2872860488	-0.6030692829	-0.0285112964	-0.15729
H	 0.8472063859	 1.8763875901	 0.0535271621	 0.289791
H	 0.80608345	-0.2600152937	-0.7700394756	 0.078619
H	 0.832660225	-0.6508037052	 2.1234485159	 0.098337
H	-2.0014120765	 0.3742994358	 2.0545664661	 0.116671
H	 0.5603192845	-3.0012270526	-0.5401822556	 0.080734
H	-2.069829803	-0.6249757356	-0.7853745405	 0.103491
100.8057	133.2449	235.616	262.5682	270.669	347.9957	392.58	564.1026	605.335	694.9875	722.5449	809.1712	830.1537	845.2032	909.346	915.4565	953.4329	998.2155	1003.9734	1067.8459	1070.0925	1123.3113	1127.6829	1148.5022	1168.5533	1196.7754	1237.7988	1284.0691	1308.5344	1337.0064	1425.2866	1440.2957	1826.8342	2866.8625	3022.2427	3126.8808	3138.5526	3163.4223	3821.9445
OC1C2C3OC2(C=O)C13	O[C@H]1[C@H]2[C@@H]3O[C@@]2(C=O)[C@H]13	
InChI=1S/C6H6O3/c7-1-6-2-4(8)3(6)5(2)9-6/h1-5,8H	InChI=1S/C6H6O3/c7-1-6-2-4(8)3(6)5(2)9-6/h1-5,8H/t2-,3+,4-,5-,6+
