23
gdb 113083	3.12308	0.96196	0.82154	1.9687	83.37	-0.24	0.0765	0.3165	1505.6097	0.203462	-425.397647	-425.387068	-425.386124	-425.43359	37.903	
C	-0.6857366682	 1.6972467502	-0.0019204435	-0.236905
O	-0.5407330041	 0.4759603279	 0.6852289401	-0.236466
C	-1.2096537827	-0.5908671769	 0.0694096949	 0.153718
C	-0.6154325256	-1.1970072302	-1.2357497366	-0.307637
C	-0.9081698709	-2.6011694985	-0.6302925647	 0.153718
O	 0.0704445156	-3.5994292093	-0.7332424752	-0.236466
C	 0.1887568696	-4.1336738458	-2.0314433767	-0.236905
C	-1.0293426597	-1.9607284243	 0.7801415735	-0.10256
C	 0.2290385945	-2.0707498637	 1.638450219	-0.374508
H	-0.1528678906	 2.4594758765	 0.5717599634	 0.126224
H	-0.258577481	 1.65423192	-1.0152116799	 0.107352
H	-1.7439005992	 1.9921378066	-0.0882010853	 0.102109
H	-2.2740690384	-0.3400440664	-0.0631971663	 0.060154
H	-1.0737759145	-0.9331586452	-2.1913018283	 0.092286
H	 0.4629394177	-1.019471225	-1.2811724968	 0.114749
H	-1.8770439582	-2.9874291476	-0.9846429927	 0.060154
H	 0.952924673	-4.9138935831	-1.9946154593	 0.126224
H	-0.7583203376	-4.5794643129	-2.3755826589	 0.102108
H	 0.4953779075	-3.3726402961	-2.7648503059	 0.107353
H	-1.897492026	-2.2917774812	 1.3572093424	 0.068526
H	 1.1230359752	-1.7491325849	 1.0995748431	 0.120717
H	 0.1327304148	-1.444292026	 2.5289722295	 0.118028
H	 0.3820947189	-3.1071501242	 1.9502234941	 0.118028
62.979	94.3609	99.2518	158.0741	187.7692	194.6041	209.2825	212.4763	308.6505	328.3398	406.1645	457.3393	473.5083	566.7649	671.6551	784.063	829.2273	914.1241	929.0473	993.4383	998.4559	1026.5641	1064.9048	1110.1098	1124.688	1148.5029	1165.422	1184.9848	1186.0616	1195.4224	1196.7689	1242.4444	1246.4758	1270.5344	1286.0878	1310.1031	1362.5039	1379.6699	1397.8213	1416.706	1473.0998	1481.2309	1485.1203	1486.6328	1490.5281	1492.2174	1493.5457	1508.3784	1510.396	2964.8488	2968.4721	2973.4684	2976.5917	3019.0522	3019.2012	3052.6161	3057.9377	3061.5086	3113.1969	3113.3569	3119.0264	3123.4004	3130.4426
COC1CC(OC)C1C	CO[C@H]1C[C@@H](OC)[C@H]1C	
InChI=1S/C7H14O2/c1-5-6(8-2)4-7(5)9-3/h5-7H,4H2,1-3H3	InChI=1S/C7H14O2/c1-5-6(8-2)4-7(5)9-3/h5-7H,4H2,1-3H3/t5-,6-,7+
