14
gdb 125131	3.41337	1.15585	0.86813	1.6057	70.49	-0.2487	-0.0454	0.2033	1249.8635	0.098561	-469.978859	-469.970107	-469.969162	-470.013636	29.58	
C	-0.0163525039	 1.4963188548	 0.0495501836	-0.500157
C	 0.0142590602	 0.0087200376	-0.0187638335	 0.10603
C	 0.0116163897	-0.8342263873	-1.100885668	 0.482397
O	-0.0212092387	-0.4747264513	-2.3885672066	-0.217611
C	-0.014942034	-1.4399091188	-3.373982797	 0.105369
N	-0.0473398179	-1.0462874218	-4.5638946462	-0.414269
O	 0.0450708235	-2.095986208	-0.7370009343	-0.258938
N	 0.0736744333	-2.0305156708	 0.782893479	-0.031092
N	 0.0530306081	-0.8230070864	 1.0700910781	-0.121294
H	 0.8674778771	 1.8913329959	 0.5601537126	 0.147912
H	-0.0410835776	 1.9111266816	-0.960649539	 0.149886
H	-0.8996199933	 1.854016303	 0.5879415075	 0.147887
H	 0.0183515176	-2.4563990931	-2.9815792431	 0.154252
H	-0.0388320742	-1.8424840156	-5.1986144432	 0.249629
54.9229	77.5182	88.2521	133.4503	243.2276	280.7636	323.1227	335.18	475.449	545.3882	664.8004	671.9455	735.1725	833.0588	833.223	967.9423	1001.2241	1022.6612	1047.6271	1071.1568	1224.2191	1266.4855	1281.7928	1400.9915	1417.1568	1455.2718	1480.7309	1492.668	1497.9658	1646.015	1755.7955	3043.4503	3100.3747	3132.8463	3137.6508	3523.9339
CC1=C(OC=N)ON=N1	Cc1c(O[CH][NH])onn1	
InChI=1S/C4H5N3O2/c1-3-4(8-2-5)9-7-6-3/h2,5H,1H3	InChI=1S/C4H5N3O2/c1-3-4(8-2-5)9-7-6-3/h2,5H,1H3
