17
gdb 12226	2.72255	1.91908	1.65056	3.2472	64.13	-0.2324	-0.0378	0.1946	877.2097	0.141207	-400.98025	-400.971999	-400.971055	-401.013329	30.032	
C	 0.6065209113	 1.4891671762	 0.191943827	-0.372221
C	 0.0425329365	 0.0800832913	 0.1242192929	-0.01404
N	 0.6178726633	-0.7349114824	-1.0015800979	-0.340367
C	 1.3344445647	-1.6221808631	-0.0370012792	-0.146672
C	 2.8121719385	-1.3367071076	-0.2085217685	 0.196611
O	 3.537366279	-0.8429803999	 0.6254078707	-0.267805
C	 0.6051841266	-0.9501339086	 1.1614773225	 0.126559
O	 1.3228881741	-0.5222064449	 2.2768810992	-0.432022
H	 1.7000562658	 1.4811779244	 0.2012308265	 0.121753
H	 0.2808970125	 2.0729567092	-0.6744158165	 0.115493
H	 0.264270483	 1.9903016197	 1.1026091934	 0.125277
H	-1.0523722913	 0.1155911366	 0.1028297673	 0.074996
H	-0.0904059561	-1.2309965804	-1.5297946861	 0.227421
H	 1.1715757735	-2.6998843264	-0.1672946057	 0.093889
H	 3.1922573365	-1.5697685067	-1.2264983328	 0.101227
H	-0.2028691593	-1.5951932414	 1.5224575944	 0.087568
H	 2.2411574311	-0.3877017659	 1.9996199028	 0.302335
54.2254	85.4462	200.4001	225.8718	244.4463	316.5169	392.5977	398.9295	531.132	543.9575	647.102	716.7831	779.9479	821.9806	837.5889	913.3068	971.3244	992.4325	1046.3993	1064.0806	1081.1576	1143.4625	1179.6259	1197.5943	1259.2372	1294.575	1303.3308	1346.7836	1376.8482	1385.2655	1417.515	1419.8717	1471.305	1487.7795	1494.0415	1800.4881	2908.0223	3021.4662	3033.3673	3041.8267	3053.6278	3114.2562	3120.2311	3542.5047	3704.073
CC1NC(C=O)C1O	C[C@H]1N[C@@H](C=O)[C@H]1O	
InChI=1S/C5H9NO2/c1-3-5(8)4(2-7)6-3/h2-6,8H,1H3	InChI=1S/C5H9NO2/c1-3-5(8)4(2-7)6-3/h2-6,8H,1H3/t3-,4+,5+/m1/s1
