25
gdb 102670	2.13368	0.78716	0.61243	0.9021	95.9	-0.2566	0.0591	0.3157	1911.2564	0.226061	-352.336041	-352.324359	-352.323415	-352.373776	42.174	
C	 0.0157900178	 1.5157407799	 0.221284453	-0.388337
C	 0.1244127109	-0.0090626728	 0.1136761614	-0.184332
C	 0.655747059	-0.5220274755	-1.2418477915	 0.062377
C	 2.1704136566	-0.2611033754	-1.3818150051	-0.189516
C	 2.7056498946	-0.3466560387	-2.8150758764	-0.389851
C	 0.3361274633	-2.0179709491	-1.4358212408	-0.19262
C	-1.1429159052	-2.3048902925	-1.7735013118	-0.364607
C	-1.417757209	-3.726643408	-1.942826356	 0.29667
C	-1.6158635392	-4.9048282885	-2.0770247492	-0.441401
H	 0.9829190494	 2.0102231376	 0.086883474	 0.119051
H	-0.666915484	 1.915003817	-0.5372225932	 0.113785
H	-0.3686714615	 1.8125890943	 1.2021357822	 0.112773
H	 0.7747280216	-0.3923633773	 0.9121466664	 0.094832
H	-0.8659737055	-0.438378984	 0.3055829268	 0.092567
H	 0.1441933488	 0.0400699148	-2.0393852592	 0.061061
H	 2.4028388636	 0.7338275737	-0.9856167188	 0.094275
H	 2.709608973	-0.9724736081	-0.7409609688	 0.093935
H	 2.2144683164	 0.3889196702	-3.4620280998	 0.113898
H	 3.7813299847	-0.1461395427	-2.8432831578	 0.112827
H	 2.5473504099	-1.3342576539	-3.2597434007	 0.119853
H	 0.9477987839	-2.4341014959	-2.242354651	 0.106551
H	 0.6106674147	-2.5704861864	-0.5285088637	 0.105436
H	-1.7983805083	-1.9043705844	-0.9904226261	 0.131199
H	-1.4120215687	-1.7702233839	-2.6942701486	 0.128072
H	-1.8034837268	-5.9426405706	-2.1979940953	 0.1915
50.9484	72.0651	89.1932	89.5601	126.0112	200.716	209.8314	261.2548	266.6357	282.8507	348.5032	406.6241	436.4713	447.6321	544.5469	614.3111	632.8579	745.6753	762.6244	779.3459	852.8844	906.65	961.2956	973.1429	996.3883	1024.0079	1033.6703	1052.7239	1055.9093	1131.3162	1149.4407	1176.3058	1215.156	1265.5541	1287.2188	1309.0845	1317.2708	1337.8603	1348.3387	1376.1177	1390.1626	1394.1416	1414.0569	1415.3121	1471.7204	1482.6838	1488.3092	1491.2031	1500.7072	1504.2727	1506.3717	1509.7273	2237.6771	2976.3052	3013.0683	3016.0145	3019.0967	3032.5904	3033.2319	3036.4393	3047.1247	3054.4335	3057.4511	3083.6576	3098.1097	3098.6844	3104.0429	3106.7347	3507.9209
CCC(CC)CCC#C	CCC(CC)CCC#C	
InChI=1S/C9H16/c1-4-7-8-9(5-2)6-3/h1,9H,5-8H2,2-3H3	InChI=1S/C9H16/c1-4-7-8-9(5-2)6-3/h1,9H,5-8H2,2-3H3
