23
gdb 83643	2.30161	1.6722	1.2461	0.197	88.9	-0.2524	0.0821	0.3345	1136.9032	0.206553	-351.118995	-351.110423	-351.109479	-351.152131	34.348	
C	-0.5015945488	 1.4079864911	-0.0580082755	-0.415468
C	-0.0462730296	-0.044788062	-0.0530567471	-0.048802
C	 1.1066111695	-0.5125824643	-0.9914447736	-0.030327
C	 2.3356661173	 0.430435561	-1.1399946127	-0.228056
C	 3.0821207981	-0.3436480844	-0.0117994974	-0.218827
C	 1.8215279159	-1.2120293451	 0.2251524079	-0.116813
C	 0.7580439857	-0.5948532019	 1.1469696494	 0.377719
C	 1.0017195099	 0.0739612177	 2.4712205629	-0.32477
C	 0.1938697648	-1.2003095918	 2.3979116667	-0.333598
H	 0.3231368407	 2.0981405937	 0.1446275796	 0.117213
H	-0.9377144674	 1.6794808405	-1.0259159519	 0.112127
H	-1.2677252859	 1.5812209556	 0.706582867	 0.111408
H	-0.9189931057	-0.6867389246	-0.2278688706	 0.068451
H	 0.807432628	-1.0490798122	-1.8930858907	 0.057569
H	 2.8207519624	 0.3658946667	-2.1169094205	 0.097993
H	 2.142471728	 1.4865488275	-0.9365605709	 0.096907
H	 3.9307013604	-0.9217735291	-0.3876951792	 0.094598
H	 3.423205652	 0.2455639279	 0.8442295978	 0.093042
H	 1.9545494738	-2.2933290639	 0.3019647484	 0.05864
H	 1.9998857456	 0.0240754058	 2.8959001067	 0.109127
H	 0.4767800991	 0.9995363422	 2.6862123439	 0.108936
H	-0.8786448073	-1.1364957649	 2.5586418318	 0.105669
H	 0.6449412534	-2.1143974355	 2.7721016679	 0.107262
49.9661	199.4878	206.6537	212.5653	241.203	255.4077	384.7228	427.5591	521.9682	537.7979	658.8425	742.4049	753.8186	789.5967	816.215	841.941	866.0688	905.1707	914.5762	946.6246	960.2072	978.5367	1000.8973	1021.1744	1047.6969	1075.8613	1076.4847	1101.4197	1132.519	1136.0426	1151.3595	1189.7973	1198.5297	1232.623	1247.3245	1248.1543	1273.7328	1283.545	1294.7711	1317.3024	1356.4814	1384.0299	1407.5246	1463.6156	1474.116	1488.5338	1492.7718	1501.8706	1505.2694	3014.4894	3026.4283	3049.8598	3062.7627	3075.7315	3086.7078	3091.3469	3094.0197	3100.2423	3114.1367	3115.7319	3121.1249	3191.4813	3207.2858
CC1C2CCC2C11CC1	C[C@H]1[C@H]2CC[C@H]2C21CC2	
InChI=1S/C9H14/c1-6-7-2-3-8(7)9(6)4-5-9/h6-8H,2-5H2,1H3	InChI=1S/C9H14/c1-6-7-2-3-8(7)9(6)4-5-9/h6-8H,2-5H2,1H3/t6-,7+,8+/m0/s1
