17
gdb 56009	4.37744	0.95105	0.81135	3.6547	69.49	-0.2353	0.0028	0.2381	1344.5476	0.137624	-455.19563	-455.187188	-455.186244	-455.229997	30.464	
N	 0.4970415849	 0.2477971631	-0.8230256352	-0.506932
C	-0.1552922047	 0.1609384129	 0.3657002026	 0.365068
O	 0.0336107384	 0.9247069484	 1.2942956169	-0.36541
C	-1.1973834301	-0.9628352051	 0.4545136076	-0.299829
C	-0.7800385959	-2.3178494063	-0.1330137033	 0.002037
C	-1.82505983	-3.443056236	 0.0981221396	-0.123086
O	-2.0794930367	-3.975871779	-1.2281457578	-0.217752
C	-1.3760987613	-3.1932867744	-2.0690816067	 0.12527
N	-0.6426608079	-2.2679802964	-1.6088006809	-0.276679
H	 1.1936425541	 0.9668376396	-0.9268690296	 0.253343
H	 0.3418812046	-0.4362859738	-1.5514047703	 0.274084
H	-1.4287153304	-1.0736106677	 1.5169196638	 0.129463
H	-2.1131418417	-0.6259770879	-0.0481406998	 0.124727
H	 0.193716227	-2.5989210094	 0.2852378414	 0.105749
H	-1.4651704615	-4.259114768	 0.7275586563	 0.131191
H	-2.7727041787	-3.0694838842	 0.498566912	 0.125596
H	-1.5001165001	-3.4337024358	-3.1192656565	 0.153157
42.217	72.0082	112.1938	186.2454	311.6031	324.137	389.3743	421.5185	538.9499	574.3933	626.0985	722.7408	745.3033	830.8682	870.8099	888.816	927.0768	960.6705	969.9416	1023.4241	1055.0502	1116.1663	1138.0304	1151.4836	1205.8744	1235.4945	1293.822	1317.8053	1328.9501	1364.4687	1378.2169	1386.4397	1462.6145	1516.5986	1618.7848	1708.8514	1797.1124	3028.1734	3041.2346	3055.8313	3108.3355	3116.2121	3215.1656	3529.8469	3701.1063
NC(=O)CC1COC=N1	NC(=O)C[C@H]1COC=N1	
InChI=1S/C5H8N2O2/c6-5(8)1-4-2-9-3-7-4/h3-4H,1-2H2,(H2,6,8)	InChI=1S/C5H8N2O2/c6-5(8)1-4-2-9-3-7-4/h3-4H,1-2H2,(H2,6,8)/t4-/m0/s1
