21
gdb 79180	2.56973	1.85311	1.30847	1.4742	81.23	-0.2046	0.0789	0.2834	1042.4068	0.184232	-383.218953	-383.211058	-383.210114	-383.250839	31.85	
C	-0.0354859901	 1.5444425021	 0.0287147417	-0.400918
C	 0.0016260872	 0.0163940102	-0.0067628666	 0.034693
C	 0.8211133385	-0.5210605351	-1.1768900846	-0.038168
C	 1.9924804475	-1.2615486973	-0.6804502616	-0.050872
C	 1.4241579222	-1.7154741076	 0.6773598212	-0.03534
C	 0.5358293305	-2.6889108333	-0.1555244797	-0.173033
N	 0.9107071299	-1.9930594894	-1.4340466212	-0.167075
N	 0.6991998237	-0.5497444246	 1.1705945546	-0.059019
C	-0.146465018	-0.7922501849	 2.3241576722	-0.331831
H	 0.9796482738	 1.9518343145	 0.0178638921	 0.122799
H	-0.5859734815	 1.9411544333	-0.8307844394	 0.112775
H	-0.5327228504	 1.9001244124	 0.9362949084	 0.116172
H	-1.035406255	-0.3596219876	-0.0679694456	 0.065485
H	 0.8702330723	 0.0583150658	-2.0920614135	 0.096438
H	 3.019802953	-1.1894281164	-1.0145135775	 0.092583
H	 2.0799038384	-2.1400404806	 1.4386090196	 0.075047
H	 0.9275846287	-3.7084594722	-0.1957690928	 0.10744
H	-0.5377536019	-2.7253741612	 0.0609202248	 0.098344
H	 0.4624090325	-1.1584141215	 3.157328512	 0.118035
H	-0.6156055066	 0.1432704732	 2.6435709631	 0.121551
H	-0.9531836847	-1.5269948098	 2.1418381429	 0.094894
131.9276	216.1446	227.6351	231.6189	260.3181	350.8407	385.5573	459.6722	535.4341	571.8156	701.5888	768.9101	777.9393	796.8032	847.5305	861.7474	906.9436	955.0775	966.5979	991.1903	1013.2061	1047.6647	1064.5087	1093.5607	1121.8976	1133.6538	1157.659	1167.8442	1174.8175	1205.7723	1228.17	1258.5215	1269.6671	1297.3789	1334.608	1350.259	1362.5861	1398.1906	1406.4564	1459.1743	1487.3412	1492.6415	1496.3765	1502.7627	1506.095	2926.546	2932.0216	3036.2064	3040.0401	3059.6919	3096.9729	3101.1657	3105.9029	3107.3455	3116.1848	3176.1706	3194.2302
CC1C2C3C(CN23)N1C	C[C@H]1[C@H]2[C@H]3[C@H](CN23)N1C	
InChI=1S/C7H12N2/c1-4-6-7-5(8(4)2)3-9(6)7/h4-7H,3H2,1-2H3	InChI=1S/C7H12N2/c1-4-6-7-5(8(4)2)3-9(6)7/h4-7H,3H2,1-2H3/t4-,5-,6-,7+,9?/m0/s1
