21
gdb 52412	8.13719	0.4773	0.46885	2.9522	81.96	-0.2529	-0.0247	0.2282	2306.7124	0.179879	-424.20972	-424.199399	-424.198455	-424.247349	35.369	
O	-0.4405594087	 0.6481687859	 0.6817325025	-0.233125
C	 0.1415280561	 1.0002628467	-0.3110840039	 0.153586
C	 1.4048250807	 1.8288733	-0.3283517713	-0.279529
C	 1.2558618883	 3.0889361793	-1.1817100459	-0.055921
O	 2.5266062131	 3.6773911242	-1.318482007	-0.244812
C	 2.5056557822	 4.8831417776	-2.0624660686	-0.070895
C	 3.8908518826	 5.464563178	-2.0969847899	 0.010821
C	 4.8870247492	 4.9776538881	-3.1167593811	-0.247286
C	 4.2923016311	 6.3570842516	-3.2446546012	-0.272533
H	-0.2342603281	 0.716351879	-1.3230408136	 0.071874
H	 1.6924255606	 2.0757645004	 0.6960248864	 0.13066
H	 2.201504882	 1.2185737847	-0.7762998005	 0.132261
H	 0.8377788039	 2.8321255363	-2.1716909865	 0.087605
H	 0.5486816217	 3.7902153223	-0.7074321006	 0.100052
H	 2.149681089	 4.6916350465	-3.0900572904	 0.080698
H	 1.7975145664	 5.5942391273	-1.6034772804	 0.089244
H	 4.2846730688	 5.7219703868	-1.1182456277	 0.091925
H	 5.9249240825	 4.8882899595	-2.8169735381	 0.114912
H	 4.5598570434	 4.2160188058	-3.8167727713	 0.113244
H	 3.5681937443	 6.5274153253	-4.0349008946	 0.111915
H	 4.9188539109	 7.2150211446	-3.0289627963	 0.115303
35.4963	46.2754	67.7471	93.6445	123.9478	151.3871	226.523	285.664	351.5915	410.3194	496.6122	534.3809	774.714	788.3488	817.7034	844.4058	872.6265	919.4666	948.1982	998.6487	1030.2229	1040.749	1060.6972	1079.5476	1118.5131	1133.8111	1138.4599	1155.4439	1196.9472	1199.8255	1226.86	1230.2183	1275.8344	1281.482	1307.4311	1366.8922	1413.1486	1431.552	1460.644	1466.7253	1472.1749	1504.0845	1512.9872	1533.5461	1838.1142	2847.9731	2938.7854	2950.19	2973.8659	2976.5307	3027.3437	3118.2216	3132.5067	3137.2997	3154.8137	3210.6893	3225.7976
O=CCCOCC1CC1	O=CCCOCC1CC1	
InChI=1S/C7H12O2/c8-4-1-5-9-6-7-2-3-7/h4,7H,1-3,5-6H2	InChI=1S/C7H12O2/c8-4-1-5-9-6-7-2-3-7/h4,7H,1-3,5-6H2
