18
gdb 56295	6.64906	0.52303	0.49077	2.747	74.34	-0.279	0.0064	0.2855	2121.3677	0.145358	-439.14358	-439.133203	-439.132258	-439.181332	34.364	
C	-0.1900824445	 1.4497878237	 0.0119823041	-0.479131
C	 0.0614036901	-0.0376373351	 0.0015064672	 0.425469
O	 1.1389946929	-0.5744315799	-0.0109073597	-0.344392
O	-1.1083003752	-0.7199436498	 0.0080061961	-0.241704
C	-0.9903511627	-2.1494296045	-0.0007345394	-0.065017
C	-2.4015428115	-2.7174607715	 0.0098710679	-0.204441
C	-2.3763576705	-4.2581789238	 0.0013192658	-0.343599
C	-3.7183046307	-4.8355666685	 0.01112864	 0.259775
N	-4.7855271522	-5.278048906	 0.0191769365	-0.298672
H	 0.7623521335	 1.978010701	 0.0054127818	 0.151597
H	-0.7830410158	 1.7361504023	-0.8612023368	 0.152554
H	-0.7654448988	 1.7265928866	 0.899913112	 0.152581
H	-0.4322715381	-2.4630419586	-0.8901100062	 0.124798
H	-0.4151713603	-2.4724308143	 0.8742550085	 0.124841
H	-2.9345246114	-2.3615942185	 0.896764032	 0.134696
H	-2.9515733356	-2.3521105516	-0.8626399418	 0.134699
H	-1.8468205139	-4.6277628512	-0.8848749683	 0.157969
H	-1.8298196853	-4.6372339702	 0.8730720203	 0.157978
32.5126	54.6907	80.5509	81.8078	101.0837	176.0789	192.2233	282.8824	340.3821	397.6923	461.6415	554.0337	605.6558	649.7986	754.0167	859.4989	901.5704	945.1713	990.985	1038.444	1064.9979	1077.7091	1093.7185	1120.1044	1221.5296	1262.0547	1280.0304	1298.0459	1315.3999	1372.3718	1392.0637	1425.437	1469.134	1471.1218	1475.3355	1497.5092	1518.9764	1829.1121	2365.7396	3037.2512	3039.1041	3058.079	3062.8295	3071.8567	3077.111	3113.2267	3122.8847	3171.1587
CC(=O)OCCCC#N	CC(=O)OCCCC#N	
InChI=1S/C6H9NO2/c1-6(8)9-5-3-2-4-7/h2-3,5H2,1H3	InChI=1S/C6H9NO2/c1-6(8)9-5-3-2-4-7/h2-3,5H2,1H3
