23
gdb 62859	2.68827	1.76604	1.38359	0.1436	88.45	-0.246	0.0975	0.3435	1051.6128	0.20814	-351.102454	-351.094563	-351.093619	-351.134192	33.647	
C	-0.0486462687	 1.5259795733	-0.0938778659	-0.460299
C	-0.0338711191	-0.0152095541	 0.0125532378	 0.376632
C	-1.5075101841	-0.4485863503	-0.1899747299	-0.496991
C	 1.143281187	-0.6769982857	-0.7958501825	-0.079902
C	 2.0883841268	-0.1724423666	 0.3569474034	-0.224184
C	 0.8260041606	-0.540662534	 1.2215672052	-0.079906
C	 0.9216671555	-2.075341416	 1.0768272719	-0.035511
C	 0.0052104017	-2.9087276281	 0.2142911128	-0.321571
C	 1.1583940067	-2.1770798642	-0.4285778074	-0.035518
H	 0.9163774751	 2.016097015	 0.0248987722	 0.113307
H	-0.4482109722	 1.8211330238	-1.0709062088	 0.113435
H	-0.7216473865	 1.9384817646	 0.6665582267	 0.113436
H	-1.635067094	-1.0917665017	-1.0645803668	 0.126692
H	-1.9096275401	-0.9736137929	 0.6803939097	 0.126687
H	-2.1433634513	 0.426572035	-0.3492815801	 0.101771
H	 1.3151138226	-0.4177448393	-1.8427783963	 0.052252
H	 2.9808444213	-0.7760101258	 0.5380951719	 0.085378
H	 2.3630753378	 0.8795837179	 0.329044653	 0.090915
H	 0.6750015981	-0.1426655515	 2.2273475649	 0.052253
H	 1.5615987972	-2.5861205443	 1.7888392652	 0.083234
H	 0.1809546494	-3.9773997037	 0.314144291	 0.102667
H	-1.0300658734	-2.6779584274	 0.035918297	 0.111989
H	 1.9745755694	-2.7636292039	-0.837449785	 0.083235
93.1827	233.3554	276.4861	308.3813	329.8812	369.6161	431.4767	454.8043	536.9249	602.1071	657.1837	658.1311	754.0098	792.3119	802.5321	824.7542	872.4809	877.692	903.6733	965.3266	986.7072	990.0644	997.9373	1021.7556	1031.1522	1050.4498	1078.05	1080.0984	1087.9604	1113.1811	1124.4333	1168.9684	1189.8435	1202.5895	1207.1682	1226.1351	1251.9608	1252.9856	1299.6154	1321.7148	1376.0262	1405.543	1423.1068	1487.3901	1492.2118	1503.9517	1515.6857	1525.8317	1540.9075	3030.5451	3043.4772	3075.3284	3083.5797	3087.2179	3091.7165	3101.2604	3116.5996	3131.4935	3135.6186	3154.1278	3163.43	3166.1565	3284.4571
CC1(C)C2CC1C1CC21	CC1(C)[C@H]2C[C@@H]1[C@H]1C[C@@H]21	
InChI=1S/C9H14/c1-9(2)7-4-8(9)6-3-5(6)7/h5-8H,3-4H2,1-2H3	InChI=1S/C9H14/c1-9(2)7-4-8(9)6-3-5(6)7/h5-8H,3-4H2,1-2H3/t5-,6+,7+,8-
