18
gdb 119558	3.068	1.0612	0.87006	1.3529	73.13	-0.2482	-0.025	0.2232	1330.3126	0.146641	-439.051132	-439.04225	-439.041305	-439.085512	32.376	
O	-0.0009410345	 1.5107674084	-0.2184308069	-0.415822
C	 0.0204837365	 0.094918237	-0.2469093287	-0.065012
C	-1.3366773268	-0.5150319463	 0.1400294889	-0.337338
C	-1.3084285819	-2.0136490803	 0.0738400551	 0.213161
C	-1.6242035443	-2.8217099682	-1.1463243011	-0.276655
N	-2.5317191905	-2.9498728622	-0.0127665303	-0.159115
C	-1.8507325375	-3.9309420343	 0.9072393762	-0.290387
C	-0.6945986048	-2.9284873731	 1.0920866732	 0.362034
O	 0.1788528603	-2.7871882293	 1.9009542963	-0.311608
H	-0.0724100787	 1.7872216502	 0.7006977409	 0.285046
H	 0.2704200883	-0.1805873187	-1.2771773276	 0.113668
H	 0.8066016176	-0.3159156807	 0.4026235619	 0.118095
H	-1.5931397422	-0.2016261161	 1.1605468388	 0.105522
H	-2.1137247605	-0.1244771175	-0.5251095896	 0.122811
H	-2.0396150016	-2.2656286814	-1.9822378985	 0.137391
H	-1.0004126476	-3.6678095765	-1.4285572608	 0.122772
H	-2.415608007	-4.0646687688	 1.8334462391	 0.145114
H	-1.6441138647	-4.9052998024	 0.4554613732	 0.130323
56.8402	91.2102	114.5555	168.9465	256.2563	294.1376	337.3495	369.9599	475.3666	500.8462	551.1688	671.208	744.2786	765.0689	787.7625	862.2466	893.818	975.6169	996.164	1025.3262	1044.594	1065.0639	1077.8654	1105.7071	1130.6488	1152.6227	1196.9576	1242.3473	1267.4961	1304.0659	1329.9282	1365.0059	1404.7179	1417.6972	1462.1716	1483.2643	1506.261	1514.4936	1879.3936	3007.0739	3023.8522	3059.9515	3068.463	3090.2932	3098.7213	3121.815	3191.5567	3817.7309
OCCC12CN1CC2=O	OCC[C@]12CN1CC2=O	
InChI=1S/C6H9NO2/c8-2-1-6-4-7(6)3-5(6)9/h8H,1-4H2	InChI=1S/C6H9NO2/c8-2-1-6-4-7(6)3-5(6)9/h8H,1-4H2/t6-,7?/m1/s1
