14
gdb 43752	4.77124	0.96023	0.89088	3.4395	66.66	-0.2622	-0.0452	0.217	1241.6264	0.099237	-436.669147	-436.661224	-436.66028	-436.702468	28.627	
O	 0.1970331953	-0.000702757	 0.0171159683	-0.283654
C	 0.0692550767	 1.1833225449	 0.0606569816	 0.434768
C	-1.1608086079	 2.1437340423	 0.0238172707	-0.414653
C	-0.1364623094	 3.2833419708	-0.122000316	 0.421748
C	-0.2698467449	 4.584084789	-0.8663479143	-0.453221
C	-1.3118818707	 5.4435168314	-0.2983941462	 0.267182
N	-2.143542714	 6.1093170052	 0.1471119829	-0.291885
O	 0.6607220151	 3.242269993	 1.0520711115	-0.261959
C	 1.0331577938	 2.3677788447	-0.0407127816	-0.186571
H	-1.769548754	 1.9466374226	-0.8639185018	 0.141736
H	-1.794146356	 2.1955756324	 0.9106061422	 0.154278
H	 0.6872421365	 5.1146740363	-0.8396765121	 0.174151
H	-0.5139848086	 4.389638238	-1.9170592818	 0.167726
H	 2.044469868	 2.4454012664	-0.4227407034	 0.130354
56.2642	86.7353	139.3398	277.5709	348.5115	384.1601	426.4609	451.0044	469.6624	577.6611	667.0453	725.7939	773.2871	868.3928	896.5902	931.1157	968.5105	991.0874	1018.1861	1040.8141	1112.6451	1183.3287	1192.8193	1208.6057	1291.2973	1322.2123	1420.8098	1443.7738	1454.4364	1910.3517	2369.9118	3048.517	3070.9726	3097.0687	3139.0747	3196.0605
O=C1CC2(CC#N)OC12	O=C1C[C@@]2(CC#N)O[C@@H]12	
InChI=1S/C6H5NO2/c7-2-1-6-3-4(8)5(6)9-6/h5H,1,3H2	InChI=1S/C6H5NO2/c7-2-1-6-3-4(8)5(6)9-6/h5H,1,3H2/t5-,6+/m0/s1
