20
gdb 73786	2.10817	1.75747	0.997	5.1613	85.5	-0.2022	-0.0222	0.1801	1206.1694	0.17128	-403.203212	-403.193824	-403.19288	-403.237631	34.609	
C	 0.0909246857	 1.4880386825	 0.0701636963	-0.49531
C	-0.0096987737	-0.0125624735	 0.0045500778	 0.26971
C	-1.2031259655	-0.6806705154	 0.0218215074	 0.104974
C	-2.5373980072	 0.0256168913	 0.0733219387	-0.51053
C	-1.216043636	-2.1445089729	 0.0601876732	 0.313846
O	-2.2399860331	-2.8108444029	 0.0746158451	-0.358895
C	 0.1505198771	-2.826477382	 0.1660694193	-0.30001
C	 1.2297596872	-2.0301113001	-0.5560563031	-0.186013
N	 1.2034647389	-0.6569312992	-0.0712916664	-0.337668
H	 0.9748640688	 1.7887941823	 0.6423915215	 0.13103
H	 0.1861765678	 1.9159310694	-0.9359814789	 0.141285
H	-0.7883001048	 1.9313539668	 0.5371015238	 0.148269
H	-2.6566349862	 0.7613662667	-0.729286593	 0.11042
H	-3.3240303696	-0.7239434814	-0.0300320276	 0.152262
H	-2.701874501	 0.5481291187	 1.0244323253	 0.11586
H	 0.4001886316	-2.9039812359	 1.2330402766	 0.124101
H	 0.0684877222	-3.8407442994	-0.2299199789	 0.122056
H	 2.2239319094	-2.4501247654	-0.3779333038	 0.110131
H	 1.0401658783	-2.0590035373	-1.6427452195	 0.104925
H	 1.98161138	-0.0778282423	-0.3475827036	 0.239559
58.3744	107.7376	115.8711	161.1034	217.635	311.2765	318.1165	341.1924	444.5205	452.5307	504.3378	530.7956	589.5786	610.8802	656.691	727.9166	886.7009	896.5262	933.2801	1010.4502	1038.3133	1069.2381	1069.7712	1096.8551	1119.7354	1162.2222	1194.8074	1249.8915	1266.2852	1346.2994	1350.4657	1393.0249	1403.0982	1415.1681	1457.6346	1473.4639	1486.6053	1495.6841	1499.2401	1507.7816	1539.6331	1652.3955	1741.2343	2959.2215	3018.1954	3027.1226	3028.9138	3069.1685	3078.4846	3086.7962	3115.6274	3134.5538	3150.3108	3610.4643
CC1=C(C)C(=O)CCN1	CC1=C(C)C(=O)CCN1	
InChI=1S/C7H11NO/c1-5-6(2)8-4-3-7(5)9/h8H,3-4H2,1-2H3	InChI=1S/C7H11NO/c1-5-6(2)8-4-3-7(5)9/h8H,3-4H2,1-2H3
