16
gdb 15323	3.08144	1.32663	0.99616	0.5975	80.41	-0.2293	0.036	0.2653	1187.8015	0.127984	-309.399503	-309.390533	-309.389589	-309.434789	31.535	
C	 0.1066195277	 1.5116703918	-0.0193870929	-0.498689
C	 0.0626005799	 0.0570934943	-0.0248320907	 0.076879
C	 0.0180661339	-1.1466627022	-0.0249656491	 0.087525
C	-0.0199389268	-2.5781950655	-0.0422560953	-0.19373
C	-0.3948844726	-3.3620597559	 1.1954775474	-0.29215
C	-1.3580661731	-3.3402819665	 0.0280827896	-0.191877
C	-2.6022097794	-2.6386388941	 0.1165675303	 0.346366
C	-3.6574540403	-2.0651492286	 0.1782192823	-0.465216
H	 0.8958224364	 1.8881330983	 0.6412298311	 0.145709
H	 0.2969106085	 1.9083294103	-1.0229334816	 0.147471
H	-0.8439196159	 1.9326241388	 0.3266570079	 0.150371
H	 0.7137093546	-3.0498015298	-0.6903464162	 0.114614
H	 0.1361389221	-4.286056066	 1.3942695468	 0.121851
H	-0.6746896905	-2.7899293834	 2.0711343278	 0.138878
H	-1.3870999995	-4.2415717359	-0.5774353216	 0.117732
H	-4.585442485	-1.5529416055	 0.2347342942	 0.194266
15.3209	68.3368	123.2988	178.5151	208.5162	301.336	310.63	431.7113	479.261	540.8721	583.9288	616.0668	648.5695	708.0469	764.0991	833.3055	899.3097	970.2099	1033.2115	1051.5014	1053.8261	1077.3741	1117.6092	1136.5814	1173.1374	1238.2651	1378.0279	1395.5457	1414.4017	1477.0086	1478.6799	1479.3538	2239.9777	2372.6304	3025.0037	3083.8857	3087.2806	3139.3147	3144.0119	3150.9872	3242.8923	3506.8564
CC#CC1CC1C#C	CC#C[C@H]1C[C@H]1C#C	
InChI=1S/C8H8/c1-3-5-8-6-7(8)4-2/h2,7-8H,6H2,1H3	InChI=1S/C8H8/c1-3-5-8-6-7(8)4-2/h2,7-8H,6H2,1H3/t7-,8+/m1/s1
