19
gdb 26747	3.04832	1.46683	1.01574	1.1927	86.19	-0.1676	0.0508	0.2183	1179.6178	0.160497	-382.072558	-382.06359	-382.062646	-382.106602	32.873	
C	-0.0416186087	 1.5871582498	-0.0173097371	-0.509019
C	 0.109269366	 0.1050473876	-0.0525839237	 0.19047
C	 0.1235235427	-0.770173278	-1.1347717529	 0.197024
N	 0.0095340732	-0.3639440534	-2.4878144594	-0.607835
C	 0.2921767301	-2.1204625744	-0.6678054545	-0.411217
C	 0.3194074379	-2.0197582692	 0.7027172415	 0.307449
C	 0.7324343284	-2.4414499468	 2.1029227389	-0.362069
C	 0.6722983089	-0.9018551481	 2.4306292352	-0.174669
N	 0.1689235033	-0.7113278382	 1.0578028615	-0.035835
H	 0.2339694533	 2.0026112795	-0.9912590067	 0.138296
H	-1.0657855988	 1.9174914633	 0.2069726016	 0.118132
H	 0.6134541926	 2.0444553613	 0.7342025923	 0.118078
H	-0.8399471414	 0.1602542769	-2.6642074291	 0.236879
H	 0.0142513346	-1.1615967821	-3.1108268019	 0.234867
H	 0.3627432497	-3.0044465829	-1.2833727323	 0.083128
H	 0.0223212436	-3.0592188533	 2.6602495356	 0.11656
H	 1.7302002324	-2.8786024208	 2.1966380153	 0.120883
H	-0.0228579238	-0.5839160167	 3.2134931866	 0.116061
H	 1.653829286	-0.4500888046	 2.6057752889	 0.122817
52.2073	113.2229	144.363	174.8503	231.9463	240.0343	302.5522	308.8379	546.273	586.1652	630.067	655.184	665.4004	733.1434	796.3777	809.1566	835.2581	855.6487	920.2051	1031.4945	1049.4066	1059.3199	1074.6606	1115.3117	1138.3765	1166.1239	1179.5103	1227.679	1256.9942	1275.5519	1366.6423	1411.9097	1421.1611	1463.4436	1482.7949	1487.7149	1504.5894	1511.571	1548.4539	1616.0974	1653.6272	2999.7281	3042.2007	3050.5251	3054.4746	3087.2872	3103.6898	3104.5395	3241.4885	3517.2125	3605.7247
CC1=C(N)C=C2CCN12	Cc1c(N)cc2CCn12	
InChI=1S/C7H10N2/c1-5-7(8)4-6-2-3-9(5)6/h4H,2-3,8H2,1H3	InChI=1S/C7H10N2/c1-5-7(8)4-6-2-3-9(5)6/h4H,2-3,8H2,1H3
