17
gdb 5723	4.63723	2.05482	1.47475	2.173	74.86	-0.1915	0.0525	0.244	847.0323	0.146537	-326.777356	-326.771076	-326.770132	-326.807616	25.051	
C	 0.0247893823	 1.5228580365	-0.0246279542	-0.208677
C	 1.528773068	 1.8898611255	-0.0006065968	-0.178514
N	 2.1103265767	 0.7268610493	 0.6467040224	 0.016535
C	 3.3305334607	 0.4121402517	 1.1816656044	-0.143392
C	 3.2791781029	-0.9177331233	 1.5488327133	-0.139286
C	 1.9875437244	-1.4202865508	 1.2107486934	-0.325846
C	 1.290882425	-0.373411874	 0.6502244472	 0.35609
C	-0.0158373079	-0.0320748555	-0.0018995145	-0.348123
H	-0.4548276215	 1.9135606378	 0.8774945539	 0.11784
H	-0.4892940512	 1.9518140411	-0.8874216895	 0.106139
H	 1.935194317	 2.0158569358	-1.0130287035	 0.114707
H	 1.7339510167	 2.8060877649	 0.5609507291	 0.118095
H	 4.1153425168	 1.1458335711	 1.2721581728	 0.108761
H	 4.0774747101	-1.4680818579	 2.0242207474	 0.088184
H	 1.623121752	-2.4234535454	 1.3704214772	 0.088135
H	-0.8870462058	-0.4102485836	 0.5404644341	 0.116098
H	-0.075075326	-0.4374521631	-1.0209655067	 0.113256
143.1437	197.9338	238.3842	428.2417	577.4918	614.9434	640.9213	696.3511	715.1476	728.8167	763.3384	825.1806	864.0266	899.9898	920.1411	927.314	1006.5976	1033.5357	1078.9841	1092.2837	1136.5815	1181.4153	1210.0475	1232.9197	1255.0472	1305.8143	1316.6936	1335.5348	1341.8256	1434.8835	1450.3135	1489.2273	1499.2673	1504.2759	1533.4079	1592.0702	3012.7448	3013.3229	3059.3564	3076.82	3080.8675	3115.2642	3235.0999	3250.5705	3266.3699
C1CN2C=CC=C2C1	C1Cn2cccc2C1	
InChI=1S/C7H9N/c1-3-7-4-2-6-8(7)5-1/h1,3,5H,2,4,6H2	InChI=1S/C7H9N/c1-3-7-4-2-6-8(7)5-1/h1,3,5H,2,4,6H2
