15
gdb 6663	7.75828	0.82085	0.74939	2.6475	63.93	-0.268	0.0485	0.3164	1420.943	0.116958	-399.811071	-399.802058	-399.801114	-399.845901	31.185	
N	-0.1758443773	 1.3062358538	-0.0943725008	-0.563738
C	 0.0675411258	-0.0368992424	-0.0359128941	 0.494497
O	 1.158959064	-0.553956329	-0.033586524	-0.392666
O	-1.10848224	-0.7168237403	-0.0154911614	-0.26028
C	-0.9813299054	-2.1440529002	-0.0074382382	-0.04779
C	-2.4046171552	-2.7064686331	-0.0042617488	-0.356931
C	-2.4085298637	-4.1632294573	 0.0074199032	 0.284531
C	-2.3830053869	-5.3643452559	 0.0171683758	-0.439521
H	 0.6076469132	 1.9076099842	 0.0928420856	 0.269947
H	-1.0966620226	 1.6444933751	 0.1269780605	 0.264382
H	-0.425709323	-2.4742082846	-0.8892231981	 0.134834
H	-0.4257450143	-2.4649154239	 0.878023073	 0.132821
H	-2.9399220925	-2.3193825304	 0.8710906395	 0.139272
H	-2.9380595525	-2.333025493	-0.8865514049	 0.14116
H	-2.3722344897	-6.426060823	 0.0253737827	 0.199482
36.9427	61.0376	98.0717	171.2247	221.7389	326.0192	334.7315	353.2961	441.2194	505.1417	552.6622	627.4187	652.9702	674.0699	778.3006	790.8524	910.7564	990.171	1062.194	1085.8388	1102.4964	1121.8527	1231.5649	1295.0247	1304.5457	1349.1748	1423.5615	1477.8922	1519.6923	1612.2435	1838.4044	2244.1039	3031.6878	3063.8715	3064.8039	3114.7132	3506.9952	3615.7959	3745.6701
NC(=O)OCCC#C	NC(=O)OCCC#C	
InChI=1S/C5H7NO2/c1-2-3-4-8-5(6)7/h1H,3-4H2,(H2,6,7)	InChI=1S/C5H7NO2/c1-2-3-4-8-5(6)7/h1H,3-4H2,(H2,6,7)
