16
gdb 50308	2.41605	1.68148	1.26717	2.676	68.83	-0.2583	-0.0438	0.2145	1006.6591	0.124415	-437.900284	-437.892592	-437.891647	-437.93331	28.391	
O	-0.7268824049	 0.9843963754	-0.5637497534	-0.238792
C	 0.1481433967	 1.0654010611	 0.2586611016	 0.151247
C	 1.3906020724	 1.9325516046	 0.106683223	-0.216089
C	 1.4628328483	 2.7709086949	-1.1734357137	-0.269566
C	 1.4055462706	 4.2179692346	-0.682288701	-0.019094
C	 0.2295897909	 4.6679470324	 0.0893692354	-0.25499
N	 1.4900389535	 4.2792544715	 0.7920053122	-0.131638
C	 1.4217968848	 2.9434402803	 1.2875697251	 0.368596
O	 1.3859314857	 2.6455315848	 2.4472920663	-0.306184
H	 0.1032422585	 0.5158181276	 1.2206886558	 0.116005
H	 2.2505386164	 1.2666430926	 0.2445008092	 0.138133
H	 2.4002073029	 2.5970286833	-1.7059758837	 0.119583
H	 0.6385517954	 2.5263251497	-1.8485001653	 0.144801
H	 2.0061474504	 4.9582763105	-1.2007527701	 0.109873
H	-0.0125720975	 5.7220305724	 0.1743041419	 0.142012
H	-0.6209897043	 3.9954461941	 0.1711406568	 0.146103
47.8431	101.2625	206.7377	227.4675	295.7244	359.9273	478.9343	601.6529	614.9982	651.7123	738.0719	772.8079	785.2099	854.3941	879.3935	929.903	952.3033	1010.8524	1055.965	1090.0793	1094.0906	1106.2925	1133.1315	1172.2708	1183.3801	1206.7247	1284.1257	1307.8008	1324.4005	1386.659	1412.9205	1491.4859	1511.5698	1818.1228	1855.2751	2936.2942	3051.5087	3072.7551	3116.3544	3116.6855	3164.9196	3209.9005
O=CC1CC2CN2C1=O	O=C[C@H]1C[C@H]2CN2C1=O	
InChI=1S/C6H7NO2/c8-3-4-1-5-2-7(5)6(4)9/h3-5H,1-2H2	InChI=1S/C6H7NO2/c8-3-4-1-5-2-7(5)6(4)9/h3-5H,1-2H2/t4-,5+,7?/m1/s1
