19
gdb 90110	3.05372	1.67142	1.4735	2.1389	79.87	-0.2259	-0.0095	0.2165	971.2251	0.15911	-385.7521	-385.744769	-385.743825	-385.783244	30.681	
C	-0.2266696423	 1.5875769967	-0.1864321283	-0.398986
C	-0.1008902679	 0.0772759169	-0.0432318178	-0.043714
C	 1.0291009577	-0.6492138635	-0.9438373303	-0.35415
C	 1.8886159554	-0.6349488068	 0.3415483315	 0.361734
O	 2.5121881352	-1.5425694538	 1.3825860371	-0.363632
C	 1.7877141487	-0.5835220337	 2.2843537191	-0.071868
C	 2.5438616744	 0.7148395548	 2.0026672595	-0.059672
C	 2.6260272083	 0.6731475812	 0.6730668135	-0.130642
C	 0.649810578	-0.6161939471	 1.1793696417	-0.00532
H	 0.7232365617	 2.1103319416	-0.0656860116	 0.12426
H	-0.629890807	 1.8388256271	-1.1738019039	 0.114777
H	-0.918967916	 1.9818889859	 0.5648080251	 0.120717
H	-1.0887378529	-0.3697206498	-0.1832620895	 0.084678
H	 0.7022790494	-1.6436830517	-1.2517623275	 0.123043
H	 1.4119147694	-0.0990072882	-1.8090745611	 0.103964
H	 1.6714200356	-0.9590446463	 3.3012427021	 0.081344
H	 2.9276481776	 1.4188246998	 2.7259196825	 0.112233
H	 3.0909222924	 1.3429297678	-0.0361013728	 0.106474
H	 0.2410836823	-1.6296951711	 1.2240437108	 0.09476
187.2821	195.975	220.3972	327.5452	373.9101	399.9708	501.0556	562.8847	586.6232	665.7333	715.8309	729.4889	752.5687	757.6379	825.8924	831.2535	873.4932	910.2323	916.8451	948.4524	960.0943	1027.1637	1048.892	1066.8436	1100.7244	1121.9268	1148.9444	1168.6463	1193.4225	1211.3657	1231.1285	1249.883	1268.2097	1318.4516	1357.3606	1396.0408	1420.3125	1472.0487	1491.9017	1501.1946	1619.9277	3036.3537	3054.3161	3055.0939	3070.3087	3094.7367	3123.323	3131.331	3136.6825	3225.5301	3255.7929
CC1CC23OC(C=C2)C13	C[C@H]1C[C@@]23O[C@@H](C=C2)[C@@H]13	
InChI=1S/C8H10O/c1-5-4-8-3-2-6(9-8)7(5)8/h2-3,5-7H,4H2,1H3	InChI=1S/C8H10O/c1-5-4-8-3-2-6(9-8)7(5)8/h2-3,5-7H,4H2,1H3/t5-,6-,7+,8-/m0/s1
