21
gdb 87570	2.54927	1.40967	1.20948	2.1311	82.46	-0.227	0.0724	0.2994	1158.0204	0.182268	-383.201985	-383.193082	-383.192138	-383.235216	34.357	
C	 0.0862893631	 1.9312057703	 0.6714810118	-0.392497
C	-0.014086549	 0.4336991621	 0.5148007138	-0.078624
N	 1.2300322116	-0.2819922018	 0.1491634762	-0.400406
C	 0.6262173747	-0.5177010513	 1.4532235914	 0.343673
C	 1.344793747	-0.2833955938	 2.7609472251	-0.106959
C	 0.3759680418	-0.3517000368	 3.8724781204	-0.246121
N	 0.8792539621	-1.6223957685	 3.3147578387	-0.144817
C	 0.1514602345	-1.8726350667	 2.0070772836	-0.03098
C	-1.3218220657	-2.2318134313	 2.0878232733	-0.408171
H	 1.0236191658	 2.2038608545	 1.1633381213	 0.127603
H	 0.0597569436	 2.4291272547	-0.3036086736	 0.121258
H	-0.744701493	 2.3176004056	 1.2717261464	 0.114649
H	-0.9323583162	 0.0811410796	 0.0446117114	 0.080273
H	 1.0323961039	-1.0562427087	-0.4815240316	 0.227039
H	 2.3697131352	 0.0553505426	 2.8652696314	 0.104674
H	 0.7396484949	-0.1717674935	 4.8795473906	 0.122199
H	-0.6551919251	-0.0505457987	 3.7063513388	 0.111157
H	 0.6972968184	-2.6833909098	 1.5101400856	 0.089405
H	-1.9188659917	-1.4453262639	 2.5575404187	 0.119048
H	-1.7286645306	-2.4031689168	 1.0850520314	 0.116847
H	-1.4544693152	-3.1531613079	 2.6641487752	 0.130749
112.8551	135.1379	169.9534	189.9115	213.7599	260.5114	301.3672	426.4946	448.2587	490.9855	546.9861	595.98	725.1404	771.8951	778.4777	817.9956	877.873	898.2236	919.2264	980.7529	1034.0164	1036.6593	1051.9034	1070.4728	1092.6674	1100.2464	1108.9945	1119.6257	1130.4415	1165.7145	1214.1893	1231.1091	1272.4516	1274.3772	1312.0398	1367.8518	1384.5634	1406.1858	1412.4048	1474.8223	1485.6785	1489.407	1493.3025	1502.751	1508.8287	3032.1612	3033.9311	3036.1111	3096.2512	3098.9965	3101.0453	3109.1313	3116.3827	3123.9339	3174.2955	3199.0716	3482.7113
CC1NC11C2CN2C1C	C[C@H]1N[C@]21[C@H]1CN1[C@H]2C	
InChI=1S/C7H12N2/c1-4-7(8-4)5(2)9-3-6(7)9/h4-6,8H,3H2,1-2H3	InChI=1S/C7H12N2/c1-4-7(8-4)5(2)9-3-6(7)9/h4-6,8H,3H2,1-2H3/t4-,5+,6-,7+,9?/m1/s1
