15
gdb 76540	2.84328	1.20868	1.17534	4.7952	62.4	-0.255	0.006	0.2609	1095.398	0.111548	-494.887994	-494.879718	-494.878774	-494.921144	30.189	
O	 0.1148338679	 1.3529601575	 0.0002919022	-0.422059
C	 0.0691998344	-0.0328828417	 0.0219075236	 0.037752
C	-0.4535537266	-0.7056500584	 1.2595104364	-0.043413
O	-0.9218396657	 0.1490906579	 2.269376628	-0.425223
C	-1.2960324716	-0.7106616997	 0.0137867471	 0.036265
C	-2.6556186411	-0.0981863123	-0.2631986713	-0.141645
O	-2.9970701423	-1.2873569638	-1.0593001435	-0.255314
C	-1.7772005534	-1.8732791235	-0.7979953528	 0.429748
O	-1.3763013379	-2.9341995148	-1.1574803777	-0.345857
H	-0.2696510197	 1.6504138031	 0.8378644515	 0.290378
H	 0.865255282	-0.4943329974	-0.5535328056	 0.133509
H	-0.0382386924	-1.6563894308	 1.5872280381	 0.124353
H	-0.2189375609	 0.2523192181	 2.9212682833	 0.305837
H	-3.328783043	 0.0037396438	 0.5896844712	 0.137568
H	-2.6574136698	 0.8016522819	-0.8811407505	 0.138103
101.7306	122.0293	143.4454	228.9945	234.8795	287.2402	326.8778	482.6533	493.7986	613.3091	625.5874	663.4213	697.338	793.9108	858.7234	890.4908	931.9586	1002.2963	1060.8361	1077.2421	1097.3116	1129.4607	1141.3508	1163.841	1175.1754	1256.32	1291.8239	1324.0159	1356.1844	1410.8905	1483.6044	1517.1713	1931.3812	3077.0581	3130.7946	3140.2133	3171.0114	3729.2624	3800.1121
OC1C(O)C11COC1=O	O[C@H]1[C@@H](O)[C@]21COC2=O	
InChI=1S/C5H6O4/c6-2-3(7)5(2)1-9-4(5)8/h2-3,6-7H,1H2	InChI=1S/C5H6O4/c6-2-3(7)5(2)1-9-4(5)8/h2-3,6-7H,1H2/t2-,3+,5+
