16
gdb 6963	2.66324	2.3129	1.68983	3.3076	59.84	-0.2679	0.0042	0.2721	824.2727	0.130334	-420.926835	-420.919164	-420.91822	-420.958514	28.731	
C	 0.2885326504	 1.4929851972	-0.0152830055	-0.432281
C	-0.1126695125	 0.0095569972	-0.0450702375	 0.262136
O	-1.5163808437	-0.1309110791	-0.0170529294	-0.477591
C	 0.5163432858	-0.7649921516	-1.2084257368	-0.27259
C	 1.8525334647	-1.2300693961	-0.6096084244	-0.093015
O	 1.6238883725	-1.3628397689	 0.8125576994	-0.21748
C	 0.4977978273	-0.7110074269	 1.1664005538	 0.412518
O	 0.0395152973	-0.7179579459	 2.2754808879	-0.366398
H	 1.3725558946	 1.6293874555	-0.0941010532	 0.118874
H	-0.1922943095	 2.007284517	-0.8518011849	 0.132661
H	-0.0464726003	 1.953004102	 0.9186240224	 0.135623
H	-1.7679469306	-0.12459195	 0.9175179817	 0.292017
H	-0.1239151282	-1.6197634156	-1.4412578008	 0.131787
H	 0.6503610898	-0.1697857344	-2.1138167802	 0.11637
H	 2.1866255458	-2.2014465895	-0.9780308251	 0.13359
H	 2.6563547166	-0.5017884109	-0.7608933576	 0.123779
107.0402	199.328	208.8329	242.8729	293.867	338.2959	377.9903	422.366	550.8817	600.8946	672.639	733.8131	760.753	827.1571	934.8881	952.7045	976.9959	1010.0059	1043.5322	1118.3326	1157.9575	1175.8293	1221.7529	1242.3706	1257.2384	1329.6708	1393.3467	1401.6243	1410.4842	1481.8764	1490.7557	1496.9203	1524.1383	1869.1736	3035.813	3051.2291	3072.6669	3109.3245	3115.343	3125.0514	3130.0292	3744.0572
CC1(O)CCOC1=O	C[C@@]1(O)CCOC1=O	
InChI=1S/C5H8O3/c1-5(7)2-3-8-4(5)6/h7H,2-3H2,1H3	InChI=1S/C5H8O3/c1-5(7)2-3-8-4(5)6/h7H,2-3H2,1H3/t5-/m1/s1
