23
gdb 117837	2.49302	1.04126	0.87311	2.8229	78.86	-0.2527	0.0703	0.3231	1466.7884	0.203374	-462.554117	-462.543042	-462.542098	-462.590298	40.228	
C	 0.3640572549	 1.6211705936	-0.2539357731	-0.395301
C	 0.1874112636	 0.1060838726	-0.1174581779	-0.20287
C	 0.629777455	-0.4715104357	 1.2404955475	 0.306614
O	 1.9396865453	-0.0015218883	 1.523622617	-0.471552
C	-0.3076461997	-0.0343734596	 2.3904577549	-0.107766
O	 0.304552783	-0.2527163708	 3.6532764008	-0.434206
C	 0.6528549768	-2.0065033895	 1.1201074556	-0.082609
O	 0.8818716824	-2.593679097	 2.3940259342	-0.258695
C	 0.9635088271	-4.0008778212	 2.354592537	-0.233538
H	 1.3922752926	 1.904389175	-0.0209292797	 0.141547
H	 0.1364231515	 1.9390517944	-1.2758073312	 0.10785
H	-0.2992325214	 2.1777471104	 0.4153148653	 0.114743
H	-0.8590033397	-0.1736427506	-0.2941421747	 0.092983
H	 0.7749331729	-0.3898058447	-0.9005770426	 0.101248
H	 1.9943470613	 0.0270380817	 2.4901261627	 0.284722
H	-0.4976444659	 1.0400253696	 2.3289530353	 0.111619
H	-1.2731343857	-0.5557422914	 2.309645139	 0.088743
H	 0.4655594541	-1.2068524699	 3.6970590488	 0.293924
H	-0.3019711075	-2.3743914098	 0.7088857551	 0.082972
H	 1.4586250806	-2.2928246294	 0.4279306018	 0.100729
H	 0.0290239841	-4.450387555	 1.985652605	 0.110683
H	 1.7879455182	-4.3347583012	 1.7076553928	 0.116435
H	 1.1478851263	-4.3490315633	 3.3734957463	 0.131726
70.9588	86.3774	100.1463	150.3619	178.4262	213.4914	226.6907	256.2761	291.8629	339.0648	357.8314	374.9032	404.5227	461.9443	538.3579	606.1584	686.8655	778.0516	815.0375	911.0169	935.3613	963.0287	995.3349	1036.9795	1061.3873	1083.5296	1105.9412	1143.2617	1174.1675	1181.3078	1207.37	1228.4403	1256.6647	1276.949	1328.5602	1368.9029	1379.0602	1402.4171	1408.8062	1430.8159	1459.6683	1474.8556	1481.4624	1485.4899	1495.9392	1499.2474	1500.9213	1510.9459	1520.8986	2963.1949	2983.6139	2995.9358	3015.5401	3020.8317	3033.6446	3045.7424	3055.6558	3097.3042	3108.0023	3119.5046	3137.9593	3715.2185	3732.6852
CCC(O)(CO)COC	CC[C@@](O)(CO)COC	
InChI=1S/C6H14O3/c1-3-6(8,4-7)5-9-2/h7-8H,3-5H2,1-2H3	InChI=1S/C6H14O3/c1-3-6(8,4-7)5-9-2/h7-8H,3-5H2,1-2H3/t6-/m1/s1
