23
gdb 121414	3.94323	0.8031	0.70387	2.1485	82.4	-0.2431	0.0816	0.3247	1648.3477	0.207013	-425.438865	-425.42942	-425.428475	-425.47351	35.628	
O	 0.1289046796	 1.4185814544	 0.105686275	-0.420406
C	 0.0792699475	 0.0002685051	 0.0329132827	-0.0692
C	-1.3535289544	-0.5370313747	 0.0369156098	-0.219136
C	-1.4301466389	-2.0600618371	 0.0202702554	 0.135331
C	-2.8630262141	-2.5942550799	 0.142579023	-0.197819
C	-2.8877151938	-4.1231410442	 0.0065891442	-0.212939
C	-2.1461655957	-4.5542230963	-1.2665051588	-0.192833
C	-0.7590806435	-3.9108053747	-1.3052609644	-0.063251
O	-0.8319986724	-2.4988204538	-1.1983617717	-0.263518
H	-0.24730438	 1.7647399296	-0.7096475295	 0.279402
H	 0.6157596043	-0.380523044	-0.8461027904	 0.106726
H	 0.6131150395	-0.3579954193	 0.9207616806	 0.104389
H	-1.8725769469	-0.1584622723	 0.9248674528	 0.102152
H	-1.8910025495	-0.1535129442	-0.8411918075	 0.091438
H	-0.8376081509	-2.4603479062	 0.8655281222	 0.058155
H	-3.2906725344	-2.2820306119	 1.1021784707	 0.093378
H	-3.4723116788	-2.1392862733	-0.6492400164	 0.098031
H	-2.3968130708	-4.5726060183	 0.8809377768	 0.094896
H	-3.9182026057	-4.4937621501	 0.0018821865	 0.095333
H	-2.0503788791	-5.6449070015	-1.3180897912	 0.092636
H	-2.7086436434	-4.2333110576	-2.1520539956	 0.101911
H	-0.1356708954	-4.3178607587	-0.4894653898	 0.082329
H	-0.2479208231	-4.1178548009	-2.2503298444	 0.102994
76.7767	85.2143	109.385	187.8591	241.565	289.1142	319.2276	334.1476	357.9597	456.1477	481.6076	510.6079	600.2212	770.6424	816.6115	847.4347	868.8024	898.2054	928.1542	974.8406	1008.4568	1016.5938	1062.3831	1075.3603	1095.9324	1112.9575	1116.6444	1127.2867	1196.9367	1207.3583	1225.4814	1284.0566	1288.0741	1300.1128	1323.5658	1346.4033	1366.2462	1376.8936	1383.449	1391.3626	1411.0126	1416.9391	1421.7023	1469.7667	1476.2646	1482.3885	1491.6997	1501.9409	1515.6012	2915.9709	2951.5853	3013.652	3015.9838	3019.5766	3024.7507	3027.9229	3058.7417	3066.1975	3070.2692	3075.4545	3080.3652	3083.7552	3816.7031
OCCC1CCCCO1	OCC[C@H]1CCCCO1	
InChI=1S/C7H14O2/c8-5-4-7-3-1-2-6-9-7/h7-8H,1-6H2	InChI=1S/C7H14O2/c8-5-4-7-3-1-2-6-9-7/h7-8H,1-6H2/t7-/m1/s1
