17
gdb 33417	2.56672	1.29293	0.95877	3.8523	72.98	-0.2637	0.0149	0.2786	1224.2096	0.13512	-417.95196	-417.943257	-417.942313	-417.986228	31.063	
N	-1.2650900823	-0.6217921555	 0.2092563877	-0.329796
C	-0.5890662902	 0.3149257796	 0.255419669	 0.265657
C	 0.2216161448	 1.5542781746	 0.2626539165	-0.134302
C	 1.605975502	 1.279600638	-0.3102748381	 0.10325
C	 2.7743055542	 1.9865151224	 0.2156676919	-0.1736
O	 2.5181007259	 0.6189905047	 0.5557812159	-0.227777
N	-0.379852534	 2.6789702584	-0.4516552099	-0.082154
C	-1.1732110046	 2.4263672947	-1.6554130975	-0.232858
C	-1.826627931	 2.8738142777	-0.3948443692	-0.230249
H	 0.3483784139	 1.8528040886	 1.3097381782	 0.13941
H	 1.613362874	 0.9322605008	-1.3430879254	 0.11359
H	 3.6351098832	 2.1551502165	-0.4280631683	 0.126801
H	 2.6459037224	 2.7031074446	 1.0250616145	 0.125283
H	-1.0033737259	 3.1229973868	-2.4703449553	 0.127032
H	-1.348287231	 1.3953633785	-1.9546796363	 0.141105
H	-2.4271591624	 2.135577378	 0.1317224092	 0.141008
H	-2.1439930091	 3.9043492015	-0.2694341831	 0.127598
62.0574	79.0359	139.0021	160.9935	185.8736	310.9096	366.4059	379.8316	444.1278	540.5137	601.7574	790.3872	827.2009	845.404	874.9318	908.4845	923.1752	995.0074	1031.3172	1051.1693	1096.2718	1120.7353	1132.3745	1138.708	1159.334	1170.6272	1179.4902	1191.0773	1271.9194	1292.9676	1315.9037	1329.5898	1440.5067	1488.3464	1515.9556	1530.6304	2345.1959	3051.5971	3093.5217	3109.5741	3112.2068	3120.7526	3183.8332	3194.4318	3207.5087
N#CC(C1CO1)N1CC1	N#C[C@@H]([C@H]1CO1)N1CC1	
InChI=1S/C6H8N2O/c7-3-5(6-4-9-6)8-1-2-8/h5-6H,1-2,4H2	InChI=1S/C6H8N2O/c7-3-5(6-4-9-6)8-1-2-8/h5-6H,1-2,4H2/t5-,6+/m0/s1
