14
gdb 29545	3.39328	1.78848	1.17406	5.3546	68.85	-0.2085	0.0176	0.2261	961.0357	0.104235	-432.8939	-432.887135	-432.886191	-432.924864	26.565	
N	 0.1041469681	 1.4288189499	 0.1485941142	-0.601343
C	 0.0139973824	 0.0471796218	 0.015672579	 0.26089
C	-1.0340250755	-0.8100683305	-0.0329155119	-0.130037
O	-0.5967595362	-2.132938446	-0.0453192229	-0.224029
C	 0.7472683306	-2.0628494915	-0.0329356707	 0.502757
N	 1.7127863262	-2.9361522477	-0.0482347201	-0.398478
C	 2.8413959036	-2.1301530047	-0.0045560878	-0.084878
C	 2.5401226899	-0.7883677211	 0.0358974613	-0.172832
N	 1.1517375549	-0.7578367768	 0.0154517715	-0.060851
H	 0.6853532306	 1.8561981941	-0.5653201647	 0.25933
H	-0.8053855974	 1.8721026472	 0.1506214557	 0.259108
H	-2.0976938602	-0.6572714213	-0.042176874	 0.145017
H	 3.8267528914	-2.5711641903	-0.002603427	 0.113197
H	 3.1453465417	 0.098669867	 0.0935063075	 0.13215
167.8639	224.2963	236.562	289.7069	399.1047	568.0348	587.8823	610.0331	641.4615	652.1472	668.0778	722.916	747.6189	776.347	796.568	846.557	951.8752	1060.0692	1090.5279	1115.545	1156.9538	1191.3885	1250.7052	1286.4861	1336.0659	1424.463	1484.731	1510.4212	1620.5444	1642.9037	1706.9064	3251.5892	3297.2121	3308.8947	3512.7802	3618.7732
NC1=COC2=NC=CN12	Nc1coc2nccn12	
InChI=1S/C5H5N3O/c6-4-3-9-5-7-1-2-8(4)5/h1-3H,6H2	InChI=1S/C5H5N3O/c6-4-3-9-5-7-1-2-8(4)5/h1-3H,6H2
