25
gdb 100051	2.9135	1.01048	0.92311	1.3492	88.51	-0.263	0.0729	0.3358	1427.8056	0.227605	-389.481445	-389.470787	-389.469842	-389.516819	40.285	
C	 0.2474433826	 1.4949944808	 0.0525266036	-0.41075
C	-0.0143466979	-0.0228230681	 0.1008327947	 0.225441
C	 0.412723493	-0.5692026313	 1.4753068329	-0.424229
C	-1.5164466252	-0.2890968006	-0.1022987376	-0.083321
O	-2.2543767266	 0.3562907419	 0.9277833947	-0.428766
C	 0.7320531501	-0.6923451617	-1.0700280115	 0.057004
C	 2.2877986259	-0.7171036891	-1.1279858121	-0.246515
C	 2.1959366157	-2.1078386039	-1.8116636074	-0.214844
C	 0.7481391091	-2.2382266208	-1.2681804883	-0.247503
H	 1.3103395859	 1.7120339556	 0.1997300432	 0.108318
H	-0.0491273335	 1.9154384125	-0.9154592122	 0.100428
H	-0.320512534	 2.0107167522	 0.8304365702	 0.128384
H	-0.1961838921	-0.1132190398	 2.2592059949	 0.131846
H	 0.2777425023	-1.6536028734	 1.5442074076	 0.105111
H	 1.4622093061	-0.3450744403	 1.6880238865	 0.107242
H	-1.8198743525	 0.0870053142	-1.0931703269	 0.077487
H	-1.6993889542	-1.3753354803	-0.0906026951	 0.083975
H	-3.1855665128	 0.1548565209	 0.8018982982	 0.286244
H	 0.3668455165	-0.235411298	-1.999562418	 0.062972
H	 2.7889892013	 0.0888049517	-1.6696102137	 0.09343
H	 2.7331129768	-0.7941369638	-0.1319439435	 0.101846
H	 2.2126146385	-2.0241583778	-2.9022413942	 0.09977
H	 2.9206480489	-2.8687435311	-1.5125001364	 0.09407
H	 0.7283136454	-2.774807964	-0.3153088953	 0.101767
H	-0.0079522891	-2.6751677057	-1.9257554842	 0.09059
57.8561	110.2381	133.4046	170.3973	223.9984	225.3251	254.1892	261.1616	304.3365	333.1118	374.3531	376.4795	446.827	537.2664	642.8277	728.1856	786.0485	811.0231	891.8455	927.8585	935.7441	940.6529	956.6821	959.7846	978.3295	1013.2484	1040.3972	1063.5296	1084.6808	1122.6329	1189.8475	1198.0347	1211.5229	1234.0699	1247.2962	1255.2058	1265.4892	1276.9636	1289.6448	1302.406	1307.576	1379.5623	1396.3028	1412.4938	1457.3387	1477.2649	1482.1748	1488.0771	1496.2147	1499.8039	1511.3501	1517.3196	1518.5239	2957.3284	2990.7851	3009.355	3029.4722	3040.6737	3052.6496	3055.3249	3062.4915	3092.239	3094.8752	3101.3253	3107.9558	3118.7722	3122.5096	3126.895	3837.3257
CC(C)(CO)C1CCC1	CC(C)(CO)C1CCC1	
InChI=1S/C8H16O/c1-8(2,6-9)7-4-3-5-7/h7,9H,3-6H2,1-2H3	InChI=1S/C8H16O/c1-8(2,6-9)7-4-3-5-7/h7,9H,3-6H2,1-2H3
