15
gdb 110180	2.82989	1.14999	0.89675	3.3919	68.3	-0.2801	-0.0063	0.2739	1252.848	0.110886	-457.742349	-457.733692	-457.732748	-457.776218	31.128	
O	 0.0392599169	 1.3905370053	 0.0210343675	-0.413401
C	-0.021337203	 0.0025928775	-0.2166251087	-0.081848
C	-1.4485503826	-0.5109091251	-0.0047605452	-0.229122
C	-1.7076177029	-2.0319619893	 0.1713393079	-0.091929
O	-2.1575444249	-1.7810989011	 1.5627034879	-0.242659
C	-1.8954049674	-0.4434044568	 1.4493984957	 0.467363
O	-1.9512035139	 0.3921802578	 2.2976956642	-0.333675
C	-2.7224528225	-2.6496335443	-0.6502885271	 0.328662
C	-3.5552463684	-3.154857926	-1.3530798699	-0.417387
H	-0.2914632783	 1.5504904699	 0.9145230985	 0.303244
H	 0.2919429862	-0.1563478881	-1.253121828	 0.125213
H	 0.6733533196	-0.5587825984	 0.4297697934	 0.099613
H	-2.1411985678	-0.0210824849	-0.6911477062	 0.138183
H	-0.7968872626	-2.6367415355	 0.2075073858	 0.131773
H	-4.2937779784	-3.6066340011	-1.9692583857	 0.215968
82.3872	98.7021	134.5934	166.2414	220.6669	305.1983	376.3852	445.3781	457.5911	496.6344	586.9671	638.037	690.5548	723.5303	752.5901	836.0389	886.2214	973.3649	1049.2284	1059.118	1085.0512	1099.3771	1137.9782	1185.9314	1218.9807	1264.6029	1324.0933	1368.5097	1388.1803	1437.2116	1513.7434	1918.3339	2245.2152	2970.0215	3072.107	3078.8932	3114.0437	3499.5546	3772.0544
OCC1C(OC1=O)C#C	OC[C@H]1[C@@H](OC1=O)C#C	
InChI=1S/C6H6O3/c1-2-5-4(3-7)6(8)9-5/h1,4-5,7H,3H2	InChI=1S/C6H6O3/c1-2-5-4(3-7)6(8)9-5/h1,4-5,7H,3H2/t4-,5-/m0/s1
