20
gdb 10498	2.7439	1.32753	1.00807	0.1301	84.82	-0.2252	0.0619	0.287	1260.9681	0.175031	-311.84343	-311.833679	-311.832735	-311.879268	34.531	
C	-0.3674065791	 1.4190022761	-0.0186446887	-0.375687
C	 0.2025737991	-0.0010127156	-0.0778088583	-0.250192
C	 0.8063339883	-0.4683159053	 1.2451376962	 0.189146
C	-0.1381308265	-1.0498077686	 2.2889244455	-0.289035
C	 0.7980329619	-1.9598583548	 1.5454050244	-0.306246
C	 1.9343256839	 0.2959350062	 1.7160235365	 0.017454
C	 2.8792955881	 0.9465253299	 2.0868409637	 0.070766
C	 4.0222965647	 1.7255153058	 2.5425826404	-0.50065
H	 0.4091961277	 2.1372287963	 0.2603735337	 0.128414
H	-0.7758974899	 1.7182652314	-0.9888079743	 0.107845
H	-1.1700273824	 1.4909552949	 0.7229557183	 0.113417
H	-0.5869824345	-0.706561757	-0.3643186921	 0.08991
H	 0.9713553256	-0.0593817599	-0.8578975665	 0.102323
H	 0.0708132246	-0.8392431439	 3.3308599576	 0.120748
H	-1.1929126846	-1.0785751147	 2.0355408793	 0.113025
H	 0.3862714788	-2.6141359357	 0.7841344189	 0.112653
H	 1.6478382787	-2.3670827076	 2.0800819278	 0.120694
H	 4.7850194699	 1.084832449	 2.9996311943	 0.14512
H	 4.4972682254	 2.2572877169	 1.7104190276	 0.14597
H	 3.7298369902	 2.4740730767	 3.2878528659	 0.144326
19.2485	81.2416	104.6426	134.6377	222.2263	227.8717	292.247	302.4594	329.2324	416.6845	529.5333	550.8619	594.4491	779.0523	781.5826	843.9248	876.2371	938.1037	941.5721	1013.4415	1051.8435	1052.8384	1054.8063	1071.7248	1078.3881	1098.6499	1120.9848	1192.2539	1268.5475	1291.043	1358.9786	1375.6004	1408.8749	1415.4279	1463.0419	1478.1427	1480.234	1481.5417	1495.431	1496.172	1508.2161	2362.7721	3022.8535	3023.5361	3036.595	3059.3756	3080.8046	3083.5656	3104.2478	3114.0837	3132.3936	3137.04	3217.9912	3232.5484
CCC1(CC1)C#CC	CCC1(CC1)C#CC	
InChI=1S/C8H12/c1-3-5-8(4-2)6-7-8/h4,6-7H2,1-2H3	InChI=1S/C8H12/c1-3-5-8(4-2)6-7-8/h4,6-7H2,1-2H3
