21
gdb 88758	3.83367	1.01707	0.90101	1.8002	82.73	-0.248	0.0826	0.3306	1362.1209	0.182474	-387.040729	-387.032095	-387.031151	-387.074685	33.029	
C	 0.0108015979	 1.5042868943	-0.2990909594	-0.421064
C	-0.0255415922	 0.0253662343	-0.0057627029	 0.075587
O	 1.2170975236	-0.6847700577	-0.0161466806	-0.268442
C	 0.4899729889	-0.6113821804	 1.220509116	 0.047334
C	 1.1415951292	 0.1245840309	 2.3588291954	-0.008474
C	 0.2665271819	 0.5332476068	 3.5986438165	-0.265442
C	 1.2463342947	-0.2108926393	 4.5153168942	-0.035126
C	 1.2997077451	-1.6605153873	 4.1311739483	-0.276502
C	 2.066493619	-0.6633903425	 3.3050183838	-0.058028
H	 0.8108867357	 2.0107704878	 0.2437614293	 0.127433
H	 0.1716929755	 1.6711689012	-1.3694346077	 0.1289
H	-0.9439902169	 1.9687560276	-0.0290725974	 0.120791
H	-0.8291668057	-0.5069252228	-0.5209216847	 0.082988
H	 0.0263089741	-1.5596702453	 1.5019392013	 0.082186
H	 1.6682189209	 0.9972165075	 1.9685842809	 0.079753
H	 0.2463966561	 1.6146822579	 3.7474347032	 0.105035
H	-0.7647314435	 0.1629120482	 3.6123808509	 0.093864
H	 1.5921165676	 0.1412092357	 5.4792583316	 0.084529
H	 1.9149654056	-2.2904757034	 4.7656482289	 0.111845
H	 0.416007811	-2.1620213716	 3.742769196	 0.104705
H	 3.1416812616	-0.7336108519	 3.1937462964	 0.088125
39.5192	129.097	147.7797	185.3456	216.0027	363.7128	382.0465	407.7282	471.5387	545.806	694.7131	774.2453	783.169	803.4021	822.0263	879.4469	937.8916	944.6195	968.3619	974.0678	998.0933	1018.3188	1035.5552	1056.7934	1070.7153	1085.9892	1098.608	1131.6051	1148.238	1173.9616	1190.6416	1213.3794	1240.8129	1258.656	1297.0814	1303.5511	1310.8488	1365.0336	1405.6615	1423.5473	1470.7195	1484.4545	1489.7561	1501.5067	1512.5626	3038.6015	3040.4817	3068.9981	3082.2478	3090.3659	3097.9839	3108.1755	3110.1665	3136.9304	3179.2797	3186.327	3200.8392
CC1OC1C1CC2CC12	C[C@H]1O[C@H]1[C@H]1C[C@H]2C[C@@H]12	
InChI=1S/C8H12O/c1-4-8(9-4)7-3-5-2-6(5)7/h4-8H,2-3H2,1H3	InChI=1S/C8H12O/c1-4-8(9-4)7-3-5-2-6(5)7/h4-8H,2-3H2,1H3/t4-,5-,6-,7+,8-/m1/s1
