17
gdb 7112	6.40545	0.89896	0.85465	2.8605	70.81	-0.2468	0.0091	0.2558	1367.143	0.142313	-397.231709	-397.222468	-397.221524	-397.266695	31.809	
C	 0.6303273904	 1.3996680343	 0.2180147183	-0.373448
C	-0.2416096467	 0.1718607025	-0.0564201005	-0.140453
N	-0.2055885055	-0.8199022609	 1.0103629539	-0.37046
C	 0.7533851889	-1.7983953277	 1.021768488	 0.528469
O	 1.5346391821	-1.9943039454	 0.1089580374	-0.400861
N	 0.741472499	-2.5818616894	 2.1764579668	-0.353936
C	 1.6222463063	-3.6254824932	 2.3826708004	 0.106497
N	 1.5508843601	-4.3260883763	 3.4415013569	-0.480242
H	 1.6777154171	 1.1051782819	 0.326038672	 0.141384
H	 0.556864819	 2.1128808307	-0.6092511618	 0.120408
H	 0.3188859196	 1.91359793	 1.1339564312	 0.109361
H	-1.2854561061	 0.4662936545	-0.2089988616	 0.105786
H	 0.0978642081	-0.3353706386	-0.9615181892	 0.1495
H	-0.674391074	-0.591983307	 1.8728651492	 0.238943
H	 0.0463743896	-2.4459240073	 2.8962601204	 0.251085
H	 2.3250793872	-3.732878051	 1.5543918921	 0.13924
H	 2.2703415549	-5.046107427	 3.4335181064	 0.228728
39.8617	59.1495	131.3852	163.4287	165.5994	239.3449	321.1104	362.1246	393.3578	460.6282	522.5652	579.1795	724.6917	767.0647	821.462	825.1738	905.3318	1006.7945	1065.3275	1085.8678	1106.5899	1155.6949	1170.2764	1224.1576	1312.3408	1330.6692	1388.805	1396.5862	1410.2787	1473.2267	1480.3751	1493.542	1502.1765	1550.5567	1729.088	1796.0686	3035.6294	3050.7448	3099.1889	3119.6988	3125.74	3131.8286	3510.3713	3609.2856	3625.9804
CCNC(=O)NC=N	CCNC(=O)NC=N	
InChI=1S/C4H9N3O/c1-2-6-4(8)7-3-5/h3H,2H2,1H3,(H3,5,6,7,8)	InChI=1S/C4H9N3O/c1-2-6-4(8)7-3-5/h3H,2H2,1H3,(H3,5,6,7,8)
