19
gdb 106881	2.19241	1.46287	1.04407	2.5931	77.75	-0.2484	-0.03	0.2184	1187.2879	0.158304	-423.007775	-422.998778	-422.997834	-423.041717	33.278	
O	 0.2662609323	 1.1384838596	 0.2895300871	-0.411939
C	 0.0355823747	-0.2166172572	-0.080473552	-0.17821
C	-1.429441486	-0.5478221772	-0.1060973939	 0.289097
C	-2.1746136918	-0.9712093055	 1.1124816783	-0.372648
C	-2.0913024306	-1.9724098763	-0.0201499047	 0.202851
C	-3.0584243336	-1.593092322	-1.1462192757	-0.305675
C	-2.4104255141	-0.1732572771	-1.2262430568	-0.275831
C	-1.3645375559	-3.238352278	 0.1381618103	 0.055823
O	-0.5415342864	-3.4608839223	 1.0001348155	-0.280455
H	-0.0618065247	 1.2514203117	 1.1878793341	 0.283856
H	 0.467089387	-0.3198563504	-1.0818875952	 0.110257
H	 0.560083726	-0.9196351414	 0.5822274946	 0.117272
H	-1.5670462485	-1.2437567312	 1.9699418244	 0.140592
H	-3.1457084664	-0.540947617	 1.3469745643	 0.115286
H	-2.8976706413	-2.1763184274	-2.0565526885	 0.112183
H	-4.1215968063	-1.6343671684	-0.8895996771	 0.104596
H	-3.0652113723	 0.676125687	-1.0108759492	 0.10777
H	-1.9100474401	 0.0071936268	-2.1799476774	 0.114144
H	-1.606417602	-4.0071287337	-0.6311693382	 0.071028
75.0012	109.3115	134.3952	201.1237	221.4147	292.7768	302.0883	372.3856	394.9832	435.4694	533.0439	682.7107	723.7551	786.4917	800.1778	817.5162	938.3014	951.5933	954.5209	984.0742	1018.3164	1037.6749	1057.9833	1086.2042	1114.5156	1139.8996	1198.8116	1215.0459	1245.5687	1250.4013	1296.1155	1333.2107	1365.8867	1404.4329	1423.6493	1433.9632	1477.4113	1482.1737	1501.5982	1510.7924	1783.1622	2868.3948	3008.5373	3047.9402	3059.4632	3073.3758	3097.8938	3106.5362	3118.8043	3207.0944	3811.3603
OCC12CC1(CC2)C=O	OC[C@]12C[C@]1(CC2)C=O	
InChI=1S/C7H10O2/c8-4-6-1-2-7(6,3-6)5-9/h4,9H,1-3,5H2	InChI=1S/C7H10O2/c8-4-6-1-2-7(6,3-6)5-9/h4,9H,1-3,5H2/t6-,7+/m1/s1
