17
gdb 12523	3.20906	2.02714	1.42432	1.8903	71.41	-0.2406	0.0044	0.245	902.6006	0.143205	-363.861439	-363.853822	-363.852878	-363.894206	28.019	
C	-0.6667422841	 1.4578529642	 0.0919289635	-0.373022
C	 0.0536747111	 0.0928440085	 0.0197007954	-0.005079
C	 0.6283000792	-0.1083422118	-1.3617077062	-0.038726
C	 1.8971671238	-0.0249264127	-1.7470937997	-0.103152
C	 3.0631063746	 0.3032700783	-0.8597718382	-0.131957
O	 3.1279676442	-0.3757692764	 0.39864749	-0.218594
C	 2.1153691268	-0.2774278568	 1.297161645	 0.124299
N	 0.8797773225	-0.0597641917	 1.2014165149	-0.267639
H	 0.0512763323	 2.2739485703	-0.0337403733	 0.118252
H	-1.4232939112	 1.5418321565	-0.6939524971	 0.11234
H	-1.1510107256	 1.5676374437	 1.0652338958	 0.129932
H	-0.7305539293	-0.6699801274	 0.1410767457	 0.102685
H	-0.126052293	-0.3126895098	-2.1206769086	 0.092543
H	 2.1391437733	-0.1610288819	-2.7982225083	 0.096302
H	 4.0001283438	 0.0342095453	-1.3534105763	 0.12375
H	 3.0992428899	 1.3856456278	-0.6655734323	 0.121513
H	 2.5332093918	-0.4613018063	 2.2887838797	 0.116552
28.2524	130.5786	235.7318	245.8127	312.2187	368.1628	412.907	509.1774	588.348	696.7638	744.147	787.673	827.9063	900.8357	915.9964	967.932	999.8448	1015.7023	1018.9285	1056.8346	1092.9522	1150.545	1177.4326	1268.1346	1289.0289	1304.4128	1381.6516	1391.6475	1409.5394	1425.0171	1444.6865	1485.8178	1491.0042	1496.8798	1747.2691	1773.8497	2983.1459	2996.0737	3040.4374	3095.1425	3113.6338	3118.5499	3127.8412	3129.0889	3162.3398
CC1C=CCOC=N1	C[C@H]1C=CCOC=N1	
InChI=1S/C6H9NO/c1-6-3-2-4-8-5-7-6/h2-3,5-6H,4H2,1H3	InChI=1S/C6H9NO/c1-6-3-2-4-8-5-7-6/h2-3,5-6H,4H2,1H3/t6-/m0/s1
