18
gdb 102203	3.20394	0.88058	0.7805	3.6383	76.67	-0.2489	0.0045	0.2534	1451.4989	0.14706	-398.1461	-398.136066	-398.135122	-398.182131	34.76	
C	 0.0002185133	 1.4610929663	 0.2044507756	-0.336772
N	-0.0369619943	 0.0215151759	-0.0301380483	-0.260865
C	 0.6619441823	-0.500380363	-1.1866338074	 0.01551
C	-0.0495786037	-0.0999336558	-2.5004444297	-0.357691
C	-1.4292012486	-0.5750293814	-2.5596557346	 0.281879
N	-2.5157194549	-0.9600452488	-2.6312738735	-0.299948
C	 2.1710218243	-0.1084307116	-1.3047438769	-0.369367
C	 2.9027803928	-0.4552141128	-0.0918501018	 0.260184
N	 3.4413910088	-0.740912176	 0.8899731383	-0.30022
H	 1.0085967245	 1.8885729708	 0.3266413776	 0.109245
H	-0.5000768443	 1.9941055997	-0.6103853094	 0.129782
H	-0.5624787938	 1.6750570933	 1.116250185	 0.14143
H	 0.254174835	-0.4781190951	 0.8009787007	 0.244184
H	 0.618732482	-1.5914060748	-1.1070734142	 0.123398
H	-0.0458875284	 0.9891090096	-2.6204203788	 0.154088
H	 0.496556353	-0.509842089	-3.3571996935	 0.153906
H	 2.6283647557	-0.6235079779	-2.1567188013	 0.155377
H	 2.2777356562	 0.9667635204	-1.486605788	 0.155879
48.6678	61.5438	103.4274	117.2963	180.4125	231.283	268.5661	314.0329	375.6792	391.9712	398.5294	465.8788	529.243	625.3832	703.1925	828.4034	870.3742	909.8157	979.8108	1000.9001	1019.8811	1040.7208	1151.0074	1155.2217	1194.3286	1209.1596	1271.71	1281.2719	1339.9142	1367.3766	1403.7925	1455.6292	1458.6345	1480.0985	1497.1153	1501.9565	1529.4757	2360.9237	2369.4609	2973.1109	3045.7948	3048.8764	3061.7301	3073.3895	3085.1786	3093.7489	3119.0056	3559.1413
CNC(CC#N)CC#N	CNC(CC#N)CC#N	
InChI=1S/C6H9N3/c1-9-6(2-4-7)3-5-8/h6,9H,2-3H2,1H3	InChI=1S/C6H9N3/c1-9-6(2-4-7)3-5-8/h6,9H,2-3H2,1H3
