20
gdb 17258	3.00923	2.09108	1.75803	0.2208	79.96	-0.2622	0.0941	0.3563	878.7303	0.177435	-311.807703	-311.800286	-311.799341	-311.838739	30.11	
C	-0.01551691	 1.4787859236	 0.011505161	-0.517786
C	 0.008792285	-0.0254130206	-0.0010633765	 0.256565
C	 0.6396224497	-0.9674805414	-1.0808421019	-0.252301
C	 0.0222917185	-1.9233417027	-0.017011993	-0.130165
C	 0.6293093112	-0.9856151887	 1.0686693873	-0.252302
C	-1.2002875323	-0.9916377637	-0.0150177089	 0.446221
C	-2.4793634648	-1.0063370927	 0.7445698874	-0.376605
C	-2.4720042889	-0.9933986575	-0.7869995036	-0.376605
H	 1.0000210575	 1.8891916356	 0.019338447	 0.120043
H	-0.5277478539	 1.8729759573	-0.8735277327	 0.1186
H	-0.5353933244	 1.8580506077	 0.8985972683	 0.118603
H	 0.1702574035	-0.9611942711	-2.0680034704	 0.089408
H	 1.7317205808	-0.9586347886	-1.1502253454	 0.08171
H	 0.0240852511	-3.0138767173	-0.0262036954	 0.068014
H	 1.7206900605	-0.9780406609	 1.1486749137	 0.081711
H	 0.1504869293	-0.99593847	 2.0512444326	 0.089407
H	-2.7879112446	-1.9225407206	 1.2391308147	 0.109643
H	-2.8024882323	-0.1014174497	 1.2510966798	 0.108099
H	-2.79031416	-0.0800179906	-1.2812407537	 0.108098
H	-2.775717036	-1.9010845179	-1.2999183504	 0.109644
177.6119	189.1945	211.3751	235.1179	327.4124	368.2328	475.2053	605.5785	618.5209	629.3245	749.3021	780.0596	782.707	895.7223	898.5988	908.3589	930.9215	963.9848	974.2082	1014.0433	1025.75	1042.8665	1058.7767	1077.8355	1080.2372	1104.1501	1167.4479	1175.7699	1181.5369	1183.4531	1211.3303	1224.9252	1236.5897	1324.3785	1404.5884	1414.0942	1460.7254	1489.0596	1490.4131	1491.3562	1508.2676	1541.6371	3024.1226	3041.6813	3046.968	3089.7478	3093.6983	3107.0671	3110.6556	3114.0231	3114.5947	3118.0932	3189.685	3204.1209
CC12CC(C1)C21CC1	C[C@@]12C[C@@H](C1)C12CC1	
InChI=1S/C8H12/c1-7-4-6(5-7)8(7)2-3-8/h6H,2-5H2,1H3	InChI=1S/C8H12/c1-7-4-6(5-7)8(7)2-3-8/h6H,2-5H2,1H3/t6-,7+
