22
gdb 74491	2.68319	1.31923	0.98286	1.6384	91.19	-0.2138	0.0224	0.2362	1284.0904	0.196045	-367.218087	-367.20951	-367.208565	-367.250971	34.102	
C	 0.008409204	 1.5245498579	-0.0257050365	-0.472843
C	-0.0083442377	 0.0220035263	 0.0280778659	 0.282892
C	-1.1462916533	-0.6808139755	 0.0474961878	-0.195783
C	-1.213971964	-2.162909606	 0.0560412626	 0.337506
C	-2.2563504031	-2.807433675	 0.9127197256	-0.281858
N	-2.3939276327	-2.8202651554	-0.5499723172	-0.367394
C	 0.1096986504	-2.8541765584	-0.2172454556	-0.268111
C	 1.2503237259	-2.1309954393	 0.5072756763	-0.219718
C	 1.3396210913	-0.6654275487	 0.0590102835	-0.285492
H	 0.5674681012	 1.8807131609	-0.9011674416	 0.12268
H	-1.0009647928	 1.9420258904	-0.0761039245	 0.117622
H	 0.5107803297	 1.947807575	 0.8539766861	 0.121701
H	-2.102185274	-0.1564277503	 0.0509946526	 0.06721
H	-2.0563166571	-3.7769526797	 1.3628824557	 0.114214
H	-2.9094264657	-2.1637828283	 1.4972534821	 0.106219
H	-3.0706704436	-2.1175094192	-0.8408144881	 0.225172
H	 0.0534391229	-3.9063906203	 0.0774304754	 0.097117
H	 0.2920506135	-2.8385679389	-1.2996614074	 0.10266
H	 1.0717181696	-2.1663654387	 1.5894429317	 0.09993
H	 2.2028422246	-2.6401242316	 0.3266344262	 0.092099
H	 1.7975280869	-0.603101174	-0.940387478	 0.106405
H	 2.0158156641	-0.1080817712	 0.7207167976	 0.097771
96.9942	146.9579	203.6247	226.1134	271.388	360.6767	386.6082	394.4282	447.364	455.2509	525.1295	572.2007	733.5191	808.6181	830.5981	855.8324	888.6771	901.2533	934.567	941.1102	977.048	987.0591	1037.0009	1044.5732	1052.2547	1084.4001	1107.2456	1137.6083	1163.4034	1174.6315	1217.0839	1257.7554	1275.706	1312.2397	1334.6739	1371.4807	1374.4741	1386.7302	1407.8587	1416.5601	1473.1684	1479.458	1484.9341	1492.0964	1496.4757	1507.5677	1731.4052	2990.2424	3011.9214	3020.8452	3026.7096	3037.2316	3056.6304	3073.8831	3082.1532	3096.5926	3107.7061	3118.7817	3181.9134	3483.4416
CC1=CC2(CN2)CCC1	CC1=C[C@]2(CN2)CCC1	
InChI=1S/C8H13N/c1-7-3-2-4-8(5-7)6-9-8/h5,9H,2-4,6H2,1H3	InChI=1S/C8H13N/c1-7-3-2-4-8(5-7)6-9-8/h5,9H,2-4,6H2,1H3/t8-/m0/s1
