16
gdb 25750	2.81832	1.53306	0.99909	3.1573	74.78	-0.2006	-0.0219	0.1787	1129.6534	0.124559	-437.964229	-437.956073	-437.955129	-437.997226	30.467	
C	 0.1138907371	 1.4601778588	 0.0081640031	-0.486619
C	-0.0004635981	-0.0478289539	 0.0367542628	 0.328355
O	 1.0244204737	-0.7515688743	 0.0688361092	-0.418822
C	-1.2978093013	-0.6656691403	 0.0270690207	 0.037565
C	-1.385858728	-2.0623139109	 0.0549080228	 0.399482
O	-0.3997243978	-2.9418348678	 0.0900892301	-0.415149
N	-2.6888353045	-2.4183117534	 0.0404580236	-0.338352
C	-3.4796203384	-1.2629846143	 0.002423164	-0.069434
C	-2.6537940633	-0.1803030569	-0.006576565	-0.290876
H	 1.1658654996	 1.7473412813	 0.0038832536	 0.14015
H	-0.3821530375	 1.8656360297	-0.8802143765	 0.139728
H	-0.381699823	 1.8966469159	 0.8822064454	 0.140445
H	 0.4113201444	-2.3575720859	 0.0912545385	 0.32865
H	-3.0197879044	-3.3680919521	 0.0547145546	 0.272344
H	-4.5535371569	-1.341861881	-0.0141613009	 0.129002
H	-2.9691835117	 0.8511167749	-0.033676836	 0.103531
74.0482	120.7082	180.4947	198.9193	296.6728	329.8824	480.2299	497.796	508.9427	578.159	619.7289	646.1482	666.9912	735.5002	756.3543	824.2837	870.4578	903.6553	957.4973	1044.5455	1063.9462	1067.6337	1148.9474	1200.6321	1306.1832	1330.3814	1367.2272	1386.858	1456.4993	1468.8147	1475.5776	1557.1529	1575.2963	1614.5352	1693.8501	3039.6148	3100.5794	3152.5823	3168.2834	3252.3886	3281.9419	3675.067
CC(=O)C1=C(O)NC=C1	CC(=O)c1c(O)[nH]cc1	
InChI=1S/C6H7NO2/c1-4(8)5-2-3-7-6(5)9/h2-3,7,9H,1H3	InChI=1S/C6H7NO2/c1-4(8)5-2-3-7-6(5)9/h2-3,7,9H,1H3
