14
gdb 44597	3.48721	1.87383	1.49899	5.5092	66.18	-0.2018	-0.0392	0.1626	842.6568	0.103056	-436.647829	-436.641541	-436.640596	-436.678385	25.068	
O	 0.1923000132	 0.1689643829	 0.5795606915	-0.325283
C	 0.1912958876	 1.2214011128	 0.0246784536	 0.408503
O	-0.9358959127	 2.0733464212	 0.0865417029	-0.251142
C	-0.728976795	 3.2007829482	-0.7492038536	 0.084395
C	 0.4363098855	 4.252597173	-0.6639994255	-0.067969
N	 1.5325534341	 4.1202284196	 0.2772307832	-0.248793
C	 1.8196261969	 2.7940230577	 0.3515686695	 0.027722
C	 1.2458380939	 2.051792707	-0.6629327929	-0.227999
C	 0.5027063701	 3.0513711908	-1.5565062807	-0.144847
H	-1.6620545907	 3.5777945909	-1.1506374409	 0.118474
H	 0.2212646479	 5.2528191272	-1.0204673407	 0.113256
H	 1.646577578	 4.7291914184	 1.0711323301	 0.264342
H	 2.2998493743	 2.3975265009	 1.2397585362	 0.151606
H	 0.585714607	 3.0300602893	-2.6378723126	 0.097734
144.7377	205.9381	302.3044	393.1733	508.9679	578.2624	620.1481	704.3764	712.4648	748.1183	758.0793	815.4231	833.5325	863.2281	920.2125	951.244	982.4099	1013.8544	1041.2626	1052.6626	1086.6341	1146.0495	1168.5235	1190.3367	1247.8708	1284.1838	1329.5061	1377.1674	1450.4955	1525.3721	1895.9026	3152.5345	3185.2382	3195.9122	3202.5001	3647.5657
O=C1OC2C3NC=C1C23	O=C1O[C@H]2[C@H]3N[CH][C]1[C@@H]23	
InChI=1S/C6H5NO2/c8-6-2-1-7-4-3(2)5(4)9-6/h1,3-5,7H	InChI=1S/C6H5NO2/c8-6-2-1-7-4-3(2)5(4)9-6/h1,3-5,7H/t3-,4+,5-/m1/s1
