21
gdb 101486	3.10864	1.07588	0.8854	0.812	75.15	-0.251	0.0871	0.338	1371.0623	0.181553	-461.35191	-461.34218	-461.341236	-461.387298	34.571	
C	 0.0456565971	 1.3957302204	-0.0050163732	-0.235903
O	-0.0988302635	-0.0017780294	-0.1132006083	-0.253424
C	 0.5989218907	-0.5940303113	-1.2013574046	 0.125749
C	 2.1105208718	-0.6379752835	-0.9854085701	-0.414193
C	-0.0031600751	-1.9982838428	-1.3372154792	 0.097839
C	-1.4816650413	-1.9835351432	-1.7666735912	-0.133251
O	-1.4076101948	-2.1423885509	-3.1792409579	-0.235861
C	-0.3367045022	-3.0251180138	-3.3665015492	 0.023535
O	 0.6483732065	-2.6979654266	-2.4017321439	-0.273648
H	 1.0698017673	 1.6948597255	 0.258685681	 0.110556
H	-0.2329594307	 1.9062462192	-0.9401318269	 0.105265
H	-0.6266706537	 1.7272065721	 0.7904571161	 0.1269
H	 0.3737174257	-0.0411814166	-2.1294413831	 0.072035
H	 2.341976631	-1.1319114935	-0.0357792354	 0.119202
H	 2.5797910415	-1.1997800925	-1.7961335264	 0.139297
H	 2.5455281939	 0.3651024581	-0.9676712968	 0.112519
H	 0.1411498212	-2.5402153298	-0.3944742943	 0.086941
H	-2.0385796279	-2.8142375023	-1.3088044401	 0.095462
H	-1.9826200118	-1.0425914599	-1.5396889577	 0.13045
H	-0.6585248328	-4.0736328269	-3.2273520103	 0.083343
H	 0.0705190571	-2.8867944421	-4.3728009986	 0.117185
62.0611	77.3426	87.3315	166.732	198.4959	231.6546	255.3056	292.8535	328.8958	426.0012	450.622	488.3373	741.3334	764.5896	839.0889	875.9451	954.0303	990.6423	995.4023	1001.1542	1066.9084	1073.4246	1118.0989	1123.935	1146.663	1175.0054	1182.7551	1193.3124	1208.9345	1228.0027	1267.0736	1305.9046	1317.1827	1353.6527	1371.8032	1398.0429	1410.0666	1431.2594	1477.1187	1484.4451	1493.4161	1504.087	1513.4428	1515.6169	1546.1367	2933.3701	2961.6056	2980.2584	2997.1446	3031.9597	3037.1831	3044.1282	3078.911	3109.6522	3112.776	3134.218	3137.1857
COC(C)C1COCO1	CO[C@@H](C)[C@H]1COCO1	
InChI=1S/C6H12O3/c1-5(7-2)6-3-8-4-9-6/h5-6H,3-4H2,1-2H3	InChI=1S/C6H12O3/c1-5(7-2)6-3-8-4-9-6/h5-6H,3-4H2,1-2H3/t5-,6+/m0/s1
