14
gdb 6433	3.5641	1.6221	1.37627	3.4829	58.15	-0.274	-0.0522	0.2217	903.3728	0.104589	-419.715147	-419.707385	-419.706441	-419.747773	27.495	
C	-0.1693516375	 1.7595574395	 0.1287073552	-0.455954
C	 0.0286705941	 0.2616501855	-0.0096903518	 0.324095
C	 0.7141727385	-0.2815815734	-1.2735420267	-0.466852
C	 1.8136264208	-0.7078435632	-0.303345176	 0.448466
O	 2.8691212348	-1.2472810177	-0.3379870091	-0.304331
O	 1.1666535417	-0.2101710783	 0.8113958406	-0.284189
C	-1.2064559175	-0.5082472432	 0.4384817764	 0.121007
O	-1.9337782212	-1.1081845829	-0.3064757769	-0.233025
H	 0.7619591009	 2.284528595	-0.1008102481	 0.143508
H	-0.9481325151	 2.1030001648	-0.5592337745	 0.146103
H	-0.4675771484	 2.020208493	 1.1489901523	 0.142417
H	 0.1886356838	-1.1010769517	-1.7654346161	 0.167218
H	 1.0271287126	 0.4598288481	-2.0100620146	 0.14611
H	-1.3824865973	-0.4664856754	 1.5354734493	 0.105426
55.0391	110.7618	215.4813	241.4511	293.4651	313.0799	382.4992	497.2293	530.6019	554.8988	696.6296	794.5404	859.7618	923.6692	941.4104	960.1912	1000.4885	1054.0455	1087.9737	1166.0262	1221.1232	1246.5786	1295.7931	1403.9241	1409.8913	1453.6421	1483.3986	1491.19	1838.8615	1949.1213	2905.1799	3040.9296	3095.2967	3116.3307	3123.528	3155.1656
CC1(CC(=O)O1)C=O	C[C@]1(CC(=O)O1)C=O	
InChI=1S/C5H6O3/c1-5(3-6)2-4(7)8-5/h3H,2H2,1H3	InChI=1S/C5H6O3/c1-5(3-6)2-4(7)8-5/h3H,2H2,1H3/t5-/m0/s1
