19
gdb 119725	3.26926	0.92998	0.84532	1.2689	71.11	-0.2356	0.0554	0.2911	1400.4386	0.157985	-460.10044	-460.091254	-460.09031	-460.134967	33.756	
O	-0.069130956	 1.4819585075	 0.0362429868	-0.419282
C	 0.0084841174	 0.0708600196	 0.1555780692	-0.064664
C	-1.3792735941	-0.4946331412	-0.1421772808	-0.31406
C	-1.4195916694	-1.9928468369	-0.058745011	 0.233931
C	-0.8900415295	-2.9697378157	-1.1070781212	-0.145006
O	-1.9617420508	-3.9214855159	-0.8335590561	-0.307375
C	-2.5673336369	-2.9933382968	 0.0792190915	-0.043406
C	-1.6336091917	-2.7900649442	 1.2241614404	 0.07174
O	-0.7858752406	-3.8077707053	 1.6530152079	-0.438455
H	 0.7953555218	 1.8503646475	 0.2398278663	 0.287167
H	 0.742358272	-0.3505046541	-0.5512606196	 0.08687
H	 0.3200260711	-0.2343413128	 1.1666540954	 0.097877
H	-2.089610668	-0.0585508115	 0.5700003952	 0.110327
H	-1.6894478663	-0.1548321117	-1.1384452613	 0.108881
H	-0.9715287691	-2.5977682425	-2.1342375446	 0.114421
H	 0.1015037332	-3.4050495237	-0.9402244473	 0.112668
H	-3.6489268331	-2.9087668261	 0.0691699329	 0.106062
H	-2.0173655665	-2.1951298443	 2.0492839354	 0.106064
H	-0.9358680333	-4.5472870319	 1.0477311707	 0.296241
63.5545	91.8886	108.5406	230.4394	256.075	261.6727	302.0983	328.4557	343.248	448.2132	510.3877	649.5035	716.4095	787.3583	802.7934	828.5202	925.552	957.471	990.1661	1002.1641	1005.3208	1026.6764	1053.0651	1076.6737	1095.1795	1154.0848	1168.7531	1206.5882	1241.0479	1252.0801	1261.4313	1295.0977	1312.7848	1329.3814	1345.5066	1399.7513	1460.4437	1469.7334	1487.2406	1511.7185	1526.1631	2963.0632	2995.4106	3026.8571	3030.5815	3070.6028	3082.2777	3148.2112	3169.0278	3746.8753	3831.3212
OCCC12COC1C2O	OCC[C@]12CO[C@H]1[C@H]2O	
InChI=1S/C6H10O3/c7-2-1-6-3-9-5(6)4(6)8/h4-5,7-8H,1-3H2	InChI=1S/C6H10O3/c7-2-1-6-3-9-5(6)4(6)8/h4-5,7-8H,1-3H2/t4-,5+,6-/m1/s1
