16
gdb 51968	5.29313	0.71151	0.64563	4.3902	74.39	-0.2536	-0.0354	0.2182	1658.6874	0.120301	-437.852046	-437.84223	-437.841285	-437.888283	33.717	
N	-0.0973062135	 1.0582558639	-0.0904640495	-0.441009
C	-0.3682592626	-0.1399134267	 0.1845496656	 0.148377
O	-0.2775272982	-1.0803392763	-0.789108292	-0.166411
C	-0.6400507503	-2.3922289152	-0.4426641235	-0.198021
C	-2.1502163715	-2.5774860285	-0.2535722902	 0.368059
O	-2.8858897188	-1.6475484176	-0.062594885	-0.259346
C	-2.614753242	-4.0406785647	-0.3188414951	-0.483786
C	-3.943432815	-4.2752166983	 0.2163367492	 0.31962
C	-5.0396663314	-4.4713387164	 0.6637574728	-0.413588
H	-0.1923066654	 1.6364679332	 0.741565	 0.232439
H	-0.6624498596	-0.5444708168	 1.1602697444	 0.092465
H	-0.2782141717	-3.0400640097	-1.2471284915	 0.144602
H	-0.1449834859	-2.726558504	 0.4843062265	 0.13289
H	-2.5671942882	-4.3330452058	-1.3787275211	 0.168039
H	-1.8694077866	-4.6711246381	 0.1855954207	 0.150324
H	-6.0113357193	-4.638322219	 1.0584290288	 0.205346
37.3967	64.6549	69.4804	138.1261	158.6474	258.0428	293.2375	321.5478	362.008	402.6722	446.9221	622.9411	633.6504	652.5554	729.954	789.4094	816.3583	896.6687	935.945	986.9104	1031.4963	1033.6986	1066.7308	1183.2252	1209.4615	1254.7025	1321.744	1335.6554	1388.8785	1421.4748	1437.7387	1469.2065	1751.6149	1844.0421	2252.348	2978.6805	3006.1061	3036.354	3047.8648	3087.8273	3506.0566	3523.8701
N=COCC(=O)CC#C	[NH][CH]OCC(=O)CC#C	
InChI=1S/C6H7NO2/c1-2-3-6(8)4-9-5-7/h1,5,7H,3-4H2	InChI=1S/C6H7NO2/c1-2-3-6(8)4-9-5-7/h1,5,7H,3-4H2
