18
gdb 93971	2.90973	1.22868	0.91287	5.5085	80.05	-0.2205	-0.0375	0.183	1263.8823	0.146753	-439.112331	-439.103083	-439.102139	-439.146495	33.657	
C	 0.1221409139	 1.5743382004	-0.0646320714	-0.405291
C	 0.0133720857	 0.0541564025	 0.0544034834	 0.085614
O	 0.6135063835	-0.5525021635	-1.0766607819	-0.280249
C	 1.4326892607	-1.6586056357	-0.6808786394	-0.168024
C	 1.562538056	-1.536603962	 0.8154446416	 0.120943
C	 2.4263269649	-2.3739971998	 1.6051014221	 0.052192
O	 3.1305274703	-3.2615053672	 1.1574818875	-0.297891
C	 0.7347693907	-0.548594915	 1.2445194996	 0.218068
N	 0.4375665787	-0.1307585179	 2.5032165518	-0.58894
H	 1.1696948693	 1.8877798819	-0.0500034413	 0.130024
H	-0.3219499612	 1.8940009596	-1.0106410052	 0.142007
H	-0.4175795347	 2.0826189384	 0.7427366247	 0.104658
H	-1.0560043286	-0.2212965297	 0.1146496119	 0.092418
H	 0.9634473015	-2.6080520343	-0.9805217695	 0.110307
H	 2.3949837603	-1.5911910827	-1.2019562978	 0.121608
H	 2.4283045098	-2.1601633123	 2.7020992029	 0.029138
H	 1.0073649093	-0.4448930815	 3.2718555458	 0.268841
H	 0.0311996296	 0.782660259	 2.6204126152	 0.264578
61.3386	118.7788	166.155	186.5675	225.0483	259.7941	318.6367	355.1426	364.4094	405.292	468.6678	534.7876	613.1655	671.0778	713.5516	799.0951	880.7754	911.886	1006.863	1029.6001	1056.449	1074.4945	1115.9615	1136.1233	1188.7221	1196.6709	1271.3365	1305.062	1365.0164	1375.7902	1399.9067	1421.7963	1459.8863	1485.9152	1496.1094	1530.7901	1639.8313	1701.2004	1755.6735	2813.2573	2927.8197	2987.5612	3034.5054	3046.4723	3107.0004	3130.2681	3597.1783	3705.5013
CC1OCC(C=O)=C1N	C[C@H]1OCC(=C1N)C=O	
InChI=1S/C6H9NO2/c1-4-6(7)5(2-8)3-9-4/h2,4H,3,7H2,1H3	InChI=1S/C6H9NO2/c1-4-6(7)5(2-8)3-9-4/h2,4H,3,7H2,1H3/t4-/m1/s1
