19
gdb 64778	3.19893	1.13481	1.03561	0.8486	76.47	-0.2488	0.0358	0.2846	1219.4075	0.158276	-422.995449	-422.986423	-422.985479	-423.029544	34.172	
O	 0.0164082056	 1.4722506145	 0.1360359786	-0.480131
C	 0.014285573	 0.0669657838	-0.027644126	 0.400281
C	 0.7667723781	-0.6207912116	 1.1411298968	-0.399471
C	 2.1156046195	-0.0911303444	 1.3038602559	 0.257341
C	 3.2077540206	 0.4057129134	 1.3965687794	-0.420745
C	-1.4487868044	-0.4361376484	-0.1175058515	-0.296322
C	-1.4749171586	-1.3012203314	-1.3968244799	-0.074657
O	-0.1121408914	-1.5711744907	-1.7147857732	-0.24474
C	 0.5890620627	-0.3853616771	-1.3927454201	-0.143162
H	 0.9239755462	 1.7403428332	 0.3299688977	 0.282245
H	 0.1985249359	-0.4691182893	 2.066288867	 0.135198
H	 0.7995844537	-1.7000249179	 0.9504621343	 0.143749
H	 4.1831776008	 0.8129899455	 1.5009824562	 0.202303
H	-1.7270623394	-1.013488544	 0.7678655151	 0.105534
H	-2.1173336509	 0.4240406086	-0.1821391802	 0.123478
H	-1.9859120986	-2.2590991605	-1.2741183001	 0.108796
H	-1.9554236453	-0.7571464838	-2.2244969489	 0.096162
H	 0.3999280015	 0.4134496258	-2.1281152448	 0.091957
H	 1.6584525109	-0.6097440857	-1.3730769965	 0.112184
49.2603	89.8582	136.3092	227.0996	295.7667	342.7411	363.2229	392.6528	410.2675	424.0357	512.9066	624.852	633.032	659.0376	688.6186	793.7565	828.02	903.2086	928.6008	962.0024	976.7905	986.0117	1015.591	1092.2811	1105.1837	1131.9621	1170.8628	1230.4996	1241.2996	1266.0122	1290.4976	1298.9509	1315.473	1358.0537	1376.5799	1414.9956	1462.6533	1489.0722	1506.5734	1525.6758	2228.0623	2977.3352	2987.2242	3031.8714	3068.0724	3073.5627	3095.8789	3101.061	3125.3299	3503.5167	3763.0158
OC1(CC#C)CCOC1	O[C@@]1(CC#C)CCOC1	
InChI=1S/C7H10O2/c1-2-3-7(8)4-5-9-6-7/h1,8H,3-6H2	InChI=1S/C7H10O2/c1-2-3-7(8)4-5-9-6-7/h1,8H,3-6H2/t7-/m0/s1
