13
gdb 51409	6.09093	0.95033	0.92233	2.0764	60.55	-0.2811	-0.0447	0.2364	1191.6608	0.086787	-493.63901	-493.631408	-493.630464	-493.671932	26.949	
O	 0.5857462305	 0.0312951339	 0.0771034865	-0.258748
C	 0.6583741323	 1.1935019669	 0.3252916834	 0.173936
O	 0.5691847555	 2.1331778363	-0.653060542	-0.217767
C	 0.7966121714	 3.4938344831	-0.3948759756	 0.170832
C	 1.2996051727	 3.9838458224	 0.9964290714	-0.153259
O	 2.6168436113	 3.3571307266	 0.6968162757	-0.3012
C	 2.260344605	 3.979400386	-0.6092296847	-0.107092
C	 1.9018437472	 5.2114610665	 0.2541076632	 0.481853
O	 2.110736675	 6.3691870939	 0.3816351469	-0.290221
H	 0.7713381481	 1.6187297066	 1.3333362604	 0.101106
H	 0.0008747403	 4.0713314345	-0.8718947353	 0.126067
H	 0.8897908456	 3.8744737372	 1.9970067505	 0.136451
H	 2.9286150552	 3.820438486	-1.4510612606	 0.138043
65.7383	109.6811	157.3844	193.9285	303.1452	372.8267	477.039	515.8065	656.0585	740.9811	774.9459	787.4477	791.7379	857.7176	961.0914	974.9359	1016.2131	1058.0379	1069.4285	1130.9809	1143.9557	1147.3886	1194.0353	1206.9505	1269.1126	1399.7332	1426.6239	1870.4822	1951.3623	3035.2763	3090.7402	3167.4115	3176.7163
O=COC1C2OC1C2=O	O=CO[C@H]1[C@H]2O[C@@H]1C2=O	
InChI=1S/C5H4O4/c6-1-8-5-3-2(7)4(5)9-3/h1,3-5H	InChI=1S/C5H4O4/c6-1-8-5-3-2(7)4(5)9-3/h1,3-5H/t3-,4+,5-
