15
gdb 33446	2.53547	1.624	1.15809	5.2682	76.69	-0.2581	-0.0122	0.2459	1048.2437	0.111872	-379.591591	-379.583661	-379.582717	-379.623894	30.087	
C	-0.0163311973	-1.1960643668	-0.0088950248	-0.421652
C	 0.0001506549	 0.0047332675	 0.0344614763	 0.276714
C	 0.0115594486	 1.4418634109	 0.0747546019	 0.018541
C	-1.0764302552	 2.0693818994	-0.6505063332	 0.241103
N	-1.9612667356	 2.5642561077	-1.2044418914	-0.33077
C	 0.5270833723	 2.2134323647	 1.2590744954	-0.038343
C	 1.6240774447	 1.4497670687	 1.9903778609	-0.271974
C	 2.3647845542	 1.4307168298	 0.6258318652	-0.164321
N	 1.2797903206	 2.25008312	-0.0364152015	-0.165489
H	-0.0417312993	-2.2575610929	-0.0510850362	 0.211732
H	-0.0347968332	 3.0667546182	 1.6252229203	 0.12395
H	 2.1274251944	 2.0584291034	 2.7426031311	 0.127118
H	 1.3381183904	 0.4918869114	 2.4293618612	 0.129591
H	 3.286728214	 2.0128312318	 0.6135343435	 0.130505
H	 2.5344116566	 0.4606529462	 0.1555310513	 0.133296
132.0045	146.46	173.3201	183.7565	310.2081	369.2101	468.2316	495.8376	575.5405	585.3684	602.9066	621.1695	686.6846	768.7368	781.1824	851.0762	858.0651	953.3941	962.234	990.1721	1038.2638	1101.9022	1150.6351	1197.0306	1216.9388	1262.8086	1283.7485	1289.3327	1355.8656	1478.5432	1498.1992	2239.1343	2365.278	3079.5728	3085.7267	3131.1957	3148.212	3170.7633	3497.5065
C#CC1(C#N)C2CCN12	C#C[C@@]1(C#N)[C@H]2CCN12	
InChI=1S/C7H6N2/c1-2-7(5-8)6-3-4-9(6)7/h1,6H,3-4H2	InChI=1S/C7H6N2/c1-2-7(5-8)6-3-4-9(6)7/h1,6H,3-4H2/t6-,7-,9?/m1/s1
