16
gdb 128343	2.75161	1.56389	1.0034	1.2631	81.02	-0.1947	-0.0322	0.1625	1132.9878	0.126812	-430.236873	-430.228538	-430.227593	-430.270337	30.349	
C	 0.0000766403	 1.4033249591	-0.0113588233	-0.31472
N	-0.0960800922	-0.0369051363	-0.0033908966	-0.330612
C	-1.2589651457	-0.711090904	 0.0066304524	 0.442063
N	-2.4034628544	-0.0683921688	 0.0087538593	-0.351514
N	-3.5074357709	-0.8470286748	 0.0189555779	-0.090058
N	-3.5835131209	-2.1566644748	 0.0267375747	-0.19142
C	-2.4494914534	-2.8159346109	 0.0248745892	-0.063615
C	-1.1576765881	-2.1827111911	 0.0147550104	 0.197813
N	 0.0223135499	-2.7088161759	 0.0120415599	-0.583112
H	 1.0538639583	 1.6864625981	-0.0190349353	 0.129102
H	-0.4880770839	 1.8309086852	-0.8951812614	 0.136308
H	-0.4777175696	 1.8402052768	 0.8736094193	 0.136226
H	 0.719303707	-0.6331589102	-0.0033225288	 0.271454
H	-4.3814926266	-0.3487270982	 0.0200399676	 0.288471
H	-2.5307389312	-3.8982581408	 0.0315684827	 0.113071
H	-0.0293564787	-3.7283781635	 0.018358372	 0.210544
63.814	97.2976	144.097	193.9143	306.8209	349.6699	404.1061	488.4429	505.9056	531.892	542.2156	628.6724	644.197	781.5024	791.8258	832.6607	892.5699	923.8637	1085.3897	1092.3515	1139.3683	1161.9302	1188.5082	1240.8863	1307.0941	1380.4373	1430.9385	1459.2954	1476.0718	1479.394	1516.3774	1554.4821	1597.1144	1645.7556	1650.7654	3022.3181	3069.0201	3135.3184	3180.4149	3460.1083	3601.7412	3665.6216
CNC1=NNN=CC1=N	CNc1n[nH]ncc1[NH]	
InChI=1S/C4H7N5/c1-6-4-3(5)2-7-9-8-4/h2H,1H3,(H2,5,9)(H,6,7,8)	InChI=1S/C4H12N5/c1-6-4-3(5)2-7-9-8-4/h3-9H,2H2,1H3
