17
gdb 5562	3.2951	1.81558	1.2414	1.3176	72.12	-0.1903	0.0432	0.2335	972.5589	0.142855	-363.89735	-363.889096	-363.888152	-363.930203	30.184	
C	-0.4682372073	 1.3672614738	-0.1307846521	-0.51372
C	-0.0863748844	-0.0770588796	-0.1080272469	 0.231877
C	 0.2556173525	-0.9414147148	-1.1329706196	 0.229702
C	 0.3422491938	-0.6052263884	-2.5883159723	-0.213123
O	-0.8875142244	-0.0145323989	-3.0225918554	-0.412971
C	 0.5360211386	-2.2101296271	-0.5450349169	-0.246608
C	 0.3624154685	-2.090474951	 0.811407233	-0.093901
N	-0.0154348223	-0.7935372224	 1.0618697875	-0.285847
H	 0.3472580413	 2.0223074732	 0.2039174231	 0.119698
H	-0.7420115151	 1.6493475734	-1.1483985443	 0.155879
H	-1.3324447704	 1.5679957895	 0.5140760588	 0.117381
H	 1.1765360083	 0.0894618892	-2.781500903	 0.086885
H	 0.5559259433	-1.5242428237	-3.1551700373	 0.090016
H	-0.7639567101	 0.2759477685	-3.9321097015	 0.281444
H	 0.8278358779	-3.1063997138	-1.0722007475	 0.08693
H	 0.4643371833	-2.8061900815	 1.6108759049	 0.112593
H	-0.2380090734	-0.4223101164	 1.9693247192	 0.253764
61.385	120.2018	170.3831	231.2794	243.188	310.2771	378.3924	422.9173	489.2899	634.7374	639.2627	686.4035	698.8934	736.0022	821.9291	916.6108	982.9556	1003.0381	1037.4505	1063.55	1087.0441	1116.8862	1181.2333	1233.9826	1258.2237	1279.8048	1308.3308	1407.0518	1433.7373	1453.1474	1481.2673	1495.3816	1499.2407	1516.9701	1523.9454	1627.8009	2955.3053	2993.6027	3011.2524	3059.2738	3141.9044	3238.4042	3269.9053	3673.9563	3810.2927
CC1=C(CO)C=CN1	Cc1c(CO)cc[nH]1	
InChI=1S/C6H9NO/c1-5-6(4-8)2-3-7-5/h2-3,7-8H,4H2,1H3	InChI=1S/C6H9NO/c1-5-6(4-8)2-3-7-5/h2-3,7-8H,4H2,1H3
