21
gdb 69487	3.03305	1.40068	1.26593	1.8438	81.63	-0.2472	0.0867	0.3338	1119.4775	0.182325	-387.084566	-387.076191	-387.075247	-387.116773	33.784	
C	-0.2231167488	 1.5025086285	-0.0204729955	-0.475995
C	 0.0052201929	 0.0082881664	-0.020358348	 0.342229
C	-0.7142934358	-0.8430756793	 0.9949436946	-0.33008
C	 0.7887934963	-0.6944427487	 1.0789021681	-0.148441
C	 1.6191512946	-1.7900228404	 0.4337202913	 0.421372
C	 2.892656664	-2.2501168874	 1.0870179324	-0.494796
O	 0.8213730007	-2.8139465275	-0.1958609102	-0.300145
C	 1.3637145218	-1.7691691031	-1.0186145285	-0.020022
C	 0.3931108929	-0.6483159114	-1.357756206	-0.321686
H	 0.6421520947	 2.0411420702	-0.4252273656	 0.111435
H	-1.094665526	 1.7718067081	-0.6293541415	 0.1179
H	-0.4045089963	 1.8738896395	 0.9932595902	 0.113932
H	-1.3043282549	-0.3183682023	 1.7399105902	 0.099954
H	-1.0975879595	-1.8120229205	 0.7004993616	 0.131229
H	 1.2302788645	-0.1442554816	 1.9026960585	 0.07543
H	 2.6851955144	-2.7126786818	 2.0581478525	 0.129571
H	 3.4021794035	-2.9865476413	 0.4607329087	 0.128052
H	 3.5688687136	-1.4051600002	 1.2561710838	 0.121217
H	 2.0879393621	-2.1031995249	-1.7599495645	 0.086971
H	-0.4725548291	-1.0134105482	-1.9218315518	 0.112606
H	 0.9071455644	 0.0842675055	-1.9923098804	 0.099269
150.9163	193.212	209.6803	228.4802	278.2206	326.4975	348.6021	387.3531	444.4794	529.8937	566.4186	641.1256	703.1549	754.2779	797.8767	848.9196	868.9471	908.6209	926.7452	962.6216	975.0932	996.0694	1035.2092	1041.9143	1064.505	1084.7249	1102.2247	1114.1666	1133.7474	1204.7694	1212.7732	1251.3587	1284.6487	1314.9298	1337.6282	1391.7427	1410.8934	1419.3642	1448.6374	1472.7487	1482.3144	1486.6823	1489.6143	1497.9913	1501.5648	3017.7115	3032.3246	3034.5606	3071.5672	3075.9583	3095.3541	3096.367	3122.0042	3124.0983	3131.8224	3168.8274	3229.5428
CC12CC1C1(C)OC1C2	C[C@]12C[C@H]1[C@@]1(C)O[C@H]1C2	
InChI=1S/C8H12O/c1-7-3-5(7)8(2)6(4-7)9-8/h5-6H,3-4H2,1-2H3	InChI=1S/C8H12O/c1-7-3-5(7)8(2)6(4-7)9-8/h5-6H,3-4H2,1-2H3/t5-,6+,7-,8-/m1/s1
