25
gdb 104088	2.27799	1.34841	1.135	0.1302	92.99	-0.2352	0.0291	0.2643	1275.3352	0.228752	-352.378834	-352.36893	-352.367986	-352.412811	38.98	
C	-0.0285263538	 1.6320850973	 0.0731787616	-0.397191
C	-0.0006013898	 0.1004001426	-0.0131428485	-0.225314
C	 0.7315750682	-0.4816112436	-1.237830632	 0.314922
C	 0.0630781619	-0.0102014016	-2.543958781	-0.429793
C	 2.243504251	-0.0908608154	-1.2768749615	-0.289723
C	 2.9151273185	-1.3078803611	-1.8601424168	-0.073632
C	 2.1029112267	-2.3618688117	-1.8769379661	-0.063896
C	 0.7520540279	-2.0607856534	-1.2661720482	-0.054297
C	 0.5990824573	-2.7864962059	 0.0837194416	-0.406555
H	 0.9815866056	 2.0551004945	 0.067479535	 0.116581
H	-0.5822597356	 2.0820113277	-0.7559332555	 0.117751
H	-0.5131166298	 1.9527216811	 1.0008498976	 0.109694
H	 0.4686862633	-0.2860499229	 0.8985848066	 0.093627
H	-1.0337299922	-0.2725083549	-0.0044326819	 0.088896
H	 0.1268744413	 1.075103024	-2.6662613628	 0.109167
H	 0.5495683312	-0.4701360274	-3.4099448358	 0.116508
H	-0.9964970269	-0.2896745029	-2.5654540185	 0.105351
H	 2.4170480074	 0.814651982	-1.8707590317	 0.096905
H	 2.6355873595	 0.1261830493	-0.2722981568	 0.097326
H	 3.9450520275	-1.3025702918	-2.2010788138	 0.087058
H	 2.3689006995	-3.3548705905	-2.2255139099	 0.084894
H	-0.0610651899	-2.4153611272	-1.9146730151	 0.06506
H	 1.3784831949	-2.4889632449	 0.7925570297	 0.116608
H	-0.3753040777	-2.5962315522	 0.5435526704	 0.112634
H	 0.6890117342	-3.8681678112	-0.0636700966	 0.10742
92.2588	112.5796	188.6624	213.2987	249.9991	275.5288	291.0489	311.1139	332.6993	356.2173	409.1811	458.954	508.8256	611.5592	726.6082	738.412	764.2303	793.0764	866.9257	912.2232	918.6241	950.8559	973.132	975.5339	1009.1674	1016.8684	1038.8893	1056.687	1091.9191	1099.9915	1135.4505	1143.1282	1190.2235	1211.3593	1254.3934	1288.9335	1319.2615	1332.0993	1362.5284	1363.7497	1378.0052	1402.8687	1408.1897	1412.3095	1477.9378	1484.5831	1494.152	1497.8174	1500.8606	1502.5308	1509.503	1512.8274	1690.8287	2997.2434	3000.7185	3014.2574	3028.4065	3031.6273	3036.124	3044.5129	3058.0081	3095.1169	3095.9047	3099.7193	3102.8927	3107.636	3111.3976	3170.7209	3197.559
CCC1(C)CC=CC1C	CC[C@@]1(C)CC=C[C@H]1C	
InChI=1S/C9H16/c1-4-9(3)7-5-6-8(9)2/h5-6,8H,4,7H2,1-3H3	InChI=1S/C9H16/c1-4-9(3)7-5-6-8(9)2/h5-6,8H,4,7H2,1-3H3/t8-,9+/m1/s1
