22
gdb 7459	2.86708	1.33434	1.1527	2.75	74.15	-0.254	0.067	0.321	1177.4152	0.197382	-387.345366	-387.334973	-387.334029	-387.380038	38.524	
C	 0.1064911389	 1.547451297	 0.0250621407	-0.421856
C	-0.0057037788	 0.0235491473	 0.0806582669	 0.137708
O	 0.5899394989	-0.4686933516	 1.2836443643	-0.43241
C	-1.4452695349	-0.5184095272	-0.0725751983	 0.017631
C	-2.1667739754	 0.0692543838	-1.2947506099	-0.434418
C	-1.4090790235	-2.0670930696	-0.1038674817	 0.141522
C	-2.764350762	-2.7247181017	 0.155726825	-0.424297
O	-0.8251339499	-2.5484415999	-1.316081176	-0.440971
H	 1.1358205364	 1.8437972179	 0.2446014475	 0.124593
H	-0.1617278061	 1.9463556473	-0.9567769169	 0.120149
H	-0.5503225842	 2.0182337418	 0.7689314065	 0.101841
H	 0.6000933624	-0.4157146971	-0.7201851574	 0.104682
H	 0.1423449676	-0.0418368566	 2.0230066653	 0.272143
H	-1.9993491678	-0.2224845891	 0.8324289403	 0.052116
H	-2.3219037498	 1.1457909103	-1.1921850153	 0.120947
H	-1.5867651432	-0.0951898749	-2.2095054787	 0.120344
H	-3.1537843331	-0.3828937182	-1.4353338145	 0.112441
H	-0.7105951962	-2.3822582335	 0.6763327425	 0.10565
H	-3.5048078046	-2.4505850536	-0.6057068458	 0.106674
H	-2.658032703	-3.8130116977	 0.1416345956	 0.124536
H	-3.1671563727	-2.4301442404	 1.1303706325	 0.113683
H	-1.473630529	-2.4393632443	-2.0196549828	 0.27729
73.7062	77.7304	187.9669	202.3745	233.3665	255.2511	261.5909	298.9699	309.9119	330.5087	341.4011	418.6371	438.1979	463.7787	512.0352	622.9926	775.1192	833.5134	916.4644	930.517	965.1153	997.9526	1032.9091	1055.0578	1081.6186	1098.1164	1115.8311	1161.9461	1182.9072	1254.4634	1289.1228	1320.9047	1340.5739	1355.2843	1383.8774	1402.3682	1403.47	1408.9272	1425.1062	1437.2126	1488.2746	1492.9122	1494.9659	1499.4911	1508.3338	1515.2286	2979.7186	3020.0391	3026.2018	3038.0975	3055.7715	3074.7446	3095.8874	3098.1184	3101.5339	3114.8208	3116.0292	3124.9564	3792.2257	3806.5393
CC(O)C(C)C(C)O	C[C@@H](O)[C@@H](C)[C@@H](C)O	
InChI=1S/C6H14O2/c1-4(5(2)7)6(3)8/h4-8H,1-3H3	InChI=1S/C6H14O2/c1-4(5(2)7)6(3)8/h4-8H,1-3H3/t5-,6-/m1/s1
