22
gdb 110835	3.27673	1.15539	1.04547	2.2528	82.94	-0.2242	0.0695	0.2937	1277.6704	0.192364	-404.304518	-404.294925	-404.293981	-404.338594	36.985	
C	-0.2413034981	 1.5241021276	 0.2662289656	-0.374967
C	 0.2063842691	 0.1397593772	-0.1961466228	-0.116386
N	 0.7791598992	-0.5941005789	 0.9325347201	-0.082089
C	 0.0049884765	-1.346665331	 1.8869888355	-0.038549
C	-1.1544371702	-2.1310563524	 1.2453642436	-0.331433
C	-0.0974666952	-2.8886522034	 0.3598818351	 0.385171
C	 0.0595034036	-4.3550799135	 0.7524389271	-0.441974
O	-0.1922148551	-2.7534347844	-1.0483395154	-0.469741
C	 1.0142651717	-2.0139019942	 0.9730458374	-0.084164
H	 0.5887437648	 2.066009138	 0.7287132887	 0.121701
H	-0.6148456272	 2.1106948193	-0.5789160293	 0.108551
H	-1.0465952575	 1.4497559191	 1.0053214526	 0.112951
H	-0.6198673296	-0.3869435186	-0.6864882224	 0.104656
H	 1.0009840783	 0.2294955642	-0.9451235093	 0.103337
H	 0.095760508	-1.1086300859	 2.9413366453	 0.090066
H	-1.6698150019	-2.7925148465	 1.9460111191	 0.098502
H	-1.8967713329	-1.5385394012	 0.7041250481	 0.10077
H	-0.8289724234	-4.9311215273	 0.4648913649	 0.106144
H	 0.9287403845	-4.788388689	 0.2472685129	 0.125
H	 0.1938241779	-4.4681223376	 1.832188356	 0.123625
H	-0.8606040669	-3.3712693327	-1.3645231299	 0.275358
H	 2.0206332245	-2.3687140187	 1.1773270171	 0.083471
57.0679	132.0433	180.7623	228.9824	243.2349	257.706	275.7111	301.309	372.4526	426.2821	428.3432	491.0997	631.2087	644.0981	710.5879	800.9637	825.1951	858.8208	884.274	902.9138	936.378	958.1339	990.5263	1003.6796	1039.8801	1059.0322	1104.339	1118.0077	1136.9934	1170.0378	1177.8563	1222.5943	1232.7791	1254.1865	1287.7619	1305.4605	1367.0151	1376.1478	1396.3163	1404.1278	1414.4347	1472.6816	1488.824	1489.396	1494.8743	1498.7842	1519.6224	3022.143	3034.9051	3036.9462	3056.8661	3068.2623	3090.3425	3102.9656	3108.4499	3115.2814	3116.428	3146.6579	3168.953	3796.8345
CCN1C2CC(C)(O)C12	CCN1[C@H]2C[C@@](C)(O)[C@@H]12	
InChI=1S/C7H13NO/c1-3-8-5-4-7(2,9)6(5)8/h5-6,9H,3-4H2,1-2H3	InChI=1S/C7H13NO/c1-3-8-5-4-7(2,9)6(5)8/h5-6,9H,3-4H2,1-2H3/t5-,6-,7+,8?/m0/s1
