15
gdb 45632	5.8465	0.88824	0.77849	5.399	73.22	-0.2461	-0.0164	0.2297	1370.0533	0.113519	-413.025819	-413.017481	-413.016537	-413.059785	29.707	
N	-0.0148368702	 1.31497697	 0.0071706538	-0.543054
C	 0.0131013953	 0.0481786126	 0.0007405261	 0.384805
C	-1.1910537213	-0.8911734806	 0.0030492012	-0.239127
N	-0.6587090438	-2.2594482174	-0.0066576852	-0.280337
C	 0.6097198993	-2.1451435638	-0.0133923295	 0.410235
C	 1.5958705165	-3.2832864411	-0.0244108434	-0.480333
C	 0.9701254558	-4.6023541663	-0.0282629459	 0.310303
N	 0.531584016	-5.6696064682	-0.0319877017	-0.295849
N	 1.096669897	-0.8397279687	-0.0099026751	-0.393155
H	 0.9201008938	 1.7253572183	 0.0038037987	 0.210596
H	-1.8161895365	-0.7290908202	 0.8872520098	 0.153966
H	-1.8262299251	-0.7205346966	-0.8723443084	 0.15397
H	 2.245710159	-3.1964320807	-0.9051750027	 0.174746
H	 2.2545017382	-3.2057844302	 0.8506797211	 0.17478
H	 2.064899656	-0.5653688072	-0.0138356087	 0.258454
35.656	107.9313	118.0986	231.0187	286.7337	330.0843	380.4929	425.4049	481.5654	505.9353	626.7968	675.715	739.9186	855.1445	890.5197	946.2031	952.2417	987.8779	992.9962	1053.0835	1088.0852	1170.9397	1184.1221	1232.3707	1279.4947	1312.0084	1352.2208	1452.1354	1453.9261	1455.4898	1719.9601	1770.5829	2382.2604	3027.7071	3057.2069	3058.9005	3090.0744	3460.989	3657.0251
N=C1CN=C(CC#N)N1	[NH][C]1CN=C(CC#N)N1	
InChI=1S/C5H6N4/c6-2-1-5-8-3-4(7)9-5/h1,3H2,(H2,7,8,9)	InChI=1S/C5H6N4/c6-2-1-5-8-3-4(7)9-5/h1,3H2,(H2,7,8,9)
