19
gdb 72432	2.5883	1.9573	1.67637	2.6987	73.16	-0.2397	0.0799	0.3196	913.8643	0.160812	-423.007395	-423.000423	-422.999479	-423.038184	29.376	
C	 0.0015357512	 1.4762820205	 0.0883012126	-0.486659
C	 0.0026616303	-0.0306067383	-0.027866739	 0.379679
C	 0.7029920704	-0.7009383156	-1.2338091507	-0.257374
C	 0.4382161901	-2.125484243	-0.6772961599	-0.107784
C	 1.030784832	-1.9562146803	 0.7323446269	-0.069138
O	 0.7059086939	-0.5978611532	 1.0830297941	-0.294829
C	-1.103002019	-2.0844501412	-0.5600006299	 0.022277
O	-1.6078711512	-1.8114843026	 0.7540595983	-0.236806
C	-1.4013789219	-0.7107457683	-0.1324157306	 0.008274
H	 1.0228785591	 1.8653162447	 0.0614937415	 0.125314
H	-0.5643168209	 1.9268033737	-0.7332246655	 0.114702
H	-0.4569041869	 1.7844439361	 1.0325669234	 0.134855
H	 0.1959447198	-0.5163405451	-2.1850870721	 0.098164
H	 1.7608818454	-0.4334024739	-1.3177709002	 0.100006
H	 0.8367239724	-2.9673655599	-1.2431860375	 0.071546
H	 0.5911476717	-2.6375373526	 1.4647058957	 0.116411
H	 2.1213457934	-2.0808029504	 0.7253996427	 0.089807
H	-1.7398499046	-2.6919877455	-1.1959980162	 0.097672
H	-2.287769425	-0.1425672252	-0.4033971536	 0.093882
206.6533	257.4092	271.4202	321.2894	341.1736	450.5261	480.1228	590.8826	591.7276	634.733	778.2975	797.9702	818.4899	870.9855	877.1723	888.6797	899.6345	938.5322	953.6062	986.2724	1017.1012	1036.9544	1053.82	1086.6797	1109.8676	1137.8662	1186.4492	1213.9979	1216.6216	1238.7317	1267.6484	1274.6124	1303.7255	1333.9531	1378.302	1404.8267	1415.5843	1480.9676	1488.7321	1496.6213	1518.4366	3017.9089	3041.6283	3052.5085	3095.1996	3108.5298	3113.5227	3119.5046	3120.2318	3140.8909	3161.2831
CC12CC(CO1)C1OC21	C[C@@]12C[C@@H](CO1)[C@H]1O[C@@H]21	
InChI=1S/C7H10O2/c1-7-2-4(3-8-7)5-6(7)9-5/h4-6H,2-3H2,1H3	InChI=1S/C7H10O2/c1-7-2-4(3-8-7)5-6(7)9-5/h4-6H,2-3H2,1H3/t4-,5+,6+,7-/m0/s1
