21
gdb 92976	2.92787	1.32808	1.08078	1.7352	83.09	-0.2385	0.0254	0.2639	1192.614	0.183032	-387.077576	-387.068996	-387.068052	-387.110991	32.962	
C	 0.0624843951	 1.5954857218	-0.0110336143	-0.383747
C	 0.0555653649	 0.0607518119	-0.0068184028	-0.007529
C	 0.9076281035	-0.4922445841	-1.1844298519	-0.263765
C	 2.2358070629	-0.8005976139	-0.5381119943	-0.07871
C	 2.14961472	-0.8232939484	 0.7892330519	-0.051005
C	 0.7355843153	-0.5582010359	 1.2638394194	-0.067209
C	 0.5861284618	 0.255735865	 2.5321801017	 0.072903
C	 1.537268834	 0.2135376372	 3.6506563173	-0.192195
O	 1.4973282887	 1.3333895194	 2.7644693556	-0.228491
H	 1.0820647092	 1.9842511008	 0.0661680572	 0.136119
H	-0.3785831023	 1.9697675343	-0.9406983179	 0.104341
H	-0.5126505393	 2.012634852	 0.8203151856	 0.115526
H	-0.9808771659	-0.2841089126	-0.0823621018	 0.06409
H	 0.4665338915	-1.4035711883	-1.6133498461	 0.100698
H	 0.9865964334	 0.2277640349	-2.0075936347	 0.099935
H	 3.1333729673	-1.0105908817	-1.1094603276	 0.091206
H	 2.9659964292	-1.0554250433	 1.4626377028	 0.091329
H	 0.2489845561	-1.5250612629	 1.4786049386	 0.083171
H	-0.4482174202	 0.4987707557	 2.7863028421	 0.088386
H	 1.184931085	 0.405775946	 4.6635354152	 0.111406
H	 2.4324682497	-0.4022961878	 3.5866728841	 0.113541
77.9518	86.5798	190.3284	203.7405	243.5586	335.8097	338.9955	400.7958	438.5318	605.6586	677.5325	740.184	770.0468	790.371	825.1724	882.3953	903.5159	930.0546	960.8787	968.0404	977.1459	1001.1123	1056.7069	1070.5539	1101.8505	1108.6532	1123.4174	1144.3992	1160.0273	1176.7629	1221.9858	1244.0657	1282.174	1295.3226	1314.0477	1340.9763	1365.6556	1387.2169	1414.735	1434.8631	1484.5405	1495.894	1502.0024	1531.4928	1688.9089	2954.1641	3002.1541	3038.0889	3047.339	3050.7595	3078.8383	3086.2351	3104.8199	3119.115	3168.3984	3184.9936	3212.1681
CC1CC=CC1C1CO1	C[C@H]1CC=C[C@H]1[C@H]1CO1	
InChI=1S/C8H12O/c1-6-3-2-4-7(6)8-5-9-8/h2,4,6-8H,3,5H2,1H3	InChI=1S/C8H12O/c1-6-3-2-4-7(6)8-5-9-8/h2,4,6-8H,3,5H2,1H3/t6-,7+,8+/m0/s1
