13
gdb 129065	3.65358	1.23823	0.9248	2.7868	79.22	-0.2341	-0.0739	0.1603	1152.0995	0.091926	-411.802449	-411.795177	-411.794233	-411.834432	26.978	
N	-0.0531943845	 1.3419652147	-0.1576548698	-0.536823
C	-0.0148348413	 0.0657689987	 0.0083109211	 0.294792
C	 1.1957107479	-0.7560981819	 0.1578984816	-0.054597
N	 1.2318026466	-2.0387958486	 0.3249324801	-0.166922
N	 0.0582120273	-2.6892267095	 0.3670774558	-0.320719
C	-1.163212916	-2.0618388336	 0.2416944888	 0.326642
C	-1.2366978005	-0.7194402174	 0.0655615253	-0.262313
C	-2.3096516925	-2.912392042	 0.3101436411	 0.241462
N	-3.2174966327	-3.6270298469	 0.3696383969	-0.308973
H	 0.8935357498	 1.7288271226	-0.1734161607	 0.213599
H	 2.1665235407	-0.2672291453	 0.1295089133	 0.13234
H	 0.1231288284	-3.6854907364	 0.4973161492	 0.292638
H	-2.1933623134	-0.2244526744	-0.0329842328	 0.148875
126.6423	140.0178	149.8495	381.8607	402.5998	411.9444	470.8411	504.9232	532.9201	572.9339	664.8614	720.3748	730.4565	847.2024	912.4596	928.865	946.9984	1041.3197	1110.8233	1152.134	1195.5394	1334.1272	1371.0527	1412.6161	1493.4068	1617.594	1643.2196	1683.0864	2353.0322	3166.4369	3234.5864	3439.4583	3656.4896
N=C1C=NNC(=C1)C#N	[NH]C1=C[C@@H](NN=C1)C#N	
InChI=1S/C5H4N4/c6-2-5-1-4(7)3-8-9-5/h1,3H,(H2,7,9)	InChI=1S/C5H5N4/c6-2-5-1-4(7)3-8-9-5/h1,3,5,7,9H/t5-/m1/s1
