18
gdb 90606	2.41386	1.50936	1.17375	4.2009	73.8	-0.2235	-0.0006	0.2229	1100.7717	0.148575	-435.206058	-435.197501	-435.196557	-435.239476	32.301	
N	-0.1337451516	 1.4835736747	 0.5354136917	-0.516537
C	-0.092777857	 0.1241347776	 0.0297359195	-0.000542
C	 0.3468796824	-1.0697909145	 0.9560977256	-0.212902
N	-0.994010798	-1.714538641	 0.7825274445	-0.109134
C	-1.4625879219	-0.6080470082	-0.1230941161	-0.023304
C	-2.6199330399	-0.2876330205	 0.8623420808	-0.002809
O	-3.9366828101	-0.5504460308	 0.4507112423	-0.425973
C	-1.9893948861	-1.3865382286	 1.7453327441	 0.325648
N	-2.1189746078	-1.8422970551	 2.913762746	-0.513778
H	-0.3805200568	 1.5005975301	 1.5206077318	 0.231933
H	 0.7821766644	 1.9150189467	 0.4656753364	 0.235917
H	 0.4576831086	 0.1396760804	-0.9143788278	 0.090074
H	 1.1590456731	-1.688945052	 0.5655039855	 0.113712
H	 0.5646429876	-0.8080083439	 1.9967741274	 0.114914
H	-1.7748206871	-0.886658587	-1.1320648956	 0.085387
H	-2.5330436016	 0.706691051	 1.3224658955	 0.088724
H	-4.2667342112	 0.2223003844	-0.0192195041	 0.291533
H	-2.9269203571	-1.4201577436	 3.3729478623	 0.227136
51.2617	151.2396	195.0285	237.2927	256.1182	263.6076	332.9351	393.9135	425.0877	511.7603	640.8666	708.7978	765.1201	792.4884	837.2258	858.9286	865.726	915.5314	940.9082	985.6333	1012.9975	1024.5979	1073.3219	1122.5487	1154.4074	1171.3176	1177.2097	1210.4708	1218.4241	1258.5029	1268.6227	1281.0052	1315.	1321.8528	1425.3783	1438.4581	1497.2816	1666.1858	1776.0308	3004.9004	3044.9408	3071.8488	3088.1206	3103.1533	3478.3561	3496.2489	3572.9108	3813.4741
NC1CN2C1C(O)C2=N	N[C@H]1CN2[C@H]1[C@@H](O)[C]2[NH]	
InChI=1S/C5H9N3O/c6-2-1-8-3(2)4(9)5(8)7/h2-4,7,9H,1,6H2	InChI=1S/C5H9N3O/c6-2-1-8-3(2)4(9)5(8)7/h2-4,7,9H,1,6H2/t2-,3+,4+/m0/s1
