18
gdb 49661	2.6365	1.68496	1.45174	3.1442	75.49	-0.2205	-0.0384	0.1821	971.7435	0.149088	-401.907917	-401.900398	-401.899454	-401.94032	28.943	
O	-1.0303532679	 1.1206463664	-0.3746852622	-0.259277
C	 0.1472144405	 0.92252325	-0.1834047325	 0.134456
C	 1.2182193928	 1.9264485552	 0.0495847639	-0.118865
C	 1.1697769963	 3.4136560317	-0.2697757709	-0.07949
C	-0.1579429753	 4.1887140301	-0.2935675169	-0.190007
N	-0.5833760701	 4.4402519721	 1.1089280048	-0.100449
C	-1.1577955209	 3.2819039916	 1.8107292354	-0.275959
C	 0.2818038145	 3.6124637759	 1.9775430547	-0.035289
C	 1.3863835961	 2.9956577775	 1.1537980677	-0.068417
H	 0.542536846	-0.1179130142	-0.2196472683	 0.085496
H	 2.1846484141	 1.4770516844	-0.1734217702	 0.099397
H	 1.9796855285	 3.7879445835	-0.887327476	 0.100207
H	 0.0153907652	 5.1587307963	-0.7693223911	 0.110591
H	-0.9436286407	 3.6740224465	-0.852124979	 0.135735
H	-1.8470946898	 3.5492654029	 2.6086903099	 0.10902
H	-1.4453781497	 2.4163255662	 1.2317019291	 0.160242
H	 0.6187147962	 4.0733271169	 2.9031501807	 0.091184
H	 2.3720757643	 3.0035481871	 1.6045190908	 0.101426
59.9264	130.1522	205.5434	237.0582	345.0711	382.2738	523.8064	649.6578	667.5462	701.4511	750.3467	762.9706	790.6335	840.6833	876.7174	918.4788	967.3437	978.9926	1006.6806	1041.4273	1051.2569	1064.1895	1097.8179	1108.4223	1127.5627	1135.5388	1167.5618	1228.3669	1239.7217	1281.2988	1329.1484	1335.9206	1371.2687	1389.4368	1432.6459	1445.1184	1495.8204	1515.6551	1805.227	2871.731	3055.2858	3104.4908	3113.9834	3117.74	3130.6065	3158.6555	3179.2277	3251.7086
O=CC1C2CN3CC3C12	O=C[C@H]1[C@H]2CN3C[C@H]3[C@@H]12	
InChI=1S/C7H9NO/c9-3-5-4-1-8-2-6(8)7(4)5/h3-7H,1-2H2	InChI=1S/C7H9NO/c9-3-5-4-1-8-2-6(8)7(4)5/h3-7H,1-2H2/t4-,5+,6+,7-,8?/m1/s1
