19
gdb 13393	5.64281	1.04011	0.9483	1.3759	72.25	-0.2465	0.0231	0.2696	1264.3111	0.166546	-365.085284	-365.077007	-365.076063	-365.118862	29.558	
C	-0.0177547078	 1.5650175663	-0.0527781906	-0.382413
C	-0.0019976025	 0.0359403157	 0.0175857036	-0.163968
C	-1.4059474128	-0.5755662927	-0.0025882844	-0.171694
C	-1.4085225542	-2.1071112588	 0.0423091526	 0.010878
C	-2.8317423636	-2.7321510267	 0.0497758355	-0.126103
O	-2.8448802307	-3.6125494923	-1.1012865363	-0.221396
C	-1.6291017588	-3.4597156242	-1.677375793	 0.123079
N	-0.7695377554	-2.6884325643	-1.159708338	-0.268714
H	 0.9970247457	 1.9744572849	-0.0342274172	 0.112369
H	-0.4995847822	 1.9141962461	-0.9729492847	 0.114003
H	-0.5666797767	 1.9985860692	 0.7911258006	 0.109464
H	 0.5720966119	-0.3745548278	-0.81938311	 0.124465
H	 0.5166470267	-0.2845196984	 0.9311334224	 0.090883
H	-1.9863816348	-0.2013951473	 0.852589346	 0.090543
H	-1.9399618589	-0.2531564386	-0.9068940303	 0.096911
H	-0.8356788542	-2.4327839175	 0.9199276263	 0.086707
H	-3.0477211187	-3.3311146207	 0.9377832381	 0.119487
H	-3.6248980877	-1.9888510115	-0.081930619	 0.115257
H	-1.4891519053	-4.0449047812	-2.5799426417	 0.14024
61.0017	90.8966	113.0756	166.7068	245.8311	309.5004	369.7986	400.4865	590.0434	725.1591	751.0424	827.2702	875.8327	888.7357	913.7437	962.8759	965.3346	976.9298	1025.6499	1048.1091	1085.7309	1132.4714	1138.4005	1166.85	1224.7015	1259.6578	1291.2366	1311.6421	1320.7229	1337.7895	1365.6713	1383.8797	1400.1523	1413.7579	1478.6541	1494.2436	1500.1545	1510.7239	1519.0013	1708.8423	3003.857	3016.5696	3020.4054	3027.5763	3046.3445	3049.4646	3074.6364	3098.1291	3101.7117	3102.1369	3212.2936
CCCC1COC=N1	CCC[C@H]1COC=N1	
InChI=1S/C6H11NO/c1-2-3-6-4-8-5-7-6/h5-6H,2-4H2,1H3	InChI=1S/C6H11NO/c1-2-3-6-4-8-5-7-6/h5-6H,2-4H2,1H3/t6-/m0/s1
