18
gdb 105330	2.31457	1.61619	1.19386	4.3133	75.57	-0.2489	0.0176	0.2665	1083.1807	0.148658	-398.082318	-398.073822	-398.072877	-398.115337	32.255	
N	-1.419860559	-0.5842855037	-0.0986146389	-0.503492
C	-0.0542344335	-0.0845477995	-0.1220378467	-0.21366
C	 0.7877469483	-0.4232845526	 1.1259582547	 0.139021
C	 2.1621531979	 0.2895858107	 1.358015712	-0.318451
C	 1.5709802579	 0.8046214837	 2.6672396862	 0.000354
C	 0.3394783768	 1.5703465297	 2.4259082272	-0.248316
N	 0.241290896	 0.0921767383	 2.4540106794	-0.155987
C	 0.9074122716	-1.8805257973	 1.229411425	 0.290143
N	 1.004196169	-3.0319333682	 1.261229799	-0.346851
H	-1.4196882984	-1.600507307	-0.0879625097	 0.246568
H	-1.8789129188	-0.2889789817	 0.7587866821	 0.243385
H	 0.4601289068	-0.4852662187	-1.0029383578	 0.127722
H	-0.0769738423	 1.0027097637	-0.2462210931	 0.112134
H	 2.987762101	-0.410600382	 1.4800487844	 0.140517
H	 2.4399853169	 1.048659791	 0.6211272419	 0.117576
H	 2.0710731282	 0.7796904143	 3.6288192825	 0.110732
H	-0.1569732003	 2.0144687781	 3.282641061	 0.136412
H	 0.2074870219	 2.1186330011	 1.497564871	 0.122194
91.1817	137.4041	166.2677	191.6564	256.0039	326.0228	389.1857	397.212	470.2474	518.018	564.3064	668.1743	759.7961	764.1528	812.6094	851.2216	889.8417	903.3514	946.7001	998.0215	1007.3709	1059.7591	1081.3024	1104.1158	1120.2425	1136.3712	1145.1571	1190.7053	1235.464	1262.7131	1284.2029	1363.9308	1369.4494	1394.0592	1477.2547	1485.9974	1504.7243	1671.0082	2353.5545	3044.1837	3064.1577	3083.9754	3122.8685	3141.9385	3178.6912	3209.919	3490.5939	3568.3643
NCC1(CC2CN12)C#N	NC[C@]1(C[C@H]2CN12)C#N	
InChI=1S/C6H9N3/c7-3-6(4-8)1-5-2-9(5)6/h5H,1-3,7H2	InChI=1S/C6H9N3/c7-3-6(4-8)1-5-2-9(5)6/h5H,1-3,7H2/t5-,6+,9?/m0/s1
