21
gdb 36889	3.70433	1.02455	0.96213	1.6742	81.77	-0.2328	0.0796	0.3124	1321.7402	0.18324	-387.026316	-387.017991	-387.017046	-387.060113	32.108	
C	 0.0563769499	 1.5059073267	-0.5177084264	-0.254483
C	-0.037068551	 0.0454001099	-0.1206836814	 0.038617
C	-0.3311915479	-0.3127128615	 1.3145204667	-0.253274
C	-1.3694564597	-0.5567151391	 0.2458220495	-0.279881
C	 1.4103041381	 2.1083801525	-0.1960406703	-0.018135
C	 1.6921701429	 3.590048178	 0.0065042369	-0.169102
C	 0.5811550955	 4.229569871	 0.8325879691	-0.092283
O	 0.6701685101	 3.1872085304	 1.8421000795	-0.285813
C	 1.7922104596	 2.6121974753	 1.1601144817	 0.0963
H	-0.1490653422	 1.6202305913	-1.590337445	 0.093169
H	-0.7247217542	 2.0602948401	 0.0121379995	 0.106787
H	 0.6530218518	-0.611670078	-0.6454198654	 0.074134
H	 0.1679631815	-1.1711526312	 1.7506184672	 0.103923
H	-0.4918375427	 0.5105859071	 2.002765894	 0.129355
H	-2.2404300858	 0.0906668917	 0.2256592446	 0.108059
H	-1.5734437349	-1.580138381	-0.0497702924	 0.106346
H	 2.2488131935	 1.6203540408	-0.6925015186	 0.086155
H	 2.4612769653	 4.1268582441	-0.5324656377	 0.09595
H	 0.8665790381	 5.1967542268	 1.2614439192	 0.109408
H	-0.4205377098	 4.3046815075	 0.3929269417	 0.10527
H	 2.6208761518	 2.2641058479	 1.7664917076	 0.099498
46.4229	81.8515	141.0697	234.0449	265.2701	349.4117	393.1508	463.0692	603.0419	741.3912	770.4177	789.7991	803.2914	813.6921	842.1134	876.7574	927.1174	949.01	964.8588	976.4836	996.8153	1025.5739	1036.5686	1057.6029	1059.302	1080.1899	1080.4512	1099.676	1137.5074	1142.9747	1164.4555	1200.5467	1206.6841	1228.3491	1260.4688	1283.1736	1308.2406	1330.8141	1363.3753	1413.747	1448.1522	1470.1009	1478.1345	1508.5055	1518.8777	3019.6461	3023.8277	3069.4238	3077.8431	3117.2243	3126.9488	3128.5521	3134.2076	3174.5116	3200.7734	3205.6288	3221.9417
C(C1CC1)C1C2COC12	C(C1CC1)[C@H]1[C@H]2CO[C@@H]12	
InChI=1S/C8H12O/c1-2-5(1)3-6-7-4-9-8(6)7/h5-8H,1-4H2	InChI=1S/C8H12O/c1-2-5(1)3-6-7-4-9-8(6)7/h5-8H,1-4H2/t6-,7+,8-/m0/s1
