20
gdb 119293	2.16675	1.24759	0.93279	5.5405	80.34	-0.2348	0.023	0.2578	1343.5102	0.171328	-399.301027	-399.291392	-399.290447	-399.335953	34.828	
C	-0.115167199	 1.4205425769	-0.2180452564	-0.312187
N	-0.0503259949	-0.0303973924	-0.1031911771	-0.27544
C	-1.3518484254	-0.6674024857	-0.0404702849	-0.188035
C	-1.2372217902	-2.1863871427	 0.1623802109	 0.139009
C	-2.6090564331	-2.9169121872	-0.0026441347	-0.278113
C	-2.1106735581	-3.3346496445	-1.4065307217	-0.157903
N	-0.7344858603	-2.9634260229	-1.0017659712	-0.328897
C	-0.5098387038	-2.4830016968	 1.4063925675	 0.289366
N	 0.0147970224	-2.7463673956	 2.4016609378	-0.348006
H	 0.8971310209	 1.823930283	-0.3063675594	 0.126815
H	-0.7082414617	 1.7819638381	-1.0774541028	 0.094395
H	-0.5617841978	 1.8372444956	 0.6913411999	 0.131218
H	 0.4908384019	-0.4067514451	-0.8743650313	 0.21507
H	-1.8957270776	-0.2450811719	 0.8142386126	 0.122141
H	-1.9809149533	-0.4905447236	-0.9350644642	 0.080216
H	-2.7235971968	-3.7534333263	 0.6858617261	 0.138003
H	-3.4892989465	-2.2750727282	 0.0488496801	 0.117682
H	-2.2193982335	-4.3887031424	-1.677891609	 0.116672
H	-2.537725738	-2.7209181163	-2.2098948472	 0.100973
H	-0.1842204949	-2.4437276619	-1.677305115	 0.217023
67.7147	97.447	126.7388	147.0388	188.397	213.0449	258.6925	330.2589	369.3123	405.985	534.8655	570.4229	631.6451	723.3835	740.1925	779.2711	893.3751	928.9657	938.5983	979.7501	997.551	1028.2627	1062.66	1122.5317	1141.1528	1149.1079	1182.2581	1197.9169	1215.6037	1221.181	1265.1354	1305.7769	1330.8077	1384.1197	1385.4729	1460.0441	1484.0517	1487.5324	1490.5519	1506.7279	1520.0345	1529.191	2356.5649	2910.5828	2943.6588	3017.2264	3042.7417	3062.1448	3076.8168	3092.6829	3112.1263	3154.5641	3519.1294	3523.3631
CNCC1(CCN1)C#N	CNC[C@]1(CCN1)C#N	
InChI=1S/C6H11N3/c1-8-5-6(4-7)2-3-9-6/h8-9H,2-3,5H2,1H3	InChI=1S/C6H11N3/c1-8-5-6(4-7)2-3-9-6/h8-9H,2-3,5H2,1H3/t6-/m0/s1
