20
gdb 106042	2.75771	1.57783	1.17955	1.1094	78.18	-0.231	0.0615	0.2925	1102.1191	0.171092	-403.079597	-403.071264	-403.07032	-403.112292	32.707	
C	 0.3774754789	 1.423426673	 0.4011967437	-0.394056
C	-0.1770225719	 0.1573291637	-0.2666167629	-0.300493
C	 0.6880417723	-0.3962668814	-1.3623076574	 0.313296
C	 0.8434510489	 0.0090352106	-2.7927838068	-0.136371
C	 2.0838928503	-0.9694924843	-2.851233036	-0.123829
C	 1.0473474528	-2.0808842454	-3.0316810449	-0.15686
N	-0.0031008563	-1.1725030603	-2.4504406888	-0.18648
C	 2.1587427555	-0.8490185197	-1.3035923117	 0.097948
O	 3.0484003595	 0.1355025138	-0.8227388727	-0.440753
H	 1.3601019436	 1.2417717191	 0.843055745	 0.13788
H	 0.4797816985	 2.2380955259	-0.32487233	 0.106274
H	-0.2962725752	 1.7678876756	 1.1913393454	 0.113477
H	-0.3205215234	-0.6253380019	 0.4902092953	 0.105967
H	-1.1679176886	 0.3544227701	-0.6902084668	 0.114271
H	 0.4916360731	 0.8473104272	-3.3806811759	 0.098535
H	 2.9922275993	-0.8775479181	-3.4445725368	 0.077179
H	 0.7839398941	-2.2855859146	-4.0724818841	 0.111199
H	 1.2003857115	-3.0259107718	-2.4960228494	 0.098231
H	 2.4029439351	-1.7612026412	-0.7483032354	 0.083611
H	 2.818176082	 0.9731631898	-1.2429583398	 0.280974
78.011	167.9835	208.0838	232.2036	284.4391	325.7123	352.3473	400.352	455.6447	539.8509	623.2245	743.6046	768.2989	809.2181	821.2971	854.2629	909.0199	933.3427	951.3337	972.0499	978.2357	1003.3456	1050.3921	1074.305	1089.6622	1110.5607	1156.4209	1161.0336	1182.6939	1211.1293	1231.5521	1254.0493	1284.9917	1307.4191	1320.3267	1346.1113	1404.2871	1414.788	1441.2786	1479.406	1498.5528	1511.9258	1515.3708	3021.8622	3028.065	3035.2794	3056.4188	3067.9321	3098.2511	3099.9565	3127.1676	3130.7494	3194.8368	3781.9186
CCC12C3C(CN13)C2O	CC[C@]12[C@H]3[C@H](CN13)[C@H]2O	
InChI=1S/C7H11NO/c1-2-7-5-4(6(7)9)3-8(5)7/h4-6,9H,2-3H2,1H3	InChI=1S/C7H11NO/c1-2-7-5-4(6(7)9)3-8(5)7/h4-6,9H,2-3H2,1H3/t4-,5+,6+,7+,8?/m0/s1
