18
gdb 34037	3.10463	1.3235	1.14236	3.835	76.48	-0.2692	0.0285	0.2978	1107.9131	0.150187	-401.958058	-401.950359	-401.949414	-401.990234	29.857	
N	 0.0111301023	-1.1394801349	-0.017463016	-0.344597
C	 0.0158665834	 0.0179585469	-0.0278171021	 0.218928
C	-0.0013613822	 1.4545910481	-0.0214681474	 0.149799
C	 0.4448321412	 2.1862215339	-1.2731839512	-0.308495
C	 1.3408315119	 2.1943919908	-0.0673280677	-0.061017
C	 1.5077913856	 3.4678956182	 0.7586445238	-0.239535
C	 0.3069583386	 3.719657476	 1.6776364087	-0.079272
O	-0.9203322435	 3.4578432602	 1.010482915	-0.241463
C	-1.118785479	 2.0755743946	 0.8222240995	-0.162948
H	 0.7312647134	 1.5909217096	-2.1317239931	 0.135196
H	-0.0982431348	 3.0984994798	-1.4965942194	 0.137354
H	 2.2139005867	 1.5543527624	-0.1281179098	 0.114272
H	 2.4142284909	 3.3990290479	 1.368741562	 0.112278
H	 1.6428120929	 4.3217014381	 0.0855882039	 0.117334
H	 0.3760481481	 3.0879965998	 2.5774570767	 0.098765
H	 0.2694128097	 4.7636478691	 1.9987408685	 0.115585
H	-2.0841140197	 1.9605580388	 0.3207817281	 0.128173
H	-1.1692440954	 1.5564636807	 1.7926466906	 0.109643
112.1651	145.4789	173.7586	284.4398	369.7028	394.2352	404.7977	500.5	547.5058	574.8257	580.8791	729.2387	777.3901	845.0798	873.0204	927.7334	954.9175	965.5112	1002.0818	1071.1605	1079.4027	1110.3016	1120.1209	1137.9327	1147.0547	1232.9492	1254.1975	1279.3731	1292.8025	1325.533	1365.8526	1369.1197	1417.1375	1425.6975	1475.8794	1489.7835	1496.2663	1507.1289	2346.0792	2980.1912	2983.8003	3040.5946	3082.1438	3085.617	3098.2787	3139.5449	3172.3219	3235.0806
N#CC12CC1CCOC2	N#C[C@]12C[C@H]1CCOC2	
InChI=1S/C7H9NO/c8-4-7-3-6(7)1-2-9-5-7/h6H,1-3,5H2	InChI=1S/C7H9NO/c8-4-7-3-6(7)1-2-9-5-7/h6H,1-3,5H2/t6-,7+/m1/s1
