21
gdb 109976	2.2373	1.27218	0.91188	0.7389	84.48	-0.2552	0.0479	0.3031	1334.4638	0.180871	-387.04865	-387.038827	-387.037883	-387.083085	37.277	
C	 0.1679958747	 1.4103528906	 0.3321782831	-0.392271
C	 0.3009206383	-0.1145460831	 0.2360804355	-0.193486
C	 0.6800875872	-0.5864760403	-1.1676723677	-0.042909
C	 2.203844401	-0.4964307319	-1.5244088194	 0.144976
O	 3.0375968395	 0.4371324734	-0.8855123434	-0.425431
C	 2.360786766	-2.0002000599	-1.197950843	-0.278722
C	 0.8136831519	-2.1476904565	-1.3479495188	-0.192813
C	 0.1107740757	-3.0323345765	-0.4435835615	 0.324705
C	-0.4674036534	-3.7599499448	 0.3207661828	-0.456512
H	 1.1003638114	 1.9071640613	 0.0510119698	 0.131777
H	-0.6172721175	 1.7740296341	-0.3398057025	 0.114967
H	-0.0959148015	 1.7194409038	 1.3484895947	 0.109423
H	 1.0320945954	-0.474782188	 0.973711622	 0.081843
H	-0.6446428265	-0.5903892182	 0.5195152094	 0.114162
H	 0.0115991166	-0.1147104594	-1.8947092752	 0.07086
H	 2.3318932605	-0.3113353403	-2.59493129	 0.093192
H	 3.0234407821	 0.2553237728	 0.0597737555	 0.282471
H	 2.9960406443	-2.6103739426	-1.8428355327	 0.109698
H	 2.6638966328	-2.151483224	-0.1574435714	 0.106054
H	 0.5663208359	-2.4131092433	-2.3810887311	 0.104763
H	-0.9775264045	-4.4087992571	 0.9886218041	 0.193252
79.3797	118.2246	134.9621	181.7088	212.1645	268.096	278.0602	323.2879	355.2605	404.614	478.4592	523.2815	591.4795	617.1652	624.7151	661.4201	751.8184	782.5867	821.9706	912.0469	938.6736	980.3775	1016.6016	1044.6936	1053.0846	1089.9903	1113.0882	1137.0902	1160.3669	1199.464	1237.7072	1255.5976	1271.8415	1300.1886	1315.2997	1338.5453	1351.1873	1393.2744	1410.4472	1443.0777	1485.2457	1495.1068	1498.414	1516.4839	2229.9541	3008.1178	3035.2953	3043.708	3053.4284	3060.7275	3061.8711	3072.5375	3099.1284	3120.7806	3122.278	3504.5046	3814.4858
CCC1C(O)CC1C#C	CC[C@H]1[C@@H](O)C[C@H]1C#C	
InChI=1S/C8H12O/c1-3-6-5-8(9)7(6)4-2/h1,6-9H,4-5H2,2H3	InChI=1S/C8H12O/c1-3-6-5-8(9)7(6)4-2/h1,6-9H,4-5H2,2H3/t6-,7-,8+/m1/s1
