15
gdb 131725	4.0407	0.92745	0.82783	0.4705	64.23	-0.2795	-0.027	0.2524	1363.1273	0.112455	-491.078668	-491.069963	-491.069019	-491.113738	29.917	
O	 0.0621854101	 1.2463391157	 0.4586734668	-0.404287
C	-0.0008018121	-0.1283062636	 0.1156412717	-0.174342
C	-1.4069153042	-0.6135751598	-0.0177400997	 0.358343
N	-2.0679124688	-0.8477786868	-1.1055840791	-0.26231
N	-3.3548326738	-1.2141907995	-0.7101428474	-0.262317
C	-3.3635840441	-1.1692786263	 0.5833976172	 0.358135
C	-4.4806056906	-1.5307941607	 1.5064667162	-0.174119
O	-4.2819182174	-2.7934491374	 2.1208849085	-0.404333
O	-2.1624108431	-0.7961506767	 1.0965909127	-0.174397
H	-0.3012364609	 1.7482647747	-0.279239849	 0.295385
H	 0.5147949308	-0.3521598783	-0.8261370873	 0.133646
H	 0.5018838057	-0.6660836556	 0.9241134097	 0.140817
H	-4.5391475577	-0.8032177882	 2.3205435348	 0.140797
H	-5.4118976687	-1.4845644124	 0.9289893337	 0.133625
H	-4.306976515	-3.4624580551	 1.4278278711	 0.29536
35.4376	60.2314	108.9115	159.2593	241.5217	331.9166	361.7206	376.9975	429.5227	456.2257	653.6052	709.0583	776.1386	828.7748	930.5593	971.2777	1002.7286	1009.8828	1042.4152	1063.5632	1094.5142	1189.8517	1197.669	1252.2141	1377.2977	1378.4422	1385.7159	1417.0347	1441.2868	1484.8147	1485.3461	1599.0748	1603.7408	3038.7494	3038.8802	3105.1169	3105.3006	3808.4914	3808.6978
OCC1=NN=C(CO)O1	OCc1nnc(CO)o1	
InChI=1S/C4H6N2O3/c7-1-3-5-6-4(2-8)9-3/h7-8H,1-2H2	InChI=1S/C4H6N2O3/c7-1-3-5-6-4(2-8)9-3/h7-8H,1-2H2
