17
gdb 98171	2.28726	1.25796	1.13932	2.2243	70.93	-0.2607	-0.008	0.2527	1196.3422	0.131253	-458.953821	-458.943331	-458.942387	-458.989646	36.831	
C	-0.4284147035	 1.3401077036	-0.556110249	-0.243404
O	-0.3588031274	-0.0850553964	-0.710183864	-0.250931
C	 0.8810259383	-0.5965165465	-0.8250967538	 0.437578
O	 1.8891568298	 0.0560282129	-0.7998945975	-0.355591
C	 0.803380095	-2.1343870134	-1.0077809935	 0.058312
C	 2.1355442765	-2.7741967134	-0.6134218008	-0.399597
O	-0.1925674275	-2.6802713685	-0.1545064408	-0.437046
C	 0.4893865605	-2.3823818327	-2.4252676741	 0.347263
C	 0.2184795029	-2.5751919972	-3.5802308732	-0.498714
H	 0.097254694	 1.6515434354	 0.3495774085	 0.147419
H	 0.0228114867	 1.8381593105	-1.4174523306	 0.148079
H	-1.4890142836	 1.5798185708	-0.4857177433	 0.137947
H	 2.3257369349	-2.5858315948	 0.4456380198	 0.131638
H	 2.0797838292	-3.8509665868	-0.7827696225	 0.133867
H	 2.9486976572	-2.3501262931	-1.2024503926	 0.145731
H	-1.0103056348	-2.1988112058	-0.3266296052	 0.292498
H	-0.0191423383	-2.7530145445	-4.6003007673	 0.204953
42.4171	96.5836	113.6538	169.5269	176.0254	200.615	210.5744	313.0854	326.3038	366.5318	381.466	420.7239	459.5613	584.005	623.3721	639.7497	669.1844	770.6199	811.095	885.3956	953.4088	1012.2411	1096.4119	1157.6907	1179.4107	1183.0845	1213.0808	1254.6412	1382.6515	1408.5664	1472.4666	1477.6679	1481.6223	1486.7408	1496.6344	1834.5566	2229.2701	3056.2088	3065.0771	3133.8715	3144.5667	3163.7656	3164.9358	3499.42	3804.7605
COC(=O)C(C)(O)C#C	COC(=O)[C@@](C)(O)C#C	
InChI=1S/C6H8O3/c1-4-6(2,8)5(7)9-3/h1,8H,2-3H3	InChI=1S/C6H8O3/c1-4-6(2,8)5(7)9-3/h1,8H,2-3H3/t6-/m0/s1
