17
gdb 54335	2.8583	1.47362	1.09433	2.9258	68.99	-0.2379	0.0149	0.2528	1103.8474	0.137598	-455.169317	-455.161273	-455.160329	-455.202076	30.868	
O	 0.3910272082	 0.6286291547	 0.5685823563	-0.363634
C	-0.1365474774	 1.5298846784	-0.0229534807	 0.392369
O	 0.5070296979	 2.3429564003	-0.8954954231	-0.254303
C	-1.5695380525	 1.9641974554	 0.0238867763	 0.180381
C	-2.6413575973	 0.892769608	-0.0747947114	-0.282201
C	-2.4328180078	 1.6471544559	 1.2082774389	-0.321326
N	-1.6632559423	 3.2093900687	-0.702877057	-0.369906
C	-0.4533367239	 3.2921855951	-1.5015504697	 0.15269
N	 0.0547502159	 4.6141677678	-1.5595640993	-0.503896
H	 0.7742788621	 4.69910932	-2.2677201184	 0.251424
H	 0.4612093552	 4.8801489765	-0.6671376053	 0.238128
H	-3.5045746455	 1.1455439992	-0.6789202898	 0.129641
H	-2.3078997755	-0.1374302285	-0.121452584	 0.139349
H	-1.9485297613	 1.1342579511	 2.0317403258	 0.145125
H	-3.1727928746	 2.3893523058	 1.487824691	 0.124088
H	-1.6956330541	 4.0060816966	-0.0736718121	 0.228861
H	-0.6206779271	 2.923049555	-2.5192663474	 0.113211
72.0245	128.3264	233.3952	237.1323	297.56	343.1548	381.4626	468.2986	547.2441	594.2307	693.843	706.548	746.4078	766.1611	787.9534	828.1355	885.854	912.0939	944.6851	954.8109	1020.122	1043.8037	1064.4925	1090.5059	1150.9748	1201.5062	1220.7399	1245.9131	1320.0559	1337.5845	1377.7035	1418.3816	1446.393	1474.7602	1488.4269	1668.2662	1869.3842	3055.3172	3135.9391	3144.0513	3226.3412	3244.9817	3509.384	3512.4721	3601.5239
[O-]C(=O)C1(CC1)NC=[NH2+]	O=C1O[C@@H](NC21CC2)N	
InChI=1S/C5H8N2O2/c6-3-7-5(1-2-5)4(8)9/h3H,1-2H2,(H2,6,7)(H,8,9)	InChI=1S/C5H8N2O2/c6-4-7-5(1-2-5)3(8)9-4/h4,7H,1-2,6H2/t4-/m1/s1
