15
gdb 34060	4.20035	1.41458	1.22313	3.4861	79.79	-0.2316	-0.0606	0.171	995.2964	0.111584	-379.491786	-379.484653	-379.483709	-379.523005	28.648	
C	-0.0794707977	-1.1327910822	 0.0073022799	-0.373968
C	-0.051947927	 0.0703098007	-0.0111897413	 0.205308
C	-0.0471335629	 1.4894706778	-0.0230340144	 0.177454
N	-1.3770563923	 2.2525117884	 0.3763817891	-0.377591
C	-0.5743047692	 3.3512772018	-0.1891052226	 0.096796
N	-0.0209547427	 4.1345972259	 0.6466398437	-0.145327
C	 1.4149610132	 3.74053737	 0.6339185115	-0.182719
C	 1.3388742407	 2.3374448159	-0.0031653447	-0.101606
C	 0.3376638707	 2.4546973232	-1.0872805111	-0.200399
H	-0.0988504917	-2.1945534859	 0.0253158825	 0.19608
H	-2.0296384803	 1.8802982924	-0.3236259556	 0.229554
H	 2.0935281772	 4.3920128516	 0.0625302559	 0.115704
H	 1.7382164146	 3.7494056294	 1.6791753572	 0.136267
H	 2.2187241398	 1.7080801389	-0.1076059884	 0.107641
H	 0.4035478076	 2.3541444922	-2.1626594817	 0.116806
136.0731	149.881	290.2374	349.4256	433.8792	464.465	499.4789	562.2689	583.2836	642.6328	656.0537	679.1561	700.6277	784.6689	830.0804	889.9838	921.0331	936.5996	954.4372	1001.5233	1015.083	1063.3346	1123.0544	1132.6797	1184.1717	1193.8504	1232.5008	1262.6523	1303.5867	1370.8049	1478.626	1619.0036	2228.7163	2993.9133	3082.5416	3160.6373	3199.649	3368.5126	3500.7554
C#CC12NC3=NCC1C23	C#C[C@@]12N[C]3[N]C[C@@H]1[C@@H]23	
InChI=1S/C7H6N2/c1-2-7-4-3-8-6(9-7)5(4)7/h1,4-5H,3H2,(H,8,9)	InChI=1S/C7H6N2/c1-2-7-4-3-8-6(9-7)5(4)7/h1,4-5H,3H2,(H,8,9)/t4-,5-,7-/m1/s1
