14
gdb 11810	3.547	1.8111	1.374	1.6452	58.04	-0.2493	-0.0427	0.2066	870.1934	0.104608	-419.645918	-419.638243	-419.637299	-419.678228	27.522	
O	 0.5140373694	 0.9108333324	-0.7086377815	-0.423016
C	 0.0856311548	-0.2642304565	-0.093566238	-0.021368
C	 0.0748945162	-0.3651433344	 1.443976101	 0.338936
O	 0.720359718	 0.1909399754	 2.2853316196	-0.295398
C	-1.24864921	-1.1545517368	 1.4421736183	-0.439722
C	-1.411018291	-0.6508421191	-0.0028405556	 0.389261
C	-2.540468481	 0.0266308125	-0.6318367394	-0.256959
O	-2.1275461251	-1.2963518917	-1.0263435339	-0.267584
H	 0.5689794889	 1.5966497788	-0.0327526229	 0.29799
H	 0.6331557875	-1.1145841141	-0.5264246096	 0.126935
H	-1.0951258762	-2.2375316522	 1.4964920018	 0.149018
H	-1.9880837756	-0.8556772134	 2.1871831013	 0.143855
H	-3.4972753097	 0.0794934665	-0.11505984	 0.122919
H	-2.3483820863	 0.8079098526	-1.3645114713	 0.135136
78.9054	106.8323	198.4936	227.3069	295.6352	338.4302	398.6252	529.5163	542.0996	622.4403	748.9006	764.1895	846.8251	878.2046	919.2564	991.3395	1037.6326	1074.9585	1126.5309	1136.0964	1154.851	1161.923	1200.3948	1238.0078	1326.7265	1400.802	1428.9702	1447.6823	1533.6999	1890.2582	3012.0087	3061.5182	3091.	3128.6756	3184.8243	3793.9592
OC1C(=O)CC11CO1	O[C@H]1C(=O)C[C@]21CO2	
InChI=1S/C5H6O3/c6-3-1-5(2-8-5)4(3)7/h4,7H,1-2H2	InChI=1S/C5H6O3/c6-3-1-5(2-8-5)4(3)7/h4,7H,1-2H2/t4-,5+/m0/s1
