21
gdb 115634	2.33135	1.3037	1.01256	2.0549	79.95	-0.2245	0.0692	0.2937	1288.8453	0.180273	-424.180497	-424.170787	-424.169843	-424.215461	35.339	
C	 0.1249255169	 1.4100437069	-0.0097921774	-0.238721
O	-0.3029802036	 0.1427828832	-0.4611300926	-0.239709
C	 0.6667721753	-0.5346031462	-1.2085651634	-0.007999
C	 1.7720373109	-1.3175258954	-0.4518764948	-0.109849
O	 1.3788983495	-2.5505474173	-1.0971611528	-0.309634
C	 0.2382017089	-1.9147815809	-1.6799811128	 0.427742
C	-1.1318170384	-2.5087341721	-1.636873075	-0.35426
C	-0.3865257356	-2.3595197468	-2.9593378689	-0.08328
C	-0.8389031486	-1.351847579	-3.9924979966	-0.412749
H	 0.9791962806	 1.3349971168	 0.6797003305	 0.110155
H	 0.4150156108	 2.0622568041	-0.8482515503	 0.107717
H	-0.7142959578	 1.8654668887	 0.5206124627	 0.131778
H	 1.0607811496	 0.112011434	-2.0071925225	 0.074502
H	 2.813877651	-1.0599290592	-0.6686304855	 0.102793
H	 1.6078509706	-1.3491017044	 0.6325467368	 0.105235
H	-1.222491377	-3.5045582604	-1.2165538532	 0.118898
H	-1.9608818369	-1.8398076087	-1.4290450058	 0.123337
H	 0.0245757128	-3.2846771603	-3.3562258607	 0.094513
H	-1.1982529573	-0.4350585077	-3.5130162766	 0.122872
H	-0.0231059333	-1.0780642445	-4.670996766	 0.116734
H	-1.6598425686	-1.7493788909	-4.5991278052	 0.119924
60.5265	89.005	140.795	155.1436	202.3684	211.8927	230.4604	317.5097	399.4275	430.189	452.8603	517.5886	587.4783	775.8545	819.3003	857.4953	900.1049	926.7159	951.566	1005.8958	1013.7487	1035.4935	1047.2419	1081.8506	1111.0165	1126.0904	1159.52	1173.0679	1177.7164	1183.3238	1204.8327	1234.7306	1261.9411	1318.5321	1344.672	1397.4411	1412.5729	1424.6495	1481.8781	1484.4073	1490.331	1494.7648	1502.7024	1508.4488	1518.9211	2975.2066	2986.5163	3018.6748	3025.6798	3026.0789	3078.8413	3089.1471	3094.9288	3119.9065	3129.8439	3141.8857	3221.7978
COC1COC11CC1C	CO[C@H]1CO[C@]21C[C@H]2C	
InChI=1S/C7H12O2/c1-5-3-7(5)6(8-2)4-9-7/h5-6H,3-4H2,1-2H3	InChI=1S/C7H12O2/c1-5-3-7(5)6(8-2)4-9-7/h5-6H,3-4H2,1-2H3/t5-,6+,7-/m1/s1
