20
gdb 82488	3.34708	1.47883	1.36694	1.5858	78.48	-0.2052	0.0735	0.2787	1024.7617	0.171237	-403.09248	-403.084533	-403.083589	-403.124342	32.052	
C	-0.2449380862	 1.5032597986	-0.0054146477	-0.329543
N	 0.0988429194	 0.0989734866	 0.0127664424	-0.053453
C	 1.0033940544	-0.4853636151	-0.9894019854	-0.008064
C	 2.4114335981	 0.1818490124	-1.1041807791	-0.31698
C	 2.8268074974	-0.5159165716	 0.2159974893	 0.413654
O	 4.1061745849	-1.0702700392	 0.3098208508	-0.48534
C	 2.216669652	 0.1674344406	 1.4662615082	-0.316873
C	 0.8425786606	-0.497260928	 1.1332235114	-0.008088
C	 1.5624931311	-1.4387298202	 0.1150511606	-0.104899
H	 0.6151033349	 2.1916963212	 0.063575049	 0.094468
H	-0.7820097498	 1.7326950522	-0.9326150049	 0.119574
H	-0.9157073265	 1.7228121927	 0.8328273966	 0.119583
H	 0.5188818104	-0.7909786623	-1.9199887479	 0.070461
H	 2.964065256	-0.2643568264	-1.9371873359	 0.104665
H	 2.4741194108	 1.2731168466	-1.169107397	 0.087112
H	 4.7439721666	-0.3490408579	 0.3587820892	 0.274502
H	 2.637956966	-0.2885441155	 2.3679183948	 0.104706
H	 2.2679390645	 1.257852259	 1.5521494486	 0.087077
H	 0.223623936	-0.8128539748	 1.9766913684	 0.070459
H	 1.5533542094	-2.5237241292	 0.1082679685	 0.076979
161.943	182.9825	192.0893	230.0314	303.0769	378.4824	386.6814	445.9266	493.6731	586.729	639.5675	697.8107	778.5347	837.4934	851.1534	874.5368	913.2273	922.7487	937.098	959.9336	976.9982	1037.0531	1075.3787	1110.3642	1126.9994	1133.1109	1158.0993	1174.5181	1198.3042	1216.1053	1234.7816	1235.9904	1256.8487	1272.5356	1298.3733	1306.8463	1349.4407	1370.205	1446.4235	1466.7162	1474.3901	1494.3441	1507.0931	2951.2431	3037.3178	3040.1855	3049.7435	3067.8298	3070.7421	3091.3022	3096.3147	3098.9198	3174.1706	3791.9713
CN1C2CC3(O)CC1C23	CN1[C@H]2C[C@@]3(O)C[C@@H]1[C@@H]23	
InChI=1S/C7H11NO/c1-8-4-2-7(9)3-5(8)6(4)7/h4-6,9H,2-3H2,1H3	InChI=1S/C7H11NO/c1-8-4-2-7(9)3-5(8)6(4)7/h4-6,9H,2-3H2,1H3/t4-,5+,6+,7+
