21
gdb 68488	2.61146	1.66563	1.26998	0.5375	77.45	-0.2441	0.0736	0.3177	1057.2721	0.184695	-424.218841	-424.211049	-424.210105	-424.250395	32.404	
O	-0.0040914559	 1.4344587797	-0.0681206624	-0.478034
C	 0.0003074145	 0.026539656	 0.0413106375	 0.388106
C	 0.24255944	-0.627559398	 1.4325290692	-0.28451
C	-0.9376945968	-1.5961459528	 1.1163350419	-0.003156
C	-1.4299618423	-0.5567814958	 0.0670850418	-0.275263
C	-0.4994824722	-2.940126059	 0.5204728629	-0.213003
C	 0.2203619524	-2.8486346999	-0.8335781498	-0.071461
O	 1.2938283985	-1.9201484504	-0.8432873262	-0.24159
C	 0.912688346	-0.5746834332	-1.0464321782	-0.141987
H	 0.9042738339	 1.7489285217	 0.0037761674	 0.275035
H	 1.2238359015	-1.0681992326	 1.623301181	 0.099522
H	-0.0162488349	 0.0765310702	 2.2273223834	 0.097549
H	-1.6187562127	-1.7782094503	 1.9508329767	 0.069084
H	-2.1077903293	 0.1740232447	 0.5142837514	 0.108676
H	-1.8619309311	-0.9131995898	-0.8724413792	 0.092016
H	 0.1559162817	-3.4475202531	 1.2394677791	 0.102702
H	-1.3759397847	-3.5874059415	 0.3830854364	 0.094345
H	 0.6584096388	-3.8213637804	-1.0801614032	 0.104242
H	-0.4928373115	-2.6023051195	-1.6355738904	 0.091274
H	 0.4318419385	-0.4458122286	-2.0303518932	 0.095855
H	 1.8543809756	-0.0113122574	-1.0592441162	 0.0906
194.2524	223.3766	273.0715	299.958	325.5989	356.4627	397.4931	415.8192	435.1452	511.8948	573.4534	652.368	774.722	826.8686	847.0031	865.6114	905.2688	921.8653	931.9856	969.2173	995.2971	1038.2095	1063.0925	1100.912	1110.7504	1130.5398	1166.2293	1176.9315	1193.369	1237.5279	1254.6489	1265.7992	1288.7266	1297.9176	1317.0772	1353.7689	1373.569	1384.8823	1406.7688	1421.3698	1462.8046	1477.5171	1481.9252	1495.2479	1510.7477	2969.9056	2984.4683	3016.3718	3044.5572	3055.0608	3056.2078	3059.7025	3072.1093	3075.506	3115.196	3122.1254	3793.4339
OC12CC(C1)CCOC2	O[C@@]12C[C@@H](C1)CCOC2	
InChI=1S/C7H12O2/c8-7-3-6(4-7)1-2-9-5-7/h6,8H,1-5H2	InChI=1S/C7H12O2/c8-7-3-6(4-7)1-2-9-5-7/h6,8H,1-5H2/t6-,7-
