23
gdb 76881	2.19863	1.76643	1.43993	1.4546	82.77	-0.2461	0.0723	0.3184	1070.6559	0.208471	-388.313132	-388.304767	-388.303823	-388.345827	33.707	
C	-0.2134881482	 1.5933106356	-0.0561192361	-0.419324
C	 0.0589988082	 0.089160383	-0.0115611435	 0.016196
C	 0.8428017277	-0.5063178603	-1.2117564911	 0.064962
C	 2.1861291165	 0.2178567526	-1.4480786618	-0.222217
C	 3.0302208593	-0.3286704863	-0.2582104236	-0.222229
C	 2.0048036971	-1.2588052945	 0.4260548913	 0.064935
O	 1.267684999	-1.7759231848	-0.6925447327	-0.265742
C	 0.9142375932	-0.4649418231	 1.1940518943	 0.016259
C	 1.4102630606	 0.5409233796	 2.2336950815	-0.419353
H	 0.6981516358	 2.1959424342	-0.0219546614	 0.117947
H	-0.7492416688	 1.8597107811	-0.9741900482	 0.112255
H	-0.8400335276	 1.90313946	 0.7863394178	 0.115648
H	-0.9111827452	-0.4178670753	 0.0048761742	 0.077107
H	 0.2412300641	-0.6623380854	-2.1086610468	 0.069054
H	 2.6102838162	-0.0854917704	-2.4080560645	 0.103331
H	 2.0985209323	 1.3060681907	-1.4545824603	 0.097907
H	 3.8846733819	-0.9103812264	-0.6117740799	 0.103335
H	 3.4129688993	 0.4549053582	 0.3986268367	 0.097903
H	 2.4395482911	-2.0858721494	 0.9896378617	 0.069054
H	 0.3072305949	-1.2074493729	 1.7220954857	 0.077115
H	 1.9884580759	 1.3597703678	 1.7971117525	 0.117945
H	 0.5719485513	 0.9882690355	 2.7772043011	 0.115658
H	 2.0491923854	 0.0454550503	 2.9733792131	 0.112255
63.9946	193.081	213.3238	263.0696	277.6599	284.5634	363.7864	472.2536	490.4053	551.1658	567.5306	700.0666	767.9458	792.4557	812.6673	828.0343	885.8362	916.0304	936.2441	964.2503	996.0329	1005.8146	1025.4088	1036.3451	1061.1147	1096.5905	1100.6605	1134.847	1168.3408	1171.3582	1209.2325	1233.0872	1260.8492	1299.2917	1303.8308	1315.2708	1339.6946	1346.7484	1359.0704	1367.1854	1375.2614	1407.6073	1419.4627	1477.4929	1489.8916	1497.9959	1500.1818	1507.3547	1517.9179	3030.6142	3032.0946	3035.3627	3051.4532	3066.9668	3076.0466	3090.7084	3095.1752	3101.0937	3102.6963	3108.716	3110.8032	3111.4465	3126.5097
CC1C2CCC(O2)C1C	C[C@H]1[C@H]2CC[C@H](O2)[C@H]1C	
InChI=1S/C8H14O/c1-5-6(2)8-4-3-7(5)9-8/h5-8H,3-4H2,1-2H3	InChI=1S/C8H14O/c1-5-6(2)8-4-3-7(5)9-8/h5-8H,3-4H2,1-2H3/t5-,6+,7-,8+
