17
gdb 51339	4.75188	1.01271	0.97124	4.3235	73.5	-0.2655	0.0114	0.2769	1225.7717	0.136553	-421.796924	-421.789572	-421.788627	-421.82969	27.915	
O	-0.0964490044	 0.0042628142	 0.0621186757	-0.278871
C	-0.0287546152	 1.1958943419	 0.1084207406	 0.163841
O	 1.0743528586	 1.8815706972	-0.2385278327	-0.202276
C	 1.0466267155	 3.3096144084	-0.1637581066	 0.170265
C	 2.1913213066	 4.0051474689	 0.5402744925	-0.112015
C	 3.3139461222	 4.1956529588	-0.4857341533	-0.061373
C	 2.8606795421	 3.5407937616	-1.79021766	-0.227536
C	 1.447427499	 4.0814478517	-1.4418982877	-0.118216
C	 2.1334285111	 5.132394588	-0.4772284481	-0.085442
H	-0.8568676292	 1.8537591813	 0.4403820512	 0.074182
H	 0.0768363222	 3.6428094813	 0.2223970223	 0.088318
H	 2.3710398653	 4.0783831246	 1.6043392377	 0.095877
H	 4.3224839403	 4.399590129	-0.1508452151	 0.093802
H	 3.2758773119	 4.0612045299	-2.6569168428	 0.10345
H	 2.9685887263	 2.4589056929	-1.9078595542	 0.116734
H	 0.7099700215	 4.2860962297	-2.2142996052	 0.079063
H	 2.0300817561	 6.1981505404	-0.3455558143	 0.100198
44.8939	136.3982	148.7969	322.2873	327.7095	442.5561	491.6107	720.4125	736.7111	752.2788	794.3194	802.9315	825.3072	889.2638	928.1267	981.0691	992.041	1005.4263	1028.0934	1028.9157	1042.8836	1047.0913	1072.3763	1097.4415	1143.6875	1159.5022	1166.9698	1196.1696	1224.8889	1249.6979	1282.0865	1336.1602	1366.4923	1386.3722	1445.8114	1497.5973	1864.4882	2936.2416	3049.0338	3058.6759	3116.1209	3146.8499	3201.4794	3210.5642	3242.2031
O=COC1C2C3CC1C23	O=CO[C@H]1[C@H]2[C@H]3C[C@@H]1[C@@H]23	
InChI=1S/C7H8O2/c8-2-9-7-4-1-3-5(4)6(3)7/h2-7H,1H2	InChI=1S/C7H8O2/c8-2-9-7-4-1-3-5(4)6(3)7/h2-7H,1H2/t3-,4+,5-,6-,7+/m0/s1
