18
gdb 44912	2.72236	1.75609	1.53216	3.8001	75.89	-0.2294	0.0056	0.2351	940.5041	0.151913	-402.009278	-402.002495	-402.001551	-402.040146	28.192	
O	 0.0003935412	-0.0145753379	 0.0593358664	-0.382547
C	 0.0070406924	 1.1901051913	-0.0243398655	 0.418004
N	-1.0926329961	 2.0177874642	-0.0951910688	-0.293968
C	-0.7381008234	 3.4371250951	-0.057941367	-0.013458
C	 0.6470020798	 3.3826800075	-0.7365355009	-0.224761
C	 1.2227798062	 2.1530470185	-0.0142708025	-0.176299
C	 1.4483241918	 2.5154245817	 1.4426736403	-0.065794
C	 0.6120864699	 3.3454680628	 2.0712644197	-0.048137
C	-0.5851963023	 3.961886522	 1.3854301506	-0.251567
H	-2.001334094	 1.6683185755	 0.1683879843	 0.246344
H	-1.4695565762	 4.0291502761	-0.6142581448	 0.080584
H	 0.5407860745	 3.2079163788	-1.8106244022	 0.108443
H	 1.2343928438	 4.2881196325	-0.5709588469	 0.107348
H	 2.096885296	 1.6977403398	-0.4770839446	 0.087904
H	 2.2779067602	 2.0521401512	 1.96648325	 0.098959
H	 0.7667065155	 3.5924209538	 3.1182672006	 0.09224
H	-0.4962512487	 5.0575578484	 1.3732121285	 0.111207
H	-1.4991078708	 3.7454943386	 1.9565084928	 0.1055
138.4554	219.1903	354.7932	396.3074	430.5497	481.2852	488.2641	524.0123	622.0487	688.8723	713.9435	764.3371	823.5999	847.6344	881.5034	917.2007	932.3676	957.9122	991.1169	1006.8536	1039.2475	1050.6852	1075.2037	1133.8934	1173.3522	1197.607	1228.1039	1236.9057	1275.1835	1322.8906	1327.7121	1344.8832	1382.0645	1405.0925	1416.8311	1466.9748	1494.5381	1697.3641	1841.1274	3004.5165	3030.6059	3061.1888	3074.525	3120.0028	3127.6917	3157.6559	3188.0042	3627.9997
O=C1NC2CC1C=CC2	O=C1N[C@@H]2C[C@H]1C=CC2	
InChI=1S/C7H9NO/c9-7-5-2-1-3-6(4-5)8-7/h1-2,5-6H,3-4H2,(H,8,9)	InChI=1S/C7H9NO/c9-7-5-2-1-3-6(4-5)8-7/h1-2,5-6H,3-4H2,(H,8,9)/t5-,6+/m1/s1
