15
gdb 16324	3.73176	1.68547	1.33959	3.0817	61.53	-0.2458	0.0071	0.2529	905.483	0.119058	-399.781764	-399.77431	-399.773366	-399.813856	27.492	
O	 0.649801263	 0.2438262026	 0.9306060109	-0.409097
C	-0.0291229475	 0.2582893749	-0.3160618134	-0.192271
C	-1.4023308467	-0.3607382817	-0.254379179	 0.143037
C	-2.2442208588	-0.4938416098	 1.0197305925	-0.333165
C	-1.8787382947	-1.7155619154	 0.2317913503	-0.030243
N	-2.71086614	-1.8546375237	-0.9689762193	-0.345448
C	-2.3625769922	-0.5687831854	-1.4263712232	 0.365846
O	-2.7177851933	 0.0693186051	-2.3762459603	-0.341657
H	 0.3000526313	 0.9631574161	 1.4651352175	 0.289359
H	-0.1126619488	 1.2775512887	-0.720238633	 0.115124
H	 0.5995583932	-0.3094733836	-1.0106837022	 0.128478
H	-1.6790025656	-0.3395759471	 1.9345923396	 0.123131
H	-3.2730171558	-0.1456172132	 1.0454741997	 0.121079
H	-1.2876900829	-2.5432343791	 0.5996764357	 0.123517
H	-3.6677451215	-2.1915696582	-0.9569162358	 0.242311
58.7948	155.96	211.5417	273.0627	313.1279	332.0867	444.6162	577.2395	595.357	678.7441	721.5296	757.5923	844.431	906.8985	924.4121	966.6636	1015.275	1031.8425	1065.5137	1075.6958	1095.4178	1131.2421	1215.8938	1228.0414	1285.5155	1323.9707	1380.7263	1396.4166	1414.8234	1478.451	1501.7741	1892.539	3001.5916	3067.4636	3113.0561	3204.058	3214.4196	3538.3757	3826.2157
OCC12CC1NC2=O	OC[C@]12C[C@H]1NC2=O	
InChI=1S/C5H7NO2/c7-2-5-1-3(5)6-4(5)8/h3,7H,1-2H2,(H,6,8)	InChI=1S/C5H7NO2/c7-2-5-1-3(5)6-4(5)8/h3,7H,1-2H2,(H,6,8)/t3-,5-/m1/s1
