21
gdb 95848	2.38581	1.32493	1.08664	1.3606	83.68	-0.2538	0.0395	0.2932	1230.0284	0.182762	-387.070954	-387.062025	-387.06108	-387.10418	34.884	
C	 0.0209659554	 1.6043726335	-0.0035415378	-0.403441
C	 0.0367873726	 0.074843706	-0.0383556189	 0.031977
C	 0.7717990369	-0.4718953833	-1.2741305501	-0.196818
C	 0.8468751999	-1.9982394238	-1.2333266649	-0.087329
O	 1.4563073563	-2.4652767462	-0.0339087853	-0.247252
C	 0.7714687394	-2.0559849833	 1.1457649552	-0.072218
C	 0.6813029648	-0.5178966171	 1.2244909132	-0.208544
C	-0.5490039254	-2.694405418	 1.2677422261	 0.352293
C	-1.6272741475	-3.2160745766	 1.3735399399	-0.496408
H	 1.0393696142	 2.0080078841	 0.0423057066	 0.113246
H	-0.4588134108	 2.0146986023	-0.8986189846	 0.111041
H	-0.5244135574	 1.9767591578	 0.8703304196	 0.111571
H	-1.0021688492	-0.2811341227	-0.079316408	 0.08374
H	 0.2691671544	-0.1535309251	-2.1956139369	 0.091779
H	 1.7908679708	-0.0634673415	-1.3026948343	 0.097856
H	-0.1597542983	-2.4317699275	-1.3351014471	 0.099379
H	 1.4661816414	-2.3893644183	-2.0453328888	 0.105933
H	 1.399849305	-2.4198065632	 1.9666548694	 0.11108
H	 1.7040207974	-0.1344119344	 1.3288610596	 0.099442
H	 0.1257102889	-0.2284462465	 2.1229613994	 0.103476
H	-2.5745539789	-3.6863590261	 1.4717224577	 0.199198
100.2589	124.2919	197.4118	231.2047	259.4113	300.8576	329.9721	394.1345	401.9996	446.4033	544.9251	582.7462	626.3061	670.7919	712.7085	783.888	812.4744	869.5997	890.2423	943.9544	974.008	1002.4475	1006.7013	1030.1575	1104.4491	1107.4787	1139.7622	1185.5638	1211.9398	1279.5858	1287.4647	1296.4065	1335.0493	1341.2707	1367.9793	1383.7644	1396.7435	1411.8827	1415.6597	1468.8422	1483.3372	1497.0328	1500.1287	1502.6837	2226.7316	2994.5459	3008.1455	3018.1197	3023.2943	3029.9014	3047.0792	3064.1811	3078.8015	3088.5483	3091.8952	3096.4701	3501.676
CC1CCOC(C1)C#C	C[C@H]1CCO[C@@H](C1)C#C	
InChI=1S/C8H12O/c1-3-8-6-7(2)4-5-9-8/h1,7-8H,4-6H2,2H3	InChI=1S/C8H12O/c1-3-8-6-7(2)4-5-9-8/h1,7-8H,4-6H2,2H3/t7-,8+/m0/s1
