16
gdb 90847	3.16546	1.93124	1.47827	1.0865	66.93	-0.2277	0.0396	0.2673	875.2855	0.124745	-437.732415	-437.725927	-437.724983	-437.762993	26.903	
O	 0.1823160335	 1.365791745	 0.0457316571	-0.421109
C	-0.0306724761	-0.0309986794	 0.0319096338	-0.063288
C	 0.3516893551	-0.62244749	 1.4590012055	-0.172593
N	-0.915221496	-1.2004879414	 2.0591469985	-0.178249
C	-1.5314187335	-1.8573665198	 0.8426758486	-0.07473
C	-2.9221690087	-1.1969205617	 0.9131537216	-0.000866
O	-2.7955814656	-0.5512877819	-0.4394165569	-0.404909
C	-1.4666976358	-0.4780724318	 0.1552945465	 0.45708
C	-1.9569447916	-0.2077328759	 1.5948867209	-0.060124
H	-0.1123843198	 1.7249782461	-0.797525679	 0.291691
H	 0.5231197584	-0.5164669372	-0.7813645066	 0.082612
H	 1.1044376798	-1.4106361095	 1.3879960146	 0.114492
H	 0.7325384411	 0.1863072688	 2.0861992086	 0.1307
H	-1.2326943072	-2.8319133948	 0.4573913442	 0.09263
H	-3.9103230982	-1.5719073063	 1.1729101438	 0.106047
H	-2.1487189154	 0.7487617197	 2.0771103688	 0.100615
157.8399	247.5047	305.4653	373.6239	470.8723	496.0843	544.6589	655.059	722.9547	773.9979	799.0598	808.4174	839.6993	851.9562	889.213	917.5359	935.2078	968.7153	982.8709	1032.5268	1050.1152	1082.2778	1120.4755	1137.8895	1156.7733	1164.2554	1201.2474	1227.7085	1241.5641	1260.5985	1299.7903	1329.9339	1357.0837	1408.2352	1481.5191	3025.7744	3075.9426	3123.5024	3135.7336	3137.1363	3150.187	3815.9229
OC1CN2C3C4OC13C24	O[C@H]1CN2[C@H]3[C@@H]4O[C@]13[C@H]24	
InChI=1S/C6H7NO2/c8-2-1-7-4-3-5(7)6(2,4)9-3/h2-5,8H,1H2	InChI=1S/C6H7NO2/c8-2-1-7-4-3-5(7)6(2,4)9-3/h2-5,8H,1H2/t2-,3-,4-,5+,6+/m0/s1
