18
gdb 12961	2.38121	2.18318	1.85752	2.8423	67.46	-0.2456	0.0655	0.3111	858.1625	0.153507	-384.911523	-384.903575	-384.90263	-384.94313	30.949	
C	-0.0525914593	 1.5430325159	 0.0136101579	-0.50532
C	 0.0457867217	 0.0437409162	 0.0040568726	 0.277102
C	-0.8339975297	-0.8401775947	 0.8224733781	 0.043476
O	-1.606507262	-1.8412035272	 0.1934853267	-0.431226
C	 0.6463072281	-0.9655723619	 1.0294992435	-0.164559
C	 1.2576790981	-1.7983805597	-0.0985601716	-0.273764
C	 0.678825422	-0.7759316184	-1.1376678321	 0.100511
O	-0.1498088094	-1.2250844231	-2.175286773	-0.444321
H	 0.9182455535	 2.0069072973	-0.194013456	 0.118588
H	-0.7556749613	 1.8884221082	-0.7535118962	 0.132548
H	-0.4030645263	 1.9198498479	 0.9801396331	 0.115176
H	-1.3668157614	-0.3237894765	 1.6211865099	 0.09065
H	-1.6140681814	-2.6205598502	 0.759579216	 0.291198
H	 1.1059060186	-0.7656764512	 1.9909476906	 0.084854
H	 2.3493265517	-1.8211607167	-0.0871957986	 0.102051
H	 0.8840580475	-2.8221363419	-0.1958591572	 0.087078
H	 1.48809149	-0.2132397695	-1.61223494	 0.085584
H	-0.8951941904	-1.6649112147	-1.7452467839	 0.290375
168.4012	181.5706	223.6611	225.8104	276.6986	304.9233	371.5709	423.1139	520.2294	565.9122	590.1129	652.3621	752.8125	793.7299	845.7888	885.5836	955.6829	961.8156	1000.0438	1025.2053	1064.1939	1099.8474	1114.3528	1136.7414	1165.3118	1216.8144	1235.5762	1257.4403	1292.9652	1304.4213	1322.5325	1347.6375	1413.0152	1462.2051	1466.5508	1486.2125	1492.95	1501.3193	3022.8528	3053.8561	3066.6934	3084.7955	3094.1388	3105.0017	3112.3205	3174.6649	3759.0584	3803.4671
CC12C(O)C1CC2O	C[C@]12[C@@H](O)[C@H]1C[C@H]2O	
InChI=1S/C6H10O2/c1-6-3(5(6)8)2-4(6)7/h3-5,7-8H,2H2,1H3	InChI=1S/C6H10O2/c1-6-3(5(6)8)2-4(6)7/h3-5,7-8H,2H2,1H3/t3-,4-,5+,6+/m1/s1
