25
gdb 95813	2.15485	1.38398	1.13981	0.1859	94.47	-0.2349	0.0301	0.265	1275.51	0.231026	-352.376162	-352.36673	-352.365786	-352.410007	37.247	
C	-0.4667590998	 1.3883450266	 0.9402001627	-0.384653
C	-0.0738158952	-0.0995755734	 0.8043683892	-0.014153
C	 0.08940133	-0.5279090479	-0.6649885823	-0.198457
C	 1.2892552274	 0.0372250653	-1.4352848155	-0.19447
C	 2.6305412164	-0.5962616968	-1.045376926	-0.198456
C	 3.2388561422	-0.1886825074	 0.3084883538	-0.014153
C	 3.7320181691	 1.2754020607	 0.31167559	-0.384653
C	 2.396691479	-0.4464676466	 1.5384349297	-0.065523
C	 1.0766147408	-0.4109616983	 1.7360396917	-0.065524
H	 0.3263560981	 2.0476602808	 0.5747167789	 0.121415
H	-1.3790337553	 1.6029987575	 0.3724556794	 0.107347
H	-0.6512006664	 1.6500162872	 1.9869261937	 0.111971
H	-0.9320363466	-0.6728776573	 1.1826999381	 0.073151
H	 0.1408391068	-1.6238969534	-0.7044393493	 0.090248
H	-0.8330589828	-0.2473303498	-1.1897578856	 0.084964
H	 1.1243344689	-0.1525789388	-2.5029127443	 0.091117
H	 1.3335116066	 1.1284434783	-1.3357179366	 0.093806
H	 2.5122575409	-1.6876842809	-1.0594225018	 0.090248
H	 3.3724893431	-0.3604526111	-1.819293747	 0.084964
H	 4.1388294876	-0.8092809775	 0.423632905	 0.073151
H	 2.9024877	 1.9783660173	 0.1890892546	 0.121415
H	 4.2281677782	 1.5187666875	 1.2565223188	 0.111971
H	 4.4481995227	 1.4462503683	-0.4998352694	 0.107347
H	 2.9991945761	-0.6350629338	 2.4274684321	 0.078464
H	 0.7515826323	-0.5746098163	 2.7639172102	 0.078464
58.1194	144.3231	199.5358	234.7835	237.3569	273.6141	318.4889	320.5314	368.3886	425.4208	440.2074	572.9327	584.3803	696.4406	765.2485	766.4944	783.5718	834.0302	887.8697	906.3755	960.657	968.9688	989.3712	1002.1554	1023.4215	1033.1998	1050.3481	1086.1789	1134.9058	1161.9665	1177.5039	1226.0569	1239.2078	1275.2753	1306.3156	1334.9321	1346.3724	1375.9069	1376.1549	1378.9929	1398.7526	1401.1921	1401.6693	1419.2004	1440.8557	1477.2047	1481.7891	1492.8146	1493.9099	1498.6547	1498.722	1509.0617	1729.6644	2992.2047	2992.4337	3012.6694	3014.2908	3025.0372	3029.7707	3031.7939	3045.2898	3049.3374	3063.6685	3097.4105	3098.1458	3101.7468	3107.115	3109.1604	3129.1504
CC1CCCC(C)C=C1	C[C@H]1CCC[C@@H](C)C=C1	
InChI=1S/C9H16/c1-8-4-3-5-9(2)7-6-8/h6-9H,3-5H2,1-2H3	InChI=1S/C9H16/c1-8-4-3-5-9(2)7-6-8/h6-9H,3-5H2,1-2H3/t8-,9+
