17
gdb 109416	2.29081	1.55811	1.085	2.9644	69.87	-0.2284	-0.034	0.1944	1144.8942	0.132546	-458.922585	-458.913464	-458.91252	-458.956759	32.43	
C	 0.0363381531	 1.3372674641	-0.2555982399	-0.24464
O	-0.0898103728	 0.0821517155	 0.3935749321	-0.246144
C	-1.2952529163	-0.5551638343	 0.1264392304	-0.037186
C	-1.5896717904	-1.2283902137	-1.2691754319	 0.403834
O	-1.710234651	-0.8177892416	-2.3849276363	-0.3064
C	-1.7861798652	-2.5702275006	-0.5780504185	-0.193397
O	-0.5122212674	-2.7895319332	 0.0732338773	-0.267719
C	-1.4558856987	-1.9538876366	 0.7408823173	 0.389061
C	-1.8938235617	-2.3112888444	 2.1228413074	-0.511574
H	 1.0071270182	 1.745622282	 0.0321338273	 0.132759
H	-0.0072406066	 1.2346170736	-1.3465104675	 0.139659
H	-0.7548170354	 2.0332033466	 0.0637540812	 0.10699
H	-2.1632042314	 0.088986829	 0.3637323687	 0.08668
H	-2.3862789634	-3.437683908	-0.8252593692	 0.125204
H	-1.1316050589	-2.0123109593	 2.8496644055	 0.149936
H	-2.8260185067	-1.7986935367	 2.3791511854	 0.131585
H	-2.0451802253	-3.3900891525	 2.2084464608	 0.141352
80.1299	100.4947	148.176	171.806	194.9122	237.4505	255.6369	348.9456	370.5557	511.8641	561.414	594.3084	666.0934	742.8356	830.509	866.0436	919.3353	988.6943	1017.6234	1035.2088	1041.7104	1096.9427	1163.1091	1177.1997	1189.9433	1217.5292	1239.2645	1262.4191	1358.5442	1403.3045	1450.0782	1478.326	1482.3901	1488.1396	1493.2665	1511.4226	1896.5209	2933.601	2987.1941	3042.6235	3061.6788	3108.328	3128.5186	3129.4181	3197.4098
COC1C(=O)C2OC12C	CO[C@H]1C(=O)[C@H]2O[C@@]12C	
InChI=1S/C6H8O3/c1-6-4(8-2)3(7)5(6)9-6/h4-5H,1-2H3	InChI=1S/C6H8O3/c1-6-4(8-2)3(7)5(6)9-6/h4-5H,1-2H3/t4-,5+,6-/m0/s1
