21
gdb 77584	2.57869	1.41174	1.19856	1.7895	82.95	-0.2455	0.079	0.3245	1159.7634	0.181012	-387.048256	-387.039294	-387.038349	-387.081365	34.842	
C	-0.1554515413	 1.5966607577	-0.0390110186	-0.420584
C	 0.0687384068	 0.0903027495	 0.003468074	-0.128557
C	 0.7047043479	-0.6326465928	-1.2114771557	 0.352549
C	-0.0879922218	-1.253788372	-2.325563796	-0.498953
C	 2.1491607819	-0.2384453658	-1.3507435543	-0.338397
C	 1.7738045329	-1.2546769141	-0.298637653	-0.206893
C	 1.1842191332	-0.5189540872	 0.8819463656	 0.469057
C	 1.8113741327	-0.0501488477	 2.1194093051	-0.273488
O	 0.8885016236	-1.1546736756	 2.1118321653	-0.289382
H	 0.7586971356	 2.1372251299	-0.303441882	 0.115257
H	-0.9228035113	 1.8578952687	-0.7758305723	 0.117125
H	-0.4944725589	 1.9693267397	 0.9337707589	 0.119647
H	-0.8642471768	-0.4186366238	 0.2732291148	 0.08854
H	-0.5373119909	-0.4883778596	-2.9702212096	 0.120203
H	 0.5454376792	-1.8837708838	-2.9588958283	 0.118152
H	-0.9003754757	-1.8782162514	-1.9366008757	 0.119971
H	 2.6542968064	-0.6434216981	-2.2227272043	 0.110868
H	 2.5050169644	 0.7464561199	-1.05780719	 0.106605
H	 2.1697952843	-2.2629437738	-0.2780746599	 0.095782
H	 2.8474555903	-0.3096645473	 2.3343907551	 0.111951
H	 1.4475620677	 0.8512853975	 2.611370501	 0.110546
98.4246	192.6134	196.4966	205.6178	229.2233	235.8388	308.9439	340.0679	428.4477	476.2009	507.0743	569.8366	674.0434	732.0384	799.3803	844.6858	868.8288	901.8454	925.451	969.6529	973.1918	1001.7235	1043.5603	1065.9891	1082.8379	1107.8529	1114.7033	1126.2322	1135.5495	1149.6839	1185.5891	1211.1122	1248.6413	1281.3051	1353.1853	1395.5254	1408.0963	1425.3821	1439.8693	1485.8444	1493.9201	1494.8849	1497.8623	1503.4796	1536.7132	3019.4406	3030.6941	3041.6864	3077.3792	3077.8131	3093.4682	3094.4913	3103.0957	3107.955	3163.3502	3184.3046	3193.7612
CC1C2(C)CC2C11CO1	C[C@H]1[C@@]2(C)C[C@H]2[C@]21CO2	
InChI=1S/C8H12O/c1-5-7(2)3-6(7)8(5)4-9-8/h5-6H,3-4H2,1-2H3	InChI=1S/C8H12O/c1-5-7(2)3-6(7)8(5)4-9-8/h5-6H,3-4H2,1-2H3/t5-,6+,7+,8+/m0/s1
