14
gdb 129302	3.42236	1.11195	0.89634	1.3567	65.13	-0.2372	-0.0501	0.1871	1215.4762	0.100036	-469.993845	-469.985733	-469.984789	-470.028387	28.162	
N	 0.0613360829	 1.2905279306	-0.1553849803	-0.61095
C	 0.0798731065	 0.0287986778	-0.0756173376	 0.498739
O	 1.1436996472	-0.8283350473	-0.0869634449	-0.246215
N	 0.6845862068	-2.1773585817	 0.0254692117	-0.131779
C	-0.5959483358	-2.0716317915	 0.1009295373	 0.065857
N	-1.0461512081	-0.7820898585	 0.0453162279	-0.111649
C	-2.3998203365	-0.2779312909	 0.0896668501	-0.258663
C	-2.9484904417	-0.1745281889	 1.5111088484	 0.148486
O	-4.1171390433	-0.2608970612	 1.7701556518	-0.218384
H	 0.9965681778	 1.6749507879	-0.2540997882	 0.241734
H	-1.2498801114	-2.9265002304	 0.1927901374	 0.175072
H	-2.366504667	 0.7338896943	-0.3328190641	 0.19093
H	-3.0716068747	-0.8891777932	-0.5183103016	 0.151225
H	-2.1733325028	 0.0004321931	 2.2894490922	 0.105597
30.9204	67.8614	101.431	216.2826	269.7391	340.8954	414.2907	506.5307	596.6206	675.1895	727.8602	750.3497	761.2641	808.7776	874.0795	889.3968	930.1707	1032.7244	1039.9221	1066.7712	1193.7906	1229.1419	1239.9694	1333.4338	1373.0267	1410.334	1428.563	1449.6583	1654.2174	1777.5223	1845.1999	2900.0849	3048.0311	3114.9358	3259.6637	3552.1362
N=C1ON=CN1CC=O	[NH][C@@H]1ON=CN1CC=O	
InChI=1S/C4H5N3O2/c5-4-7(1-2-8)3-6-9-4/h2-3,5H,1H2	InChI=1S/C4H6N3O2/c5-4-7(1-2-8)3-6-9-4/h2-5H,1H2/t4-/m0/s1
