21
gdb 58757	2.50095	1.34354	1.1725	0.0981	78.98	-0.2552	0.0745	0.3296	1175.1135	0.181512	-424.173991	-424.164694	-424.16375	-424.207913	35.73	
C	 0.0117070809	 1.5023613458	 0.0910912871	-0.411116
C	 0.0461178032	-0.0213641036	-0.0392445508	-0.03092
O	-1.2711473061	-0.5699209948	-0.1027800115	-0.443346
C	 0.7481054998	-0.4869145896	-1.2890312743	 0.380532
C	 0.3200225464	-0.2601786735	-2.7717123511	-0.26545
C	 1.6174690071	-1.1126702933	-2.8466528906	-0.114388
C	 2.2115540356	-0.1835664965	-1.7471839616	-0.285405
C	 0.9995264248	-1.9618154417	-1.691661334	 0.116106
O	 1.8375425883	-2.6784429365	-0.8180488345	-0.451195
H	 1.0236140656	 1.9176247025	 0.1324657352	 0.120799
H	-0.5162055775	 1.9474056691	-0.7577782618	 0.124844
H	-0.5068601077	 1.799472133	 1.0099435885	 0.10166
H	 0.5881157674	-0.4435114415	 0.8234116733	 0.075451
H	-1.7316446886	-0.3241275738	 0.7056171003	 0.280914
H	-0.6127132092	-0.7327559904	-3.0898107016	 0.098272
H	 0.4015762924	 0.7629725802	-3.1449911858	 0.092099
H	 2.1151548939	-1.4736140947	-3.7479574468	 0.064607
H	 2.4198299027	 0.8466830676	-2.0489873924	 0.083811
H	 3.0092606297	-0.6000271679	-1.1327167612	 0.107931
H	 0.1013555935	-2.5361062407	-1.9504651138	 0.070408
H	 2.0232677278	-3.5349155497	-1.2140881127	 0.284386
54.6105	138.7426	176.344	237.1692	242.0186	268.659	275.6982	316.3426	398.1504	448.2982	507.0624	535.2118	613.1333	665.7116	777.1968	833.0434	885.8996	890.6458	926.8002	945.7125	968.1559	1015.7823	1026.1613	1054.7245	1075.2834	1094.7099	1117.9064	1133.2772	1149.8377	1152.8394	1181.5126	1209.6667	1214.655	1233.6871	1260.2066	1285.3533	1332.5946	1366.3055	1400.8661	1426.7092	1443.7245	1491.2951	1492.0838	1501.4093	1538.4942	2963.6335	3028.8662	3029.9024	3058.6964	3061.7131	3095.1017	3101.2965	3115.0543	3124.9731	3144.6004	3819.2924	3827.5315
CC(O)C12CC(C1)C2O	C[C@@H](O)[C@@]12C[C@@H](C1)[C@H]2O	
InChI=1S/C7H12O2/c1-4(8)7-2-5(3-7)6(7)9/h4-6,8-9H,2-3H2,1H3	InChI=1S/C7H12O2/c1-4(8)7-2-5(3-7)6(7)9/h4-6,8-9H,2-3H2,1H3/t4-,5-,6-,7+/m1/s1
