12
gdb 133361	3.28815	1.44873	1.00565	2.3811	61.04	-0.2344	-0.0573	0.177	1035.5682	0.079327	-510.140517	-510.133446	-510.132502	-510.172054	26.78	
N	 0.0052423529	 1.3170792285	 0.007347986	-0.536027
C	-0.0576272628	-0.0162553944	 0.0006873159	 0.334334
N	-1.1898042476	-0.6738443687	 0.0038701749	-0.387398
C	-1.0771428931	-2.0187517288	-0.0039774775	 0.36272
F	-2.2295503571	-2.661497216	-0.0001466065	-0.056814
N	-0.0209948518	-2.7624089845	-0.0139827088	-0.292189
N	 1.142688115	-2.0424841904	-0.0169953718	-0.285605
C	 1.2722497069	-0.6882867532	-0.0106499742	 0.411098
O	 2.3333559974	-0.0789871271	-0.0136748117	-0.406277
H	 0.9228605262	 1.7354563165	 0.0043085422	 0.291542
H	-0.8322752148	 1.8732772518	 0.0153729064	 0.280962
H	 1.9855312888	-2.5999787736	-0.0248266847	 0.283654
123.8804	208.9437	307.9525	316.5394	380.4179	392.9649	457.5133	509.7067	539.0782	611.3478	644.4347	682.5496	735.3765	736.6244	815.726	816.1722	981.2361	1116.1149	1241.9393	1306.8571	1415.226	1418.1689	1472.7634	1563.9609	1635.4983	1675.7349	1775.5168	3590.4879	3611.5127	3736.071
NC1=NC(F)=NNC1=O	Nc1nc(F)n[nH]c1=O	
InChI=1S/C3H3FN4O/c4-3-6-1(5)2(9)7-8-3/h(H,7,9)(H2,5,6,8)	InChI=1S/C3H3FN4O/c4-3-6-1(5)2(9)7-8-3/h(H,7,9)(H2,5,6,8)
