19
gdb 79475	2.19025	1.88855	1.20858	0.6086	87.31	-0.2499	0.041	0.2909	1080.8821	0.158542	-348.652449	-348.644425	-348.643481	-348.68462	32.112	
C	-0.1605869359	 1.5971754039	-0.0009963236	-0.424166
C	-0.0329853719	 0.0829580477	 0.0005382065	-0.057817
C	 1.1868436059	-0.5915768351	-0.661776764	-0.084971
C	 2.135039368	-0.3000389848	 0.5546261295	-0.088115
C	 2.5799470221	-1.7706509772	 0.6576855054	-0.275272
C	 1.0930854528	-1.849284391	 0.268133363	-0.084381
C	 0.7105239574	-0.6126761379	 1.1754109622	 0.282773
C	 0.3648593212	-0.6368758837	 2.5640075971	 0.091175
C	 0.0603291334	-0.6435570922	 3.7289315424	-0.384545
H	 0.79176595	 2.0845512489	 0.2313858254	 0.115361
H	-0.4919361417	 1.9605340286	-0.9799794095	 0.115275
H	-0.8946048375	 1.9276704345	 0.7416067453	 0.12448
H	-0.9915047989	-0.3926867762	-0.2429562477	 0.067984
H	 1.4842960027	-0.5990828039	-1.7109265649	 0.071385
H	 2.7161272122	 0.6050398516	 0.7315228696	 0.079524
H	 3.2994806252	-2.1156159607	-0.0912644155	 0.093156
H	 2.8488813211	-2.1348110017	 1.6533170962	 0.104711
H	 0.4572325919	-2.7214573301	 0.108991168	 0.076802
H	-0.2053404179	-0.6519868106	 4.7568285644	 0.176641
116.3559	157.5329	213.7515	225.4431	262.7574	385.1052	477.126	523.0956	546.2655	563.7065	612.0225	641.9508	723.4405	739.4445	844.3968	876.2868	885.8227	907.165	913.9559	931.6546	1012.7786	1029.4098	1049.4069	1066.902	1094.4706	1104.6824	1120.1801	1154.311	1164.1643	1182.6797	1222.5372	1236.2638	1250.0302	1271.5024	1310.7462	1398.0301	1413.7826	1494.0077	1498.4601	1506.6529	2224.9613	3026.2463	3031.4858	3045.0742	3094.847	3102.158	3102.4364	3105.0743	3109.9469	3119.3493	3502.1682
CC1C2C3CC2C13C#C	C[C@H]1[C@H]2[C@@H]3C[C@H]2[C@]13C#C	
InChI=1S/C9H10/c1-3-9-5(2)8-6(9)4-7(8)9/h1,5-8H,4H2,2H3	InChI=1S/C9H10/c1-3-9-5(2)8-6(9)4-7(8)9/h1,5-8H,4H2,2H3/t5-,6-,7+,8-,9+/m0/s1
