16
gdb 35198	3.43601	1.20407	1.10251	4.8979	73.75	-0.2671	0.0266	0.2937	1115.3205	0.124169	-400.703334	-400.695761	-400.694816	-400.735681	28.891	
N	-0.0281506578	-1.1017654659	-0.1036263668	-0.340711
C	-0.0222584223	 0.0544906467	-0.0550195392	 0.294294
C	 0.0079581497	 1.4878306836	 0.006315196	-0.23568
C	 0.5273897837	 2.1686775094	 1.2709928672	-0.354366
C	 1.3500579962	 2.1931355229	 0.0300520932	 0.351232
C	 2.7640427597	 1.5945938358	-0.1729493907	-0.343691
C	 3.0956795687	 2.8612084782	-0.9860222867	 0.038708
O	 2.1671043828	 2.9304782444	-2.0713457606	-0.235819
C	 1.7417330776	 3.4091086736	-0.7903477407	-0.072812
H	-0.799340367	 1.978131404	-0.5277541783	 0.137237
H	 0.0142411076	 3.0745290469	 1.5765631292	 0.13213
H	 0.8435928955	 1.5271137432	 2.0859167604	 0.142879
H	 3.324182972	 1.5174613327	 0.762237275	 0.119145
H	 2.8259501954	 0.6552717847	-0.7262281389	 0.139113
H	 4.0472128543	 3.3642525917	-1.1058756869	 0.115976
H	 1.3760590338	 4.4273799881	-0.7239964321	 0.112365
89.4024	121.9878	180.3986	286.9716	320.3563	400.5287	484.019	530.6422	555.8176	627.1805	785.0782	810.6425	846.7172	861.7994	870.4959	892.4121	950.6664	960.8826	972.7535	1018.5903	1051.8437	1073.6196	1082.1811	1119.6148	1155.9077	1187.3815	1223.9406	1234.6744	1269.7154	1316.5276	1379.4662	1416.6354	1471.4001	1486.3101	2351.7391	3070.3542	3130.5869	3134.7168	3167.796	3184.1313	3202.5813	3225.6065
N#CC1CC11CC2OC12	N#C[C@H]1C[C@]21C[C@H]1O[C@@H]21	
InChI=1S/C7H7NO/c8-3-4-1-7(4)2-5-6(7)9-5/h4-6H,1-2H2	InChI=1S/C7H7NO/c8-3-4-1-7(4)2-5-6(7)9-5/h4-6H,1-2H2/t4-,5-,6-,7-/m1/s1
