23
gdb 91349	1.84845	1.60704	1.49666	1.5981	84.64	-0.2467	0.067	0.3137	1124.9328	0.205495	-388.269255	-388.259943	-388.258999	-388.302524	36.844	
C	 0.5574388059	 1.4639115161	-0.3920834282	-0.435502
C	 0.0992069114	 0.0671666011	 0.0242049374	-0.019445
C	 0.5231115156	-1.1246511068	-0.8932503025	-0.246251
C	 1.2912311456	-1.7623056261	 0.2825937605	-0.055469
C	 2.7245387677	-1.1913711872	 0.489584999	-0.293683
C	 2.1910942707	-0.3320166974	 1.6710166578	 0.106158
O	 2.6374049295	 0.9849880414	 1.8834983795	-0.435894
C	 0.7253811086	-0.6648997101	 1.2714881333	 0.30983
C	-0.2439639424	-0.945075153	 2.4017631812	-0.500965
H	 1.6093676642	 1.4823405719	-0.702633541	 0.106761
H	-0.0194290732	 1.8076080275	-1.2581248172	 0.117414
H	 0.4177892368	 2.1960703108	 0.4100925555	 0.127643
H	-0.9880904268	 0.1003843922	 0.1479987011	 0.073785
H	-0.3269332557	-1.7205306149	-1.2364102201	 0.097177
H	 1.1296239936	-0.8640022405	-1.7675816127	 0.090206
H	 1.1691833066	-2.830815594	 0.4647956568	 0.060331
H	 3.5086408968	-1.9074042913	 0.7463089379	 0.101259
H	 3.0754252885	-0.5988931415	-0.3626825592	 0.090163
H	 2.3993026832	-0.8493605255	 2.6145296913	 0.085521
H	 2.5408584259	 1.4734934457	 1.0617928145	 0.27856
H	-0.5068976777	-0.0178611488	 2.9265240753	 0.121298
H	-1.1753035578	-1.3927227593	 2.0361063894	 0.109703
H	 0.1881807528	-1.6307285603	 3.1394694406	 0.1114
95.3715	169.0029	195.2945	219.2249	253.4524	293.0815	308.5944	336.1622	369.0133	380.5117	443.5901	562.1282	567.8341	648.299	709.5127	811.7425	819.2489	859.3613	886.4851	912.109	957.8579	993.0034	1013.0441	1044.4162	1052.8503	1088.9385	1117.7641	1122.2791	1153.6551	1163.7996	1186.7756	1203.9941	1225.8322	1259.4447	1275.9214	1279.1279	1300.0806	1314.2287	1332.3086	1380.6789	1403.4544	1408.024	1444.2391	1482.1365	1489.1346	1491.4019	1494.2512	1500.0386	1513.724	3013.959	3018.0503	3037.4744	3037.7617	3042.3698	3043.8338	3077.5513	3077.9563	3084.9325	3088.2474	3095.2852	3097.0935	3108.6029	3846.2983
CC1CC2CC(O)C12C	C[C@H]1C[C@H]2C[C@@H](O)[C@@]12C	
InChI=1S/C8H14O/c1-5-3-6-4-7(9)8(5,6)2/h5-7,9H,3-4H2,1-2H3	InChI=1S/C8H14O/c1-5-3-6-4-7(9)8(5,6)2/h5-7,9H,3-4H2,1-2H3/t5-,6-,7+,8-/m0/s1
