15
gdb 53898	1.84537	1.79335	0.98503	2.8807	68.38	-0.2518	0.0031	0.2549	1149.4688	0.110981	-453.979544	-453.970205	-453.96926	-454.014146	34.24	
N	 0.9228636451	-1.2163017425	-0.1276759043	-0.520505
C	 0.0403071345	-0.2415616115	 0.1651725706	 0.434077
O	 0.3687288297	 0.8819273144	 0.5164082866	-0.380977
C	-1.4573714137	-0.6203217019	 0.030734861	-0.471057
C	-1.7005063899	-1.9451998213	-0.5160384396	 0.358
C	-1.8582368058	-3.0370214296	-0.9928568924	-0.417528
C	-2.2213954408	-0.4098275229	 1.3845009371	 0.406825
N	-2.0443683384	 0.8317669002	 1.9032152528	-0.524611
O	-2.9381948606	-1.2656150821	 1.8508533712	-0.340501
H	 1.9058805132	-1.0108561783	-0.0593392039	 0.269009
H	 0.6108384448	-2.123773981	-0.4322700676	 0.277199
H	-1.8619826361	 0.1365082933	-0.6540039939	 0.16394
H	-2.0366211195	-4.0015986153	-1.4007006609	 0.205187
H	-1.2454304619	 1.3700587978	 1.5875563246	 0.28139
H	-2.4181885506	 0.9919686907	 2.8254262686	 0.259554
49.147	66.5768	151.6018	188.0177	243.6482	338.8501	358.3842	382.8227	449.7353	476.7805	507.3554	543.2403	584.4696	611.6385	637.325	649.7985	661.6381	707.3292	714.3317	887.2	909.1014	1053.9816	1114.2538	1148.6661	1192.6831	1283.4919	1328.7909	1371.9635	1605.8725	1615.001	1775.3726	1823.9606	2239.8555	3036.217	3500.6451	3509.1796	3589.6456	3679.4387	3726.8042
NC(=O)C(C#C)C(N)=O	NC(=O)C(C#C)C(=O)N	
InChI=1S/C5H6N2O2/c1-2-3(4(6)8)5(7)9/h1,3H,(H2,6,8)(H2,7,9)	InChI=1S/C5H6N2O2/c1-2-3(4(6)8)5(7)9/h1,3H,(H2,6,8)(H2,7,9)
