14
gdb 15322	3.28466	1.32742	1.02373	4.2716	60.78	-0.2603	-0.035	0.2253	1087.4913	0.104667	-419.685652	-419.677657	-419.676713	-419.71941	27.189	
O	 0.1266170939	 0.0655231696	-0.1575158041	-0.257983
C	 0.1844975094	 1.2502084804	-0.2671739043	 0.175417
O	 1.04953407	 2.0009575056	 0.459285187	-0.18697
C	 1.0227919786	 3.3927679031	 0.2356560143	 0.1115
C	 2.1246663932	 4.1655255527	 0.8439791976	-0.329429
C	 2.0655922296	 4.0226989582	-0.6800733574	-0.141911
C	 3.0928635878	 3.1759384439	-1.3391128172	 0.161345
O	 3.5363487788	 3.3986694195	-2.4378306362	-0.259532
H	-0.44569574	 1.8558838449	-0.9450295578	 0.090399
H	 0.0236039963	 3.8181960615	 0.2099767853	 0.128244
H	 1.9174609031	 5.1382922207	 1.2725134735	 0.143581
H	 2.8934169169	 3.5906401794	 1.3497381208	 0.151725
H	 1.7507503107	 4.8795691365	-1.2653257337	 0.119691
H	 3.4410376117	 2.3099731339	-0.7358480477	 0.093923
38.7555	102.1584	130.022	195.7367	220.6735	303.1951	434.8359	444.7294	549.1553	630.3696	799.2251	844.641	865.3807	988.7534	1009.4564	1044.5247	1052.5548	1072.2403	1123.2184	1150.7216	1168.9989	1185.4381	1227.5245	1338.011	1389.9905	1432.9564	1438.458	1479.0767	1818.7341	1877.9508	2902.3065	2967.7526	3143.9785	3150.4097	3183.8661	3237.7453
O=COC1CC1C=O	O=CO[C@H]1C[C@H]1C=O	
InChI=1S/C5H6O3/c6-2-4-1-5(4)8-3-7/h2-5H,1H2	InChI=1S/C5H6O3/c6-2-4-1-5(4)8-3-7/h2-5H,1H2/t4-,5-/m0/s1
