18
gdb 28227	4.65113	1.18819	0.96626	1.0994	81.28	-0.1542	0.0529	0.207	1203.979	0.151685	-398.148229	-398.14025	-398.139306	-398.180559	30.962	
N	 0.125526896	 1.3730449202	-0.1826226762	-0.605003
C	-0.0210866247	-0.0241296571	-0.0564902846	 0.309576
C	-1.1423605222	-0.8376199747	-0.0608034168	-0.401726
C	-0.6447897891	-2.1714339428	-0.0646592262	 0.321732
C	 0.7203405047	-2.1367617126	-0.0731094469	 0.22463
C	 1.2980152893	-3.4864552771	 0.2163180572	-0.336543
C	 0.0410618461	-4.3552489327	-0.1059827094	-0.154603
N	-1.1379475414	-3.480220626	 0.1521258743	-0.400748
N	 1.1114196768	-0.8095970464	-0.0127704081	-0.391592
H	-0.7426880317	 1.7950777331	-0.4877100873	 0.245185
H	 0.3911799995	 1.8134828307	 0.6940110293	 0.242273
H	-2.1663588792	-0.4973598324	-0.0394249933	 0.078715
H	 2.1539935899	-3.7898906292	-0.3967645965	 0.096907
H	 1.596728022	-3.5994906116	 1.270118626	 0.103096
H	 0.0848088924	-4.6522462446	-1.1641106169	 0.094189
H	-0.0121470882	-5.2619489056	 0.5026066035	 0.101084
H	-1.9271217367	-3.7308345261	-0.4327757606	 0.221532
H	 2.0234580364	-0.445596075	-0.2292272475	 0.251296
104.5172	138.8586	205.0582	258.486	291.0088	309.4271	446.6217	502.9443	523.4719	634.9708	654.4813	670.03	723.3368	738.637	793.4811	822.6472	840.4784	884.0338	944.5227	1015.6783	1026.1236	1078.9695	1108.6218	1145.9847	1177.8816	1191.0099	1222.2054	1259.8528	1304.2504	1327.6318	1367.6532	1421.6131	1461.6945	1493.6056	1510.9376	1518.9804	1551.6296	1631.6974	1656.1409	2976.3868	2990.4315	3046.9365	3084.3809	3243.572	3485.9653	3526.4154	3597.2785	3671.4028
NC1=CC2=C(CCN2)N1	Nc1cc2c(CCN2)[nH]1	
InChI=1S/C6H9N3/c7-6-3-5-4(9-6)1-2-8-5/h3,8-9H,1-2,7H2	InChI=1S/C6H9N3/c7-6-3-5-4(9-6)1-2-8-5/h3,8-9H,1-2,7H2
