18
gdb 79050	3.68415	1.63472	1.3893	1.0034	75.43	-0.2293	0.066	0.2953	954.3743	0.149558	-401.845649	-401.838881	-401.837937	-401.876439	28.041	
O	 0.1047879297	 1.4899582422	-0.100319309	-0.440862
C	 0.0215667619	 0.0906149552	-0.0342616675	 0.002043
C	 0.0106839617	-0.6025608194	 1.3598016803	-0.079803
C	-1.4278663746	-0.1391387326	 1.6866479046	-0.075409
C	-1.9820618427	-1.5619796663	 1.7553256223	-0.014008
C	-3.2348797399	-1.6316398343	 0.8526006313	-0.220051
C	-2.7663257305	-0.7802587084	-0.3894691548	-0.346772
C	-1.3956300667	-0.4525725264	 0.1524835864	 0.349769
N	-0.8238747502	-1.7595476776	 0.7727363461	-0.192541
H	 1.0345512917	 1.7374549105	-0.1031004778	 0.289441
H	 0.6246327323	-0.4131643577	-0.8017004458	 0.082231
H	 0.8464088137	-0.7916568588	 2.0356484596	 0.074369
H	-1.7619297121	 0.7839703375	 2.1676919787	 0.06907
H	-1.9826601804	-2.1728643589	 2.6612764747	 0.063585
H	-3.4642385965	-2.6636630364	 0.5737838776	 0.112019
H	-4.1171537382	-1.2075744874	 1.3409684362	 0.102796
H	-2.7314933255	-1.3691988439	-1.3088926248	 0.113446
H	-3.3840602237	 0.1045986226	-0.558674998	 0.110676
182.1951	238.6427	249.8206	277.5531	380.0102	523.9481	546.5497	677.8597	725.5409	732.7092	790.8278	825.3852	851.6115	866.4829	882.3876	897.0478	939.3136	948.4486	966.5187	1016.3231	1034.5008	1097.9909	1106.086	1131.0932	1146.7041	1156.1747	1176.6031	1197.3464	1228.3143	1234.3079	1247.0645	1259.9268	1281.0689	1294.8754	1327.5693	1336.3246	1444.5265	1475.8738	1499.8763	3020.2872	3056.871	3066.4693	3071.2772	3088.1228	3100.7282	3101.5279	3122.8378	3824.7873
OC1C2C3C4CCC13N24	O[C@H]1[C@H]2[C@@H]3[C@H]4CC[C@@]13N24	
InChI=1S/C7H9NO/c9-6-5-4-3-1-2-7(4,6)8(3)5/h3-6,9H,1-2H2	InChI=1S/C7H9NO/c9-6-5-4-3-1-2-7(4,6)8(3)5/h3-6,9H,1-2H2/t3-,4+,5-,6+,7+/m1/s1
