19
gdb 39823	2.92113	1.55406	1.53045	2.3084	74.58	-0.2476	0.0748	0.3224	975.3595	0.161446	-422.988927	-422.981787	-422.980842	-423.020224	28.97	
C	 0.0495666249	 1.441152756	 0.0094796381	-0.302846
O	 1.2142158272	 0.59002582	-0.0066865122	-0.295476
C	-0.0661840115	-0.0120857932	 0.0027585064	 0.529041
C	-0.5993214238	-0.9711557988	 1.0669602446	-0.154335
C	-1.6807418274	-1.3627402775	 0.0114734317	-0.231713
C	-0.6204405802	-0.9596402981	-1.0609689314	-0.154337
C	 0.3853664543	-2.1158739878	-1.2122398903	-0.074182
O	 0.4700967113	-2.8836023657	-0.0181026331	-0.260314
C	 0.4091631758	-2.1288510937	 1.1857205237	-0.074183
H	-0.1036195329	 1.9971858057	 0.9338064043	 0.116458
H	-0.1218705006	 2.0071495383	-0.90554788	 0.116458
H	-0.8945703557	-0.5824756029	 2.0439661734	 0.071645
H	-2.0177306964	-2.4001131194	 0.0092040896	 0.113646
H	-2.5342399502	-0.6824487646	 0.0236255665	 0.102024
H	-0.9349789119	-0.560444336	-2.0276604946	 0.071645
H	 0.0645623135	-2.8151959766	-1.9911946542	 0.105691
H	 1.3690519339	-1.7096093165	-1.4942772077	 0.107543
H	 1.3982963775	-1.725559209	 1.452561347	 0.107543
H	 0.1038039022	-2.83659682	 1.9632735582	 0.105691
136.0459	228.9677	243.3503	265.2431	382.9267	409.7816	462.9558	570.1476	598.8671	675.3634	832.3182	839.6606	843.6044	853.2638	895.7545	926.0597	952.4334	957.7485	1000.0127	1047.6271	1063.9388	1079.2097	1109.8491	1116.3197	1139.4732	1161.434	1164.3387	1193.8733	1231.6699	1252.168	1278.8006	1288.2358	1298.9208	1316.1921	1378.6171	1410.0803	1450.5532	1487.4336	1504.3614	1514.9565	1544.6797	2987.6012	2991.7999	3068.9999	3070.2567	3076.1484	3078.5201	3088.8838	3092.2982	3140.0271	3164.6671
C1OC11C2CC1COC2	C1O[C@]21[C@H]1C[C@@H]2COC1	
InChI=1S/C7H10O2/c1-5-2-8-3-6(1)7(5)4-9-7/h5-6H,1-4H2	InChI=1S/C7H10O2/c1-5-2-8-3-6(1)7(5)4-9-7/h5-6H,1-4H2/t5-,6+,7+
