14
gdb 5376	5.21604	1.67314	1.27683	2.3612	70.52	-0.2257	-0.065	0.1607	909.6631	0.107868	-378.734197	-378.727107	-378.726163	-378.766048	25.306	
C	-0.1606948819	 1.4336048053	 0.0710266127	-0.324959
N	-0.1390456122	-0.0185930292	 0.0705024801	-0.305108
C	 0.6595286933	-0.6184887874	 0.8467670836	 0.375016
O	 1.5161407313	 0.0759814477	 1.699979596	-0.234994
C	 2.3481124247	-0.6283142283	 2.5064120929	 0.047865
C	 2.3772292346	-1.9684936202	 2.5141112889	-0.085052
N	 1.5498466572	-2.7267100737	 1.689443887	-0.231531
C	 0.7536470601	-2.0758155751	 0.9170235867	-0.023734
H	 0.8181335255	 1.8574324209	-0.1917995842	 0.125345
H	-0.8967112069	 1.7813295914	-0.6566574004	 0.124901
H	-0.4271388262	 1.8374622987	 1.0573269528	 0.125508
H	 2.9636959109	 0.0161837377	 3.1214201454	 0.141781
H	 3.0508105429	-2.5072652011	 3.1675721987	 0.123889
H	 0.0856823568	-2.6181446968	 0.2522932399	 0.141074
65.1599	115.4161	209.3235	227.7835	394.1942	435.9345	545.4963	569.1285	654.271	736.1983	785.9731	819.7499	922.0398	943.6291	962.9885	1015.6577	1045.5141	1103.833	1142.3402	1166.3731	1229.7028	1271.3437	1362.4553	1420.1918	1436.0436	1483.3517	1497.0417	1600.7677	1674.4831	1739.8302	3000.4901	3049.4732	3115.021	3168.7326	3208.9757	3229.5409
CN=C1OC=CN=C1	C[N]C1=C[N]C=CO1	
InChI=1S/C5H6N2O/c1-6-5-4-7-2-3-8-5/h2-4H,1H3	InChI=1S/C5H6N2O/c1-6-5-4-7-2-3-8-5/h2-4H,1H3
