16
gdb 81897	3.28005	1.28172	1.07519	2.0499	66.38	-0.2593	-0.0478	0.2116	1100.1798	0.1238	-474.979898	-474.971787	-474.970843	-475.012553	30.558	
O	-0.1226726596	 1.4661706733	-0.1442441953	-0.438738
C	 0.0782871536	 0.0785872583	-0.0467027723	 0.082928
C	-1.2100360624	-0.7517969769	 0.0648559082	-0.112119
N	-2.0453815513	-0.2686003061	-1.0268356367	-0.39364
C	-1.0234389261	-1.2920301989	-1.3454819638	 0.228045
C	-1.4643841059	-2.6281844661	-1.7769405435	 0.047669
O	-2.6131611803	-3.0041281944	-1.6946256958	-0.280248
C	 0.3514475062	-0.611756015	-1.4431293342	 0.038225
O	 0.6201800632	 0.242882726	-2.5060279619	-0.429306
H	-1.0115795657	 1.5672117167	-0.5211872751	 0.303073
H	 0.8380004829	-0.1100269213	 0.7118207263	 0.100444
H	-1.6252925841	-1.2705185944	 0.9200474279	 0.121228
H	-2.9386214021	-0.7633827161	-1.003562719	 0.261563
H	-0.6623769083	-3.2868024318	-2.1701150616	 0.092788
H	 1.139312504	-1.3711619899	-1.3609865085	 0.088356
H	 0.475273366	 1.1380545467	-2.1652426049	 0.28973
108.7479	141.4094	187.912	243.7766	254.3296	336.712	347.6177	388.7708	559.071	593.3333	652.8561	686.8052	732.1585	778.9031	818.6042	839.1332	915.1916	952.4977	1017.0581	1041.9074	1072.9702	1096.4185	1133.8005	1153.2375	1193.937	1229.8881	1265.554	1292.8821	1308.6806	1365.7576	1401.2343	1415.6685	1435.8615	1444.6194	1783.2455	2919.9628	3032.4501	3118.4362	3200.3201	3466.9184	3691.3957	3721.7291
OC1C2NC2(C=O)C1O	O[C@H]1[C@H]2N[C@@]2(C=O)[C@H]1O	
InChI=1S/C5H7NO3/c7-1-5-3(6-5)2(8)4(5)9/h1-4,6,8-9H	InChI=1S/C5H7NO3/c7-1-5-3(6-5)2(8)4(5)9/h1-4,6,8-9H/t2-,3+,4-,5+/m0/s1
