13
gdb 132675	3.22409	1.37103	0.96196	1.2663	64.24	-0.2184	-0.0221	0.1963	1087.4341	0.089805	-497.92339	-497.916269	-497.915324	-497.954824	27.755	
O	 0.0687691006	 1.38661434	-0.1021789632	-0.445389
C	 0.0589801084	 0.0275687207	-0.0754231758	 0.282097
C	-0.0206306572	-0.7154023217	-1.2426306032	-0.149706
C	-0.0283878186	-2.109832867	-1.1741993552	-0.274711
C	 0.0457940461	-2.682418333	 0.0836393632	 0.320767
F	 0.0418082625	-4.0085486952	 0.2036343321	-0.075762
N	 0.1226122111	-2.0029334763	 1.2145000006	-0.40437
C	 0.1285540949	-0.6851689235	 1.13096692	 0.32696
O	 0.206610772	 0.0483146498	 2.2703501229	-0.441991
H	 0.1309974836	 1.6991881052	 0.8088786346	 0.311386
H	-0.075843339	-0.1993334664	-2.1941948439	 0.125172
H	-0.089275484	-2.7292694692	-2.0589127018	 0.116975
H	 0.2489396795	-0.5754161636	 3.0070863298	 0.308571
144.3053	249.9189	300.2092	353.6321	372.5806	390.3249	448.7472	487.4485	501.0321	542.1698	604.973	674.5523	746.8954	769.9526	807.9829	838.3318	952.6049	1004.2132	1099.2048	1189.2365	1209.0671	1285.3163	1308.143	1356.3538	1432.9137	1483.416	1529.7081	1657.0716	1665.5182	3203.0601	3225.8851	3788.2538	3796.8266
OC1=CC=C(F)N=C1O	Oc1ccc(F)nc1O	
InChI=1S/C5H4FNO2/c6-4-2-1-3(8)5(9)7-4/h1-2,8H,(H,7,9)	InChI=1S/C5H4FNO2/c6-4-2-1-3(8)5(9)7-4/h1-2,8H,(H,7,9)
