15
gdb 42146	3.54548	0.73868	0.64211	4.5893	89.23	-0.2626	-0.0739	0.1887	1694.695	0.110306	-383.422911	-383.413821	-383.412876	-383.458323	31.942	
O	 0.0407316492	-0.0225317092	-0.4639869757	-0.273865
C	-0.0284701754	 1.1511912468	-0.1491094023	 0.148594
C	 1.157131258	 1.9480760918	 0.1162354318	 0.285813
C	 2.1469638563	 2.597491899	 0.3334620909	-0.483029
C	-1.269818035	 1.8628516007	-0.0083195982	 0.088158
C	-2.3204949629	 2.4522088772	 0.1073565932	 0.019266
C	-3.5604632302	 3.1407276538	 0.2423744148	-0.167617
C	-3.7095706539	 4.2274850793	 1.304969999	-0.248876
C	-3.6495089694	 4.6179973121	-0.1345374309	-0.248886
H	 3.0262728374	 3.1634634179	 0.5233715003	 0.216454
H	-4.4450226009	 2.54382346	 0.0435451429	 0.126407
H	-4.6626153459	 4.2697099816	 1.8192531285	 0.130621
H	-2.8451843135	 4.4245448534	 1.9270422399	 0.138175
H	-2.7438018305	 5.0837701377	-0.5029418368	 0.138171
H	-4.5604428733	 4.9340081379	-0.6294144474	 0.130614
39.791	60.0035	100.3199	165.529	230.9652	232.546	291.957	427.2882	534.5419	547.06	593.9733	646.6918	682.5144	697.5975	770.0702	789.8952	822.4835	851.0628	881.2914	977.6348	1064.4172	1087.0928	1110.1259	1114.7265	1202.5263	1203.3012	1258.5293	1392.1085	1467.993	1497.3007	1713.5874	2214.9623	2315.577	3147.2921	3150.4115	3158.1488	3233.3394	3248.086	3495.9265
O=C(C#C)C#CC1CC1	O=C(C#C)C#CC1CC1	
InChI=1S/C8H6O/c1-2-8(9)6-5-7-3-4-7/h1,7H,3-4H2	InChI=1S/C8H6O/c1-2-8(9)6-5-7-3-4-7/h1,7H,3-4H2
