20
gdb 22911	3.24566	1.1065	0.92798	0.83	78.88	-0.2478	0.001	0.2487	1305.6544	0.17035	-440.26358	-440.254218	-440.253274	-440.29756	35.449	
C	-0.2980066693	 1.4629677706	 0.0498889162	-0.410501
C	 0.0996349054	-0.0105090337	 0.0613669967	 0.023252
C	 0.9345025778	-0.4752517212	-1.1535934455	-0.223423
C	 1.5195551759	-1.8367997355	-0.7232874347	-0.309088
C	 1.5580855436	-1.7535211963	 0.7860312194	 0.38943
N	 2.0069435678	-2.5935145702	 1.6295207524	-0.240596
O	 2.5574184135	-3.7170661686	 0.9891089873	-0.391209
C	 0.9654073953	-0.4400729828	 1.260436063	 0.035844
O	 2.0025471721	 0.5281963378	 1.431261928	-0.437319
H	 0.5879003139	 2.102189087	 0.0612230904	 0.137191
H	-0.8830160985	 1.6975840501	-0.8454894681	 0.108296
H	-0.9076101584	 1.7180060119	 0.9230918171	 0.111444
H	-0.8085664848	-0.6285561785	 0.1039243346	 0.074902
H	 0.3409491223	-0.5379974449	-2.0693483073	 0.095149
H	 1.7418303346	 0.2427436429	-1.329639104	 0.115504
H	 0.8736019563	-2.6738284096	-1.0168536815	 0.126523
H	 2.5062779784	-2.0542149874	-1.1419373911	 0.128621
H	 2.8326159376	-4.26338742	 1.7331984692	 0.305974
H	 0.3906924614	-0.5565473707	 2.1878927928	 0.07245
H	 2.6511152351	 0.1411912891	 2.0290613849	 0.287556
61.5874	157.4682	169.7132	207.3342	221.5613	258.8635	318.1922	346.9819	372.1848	423.0173	453.6225	544.2215	568.854	603.7236	713.0794	802.3209	848.4622	864.7792	920.0465	953.8442	983.1973	989.5065	1000.1163	1080.3777	1109.5478	1148.5353	1167.3915	1209.0278	1234.503	1250.8163	1300.9792	1311.2608	1318.6439	1354.6404	1369.2689	1401.8491	1407.9885	1415.7109	1464.2534	1491.1363	1496.0575	1502.6258	1751.6402	3004.3659	3027.4253	3037.0374	3037.8141	3055.3562	3086.6698	3098.1384	3104.2806	3127.2506	3812.0328	3815.7535
CC1CCC(=NO)C1O	C[C@H]1CCC(=NO)[C@H]1O	
InChI=1S/C6H11NO2/c1-4-2-3-5(7-9)6(4)8/h4,6,8-9H,2-3H2,1H3	InChI=1S/C6H11NO2/c1-4-2-3-5(7-9)6(4)8/h4,6,8-9H,2-3H2,1H3/t4-,6-/m0/s1
