16
gdb 32305	2.68849	1.57882	1.00103	1.7029	78.03	-0.2021	-0.0223	0.1798	1134.2065	0.12671	-434.091526	-434.083743	-434.082799	-434.123891	29.432	
C	-0.1498051989	 1.3453235286	 0.009328513	-0.245806
O	-0.0655279155	-0.0666001006	 0.0780265503	-0.235092
C	 0.6617442453	-0.5999595053	 1.0768985777	 0.314302
C	 1.3347424266	 0.0858269764	 2.0422910718	-0.145232
N	 2.0706424019	-0.5131628492	 3.0509487312	-0.280776
C	 2.0989556237	-1.7986467295	 3.0457957828	 0.091073
N	 1.4565996349	-2.5731964703	 2.1201743295	-0.361403
C	 0.6859765316	-2.0671581349	 1.0597124	 0.316931
N	 0.0735203881	-2.7631227908	 0.1786695605	-0.537477
H	 0.8401893845	 1.7994792604	-0.1266232624	 0.127725
H	-0.7742531597	 1.5681564133	-0.8564764509	 0.142166
H	-0.6132293129	 1.7632740957	 0.912315011	 0.127726
H	 1.325711727	 1.1683669849	 2.0673500449	 0.107505
H	 2.655056171	-2.3422927194	 3.8048430932	 0.127131
H	 1.5311691612	-3.578069684	 2.1895148803	 0.253939
H	 0.2076569512	-3.7639740352	 0.3314754071	 0.197289
104.0934	137.6942	232.3875	233.7093	300.7868	357.5298	439.2289	509.929	544.8668	568.6181	594.5394	647.7722	767.5733	769.143	809.0553	893.6233	904.0594	925.4736	1038.1446	1084.9055	1115.8534	1178.1053	1201.2207	1225.1303	1291.1728	1311.9629	1416.0021	1424.8033	1468.2921	1483.8652	1490.7166	1506.0041	1606.4446	1661.0406	1723.7107	3006.0685	3066.2458	3142.6304	3169.8833	3205.5489	3457.1714	3604.1979
COC1=CN=CNC1=N	COC1=C(NC=NC1)[NH]	
InChI=1S/C5H7N3O/c1-9-4-2-7-3-8-5(4)6/h2-3H,1H3,(H2,6,7,8)	InChI=1S/C5H8N3O/c1-9-4-2-7-3-8-5(4)6/h3,6H,2H2,1H3,(H,7,8)
