13
gdb 43503	4.02321	1.14999	0.89435	4.8016	81.69	-0.2366	-0.0981	0.1385	1191.6464	0.089061	-415.616183	-415.608277	-415.607333	-415.648859	29.181	
N	-0.1376404165	 1.2784073173	 0.0089226053	-0.518581
C	-0.0286078633	 0.0172520636	 0.0007684268	 0.28697
N	-1.0826477104	-0.8826422573	 0.0025253663	-0.398295
C	-0.594596995	-2.1829521993	-0.0086900949	 0.253287
C	 0.7727018308	-2.2228783677	-0.0179973803	-0.385958
C	 1.2487545375	-0.8496160861	-0.0128854671	 0.352898
O	 2.3664649563	-0.3776455532	-0.0174125013	-0.341498
C	-1.4958288745	-3.2708473866	-0.0093230544	 0.252092
C	-2.2794427789	-4.1842877841	-0.0096843117	-0.376997
H	 0.8083912462	 1.6726977029	 0.0049426068	 0.248679
H	-2.0565756662	-0.6329708988	 0.0099661044	 0.277603
H	 1.3777155658	-3.1142109349	-0.027340539	 0.131632
H	-2.9606825818	-5.000258086	-0.0100873908	 0.218168
80.8277	141.9362	144.0134	290.8917	297.7312	371.7516	458.6056	491.9583	521.1844	597.8127	648.7593	650.6196	675.3491	701.8867	759.0571	772.6565	828.0491	927.748	988.9982	1062.2697	1152.0855	1173.006	1294.0555	1368.8488	1435.3996	1589.6195	1753.154	1795.8913	2236.0078	3275.3139	3435.3937	3495.0741	3677.1811
N=C1NC(=CC1=O)C#C	[NH][C]1NC(=CC1=O)C#C	
InChI=1S/C6H4N2O/c1-2-4-3-5(9)6(7)8-4/h1,3H,(H2,7,8,9)	InChI=1S/C6H4N2O/c1-2-4-3-5(9)6(7)8-4/h1,3H,(H2,7,8,9)
