19
gdb 57349	1.94819	1.4664	1.03796	2.809	72.35	-0.2506	-0.0437	0.2069	1211.7597	0.153849	-460.181133	-460.170684	-460.169739	-460.216306	37.673	
C	-0.0760831308	 1.6008698032	-0.0789576302	-0.430585
C	 0.0248417662	 0.0739160375	 0.0195094549	 0.32615
C	 0.8653988463	-0.3416540657	 1.2358952417	-0.433424
O	-1.2936067579	-0.489946162	 0.115791121	-0.471104
C	 0.5585725387	-0.5364070212	-1.2932883723	-0.188909
C	 1.9858427345	-0.178603799	-1.6958853438	 0.143192
O	 2.6858919096	 0.6340106016	-1.1483225994	-0.246304
C	 0.4020491229	-2.06060367	-1.3770745733	 0.142233
O	 0.7707066338	-2.6974786898	-2.3307103647	-0.260539
H	 0.9082051191	 2.0525104188	-0.2144402064	 0.151106
H	-0.721122144	 1.8846415776	-0.915947633	 0.118073
H	-0.5175714489	 2.0051400466	 0.8394176617	 0.103769
H	 0.4063833115	 0.0438769052	 2.1533790619	 0.108483
H	 0.9250337398	-1.4304049419	 1.3263414698	 0.118329
H	 1.877177451	 0.0629766953	 1.1674673007	 0.152008
H	-1.6882821015	-0.1774050861	 0.9369961314	 0.279795
H	-0.0662192848	-0.1650391023	-2.1216734263	 0.145308
H	 2.3388336899	-0.7570551836	-2.5727176692	 0.124539
H	-0.0791605353	-2.5383948042	-0.5039130344	 0.11788
63.3757	120.9044	133.3624	189.2022	204.8966	240.1992	264.704	276.2154	283.093	319.526	361.5879	402.1168	413.8422	507.3515	559.5027	671.0944	751.8406	852.3413	876.4014	925.6768	953.1046	989.5561	1034.8353	1047.8709	1105.4825	1139.2194	1189.8526	1207.9965	1236.6386	1300.4169	1367.8718	1395.9771	1411.3083	1416.7435	1423.4471	1479.169	1493.9913	1501.9754	1516.401	1801.0709	1832.6262	2944.5695	2964.5962	2996.6047	3031.8811	3037.9854	3098.3173	3102.0723	3139.0214	3145.4731	3808.6222
CC(C)(O)C(C=O)C=O	CC(C)(O)C(C=O)C=O	
InChI=1S/C6H10O3/c1-6(2,9)5(3-7)4-8/h3-5,9H,1-2H3	InChI=1S/C6H10O3/c1-6(2,9)5(3-7)4-8/h3-5,9H,1-2H3
