22
gdb 57413	3.19883	1.02495	0.96492	3.8517	82.67	-0.2455	0.0344	0.28	1344.3714	0.192303	-404.385764	-404.375738	-404.374794	-404.420386	38.07	
C	-0.2421647221	 1.5700081108	 0.1167593945	-0.417009
C	-0.06995604	 0.0430739462	 0.0462464216	 0.236792
C	 0.8140151738	-0.4204741355	 1.2206966813	-0.410139
C	-1.4437140448	-0.6455277248	 0.1379051437	-0.406024
C	 0.6019315682	-0.4074047236	-1.2673504941	 0.070648
C	 0.0705431861	 0.1078768715	-2.6414228884	-0.426401
C	 1.5037689017	 0.643094895	-2.8709630918	 0.43314
O	 2.0997208279	 1.1742194679	-3.7682710671	-0.358802
N	 1.8826906964	 0.2374936228	-1.6108473406	-0.33584
H	 0.7125348088	 2.0838256843	-0.025462826	 0.123558
H	-0.9415963986	 1.9401742963	-0.6389621406	 0.113971
H	-0.6396112714	 1.8592058293	 1.0950455981	 0.112647
H	 0.3462936529	-0.1742375206	 2.1795495528	 0.11628
H	 0.9742180914	-1.5043380233	 1.1968692261	 0.109788
H	 1.7944656289	 0.067837547	 1.1996476646	 0.109074
H	-2.0990984618	-0.3418200029	-0.6851483581	 0.116357
H	-1.3464985427	-1.7365427781	 0.1050758667	 0.110819
H	-1.9446550814	-0.3849999898	 1.0759045198	 0.11486
H	 0.6876106375	-1.5022106269	-1.2523894251	 0.077611
H	-0.2272958438	-0.6680352047	-3.3485936364	 0.130421
H	-0.6992116908	 0.8791002394	-2.6009467526	 0.131204
H	 2.8058821338	 0.1421713996	-1.2128850384	 0.247045
67.3975	78.7797	190.1446	213.5368	248.9555	258.8496	287.2754	307.1247	338.8086	383.637	407.7439	430.5088	506.7835	528.5726	568.7043	703.5763	768.3837	833.0953	935.2266	938.1154	942.5456	958.9395	969.4236	990.458	1036.2183	1050.5907	1052.0579	1111.6896	1181.7573	1194.3863	1228.8197	1236.0773	1284.1923	1288.5197	1378.7028	1384.8143	1398.4817	1401.299	1434.3203	1456.4231	1481.44	1485.6026	1487.8231	1505.0129	1508.1139	1519.3566	1895.1838	3009.2597	3023.7169	3028.8824	3040.5908	3091.526	3092.3321	3095.1684	3097.4262	3099.4984	3105.0821	3116.7842	3150.069	3603.4298
CC(C)(C)C1CC(=O)N1	CC(C)(C)[C@H]1CC(=O)N1	
InChI=1S/C7H13NO/c1-7(2,3)5-4-6(9)8-5/h5H,4H2,1-3H3,(H,8,9)	InChI=1S/C7H13NO/c1-7(2,3)5-4-6(9)8-5/h5H,4H2,1-3H3,(H,8,9)/t5-/m1/s1
