20
gdb 8151	3.598	1.71414	1.56398	1.3978	74.37	-0.2522	0.0747	0.3269	927.6928	0.17808	-349.011784	-349.00401	-349.003065	-349.04316	31.117	
C	-0.301806311	 1.4620889295	 0.1320023936	-0.483479
C	 0.1178893371	 0.0222708173	-0.0431521084	 0.364294
C	-0.6981959782	-1.0819067605	 0.5894428519	-0.331813
C	 0.7055485571	-0.8070730048	 1.0827007499	-0.067004
C	 1.8315476604	-1.660194117	 0.5202776679	-0.243983
C	 1.6268412916	-1.6613623111	-1.0156674389	 0.09202
O	 0.8092631737	-2.7450622734	-1.4626170256	-0.4264
C	 0.873137156	-0.3516554908	-1.3169185389	-0.26192
H	 0.5533881193	 2.1430260275	 0.0401449468	 0.108669
H	-1.0401350435	 1.7572495615	-0.6234546229	 0.115454
H	-0.7555068748	 1.6261507018	 1.114808449	 0.111472
H	-1.5115143488	-0.7732796161	 1.2390268705	 0.097096
H	-0.8827296117	-1.9868779991	 0.0230718885	 0.127751
H	 0.8269694383	-0.3853838227	 2.0754327282	 0.073107
H	 2.7994518978	-1.2041047513	 0.7631183586	 0.096335
H	 1.8526896946	-2.6838557378	 0.9158055276	 0.085271
H	 2.5907005826	-1.6959996919	-1.5425663173	 0.064201
H	 1.225533316	-3.5637421652	-1.1744355265	 0.278818
H	 0.2275683625	-0.4820064895	-2.1914840914	 0.109024
H	 1.593391491	 0.4411155736	-1.5541094224	 0.091086
156.3126	187.1495	222.4886	298.1677	301.6456	358.933	394.7683	415.8155	434.7631	570.7174	683.1241	759.334	815.6569	826.4853	875.8125	897.7822	934.1158	943.3851	975.9098	1005.2371	1029.176	1068.1314	1083.6499	1087.2549	1096.4553	1136.6771	1190.4295	1202.5127	1256.0836	1262.4635	1294.4273	1314.884	1337.6558	1363.8065	1407.6246	1420.2969	1424.7484	1472.7262	1480.2806	1489.8178	1496.1101	1506.271	2991.603	3016.0866	3018.6281	3033.4611	3054.8785	3072.3781	3081.3328	3093.9489	3129.5666	3156.0394	3225.8355	3815.3111
CC12CC1CC(O)C2	C[C@]12C[C@H]1C[C@@H](O)C2	
InChI=1S/C7H12O/c1-7-3-5(7)2-6(8)4-7/h5-6,8H,2-4H2,1H3	InChI=1S/C7H12O/c1-7-3-5(7)2-6(8)4-7/h5-6,8H,2-4H2,1H3/t5-,6-,7-/m1/s1
