19
gdb 117112	2.90636	0.984	0.82292	1.5656	78.44	-0.2577	0.0058	0.2635	1466.68	0.155717	-423.033503	-423.022959	-423.022014	-423.070419	36.927	
C	 0.1629193907	 1.1363703929	-0.0581322922	-0.386669
C	 0.4674744647	-0.3206480584	-0.3707743926	-0.05635
O	 1.1498895292	-0.9650650621	 0.7285491192	-0.24251
C	 0.3759603113	-1.4777765959	 1.6982528308	 0.451755
O	-0.8252708613	-1.4064046131	 1.7317530057	-0.358018
C	 1.2414189425	-2.1716578881	 2.7629390456	-0.24942
C	 0.4504815962	-2.3709719108	 4.0660897045	-0.385188
C	 1.7452118524	-3.4349524316	 2.2260920396	 0.337565
C	 2.1365819673	-4.4879135888	 1.7997462529	-0.481373
H	 1.0760371082	 1.6761100366	 0.2089765848	 0.126318
H	-0.2766425847	 1.6186417595	-0.9370334803	 0.12266
H	-0.5491364265	 1.2116319442	 0.766871277	 0.144799
H	-0.4472896271	-0.8760852382	-0.5895390861	 0.134117
H	 1.1588476261	-0.4136700801	-1.2113180199	 0.117467
H	 2.0995097419	-1.5122440226	 2.9438951505	 0.129012
H	 1.0739405955	-2.8740219759	 4.8084167496	 0.124362
H	 0.129700753	-1.4056236006	 4.4658209297	 0.12361
H	-0.4387544752	-2.9750418521	 3.8793652478	 0.147261
H	 2.4914852759	-5.413563885	 1.4193134133	 0.200602
23.7167	68.9594	87.054	139.6539	190.5978	204.774	229.6268	250.9222	336.7144	358.1927	417.606	471.6563	548.3326	618.1878	637.2043	644.7209	770.6634	799.3184	851.1947	868.899	920.5193	1026.2904	1042.5597	1106.249	1119.8593	1121.6072	1192.3459	1212.276	1311.488	1323.5128	1332.1657	1399.2018	1409.2361	1420.7594	1485.0635	1488.156	1489.6582	1492.7264	1507.5626	1821.5594	2237.5387	3033.9372	3046.024	3057.855	3072.0348	3113.4221	3121.8553	3132.7177	3141.9066	3149.1678	3504.6807
CCOC(=O)C(C)C#C	CCOC(=O)[C@@H](C)C#C	
InChI=1S/C7H10O2/c1-4-6(3)7(8)9-5-2/h1,6H,5H2,2-3H3	InChI=1S/C7H10O2/c1-4-6(3)7(8)9-5-2/h1,6H,5H2,2-3H3/t6-/m0/s1
