21
gdb 91038	2.10514	1.85041	1.54305	1.7327	81.09	-0.248	0.0759	0.324	1026.4487	0.181821	-387.037354	-387.02898	-387.028036	-387.069596	33.519	
C	-0.2333544853	 1.5627290063	-0.0017076909	-0.422366
C	 0.0533850179	 0.0668586765	-0.0163576831	-0.005871
C	 1.1904629228	-0.4833194558	-0.9433975703	-0.256515
C	 1.8131909039	-1.243959549	 0.2637407105	-0.113708
C	 2.9077970916	-0.4930842226	 1.0580760444	 0.014832
O	 2.6420350731	 0.9107594472	 0.9561276178	-0.238147
C	 1.899344659	 0.1543462643	 1.9183239528	-0.035362
C	 0.7393125604	-0.6114323854	 1.2171840316	 0.315754
C	-0.0958863554	-1.4484888248	 2.1613117965	-0.495701
H	 0.6806644812	 2.1366174064	 0.1640849912	 0.140961
H	-0.6695455711	 1.8830112911	-0.954724853	 0.108767
H	-0.9495659824	 1.8193949064	 0.7878095332	 0.104736
H	-0.8783013985	-0.4739885321	-0.2208647034	 0.064913
H	 0.8411011498	-1.1320871835	-1.7497481326	 0.091979
H	 1.838963688	 0.2882519495	-1.3622265158	 0.110335
H	 1.9320802217	-2.3260153863	 0.2003625512	 0.068422
H	 3.9361858525	-0.7783976042	 1.2515939032	 0.100533
H	 1.9459559608	 0.4975591421	 2.9474952012	 0.095366
H	-0.7688935516	-0.8190843781	 2.757217851	 0.118315
H	-0.7117393697	-2.1688526278	 1.6126824927	 0.117531
H	 0.5333248512	-2.0115831401	 2.861077742	 0.115226
146.7904	194.7515	217.8475	226.5345	241.116	281.7824	317.88	395.0158	489.1027	552.3313	641.6309	653.1927	769.5808	809.4849	822.9281	845.0398	865.9527	884.2856	909.1365	929.4106	976.1281	1004.242	1029.9896	1052.329	1079.3343	1104.2196	1121.9198	1163.9875	1169.0873	1207.2272	1228.1478	1234.8948	1250.189	1268.4977	1291.2385	1328.7075	1361.6924	1384.8438	1402.5955	1410.4034	1473.9759	1490.9243	1491.5842	1492.7544	1509.6278	3015.5297	3023.9293	3030.9421	3067.463	3075.9533	3083.2302	3091.6272	3107.4943	3126.0985	3131.7367	3156.64	3177.3959
CC1CC2C3OC3C12C	C[C@H]1C[C@H]2[C@H]3O[C@H]3[C@@]12C	
InChI=1S/C8H12O/c1-4-3-5-6-7(9-6)8(4,5)2/h4-7H,3H2,1-2H3	InChI=1S/C8H12O/c1-4-3-5-6-7(9-6)8(4,5)2/h4-7H,3H2,1-2H3/t4-,5-,6+,7+,8-/m0/s1
