13
gdb 12613	3.15017	2.2168	1.36121	3.0033	55.75	-0.2596	-0.0482	0.2114	835.2307	0.094993	-435.755155	-435.748044	-435.7471	-435.786749	25.854	
O	 0.3252310957	 1.2649974573	-0.4169677351	-0.417463
C	 0.0083065871	-0.0342787684	-0.0424941129	-0.037327
C	 0.612978403	-0.4810130835	 1.2692104974	 0.385245
N	 1.7032479638	-0.0273611974	 1.7048423203	-0.549001
O	-0.1953489939	-1.3920526371	 1.8808098974	-0.235771
C	-1.4926613888	-1.4274399567	 1.2594328618	-0.197916
C	-1.4756399026	-0.3275591988	 0.1894451072	 0.345746
O	-2.430892493	 0.1707465002	-0.3304621302	-0.273646
H	 1.1315464455	 1.4879426003	 0.0720856362	 0.305686
H	 0.3214868006	-0.7732737602	-0.8095582228	 0.126927
H	 1.9439505021	-0.3994901764	 2.6233816587	 0.238035
H	-1.664910016	-2.4140435831	 0.8145073288	 0.151457
H	-2.2631000434	-1.2373939661	 2.0112741632	 0.158029
80.8837	159.1417	231.0832	276.8905	355.1585	390.9249	500.9379	557.5589	585.0472	653.3339	692.3292	775.7992	880.2131	917.257	986.708	995.1083	1089.8865	1107.941	1183.5468	1198.694	1217.3006	1272.1873	1340.6037	1389.6113	1414.6737	1484.9401	1790.0818	1890.8381	2896.5903	3048.5412	3108.4421	3497.8625	3726.997
OC1C(=N)OCC1=O	O[C@H]1[C]([NH])OCC1=O	
InChI=1S/C4H5NO3/c5-4-3(7)2(6)1-8-4/h3,5,7H,1H2	InChI=1S/C4H5NO3/c5-4-3(7)2(6)1-8-4/h3,5,7H,1H2/t3-/m1/s1
