18
gdb 43925	3.56667	1.52845	1.33016	2.8898	77.1	-0.2606	0.0226	0.2832	991.2965	0.150462	-401.898706	-401.892132	-401.891188	-401.929441	27.782	
N	 0.0200949185	 1.2231431125	-0.5506428805	-0.544513
C	 0.020903403	 0.0597336612	-0.0910706293	 0.332115
O	 1.1056246415	-0.7613343673	 0.2963113461	-0.332515
C	 0.1628012778	-1.6109616389	 1.010257004	 0.439065
C	-0.2694060249	-3.0736419081	 1.2259223164	-0.315052
C	-1.3421199519	-2.2985677459	 2.1220889931	-0.031042
C	-0.1798973633	-1.3318532521	 2.4809948367	-0.272573
C	-2.1709070229	-1.3648482294	 1.1685091093	-0.274625
C	-0.9947849818	-1.0345379485	 0.2165597966	-0.087754
H	 0.9696906175	 1.5894502542	-0.6379752176	 0.232503
H	-0.6086728037	-3.6389942429	 0.35546427	 0.105447
H	 0.3830549495	-3.6789505966	 1.8581592349	 0.111371
H	-1.8792041759	-2.8460558741	 2.8950375543	 0.081562
H	 0.5477934598	-1.7624344512	 3.171538453	 0.104991
H	-0.4329684122	-0.3080983551	 2.7679420272	 0.106355
H	-2.9896094572	-1.8666851937	 0.647993974	 0.106297
H	-2.5849474583	-0.518645226	 1.7214052342	 0.122812
H	-1.1096210054	-1.5859443781	-0.7231200723	 0.115555
128.7303	257.7829	360.1005	408.6484	460.3982	482.1154	555.6307	595.1303	663.8819	750.8848	770.6025	789.8945	838.6324	864.7622	883.3918	898.0393	925.1704	960.2298	991.3691	1011.8459	1031.8852	1069.3133	1080.9075	1097.6664	1129.4231	1133.711	1174.3844	1197.4761	1213.2394	1248.0981	1258.943	1268.5814	1284.8857	1311.7482	1366.0408	1486.074	1498.5695	1526.3455	1824.9795	3044.7215	3063.9122	3070.194	3073.1202	3118.8488	3129.2861	3132.6664	3137.5215	3475.5349
N=C1OC23CC(C2)CC13	[NH][C]1O[C@@]23C[C@@H](C2)C[C@@H]13	
InChI=1S/C7H9NO/c8-6-5-1-4-2-7(5,3-4)9-6/h4-5,8H,1-3H2	InChI=1S/C7H9NO/c8-6-5-1-4-2-7(5,3-4)9-6/h4-5,8H,1-3H2/t4-,5-,7-/m0/s1
