18
gdb 97124	3.15483	1.05016	0.8274	0.3198	75.33	-0.2539	0.0227	0.2766	1382.928	0.146624	-439.050105	-439.041061	-439.040117	-439.085207	31.49	
C	 0.0837754563	 1.51923494	 0.0635080901	-0.340828
N	 0.1902444543	 0.0699146866	-0.0402333458	-0.323986
C	 0.5329938862	-0.5917477796	 0.9618770158	 0.451385
O	 0.8479178697	-0.1910085699	 2.252630484	-0.267617
C	 1.0470646209	-1.5740877496	 2.6744161721	-0.098215
C	 0.7364378652	-2.0721382615	 1.2427125189	-0.188322
C	-0.4605000665	-2.9609659724	 1.0472326979	 0.09191
C	-0.602806862	-3.8095321128	-0.1395927808	-0.176549
O	-0.2225727731	-4.3686498257	 1.1205801559	-0.23966
H	 0.8007055916	 1.9807101801	-0.6246517876	 0.129686
H	-0.9151529901	 1.8269613235	-0.2636182456	 0.128216
H	 0.2626201524	 1.911320456	 1.0712709018	 0.128085
H	 2.0657524967	-1.7338730316	 3.0339883232	 0.125423
H	 0.3233410365	-1.8574508921	 3.4435592771	 0.124357
H	 1.6007448988	-2.4964874171	 0.7263151093	 0.111633
H	-1.3699220888	-2.6336342732	 1.5539041603	 0.100178
H	-1.5968369389	-4.0788134653	-0.4917226021	 0.122426
H	 0.1745910908	-3.7983479053	-0.9017667945	 0.121876
53.7317	79.9639	104.975	112.7397	202.254	232.034	319.7182	330.1089	412.5777	569.7735	659.0208	734.2708	813.7704	862.7689	925.4398	935.7428	960.6694	971.9614	1046.3683	1076.2776	1100.8746	1110.0033	1131.3721	1149.9	1155.1745	1167.3193	1176.0682	1200.1367	1220.1516	1285.7584	1296.8069	1351.0658	1439.2451	1452.2451	1494.0985	1497.284	1517.6836	1530.6075	1846.6241	3018.8419	3060.9688	3084.3086	3085.7302	3090.2138	3090.6313	3101.7364	3122.6368	3178.7837
CN=C1OCC1C1CO1	CN=C1OC[C@H]1[C@H]1CO1	
InChI=1S/C6H9NO2/c1-7-6-4(2-9-6)5-3-8-5/h4-5H,2-3H2,1H3	InChI=1S/C6H9NO2/c1-7-6-4(2-9-6)5-3-8-5/h4-5H,2-3H2,1H3/t4-,5+/m0/s1
