21
gdb 57502	3.04046	0.92888	0.84929	2.5779	86.38	-0.261	-0.0569	0.2041	1469.2039	0.177886	-387.082254	-387.07151	-387.070565	-387.1179	39.734	
C	-0.1393864635	 1.561981845	 0.1203822216	-0.411049
C	 0.0047528223	 0.0291428393	 0.0584158499	 0.253724
C	 0.6305052814	-0.4980438072	 1.3640638114	-0.411047
C	-1.3908478136	-0.5995911737	-0.1190764787	-0.407395
C	 0.8541777992	-0.3904225036	-1.1623904605	-0.314731
C	 2.2919170229	 0.0976318622	-1.243866909	 0.218848
O	 2.844898981	 0.7993860685	-0.4240202903	-0.28908
C	 3.0044995826	-0.3545096768	-2.4334783188	 0.251976
C	 3.5794677522	-0.7354965312	-3.4201240616	-0.388354
H	 0.8284502696	 2.0464611537	 0.2602215717	 0.141906
H	-0.5913691111	 1.9523223496	-0.799072778	 0.101372
H	-0.79015793	 1.8478962058	 0.9538001613	 0.106794
H	-0.0074008892	-0.2467330893	 2.2183188097	 0.106796
H	 0.7323516299	-1.5894002756	 1.3391169758	 0.101373
H	 1.6173696872	-0.0645022574	 1.5347218767	 0.141902
H	-1.8736984035	-0.2484198364	-1.0379775044	 0.106998
H	-1.3338466021	-1.6929409894	-0.1657962088	 0.106998
H	-2.0406130038	-0.3348284906	 0.7216096144	 0.112517
H	 0.8954974493	-1.4869354149	-1.237834902	 0.128165
H	 0.3656205097	-0.0688517258	-2.093866338	 0.128172
H	 4.1037496994	-1.0621408321	-4.2853283223	 0.214114
40.22	115.5499	121.6382	209.367	220.2887	240.0123	260.0108	275.8354	308.1316	329.2024	357.7057	397.3757	400.5926	516.1586	579.0833	613.9388	645.6985	705.4547	758.7489	844.0569	898.0649	926.7361	940.6353	942.5725	965.1825	1045.4	1064.8751	1095.7006	1178.2802	1236.2921	1273.6451	1302.4439	1368.4541	1399.0624	1400.6458	1425.3897	1441.2777	1480.4388	1487.1514	1493.1274	1506.5632	1511.3427	1525.7645	1766.5019	2209.4514	3006.2002	3022.0709	3026.8964	3033.5453	3035.7965	3085.6575	3088.6136	3091.4038	3099.0783	3136.2156	3138.8782	3494.7085
CC(C)(C)CC(=O)C#C	CC(C)(C)CC(=O)C#C	
InChI=1S/C8H12O/c1-5-7(9)6-8(2,3)4/h1H,6H2,2-4H3	InChI=1S/C8H12O/c1-5-7(9)6-8(2,3)4/h1H,6H2,2-4H3
