20
gdb 17282	4.64107	1.05567	0.99273	1.3239	74.98	-0.2511	0.0814	0.3325	1247.56	0.176612	-348.969693	-348.961119	-348.960175	-349.003436	32.137	
O	-0.1358811737	 1.4445256975	 0.1300173509	-0.417796
C	-0.0749406243	 0.0456788675	 0.1498537518	 0.084683
C	-0.7720203243	-0.7141326543	 1.2518064001	-0.321282
C	-1.3457523945	-0.6931538207	-0.1533503801	-0.003704
C	-2.6301340254	 0.0533600149	-0.4602753378	-0.229288
C	-3.8764717565	-0.7656050961	-0.1880454071	 0.044331
C	-4.5223340754	-0.7636993678	 1.1747052043	-0.251486
C	-5.2072537162	-0.0871432211	 0.0112671888	-0.277859
H	 0.4121034411	 1.7738418388	 0.8496022336	 0.286962
H	 0.8533168495	-0.3700735038	-0.2428756725	 0.08196
H	-0.323233424	-1.625142311	 1.6331326733	 0.106626
H	-1.2871844779	-0.1157864775	 1.9963608843	 0.110597
H	-1.2175131066	-1.6097349073	-0.7248256542	 0.081603
H	-2.6587629752	 0.9808884413	 0.120947029	 0.102328
H	-2.6196681989	 0.3596386014	-1.5154011139	 0.098317
H	-3.9103220215	-1.7145161906	-0.7192688687	 0.075586
H	-4.9422334252	-1.688812976	 1.5542891337	 0.106421
H	-4.0873868968	-0.1298550848	 1.940494217	 0.106482
H	-5.2275952866	 0.9980550261	-0.0018546318	 0.108584
H	-6.0945253176	-0.5503603266	-0.406415091	 0.106936
47.384	83.9956	124.9187	234.283	282.0942	302.3635	350.79	399.6852	469.7376	557.9124	765.3059	774.8034	802.9569	831.4728	835.9546	878.4485	882.0973	946.4978	966.781	1000.9743	1041.3203	1044.7258	1062.3494	1076.9339	1097.9819	1133.4097	1140.244	1176.7092	1197.8123	1200.842	1228.1001	1239.0534	1263.3703	1300.8412	1323.7718	1392.4934	1415.6835	1427.3929	1468.347	1481.677	1490.0115	1508.3908	3014.538	3073.2929	3091.5699	3124.1163	3126.7351	3128.0367	3132.4041	3134.4376	3204.138	3215.6018	3219.7606	3809.1698
OC1CC1CC1CC1	O[C@H]1C[C@H]1CC1CC1	
InChI=1S/C7H12O/c8-7-4-6(7)3-5-1-2-5/h5-8H,1-4H2	InChI=1S/C7H12O/c8-7-4-6(7)3-5-1-2-5/h5-8H,1-4H2/t6-,7+/m1/s1
