18
gdb 37035	2.93785	1.81354	1.48824	1.791	74.74	-0.2361	0.0268	0.2629	936.0151	0.150197	-401.924456	-401.91752	-401.916576	-401.955598	28.243	
C	 0.0078732099	 1.3266336239	-0.0326865232	-0.381042
C	 1.3972084681	 0.7166602893	-0.0418143902	 0.217572
C	 1.7623602702	 0.2408411334	 1.378026922	-0.290419
C	 0.5116664113	-0.7145295896	 1.3680994461	-0.290356
C	 0.1700538075	-0.1617075026	-0.0101455726	 0.392771
O	-0.2106251291	-0.9440881346	-1.1005035581	-0.261785
C	 0.6343008912	-0.8484055093	-2.1793362982	 0.104733
N	 1.6842607	-0.1688426301	-2.3486175096	-0.264557
C	 2.2375123615	 0.6900842823	-1.2915615329	-0.256227
H	-0.3555258498	 1.859850911	 0.8425284712	 0.110065
H	-0.325507114	 1.7320502372	-0.9825665135	 0.127101
H	 2.7039441744	-0.3115145066	 1.4169475948	 0.11032
H	 1.7786577226	 1.0166546554	 2.1494238959	 0.103014
H	 0.8063556334	-1.7651188951	 1.3273815471	 0.117404
H	-0.2414155758	-0.5854164875	 2.1511698712	 0.102218
H	 0.2563884209	-1.4859667304	-2.9756078827	 0.124778
H	 2.3921936585	 1.6846688792	-1.7283849423	 0.115598
H	 3.2382042392	 0.3057848841	-1.058901855	 0.118813
108.2812	195.6209	317.0738	346.5714	402.344	501.5354	515.264	538.0662	570.4306	710.074	741.93	777.8059	863.0246	893.5547	918.0602	921.4478	937.3723	952.9992	973.0693	984.6771	1014.7802	1066.7588	1110.215	1124.0335	1167.105	1201.678	1235.6929	1239.4812	1249.5027	1297.4577	1308.5314	1369.862	1388.9926	1421.0663	1475.5539	1479.8028	1482.6619	1511.3565	1725.8748	3020.7143	3049.4089	3050.4521	3058.0432	3103.4949	3110.2509	3123.3742	3166.063	3207.561
C1C23CCC12OC=NC3	C1[C@@]23CC[C@@]12OC=NC3	
InChI=1S/C7H9NO/c1-2-7-3-6(1,7)4-8-5-9-7/h5H,1-4H2	InChI=1S/C7H9NO/c1-2-7-3-6(1,7)4-8-5-9-7/h5H,1-4H2/t6-,7-/m1/s1
