13
gdb 127216	2.37318	2.04554	1.10623	1.8434	61.99	-0.2962	-0.0895	0.2067	989.9308	0.089065	-489.913785	-489.906093	-489.905149	-489.946615	27.196	
C	-0.0168542151	 1.4544228527	 0.0175730823	-0.349043
N	 0.0121667977	-0.0121038214	 0.0181924621	-0.247159
C	 0.1092344805	-0.6356978351	-1.2160130068	 0.533151
O	 0.1692489001	-0.0500012707	-2.256980021	-0.340976
O	 0.1365749405	-2.0145278992	-1.2223487957	-0.261592
N	 0.0733604483	-2.7897251176	-0.0698153885	-0.033901
C	-0.0147079354	-2.1706852709	 1.0427722281	-0.043462
C	-0.0559941275	-0.7064640531	 1.2219650265	 0.416904
O	-0.140403973	-0.1719082241	 2.304247997	-0.347757
H	 0.8950717281	 1.841357286	-0.4406387686	 0.161895
H	-0.8737678724	 1.8063914755	-0.559612388	 0.161844
H	-0.0929778238	 1.7763886713	 1.0538303068	 0.17496
H	-0.063161808	-2.7867121734	 1.9339189158	 0.175137
77.2562	110.9328	141.0487	224.8584	328.2578	395.1318	429.1456	498.1849	541.7231	585.8569	682.9005	752.4495	763.8986	848.6495	930.6026	945.2248	982.7608	1092.0602	1159.6293	1176.3211	1298.0299	1328.8212	1393.3693	1453.9	1490.5681	1506.1068	1676.6025	1795.0248	1869.2444	3072.2494	3142.2523	3190.8157	3211.1088
CN1C(=O)ON=CC1=O	Cn1c(=O)oncc1=O	
InChI=1S/C4H4N2O3/c1-6-3(7)2-5-9-4(6)8/h2H,1H3	InChI=1S/C4H4N2O3/c1-6-3(7)2-5-9-4(6)8/h2H,1H3
