15
gdb 77344	3.14469	1.27605	0.94956	2.8534	67.19	-0.2743	-0.0079	0.2663	1162.2761	0.111742	-457.765585	-457.757311	-457.756367	-457.798646	30.602	
O	 0.3765299447	 0.8823163926	 0.7577151916	-0.432336
C	 0.1555408001	-0.2480948763	-0.0322551042	 0.003663
C	-1.3198317434	-0.6773901219	-0.1374095548	-0.218291
C	-1.306015799	-1.3877709763	-1.5139783138	-0.102144
O	-0.3251243679	-0.6833999103	-2.3034520303	-0.211929
C	 0.5043353028	 0.0124919478	-1.4978055698	 0.404419
O	 1.3632287785	 0.7512876	-1.8886606622	-0.351023
C	-1.8255119149	-1.5092235408	 0.9386760871	 0.299887
C	-2.2396454059	-2.2180453647	 1.8157849739	-0.425887
H	 1.0614827051	 1.3962757398	 0.3058220291	 0.300869
H	 0.7550658624	-1.1085931086	 0.3109859686	 0.113045
H	-1.9139975765	 0.241654011	-0.2141901901	 0.13309
H	-1.00494524	-2.4354350718	-1.4176859724	 0.136174
H	-2.2599757852	-1.3324286446	-2.0387491929	 0.144964
H	-2.6074764409	-2.8331155759	 2.5997585904	 0.205499
79.024	128.6726	176.7238	227.9444	261.0261	361.104	386.0259	440.1411	476.7461	558.6913	584.6619	644.2959	647.5243	654.9874	723.3222	882.3925	897.0248	1032.2142	1046.5898	1049.8556	1097.0631	1141.5248	1194.9613	1217.4133	1246.1561	1277.0237	1334.5042	1365.3989	1398.1179	1428.2083	1519.0115	1877.4365	2244.8458	2963.8463	3040.6439	3064.8158	3137.4871	3502.759	3738.7399
OC1C(COC1=O)C#C	O[C@H]1[C@@H](COC1=O)C#C	
InChI=1S/C6H6O3/c1-2-4-3-9-6(8)5(4)7/h1,4-5,7H,3H2	InChI=1S/C6H6O3/c1-2-4-3-9-6(8)5(4)7/h1,4-5,7H,3H2/t4-,5+/m1/s1
