23
gdb 104893	2.40999	1.23176	1.1027	3.0812	80.92	-0.2463	0.06	0.3063	1255.6907	0.207132	-425.436561	-425.427125	-425.42618	-425.4709	36.46	
O	 0.2130196335	 1.3776982115	-0.2204964509	-0.433454
C	 0.0574508897	-0.0140350201	-0.0407102474	-0.088541
C	-1.411686056	-0.497162881	 0.0043650638	 0.296019
C	-2.0958883362	 0.0178671683	 1.2731704285	-0.146539
O	-2.1287796272	 1.4487200339	 1.2486426351	-0.427807
C	-2.1666276566	-0.0697820116	-1.2855793114	-0.232087
C	-2.0612723538	-1.2808998199	-2.2242640333	-0.206396
C	-2.2308770436	-2.4731606553	-1.2717565129	-0.192603
C	-1.4441267356	-2.0611596237	-0.0070639616	-0.27525
H	-0.4122172727	 1.8024033618	 0.3826802877	 0.287775
H	 0.5686310834	-0.4923587345	-0.8848640715	 0.096673
H	 0.5667878239	-0.3628634982	 0.8764395483	 0.072444
H	-3.119567744	-0.3831674137	 1.3301537151	 0.090452
H	-1.5464199355	-0.337005242	 2.1591197561	 0.091256
H	-2.478524087	 1.7644542589	 2.0868750838	 0.293871
H	-3.2204230882	 0.1264939709	-1.0542023072	 0.08727
H	-1.7492462659	 0.8489513237	-1.7017354443	 0.115835
H	-2.7998115664	-1.2633332381	-3.031081402	 0.091589
H	-1.0706819978	-1.3115212884	-2.6946576968	 0.100253
H	-3.2929672089	-2.5979702791	-1.0282212736	 0.094896
H	-1.8849934069	-3.4222747162	-1.6912923127	 0.093304
H	-0.4214659753	-2.4533449497	-0.0451899707	 0.100279
H	-1.8931360528	-2.4698054175	 0.904462048	 0.09076
42.6788	125.4029	168.9336	214.4401	253.4155	281.4821	299.8264	352.4088	372.9634	432.8331	462.7787	556.2955	563.2593	655.835	742.1082	824.6388	872.9362	880.3451	915.8042	927.4461	954.5373	967.7411	1025.5481	1043.4575	1047.1273	1078.514	1084.7634	1119.5446	1154.553	1197.8071	1225.2893	1240.321	1255.1355	1260.4736	1297.3645	1301.1413	1327.5523	1343.9559	1354.745	1360.4412	1381.2933	1450.4733	1469.5975	1487.8484	1491.6479	1493.4443	1505.1664	1511.0649	1521.7514	2933.3115	2969.2264	3005.5944	3028.5247	3031.3273	3034.4278	3037.9832	3048.6498	3068.9219	3084.6772	3092.2791	3115.0732	3739.2522	3832.9937
OCC1(CO)CCCC1	OCC1(CO)CCCC1	
InChI=1S/C7H14O2/c8-5-7(6-9)3-1-2-4-7/h8-9H,1-6H2	InChI=1S/C7H14O2/c8-5-7(6-9)3-1-2-4-7/h8-9H,1-6H2
