15
gdb 22479	3.15968	0.76596	0.62121	4.6064	88.06	-0.2631	-0.0819	0.1812	1699.4215	0.110654	-416.758196	-416.748636	-416.747692	-416.793508	33.153	
C	-0.056997858	 1.5098856386	 0.0900278169	-0.382257
C	 0.046249872	-0.0060969426	-0.0743249085	-0.268436
C	 0.7606050205	-0.4567483853	-1.3308496098	 0.117312
N	 1.2147319523	 0.4333011605	-2.1431373031	-0.139894
O	 1.8423379667	-0.1136017402	-3.2443096756	-0.377883
C	 0.8957363308	-1.8552804526	-1.5520168849	 0.105344
C	 0.9832881557	-3.0549746488	-1.6917290936	 0.113089
C	 1.0869983719	-4.4039186116	-1.8581546932	 0.195743
N	 1.1739212857	-5.5545851128	-1.9974025097	-0.330412
H	 0.9319754091	 1.9730905294	 0.1267872937	 0.133985
H	-0.6020188492	 1.962777311	-0.7417280828	 0.133986
H	-0.5843236934	 1.7446069039	 1.0186304294	 0.116557
H	 0.5658350919	-0.4504674358	 0.7844458429	 0.132219
H	-0.9528782617	-0.4606911928	-0.0753394971	 0.132209
H	 2.1187082156	 0.6653826091	-3.7412465546	 0.318439
61.462	64.3225	124.9242	199.7083	206.1549	221.3718	293.1692	311.912	343.4636	455.0942	459.5827	564.8674	570.4067	623.113	651.8979	668.9687	797.0134	961.4407	1020.3281	1061.5382	1100.2816	1108.0797	1263.7192	1286.7674	1374.0935	1402.5554	1418.3877	1474.2829	1492.7535	1501.2936	1665.521	2252.1781	2379.0797	3026.2832	3051.8948	3053.288	3125.4044	3130.7078	3804.1108
CCC(=NO)C#CC#N	CCC(=NO)C#CC#N	
InChI=1S/C6H6N2O/c1-2-6(8-9)4-3-5-7/h9H,2H2,1H3	InChI=1S/C6H6N2O/c1-2-6(8-9)4-3-5-7/h9H,2H2,1H3
