19
gdb 58619	2.35661	1.42495	1.09001	2.002	71.33	-0.2507	-0.0292	0.2215	1174.7291	0.155629	-460.163047	-460.153088	-460.152144	-460.197971	36.257	
C	 0.034453899	 1.5790066744	 0.3978956209	-0.419848
C	-0.0142792403	 0.1105024499	-0.032992866	 0.060722
O	 0.83318727	-0.6906544268	 0.7732310488	-0.432724
C	-1.4446081019	-0.4382531553	-0.0043314962	 0.27126
C	-1.6698770506	-1.8607810857	 0.3221626927	-0.226326
O	-1.8961212837	-0.8427180341	 1.2998069401	-0.281077
C	-2.4638105673	 0.2536145245	-0.8818812441	 0.323769
C	-3.8999623865	 0.2784630546	-0.4051544919	-0.479817
O	-2.1046581505	 0.7730913321	-1.9157709612	-0.309132
H	 1.0736402332	 1.9151878213	 0.4232160667	 0.127969
H	-0.5222438577	 2.2127167863	-0.296657946	 0.139061
H	-0.3915943179	 1.7003217504	 1.4007926951	 0.115288
H	 0.3604599216	 0.0156694582	-1.0559470896	 0.116075
H	 0.4553947126	-0.6769483755	 1.6622111745	 0.286779
H	-2.5637171088	-2.3676733357	-0.0361257178	 0.121133
H	-0.7944878571	-2.4811994309	 0.4907627215	 0.144673
H	-3.9679239806	 0.8850309493	 0.5045322099	 0.156117
H	-4.5292075169	 0.7074365024	-1.1854534118	 0.142477
H	-4.2579726567	-0.7189789595	-0.1348188255	 0.143598
68.8389	79.6845	123.1876	177.6487	205.839	251.8363	275.0381	311.8616	351.8024	401.849	435.106	485.1938	500.4872	589.1021	617.4423	682.5656	831.4557	867.799	905.5674	946.9368	965.7003	1028.7946	1057.0889	1086.0172	1105.0363	1135.7885	1144.5682	1175.7448	1275.5675	1313.1738	1348.4721	1366.2718	1388.4618	1402.5139	1419.7117	1452.2838	1469.2912	1494.9996	1500.4599	1510.1318	1796.5627	3036.5768	3048.4124	3082.2556	3102.3981	3111.3511	3114.4723	3135.795	3158.5157	3204.3437	3773.1586
CC(O)C1(CO1)C(C)=O	C[C@@H](O)[C@]1(CO1)C(=O)C	
InChI=1S/C6H10O3/c1-4(7)6(3-9-6)5(2)8/h4,7H,3H2,1-2H3	InChI=1S/C6H10O3/c1-4(7)6(3-9-6)5(2)8/h4,7H,3H2,1-2H3/t4-,6-/m1/s1
