14
gdb 125495	2.69836	1.46386	0.95466	4.7086	69.01	-0.2439	-0.0345	0.2094	1155.6079	0.100551	-470.042474	-470.034468	-470.033524	-470.075351	28.619	
C	 0.0509908809	 1.4491333427	 3.928*^-6	-0.490375
C	-0.0333072927	-0.0284243762	-0.0069470933	 0.419931
N	-1.0834355206	-0.7474211022	-0.140066433	-0.249446
N	-0.6114905438	-2.0539406527	-0.0764260179	-0.120862
C	-1.4411768266	-3.1708786151	-0.1802165295	 0.176075
O	-2.6298892267	-3.1165889826	-0.3329677972	-0.27446
C	 0.7736448783	-2.079066982	 0.1015405344	 0.479618
N	 1.5155251385	-3.0899736412	 0.1992363128	-0.583484
O	 1.1312876966	-0.7419198169	 0.1443091299	-0.232632
H	 0.6999605859	 1.7997884878	-0.8086517921	 0.160203
H	-0.9482543288	 1.8648970248	-0.1292641811	 0.172378
H	 0.4752675659	 1.8042760445	 0.9443865662	 0.160191
H	-0.840612178	-4.0906874253	-0.1008731204	 0.138347
H	 2.4910453311	-2.8346175356	 0.3239297632	 0.244517
105.3178	157.8515	173.1011	187.9823	219.1453	298.2233	364.966	418.9337	586.9898	648.8518	654.9576	716.8365	720.6147	768.3452	887.7478	959.0355	987.3111	1035.1259	1068.9726	1069.6029	1135.749	1206.9347	1340.508	1374.2439	1422.4045	1428.9005	1470.0597	1476.3828	1713.8258	1801.1178	1834.8612	3028.8467	3049.7291	3108.4812	3163.5066	3551.2254
CC1=NN(C=O)C(=N)O1	CC1=NN(C=O)[C@H]([NH])O1	
InChI=1S/C4H5N3O2/c1-3-6-7(2-8)4(5)9-3/h2,5H,1H3	InChI=1S/C4H6N3O2/c1-3-6-7(2-8)4(5)9-3/h2,4-5H,1H3/t4-/m0/s1
