18
gdb 34743	2.88246	1.67326	1.49549	1.8871	79.77	-0.2261	0.0305	0.2566	956.3394	0.149392	-364.740039	-364.73287	-364.731926	-364.771334	29.319	
C	-0.2216970928	-1.2685411721	-0.325651171	-0.452015
C	-0.0989141095	-0.0857007332	-0.1427385194	 0.350074
C	 0.0221289153	 1.3474965725	 0.0584229437	-0.150889
C	-0.2626883958	 1.9969231663	 1.4500194312	-0.071342
C	 0.1139877291	 1.0446749941	 2.5902272052	-0.215379
C	 1.6060151883	 0.7131407012	 2.3117199224	-0.244175
C	 2.0519441684	 1.8086419521	 1.3502669345	-0.007809
C	 1.0093905045	 2.8356241733	 1.1756932056	-0.062644
N	 1.4064492248	 1.9630701007	 0.0081157314	-0.1585
H	-0.3224470909	-2.3127806854	-0.4913162031	 0.198511
H	-0.5524037588	 1.8617336928	-0.7188446813	 0.112884
H	-1.2243755365	 2.4977100452	 1.5573995425	 0.074525
H	 0.0008273816	 1.5552614888	 3.55269649	 0.0988
H	-0.5190479228	 0.1531003186	 2.6040330107	 0.111019
H	 2.2110157551	 0.7486705918	 3.2229533722	 0.101151
H	 1.7312589293	-0.281123135	 1.8761101126	 0.125136
H	 3.1011388662	 2.0799435847	 1.3007007736	 0.096434
H	 1.1265157344	 3.9124704536	 1.1698528092	 0.094219
139.2891	145.4057	243.9324	340.9559	374.5914	527.1685	532.6027	614.5816	623.6033	651.7204	678.2117	763.6839	791.4023	816.6497	837.8322	857.9757	904.7885	914.7274	950.1398	996.0172	1031.2674	1044.0343	1052.5473	1062.0454	1094.4182	1156.3736	1190.487	1218.7784	1233.1099	1270.3498	1281.0072	1286.1928	1312.6363	1339.0479	1363.9791	1397.8162	1480.0416	1499.6453	2225.2385	3043.9229	3050.3934	3059.6762	3092.2502	3108.7853	3117.6899	3169.4115	3187.531	3501.6586
C#CC1C2CCC3C2N13	C#C[C@H]1[C@H]2CC[C@@H]3[C@H]2N13	
InChI=1S/C8H9N/c1-2-6-5-3-4-7-8(5)9(6)7/h1,5-8H,3-4H2	InChI=1S/C8H9N/c1-2-6-5-3-4-7-8(5)9(6)7/h1,5-8H,3-4H2/t5-,6+,7-,8+,9?/m1/s1
