17
gdb 104842	2.39697	1.33434	1.15159	2.7924	65.13	-0.2632	-0.0463	0.217	1123.3641	0.134139	-496.079177	-496.070184	-496.06924	-496.113284	32.726	
O	 0.0698612546	 1.338867161	-0.3529787218	-0.417745
C	-0.0244770713	 0.097686522	 0.3337748483	-0.112207
C	-1.4280813108	-0.4799047602	 0.0949055612	 0.190368
C	-2.5190301857	 0.2448933084	 0.8973752064	-0.090003
O	-2.1935785133	 1.5605432801	 1.2858564907	-0.42378
O	-1.6676418298	-0.4747188861	-1.3572321173	-0.336717
C	-1.6777817311	-1.9154626902	-1.4644498648	-0.195685
C	-1.5147778852	-2.0140709236	 0.054587048	 0.310551
O	-1.4998228774	-2.8838400647	 0.8696147749	-0.276568
H	-0.1823010212	 1.1455805265	-1.2668367065	 0.300611
H	 0.7482574026	-0.6024422172	-0.0124372013	 0.101469
H	 0.1324162176	 0.2990250446	 1.3952132646	 0.146253
H	-3.4436947005	 0.2068478655	 0.3012329955	 0.103729
H	-2.6915852279	-0.3246814795	 1.8192572505	 0.123708
H	-1.6367785923	 1.9482945946	 0.5966078546	 0.293733
H	-2.6222514777	-2.3053303009	-1.8622475548	 0.14411
H	-0.8424436206	-2.3117715405	-2.0547459983	 0.138173
62.7967	110.4911	140.1245	179.6419	210.6231	300.6193	317.9139	371.38	459.0654	473.3111	528.0996	592.8194	606.6494	671.9009	787.0392	874.4991	918.2172	948.8435	995.7567	1009.2702	1053.4234	1083.9658	1121.1026	1135.7454	1151.6923	1167.01	1247.9874	1271.9752	1297.9695	1355.8896	1390.4228	1427.3501	1456.8174	1480.5684	1493.8829	1499.8503	1919.7183	2988.0026	3009.2051	3025.3118	3050.8032	3074.9518	3121.3329	3739.1204	3756.88
OCC1(CO)OCC1=O	OCC1(CO)OCC1=O	
InChI=1S/C5H8O4/c6-2-5(3-7)4(8)1-9-5/h6-7H,1-3H2	InChI=1S/C5H8O4/c6-2-5(3-7)4(8)1-9-5/h6-7H,1-3H2
