14
gdb 44112	3.64993	1.72861	1.47386	2.3676	66.34	-0.2551	-0.041	0.2141	867.1368	0.104162	-432.831507	-432.825503	-432.824558	-432.86184	24.157	
O	-0.1351225268	 0.0560778339	 0.1615880071	-0.321146
C	-0.0585987386	 1.2426258849	 0.0265817104	 0.41819
N	-1.1594151295	 2.1265683638	-0.2675015679	-0.343001
C	-0.5818688191	 3.3322064639	 0.1831069182	 0.212869
N	-0.7238658439	 3.8519774261	 1.3354085652	-0.229576
C	 0.6602502481	 4.1542005312	 1.7661943276	-0.190001
C	 1.5211003816	 3.4541658288	 0.7082784976	-0.050965
C	 1.1983028974	 2.1162842135	-0.016083734	-0.193901
N	 0.7025310829	 3.4316484432	-0.4930769984	-0.09688
H	-2.0362413138	 1.8526261831	 0.1601011961	 0.271707
H	 0.9033990335	 5.2259306831	 1.7735314094	 0.129505
H	 0.7800329737	 3.7775431827	 2.7861304029	 0.138467
H	 2.5523714262	 3.7744104051	 0.5820604621	 0.117781
H	 2.0322187483	 1.6671978566	-0.5489439663	 0.136951
140.4815	268.3583	377.7619	428.2293	498.825	588.3233	636.1215	707.0618	724.7803	768.0374	789.3281	837.8135	877.2785	891.0866	922.2327	958.6842	983.4087	1013.7289	1064.6722	1094.6689	1137.4905	1180.9243	1211.791	1266.7757	1307.361	1319.7636	1337.5514	1359.1548	1486.184	1672.2	1876.3074	3016.5321	3086.3989	3149.6507	3160.9096	3581.741
O=C1NC2=NCC3C1N23	O=C1N[C]2[N]C[C@H]3[C@@H]1N23	
InChI=1S/C5H5N3O/c9-4-3-2-1-6-5(7-4)8(2)3/h2-3H,1H2,(H,6,7,9)	InChI=1S/C5H5N3O/c9-4-3-2-1-6-5(7-4)8(2)3/h2-3H,1H2,(H,6,7,9)/t2-,3-,8?/m0/s1
