21
gdb 119997	3.15466	0.84259	0.78834	2.3108	76.84	-0.2309	0.0658	0.2966	1575.893	0.179602	-461.308218	-461.297614	-461.29667	-461.344834	37.069	
C	-0.297182056	 1.3878002096	-0.069827827	-0.224281
O	-0.2294142452	-0.0158465294	-0.1101080838	-0.232566
C	 0.7743825111	-0.4859043273	-0.9872547039	-0.058038
C	 0.744678375	-1.9916538773	-0.9523607264	-0.141075
C	 0.0187034258	-2.7960515433	-2.0208462938	 0.092416
O	-0.5493643259	-2.1482236473	-3.1172501626	-0.429845
C	 1.527732811	-2.8227100418	-1.9372211366	 0.036491
O	 2.1979154324	-2.1252816926	-2.9521592149	-0.256163
C	 2.636433115	-2.9820853354	-3.9974067758	-0.245006
H	 0.6494408879	 1.8353500414	 0.2750974465	 0.099434
H	-0.5359697558	 1.8156988945	-1.0567637837	 0.103528
H	-1.0903048598	 1.6578644862	 0.631850668	 0.124946
H	 0.5983156203	-0.1140337472	-2.0070720278	 0.086323
H	 1.7630736301	-0.1113024816	-0.671737659	 0.087551
H	 0.7053219784	-2.3923948352	 0.0567020693	 0.098713
H	-0.5632805909	-3.6610116794	-1.719863144	 0.102125
H	 0.1817010438	-1.7499572272	-3.6082064658	 0.292309
H	 2.055134104	-3.7086585508	-1.5838905804	 0.088633
H	 1.7972097823	-3.5106242929	-4.4690478168	 0.123864
H	 3.1331333469	-2.3528039548	-4.7391488535	 0.132885
H	 3.3528650596	-3.7262856483	-3.6217216679	 0.117755
50.4417	82.6529	89.8999	94.7879	180.9465	210.3478	239.0247	244.6562	278.8841	313.5655	411.2772	412.3234	561.1788	613.7454	667.9635	770.4083	805.1865	902.9091	971.0434	1000.3282	1047.2078	1078.9616	1096.4694	1122.7024	1143.2953	1152.4134	1162.9401	1183.0116	1186.5141	1209.8117	1235.0454	1248.4239	1271.7166	1318.3032	1342.6971	1379.5692	1431.1625	1461.2287	1481.1567	1482.8262	1485.5841	1487.6306	1500.8204	1509.3116	1521.7191	2956.1261	2967.5775	2995.5924	3006.081	3010.5129	3052.823	3098.8155	3111.6148	3124.8743	3150.2881	3165.4634	3754.2257
COCC1C(O)C1OC	COC[C@H]1[C@@H](O)[C@H]1OC	
InChI=1S/C6H12O3/c1-8-3-4-5(7)6(4)9-2/h4-7H,3H2,1-2H3	InChI=1S/C6H12O3/c1-8-3-4-5(7)6(4)9-2/h4-7H,3H2,1-2H3/t4-,5+,6-/m0/s1
