19
gdb 99695	2.15894	0.99948	0.80985	1.9319	82.32	-0.2315	-0.0241	0.2074	1529.4431	0.153942	-423.006253	-422.994671	-422.993727	-423.04661	37.802	
C	 0.5513273526	 0.9138562179	 0.6592435479	-0.239903
O	 0.2150802336	-0.4075734859	 0.2779314954	-0.242151
C	-1.1329320276	-0.5301060452	-0.1550194259	-0.133684
C	-1.3047096789	-1.7927870491	-0.8619073281	 0.001617
C	-1.5029135313	-2.8373002719	-1.4273596429	 0.141502
C	-1.725237289	-4.0948655169	-2.1243883263	-0.502152
C	-2.1217990817	-0.4699293614	 1.0474749755	 0.364813
C	-1.8003830104	-1.3764777759	 2.2150609335	-0.477143
O	-3.0740739003	 0.2696790832	 1.0145979395	-0.295984
H	 1.6053028116	 0.900830189	 0.9443733721	 0.13376
H	 0.4118432372	 1.6194731482	-0.1728549292	 0.117364
H	-0.0434426618	 1.2689285953	 1.5137920683	 0.116369
H	-1.4053749057	 0.3100403354	-0.8121356564	 0.108294
H	-2.6657816595	-4.560437361	-1.8104750749	 0.153835
H	-1.7713965431	-3.9461669037	-3.2085343801	 0.154358
H	-0.9173399433	-4.8052609575	-1.9185843336	 0.155654
H	-1.8203632091	-2.4196393573	 1.8825914879	 0.154293
H	-0.7856757242	-1.1840887677	 2.574813071	 0.151793
H	-2.5266864691	-1.2235450457	 3.0134757462	 0.137365
9.4	31.2424	75.7259	85.1067	96.8507	114.4851	175.054	245.4976	268.4276	289.51	370.7993	394.593	468.8666	494.6478	547.5462	598.6142	779.6008	839.8523	975.7793	999.6743	1041.9485	1052.358	1053.9166	1116.9501	1171.2731	1183.6915	1210.294	1221.2197	1282.9494	1357.7969	1378.1102	1413.8158	1460.1857	1465.862	1475.1789	1477.6012	1478.0771	1489.5818	1507.9403	1822.3418	2369.1572	2983.5775	2991.8147	3030.5288	3035.1585	3051.1205	3092.8735	3094.4851	3115.7805	3125.1883	3160.6325
COC(C#CC)C(C)=O	CO[C@@H](C#CC)C(=O)C	
InChI=1S/C7H10O2/c1-4-5-7(9-3)6(2)8/h7H,1-3H3	InChI=1S/C7H10O2/c1-4-5-7(9-3)6(2)8/h7H,1-3H3/t7-/m0/s1
