13
gdb 15485	3.76533	1.87313	1.2607	6.7586	63.1	-0.2439	-0.074	0.1699	887.9499	0.095701	-398.651897	-398.644748	-398.643804	-398.683811	25.167	
O	-0.1643748789	 0.0066193518	 0.0011795847	-0.234217
C	-0.0236034441	 1.2030303008	 0.0079032218	 0.078005
C	 1.2649891544	 1.9192111506	 0.0004680971	 0.126298
C	 1.3876087084	 3.2543274919	 0.0097915621	-0.16959
C	 2.8335164899	 3.6579136863	-0.0015023202	-0.205195
N	 3.5004715752	 2.3807053838	-0.0191008029	-0.33652
C	 2.6415564656	 1.2972922273	-0.0180013246	 0.352045
O	 2.9602793401	 0.1332733275	-0.029611461	-0.350656
H	-0.9024523127	 1.8894739088	 0.0212626053	 0.070018
H	 0.5798507708	 3.9764421571	 0.023478969	 0.133353
H	 3.066427723	 4.2746035431	-0.8827461556	 0.138345
H	 3.0843434225	 4.2596905497	 0.8851320751	 0.138336
H	 4.4986078257	 2.2574515412	-0.0279152207	 0.259776
76.3386	123.7631	174.4583	253.3171	398.2198	426.843	447.6356	482.0929	734.5466	748.1861	766.0866	795.6787	838.9566	959.4618	1011.0012	1041.4216	1078.9093	1165.7127	1184.458	1213.861	1328.5967	1349.327	1423.1976	1433.6147	1491.1081	1667.7287	1797.568	1853.9192	2853.7782	2992.7628	3012.3595	3211.4923	3671.378
O=CC1=CCNC1=O	O=CC1=CCNC1=O	
InChI=1S/C5H5NO2/c7-3-4-1-2-6-5(4)8/h1,3H,2H2,(H,6,8)	InChI=1S/C5H5NO2/c7-3-4-1-2-6-5(4)8/h1,3H,2H2,(H,6,8)
