16
gdb 67686	2.28127	2.20226	1.68006	2.9615	68.16	-0.2431	-0.0307	0.2124	870.0605	0.125554	-437.814015	-437.807197	-437.806253	-437.844799	27.67	
O	-0.0982847847	 1.4575773948	-0.0736699255	-0.466338
C	-0.0773189331	 0.0791508621	-0.0351611917	 0.348411
C	-0.1815957559	-0.9379395853	-1.1086685858	-0.188606
C	 1.2086268027	-1.6428351787	-1.1433571582	-0.09311
O	 2.0085716451	-1.0310377733	-0.06283104	-0.263582
C	 0.9346833228	-0.764537584	 0.7573422208	 0.178129
N	 0.4967646463	-1.5822429914	 1.6232076505	-0.213046
C	-0.9788422666	-1.5582931101	 1.4665886175	-0.187654
C	-1.2091992463	-0.8415980793	 0.1264107061	-0.116717
H	 0.7034660924	 1.7586263172	-0.5172332393	 0.292166
H	-0.6575009051	-0.7277599201	-2.0608736175	 0.106622
H	 1.1681260269	-2.7198096013	-0.9546510435	 0.130102
H	 1.7235613423	-1.4411138006	-2.0863458256	 0.124092
H	-1.3041519185	-2.6040328858	 1.477085598	 0.12508
H	-1.5049022171	-1.0416308535	 2.2804269643	 0.122773
H	-2.2119398212	-0.5630433908	-0.1818489801	 0.10168
215.2	229.7117	268.9679	299.7372	333.6023	473.9165	525.8221	577.7218	632.0975	664.0062	731.6762	761.1146	845.4973	872.8739	891.1453	910.3363	971.6905	991.3109	1010.0509	1032.0231	1050.1521	1084.9245	1102.7873	1184.197	1200.4726	1211.3054	1229.4084	1294.6158	1307.162	1327.6501	1356.4778	1475.9485	1489.2303	1497.9141	1666.7498	3023.3752	3050.3004	3071.9165	3112.5065	3167.9586	3177.0779	3791.3046
OC12C3COC1=NCC23	O[C@@]12[C@H]3CO[C]1[N]C[C@@H]23	
InChI=1S/C6H7NO2/c8-6-3-1-7-5(6)9-2-4(3)6/h3-4,8H,1-2H2	InChI=1S/C6H7NO2/c8-6-3-1-7-5(6)9-2-4(3)6/h3-4,8H,1-2H2/t3-,4+,6+/m1/s1
