18
gdb 126842	5.11517	0.91998	0.82452	2.4546	76.88	-0.2159	-0.0087	0.2072	1436.7502	0.148814	-431.439765	-431.430597	-431.429653	-431.474571	32.028	
C	-0.1889435352	 1.4707386184	 0.1291729971	-0.380445
C	 0.1058770832	-0.0257168456	 0.0407414282	-0.132114
N	 0.7936098919	-0.5226344718	 1.2223149661	 0.147294
N	 2.0411650206	-0.9423543932	 1.1993228771	-0.131972
N	 2.3428850648	-1.293580877	 2.4305193079	-0.293246
C	 1.2253674919	-1.0536032632	 3.1654258214	 0.491599
N	 1.1523722219	-1.2466999841	 4.5173806519	-0.369281
C	 2.1244074415	-2.1102749171	 5.1698085028	-0.320738
N	 0.2213764462	-0.5693224027	 2.4305692731	-0.363279
H	 0.7379269597	 2.0443648808	 0.2150158141	 0.137758
H	-0.7162041405	 1.7958393878	-0.772240941	 0.125856
H	-0.8156409418	 1.687845396	 0.9971517764	 0.148647
H	-0.8192435914	-0.5990755445	-0.0704586801	 0.135511
H	 0.7637507211	-0.2590551792	-0.7982460703	 0.148284
H	 0.2075734216	-1.2979500512	 4.8654899242	 0.251379
H	 3.1323046675	-1.7629693861	 4.9348086433	 0.160161
H	 1.977289057	-2.0478504172	 6.2502801761	 0.123622
H	 2.049405	-3.16234661	 4.8598260915	 0.120962
52.4168	81.8307	118.8462	150.2125	186.9574	228.3343	296.0397	360.712	425.2649	477.8883	540.32	686.037	697.7348	770.4946	779.9528	801.1178	982.942	1033.21	1053.371	1094.0954	1115.9078	1124.5719	1159.6159	1173.1622	1243.0353	1257.6617	1366.9686	1387.3166	1395.661	1413.0403	1421.8064	1451.4587	1478.8261	1487.2799	1488.5273	1502.4958	1506.7666	1516.6675	1633.1213	3003.6453	3050.605	3066.73	3097.0835	3122.7763	3126.7286	3140.693	3145.4302	3626.4052
CCN1N=NC(NC)=N1	CCn1nnc(NC)n1	
InChI=1S/C4H9N5/c1-3-9-7-4(5-2)6-8-9/h3H2,1-2H3,(H,5,7)	InChI=1S/C4H9N5/c1-3-9-7-4(5-2)6-8-9/h3H2,1-2H3,(H,5,7)
