18
gdb 22846	3.13468	1.20622	0.91115	1.5017	81.17	-0.2312	-0.0349	0.1963	1257.8877	0.148873	-439.044798	-439.036642	-439.035698	-439.077703	31.241	
O	-0.0053722605	 1.3087234948	 0.7787612226	-0.389845
N	 0.0611993184	-0.0643214728	 0.5311518681	-0.172667
C	-0.9897185826	-0.5273190533	-0.051436013	 0.316725
C	-0.9464099302	-2.0281902792	-0.2526948626	-0.171878
O	-1.2913244845	-2.4650972015	-1.5506618173	-0.23327
C	-2.6816300286	-2.4945803983	-1.8018313761	-0.07603
C	-3.2572561629	-1.1514784794	-2.2493571617	-0.261983
C	-3.1091882376	 0.0161326846	-1.3116104807	-0.066774
C	-2.151373107	 0.2846243736	-0.4128574922	-0.123359
H	 0.8280494083	 1.4717632425	 1.2326654325	 0.309157
H	 0.0736191148	-2.3655030755	-0.0570458614	 0.124573
H	-1.6131345455	-2.5037927598	 0.4866951599	 0.098172
H	-2.8334084084	-3.2289282116	-2.6003216172	 0.106295
H	-3.2191649224	-2.8535504603	-0.9093705294	 0.090632
H	-2.7976294637	-0.8754995322	-3.2103714725	 0.130699
H	-4.3230709589	-1.299988682	-2.466928742	 0.106052
H	-3.8675639356	 0.7861187199	-1.4436021799	 0.099136
H	-2.1953600431	 1.2402719105	 0.097968663	 0.114366
68.1376	145.3493	220.8484	278.9615	310.4491	333.467	400.903	419.9299	440.098	511.4043	573.9278	663.6207	717.1458	756.019	827.943	851.962	919.7347	967.3613	995.287	1023.3521	1034.7623	1054.3663	1089.7421	1161.013	1235.9374	1245.3764	1284.3896	1319.2369	1331.4994	1379.3673	1389.133	1403.776	1425.6253	1444.2244	1457.9227	1477.3584	1498.0825	1672.9071	1704.7526	2959.4762	2976.4459	3002.7714	3044.3775	3067.6507	3108.8749	3137.9881	3193.7793	3820.858
ON=C1COCCC=C1	ON=C1COCCC=C1	
InChI=1S/C6H9NO2/c8-7-6-3-1-2-4-9-5-6/h1,3,8H,2,4-5H2	InChI=1S/C6H9NO2/c8-7-6-3-1-2-4-9-5-6/h1,3,8H,2,4-5H2
