16
gdb 31500	3.27571	1.13741	0.85345	1.5888	69.16	-0.2129	0.0016	0.2145	1301.0109	0.122932	-475.059309	-475.049978	-475.049034	-475.094335	32.383	
C	 0.0513257855	 1.4817503545	 0.3926629607	-0.503602
C	 0.0001898498	 0.0394077594	 0.0627835558	 0.218928
C	-0.9554709894	-0.8126263016	-0.3859913071	 0.260134
O	-2.2422829918	-0.5300003626	-0.6739189905	-0.433824
N	-0.4382728527	-2.0875332813	-0.5279638374	-0.416882
C	 0.8026546051	-1.9668886404	-0.1647188137	 0.366026
C	 1.803996596	-3.0767871466	-0.1179081452	-0.142159
O	 1.2630503525	-4.2672080021	-0.6332869399	-0.420102
O	 1.1523811394	-0.7274306567	 0.20559163	-0.20995
H	 0.7787056327	 2.0191383931	-0.2270072545	 0.138652
H	-0.9342196704	 1.9190928212	 0.2161045858	 0.151684
H	 0.3176883461	 1.6545077974	 1.4420146756	 0.13838
H	-2.6511125725	-1.3499693729	-0.9738649213	 0.306615
H	 2.6941634063	-2.7894538409	-0.6963573387	 0.126067
H	 2.1390385406	-3.2124784743	 0.9238216997	 0.119677
H	 0.3173441727	-4.1136750562	-0.7588510893	 0.300358
31.0926	132.9351	143.2724	175.8713	207.4373	230.4008	242.301	304.7428	363.2112	391.4049	514.928	653.5497	655.5434	686.9036	720.2849	818.4571	980.6586	1030.8398	1039.3761	1068.6842	1109.8516	1122.6016	1196.2113	1237.2142	1292.0142	1322.5829	1358.381	1401.4475	1432.9421	1473.7683	1476.9435	1495.8908	1511.8368	1609.7194	1743.0075	2970.9316	3010.2007	3025.4554	3073.9026	3128.5683	3758.3964	3817.2464
CC1=C(O)N=C(CO)O1	Cc1c(O)nc(CO)o1	
InChI=1S/C5H7NO3/c1-3-5(8)6-4(2-7)9-3/h7-8H,2H2,1H3	InChI=1S/C5H7NO3/c1-3-5(8)6-4(2-7)9-3/h7-8H,2H2,1H3
