14
gdb 13759	3.81259	2.08815	1.54287	2.7387	57.04	-0.2624	-0.0006	0.2618	795.2477	0.109069	-415.86883	-415.862249	-415.861305	-415.899466	25.226	
O	-1.1369510289	 0.2129371712	-0.8384570383	-0.257427
C	-0.4113178168	 1.1764748613	-0.2101621843	 0.440921
O	 0.7450250311	 1.0656949622	 0.0752601053	-0.342782
C	-1.3254188501	 2.3483276219	 0.0169576262	-0.174987
C	-1.9363708532	 2.8593363457	-1.2457285326	-0.249023
N	-2.6800974876	 1.9458371558	-0.376774605	-0.091872
C	-2.5787859895	 0.5403592617	-0.7670441635	 0.147932
N	-3.2802840274	 0.2464018591	-1.9571539741	-0.487343
H	-3.2803416996	-0.7490836185	-2.1439219107	 0.252896
H	-2.8871458897	 0.7260454438	-2.7593756122	 0.240855
H	-1.1779190097	 2.972967953	 0.8891057798	 0.130495
H	-2.3311678423	 3.869135954	-1.2714614789	 0.139789
H	-1.5233829106	 2.4995552061	-2.1846307847	 0.131926
H	-2.9783695157	-0.0718811774	 0.0464172732	 0.118622
132.3518	218.2297	260.6048	320.4634	376.4029	502.3166	550.1537	614.8059	712.7464	762.6338	772.0918	808.0036	839.1369	890.503	898.1671	981.0579	1015.9597	1079.288	1113.7047	1152.5642	1175.5905	1206.7608	1259.5757	1279.1587	1341.937	1361.1369	1449.4953	1500.4622	1663.321	1886.0695	3078.125	3116.9119	3198.6514	3213.1316	3529.2961	3615.0994
[O-]C(=O)C1CN1C=[NH2+]	O1C(=O)[C@H]2CN2[C@H]1N	
InChI=1S/C4H6N2O2/c5-2-6-1-3(6)4(7)8/h2-3,5H,1H2,(H,7,8)	InChI=1S/C4H6N2O2/c5-4-6-1-2(6)3(7)8-4/h2,4H,1,5H2/t2-,4-,6?/m1/s1
