18
gdb 62814	2.28375	1.5535	1.36616	5.1513	77.26	-0.2533	0.0123	0.2656	1047.932	0.148702	-398.065934	-398.057485	-398.056541	-398.098651	32.669	
C	-0.1126647261	 1.5855203007	-0.1458463061	-0.477063
C	-0.0079783611	 0.068241322	-0.0023704548	 0.264571
N	-1.2965491201	-0.5946718185	-0.1757563853	-0.556709
C	 1.196277953	-0.7351347399	-0.6180345885	-0.078132
C	 2.1474356316	-0.1233776719	 0.4404286923	-0.253577
C	 0.8505295318	-0.572830223	 1.1642946029	 0.226463
N	 0.9715888992	-1.8668705007	 0.375493386	-0.349407
C	 0.5414749728	-0.5323509036	 2.5739714416	 0.152264
N	 0.2581422186	-0.4627015807	 3.693017682	-0.350955
H	 0.8324517968	 2.1190465415	-0.0356844398	 0.127841
H	-0.5194330604	 1.8333006992	-1.1329693154	 0.120375
H	-0.8077799711	 1.9825457333	 0.6025963977	 0.130867
H	-1.9690893926	-0.2282808005	 0.4927426939	 0.24147
H	-1.6701382119	-0.3898024664	-1.0982983007	 0.23484
H	 1.4007596062	-0.9329940076	-1.6704708149	 0.091216
H	 3.0114751453	-0.7425161254	 0.67450485	 0.130094
H	 2.3815942298	 0.9370362076	 0.403405081	 0.110578
H	 0.0180901981	-2.2129734162	 0.2296344081	 0.235264
113.483	127.1411	191.1612	203.35	273.663	364.2637	377.4038	422.8611	511.2919	524.6896	562.311	586.2925	613.2456	713.2983	759.9241	823.3344	873.611	914.4259	949.7311	973.3528	974.8691	1035.0178	1057.9272	1090.5289	1141.7686	1176.5829	1198.9751	1213.4772	1242.6513	1281.1141	1292.07	1310.2556	1345.1668	1414.9622	1483.0308	1495.6994	1510.7253	1652.3253	2349.3446	3033.1515	3090.0132	3109.6172	3120.4113	3134.0566	3192.888	3400.8685	3486.324	3560.0646
CC1(N)C2CC1(N2)C#N	C[C@@]1(N)[C@H]2C[C@@]1(N2)C#N	
InChI=1S/C6H9N3/c1-5(8)4-2-6(5,3-7)9-4/h4,9H,2,8H2,1H3	InChI=1S/C6H9N3/c1-5(8)4-2-6(5,3-7)9-4/h4,9H,2,8H2,1H3/t4-,5-,6-/m1/s1
