15
gdb 21963	6.94065	1.07704	1.00547	5.699	61.73	-0.2499	0.0162	0.2661	1121.1384	0.120315	-395.982031	-395.974421	-395.973477	-396.01507	26.304	
O	-0.0739065581	 1.4360030978	 0.0107181159	-0.4107
C	 0.0414754761	 0.0277160853	 0.0023431594	-0.069228
C	-1.3876532309	-0.5185978719	 0.0118281483	-0.177547
N	-1.4222503748	-1.9707235871	 0.0045968846	-0.006717
C	-1.414403674	-2.8104884956	-1.0747486687	 0.017248
N	-1.3951114552	-4.0625065365	-0.6972418011	-0.222195
N	-1.3854994135	-4.0695976689	 0.6844866609	-0.222207
C	-1.3994595678	-2.8215255782	 1.0750480259	 0.017264
H	 0.8086942879	 1.8171757387	 0.0052054787	 0.298306
H	 0.5668222025	-0.3413900186	-0.8918950045	 0.105005
H	 0.5821104151	-0.3507433948	 0.883458196	 0.105035
H	-1.9112644345	-0.1543203634	 0.8995001714	 0.141767
H	-1.9265886674	-0.1449884637	-0.8627053289	 0.141775
H	-1.432803771	-2.4545844175	-2.0936445151	 0.141093
H	-1.4036174845	-2.4760677956	 2.0976913373	 0.141101
56.2794	87.5526	107.2738	234.6079	321.1409	334.5336	377.371	653.4191	696.5643	762.9347	802.1472	818.7596	848.5891	958.2374	1011.253	1023.4276	1086.9957	1093.2078	1096.3011	1208.2864	1212.9347	1234.4514	1248.5349	1301.2856	1365.8268	1389.187	1396.8971	1465.2707	1491.085	1499.389	1528.7766	1554.1895	2980.0458	3013.126	3071.0841	3121.115	3258.6368	3262.9366	3838.73
OCCN1C=NN=C1	OCCn1cnnc1	
InChI=1S/C4H7N3O/c8-2-1-7-3-5-6-4-7/h3-4,8H,1-2H2	InChI=1S/C4H7N3O/c8-2-1-7-3-5-6-4-7/h3-4,8H,1-2H2
