25
gdb 118148	3.45904	0.74521	0.64566	1.3804	89.84	-0.2546	0.0719	0.3265	1845.1077	0.228029	-389.488418	-389.477719	-389.476775	-389.524816	39.319	
C	 0.0332277327	 1.5855710163	 0.0111827646	-0.382338
C	 0.0274446894	 0.0553485498	 0.0445157276	-0.163026
C	-1.3803447788	-0.5441304274	-0.0340538729	-0.184389
C	-1.4035516098	-2.0741386462	 0.0686672382	 0.098856
O	-0.8147933313	-2.5310928101	 1.2885822837	-0.434375
C	-2.8009025372	-2.6536530533	-0.1092189159	 0.040771
C	-3.4777787885	-2.5902568978	-1.5096817624	-0.23174
C	-4.0142539648	-4.0283733796	-1.2744372547	-0.215313
C	-2.9595999538	-4.1991762758	-0.1476055903	-0.228412
H	 1.0522313278	 1.9818059369	 0.0638163604	 0.111148
H	-0.4245224448	 1.966749886	-0.9088443685	 0.110746
H	-0.5287829711	 2.0034408639	 0.8543093296	 0.110182
H	 0.6283365299	-0.3324902298	-0.7888472737	 0.092371
H	 0.511371675	-0.30440142	 0.9588481453	 0.108449
H	-2.0047023197	-0.1292871511	 0.7728606804	 0.077943
H	-1.8627820003	-0.2432130567	-0.9737346108	 0.097636
H	-0.7527065571	-2.4917985777	-0.7124670889	 0.076843
H	-1.3694514652	-2.2170738479	 2.0118501113	 0.273787
H	-3.4683061257	-2.2215404694	 0.6498275251	 0.054144
H	-4.2046657261	-1.7951065412	-1.6918881984	 0.095026
H	-2.7290052882	-2.5637977637	-2.3088759402	 0.098541
H	-5.0343735067	-4.0200020715	-0.8795499904	 0.100007
H	-3.9773013929	-4.7253393954	-2.114980164	 0.095751
H	-2.0445797246	-4.6778359053	-0.5101585072	 0.103291
H	-3.268744918	-4.7031538429	 0.770593222	 0.094102
60.5853	79.3007	103.8255	107.5869	143.5027	215.3013	244.596	277.5194	304.6524	341.0415	373.6934	455.9256	543.9246	658.0995	746.6198	779.4458	792.5146	852.5999	894.6284	900.9475	933.9285	948.1765	959.4012	988.0814	1031.8726	1050.2823	1076.1834	1095.3173	1106.1554	1133.4339	1169.5317	1203.8851	1222.4064	1243.4284	1254.9366	1260.126	1269.5088	1286.5911	1293.7983	1299.6151	1327.4033	1356.2109	1391.3661	1399.7724	1413.1171	1419.5782	1476.8583	1477.7907	1486.8867	1494.1668	1499.3385	1509.7511	1511.4763	2986.8676	2999.9896	3017.5653	3022.7023	3027.0089	3039.5006	3045.0136	3054.9277	3058.3082	3069.7439	3094.8947	3095.4845	3099.696	3104.4818	3117.9237	3792.4153
CCCC(O)C1CCC1	CCC[C@@H](O)C1CCC1	
InChI=1S/C8H16O/c1-2-4-8(9)7-5-3-6-7/h7-9H,2-6H2,1H3	InChI=1S/C8H16O/c1-2-4-8(9)7-5-3-6-7/h7-9H,2-6H2,1H3/t8-/m1/s1
