17
gdb 71670	2.94212	2.0202	1.81399	1.0328	68.71	-0.2462	0.0913	0.3376	839.678	0.137878	-421.796375	-421.790136	-421.789192	-421.826647	26.479	
C	 0.0269043941	 1.5102057061	-0.0842601913	-0.522272
C	 0.0232309218	 0.013571888	 0.0337825724	 0.409408
O	 0.8611296213	-0.6924825728	-0.9300177185	-0.324156
C	 0.7438804728	-1.8231542408	-0.0312809078	 0.029916
C	-0.7512578507	-2.1872981617	-0.003821231	-0.12981
C	-1.2935402221	-1.6193949327	 1.2870906361	 0.07062
O	-0.2343402011	-1.2285010273	 2.1343458278	-0.234243
C	 0.6980422172	-0.8308591926	 1.178116743	-0.004311
C	-1.3120879066	-0.7652456546	 0.042925023	-0.171037
H	 1.0476094965	 1.8998995221	-0.0453160373	 0.129661
H	-0.4252703429	 1.8265374037	-1.0300745655	 0.131566
H	-0.5484628088	 1.9530351373	 0.7344672316	 0.131936
H	 1.4874759517	-2.6013905864	-0.188415428	 0.081523
H	-1.1926036095	-3.0133919134	-0.5422746116	 0.098149
H	-2.1705292117	-1.9836790009	 1.8050393253	 0.11052
H	 1.6278551505	-0.4776794778	 1.6142209836	 0.097428
H	-2.2095462525	-0.4314003262	-0.4587171317	 0.095103
184.9144	239.4808	280.4482	517.3454	534.8055	585.4681	607.8789	689.2285	734.8434	785.6519	792.3921	815.5127	837.5495	857.7532	865.3309	902.0329	938.2956	970.6643	1000.0546	1006.8074	1009.8342	1062.0986	1072.473	1121.3685	1126.1261	1131.139	1180.7752	1219.7987	1230.1909	1252.0268	1281.5218	1291.6592	1374.8561	1386.2361	1416.7485	1480.9842	1493.5391	3039.8931	3108.4661	3120.5561	3147.8436	3176.5644	3209.0757	3214.4879	3226.8776
CC12OC3C4C(OC13)C24	C[C@@]12O[C@@H]3[C@H]4[C@@H](O[C@H]13)[C@@H]24	
InChI=1S/C7H8O2/c1-7-3-2-4(3)8-6(7)5(2)9-7/h2-6H,1H3	InChI=1S/C7H8O2/c1-7-3-2-4(3)8-6(7)5(2)9-7/h2-6H,1H3/t2-,3+,4-,5-,6+,7+/m1/s1
