23
gdb 58752	2.41616	1.31783	1.1445	1.3964	85.35	-0.2468	0.0727	0.3196	1232.8428	0.205033	-388.249009	-388.23952	-388.238576	-388.283054	36.945	
C	-0.1138202842	 1.5043575072	 0.0547697198	-0.393178
C	 0.048280312	-0.022688398	 0.0405875532	-0.103657
C	 0.7291287094	-0.4989268556	-1.2510574296	-0.394993
C	 0.7863670068	-0.5224749194	 1.2643807232	 0.331628
C	 2.273866467	-0.2819067444	 1.681368495	-0.262396
C	 1.6880266543	-1.1744175689	 2.810175497	-0.103391
C	 0.4308399997	-0.2590144489	 2.76809016	-0.310472
C	 1.045457415	-2.0167957931	 1.6694096424	 0.150944
O	-0.0144182231	-2.9029029303	 1.9001727003	-0.45503
H	 0.8617841373	 2.0029400629	 0.0227447609	 0.114116
H	-0.688297963	 1.8436003107	-0.8133994996	 0.11013
H	-0.6342014543	 1.8455732213	 0.955197438	 0.112656
H	-0.9557312626	-0.4711381061	 0.0753698833	 0.073725
H	 1.7366057755	-0.0770645403	-1.3418757494	 0.113804
H	 0.8167824035	-1.5892233465	-1.2787085294	 0.121158
H	 0.1575375074	-0.1858799691	-2.1306610733	 0.109855
H	 3.0463137776	-0.7289466609	 1.048736146	 0.091026
H	 2.5339684126	 0.738778816	 1.9704399352	 0.094588
H	 2.2096276182	-1.539197789	 3.6956945044	 0.071812
H	 0.5656334011	 0.7646054768	 3.1276336178	 0.095298
H	-0.5154321911	-0.6586769011	 3.1497606651	 0.071987
H	 1.7508317708	-2.5598639213	 1.0341539467	 0.079153
H	-0.6503226102	-2.4896632019	 2.492811033	 0.281237
53.6213	139.8953	185.6781	224.2054	230.5489	255.5547	284.9376	318.4801	368.1243	438.145	494.1726	539.4072	600.0547	637.9273	765.0519	822.0874	866.6356	878.9648	914.805	928.4872	941.2824	952.4234	970.6615	1016.8249	1024.8982	1063.0261	1093.6272	1110.173	1137.3781	1141.4223	1158.4616	1181.9477	1186.2301	1214.4796	1233.6148	1249.6551	1278.0098	1312.5392	1348.1338	1371.0192	1395.9429	1417.159	1449.3832	1488.1909	1491.7404	1503.0547	1507.2486	1511.8257	1547.2207	2994.994	3027.1549	3031.623	3034.0607	3051.6091	3074.9878	3092.743	3094.8686	3098.7098	3102.3596	3107.1653	3109.2039	3119.1313	3816.1838
CC(C)C12CC(C1)C2O	CC(C)[C@@]12C[C@@H](C1)[C@H]2O	
InChI=1S/C8H14O/c1-5(2)8-3-6(4-8)7(8)9/h5-7,9H,3-4H2,1-2H3	InChI=1S/C8H14O/c1-5(2)8-3-6(4-8)7(8)9/h5-7,9H,3-4H2,1-2H3/t6-,7-,8+/m1/s1
