13
gdb 27045	2.46217	1.48319	0.92678	8.0661	67.72	-0.2242	-0.0462	0.178	1146.5189	0.089511	-489.945878	-489.937979	-489.937034	-489.978438	28.871	
N	 0.0968825771	 1.3990848688	 0.1597142924	-0.597566
C	-0.008032893	 0.0370454837	 0.0382822824	 0.273775
C	-1.0898616379	-0.8021598129	 0.0131064555	 0.217066
O	-0.6245819315	-2.1197474066	-0.0150334817	-0.231151
C	 0.7354557646	-2.1127943453	-0.0196207632	 0.486782
O	 1.4498179977	-3.0718601902	-0.0328191478	-0.38224
N	 1.1080387126	-0.7632586685	-0.0052264493	-0.403441
C	-2.4912156473	-0.50554719	-0.0091276431	 0.060514
O	-3.4013217909	-1.3076509894	-0.0331851122	-0.295674
H	 0.8351824498	 1.8294520944	-0.3808225683	 0.269869
H	-0.7757831833	 1.8993187325	 0.074661026	 0.277436
H	 2.0654392719	-0.4756725241	 0.1106980725	 0.283069
H	-2.6899313798	 0.5944425576	-0.0065470833	 0.041561
124.5027	161.9687	176.72	229.8751	294.8629	313.9003	406.1118	460.0078	475.3648	600.6819	602.2061	654.1683	689.0614	698.7032	768.3288	869.9091	991.9492	996.6189	1036.8544	1136.7038	1250.4686	1316.0326	1343.5912	1436.3876	1521.8969	1636.2397	1702.5372	1776.636	1910.1234	2815.067	3558.9351	3662.4498	3671.7272
NC1=C(OC(=O)N1)C=O	Nc1c(oc(=O)[nH]1)C=O	
InChI=1S/C4H4N2O3/c5-3-2(1-7)9-4(8)6-3/h1H,5H2,(H,6,8)	InChI=1S/C4H4N2O3/c5-3-2(1-7)9-4(8)6-3/h1H,5H2,(H,6,8)
