21
gdb 105870	2.02922	1.40854	1.23271	1.4496	78.57	-0.2343	0.0637	0.298	1184.5015	0.180925	-424.182426	-424.172767	-424.171822	-424.21671	36.088	
C	-0.0219275162	 1.6085326385	-0.2263808751	-0.424238
C	 0.1455913635	 0.1094133998	-0.0914951666	-0.08462
C	 1.4187214646	-0.6118960723	-0.4016248305	 0.017929
O	 2.5584283169	 0.1543472377	-0.0040717999	-0.309237
C	 2.1952400082	-0.0142717121	 1.4023179499	 0.120625
C	 2.2778549684	 1.2346169767	 2.2551703698	-0.422424
C	 0.8679497065	-0.6723445575	 1.0120644453	 0.194644
C	 0.2184673301	-1.7704932487	 1.7965696768	-0.177322
O	-0.411572595	-1.2898705565	 2.9811210019	-0.41331
H	 0.9479506982	 2.1085270827	-0.213107485	 0.142982
H	-0.5037609858	 1.8442986836	-1.1813826134	 0.115859
H	-0.6439280561	 2.0301400882	 0.5705338848	 0.110374
H	-0.7204433704	-0.4657120043	-0.4211949633	 0.086137
H	 1.5622778449	-1.3701362524	-1.1641120755	 0.102403
H	 2.853808456	-0.7858167926	 1.8278388546	 0.081744
H	 3.3062105193	 1.6098749041	 2.2791183504	 0.125167
H	 1.6272990074	 2.032596088	 1.8949899293	 0.122994
H	 1.9822395977	 0.9832083548	 3.2792470725	 0.131292
H	-0.4913847614	-2.321986137	 1.159248656	 0.086922
H	 0.9691155191	-2.4899466682	 2.1437755955	 0.109878
H	-1.0523988859	-0.6230413425	 2.7124510224	 0.2822
74.5898	115.8792	167.2339	193.1995	206.5981	243.1476	292.5122	295.7432	340.402	377.1928	405.2009	550.5371	591.7895	705.017	707.694	799.4418	849.1387	884.7859	932.2855	975.6967	995.1448	1010.1908	1047.1971	1073.41	1091.8278	1098.6315	1112.2928	1130.745	1155.5956	1203.1817	1250.4032	1262.0651	1312.1863	1340.9612	1372.3963	1394.6686	1406.035	1408.7157	1422.2217	1468.6024	1483.8414	1493.445	1499.8511	1502.9056	1508.5732	2974.2177	2992.2149	3034.0022	3043.8884	3058.5632	3088.8323	3104.9108	3107.405	3133.8772	3146.7808	3168.5496	3810.4793
CC1C2OC(C)C12CO	C[C@H]1[C@H]2O[C@@H](C)[C@@]12CO	
InChI=1S/C7H12O2/c1-4-6-7(4,3-8)5(2)9-6/h4-6,8H,3H2,1-2H3	InChI=1S/C7H12O2/c1-4-6-7(4,3-8)5(2)9-6/h4-6,8H,3H2,1-2H3/t4-,5-,6+,7+/m0/s1
