18
gdb 83037	2.14371	2.03296	1.33217	4.3081	77.55	-0.2396	-0.0382	0.2014	1006.7047	0.148892	-401.965244	-401.957348	-401.956404	-401.997729	30.266	
C	-0.3026731476	 1.388645594	 0.266876221	-0.414717
C	-0.0441588029	-0.065194798	-0.0409217769	-0.010649
C	 0.7159687055	-0.5208481763	-1.2594839131	-0.044013
C	 1.3569035681	 0.4166471686	-2.2773837874	-0.30658
C	 2.7915950145	 0.7290791375	-1.9287869271	-0.054481
C	 3.2868745031	 0.5668014595	-0.6988270571	-0.134602
C	 2.4096188902	 0.1635076021	 0.4294537	 0.354302
O	 2.6265844508	 0.4883424033	 1.5780930645	-0.350091
N	 1.3037527179	-0.6180628451	 0.0723594536	-0.11738
H	 0.4320889896	 2.0485418126	-0.2024810288	 0.127689
H	-1.2992127174	 1.6765882964	-0.083093754	 0.121344
H	-0.2532697165	 1.562275703	 1.3459423618	 0.152733
H	-0.8154237927	-0.741676265	 0.3245921256	 0.100337
H	 0.4365510091	-1.492085647	-1.6638268488	 0.10116
H	 1.3172011231	-0.05130379	-3.2668534007	 0.122665
H	 0.7979556999	 1.3572014791	-2.3806951194	 0.128128
H	 3.4144381609	 1.137823737	-2.7213089369	 0.109061
H	 4.3015318743	 0.8465796682	-0.4387405862	 0.115095
78.9366	131.1253	190.1805	242.9486	308.4622	384.2486	447.486	500.1094	526.9723	561.3419	668.4217	696.5115	770.7732	798.6481	852.1793	887.6092	940.4235	954.2301	984.9551	1014.0964	1040.8096	1083.984	1109.035	1156.5281	1170.679	1186.4016	1220.926	1228.4352	1351.6419	1362.3366	1387.4466	1400.4128	1419.7528	1435.3495	1474.4131	1489.3165	1498.0703	1686.7096	1779.8905	3012.5798	3041.8541	3060.6924	3106.0694	3111.8417	3116.0633	3127.1808	3154.4629	3203.6219
CC1C2CC=CC(=O)N12	C[C@H]1[C@H]2CC=CC(=O)N12	
InChI=1S/C7H9NO/c1-5-6-3-2-4-7(9)8(5)6/h2,4-6H,3H2,1H3	InChI=1S/C7H9NO/c1-5-6-3-2-4-7(9)8(5)6/h2,4-6H,3H2,1H3/t5-,6+,8?/m0/s1
