16
gdb 42909	2.83524	1.58988	1.27935	3.6768	67.67	-0.2514	-0.0156	0.2359	997.7494	0.124348	-437.834506	-437.827009	-437.826065	-437.866821	28.161	
O	-0.0975813697	 0.0175150923	-0.2287595948	-0.305381
C	-0.0793368719	 1.198770254	-0.0783765778	 0.404497
C	-1.1527748613	 2.3081919872	 0.0262232447	-0.185696
C	-2.2042589698	 2.2288455117	 1.1000965696	 0.058926
C	-2.7183213189	 0.9353720153	 1.5718711562	-0.183519
O	-1.79583354	 1.695907846	 2.3628238578	-0.233932
C	 0.0494857346	 3.251752642	 0.1713146969	-0.049658
C	 0.947229479	 2.8293609598	 1.2538776841	-0.250309
N	 1.0482749664	 2.1087589452	-0.0602247976	-0.176799
H	-1.6334289016	 2.4279388204	-0.9520249054	 0.122591
H	-2.8542480185	 3.1015540766	 1.1794194165	 0.103022
H	-3.7286972681	 0.8763119279	 1.9717019323	 0.120786
H	-2.314529578	 0.020383638	 1.1452637909	 0.150039
H	 0.1759496793	 4.1791657882	-0.373443063	 0.116192
H	 1.8305498334	 3.427761933	 1.4490298367	 0.14085
H	 0.5483716252	 2.2913698524	 2.1070566828	 0.168393
91.0059	143.7617	150.9907	218.1523	341.7787	390.6596	496.2206	569.9504	662.3369	692.3272	752.3184	792.778	832.7599	861.2963	903.956	933.8617	1006.9952	1012.1898	1025.4104	1060.6505	1098.7351	1112.651	1136.866	1149.0138	1170.9721	1173.8891	1196.0579	1242.6085	1285.7136	1342.4993	1359.8705	1422.2613	1502.89	1522.0428	1910.0515	3054.3044	3096.401	3102.8167	3137.691	3196.0619	3197.0954	3232.4168
O=C1C(C2CO2)C2CN12	O=C1[C@@H]([C@H]2CO2)[C@H]2CN12	
InChI=1S/C6H7NO2/c8-6-5(4-2-9-4)3-1-7(3)6/h3-5H,1-2H2	InChI=1S/C6H7NO2/c8-6-5(4-2-9-4)3-1-7(3)6/h3-5H,1-2H2/t3-,4-,5-,7?/m1/s1
