21
gdb 40337	3.35715	1.30589	1.23322	0.4084	86.33	-0.2205	0.0924	0.3129	1132.7296	0.184417	-349.89079	-349.883205	-349.882261	-349.923107	30.812	
C	-0.072135578	 1.4824262035	-0.1566022187	-0.270648
C	 1.2994040417	 0.863147794	-0.0465509506	-0.270648
C	 0.0685639049	-0.0117574264	 0.0258435242	-0.160002
C	-0.3280243154	-0.6658661859	 1.2876348677	 0.420485
C	-0.1576294811	-2.0725134346	 1.8205678497	-0.127441
C	 0.4649638108	-1.5689851902	 3.1192402644	-0.224964
C	-0.2515441998	-0.2244300319	 2.8181282249	-0.122563
C	-1.7621561906	-0.5634747079	 2.9405284416	-0.224964
C	-1.5593747586	-1.4396314502	 1.7080761543	-0.127441
H	-0.4325123308	 2.0622074485	 0.6865109148	 0.111778
H	-0.3961005522	 1.8542312284	-1.1224531316	 0.109361
H	 1.916259725	 0.8101534721	-0.936910948	 0.109361
H	 1.8553367011	 1.0291961345	 0.8700865501	 0.111778
H	-0.1325012477	-0.6139935499	-0.8572376992	 0.08105
H	 0.0925688461	-2.9627564316	 1.2566513396	 0.07922
H	 0.2143829943	-2.0698621404	 4.0624210901	 0.083704
H	 1.5512268663	-1.4797875351	 3.0288011207	 0.096604
H	 0.1417861651	 0.7151396211	 3.2028475363	 0.065799
H	-2.0974152623	-1.0261300773	 3.876910196	 0.083706
H	-2.3924153394	 0.3007091262	 2.7123574516	 0.096603
H	-2.3120532396	-1.8770759271	 1.0636763722	 0.07922
69.5173	135.315	150.7327	350.9138	376.5096	413.8168	500.3868	567.3819	726.7242	727.4139	777.7235	813.6947	815.0784	850.0907	883.7417	919.2503	925.9371	943.2849	947.0943	970.4963	989.1743	1013.7596	1019.0384	1037.067	1058.0154	1074.3545	1078.8696	1117.4351	1125.9864	1128.2946	1156.1997	1182.7852	1197.9607	1210.4144	1220.7412	1234.8938	1251.6489	1302.8264	1316.6056	1353.4462	1467.5731	1476.3395	1491.3154	1505.2427	1514.3707	3020.796	3028.303	3089.8258	3091.916	3125.5812	3127.8742	3129.7583	3135.2174	3184.2768	3194.5499	3208.3166	3223.6392
C1CC1C12C3CC1CC23	C1CC1[C@@]12[C@H]3C[C@@H]1C[C@@H]23	
InChI=1S/C9H12/c1-2-5(1)9-6-3-7(9)8(9)4-6/h5-8H,1-4H2	InChI=1S/C9H12/c1-2-5(1)9-6-3-7(9)8(9)4-6/h5-8H,1-4H2/t6-,7+,8-,9+
