19
gdb 104904	2.06614	1.52589	1.01891	2.3492	78.57	-0.2585	0.0215	0.2801	1222.9146	0.154613	-422.974256	-422.963851	-422.962907	-423.009497	38.068	
C	 0.0200329718	 1.5037301435	-0.0509433055	-0.461584
C	-0.0196210133	-0.0016651596	 0.1251297993	 0.359155
C	-1.1033423212	-0.6824548402	-0.6848419054	-0.467204
O	 1.2530615878	-0.6665926303	 0.1054099116	-0.324331
C	 0.510163663	-0.6728263097	 1.351240884	 0.034899
C	 1.2261510321	 0.0706122211	 2.4735295444	-0.134259
O	 2.4431916976	-0.5712442137	 2.7956890421	-0.411572
C	-0.0137044356	-1.9589031736	 1.7561525379	 0.341149
C	-0.4558608318	-3.0054129989	 2.1491995393	-0.425415
H	 0.902312451	 1.9531921249	 0.403939233	 0.133565
H	 0.0382569722	 1.7414420894	-1.1199487851	 0.128728
H	-0.875060045	 1.9675736698	 0.376293576	 0.128805
H	-0.9422735567	-0.4875501938	-1.7503408839	 0.125447
H	-1.1051802284	-1.759994304	-0.5208719268	 0.144475
H	-2.0877440394	-0.2851063968	-0.4157190794	 0.123463
H	 1.3879874734	 1.117709778	 2.1918869644	 0.090843
H	 0.6120834776	 0.0526601666	 3.3786092565	 0.12009
H	 2.9368212869	-0.6524545587	 1.9708904801	 0.295038
H	-0.836341482	-3.9373521539	 2.4881886873	 0.198706
55.2224	116.9848	135.9752	143.5908	174.0553	208.8998	263.8241	334.2819	372.9136	387.6263	398.5286	424.8025	494.6443	560.9306	585.9593	626.3843	659.8168	690.6787	754.757	888.2198	919.2743	947.0105	974.0964	999.8819	1067.2714	1120.4702	1155.7051	1164.9736	1243.3175	1257.4167	1366.8706	1405.1833	1414.1956	1420.5177	1427.3431	1473.8937	1481.1503	1495.9832	1500.4826	1510.8887	2234.3968	3030.7553	3039.5802	3045.4542	3093.8301	3099.0163	3104.7654	3149.6991	3152.8751	3500.6813	3792.0202
CC1(C)OC1(CO)C#C	CC1(C)O[C@]1(CO)C#C	
InChI=1S/C7H10O2/c1-4-7(5-8)6(2,3)9-7/h1,8H,5H2,2-3H3	InChI=1S/C7H10O2/c1-4-7(5-8)6(2,3)9-7/h1,8H,5H2,2-3H3/t7-/m0/s1
