17
gdb 111172	4.26883	1.03925	0.96387	2.8937	69.3	-0.2457	0.0702	0.3159	1233.2182	0.134328	-458.843512	-458.83545	-458.834506	-458.876325	30.5	
O	-0.0366155879	 1.4017320754	-0.3301281892	-0.426895
C	 0.0413619423	 0.040236497	 0.0776295567	-0.127778
C	-1.3710289739	-0.4995365862	 0.0786685905	 0.039679
C	-2.0126682126	-0.8516318986	-1.2955927757	-0.08073
O	-1.0925614711	-2.0163468952	-1.3970353566	-0.31388
C	-1.5744111641	-2.0399875854	 0.00832124	-0.108895
C	-2.9847905699	-1.768809813	-0.5394591188	 0.571436
C	-4.3522124817	-1.7334344686	-0.0448176068	-0.308689
O	-3.9009106527	-2.6764905788	-1.0535788047	-0.281275
H	 0.859405137	 1.742616184	-0.4046079978	 0.289229
H	 0.6578531741	-0.5563709533	-0.6050360868	 0.11315
H	 0.4649533613	-0.0458267995	 1.0914659366	 0.084703
H	-2.0146183374	 0.0434848847	 0.7775944319	 0.083891
H	-2.1525448105	-0.2331751738	-2.1800194766	 0.110581
H	-1.2048052228	-2.8313879746	 0.6597547401	 0.103821
H	-4.5987881071	-2.1752964874	 0.9189970594	 0.12469
H	-5.045618933	-0.9746142266	-0.4028399924	 0.126961
87.5777	130.0594	180.5132	240.5443	286.5995	332.1928	345.1821	441.7135	510.043	617.6419	721.9752	755.66	766.7139	836.577	870.9819	890.4962	911.7211	1007.9726	1047.0187	1068.4205	1087.5233	1100.2021	1108.2905	1114.9187	1139.2193	1148.545	1162.9538	1182.3381	1210.6892	1255.5012	1260.7408	1269.7247	1390.2512	1458.2499	1465.1031	1523.3225	1561.2732	2971.0993	3051.0132	3073.4809	3090.5035	3129.5867	3148.6099	3178.6839	3831.7768
OCC1C2OC1C21CO1	OC[C@H]1[C@H]2O[C@@H]1[C@]12CO1	
InChI=1S/C6H8O3/c7-1-3-4-6(2-8-6)5(3)9-4/h3-5,7H,1-2H2	InChI=1S/C6H8O3/c7-1-3-4-6(2-8-6)5(3)9-4/h3-5,7H,1-2H2/t3-,4+,5-,6+
