23
gdb 86554	4.97889	0.82577	0.75255	1.5073	86.74	-0.2372	0.0872	0.3243	1600.9156	0.205989	-388.271671	-388.262405	-388.261461	-388.306705	34.696	
C	-0.6522750129	 1.2881107892	 0.1743258881	-0.396063
C	 0.1324969008	 0.0013704279	 0.0058121069	 0.174095
C	 0.9024155374	-0.2072184721	-1.3178241466	-0.324565
C	 2.1657642869	-0.2104071021	-0.4270692192	 0.135053
O	 1.3677379418	 0.0058582738	 0.7649104558	-0.316519
C	 2.9746971405	-1.484645705	-0.3589631844	 0.048661
C	 3.9660315787	-1.7919820992	-1.5198415021	-0.238856
C	 4.9811840096	-2.3091515903	-0.4643906178	-0.208974
C	 4.176468572	-1.5520104334	 0.6263875181	-0.227148
H	-0.0555936419	 2.1517174648	-0.136530221	 0.117044
H	-1.5677615869	 1.2615964611	-0.4275522926	 0.112324
H	-0.9357664893	 1.4272593391	 1.2223866011	 0.125616
H	-0.4897520652	-0.8564922435	 0.2965052875	 0.072366
H	 0.7016138484	-1.1444708726	-1.8408212752	 0.103849
H	 0.828969463	 0.6216428727	-2.0247144233	 0.103369
H	 2.8395380107	 0.6429593584	-0.5958386085	 0.063331
H	 2.299306433	-2.3320407302	-0.193463726	 0.065521
H	 3.6388995791	-2.4822391756	-2.3011181203	 0.095023
H	 4.3159204178	-0.8701452329	-1.9974195567	 0.097552
H	 4.9148471771	-3.3936525876	-0.3381259886	 0.101517
H	 6.0318916362	-2.0419507133	-0.5995408343	 0.095286
H	 4.588019027	-0.5551503367	 0.8160613486	 0.100049
H	 4.0163545563	-2.0473293327	 1.5860001006	 0.101468
43.2163	64.9756	123.8562	139.7128	237.7169	279.7302	313.429	340.6713	440.0093	479.9029	635.9388	746.2321	761.4289	782.0761	864.1886	893.9725	897.6745	909.0632	933.8606	949.8299	958.0314	986.6693	1012.9852	1021.036	1066.0013	1087.0174	1105.204	1134.8187	1190.9092	1202.7163	1212.9827	1244.43	1252.6513	1256.6253	1260.4105	1274.7028	1279.0602	1288.3064	1326.9333	1333.2582	1382.2096	1405.3907	1420.0912	1478.0331	1482.485	1485.6669	1489.5656	1494.7972	1509.5022	2984.6492	3000.3426	3030.2525	3039.3066	3044.8235	3053.2741	3057.4094	3070.2548	3096.3813	3102.1808	3106.2562	3109.8332	3119.1383	3124.7335
CC1CC(O1)C1CCC1	C[C@H]1C[C@@H](O1)C1CCC1	
InChI=1S/C8H14O/c1-6-5-8(9-6)7-3-2-4-7/h6-8H,2-5H2,1H3	InChI=1S/C8H14O/c1-6-5-8(9-6)7-3-2-4-7/h6-8H,2-5H2,1H3/t6-,8+/m0/s1
