20
gdb 59099	2.10572	1.5383	1.12873	2.9175	75.49	-0.2504	0.03	0.2804	1174.038	0.169977	-440.315433	-440.305816	-440.304871	-440.349789	35.894	
C	 0.0913133292	 1.6381057493	 0.097568793	-0.415009
C	-0.0546569749	 0.1143679197	 0.0765021707	 0.110036
O	-1.428073615	-0.2677934471	 0.1313119535	-0.432983
C	 0.6475540765	-0.4838090686	-1.1501861947	-0.183459
C	 0.7723539848	-2.0389462506	-1.3426286875	 0.037464
C	 0.1487444052	-2.9567524368	-0.3009082787	-0.410695
N	-0.0115646604	-1.8603676118	-2.5803307319	-0.331506
C	-0.2415188881	-0.5237106608	-2.4165327022	 0.432702
O	-0.9334630436	 0.2757780119	-2.9995575616	-0.388225
H	 1.1402467454	 1.936058467	 0.1960383084	 0.113191
H	-0.2978361958	 2.067048051	-0.8323586218	 0.142405
H	-0.4700799717	 2.0532232324	 0.938659254	 0.123469
H	 0.3861108311	-0.3076293047	 0.9875728415	 0.09198
H	-1.8659390282	 0.1399814077	-0.6271849231	 0.293793
H	 1.5988626296	 0.0254971666	-1.32737289	 0.098388
H	 1.8007148448	-2.3536780705	-1.5561996008	 0.083907
H	-0.8579632461	-2.6257748314	-0.0406657089	 0.154633
H	 0.1064406126	-3.9856233045	-0.6748053373	 0.110897
H	 0.7594767506	-2.9653602172	 0.6082787027	 0.120824
H	-0.434776936	-2.5304937017	-3.2067855052	 0.248188
72.2905	95.204	141.7854	183.4713	242.4509	265.9319	282.6201	359.3697	397.7241	424.6197	456.516	471.331	541.0248	561.9945	711.5031	751.7798	801.0429	866.1706	896.9678	911.4501	1012.9852	1041.1669	1047.8549	1079.5186	1088.4591	1127.2076	1164.2142	1194.1352	1206.8503	1278.7598	1297.7053	1332.2642	1356.8963	1382.3249	1393.9635	1404.0564	1415.3519	1433.4963	1492.3035	1494.2513	1502.2168	1504.1389	1865.4382	3027.8311	3034.3364	3037.3198	3040.5139	3078.9119	3095.6786	3107.3184	3122.1479	3147.2301	3598.3213	3770.7551
CC(O)C1C(C)NC1=O	C[C@@H](O)[C@H]1[C@@H](C)NC1=O	
InChI=1S/C6H11NO2/c1-3-5(4(2)8)6(9)7-3/h3-5,8H,1-2H3,(H,7,9)	InChI=1S/C6H11NO2/c1-3-5(4(2)8)6(9)7-3/h3-5,8H,1-2H3,(H,7,9)/t3-,4-,5-/m1/s1
