16
gdb 8195	2.77512	2.30247	1.6499	2.0083	60.47	-0.2196	0.0523	0.2719	823.2167	0.128249	-420.818264	-420.810382	-420.809438	-420.849703	30.347	
C	-0.0586529502	 1.5327690709	-0.002656292	-0.466917
C	 0.0727780852	 0.0341861752	 0.0968670305	 0.279688
O	-1.0763834826	-0.6982338319	-0.2767088296	-0.477896
C	 1.361914673	-0.7259669382	-0.1797839547	-0.075127
O	 2.4854118002	 0.0218482283	 0.2986201124	-0.284487
C	 2.0100395108	-0.0824475472	 1.6726997436	-0.145032
C	 0.7323003658	-0.7518274858	 1.2104152506	 0.320219
O	 0.0794477813	-1.6915055618	 1.9663305526	-0.459135
H	 0.8969664466	 2.0144019589	 0.215823223	 0.143513
H	-0.3478123915	 1.8212356702	-1.0207702035	 0.108847
H	-0.820278243	 1.9119503118	 0.6858219778	 0.124802
H	-1.172635037	-0.6578857145	-1.2343632119	 0.292655
H	 1.5115461644	-1.4418672058	-0.9811850725	 0.105809
H	 2.6504531088	-0.7563642702	 2.2521556383	 0.123465
H	 1.9389374931	 0.8908544489	 2.170509539	 0.108651
H	-0.770022335	-1.8468405389	 1.5311254063	 0.300945
184.9799	202.1502	235.7765	264.6209	280.7669	295.2216	388.4338	421.5648	437.5759	462.3587	557.8243	674.3443	709.8164	756.1195	897.9837	951.0705	961.1391	995.0329	1028.2126	1053.3069	1072.4899	1106.55	1148.7497	1191.213	1223.3527	1254.66	1305.4426	1323.0306	1405.3928	1428.3488	1467.0421	1488.9581	1497.5674	1519.3685	3027.9156	3033.4132	3085.5796	3091.0249	3132.6507	3168.5913	3763.3106	3801.7691
CC1(O)C2OCC12O	C[C@@]1(O)[C@H]2OC[C@@]12O	
InChI=1S/C5H8O3/c1-4(6)3-5(4,7)2-8-3/h3,6-7H,2H2,1H3	InChI=1S/C5H8O3/c1-4(6)3-5(4,7)2-8-3/h3,6-7H,2H2,1H3/t3-,4-,5+/m1/s1
