21
gdb 109096	3.16874	1.11425	0.89954	1.0322	91.05	-0.2099	-0.0225	0.1874	1366.3763	0.183404	-387.096789	-387.087902	-387.086958	-387.130615	33.655	
C	-0.2750398885	 1.5027712617	 0.0227675297	-0.372987
C	 0.0286891905	-0.0072984394	 0.0319850505	-0.283039
C	 0.8185049506	-0.4662872172	-1.1667607802	 0.296272
C	 2.0683220056	-0.9457817754	-1.0548995426	-0.168563
C	 2.954382709	-1.3753815766	-2.1305953374	-0.062857
C	 2.6697259346	-1.6555217759	-3.4114632027	-0.093713
C	 1.3316764831	-1.711927333	-4.0887081863	-0.133965
O	 0.2013560201	-1.5759106739	-3.2633460858	-0.235234
C	 0.1419367542	-0.3659653873	-2.5174910358	-0.187516
H	 0.6515384219	 2.0853219409	 0.0275574461	 0.12089
H	-0.8479327588	 1.7947706101	-0.8636638606	 0.119185
H	-0.8613699381	 1.7860763378	 0.9024182135	 0.115144
H	 0.5734122893	-0.2609874978	 0.9475930952	 0.101417
H	-0.9231053215	-0.556756383	 0.0693645627	 0.106379
H	 2.5036049687	-0.9905585997	-0.0581795596	 0.078657
H	 4.0002031195	-1.4567365466	-1.8400637191	 0.08491
H	 3.4964972332	-1.913268593	-4.0720500484	 0.089857
H	 1.3129547222	-0.974491253	-4.9140721615	 0.094147
H	 1.2172799104	-2.6960244587	-4.5636973049	 0.120932
H	-0.9231744521	-0.1455284954	-2.3873445752	 0.105569
H	 0.576969396	 0.4603818855	-3.1024570474	 0.104514
75.3706	85.5957	158.363	216.0929	244.7945	302.1308	361.6003	375.8657	403.6831	470.6659	552.6072	641.224	722.4565	778.5108	796.7718	846.5738	903.7814	919.0561	949.1854	956.453	999.3371	1006.468	1041.352	1044.4382	1072.9767	1112.4257	1161.6611	1208.7885	1251.0711	1272.585	1283.899	1328.6245	1345.6279	1380.1569	1400.1216	1407.7423	1418.5386	1442.9481	1473.6616	1479.1089	1487.3358	1499.109	1506.812	1686.1943	1715.0245	2918.3483	2974.5599	3003.9715	3028.8345	3034.4749	3062.9622	3065.4129	3104.3144	3109.2922	3125.2311	3137.2641	3153.8006
CCC1=CC=CCOC1	CCC1=CC=CCOC1	
InChI=1S/C8H12O/c1-2-8-5-3-4-6-9-7-8/h3-5H,2,6-7H2,1H3	InChI=1S/C8H12O/c1-2-8-5-3-4-6-9-7-8/h3-5H,2,6-7H2,1H3
