18
gdb 112872	2.27284	1.40378	0.93018	3.2131	69.91	-0.2696	0.0168	0.2864	1252.8493	0.147154	-476.240476	-476.231539	-476.230595	-476.274631	32.652	
C	 0.2484223505	 1.5280083348	-0.0482980521	-0.405483
C	 0.0907061119	 0.028837594	-0.1192675546	 0.217173
O	 0.9290271947	-0.5202500898	-1.1055529556	-0.282805
C	 1.2728608811	-1.8374009594	-0.6700533894	-0.003661
C	 2.673528347	-2.1736518016	-1.1636037981	-0.070174
O	 2.7315448645	-2.1960839505	-2.5741307001	-0.419519
C	 1.1450760144	-1.7429675413	 0.8364543808	 0.383472
N	 1.5845169233	-2.5840459694	 1.6650722808	-0.538601
O	 0.4923018088	-0.5811063737	 1.1208933844	-0.24607
H	 1.2901682233	 1.7810075906	 0.162219374	 0.137188
H	-0.0435472672	 1.9723730382	-1.0032755345	 0.136881
H	-0.3898740809	 1.9356254045	 0.739209853	 0.137261
H	-0.9574425678	-0.2620185117	-0.3004718061	 0.086271
H	 0.5562571031	-2.570880183	-1.0703234606	 0.110474
H	 3.3829282278	-1.4517334414	-0.7322991011	 0.096594
H	 2.9433953797	-3.1697417463	-0.8045460111	 0.13905
H	 2.4587232907	-1.3237220726	-2.8796471204	 0.292812
H	 1.3728105251	-2.3046755714	 2.6238672305	 0.229137
72.2454	109.4868	117.2825	172.4885	226.7951	293.3848	332.1679	407.7492	420.0335	487.0193	535.0902	591.0464	680.7476	709.7129	836.0561	883.7791	894.0871	938.4459	955.9382	1048.0907	1067.6787	1088.7706	1112.8073	1124.9217	1151.8354	1173.0702	1228.1059	1271.0488	1316.0063	1340.4232	1385.5367	1395.8016	1403.3087	1422.9551	1437.1576	1484.9653	1487.2002	1492.6381	1794.0864	2969.132	2991.7548	3005.6749	3056.1112	3112.0734	3136.9522	3142.7389	3481.9723	3806.9072
CC1OC(CO)C(=N)O1	C[C@H]1O[C@@H](CO)[C]([NH])O1	
InChI=1S/C5H9NO3/c1-3-8-4(2-7)5(6)9-3/h3-4,6-7H,2H2,1H3	InChI=1S/C5H9NO3/c1-3-8-4(2-7)5(6)9-3/h3-4,6-7H,2H2,1H3/t3-,4-/m0/s1
