19
gdb 14391	4.04368	1.86338	1.57991	1.665	74.79	-0.2166	0.0645	0.2812	884.0899	0.165248	-327.829445	-327.821944	-327.820999	-327.860581	30.08	
C	-0.0453924839	 1.5919387069	 0.0073461625	-0.491821
C	 0.0636640078	 0.0663050169	-0.0629069233	 0.323322
C	-1.0901431874	-0.6007779799	 0.6883554488	-0.447195
C	 0.477214189	-0.7539636115	-1.2592582794	-0.119907
C	 1.7928664695	-0.3260288629	-1.9388835963	-0.054134
C	 2.5599588507	 0.7842963604	-1.3244205655	-0.253294
N	 2.5940510972	-0.5399065583	-0.6806826196	-0.149589
C	 1.2861448208	-0.8418118092	 0.0213495139	-0.056299
H	 0.1753101889	 2.0770070882	-0.9448885542	 0.131945
H	-1.0713376358	 1.8686560565	 0.2720237662	 0.110819
H	 0.6083033133	 2.0201175127	 0.7748773344	 0.127277
H	-2.0507037979	-0.3194607933	 0.2424322103	 0.118137
H	-1.0172716783	-1.6921416377	 0.6664611878	 0.117372
H	-1.1016639111	-0.2831877355	 1.7368590454	 0.119703
H	-0.1688079085	-1.4990168022	-1.7085200769	 0.086308
H	 2.1150649938	-0.7846803652	-2.8689807563	 0.098736
H	 3.5099633871	 1.0128413341	-1.8024271875	 0.118892
H	 2.1040660944	 1.6280644835	-0.8325249944	 0.124199
H	 1.3346801106	-1.6288382636	 0.764743844	 0.09553
120.1209	208.0823	246.8934	299.5217	316.3691	368.5052	400.7919	475.9473	591.9578	670.5302	684.1033	741.0788	782.4111	843.1185	865.905	922.2919	958.2191	984.6447	996.9127	1005.399	1032.9451	1055.7481	1064.6508	1078.6558	1108.2696	1136.1373	1149.4887	1189.8671	1228.8355	1265.0418	1287.945	1343.3428	1395.3691	1406.9585	1426.2518	1490.958	1496.8857	1500.6438	1506.6885	1519.9222	3025.6513	3034.1124	3087.6681	3089.9459	3106.3732	3122.6246	3128.0856	3151.2576	3170.3382	3181.5544	3270.3647
CC1(C)C2C3CN3C12	CC1(C)[C@H]2[C@H]3CN3[C@@H]12	
InChI=1S/C7H11N/c1-7(2)5-4-3-8(4)6(5)7/h4-6H,3H2,1-2H3	InChI=1S/C7H11N/c1-7(2)5-4-3-8(4)6(5)7/h4-6H,3H2,1-2H3/t4-,5+,6-,8?/m1/s1
