18
gdb 22867	2.84071	1.25534	0.90907	2.2496	75.28	-0.2403	-0.0285	0.2118	1250.7744	0.145986	-439.084501	-439.075329	-439.074385	-439.119383	33.363	
C	-0.4110525538	 1.5007507909	 0.0725341737	-0.392362
C	 0.0981599931	 0.0628930635	 0.007580554	-0.187256
C	 1.0603147228	-0.2183687675	-1.1574106461	 0.390643
O	 1.044191827	 0.3440644112	-2.220412659	-0.307543
C	 2.034739799	-1.3254203904	-0.7417436133	-0.33862
C	 1.9863819053	-1.3827153023	 0.7976592464	-0.310431
C	 0.8530604623	-0.4587372677	 1.20669523	 0.377799
N	 0.5497179816	-0.0948219988	 2.3872718721	-0.213611
O	 1.39463932	-0.6979097384	 3.3363129402	-0.393333
H	 0.4095199568	 2.1905232789	 0.2887412744	 0.124831
H	-0.84915679	 1.7806922807	-0.8883489574	 0.133351
H	-1.1599952494	 1.609576782	 0.8593446447	 0.131599
H	-0.7573739845	-0.6110019325	-0.1752002168	 0.124693
H	 1.6917751799	-2.2606116008	-1.1997664149	 0.13738
H	 3.0259158183	-1.1211260706	-1.1524830435	 0.138121
H	 1.8158208283	-2.3916068406	 1.1862110094	 0.134979
H	 2.91545104	-1.0378242499	 1.2620600657	 0.141545
H	 1.0731058133	-0.3214579877	 4.1623189504	 0.308213
39.2363	59.4675	175.1683	182.1663	211.8767	250.9776	350.3179	405.4273	436.1195	486.2531	514.8251	575.1817	630.6124	676.9439	733.9265	804.5733	819.6068	948.2445	974.3252	998.4177	1012.1171	1048.5278	1088.6371	1151.9604	1164.123	1216.8029	1232.1606	1255.7125	1272.4175	1307.9316	1324.8484	1399.6198	1412.095	1451.2918	1474.4407	1489.7628	1496.276	1748.0847	1850.9129	2959.8865	3048.31	3054.1448	3059.1554	3086.864	3113.6369	3126.3278	3139.8846	3820.8858
CC1C(=O)CCC1=NO	C[C@H]1C(=O)CCC1=NO	
InChI=1S/C6H9NO2/c1-4-5(7-9)2-3-6(4)8/h4,9H,2-3H2,1H3	InChI=1S/C6H9NO2/c1-4-5(7-9)2-3-6(4)8/h4,9H,2-3H2,1H3/t4-/m1/s1
