17
gdb 35129	5.09601	0.92894	0.89702	1.6484	75.03	-0.2546	0.0182	0.2729	1310.9453	0.134426	-421.743396	-421.734958	-421.734014	-421.777204	31.042	
C	-0.5191058162	-0.9736490869	-0.6195692501	-0.444815
C	-0.0261836257	 0.06191774	-0.259784884	 0.322904
C	 0.5522865255	 1.3208935018	 0.1733130298	-0.0298
C	-0.0961276857	 2.0291165151	 1.3922498869	-0.313106
C	 1.3149086038	 1.9319720247	 2.0182617795	 0.101253
O	 1.804395138	 1.1642132632	 0.8979838773	-0.296759
C	 2.0442641398	 3.2419200564	 2.1833366565	 0.055868
C	 3.3331522568	 3.490323023	 1.5286204537	-0.168717
O	 2.1218500242	 4.0614911967	 1.0174767257	-0.234427
H	-0.9500812573	-1.8893072055	-0.9418871706	 0.2026
H	 0.6966497672	 1.9875219458	-0.6846342988	 0.119371
H	-0.4599713499	 3.0382334072	 1.200747147	 0.129575
H	-0.860501066	 1.4359715011	 1.8925196951	 0.123144
H	 1.3787916246	 1.3588709635	 2.9523826411	 0.08721
H	 1.8080986552	 3.7815602775	 3.1030615677	 0.093348
H	 4.0324663174	 4.1993150432	 1.9683632369	 0.114721
H	 3.7607125384	 2.7039255133	 0.9129487063	 0.13763
48.1914	107.8479	129.9805	184.0569	248.6411	273.7961	443.3971	499.589	526.3743	621.3321	645.6234	676.6844	730.6054	756.9155	852.807	889.8103	929.7153	953.9089	985.8418	1002.5647	1021.0621	1073.5544	1097.7619	1114.6731	1153.7635	1167.9347	1171.3377	1255.1614	1256.4082	1283.2825	1296.984	1348.6195	1383.505	1425.9382	1482.693	1514.5998	2236.2346	3022.1032	3040.6456	3088.8847	3097.9876	3100.1883	3162.154	3199.8462	3502.9738
C#CC1CC(O1)C1CO1	C#C[C@H]1C[C@@H](O1)[C@H]1CO1	
InChI=1S/C7H8O2/c1-2-5-3-6(9-5)7-4-8-7/h1,5-7H,3-4H2	InChI=1S/C7H8O2/c1-2-5-3-6(9-5)7-4-8-7/h1,5-7H,3-4H2/t5-,6+,7+/m0/s1
