14
gdb 123685	4.12284	1.56296	1.22892	3.0813	66.19	-0.2484	-0.0176	0.2308	943.6456	0.103345	-436.653924	-436.647887	-436.646943	-436.684351	24.057	
C	-0.0552231521	 1.5105479347	-0.002788878	-0.395134
C	 1.4388168139	 1.8980080586	-0.0263408658	 0.057767
O	 2.188569631	 1.4836557534	 1.1123617238	-0.244915
C	 2.2863719083	 0.6801071194	-0.0855627275	-0.153606
C	 1.3377694183	-0.4608634719	-0.0810403213	 0.19779
C	 0.0678256768	 0.0172200992	-0.0085117083	 0.389999
O	-0.8243174222	-0.9597168048	 0.0897425338	-0.223269
N	-0.1170617647	-2.1849675803	 0.0610133755	-0.139501
C	 1.1561609296	-1.8636739062	-0.0315210926	-0.13334
H	-0.5585611844	 1.8964540208	 0.8894551869	 0.151703
H	-0.5838836759	 1.89804841	-0.8809122522	 0.135953
H	 1.7330001845	 2.8499031635	-0.4597869751	 0.108629
H	 3.2660730486	 0.6508503163	-0.5495621772	 0.109022
H	 1.8813526983	-2.6646146127	-0.064646352	 0.138902
160.0293	229.9049	357.2802	420.7236	465.6616	604.1758	634.7312	694.5551	728.0645	779.6451	848.2272	854.2274	858.167	893.297	911.9842	970.6943	986.422	1031.0498	1091.6124	1153.3561	1180.759	1198.2307	1241.0235	1264.8529	1296.6905	1357.2316	1391.2685	1439.3849	1461.5884	1512.4257	1626.3131	3048.9704	3092.2922	3153.4609	3181.2776	3243.651
C1C2OC2C2=C1ON=C2	C1[C@H]2O[C@H]2c2c1onc2	
InChI=1S/C6H5NO2/c1-4-3(2-7-9-4)6-5(1)8-6/h2,5-6H,1H2	InChI=1S/C6H5NO2/c1-4-3(2-7-9-4)6-5(1)8-6/h2,5-6H,1H2/t5-,6+/m1/s1
