19
gdb 12377	2.92047	2.04572	1.28806	3.6911	71.8	-0.2349	0.031	0.2659	970.4567	0.168012	-365.122167	-365.114341	-365.113397	-365.154355	29.751	
C	-0.0923917007	 1.5511976	 0.0030896081	-0.394963
C	 0.0694199911	 0.0285465276	-0.0026217417	-0.080123
C	 0.7359348289	-0.5002659966	-1.2817476099	-0.205651
C	 1.0053102249	-2.00156431	-1.1722228643	-0.209714
C	 1.9627148434	-2.2723939756	-0.0142869765	-0.146856
N	 1.5240897887	-1.583395546	 1.1921662539	-0.31556
C	 0.7743503726	-0.4407739487	 1.2785751608	 0.406682
O	 0.6327624518	 0.1371045612	 2.3425162546	-0.38405
H	 0.8786335836	 2.0480269702	-0.0981464371	 0.114855
H	-0.725422265	 1.8730289334	-0.8297315918	 0.103632
H	-0.5391442025	 1.8812093196	 0.9418197734	 0.143164
H	-0.9338632779	-0.4202049841	 0.0595008599	 0.10298
H	 0.0995291968	-0.2798307672	-2.1456665899	 0.099376
H	 1.6831107296	 0.0314338543	-1.4493138297	 0.099746
H	 0.0618900938	-2.5348885208	-1.0020632866	 0.107033
H	 1.4396389722	-2.3973189642	-2.0956982084	 0.101852
H	 2.0201020728	-3.3463591449	 0.1959933194	 0.10981
H	 2.976909142	-1.9473242176	-0.2954310039	 0.105598
H	 1.9751891438	-1.8233372605	 2.0638732198	 0.242188
73.0786	137.853	213.1853	283.4682	294.027	356.3756	413.6551	457.3842	517.7524	589.838	661.3246	687.8576	760.1324	868.5367	887.5536	900.9652	964.7135	990.0758	1031.8742	1090.2348	1116.6492	1134.0682	1161.1459	1203.4665	1230.5477	1287.7774	1310.1433	1319.2198	1358.7041	1378.6913	1384.9361	1398.7486	1409.2422	1480.3461	1487.3438	1492.8106	1500.3038	1504.2104	1529.0265	1776.2446	2976.8273	2992.8304	3014.4487	3031.6733	3039.4195	3052.9542	3067.6911	3084.5088	3101.6579	3144.6556	3598.6328
CC1CCCNC1=O	C[C@H]1CCCNC1=O	
InChI=1S/C6H11NO/c1-5-3-2-4-7-6(5)8/h5H,2-4H2,1H3,(H,7,8)	InChI=1S/C6H11NO/c1-5-3-2-4-7-6(5)8/h5H,2-4H2,1H3,(H,7,8)/t5-/m0/s1
