18
gdb 20036	5.14624	1.04892	0.97343	2.2043	68.94	-0.261	0.0789	0.3399	1226.3802	0.15307	-384.89669	-384.888347	-384.887403	-384.930456	30.311	
O	-0.0932844488	 1.368615787	-0.6543097224	-0.419453
C	 0.0393200046	 0.2388178632	 0.1927747253	-0.08396
C	-1.2790702101	-0.4793824355	 0.3356521999	 0.01914
O	-1.7251214009	-1.1772102516	-0.8423332976	-0.276742
C	-1.4508109652	-1.9422904546	 0.3393659472	 0.06545
C	-0.3507116618	-2.9466067431	 0.2852976068	-0.011896
C	-0.1842649155	-3.9072505237	 1.4410945316	-0.268441
C	-0.7034739992	-4.4071195122	 0.1207272119	-0.267177
H	-0.4532021497	 1.0447572464	-1.4881023856	 0.293238
H	 0.8146698773	-0.4467433636	-0.1751363687	 0.091678
H	 0.3638753349	 0.6203158386	 1.167147891	 0.112436
H	-2.0602789739	 0.1233984219	 0.8033399758	 0.095283
H	-2.353775421	-2.3162562283	 0.8302617634	 0.085706
H	 0.5557205291	-2.6149143134	-0.2075487939	 0.092427
H	 0.8238547879	-4.1713515157	 1.7390702596	 0.118749
H	-0.8841799416	-3.8317632795	 2.2669298647	 0.116063
H	-1.7551542195	-4.6653991525	 0.0529233097	 0.118882
H	-0.0542530666	-5.0190276435	-0.4948127185	 0.118617
49.5237	66.5284	143.2517	185.9552	292.1104	303.8137	404.4721	427.2073	502.6441	579.4716	759.0228	793.694	821.4644	829.4281	912.4523	922.3067	934.1749	987.0058	1051.6281	1063.1393	1070.4393	1081.2463	1116.4421	1124.3339	1160.3482	1198.155	1211.1075	1221.4295	1235.2706	1297.225	1332.7062	1358.3027	1407.8556	1439.7172	1470.138	1490.4706	1494.1599	1516.0844	3011.7028	3065.7673	3072.0926	3096.6386	3133.5479	3137.6821	3178.0955	3212.6545	3227.955	3799.2285
OCC1OC1C1CC1	OC[C@H]1O[C@H]1C1CC1	
InChI=1S/C6H10O2/c7-3-5-6(8-5)4-1-2-4/h4-7H,1-3H2	InChI=1S/C6H10O2/c7-3-5-6(8-5)4-1-2-4/h4-7H,1-3H2/t5-,6+/m1/s1
