15
gdb 131941	4.38773	1.09108	0.87872	6.7781	74.19	-0.2408	-0.0597	0.181	1247.949	0.113182	-453.904435	-453.896439	-453.895495	-453.938008	28.452	
C	-0.0101586588	 1.431351665	 0.0196228658	-0.340082
N	-0.0250297159	-0.020621198	 0.0217915189	 0.003981
C	-0.006294203	-0.8145674515	-1.1097415092	-0.058376
C	 0.0357097332	-2.129479066	-0.7258058081	-0.270763
C	 0.0445887173	-2.1163403761	 0.6926197022	 0.32642
C	 0.0087734655	-0.8067610335	 1.1294641892	-0.129795
N	 0.0747325986	-3.2575607131	 1.5545454381	 0.339223
O	 0.1023352659	-4.3661537191	 1.0265953336	-0.374052
O	 0.0722294621	-3.0562623933	 2.7683277257	-0.389681
H	 0.9900173223	 1.8165755939	-0.2034685781	 0.152908
H	-0.7104989496	 1.809003371	-0.7292651167	 0.151898
H	-0.3185052314	 1.7959578404	 1.0005437694	 0.154372
H	-0.02652107	-0.3657188032	-2.0899258175	 0.134001
H	 0.0484265409	-3.0027933505	-1.3552069464	 0.138618
H	 0.004879103	-0.4065713763	 2.1285485433	 0.161328
53.2123	84.2874	161.477	188.4385	249.4811	360.6987	423.7977	551.4321	610.4268	624.7619	691.2194	707.8468	772.3849	823.4728	826.6892	862.6506	990.0293	1004.9064	1082.6752	1097.9649	1147.9855	1156.0023	1256.5532	1343.9375	1383.6291	1442.7865	1448.295	1455.5747	1486.1439	1510.9584	1556.0154	1561.2922	1614.748	3044.6281	3113.1201	3146.7033	3261.982	3290.8096	3292.1703
CN1C=CC(=C1)N(=O)=O	Cn1ccc(c1)N(=O)=O	
InChI=1S/C5H6N2O2/c1-6-3-2-5(4-6)7(8)9/h2-4H,1H3	InChI=1S/C5H6N2O2/c1-6-3-2-5(4-6)7(8)9/h2-4H,1H3
