18
gdb 55974	3.22212	1.02997	0.90686	3.7393	74.71	-0.2381	-0.0229	0.2152	1341.3838	0.145782	-439.128833	-439.119334	-439.11839	-439.165129	32.797	
C	-0.0256516633	 1.488698067	 0.067454553	-0.477104
C	 0.1008577911	-0.0164180864	-0.062422046	 0.377088
O	 1.1403072605	-0.5651226204	-0.3383872041	-0.281795
C	-1.1902501548	-0.8144462793	 0.1746386363	-0.295611
N	-1.0244434551	-2.2301023015	 0.0598664384	-0.054486
C	-0.604407682	-3.1044869055	-1.0443574097	-0.173419
C	-0.5352270862	-4.2617345633	-0.0061987505	-0.370686
C	-0.9275579016	-3.1934819102	 1.0388376322	 0.410521
O	-1.0943648369	-3.1395723185	 2.2291466687	-0.372139
H	 0.9353296382	 1.959307423	-0.1417210209	 0.149691
H	-0.7838915494	 1.8729774915	-0.6240806887	 0.141237
H	-0.3534554026	 1.7550980536	 1.0787462873	 0.148616
H	-1.5507896648	-0.6101249401	 1.1905090857	 0.159843
H	-1.9632074442	-0.439490426	-0.5126989769	 0.126702
H	-1.3606611424	-3.2173169907	-1.8287043192	 0.10557
H	 0.3537623618	-2.8178487895	-1.4822686656	 0.135736
H	-1.2671217881	-5.060873395	-0.135144653	 0.131334
H	 0.4553373298	-4.6912256986	 0.1509027831	 0.138902
32.2201	42.1384	97.404	104.5569	193.2628	228.6371	280.8853	335.4921	460.4878	495.8493	553.4068	601.2064	751.4477	787.4088	801.1919	827.136	847.219	945.3901	971.2483	1012.2192	1048.4032	1080.0424	1145.1353	1154.0275	1186.4058	1190.1017	1212.4554	1276.6487	1333.4176	1369.5844	1384.3069	1423.7122	1437.6032	1461.9967	1463.6945	1475.6274	1524.3635	1821.0421	1876.9511	3001.4372	3037.835	3043.5387	3067.6769	3090.3032	3098.1004	3112.7563	3148.9171	3155.7896
CC(=O)CN1CCC1=O	CC(=O)CN1CCC1=O	
InChI=1S/C6H9NO2/c1-5(8)4-7-3-2-6(7)9/h2-4H2,1H3	InChI=1S/C6H9NO2/c1-5(8)4-7-3-2-6(7)9/h2-4H2,1H3
