16
gdb 131816	5.73129	0.66569	0.63742	3.9305	67.01	-0.2782	-0.0688	0.2095	1685.3196	0.123115	-471.145833	-471.137067	-471.136123	-471.180995	30.059	
O	-0.0701902357	 1.4362060002	-0.1079378095	-0.417993
C	 0.019213614	 0.0245442842	-0.0381041792	-0.074244
C	-1.4024148926	-0.5218561568	 0.0098314396	-0.175326
C	-1.4275533049	-2.0580808987	 0.0954549768	-0.308227
C	-2.8135354745	-2.6023922386	 0.0932441452	 0.41486
N	-3.3977917137	-3.1960603271	 1.094656406	-0.148589
O	-4.6366215465	-3.5029699215	 0.6410268895	-0.13852
N	-4.7541056331	-3.0627566758	-0.6742952953	 0.047582
N	-3.6667107264	-2.5256437547	-0.9989570367	-0.201322
H	 0.8209984883	 1.796158692	-0.1362937267	 0.289686
H	 0.545988666	-0.389995289	-0.913770917	 0.08954
H	 0.5732597942	-0.3001760869	 0.8583603371	 0.089165
H	-1.918527074	-0.0914170004	 0.8746939015	 0.124058
H	-1.9409923795	-0.1892063105	-0.8834753833	 0.134892
H	-0.8896556009	-2.4853365439	-0.7591659753	 0.136026
H	-0.9281201905	-2.4040542624	 1.0048782073	 0.138411
42.9093	78.0938	92.847	122.9083	251.3823	254.7323	326.5962	341.5691	474.6605	674.6136	695.6629	721.691	758.2037	795.1696	870.2686	956.5002	1021.9177	1033.9763	1061.8566	1070.1939	1089.5638	1122.7884	1208.814	1234.4143	1282.9788	1305.8472	1315.9917	1332.8501	1378.0071	1467.026	1473.1706	1488.8666	1500.5331	1528.7774	1599.7461	2956.7602	2982.7855	3040.8074	3054.0371	3088.9796	3110.2349	3832.4621
OCCCC1=NON=N1	OCCCc1nonn1	
InChI=1S/C4H7N3O2/c8-3-1-2-4-5-7-9-6-4/h8H,1-3H2	InChI=1S/C4H7N3O2/c8-3-1-2-4-5-7-9-6-4/h8H,1-3H2
