17
gdb 22630	4.21389	1.10551	0.98546	2.0064	80.82	-0.2264	-0.0377	0.1886	1215.4444	0.136092	-417.9516	-417.943517	-417.942573	-417.983902	31.47	
C	-0.0219154095	 1.5254414591	 0.0566673416	-0.494293
C	 0.1010538621	 0.0254914959	 0.0079714512	 0.291282
N	-0.7713433266	-0.8366523826	 0.8584761858	-0.364854
C	 0.7083715933	-0.8185605927	 1.0725786895	-0.20925
C	 1.4166021005	-1.9368482506	 0.3777541275	 0.441222
C	 1.1537331912	-1.7876940842	-1.0609745705	-0.168992
C	 0.4304206646	-0.6784437269	-1.2787845634	-0.105802
N	 2.1274730308	-2.7857909514	 1.0180147773	-0.250038
O	 2.705230808	-3.7281032011	 0.1559478528	-0.387591
H	 0.8703934527	 2.0080781767	-0.3556379014	 0.132446
H	-0.8860813789	 1.8676588625	-0.5244078261	 0.129049
H	-0.1490713707	 1.8756983602	 1.0860138817	 0.119223
H	-1.185439863	-0.2513412555	 1.5852149213	 0.225707
H	 1.1012988439	-0.4183239089	 1.9992638185	 0.100325
H	 1.4862970344	-2.5024674267	-1.7994133365	 0.124334
H	 0.0853620819	-0.3275917487	-2.2445553883	 0.108857
H	 3.1949210252	-4.2887149549	 0.7669490191	 0.308374
104.97	200.5988	211.1597	259.0289	282.7688	331.8506	394.716	413.0952	459.0758	518.7422	616.8074	696.4722	718.387	766.7478	822.0454	847.8197	868.7959	909.102	957.3819	971.4014	976.3593	1037.755	1058.3779	1098.0887	1121.9176	1147.3741	1232.9147	1300.9873	1315.1056	1367.856	1392.4889	1417.4129	1439.5858	1484.5342	1500.022	1629.7884	1728.6033	3027.4722	3091.2034	3102.954	3191.5489	3199.3953	3249.7765	3454.8766	3820.1937
CC12NC1C(C=C2)=NO	C[C@]12N[C@H]1C(=NO)C=C2	
InChI=1S/C6H8N2O/c1-6-3-2-4(8-9)5(6)7-6/h2-3,5,7,9H,1H3	InChI=1S/C6H8N2O/c1-6-3-2-4(8-9)5(6)7-6/h2-3,5,7,9H,1H3/t5-,6+/m0/s1
