14
gdb 131117	3.28618	1.20334	0.9957	6.1086	67.04	-0.2707	-0.0073	0.2634	1146.3909	0.102731	-432.889131	-432.881224	-432.88028	-432.922705	28.475	
O	 0.1768044357	 1.4670385609	-0.043858657	-0.404156
C	 0.0340999773	 0.0708880424	 0.0027197007	-0.102442
C	 0.5920389554	-0.56537281	-1.220475001	 0.260985
N	 1.0164844606	-1.0651405949	-2.1717267103	-0.324805
C	 0.680659644	-0.5301787736	 1.2319696528	 0.343885
N	 1.5352467602	 0.2217091447	 1.9161485037	-0.302738
N	 1.9546519072	-0.5694387718	 2.9176209496	-0.185156
C	 1.3894546946	-1.7997104853	 2.8871082073	 0.00137
C	 0.547843259	-1.8171113728	 1.7955741707	-0.296462
H	 0.9773947988	 1.6790362266	 0.4570959095	 0.306976
H	-1.0406022326	-0.152422181	 0.010217742	 0.142781
H	 2.6106061235	-0.2045367138	 3.587567044	 0.285226
H	 1.6220142422	-2.5484899662	 3.6274882389	 0.149704
H	-0.0635468758	-2.6361589352	 1.4545220491	 0.124829
31.5102	106.8669	200.0007	232.9858	303.0977	357.0172	432.708	477.5529	520.4412	604.5084	657.0592	704.5646	774.3544	813.4981	855.8387	926.0123	949.9916	1006.7255	1078.6855	1090.6504	1116.4728	1219.7934	1242.358	1308.4844	1340.187	1414.2004	1433.7807	1478.3395	1496.9006	1572.3183	2354.9172	3031.5494	3262.764	3281.1589	3674.6863	3741.7941
OC(C#N)C1=NNC=C1	O[C@@H](C#N)c1n[nH]cc1	
InChI=1S/C5H5N3O/c6-3-5(9)4-1-2-7-8-4/h1-2,5,9H,(H,7,8)	InChI=1S/C5H5N3O/c6-3-5(9)4-1-2-7-8-4/h1-2,5,9H,(H,7,8)/t5-/m0/s1
