16
gdb 96904	4.619	0.98674	0.89973	4.4598	79.29	-0.2604	-0.0226	0.2378	1289.8022	0.12374	-396.894227	-396.885884	-396.88494	-396.927365	30.545	
C	-0.0193994417	 1.3787548583	 0.0765945503	-0.339145
N	-0.0828129699	-0.0605918575	-0.0976046144	-0.266153
C	 0.5439148737	-0.5863526298	-1.0405196191	 0.397792
C	 1.4157968937	-0.1696079379	-2.2333026504	-0.413968
C	 1.51275487	-1.6743859093	-2.515102761	 0.174388
C	 1.9666244208	-2.4202167651	-1.3188035035	-0.265896
N	 0.5443937039	-2.0097320107	-1.3632369977	-0.169124
C	 1.389458089	-2.2658866484	-3.8112979341	 0.222244
N	 1.3210602763	-2.7184866331	-4.8735172843	-0.328239
H	 0.6086961027	 1.9013353956	-0.6592467141	 0.110195
H	-1.0337126179	 1.7883883701	 0.0232661719	 0.142915
H	 0.3599831821	 1.5997660045	 1.079854325	 0.13989
H	 0.8486869893	 0.3709195633	-2.9944456188	 0.158578
H	 2.3548919375	 0.3544506514	-2.0398993356	 0.138922
H	 2.095004987	-3.4926526897	-1.4162373011	 0.158111
H	 2.6351803637	-1.9316311116	-0.614219833	 0.13949
80.48	137.8268	151.1646	210.4596	231.9453	287.893	387.8749	461.463	524.8298	555.3238	586.8314	597.4425	670.6704	771.813	829.7522	919.0167	960.8324	1003.3847	1057.8816	1060.9457	1110.2116	1128.7298	1133.5122	1153.3322	1191.6149	1224.1995	1249.751	1351.9302	1441.8076	1464.8863	1483.9175	1497.47	1500.4542	1840.3977	2355.3239	2995.044	3070.3416	3076.6219	3092.6561	3117.4181	3127.4114	3220.6091
CN=C1CC2(CN12)C#N	CN=C1C[C@]2(CN12)C#N	
InChI=1S/C6H7N3/c1-8-5-2-6(3-7)4-9(5)6/h2,4H2,1H3	InChI=1S/C6H7N3/c1-8-5-2-6(3-7)4-9(5)6/h2,4H2,1H3/t6-,9?/m1/s1
