21
gdb 90775	3.13384	1.29623	1.13354	2.1205	76.76	-0.2531	0.0571	0.3102	1145.0017	0.183849	-424.224962	-424.216486	-424.215542	-424.258043	33.565	
O	-0.1088620281	 1.5030189749	 0.3084402966	-0.428804
C	-0.049304872	 0.1163982356	 0.070922786	 0.1484
C	 0.3890410016	-0.8311823269	 1.2226094592	-0.305876
C	-0.8139853572	-1.7647662232	 0.9031752865	 0.004357
C	-1.3714014959	-0.6996906695	-0.1044439693	-0.045322
C	-2.6361035425	-0.1176435274	 0.5541200462	-0.227144
C	-2.5617555322	-0.5374770798	 2.0387580358	-0.256818
C	-1.8588452169	-1.90910042	 2.0088155408	 0.132199
O	-2.7486737022	-2.941822984	 1.590822768	-0.447929
H	-0.5938547302	 1.6503746015	 1.1268620286	 0.279538
H	 0.5940189926	 0.0078934546	-0.8065609678	 0.08969
H	 1.3854526376	-1.26995202	 1.1324871762	 0.103042
H	 0.3219099776	-0.3564574257	 2.2081893002	 0.090143
H	-0.5416495432	-2.7370322815	 0.4923669015	 0.076546
H	-1.5615939172	-1.0228908391	-1.1292520814	 0.0671
H	-2.7149280131	 0.9656637768	 0.4188721594	 0.097679
H	-3.5196185122	-0.5664432012	 0.0927373266	 0.10965
H	-1.9629940517	 0.169755884	 2.626409784	 0.08663
H	-3.5429434306	-0.5878205591	 2.5231436585	 0.088532
H	-1.4015127718	-2.1628716308	 2.9777150329	 0.059105
H	-3.4797930126	-2.9744968991	 2.2159863816	 0.279281
55.1395	147.9635	235.9892	256.5467	284.9381	302.608	371.2137	407.3885	436.3344	523.2061	588.3887	702.118	720.1366	774.2438	826.902	845.7207	869.0063	921.3421	949.1805	960.4232	988.7741	1028.0009	1044.7667	1054.0711	1077.3681	1104.2264	1131.7392	1153.1219	1180.9476	1197.5448	1229.0192	1254.6563	1259.4622	1277.0014	1294.7301	1302.179	1319.0155	1334.6467	1347.8181	1368.9093	1417.9515	1436.7176	1474.0321	1483.1864	1494.0443	2979.6028	3026.396	3040.5445	3054.1354	3067.6447	3069.7808	3088.2755	3099.0477	3100.615	3116.6595	3810.6282	3814.214
OC1CC2C1CCC2O	O[C@H]1C[C@@H]2[C@H]1CC[C@H]2O	
InChI=1S/C7H12O2/c8-6-2-1-4-5(6)3-7(4)9/h4-9H,1-3H2	InChI=1S/C7H12O2/c8-6-2-1-4-5(6)3-7(4)9/h4-9H,1-3H2/t4-,5-,6-,7+/m1/s1
