17
gdb 125680	2.49817	1.74838	1.0417	1.9533	81.86	-0.2148	-0.0356	0.1792	1122.7463	0.137	-414.189033	-414.180623	-414.179679	-414.221857	31.714	
C	-0.0386696951	 1.4761150148	 0.0200516006	-0.494643
C	-0.0319642697	-0.0222712726	 0.0163455021	 0.309548
N	-0.0694815497	-0.6206016506	-1.1406140028	-0.258451
N	-0.0632958224	-1.9515870428	-1.1379747982	-0.108836
N	-0.0227532455	-2.7733392368	-0.0836715251	-0.266246
C	 0.0157326301	-2.2217161055	 1.0947086307	 0.344473
C	 0.0620155126	-3.1132202463	 2.2936213174	-0.459751
C	 0.0153548536	-0.7671512911	 1.2788441599	 0.129712
N	 0.0546476762	-0.2784843803	 2.4724525034	-0.539369
H	 0.8587266469	 1.8709365342	 0.5116948176	 0.139844
H	-0.0762009333	 1.8519453606	-1.0030558979	 0.143083
H	-0.9030461257	 1.8629488457	 0.5733403513	 0.139839
H	-0.0925724233	-2.3949773301	-2.0404589456	 0.289297
H	 0.0556427955	-4.1607639668	 1.9895372765	 0.127747
H	 0.9563738652	-2.899276952	 2.887924935	 0.147132
H	-0.7896423388	-2.9064592461	 2.94991335	 0.147165
H	 0.0491421333	 0.7418727858	 2.4490382052	 0.209457
77.3671	166.7161	202.6654	274.975	284.7026	301.5593	324.3605	392.7229	489.6072	511.1917	512.7087	565.9798	613.0679	692.3434	791.0415	858.387	900.1953	907.6569	972.7234	1031.6625	1054.4733	1057.0948	1176.0228	1224.7222	1241.1848	1307.7635	1402.4929	1409.7389	1438.1291	1463.3275	1465.8012	1475.7162	1476.4517	1497.3127	1609.2099	1635.1765	1652.2527	3025.9203	3044.9513	3075.3757	3098.473	3146.1073	3149.5165	3468.668	3668.5898
CC1=NNN=C(C)C1=N	Cc1n[nH]nc(C)c1[NH]	
InChI=1S/C5H8N4/c1-3-5(6)4(2)8-9-7-3/h1-2H3,(H2,6,9)	InChI=1S/C5H13N4/c1-3-5(6)4(2)8-9-7-3/h3-9H,1-2H3
