24
gdb 57846	2.3335	1.26755	1.02382	3.229	87.43	-0.2328	0.0339	0.2667	1336.4225	0.214292	-405.580046	-405.568324	-405.56738	-405.617252	41.98	
C	 0.5274971048	 1.0767209373	 0.9248045972	-0.343616
N	 0.312722128	-0.3516963661	 0.7337327088	-0.095056
C	 1.5014517059	-1.142018839	 0.9840420364	-0.329972
C	-0.9376315843	-0.7700086551	 0.3267633101	 0.405685
O	-1.8265858944	 0.0517370304	 0.1548063074	-0.382722
C	-1.2460220867	-2.2777005291	 0.0809295818	 0.116158
C	-2.7172191937	-2.361651366	-0.3762478379	-0.369743
C	-0.3794742894	-2.8626283249	-1.0576927949	-0.415393
C	-1.1235816756	-3.1037610041	 1.3822115807	-0.415778
H	 1.3200026188	 1.4375639455	 0.2561235637	 0.115994
H	-0.4001185067	 1.6010166061	 0.7091574868	 0.170566
H	 0.8369230714	 1.2818216898	 1.957808645	 0.11637
H	 1.8767100457	-0.947597094	 1.997912477	 0.121443
H	 1.3152360929	-2.2049205151	 0.8952646306	 0.139767
H	 2.3015156314	-0.8738354876	 0.2796606654	 0.120981
H	-2.8795740706	-1.7931955788	-1.2938196041	 0.121513
H	-2.9803359244	-3.4088356772	-0.5598487977	 0.093155
H	-3.3915013405	-1.957305622	 0.3806534032	 0.122513
H	 0.6851121607	-2.9272808368	-0.8255734774	 0.110828
H	-0.7227990227	-3.8763114094	-1.290876619	 0.116793
H	-0.4849647695	-2.261717	-1.9667307677	 0.125298
H	-1.7492997054	-2.6719834845	 2.1698822341	 0.126254
H	-1.4786600735	-4.1238301596	 1.1999616403	 0.11713
H	-0.1070986321	-3.1803382197	 1.7727949904	 0.11183
36.0866	57.6238	113.3474	141.1975	169.3837	200.0388	227.9729	268.5513	271.692	301.8444	320.2108	353.5736	370.8374	404.8207	435.5619	531.2466	566.3731	687.84	750.9163	826.7294	939.2518	942.6929	955.5882	966.6391	1043.7365	1047.0026	1070.5534	1130.7638	1132.3421	1179.5219	1228.7917	1233.1222	1258.8324	1280.5816	1397.2475	1404.076	1407.4795	1424.7998	1441.8616	1466.2632	1470.9778	1479.6927	1484.1991	1492.7051	1497.7114	1504.1998	1510.2047	1512.9945	1520.9031	1539.3417	1724.5951	3000.0369	3011.6385	3036.9197	3037.5646	3038.4572	3046.3281	3054.5929	3098.8217	3100.4759	3119.8853	3122.2449	3125.8642	3139.6183	3183.0014	3223.3692
CN(C)C(=O)C(C)(C)C	CN(C)C(=O)C(C)(C)C	
InChI=1S/C7H15NO/c1-7(2,3)6(9)8(4)5/h1-5H3	InChI=1S/C7H15NO/c1-7(2,3)6(9)8(4)5/h1-5H3
