18
gdb 14351	3.4231	1.97334	1.84859	1.0565	66.66	-0.2457	0.077	0.3227	828.4205	0.154395	-384.936741	-384.929445	-384.9285	-384.968832	27.661	
C	 0.4980251792	 1.3403889588	-0.2242776435	-0.397653
C	-0.0706131267	-0.0449996701	 0.0590296277	 0.213637
O	 0.1144301059	-0.9299268792	-1.0365732278	-0.272716
C	 1.0986817254	-1.8886577348	-0.7104026057	 0.092639
C	 2.5766953812	-1.5160300596	-1.0329401675	-0.251599
C	 2.8546193845	-1.3188114253	 0.4887826695	-0.251605
C	 1.3751233184	-1.6925658645	 0.8031262156	 0.092644
O	 0.523610253	-0.6396944707	 1.2039837507	-0.272714
H	 1.573375963	 1.2937333312	-0.4146768131	 0.120065
H	 0.0046038129	 1.7702418822	-1.1007694633	 0.123825
H	 0.32152568	 1.9949381391	 0.634144747	 0.123826
H	-1.151039926	 0.026609937	 0.2470685959	 0.08813
H	 0.7612546267	-2.8660607263	-1.0638043288	 0.082281
H	 3.146067447	-2.3256964834	-1.4955292845	 0.103313
H	 2.6706099841	-0.6251537841	-1.6567527942	 0.110164
H	 3.5852806825	-2.0140011091	 0.9089931445	 0.103313
H	 3.1193088617	-0.3066700215	 0.8004436273	 0.110165
H	 1.2261585173	-2.5363355298	 1.4813054404	 0.082282
59.5351	77.5747	235.7041	326.7949	380.8491	386.6647	470.9332	646.5189	718.0331	740.5462	742.22	822.506	861.8282	897.5762	912.1996	920.8293	955.3167	1010.4366	1066.508	1078.6076	1122.9931	1126.462	1135.2293	1187.3349	1201.9149	1225.0293	1250.1836	1272.1135	1287.0305	1341.0705	1357.3302	1378.4093	1396.7481	1413.264	1463.2107	1479.3471	1485.9958	1489.2789	3007.5074	3046.2831	3064.6388	3069.7631	3071.5802	3084.6425	3115.8763	3122.8318	3129.9771	3134.4149
CC1OC2CCC2O1	C[C@H]1O[C@H]2CC[C@H]2O1	
InChI=1S/C6H10O2/c1-4-7-5-2-3-6(5)8-4/h4-6H,2-3H2,1H3	InChI=1S/C6H10O2/c1-4-7-5-2-3-6(5)8-4/h4-6H,2-3H2,1H3/t4-,5-,6+
