12
gdb 130730	3.27887	1.47273	1.10165	2.2046	66.19	-0.2607	-0.1049	0.1558	1005.9959	0.077778	-468.790703	-468.783571	-468.782627	-468.822827	25.975	
O	-0.0088118909	 0.0106383531	-0.407607213	-0.331112
C	 0.0461928089	 1.195078232	-0.157909935	 0.406748
N	-1.1691673125	 1.9162927922	-0.0984942857	-0.281833
N	-1.5385256504	 3.0892559331	 0.5215582876	-0.043434
N	-0.8039906473	 4.0918369496	 0.5420255208	-0.160084
C	 0.4658708259	 4.2039070536	-0.1277910836	 0.360789
O	 0.6624906921	 5.1715754739	-0.8155804819	-0.27261
C	 1.5164934791	 3.2034767041	 0.162276149	-0.148336
C	 1.3174704748	 1.8828640434	 0.1252753925	-0.120814
H	-1.9607959367	 1.2844052234	-0.1339129046	 0.282616
H	 2.5127856323	 3.6098843849	 0.307783784	 0.156327
H	 2.1456012947	 1.1918612167	 0.2393325799	 0.151744
76.2634	116.94	249.4252	334.8995	351.9404	432.37	451.1846	558.9665	632.202	688.3576	707.2096	747.9843	759.9099	855.2649	890.809	916.5712	1022.413	1040.2952	1126.3245	1192.0922	1298.4555	1384.9914	1437.9246	1623.5658	1680.9735	1782.6872	1811.0874	3183.9289	3207.299	3578.1431
O=C1NN=NC(=O)C=C1	O=c1[nH]nnc(=O)cc1	
InChI=1S/C4H3N3O2/c8-3-1-2-4(9)6-7-5-3/h1-2H,(H,5,6,8,9)	InChI=1S/C4H3N3O2/c8-3-1-2-4(9)6-7-5-3/h1-2H,(H,5,6,8,9)
