18
gdb 55195	3.50063	1.14573	0.99076	2.6867	73.62	-0.2401	-0.0203	0.2198	1249.7497	0.145962	-439.130405	-439.121105	-439.120161	-439.165436	32.654	
C	-0.1906382904	 1.552796909	 0.1336322119	-0.489418
C	 0.085484085	 0.0631529868	 0.0576256254	 0.368293
O	 1.197631574	-0.401174751	 0.0196561934	-0.287131
C	-1.156423814	-0.8299704552	-0.006824019	-0.02211
C	-1.6666930597	-0.9971967625	-1.479648146	-0.2057
N	-1.3787623442	-2.3952615832	-1.8026089467	-0.3008
C	-0.9297859649	-2.9338377257	-0.7440289907	 0.417791
C	-0.5008737367	-4.3487423299	-0.5741967903	-0.477598
O	-0.8232712956	-2.1651031122	 0.3810026853	-0.236402
H	 0.7298308409	 2.1109473734	-0.0396133497	 0.150162
H	-0.9553806672	 1.8551559593	-0.590286149	 0.140233
H	-0.5803264697	 1.7992119188	 1.1287870326	 0.148325
H	-1.9317158764	-0.4521421028	 0.6667342913	 0.099774
H	-2.7400494753	-0.7976332829	-1.5700332314	 0.119136
H	-1.149622572	-0.330644278	-2.1784595536	 0.12124
H	-0.6500776366	-4.892749353	-1.5059789257	 0.152517
H	 0.5548974783	-4.3849385358	-0.2888018863	 0.156777
H	-1.0733025155	-4.8242629251	 0.2282379986	 0.14491
55.4311	62.7625	119.7434	141.2346	184.5335	248.7012	285.2062	317.4695	384.2687	570.8497	579.8329	609.2477	684.6967	770.1467	791.3405	909.6187	936.2807	967.286	978.3407	985.9495	1057.8201	1064.5662	1080.4717	1098.8565	1188.8221	1198.0019	1249.1436	1285.1107	1336.9245	1373.6924	1385.1819	1416.5881	1462.7193	1474.1393	1475.0012	1476.0737	1501.3629	1748.6547	1828.3076	3034.2123	3035.3225	3053.2023	3059.2474	3073.3402	3094.4568	3112.3097	3155.2673	3168.3337
CC(=O)C1CN=C(C)O1	CC(=O)[C@H]1CN=C(C)O1	
InChI=1S/C6H9NO2/c1-4(8)6-3-7-5(2)9-6/h6H,3H2,1-2H3	InChI=1S/C6H9NO2/c1-4(8)6-3-7-5(2)9-6/h6H,3H2,1-2H3/t6-/m1/s1
