15
gdb 84190	3.94341	1.06844	0.84961	3.9724	78.75	-0.2351	-0.0514	0.1837	1274.3869	0.113201	-416.876368	-416.868048	-416.867103	-416.909678	29.644	
C	 0.0026919753	 1.4742536393	 0.0158851226	-0.356487
N	 0.0095599602	 0.0254994572	-0.0305578526	-0.086808
C	 0.0366698653	-0.7539965559	-1.1726413739	-0.073283
C	 0.0357703386	-2.0741957906	-0.8871163132	 0.098265
C	 0.0046067255	-2.2260917005	 0.6176979368	-0.464723
C	-0.0115973385	-0.7772274242	 1.1160222929	 0.424484
O	-0.037144388	-0.364937856	 2.2492116686	-0.358557
C	 0.059549359	-3.1319265271	-1.8164240162	 0.200231
N	 0.0787280734	-4.0233010588	-2.5590110972	-0.342883
H	 0.9015027062	 1.8878674802	-0.4523424878	 0.144106
H	-0.8814144483	 1.8806830285	-0.4855119547	 0.144132
H	-0.0181424161	 1.7582835137	 1.0690370904	 0.178041
H	 0.0554076264	-0.2836183235	-2.1456518049	 0.157083
H	-0.8815176542	-2.7549175485	 0.9834612147	 0.168198
H	 0.878640065	-2.7480037938	 1.0206009044	 0.1682
105.2538	108.5258	144.2672	163.8518	230.6213	298.0547	434.5869	452.7825	496.6634	537.6717	591.6489	591.8927	654.4604	799.9414	908.6047	909.7256	952.5759	1038.7837	1101.5401	1153.1858	1155.398	1172.7573	1230.7505	1305.0416	1327.6215	1408.0443	1434.6414	1463.1908	1495.917	1508.0018	1659.3353	1836.1387	2328.3728	3037.3995	3061.1157	3098.2634	3098.4277	3152.0309	3242.3367
CN1C=C(CC1=O)C#N	CN1C=C(CC1=O)C#N	
InChI=1S/C6H6N2O/c1-8-4-5(3-7)2-6(8)9/h4H,2H2,1H3	InChI=1S/C6H6N2O/c1-8-4-5(3-7)2-6(8)9/h4H,2H2,1H3
