15
gdb 67919	2.12117	1.79728	1.20075	5.3353	70.64	-0.2678	-0.0357	0.232	1039.3143	0.111374	-416.802938	-416.794791	-416.793846	-416.835709	30.022	
C	-0.0443497175	 1.5514619339	 0.0651414252	-0.49112
C	 0.0288907315	 0.058598207	-0.0308880034	 0.325296
C	-0.7526609113	-0.8048931993	-1.0273994409	-0.442191
C	-1.0556619368	-1.7021256066	 0.180834672	 0.423501
O	-1.7192457152	-2.6609297961	 0.3948135058	-0.271847
N	-0.3469521659	-0.8520220875	 1.1496077515	-0.215587
C	 1.0681785777	-0.7455797869	 0.6537593445	-0.216093
C	 1.741198151	-1.8557432349	 0.022526017	 0.318534
N	 2.2963701257	-2.7290980982	-0.4933025075	-0.327248
H	 0.5042893758	 2.0157222598	-0.7612863951	 0.143695
H	-1.0837542735	 1.8901126064	 0.014870115	 0.14215
H	 0.3861727262	 1.9057915099	 1.0052976331	 0.143782
H	-1.6592530554	-0.3244409842	-1.4039446577	 0.150566
H	-0.2040464103	-1.2522523194	-1.8587204776	 0.161356
H	 1.688118098	-0.2241330739	 1.3776210981	 0.155206
96.8964	146.8615	156.0587	191.2045	296.8031	327.7839	378.6268	495.0717	500.6734	555.5223	599.934	622.9402	662.4611	737.0094	867.3123	913.7279	951.0615	973.5273	1009.6136	1045.8892	1089.4509	1109.1589	1146.6247	1218.8048	1288.3224	1300.8137	1409.9408	1430.1156	1457.5782	1482.5033	1490.6752	1938.4178	2355.5145	3040.0591	3076.9975	3107.1301	3123.3495	3133.7846	3159.4179
CC12CC(=O)N1C2C#N	C[C@]12CC(=O)N1[C@H]2C#N	
InChI=1S/C6H6N2O/c1-6-2-5(9)8(6)4(6)3-7/h4H,2H2,1H3	InChI=1S/C6H6N2O/c1-6-2-5(9)8(6)4(6)3-7/h4H,2H2,1H3/t4-,6+,8?/m0/s1
