18
gdb 55824	3.62934	1.14573	1.01205	3.9922	71.49	-0.2328	0.0364	0.2692	1187.8445	0.14859	-439.071745	-439.06358	-439.062636	-439.104973	31.157	
N	-0.5539504461	 0.4098535371	-0.9645604582	-0.511755
C	-0.1041522665	-0.1048605746	 0.2174003847	 0.378919
O	 0.9474236211	 0.219819911	 0.7336553493	-0.36486
C	-1.0582487229	-1.1292258744	 0.8416985493	-0.33467
C	-0.9769575434	-2.4804435577	 0.1445278166	-0.031037
C	-2.1714937991	-3.3608893535	-0.1976321311	-0.157145
C	-3.3130642794	-2.5036165317	-0.7319919758	-0.098419
O	-2.4278956982	-1.8430858851	-1.6847601721	-0.287455
C	-1.3486459166	-2.7062303142	-1.2858326375	 0.075934
H	 0.0787570234	 0.9913069527	-1.4900420032	 0.25259
H	-1.3434483374	-0.0116616995	-1.4345352238	 0.271194
H	-0.7800446602	-1.2379394972	 1.8914431946	 0.1262
H	-2.0785860972	-0.7374550757	 0.8033897041	 0.114485
H	-0.1135791309	-3.0768704918	 0.4316850387	 0.110902
H	-2.2511004545	-4.3973539542	 0.0996991261	 0.107827
H	-4.0732515647	-3.0806999342	-1.2680480267	 0.120582
H	-3.7995286664	-1.7943401779	-0.0526036867	 0.11515
H	-0.704231641	-3.092042859	-2.0670194383	 0.111558
66.5462	94.7239	159.6319	232.4106	276.9655	422.7796	436.1893	452.8037	561.0942	578.2535	655.6459	723.4661	766.209	790.9177	808.2413	886.2808	891.4621	942.6259	972.5175	975.358	1014.2241	1030.0106	1057.2954	1080.5285	1104.4068	1135.8594	1165.0687	1168.8726	1225.6317	1259.9773	1298.9989	1320.4776	1354.7595	1361.5128	1435.0063	1476.0826	1518.9685	1631.8916	1804.9737	3033.9068	3067.1945	3084.7521	3122.1074	3143.7275	3184.1235	3210.219	3543.627	3695.2754
NC(=O)CC1C2COC12	NC(=O)C[C@H]1[C@H]2CO[C@@H]12	
InChI=1S/C6H9NO2/c7-5(8)1-3-4-2-9-6(3)4/h3-4,6H,1-2H2,(H2,7,8)	InChI=1S/C6H9NO2/c7-5(8)1-3-4-2-9-6(3)4/h3-4,6H,1-2H2,(H2,7,8)/t3-,4+,6-/m0/s1
