16
gdb 44488	3.85332	1.62338	1.49994	3.709	66.88	-0.2517	0.008	0.2597	886.8177	0.128668	-437.896376	-437.890499	-437.889555	-437.926521	24.679	
O	-0.0082983628	 0.0290531519	 0.2161410563	-0.335904
C	-0.0000878781	 1.2007826466	-0.0050212385	 0.432628
O	-1.1591012517	 1.938925127	-0.1656724831	-0.238664
C	-0.7599336976	 3.2512346984	-0.5418839222	 0.10911
C	 0.0221745977	 4.1400010936	 0.4983989611	-0.062695
C	 0.9275192993	 3.1085043468	 1.1820498627	-0.207682
C	 1.1487282216	 2.1968355498	-0.0833425348	-0.171907
C	 0.6492591701	 3.2048735563	-1.1579611113	-0.052278
N	 0.947111383	 4.5698506924	-0.6144502882	-0.325758
H	-1.5567178727	 3.7456483084	-1.0951416049	 0.10125
H	-0.4475868406	 4.9134255608	 1.1035047359	 0.082046
H	 1.8573300981	 3.5716993973	 1.51360776	 0.126886
H	 0.4627329436	 2.5775015167	 2.0148157506	 0.125773
H	 2.1273330156	 1.739689034	-0.1934706511	 0.103768
H	 0.8561980395	 2.9918127823	-2.2056810219	 0.091443
H	 0.4481228353	 5.2386924777	-1.2036958808	 0.221982
159.4662	324.2691	388.8204	462.248	514.8896	566.5597	701.9122	737.2117	779.481	818.5104	833.2057	853.1747	889.3625	905.7061	917.6666	955.2662	967.1042	1000.4241	1022.5182	1048.7541	1081.0231	1094.9127	1142.2338	1164.4352	1192.5635	1203.361	1216.726	1251.9092	1283.516	1302.0347	1327.5084	1359.2166	1364.7959	1489.7555	1903.5085	3084.0578	3131.7688	3136.385	3141.54	3146.0675	3171.725	3443.2449
O=C1OC2C3CC1C2N3	O=C1O[C@H]2[C@H]3C[C@@H]1[C@@H]2N3	
InChI=1S/C6H7NO2/c8-6-2-1-3-5(9-6)4(2)7-3/h2-5,7H,1H2	InChI=1S/C6H7NO2/c8-6-2-1-3-5(9-6)4(2)7-3/h2-5,7H,1H2/t2-,3-,4+,5+/m1/s1
