18
gdb 51461	3.71344	1.06734	1.05735	3.8948	78.91	-0.2288	0.0035	0.2322	1203.9132	0.149254	-401.968611	-401.960753	-401.959809	-402.001882	29.95	
O	-0.040024169	 0.134326998	-0.6916275971	-0.327433
C	 0.0123622307	 1.2184872149	-0.1494045922	 0.150174
N	 1.1479485586	 1.8291288297	 0.2804880334	-0.282451
C	 2.4384577533	 1.221580146	 0.1744766336	 0.050858
C	 3.5924055961	 1.8814609083	-0.5382057543	-0.080937
C	 3.4936180773	 3.3778627253	-0.8375621401	-0.273446
C	 3.4119609378	 4.0193982969	 0.5321718719	-0.087388
C	 3.5020765064	 3.1169086196	 1.514685661	-0.090419
C	 3.6152088656	 1.7257266004	 0.9864332242	-0.13413
H	-0.8844036035	 1.8355328689	 0.0602232515	 0.070113
H	 1.0793617925	 2.7216013031	 0.7458095213	 0.247883
H	 2.348900284	 0.1496482697	 0.0467042923	 0.132973
H	 4.208505373	 1.2589095027	-1.1761162248	 0.094848
H	 4.3665390565	 3.7357675399	-1.397354348	 0.115953
H	 2.6140647835	 3.6150987775	-1.4517362431	 0.117262
H	 3.2782597222	 5.0866684277	 0.6698559309	 0.100418
H	 3.4780008152	 3.3388827724	 2.5756644007	 0.101391
H	 4.2355998196	 0.9993856788	 1.5001720889	 0.09433
33.955	148.9334	178.6238	226.4616	273.4751	371.7117	530.9991	557.6696	571.296	696.2801	727.6069	758.2939	780.277	796.0991	838.1679	928.6743	935.8337	959.2145	964.6314	1017.6616	1023.597	1033.2991	1060.9958	1073.4971	1107.3377	1134.4534	1174.83	1187.9263	1252.9586	1297.3584	1307.9408	1345.0695	1375.0276	1397.0787	1432.234	1472.0033	1533.1257	1660.6478	1802.56	2930.7501	3017.9543	3047.1938	3164.8677	3179.192	3185.8948	3197.4044	3210.2445	3613.4524
O=CNC1C2CC=CC12	O=CN[C@H]1[C@H]2CC=C[C@@H]12	
InChI=1S/C7H9NO/c9-4-8-7-5-2-1-3-6(5)7/h1-2,4-7H,3H2,(H,8,9)	InChI=1S/C7H9NO/c9-4-8-7-5-2-1-3-6(5)7/h1-2,4-7H,3H2,(H,8,9)/t5-,6+,7-/m1/s1
