17
gdb 49209	4.12354	1.0061	0.84317	2.3181	77.46	-0.2506	-0.0621	0.1886	1307.9839	0.135795	-421.880524	-421.872355	-421.871411	-421.913881	30.168	
O	-0.1338529165	-0.0511706065	-0.0784095913	-0.270819
C	-0.0646783828	 1.1564487958	-0.0504270085	 0.093585
C	 1.1971757604	 1.9154184188	 0.0361737007	 0.212622
C	 1.1449659914	 3.2554663797	 0.0390833414	-0.128122
C	 2.3505740186	 4.1401091962	 0.144554116	-0.365968
C	 3.6752827887	 3.3812980404	 0.2576328582	 0.387303
O	 4.6366875197	 3.8738385666	 0.7958719295	-0.301642
C	 3.6829245845	 1.9976880515	-0.3679591693	-0.313124
C	 2.4927370887	 1.1493507937	 0.1166767169	-0.316958
H	-0.9801230119	 1.7887892671	-0.0919239572	 0.070813
H	 0.1753718581	 3.7476568571	-0.023765974	 0.108101
H	 2.4128138958	 4.7931497782	-0.7400270496	 0.149031
H	 2.2716969908	 4.8239280044	 0.9981196117	 0.149674
H	 3.5999096995	 2.1308390493	-1.4559613602	 0.125685
H	 4.642332394	 1.5209094474	-0.1579009482	 0.127857
H	 2.6596124633	 0.8237042919	 1.1518877975	 0.133763
H	 2.4047588378	 0.2294864285	-0.4683151436	 0.138197
56.2634	125.1995	147.7526	214.4159	301.1496	360.5624	403.4034	469.4635	477.4668	546.6974	632.9036	714.2699	745.3396	782.2265	804.2798	919.8338	953.3272	990.4582	1026.3986	1039.6159	1058.8432	1134.9677	1172.0749	1200.0125	1211.9099	1252.753	1312.7854	1335.8235	1345.2745	1398.6235	1427.9582	1432.0292	1464.7574	1485.1203	1708.3656	1791.8743	1827.1207	2878.1208	3002.0023	3017.6091	3031.2081	3060.6403	3090.2314	3116.9137	3139.0818
O=CC1=CCC(=O)CC1	O=CC1=CCC(=O)CC1	
InChI=1S/C7H8O2/c8-5-6-1-3-7(9)4-2-6/h1,5H,2-4H2	InChI=1S/C7H8O2/c8-5-6-1-3-7(9)4-2-6/h1,5H,2-4H2
