20
gdb 40676	3.91702	1.061	0.96583	2.5748	79.61	-0.2253	0.0712	0.2965	1276.4643	0.170782	-403.06453	-403.056067	-403.055123	-403.098256	31.841	
C	-0.2615306651	 0.8579560028	-0.4944444236	-0.227226
C	 0.9905853593	 1.1872589361	 0.2385752532	-0.212371
N	 0.467001105	-0.1768999671	 0.2308759126	-0.07873
C	-0.0506756783	-0.7016531564	 1.4691623517	-0.035858
C	-1.2412715704	-0.1550303265	 2.2449675369	-0.390651
C	-1.3329807082	-1.4605903123	 1.5029671837	 0.284668
C	-2.2399576844	-1.8259211954	 0.330884476	-0.134273
O	-2.4535714349	-3.1443194191	 0.8831187066	-0.277051
C	-1.6167318767	-2.8638663307	 2.026466412	-0.137387
H	-1.1906361859	 1.2453266444	-0.0837496464	 0.114659
H	-0.2578013174	 0.7509269695	-1.575386499	 0.120806
H	 1.923667152	 1.3375025025	-0.2966542639	 0.119166
H	 0.8839747387	 1.7641488444	 1.1553030654	 0.11408
H	 0.7554317424	-1.1036391546	 2.0792942511	 0.09855
H	-1.1895614033	-0.177232446	 3.3296257667	 0.113996
H	-1.8049355601	 0.6837418355	 1.8488425904	 0.116326
H	-3.1768732779	-1.2586383706	 0.2493790175	 0.097041
H	-1.7527890437	-1.8659715859	-0.6512143362	 0.112913
H	-0.7538356185	-3.5409697205	 2.0819099855	 0.102373
H	-2.1783008828	-2.9174710501	 2.9691368799	 0.098966
60.104	92.0396	141.307	171.0547	290.2477	311.4591	338.8705	457.5273	502.7423	613.4083	719.2749	818.4381	854.2937	867.1797	890.1163	892.9292	898.7479	960.1728	988.1786	1027.1643	1030.9128	1036.0655	1041.9753	1086.5318	1111.0377	1121.79	1132.3863	1142.9611	1153.4849	1164.9105	1174.5717	1187.2715	1228.3947	1307.2174	1318.9777	1338.6238	1380.0767	1431.1081	1485.0481	1500.7203	1509.8087	1518.7126	1534.3145	2994.3843	3006.8433	3038.6894	3049.8135	3100.3381	3108.5815	3120.7244	3129.5711	3182.5147	3196.4503	3204.6803
C1CN1C1CC11COC1	C1CN1[C@H]1CC21COC2	
InChI=1S/C7H11NO/c1-2-8(1)6-3-7(6)4-9-5-7/h6H,1-5H2	InChI=1S/C7H11NO/c1-2-8(1)6-3-7(6)4-9-5-7/h6H,1-5H2/t6-/m0/s1
