18
gdb 86693	2.08435	1.44745	0.93206	3.0982	79.96	-0.2345	-0.0236	0.2109	1259.878	0.14483	-401.891808	-401.882414	-401.88147	-401.926431	33.838	
C	 0.0003444068	 1.4788000174	 0.0021640762	-0.330371
N	-0.0270977706	 0.0371212476	 0.1080536635	-0.053188
C	-1.2615126448	-0.6376396625	 0.5363377358	-0.194932
C	-0.3962486858	-1.6917440776	 1.286917065	-0.138659
C	-0.1272590959	-2.9189181526	 0.4530479957	 0.177934
O	-0.2945190341	-4.0466370494	 0.8404819937	-0.257513
C	 0.7346018683	-0.606399706	 1.1991842548	-0.186799
C	 2.1049880226	-0.9932679842	 0.9056070172	 0.338659
C	 3.2405721863	-1.3153054557	 0.67834794	-0.421828
H	 1.0178416349	 1.8081900432	-0.2302104077	 0.135707
H	-0.6539507086	 1.8009703285	-0.8141689835	 0.128171
H	-0.3270328011	 1.9864210852	 0.9289583804	 0.094613
H	-1.8696389162	-0.0493080657	 1.2428926109	 0.097226
H	-1.902849315	-0.9877535214	-0.2796740052	 0.116333
H	-0.710744429	-1.9838752454	 2.2875245252	 0.100927
H	 0.2271117424	-2.7022077263	-0.578033776	 0.096993
H	 0.7177408014	-0.0068923742	 2.126960345	 0.093511
H	 4.2417104384	-1.6042407209	 0.4720216189	 0.203214
64.7288	88.3816	124.6047	160.7904	228.0867	273.7135	292.8015	333.8769	356.4573	443.9022	509.9572	542.9127	631.6462	668.1182	728.6029	813.1916	879.3289	926.1271	962.4844	999.8176	1057.669	1075.5152	1108.8344	1148.6481	1161.4321	1192.0256	1232.6127	1244.0006	1264.2876	1304.201	1328.236	1369.8858	1423.7213	1449.7175	1487.59	1497.4151	1518.9022	1830.6818	2235.7237	2903.5735	2931.8864	2935.654	2969.9227	3060.2025	3065.9976	3108.9909	3134.6594	3501.3583
CN1CC(C=O)C1C#C	CN1C[C@@H](C=O)[C@H]1C#C	
InChI=1S/C7H9NO/c1-3-7-6(5-9)4-8(7)2/h1,5-7H,4H2,2H3	InChI=1S/C7H9NO/c1-3-7-6(5-9)4-8(7)2/h1,5-7H,4H2,2H3/t6-,7+/m0/s1
