20
gdb 45558	3.34755	1.31403	1.1487	2.8517	77.65	-0.2211	-0.0176	0.2035	1125.7701	0.173427	-403.180413	-403.172602	-403.171657	-403.213495	30.216	
O	-0.3956770211	 0.2154405318	 0.6499468446	-0.306867
C	-0.2693624351	 1.2935516549	 0.1338154413	 0.399735
C	-1.2201260288	 1.939719342	-0.8782926329	-0.356932
C	-0.7357986569	 3.385845534	-0.9652562334	 0.026653
C	-1.3670916374	 4.3805486346	 0.0530928136	-0.22992
C	-0.1798663668	 5.247797469	 0.5490741437	-0.216175
C	 1.0575177556	 4.676179903	-0.2034073456	-0.172073
N	 0.7068763306	 3.3214258229	-0.6290253081	-0.080489
C	 0.8737102286	 2.280077628	 0.383701672	-0.279234
H	-1.0979128915	 1.4130948559	-1.8319793138	 0.137778
H	-2.2613921687	 1.8235638065	-0.5696250852	 0.131841
H	-0.8377348346	 3.7915622006	-1.9775975986	 0.078371
H	-2.1602011487	 4.9744251895	-0.4086483816	 0.103904
H	-1.8247486337	 3.8366670312	 0.8862442358	 0.102266
H	-0.318350777	 6.3109931334	 0.337095325	 0.102895
H	-0.0586052988	 5.1547292302	 1.6319350911	 0.106035
H	 1.2629120925	 5.2781227448	-1.0967690575	 0.103872
H	 1.9687572165	 4.6695728723	 0.4000559632	 0.105047
H	 0.7751548016	 2.6372810735	 1.4253838194	 0.111565
H	 1.8441367538	 1.7781553618	 0.308248847	 0.131728
57.3311	77.0334	154.2182	304.8634	327.4697	466.6242	481.2358	525.4046	622.4013	660.3239	665.0686	761.4695	789.2635	819.5171	842.2498	890.4462	910.5014	912.2466	989.7983	1020.0914	1047.1911	1081.9665	1102.1623	1119.4804	1162.1328	1186.4914	1209.1837	1211.7182	1227.1661	1255.1443	1286.1413	1294.2465	1316.5505	1338.6852	1346.6136	1367.8635	1374.6955	1445.679	1480.5047	1490.9546	1500.2948	1516.4617	1856.7941	2938.0605	3029.713	3034.5416	3045.0051	3053.0382	3061.2492	3061.9485	3085.802	3096.8881	3110.1675	3113.5574
O=C1CC2CCCN2C1	O=C1C[C@H]2CCCN2C1	
InChI=1S/C7H11NO/c9-7-4-6-2-1-3-8(6)5-7/h6H,1-5H2	InChI=1S/C7H11NO/c9-7-4-6-2-1-3-8(6)5-7/h6H,1-5H2/t6-/m1/s1
