20
gdb 32855	3.45887	0.98572	0.82036	1.175	83.3	-0.1749	0.0678	0.2427	1462.1441	0.170581	-403.185325	-403.17571	-403.174766	-403.220191	35.289	
C	 0.8806950105	 1.0282847348	-0.8445020248	-0.386212
C	-0.2938317414	 0.1585851231	-0.4104920171	-0.057711
O	 0.122424522	-1.0426881334	 0.2390144023	-0.273939
C	 0.54095862	-2.0472828372	-0.5638779405	 0.421977
C	 0.6108750254	-2.2315094439	-1.9262791968	-0.393547
C	 1.1266809111	-3.5553573657	-2.1404160309	 0.291547
C	 1.3802972869	-4.2021712979	-3.4679585936	-0.498651
C	 1.3467068053	-4.1112122291	-0.9072235346	-0.186411
N	 0.9888948191	-3.1793234279	 0.0536441602	-0.331843
H	 1.4972009949	 1.2968562187	 0.0181915929	 0.126639
H	 1.5098884191	 0.5074303094	-1.5702436636	 0.138979
H	 0.5114766594	 1.9501771202	-1.3055461573	 0.116714
H	-0.9039515173	 0.6795828255	 0.3326137838	 0.111711
H	-0.9407832111	-0.0917484823	-1.2609968847	 0.112269
H	 0.3361371864	-1.521220995	-2.6892548929	 0.087335
H	 2.1068977555	-3.6377237061	-4.0651494865	 0.11884
H	 1.7736448327	-5.215463676	-3.342534051	 0.115233
H	 0.4649459911	-4.2754334928	-4.0678172913	 0.119323
H	 1.7278277337	-5.079320789	-0.6258147571	 0.108977
H	 1.0205654667	-3.2981004255	 1.0505482034	 0.258771
53.1245	93.7626	123.7566	174.1184	202.5809	241.1679	294.0941	334.0963	386.7985	432.9093	509.339	586.8695	631.2043	650.3903	690.2956	721.183	753.0367	818.1071	901.7077	983.4908	999.3967	1008.2405	1064.1781	1073.6805	1115.7678	1119.8708	1177.5165	1209.9243	1265.5198	1311.763	1326.944	1393.9468	1408.3084	1417.8109	1420.7431	1479.5631	1481.8018	1486.5246	1496.266	1508.8566	1510.8279	1581.4719	1635.6284	3018.6964	3027.2245	3044.4155	3063.9062	3088.5477	3100.3656	3114.8898	3132.9127	3254.07	3264.2529	3690.5647
CCOC1=CC(C)=CN1	CCOc1cc(C)c[nH]1	
InChI=1S/C7H11NO/c1-3-9-7-4-6(2)5-8-7/h4-5,8H,3H2,1-2H3	InChI=1S/C7H11NO/c1-3-9-7-4-6(2)5-8-7/h4-5,8H,3H2,1-2H3
