17
gdb 13698	4.4078	0.92488	0.8119	2.8857	75.07	-0.2435	0.0231	0.2666	1401.4677	0.140911	-363.799885	-363.790738	-363.789793	-363.835206	31.733	
C	-0.3679597083	 1.4535009192	 0.199526302	-0.397277
C	-0.0156060762	-0.0098949779	 0.1245675627	 0.020224
N	 1.3560340723	-0.3454119391	-0.2634550266	-0.31952
C	 0.8997922481	-0.6734922835	 1.113040179	-0.256528
C	 1.5051415477	 0.0365245138	 2.2047123691	 0.118931
C	 2.001616649	 0.6200363165	 3.1359042696	 0.077316
C	 2.5588380593	 1.330515738	 4.2851237846	-0.19381
O	 1.6873534927	 2.3167234188	 4.8237078448	-0.402344
H	 0.4550229498	 2.0248863546	 0.6335275564	 0.144231
H	-0.5729735548	 1.8485391095	-0.8009398468	 0.12106
H	-1.2607545622	 1.605711147	 0.8151814459	 0.11647
H	-0.807908934	-0.6548802456	-0.2548545722	 0.087011
H	 1.3761045487	-1.1972533028	-0.8185465762	 0.234337
H	 0.6858796453	-1.7204039083	 1.3202221186	 0.104629
H	 2.8579677609	 0.5989939173	 5.0532564359	 0.116793
H	 3.4680738287	 1.8666736204	 3.9909720735	 0.142557
H	 0.8337266731	 1.8955246819	 4.9683368298	 0.285917
23.6873	71.7031	116.7544	167.7035	198.3306	254.7562	323.4992	360.9158	393.6801	462.813	552.9036	613.491	743.3749	777.9947	855.7148	916.6775	978.5137	986.5268	1007.718	1041.7944	1068.0477	1125.8627	1155.4485	1203.4853	1215.6668	1245.6504	1265.2546	1356.3021	1391.6589	1417.7193	1421.1431	1452.5741	1487.4357	1491.0842	1495.5547	2355.7006	2973.4165	3039.1495	3061.8639	3101.0707	3103.7284	3120.1704	3138.7718	3500.1622	3817.4804
CC1NC1C#CCO	C[C@H]1N[C@H]1C#CCO	
InChI=1S/C6H9NO/c1-5-6(7-5)3-2-4-8/h5-8H,4H2,1H3	InChI=1S/C6H9NO/c1-5-6(7-5)3-2-4-8/h5-8H,4H2,1H3/t5-,6+/m1/s1
