21
gdb 114325	2.24778	1.40419	1.24089	2.5522	79.01	-0.2351	0.0745	0.3095	1173.4599	0.181332	-424.189715	-424.1803	-424.179356	-424.22347	35.636	
C	-0.3287581652	 1.22774475	 0.0611558694	-0.24185
O	 0.2751329723	-0.0355202335	-0.1337231719	-0.258631
C	 0.7411734866	-0.6334682958	 1.0671446724	 0.058419
C	-0.3008240748	-1.2773931604	 2.0424374825	-0.271208
C	 0.4027207899	-2.6214596462	 1.8447793844	-0.151019
C	 0.3767835939	-2.9721261899	 0.3835623803	 0.089065
O	-0.6931236167	-2.666059322	-0.4610559589	-0.443957
C	 1.4106844358	-1.9845576192	 0.8387818646	 0.249537
C	 2.8908342972	-2.166215232	 0.6514617641	-0.506492
H	 0.3772732201	 1.9379949754	 0.5167836373	 0.111185
H	-0.6250059552	 1.6030762943	-0.9209202162	 0.132084
H	-1.219352571	 1.1626186832	 0.7020538621	 0.117133
H	 1.3997959569	 0.0722786465	 1.5933143121	 0.07405
H	-0.235360633	-0.8765979194	 3.0555101103	 0.100155
H	-1.3409764003	-1.2507317017	 1.7046325721	 0.108697
H	 0.59363798	-3.3540337594	 2.6202935689	 0.085054
H	 0.7894610395	-3.954413346	 0.1603779659	 0.092303
H	-0.5870773132	-1.7427433205	-0.7280416465	 0.293141
H	 3.2170210112	-1.7673622553	-0.316541901	 0.128273
H	 3.4616937644	-1.6512225401	 1.4333097727	 0.113294
H	 3.1663416518	-3.2250973479	 0.6815907556	 0.120768
100.2973	154.893	161.2299	190.9905	213.0317	222.8154	275.1705	299.863	404.7919	442.8368	472.3798	517.5472	589.7049	641.8104	771.8407	810.1535	839.2489	888.9779	957.1886	972.5211	1004.1544	1014.5539	1037.2804	1095.8551	1113.9543	1123.6498	1147.8853	1161.8813	1186.4421	1206.0645	1238.8447	1244.8308	1254.6746	1313.3277	1339.7286	1373.7547	1408.3497	1422.593	1464.1703	1481.1641	1486.8709	1487.7154	1492.0809	1499.3231	1508.8474	2985.5555	2998.835	3020.2184	3039.2965	3057.3915	3077.9442	3098.0754	3117.5163	3120.6541	3127.8787	3180.5873	3736.4804
COC1CC2C(O)C12C	CO[C@H]1C[C@H]2[C@@H](O)[C@@]12C	
InChI=1S/C7H12O2/c1-7-4(6(7)8)3-5(7)9-2/h4-6,8H,3H2,1-2H3	InChI=1S/C7H12O2/c1-7-4(6(7)8)3-5(7)9-2/h4-6,8H,3H2,1-2H3/t4-,5-,6+,7+/m0/s1
