14
gdb 124150	5.95461	0.87313	0.7651	2.1379	85.52	-0.2354	-0.0713	0.1641	1437.844	0.101038	-395.713508	-395.705393	-395.704449	-395.748524	27.876	
C	-0.0266921698	 1.4483905834	 0.0104743032	-0.509878
C	 0.0082107778	-0.0033827078	 0.0020250614	 0.283451
C	 0.033908414	-1.2082248815	-0.0045507264	-0.036163
C	 0.0607044625	-2.6330251598	-0.0121794036	 0.177703
N	 1.2638808068	-3.2413959646	-0.0223579836	-0.262761
C	 1.2189124823	-4.5633371985	-0.0289840893	-0.018656
C	-0.0002970843	-5.239725329	-0.0253712029	 0.018527
N	-1.1571154783	-4.5793878333	-0.0151610152	-0.174512
N	-1.1358831555	-3.2554627231	-0.0083744783	-0.222813
H	 0.9835507669	 1.87023942	 0.00297311	 0.159331
H	-0.560764247	 1.8307600807	-0.8662274401	 0.161967
H	-0.5434440061	 1.8209056284	 0.9016914035	 0.161979
H	 2.1665940995	-5.0974877853	-0.03733438	 0.13041
H	-0.0640422987	-6.3227447695	-0.0306496987	 0.131414
13.2038	86.4558	89.9592	215.0868	312.8949	372.3564	395.6234	435.9606	543.2949	586.2011	649.9405	778.3845	840.6841	891.9407	1005.3018	1010.8668	1043.3603	1046.1729	1053.7187	1091.1079	1118.7691	1173.5011	1334.5556	1380.8517	1411.0413	1448.2795	1471.1524	1472.6022	1556.5905	1581.4917	2364.9905	3031.8715	3094.2481	3100.0778	3154.1789	3194.0082
CC#CC1=NC=CN=N1	CC#Cc1nccnn1	
InChI=1S/C6H5N3/c1-2-3-6-7-4-5-8-9-6/h4-5H,1H3	InChI=1S/C6H5N3/c1-2-3-6-7-4-5-8-9-6/h4-5H,1H3
