25
gdb 92644	2.76029	1.32493	1.0571	0.1008	91.96	-0.2692	0.0805	0.3497	1274.8433	0.232446	-352.373283	-352.364758	-352.363814	-352.405909	34.933	
C	-0.2133407601	 1.5876965445	-0.0885558519	-0.419263
C	 0.0179134368	 0.087366826	 0.021720816	 0.046989
C	 1.0363580791	-0.6182157539	-0.9171934198	-0.258171
C	 1.3172470289	-1.6217547673	 0.2354239559	 0.049423
C	 2.6993306533	-2.2301335946	 0.475358615	-0.231222
C	 3.7094294006	-1.2403111677	 1.0760158401	-0.185033
C	 3.1074234338	-0.5038267124	 2.2804164058	-0.190689
C	 1.8925117484	 0.3254965696	 1.8399382773	-0.196931
C	 0.7786674853	-0.5470487779	 1.235385272	-0.026748
H	 0.7195479359	 2.156041955	-0.0231016634	 0.113182
H	-0.6782788554	 1.8344184567	-1.0498807403	 0.110971
H	-0.8807109666	 1.9497153769	 0.7020705237	 0.110849
H	-0.9471272454	-0.4253337608	-0.0709721276	 0.068218
H	 0.670583349	-1.0201309294	-1.8663091497	 0.086788
H	 1.8989125337	 0.0241819499	-1.1256452222	 0.094087
H	 0.5818027196	-2.430655117	 0.1607591469	 0.063984
H	 2.5902042637	-3.0699898599	 1.1754661168	 0.090297
H	 3.0873179394	-2.659958272	-0.456950887	 0.088644
H	 4.6204358254	-1.7762676804	 1.3648178361	 0.086747
H	 4.0128772078	-0.5007471568	 0.3223544361	 0.091211
H	 2.8109413868	-1.2329846311	 3.0478436741	 0.087925
H	 3.8569506725	 0.1489561578	 2.7419530621	 0.086388
H	 1.492246788	 0.9080842276	 2.6772894825	 0.08802
H	 2.2457422585	 1.0589231409	 1.1047615187	 0.092007
H	 0.1460167712	-0.9352543138	 2.0407689027	 0.052328
117.304	156.6242	198.6132	229.1336	306.3444	323.3445	367.1995	419.1783	449.2363	495.4189	590.6248	618.2476	742.1285	778.3337	805.7363	854.452	885.6504	896.3988	918.1996	934.7751	947.4137	990.4486	1019.7587	1033.3047	1058.3312	1078.5455	1107.1262	1134.2933	1138.6497	1165.3271	1179.0262	1213.2037	1237.2776	1258.849	1266.9121	1271.9493	1300.5251	1317.4618	1341.1492	1354.6365	1365.3553	1374.1789	1381.2219	1391.3238	1406.0738	1416.4789	1478.6022	1485.777	1488.3068	1495.6449	1497.4328	1500.072	1509.2132	3004.1603	3007.2366	3015.3161	3022.0111	3023.3135	3028.3208	3031.3224	3042.8285	3044.9023	3046.112	3060.9059	3062.0465	3068.7278	3086.3579	3094.1795	3103.3793
CC1CC2CCCCC12	C[C@H]1C[C@H]2CCCC[C@@H]12	
InChI=1S/C9H16/c1-7-6-8-4-2-3-5-9(7)8/h7-9H,2-6H2,1H3	InChI=1S/C9H16/c1-7-6-8-4-2-3-5-9(7)8/h7-9H,2-6H2,1H3/t7-,8+,9-/m0/s1
