17
gdb 88045	2.41146	1.41752	1.13464	5.0918	73.25	-0.2551	-0.0015	0.2536	1130.0682	0.135069	-417.956256	-417.947667	-417.946722	-417.98987	31.131	
C	-0.1973338167	 1.3518296852	-0.134055289	-0.326051
N	 0.1655915284	-0.0574346689	-0.0599043279	-0.104446
C	 1.5845878232	-0.4073066227	-0.1122842254	-0.31196
C	 0.7960661986	-0.538455777	 1.1343043578	 0.288592
C	 1.0009696906	 0.1339693439	 2.4929451698	-0.149474
O	 0.6533419923	-1.101115142	 3.166994974	-0.275138
C	 0.3701919696	-1.7853884536	 1.9295110826	-0.107817
C	-1.0379120417	-2.1732074247	 1.8025884457	 0.304676
N	-2.1478135239	-2.4770350297	 1.7007186746	-0.32215
H	 0.5341788338	 2.0231636977	 0.3450232841	 0.104263
H	-0.2857533386	 1.6374366567	-1.1856547056	 0.137342
H	-1.1706670793	 1.4984446816	 0.3427840053	 0.142403
H	 1.8389423432	-1.2788674015	-0.7100205232	 0.129332
H	 2.3151709702	 0.4017825197	-0.142874686	 0.116133
H	 2.0200445393	 0.4535147239	 2.7353228067	 0.120197
H	 0.2967279875	 0.9396916162	 2.7332863021	 0.123286
H	 1.0031622136	-2.6715811749	 1.8014342146	 0.130814
72.9802	96.1849	183.5651	200.7185	218.7962	259.8522	349.2057	417.4831	433.4882	525.5948	561.6063	616.7657	781.3569	855.4874	883.2318	922.2565	958.5354	1010.3891	1029.8471	1057.859	1083.9154	1117.5622	1139.6912	1151.9035	1163.6201	1203.6641	1226.2769	1240.9434	1325.6336	1347.3662	1435.6686	1453.2412	1492.5581	1497.5346	1519.69	1519.958	2359.6561	2970.8481	3026.0392	3041.6631	3075.4627	3081.4786	3083.6252	3120.1444	3175.0627
CN1CC11COC1C#N	CN1C[C@]21CO[C@H]2C#N	
InChI=1S/C6H8N2O/c1-8-3-6(8)4-9-5(6)2-7/h5H,3-4H2,1H3	InChI=1S/C6H8N2O/c1-8-3-6(8)4-9-5(6)2-7/h5H,3-4H2,1H3/t5-,6-,8?/m0/s1
