16
gdb 5132	3.65219	2.06609	1.34201	3.2929	67.79	-0.187	0.0368	0.2238	901.7142	0.131201	-379.981176	-379.973079	-379.972134	-380.013737	28.661	
C	-0.017253053	 1.4355179683	 0.0179767924	-0.346344
N	 0.0547809531	-0.0062186144	-0.0312912492	-0.109534
C	 0.1861735473	-0.8075644218	-1.1616791306	-0.118741
C	 0.213328505	-2.0926911138	-0.7526086366	-0.118741
N	 0.0987447519	-2.0978898107	 0.634488804	-0.109534
C	 0.0811325097	-3.2475954931	 1.5086096351	-0.346344
C	-0.0024019908	-0.7959421037	 1.1114498854	 0.476181
O	-0.1157394614	-0.42935319	 2.2706407711	-0.460845
H	 0.8898685182	 1.8937795204	-0.3909140634	 0.130285
H	-0.8839702777	 1.8101459475	-0.5374604906	 0.130283
H	-0.1171343766	 1.7136787188	 1.0685975553	 0.171255
H	 0.2479100486	-0.3880783584	-2.1510962538	 0.135127
H	 0.3031659639	-3.0040195357	-1.3184141095	 0.135127
H	-0.7638227103	-3.9070435064	 1.2822580834	 0.130284
H	 1.0099936193	-3.8228380175	 1.4287500481	 0.130284
H	-0.0208912672	-2.8711345795	 2.5279337889	 0.171255
104.7847	117.2115	129.3335	192.3184	264.3354	269.7724	314.0801	549.3034	582.0688	585.5882	642.6117	745.0764	753.9542	774.2753	808.7203	1025.3846	1051.1524	1069.4046	1117.4439	1157.4831	1159.3424	1252.1557	1316.4598	1326.4738	1373.605	1429.8923	1448.7659	1493.2159	1495.8302	1496.2207	1512.386	1516.3782	1633.1526	1801.2449	3027.4722	3028.5259	3083.0489	3083.1518	3144.8807	3145.2377	3273.7617	3295.1275
CN1C=CN(C)C1=O	Cn1ccn(C)c1=O	
InChI=1S/C5H8N2O/c1-6-3-4-7(2)5(6)8/h3-4H,1-2H3	InChI=1S/C5H8N2O/c1-6-3-4-7(2)5(6)8/h3-4H,1-2H3
