18
gdb 111078	2.40093	1.60742	1.28049	3.7417	71.84	-0.2277	-0.0104	0.2173	1054.9103	0.148338	-439.059011	-439.051058	-439.050114	-439.091859	30.149	
C	-0.2456021718	 1.3266469341	-0.0458607234	-0.247665
O	 0.2585012932	 0.0176390138	 0.145018962	-0.246596
C	 0.738860177	-0.5734840969	-1.0207958449	 0.15434
C	 1.1602209389	-2.0589099743	-0.9385140098	-0.078081
C	-0.0750089589	-2.7545186867	-0.3443065854	-0.312955
C	-1.125848264	-2.0489607405	-1.2251679054	 0.48367
O	-2.3208797184	-2.1390657011	-1.2151139678	-0.331772
C	-0.2301676058	-1.169532037	-2.1030266884	-0.195111
N	 0.8538665941	-2.1861457674	-2.416866611	-0.330935
H	 0.5248277295	 1.9972263205	-0.4552192404	 0.109642
H	-1.1122997935	 1.33330815	-0.7213319557	 0.123296
H	-0.5565278394	 1.697871671	 0.9325182097	 0.136986
H	 1.5106742375	 0.0446033152	-1.5056559805	 0.072915
H	 2.1449406481	-2.3692041919	-0.592326192	 0.081675
H	-0.0684302346	-3.8337698921	-0.5115056277	 0.133107
H	-0.2422413233	-2.5404073002	 0.7128718941	 0.138199
H	-0.6910861793	-0.6123477339	-2.9154444383	 0.085212
H	 1.5863695708	-1.6930784527	-2.9306325351	 0.224074
68.117	133.4488	184.3674	191.3212	295.4861	384.032	448.2445	471.1724	542.2927	620.0815	655.9395	773.0135	816.0777	836.152	861.6798	909.645	953.9467	977.0392	998.0218	1036.7453	1062.4217	1115.2782	1126.1697	1151.5733	1162.2688	1175.7923	1185.0767	1226.1561	1235.9945	1253.9006	1283.1739	1325.1729	1366.5707	1386.9902	1442.0923	1484.5105	1491.1673	1506.0784	1886.1486	2982.666	2990.3973	3042.6048	3082.4767	3128.2955	3130.5538	3140.268	3153.1979	3438.9544
COC1C2CC(=O)C1N2	CO[C@H]1[C@H]2CC(=O)[C@@H]1N2	
InChI=1S/C6H9NO2/c1-9-6-3-2-4(8)5(6)7-3/h3,5-7H,2H2,1H3	InChI=1S/C6H9NO2/c1-9-6-3-2-4(8)5(6)7-3/h3,5-7H,2H2,1H3/t3-,5+,6+/m1/s1
