20
gdb 17840	3.63415	1.51823	1.35015	1.5404	74.31	-0.2318	0.0782	0.31	1019.0736	0.176498	-348.963053	-348.954803	-348.953858	-348.995791	31.223	
C	 0.0063823742	 1.6649884673	 0.2679939528	-0.385344
C	-0.0268950659	 0.1589658627	-0.0270352104	 0.010435
C	 0.7697457304	-0.6361000539	 1.0178385453	-0.389055
C	-1.454661705	-0.3520895366	-0.1024289549	-0.008397
C	-2.4208033343	-0.1151674767	-1.2535108325	-0.16745
C	-1.7057437761	-0.2924626826	-2.5892996794	-0.092361
O	-1.1554708025	-1.5723169342	-2.1764857543	-0.283495
C	-1.8945297053	-1.5047553212	-0.9507916764	 0.068563
H	 1.0346474124	 2.0414055939	 0.2868037001	 0.109251
H	-0.5478686184	 2.2307323711	-0.4877599616	 0.111642
H	-0.444086641	 1.8848072838	 1.2435869205	 0.108304
H	 0.4419565266	-0.0167174472	-1.0016503188	 0.090533
H	 0.7668390858	-1.7055401575	 0.7858866058	 0.119399
H	 1.8114284194	-0.3009318786	 1.0567553893	 0.108656
H	 0.3428811988	-0.508001255	 2.0201096634	 0.106691
H	-1.9832470973	-0.3304886334	 0.8515905704	 0.083046
H	-3.4077415542	 0.3076344423	-1.1219243688	 0.095534
H	-2.3938523795	-0.4299354126	-3.4310273297	 0.10893
H	-0.9279903481	 0.4295696521	-2.8649461939	 0.105366
H	-2.36933157	-2.4156674437	-0.6030732969	 0.099751
57.4387	163.0303	176.2947	222.4294	244.7056	318.4121	325.5393	414.5832	502.9907	591.7204	749.1834	789.0381	807.9358	853.3215	913.8906	929.9684	959.744	964.1903	970.3739	995.8677	1019.9963	1053.1217	1074.9474	1087.3927	1125.9473	1144.7626	1165.5601	1188.523	1224.0474	1261.6027	1307.7055	1319.9268	1350.2403	1371.6914	1397.8915	1416.9026	1448.4489	1486.7995	1491.4898	1503.0459	1510.0575	1519.09	3022.2553	3023.7788	3026.2329	3046.4743	3070.086	3086.0502	3093.8265	3100.2748	3105.7495	3107.2987	3171.2135	3200.6546
CC(C)C1C2COC12	CC(C)[C@H]1[C@H]2CO[C@@H]12	
InChI=1S/C7H12O/c1-4(2)6-5-3-8-7(5)6/h4-7H,3H2,1-2H3	InChI=1S/C7H12O/c1-4(2)6-5-3-8-7(5)6/h4-7H,3H2,1-2H3/t5-,6+,7-/m1/s1
