21
gdb 113149	3.56268	0.74396	0.67647	1.8303	90.33	-0.2412	0.0374	0.2786	1784.2545	0.178613	-387.060313	-387.049163	-387.048219	-387.098379	38.656	
C	-0.0311661887	 1.489724435	-0.4334389625	-0.372833
C	 0.0269152723	 0.153883856	 0.3197523999	-0.22351
C	-1.3288311687	-0.5090809762	 0.3711921713	 0.044602
O	-1.8340833969	-1.0881558301	-0.8342408262	-0.286993
C	-1.5866681224	-1.9688924408	 0.2862697761	 0.170733
C	-0.4852343005	-2.9913929885	 0.0876350563	-0.471378
C	-2.7731530409	-2.486250727	 0.9336328595	 0.015213
C	-3.7436109037	-2.9466013449	 1.478982168	 0.123875
C	-4.92487842	-3.491349976	 2.1313445454	-0.503141
H	 0.9530569386	 1.9659511659	-0.4655272502	 0.113286
H	-0.3706618583	 1.3347693314	-1.4617735059	 0.135554
H	-0.7258485662	 2.1866776042	 0.0476379184	 0.116911
H	 0.7557458002	-0.5060490314	-0.1582495212	 0.103807
H	 0.3697949605	 0.318430454	 1.349463804	 0.102845
H	-2.0814623097	 0.0664966618	 0.9162083594	 0.08721
H	 0.3591552205	-2.5653467164	-0.4556058863	 0.128107
H	-0.1369493249	-3.3700744634	 1.0535110297	 0.128194
H	-0.8700160216	-3.8389924526	-0.487019112	 0.135031
H	-4.8195672283	-4.5669284182	 2.3106996023	 0.149694
H	-5.1068778665	-3.0085496615	 3.0978930101	 0.148922
H	-5.8177584549	-3.3443237811	 1.5137205841	 0.15387
18.8578	58.6918	86.3603	98.244	153.1482	195.9748	210.9205	261.4696	294.4828	322.2943	357.6186	397.2017	466.4542	543.9647	568.2977	658.3834	752.584	816.9453	853.9681	910.9205	971.8353	1025.9932	1051.3415	1053.2713	1063.9866	1082.395	1108.7019	1150.9225	1164.0605	1277.2318	1291.4661	1332.7304	1348.3637	1407.1613	1411.6154	1414.0437	1458.289	1473.6704	1476.5074	1477.8553	1485.6915	1498.1904	1499.6862	1510.2251	2367.7677	3027.5556	3031.0641	3037.3288	3048.5296	3073.3952	3088.1733	3090.063	3090.3019	3109.9152	3112.9881	3117.7678	3145.1892
CCC1OC1(C)C#CC	CC[C@H]1O[C@]1(C)C#CC	
InChI=1S/C8H12O/c1-4-6-8(3)7(5-2)9-8/h7H,5H2,1-3H3	InChI=1S/C8H12O/c1-4-6-8(3)7(5-2)9-8/h7H,5H2,1-3H3/t7-,8-/m1/s1
