14
gdb 127999	2.61885	1.67425	1.02782	1.6867	70.91	-0.246	-0.0722	0.1738	1084.9633	0.100652	-469.984871	-469.976883	-469.975939	-470.018267	28.407	
C	-0.1506246396	 1.4102750485	 0.0757344175	-0.326506
N	-0.1780098515	-0.0439291515	 0.0990882771	-0.288927
C	 0.6302191259	-0.6480729498	 0.85756381	 0.370364
O	 1.531319265	 0.0181033774	 1.6586141262	-0.294124
N	 2.4305153057	-0.658057648	 2.502599252	-0.088427
C	 2.3517971593	-1.9402709105	 2.473368733	 0.102646
N	 1.5086880757	-2.7406158503	 1.7297782476	-0.36054
C	 0.6876689343	-2.1148029219	 0.9588817984	 0.381005
O	-0.1680125439	-2.7800590477	 0.1993103256	-0.35685
H	 0.8315297815	 1.7902259742	-0.2340398135	 0.135703
H	-0.9058116696	 1.7688205705	-0.6259059769	 0.127303
H	-0.3569486526	 1.8335335373	 1.0673126668	 0.135702
H	 3.0514616803	-2.447770312	 3.1294662827	 0.149317
H	-0.0150727704	-3.7229679962	 0.3704253735	 0.313335
48.4643	108.499	191.8637	201.1677	222.3337	341.8749	508.7832	526.1796	558.0246	571.121	593.797	650.2768	731.6148	789.9277	921.2186	949.3506	958.2156	1040.0103	1098.7861	1101.3035	1158.3126	1198.9127	1306.7927	1350.8495	1433.213	1473.5381	1495.3295	1495.9096	1613.2452	1672.5335	1743.8006	3010.4277	3062.8344	3122.07	3198.3857	3732.1447
CN=C1ON=CN=C1O	C[N]C1=C([N]C=NO1)O	
InChI=1S/C4H5N3O2/c1-5-4-3(8)6-2-7-9-4/h2H,1H3,(H,6,7,8)	InChI=1S/C4H5N3O2/c1-5-4-3(8)6-2-7-9-4/h2H,1H3,(H,6,7,8)
