16
gdb 24000	3.33679	1.42521	1.01149	2.3491	89.13	-0.1938	0.0065	0.2004	1131.8193	0.125414	-363.587992	-363.580306	-363.579362	-363.620435	29.285	
C	-0.0210154795	-1.2432078538	-0.0957514597	-0.47632
C	-0.0625322709	-0.0412122772	-0.0071467029	 0.299091
C	-0.0990761605	 1.3602168743	 0.0984457783	 0.099549
C	-1.1544526676	 2.270736915	-0.0429028248	-0.245621
C	-0.6832809823	 3.5983545694	 0.159843262	-0.312251
C	 0.6653572139	 3.4600949231	 0.4235410226	 0.326498
C	 2.088061302	 3.8875133931	 0.7491388027	-0.380667
C	 2.4183680215	 2.3441026829	 0.6923836718	-0.170233
N	 0.9935688166	 2.14749452	 0.3845141275	-0.056287
H	 0.0078788856	-2.301150238	-0.1754451828	 0.186161
H	-2.1694487397	 1.9838728403	-0.2728761184	 0.103612
H	-1.2689065433	 4.5024005987	 0.1133454281	 0.103093
H	 2.5970076157	 4.4873087849	-0.0095928603	 0.128421
H	 2.2411894856	 4.3471651656	 1.728793628	 0.128435
H	 3.0911159674	 2.032799999	-0.1108126759	 0.133245
H	 2.7329571454	 1.8920755926	 1.6364884237	 0.133274
82.286	133.6746	137.8398	249.4553	395.0694	453.0918	494.6642	563.7113	585.1619	626.5355	652.6777	671.7531	724.3977	760.3137	808.2809	823.2661	832.7492	898.9497	1033.6662	1051.5257	1057.621	1141.047	1143.2887	1175.9112	1225.0164	1234.7246	1268.6245	1320.0669	1395.1815	1453.2353	1478.9467	1491.2154	1523.5157	1570.5152	2223.1403	3060.7969	3066.1001	3105.8776	3120.7736	3247.277	3263.915	3504.5898
C#CC1=CC=C2CCN12	C#Cc1ccc2CCn12	
InChI=1S/C8H7N/c1-2-7-3-4-8-5-6-9(7)8/h1,3-4H,5-6H2	InChI=1S/C8H7N/c1-2-7-3-4-8-5-6-9(7)8/h1,3-4H,5-6H2
