17
gdb 96818	3.18099	1.06602	0.89893	3.6843	77.23	-0.2421	0.01	0.2521	1309.7575	0.135609	-414.176551	-414.166839	-414.165895	-414.211742	33.842	
C	-0.4570448801	 1.3688455784	-0.0826966457	-0.341216
N	-0.3875520404	-0.080793621	-0.1908628567	-0.32007
C	 0.5169184645	-0.585670583	-0.9038424772	 0.402395
N	 1.5862259687	-0.0981667358	-1.6667803785	-0.336641
C	 2.0195653795	-1.4139992951	-2.1410583356	-0.148978
C	 3.3967946437	-1.7600716397	-1.7887444608	 0.312405
N	 4.485932371	-2.0260126116	-1.5092350741	-0.323572
C	 0.8796507359	-2.0447822235	-1.2344422841	-0.099688
N	 1.2918422606	-2.9791675758	-0.2230189896	-0.502516
H	 0.5163908765	 1.8686481233	-0.2014446275	 0.103541
H	-1.1434744439	 1.7797627206	-0.8349412069	 0.12381
H	-0.8579642396	 1.6389669912	 0.8984956084	 0.131284
H	 1.6685753492	 0.7721295817	-2.1688735018	 0.25681
H	 1.8694405115	-1.5929264729	-3.2114312594	 0.12796
H	 0.1134365767	-2.512893159	-1.857811652	 0.118589
H	 1.8770926816	-2.5288179716	 0.4742565601	 0.246524
H	 0.4796386046	-3.3466227662	 0.2607702715	 0.249364
57.1042	76.8313	133.9133	151.275	188.9016	212.039	265.2	296.9722	310.0926	408.3164	494.4586	544.5623	622.3043	685.6885	752.7744	807.6411	842.5231	923.7543	984.8188	1034.576	1065.7932	1113.13	1125.1003	1161.5881	1163.9728	1201.442	1238.5175	1259.2122	1341.4417	1375.8722	1421.4283	1439.0775	1488.0554	1506.8877	1666.1827	1826.5147	2359.8813	2982.8021	3045.6838	3047.3329	3086.4651	3092.2195	3506.5541	3589.0262	3627.7241
CN=C1NC(C#N)C1N	CN=C1N[C@@H](C#N)[C@H]1N	
InChI=1S/C5H8N4/c1-8-5-4(7)3(2-6)9-5/h3-4H,7H2,1H3,(H,8,9)	InChI=1S/C5H8N4/c1-8-5-4(7)3(2-6)9-5/h3-4H,7H2,1H3,(H,8,9)/t3-,4+/m0/s1
