18
gdb 95032	2.45093	2.04274	1.48337	2.9616	69.36	-0.2318	0.0632	0.295	923.5821	0.150473	-439.029718	-439.022731	-439.021787	-439.06104	28.43	
O	 0.0177816042	 1.4531757803	 0.1995087762	-0.43851
C	 0.0049266065	 0.0554822625	 0.015587692	 0.093321
C	 0.7660711739	-0.709315064	 1.1434308798	-0.098984
O	 0.0121299934	-1.8640170327	 1.5146403875	-0.266658
C	-1.3155351647	-1.7189497186	 1.0880948584	 0.12116
C	-2.3458086197	-0.9492182359	 1.9457301873	-0.08778
N	-1.8427579945	 0.4341001586	 2.1554469372	-0.356942
C	-2.4940449216	 0.0764297342	 0.8709618693	-0.058055
C	-1.4025741155	-0.5937650816	 0.0163113628	-0.094997
H	-0.4087559191	 1.5963002614	 1.0565395702	 0.292624
H	 0.4895200632	-0.1169158287	-0.9492932997	 0.089498
H	 1.7553587712	-1.0542186861	 0.8245836748	 0.099313
H	 0.8904083817	-0.0341047001	 1.9979324301	 0.105522
H	-1.7047484687	-2.696189971	 0.7888960825	 0.085258
H	-3.08086892	-1.3601766503	 2.6269274191	 0.096643
H	-2.5342620005	 0.9118747347	 2.7313769982	 0.237753
H	-3.3741569257	 0.60418793	 0.52830871	 0.101848
H	-1.7408411642	-0.9110566128	-0.9694860359	 0.078986
118.6288	163.2576	239.9343	346.613	433.6426	502.4443	567.7711	587.342	634.2568	704.4071	741.4245	789.7022	826.422	852.3286	903.8172	915.3123	947.8826	971.9203	999.9271	1014.4132	1034.3381	1069.762	1101.7975	1107.2508	1124.1089	1142.4372	1182.4702	1219.5937	1234.5591	1243.7625	1287.8257	1302.4703	1321.4944	1342.3978	1357.3666	1372.4596	1397.5422	1463.1395	1512.6377	3029.4418	3061.9096	3071.9517	3082.0157	3118.5778	3186.8176	3207.3871	3482.4679	3730.3932
OC1COC2C3NC3C12	O[C@H]1CO[C@H]2[C@H]3N[C@H]3[C@@H]12	
InChI=1S/C6H9NO2/c8-2-1-9-6-3(2)4-5(6)7-4/h2-8H,1H2	InChI=1S/C6H9NO2/c8-2-1-9-6-3(2)4-5(6)7-4/h2-8H,1H2/t2-,3+,4-,5-,6+/m0/s1
