21
gdb 102089	2.16113	1.28081	0.9528	2.3419	78.96	-0.245	-0.0243	0.2208	1326.6809	0.178913	-424.220265	-424.209829	-424.208885	-424.256629	37.147	
C	 0.1358420033	 1.52225171	 0.2371060507	-0.394747
C	 0.227582096	-0.0036141102	 0.1354626973	-0.197266
C	 0.6214072555	-0.5088286621	-1.2755269223	-0.129821
C	 2.0124745776	 0.0090044852	-1.596923323	 0.142762
O	 2.2616760336	 0.8293720505	-2.4435913528	-0.261797
C	 0.5526192521	-2.0380675112	-1.3650646358	 0.395173
C	-0.8286059783	-2.6520258628	-1.2678845521	-0.465852
C	 1.6071561055	-2.7966518185	-2.0588215808	-0.236577
O	 1.573721649	-2.7314425847	-0.6291554734	-0.273535
H	 1.0886901768	 2.006887675	 0.0033779776	 0.133047
H	-0.6110826299	 1.9197118796	-0.4583771982	 0.122098
H	-0.1531902905	 1.8239111821	 1.248165539	 0.117025
H	 0.9554388723	-0.3917462704	 0.858238886	 0.120089
H	-0.7376458623	-0.440457376	 0.4100759359	 0.107168
H	-0.0594630354	-0.0825355963	-2.0217662085	 0.092498
H	 2.8123787651	-0.4142901887	-0.9493046595	 0.097841
H	-1.4753235424	-2.2742291971	-2.0667928281	 0.126662
H	-0.7631304321	-3.7390226291	-1.3579261595	 0.130414
H	-1.3049178059	-2.424090436	-0.3102685471	 0.133331
H	 1.3713143773	-3.770517738	-2.4857376893	 0.115594
H	 2.4416464227	-2.2823775813	-2.533928766	 0.125894
41.9405	59.7359	79.8817	174.8098	179.3934	204.7982	256.6892	298.3317	322.3262	373.162	404.4253	446.3792	466.0776	538.3182	751.1574	770.8807	847.315	880.6629	918.1115	923.3842	968.5992	1011.648	1029.2441	1074.8683	1089.2174	1132.8235	1136.6622	1159.4706	1172.9164	1219.6996	1263.7338	1318.6152	1334.7305	1362.1567	1383.8189	1414.9974	1418.2509	1423.1407	1482.6015	1489.1989	1498.7675	1500.1575	1505.5205	1536.6734	1827.1002	2887.2107	3036.6559	3038.2529	3043.8853	3049.9805	3077.0961	3083.1962	3106.8142	3111.5687	3114.0272	3125.7954	3167.0107
CCC(C=O)C1(C)CO1	CC[C@@H](C=O)[C@@]1(C)CO1	
InChI=1S/C7H12O2/c1-3-6(4-8)7(2)5-9-7/h4,6H,3,5H2,1-2H3	InChI=1S/C7H12O2/c1-3-6(4-8)7(2)5-9-7/h4,6H,3,5H2,1-2H3/t6-,7+/m0/s1
