18
gdb 15409	4.57152	0.94826	0.83877	2.6867	71.18	-0.2486	-0.0198	0.2288	1361.244	0.151746	-384.923148	-384.914215	-384.913271	-384.957583	30.962	
C	 0.0769712833	 1.365668377	 0.19046119	-0.228644
O	-0.0122082334	-0.0384587984	 0.2483435689	-0.230623
C	-1.2671207269	-0.5242875391	-0.1768432458	-0.082273
C	-1.2138891603	-2.0308179629	-0.1223334204	-0.012042
C	-1.5863322684	-2.7838293094	 1.1066440727	-0.291891
C	-2.4737964025	-2.8986163885	-0.1294417487	-0.116457
C	-3.8299208792	-2.3065944023	-0.090410222	 0.162744
O	-4.7793423165	-2.7433258452	-0.693733794	-0.268919
H	 1.0774553317	 1.6434295958	 0.5300692372	 0.130235
H	-0.0694287834	 1.7433523625	-0.8339727112	 0.106405
H	-0.6670576758	 1.8502884738	 0.8426823655	 0.105063
H	-2.0690301782	-0.1272663686	 0.4670618738	 0.086938
H	-1.4819741813	-0.1848176939	-1.2047723897	 0.095621
H	-0.4000406977	-2.4417922539	-0.7125597893	 0.110911
H	-1.0171630799	-3.6606053019	 1.391789891	 0.130981
H	-1.9860936985	-2.2152601629	 1.9410736221	 0.126047
H	-2.4230267695	-3.8148085926	-0.707562731	 0.109981
H	-3.9345351638	-1.4131943596	 0.5677508408	 0.065922
65.7499	87.2502	91.4274	155.0542	228.4341	257.8588	271.1576	369.067	413.3582	458.5957	537.8637	821.2583	847.335	878.5853	913.905	957.9256	999.7376	1041.3189	1049.709	1076.7838	1135.4638	1154.2127	1167.8271	1188.4757	1198.8504	1219.6818	1240.5197	1276.0157	1339.5011	1382.8385	1431.4353	1456.5328	1481.1454	1485.1943	1490.8036	1503.7473	1527.2142	1816.3082	2859.9155	2952.8932	2971.1995	2984.0035	3013.4504	3117.4484	3133.4427	3155.3463	3179.0454	3223.9498
COCC1CC1C=O	COC[C@H]1C[C@H]1C=O	
InChI=1S/C6H10O2/c1-8-4-6-2-5(6)3-7/h3,5-6H,2,4H2,1H3	InChI=1S/C6H10O2/c1-8-4-6-2-5(6)3-7/h3,5-6H,2,4H2,1H3/t5-,6+/m0/s1
