14
gdb 27628	3.00841	1.31713	0.92204	6.0965	72.65	-0.2262	-0.0251	0.2011	1185.1754	0.10176	-432.929305	-432.921068	-432.920123	-432.962111	29.914	
C	 0.1433990149	 1.4726375738	 0.059860869	-0.503255
C	-0.0235655942	 0.0043999923	-0.0043690573	 0.264924
C	-1.0843450161	-0.83993904	-0.1166847454	 0.087001
N	-0.6522840447	-2.1720943187	-0.1178812434	-0.385268
C	 0.6328581633	-2.0633974878	-0.0173177957	 0.45711
N	 1.571967991	-3.0545411926	-0.0437088894	-0.593825
O	 1.1005509777	-0.7881690459	 0.0591868853	-0.206698
C	-2.4491516661	-0.4670487029	-0.2124353668	 0.209223
N	-3.5543895466	-0.1297219429	-0.2876952293	-0.346427
H	 0.7638554324	 1.8405996616	-0.7649396446	 0.151212
H	-0.8361332659	 1.9510052566	-0.0029486041	 0.165532
H	 0.6210496973	 1.7805606094	 0.9968209873	 0.149045
H	 1.1938935063	-3.9722818178	 0.1367890439	 0.280113
H	 2.4309765807	-2.854580415	 0.4460770905	 0.271315
137.8237	141.7248	152.7575	205.4079	265.6931	308.9213	339.6551	426.2254	518.7424	538.071	568.2148	598.9796	657.4499	708.3616	755.0035	817.6799	959.961	1013.2031	1063.793	1118.8635	1152.7823	1244.4167	1326.1953	1414.0172	1430.3127	1470.1858	1485.3999	1606.9764	1650.4362	1705.5057	2348.9026	3033.359	3085.9741	3138.0486	3584.0355	3694.3978
CC1=C(N=C(N)O1)C#N	Cc1c(nc(N)o1)C#N	
InChI=1S/C5H5N3O/c1-3-4(2-6)8-5(7)9-3/h1H3,(H2,7,8)	InChI=1S/C5H5N3O/c1-3-4(2-6)8-5(7)9-3/h1H3,(H2,7,8)
