20
gdb 68850	2.39993	1.80393	1.40615	1.8474	77.87	-0.2299	0.079	0.3088	1014.4988	0.171969	-403.124959	-403.116855	-403.115911	-403.156921	32.959	
C	-0.0808439836	 1.5091648804	 0.1427296278	-0.490784
C	-0.0343633891	 0.0031897671	 0.0666895589	 0.279121
C	 1.2840402479	-0.6737102699	-0.2936441507	-0.384112
C	 0.7468035046	-0.8077292805	 1.095804814	 0.422458
O	 1.4652441876	-0.2114213959	 2.129923856	-0.476843
C	-0.0456375584	-2.044048711	 1.3934860975	-0.149722
N	-1.3367754288	-1.6935498455	 2.0354425971	-0.354279
C	-1.2866752112	-2.0051139717	 0.5854115908	-0.017813
C	-1.3088381071	-0.764354533	-0.3022259124	-0.295929
H	 0.8329975726	 1.9008954627	 0.598509981	 0.126364
H	-0.1868115002	 1.961594585	-0.8501610932	 0.113099
H	-0.9294351465	 1.843142699	 0.7512073599	 0.115711
H	 1.2830089726	-1.5412900059	-0.9475248274	 0.103291
H	 2.1422169474	-0.0200682217	-0.4087502886	 0.119311
H	 0.8281094776	-0.0206903852	 2.8299393453	 0.287953
H	 0.4518042771	-2.9708662512	 1.6647770054	 0.087931
H	-1.6909976352	-2.509249738	 2.5304725023	 0.2291
H	-1.7588806921	-2.9212047006	 0.2457678875	 0.085339
H	-2.2020271998	-0.1614785075	-0.1036461284	 0.104509
H	-1.3315746252	-1.0458770666	-1.3624191128	 0.095293
145.0517	196.3428	199.5599	223.8515	354.9138	379.9148	414.6337	419.4413	477.2314	510.2559	558.584	644.5167	708.4226	778.7298	808.3569	870.5926	891.5984	913.7635	931.111	942.1832	963.8211	986.752	1003.162	1061.3477	1061.7837	1112.227	1132.2383	1148.6541	1174.8146	1216.0546	1241.6297	1259.8354	1281.4459	1301.9512	1360.5034	1378.1871	1406.7024	1411.8688	1433.2455	1478.1965	1486.9945	1495.3583	1504.3494	3021.6836	3025.8943	3067.5594	3079.3081	3109.3927	3118.7088	3149.5373	3165.6854	3210.7938	3492.032	3774.901
CC12CC1(O)C1NC1C2	C[C@@]12C[C@]1(O)[C@H]1N[C@H]1C2	
InChI=1S/C7H11NO/c1-6-2-4-5(8-4)7(6,9)3-6/h4-5,8-9H,2-3H2,1H3	InChI=1S/C7H11NO/c1-6-2-4-5(8-4)7(6,9)3-6/h4-5,8-9H,2-3H2,1H3/t4-,5-,6+,7-/m0/s1
