20
gdb 57889	2.72466	1.29746	1.01306	2.3536	77.68	-0.2319	0.0216	0.2534	1243.0816	0.168815	-440.291982	-440.281768	-440.280824	-440.327689	36.829	
C	 0.6194293402	 0.6671539984	 1.2225473504	-0.332266
N	 0.2767638056	-0.6618325787	 0.7366244536	-0.102802
C	 0.1926567585	-1.6789863695	 1.7753259434	-0.350552
C	 0.4426974988	-0.901819054	-0.6045607001	 0.33884
O	 0.8870555693	-0.0470230928	-1.359540511	-0.390905
C	 0.0436700811	-2.2575544431	-1.1688876628	 0.266283
O	-0.9880784095	-2.9817352688	-0.5477037433	-0.45829
C	 0.1957333794	-2.4262239117	-2.6607418544	-0.294473
C	 1.1579673058	-3.1109963261	-1.7261095748	-0.28388
H	 1.6427024338	 0.6984027375	 1.6223469185	 0.120236
H	 0.5492037403	 1.3770081206	 0.4007860091	 0.161396
H	-0.0706814468	 0.947312046	 2.0255363797	 0.116039
H	 1.1500225061	-1.7611255085	 2.3096231164	 0.116391
H	-0.5726989234	-1.3966196367	 2.5084507319	 0.119896
H	-0.0743424091	-2.6431738646	 1.3550217905	 0.173608
H	-1.814922933	-2.5154370088	-0.7140224733	 0.287668
H	-0.5546726391	-3.0445965586	-3.1395070662	 0.111425
H	 0.5432855932	-1.5644350649	-3.2144429927	 0.146802
H	 2.1685548718	-2.7259064079	-1.6575333105	 0.130168
H	 1.0500375573	-4.1790291979	-1.5745648143	 0.124416
33.8788	90.665	108.3717	145.5708	218.9357	248.4822	274.6552	318.9464	336.4377	350.8021	405.1228	421.1711	526.3028	538.853	698.1995	751.9596	786.2471	846.9794	919.0018	939.7553	968.5806	1003.3398	1056.8047	1081.1348	1086.1317	1130.5223	1144.7481	1180.026	1201.1441	1257.0756	1270.7772	1306.0366	1353.6145	1420.585	1438.4179	1441.4802	1468.904	1480.6568	1491.4691	1494.8717	1509.9024	1540.4606	1728.0232	3000.4213	3010.3163	3053.5217	3071.618	3141.1855	3150.3048	3171.3266	3201.93	3233.3394	3256.2112	3796.1813
CN(C)C(=O)C1(O)CC1	CN(C)C(=O)C1(O)CC1	
InChI=1S/C6H11NO2/c1-7(2)5(8)6(9)3-4-6/h9H,3-4H2,1-2H3	InChI=1S/C6H11NO2/c1-7(2)5(8)6(9)3-4-6/h9H,3-4H2,1-2H3
