17
gdb 84903	2.89762	1.39921	1.07248	5.1958	74.27	-0.2524	-0.0045	0.2479	1113.1854	0.13793	-418.013803	-418.005736	-418.004791	-418.046371	30.742	
O	 0.094977405	 1.4249802383	-0.0337041367	-0.423101
C	 0.0462509062	 0.0108807312	-0.023311576	 0.117449
C	 0.7848392461	-0.5697677327	 1.1607667919	-0.103777
C	 0.1535571832	-1.0400774574	 2.2347519054	-0.032132
C	-1.3435738468	-1.0338818008	 2.3637539118	-0.220545
N	-1.9457495954	-0.1806251773	 1.3388552843	-0.321844
C	-1.4160831154	-0.4992319183	 0.0082999099	-0.162501
C	-2.2361335591	 0.1381820297	-1.0253985716	 0.284413
N	-2.9100135311	 0.6030885877	-1.8399207825	-0.318148
H	-0.3933982577	 1.7106605872	 0.7502259081	 0.286355
H	 0.5149993243	-0.3077687485	-0.9597911015	 0.104195
H	 1.8693128578	-0.5547154355	 1.1115447461	 0.104945
H	 0.7089529563	-1.4547484479	 3.071274324	 0.104251
H	-1.7129184721	-2.0777323558	 2.323387782	 0.104831
H	-1.6303853427	-0.6443460675	 3.3479398912	 0.125373
H	-2.9556599586	-0.2621099798	 1.3512527353	 0.241248
H	-1.41108236	-1.5850739624	-0.2009038218	 0.108988
102.8999	142.511	173.6538	252.0264	283.8182	362.8033	433.3053	452.6638	491.7139	514.4652	567.6748	674.6145	731.9923	755.2538	840.1569	893.0693	920.3184	992.2249	994.2491	1018.5815	1055.428	1071.093	1098.7529	1126.4083	1205.4417	1242.2449	1248.3277	1317.2725	1324.4031	1357.3197	1383.3795	1406.6058	1431.3807	1483.1936	1491.5505	1720.4009	2367.8492	2910.0164	2930.993	3046.9457	3067.6808	3163.7536	3186.0974	3545.1175	3764.8015
OC1C=CCNC1C#N	O[C@H]1C=CCN[C@H]1C#N	
InChI=1S/C6H8N2O/c7-4-5-6(9)2-1-3-8-5/h1-2,5-6,8-9H,3H2	InChI=1S/C6H8N2O/c7-4-5-6(9)2-1-3-8-5/h1-2,5-6,8-9H,3H2/t5-,6-/m0/s1
