20
gdb 96254	2.51268	1.53911	1.09068	1.763	76.18	-0.2542	0.0029	0.2571	1150.6184	0.172174	-440.286329	-440.277912	-440.276968	-440.319086	32.427	
C	 0.1439272647	 1.5809592781	 0.0875537247	-0.397259
C	 0.0046670192	 0.0648934753	 0.00799906	 0.134643
C	 0.6428305941	-0.5099459893	-1.2647609873	-0.19629
C	 0.8367677397	-2.032498137	-1.2313479905	-0.169527
N	-0.4239962187	-2.7381528393	-1.0155214131	-0.205446
C	-0.758326541	-3.0196089024	 0.1658802463	 0.090764
O	-0.0324014806	-2.7749607369	 1.3105669518	-0.234153
C	-0.1026502366	-1.4582513823	 1.8645283661	 0.007761
O	 0.6207345044	-0.4945017301	 1.1808976396	-0.23928
H	 1.1995284871	 1.8592977817	 0.1643821248	 0.128643
H	-0.2738520303	 2.0549364311	-0.8060561344	 0.117788
H	-0.3779103422	 1.9731459931	 0.9647775847	 0.117667
H	-1.0616256135	-0.2007309861	 0.0198998647	 0.080034
H	 0.0153060134	-0.2268890775	-2.1182028616	 0.108349
H	 1.626291877	-0.0496325208	-1.4185114574	 0.103384
H	 1.2354587918	-2.3564575431	-2.1975389947	 0.103233
H	 1.5687463908	-2.2750285994	-0.4529555598	 0.118637
H	-1.6853250392	-3.5637432613	 0.356902558	 0.113492
H	-1.1617339772	-1.1678291174	 1.9502181794	 0.093184
H	 0.3497900471	-1.5539304265	 2.8530394484	 0.124375
109.3668	154.5538	218.5868	234.6997	270.961	296.2687	321.366	363.4198	471.0618	483.0168	578.3545	638.6435	699.9484	792.1156	837.549	880.8666	921.2241	956.4273	973.7699	1000.935	1030.2042	1056.981	1115.4024	1123.2543	1151.0291	1163.2054	1197.0836	1251.4178	1277.7623	1326.3652	1337.0016	1372.003	1390.3722	1400.9108	1403.1682	1413.758	1448.089	1471.4139	1486.6632	1494.2735	1500.8177	1507.5297	1730.227	2976.0095	3006.1399	3029.9842	3037.8253	3041.163	3074.0946	3088.1892	3115.2778	3116.8294	3118.2002	3120.0532
CC1CCN=COCO1	C[C@H]1CCN=COCO1	
InChI=1S/C6H11NO2/c1-6-2-3-7-4-8-5-9-6/h4,6H,2-3,5H2,1H3/b7-4-	InChI=1S/C6H11NO2/c1-6-2-3-7-4-8-5-9-6/h4,6H,2-3,5H2,1H3/b7-4-/t6-/m0/s1
