22
gdb 52410	7.43184	0.45266	0.44652	2.5229	85.32	-0.2366	-0.0199	0.2167	2412.6431	0.192256	-404.327105	-404.316787	-404.315843	-404.364332	35.937	
O	-0.1505169619	-0.0822427856	-0.2215949787	-0.237329
C	 0.0478539676	 1.089677061	-0.0304537424	 0.159664
C	 1.3708247957	 1.7930763059	-0.224037045	-0.272475
C	 1.2546689568	 2.9737804328	-1.2042413101	-0.194106
C	 2.5581882425	 3.7681319922	-1.3316351087	-0.175976
C	 2.4488602475	 4.9312549362	-2.3180311389	-0.144216
N	 3.6916910102	 5.6929385006	-2.3646315851	-0.06022
C	 4.6881574481	 5.2431256935	-3.3323458116	-0.219815
C	 3.9142480115	 6.4941447107	-3.562099485	-0.220556
H	-0.7776387919	 1.7598339088	 0.3107247555	 0.06814
H	 1.6895377718	 2.1740970627	 0.7575120333	 0.118843
H	 2.1111900811	 1.061032321	-0.5600509545	 0.121317
H	 0.953116902	 2.5947982421	-2.1892547039	 0.11084
H	 0.4483559956	 3.6424137442	-0.8730414305	 0.102977
H	 2.8541804944	 4.1645064184	-0.3530344054	 0.110047
H	 3.3674286915	 3.0994649711	-1.6522879407	 0.102175
H	 2.1624606389	 4.5483369889	-3.3163462539	 0.07719
H	 1.6510079196	 5.6145216035	-1.9998364443	 0.102166
H	 5.7227388606	 5.2831626779	-3.0041780055	 0.117592
H	 4.441387035	 4.3867851348	-3.9590697057	 0.107921
H	 3.1536553929	 6.469128269	-4.3413324296	 0.108413
H	 4.3720599905	 7.4663870702	-3.4037521792	 0.117408
42.6538	58.2443	72.6319	106.0357	126.4995	147.8722	236.0312	275.4421	367.902	401.8704	487.2588	523.7184	742.1656	768.6107	783.4754	840.3103	851.238	901.3914	957.4663	997.3437	1007.1456	1037.3289	1046.1784	1065.3505	1108.2346	1114.7002	1117.7369	1150.3322	1170.5482	1177.2799	1224.4578	1247.916	1280.065	1315.812	1322.3562	1327.1589	1331.4056	1385.8106	1409.9186	1430.8683	1464.2859	1484.8547	1491.1117	1495.9309	1509.7875	1525.5012	1837.152	2843.416	2918.9575	3008.4546	3014.2442	3026.4712	3038.3015	3045.9361	3075.3589	3091.5638	3096.5256	3097.874	3175.8805	3190.1004
O=CCCCCN1CC1	O=CCCCCN1CC1	
InChI=1S/C7H13NO/c9-7-3-1-2-4-8-5-6-8/h7H,1-6H2	InChI=1S/C7H13NO/c9-7-3-1-2-4-8-5-6-8/h7H,1-6H2
