18
gdb 31732	4.77592	0.85325	0.7407	2.4341	76.82	-0.1897	0.0236	0.2132	1518.8261	0.147659	-439.094676	-439.085494	-439.08455	-439.129133	33.361	
C	-0.0539833232	 1.4164911115	 0.1655753586	-0.325709
N	-0.0033119646	-0.0331485673	 0.1228236093	-0.382912
C	-1.2139374633	-0.7145820601	 0.0446337043	 0.291639
C	-2.450345955	-0.2189049792	-0.260033392	-0.121024
O	-3.3708912067	-1.2400185659	-0.2940054456	-0.192565
C	-2.7085215987	-2.3849675746	-0.0051715372	 0.339374
C	-3.5059380354	-3.6501377715	 0.0255750437	-0.161114
O	-2.9175253659	-4.6280450261	 0.8652699243	-0.406963
C	-1.3897494931	-2.1328760853	 0.2146466694	-0.39508
H	 0.9579833454	 1.8115879985	 0.2800086076	 0.123022
H	-0.4559177696	 1.7965241918	-0.7804814847	 0.133265
H	-0.6832681009	 1.811013146	 0.9805600844	 0.10914
H	 0.6258454006	-0.4316103172	 0.8047334545	 0.234281
H	-2.8305252602	 0.763144598	-0.4772318156	 0.122643
H	-4.5412522453	-3.4110740831	 0.3153540795	 0.107732
H	-3.5539234565	-4.1108026764	-0.9688829658	 0.130156
H	-2.7971570204	-4.2236641322	 1.7313737645	 0.282679
H	-0.6294550172	-2.8629448969	 0.4444277809	 0.111437
59.243	86.886	151.2907	170.7269	214.4445	243.3356	331.0659	366.8745	445.3442	449.0794	545.1148	618.7304	638.3961	689.6112	702.8351	743.3884	800.8183	960.1237	987.882	1004.6588	1072.5144	1079.4694	1135.814	1148.72	1165.4231	1186.7632	1198.6012	1254.1181	1316.3138	1357.9123	1401.5922	1431.7867	1458.1308	1479.9062	1501.8097	1506.3422	1525.8094	1587.7994	1671.8386	2967.4011	2985.3295	3045.1114	3058.8935	3119.0325	3257.0879	3296.3671	3589.1559	3805.7156
CNC1=COC(CO)=C1	CNc1coc(CO)c1	
InChI=1S/C6H9NO2/c1-7-5-2-6(3-8)9-4-5/h2,4,7-8H,3H2,1H3	InChI=1S/C6H9NO2/c1-7-5-2-6(3-8)9-4-5/h2,4,7-8H,3H2,1H3
