17
gdb 39363	2.78312	1.97156	1.35127	3.0739	72.98	-0.238	0.0099	0.2479	944.2168	0.138813	-417.967026	-417.960263	-417.959318	-417.997861	27.415	
C	-0.0657746772	 1.5424345033	 0.315804594	-0.313735
N	 1.1791131947	 0.8611582958	-0.0493076674	-0.139271
C	 2.0871976632	 0.5172980316	 1.0715623178	-0.168259
C	 1.4360650163	-0.1021532089	 2.3448109329	-0.188053
N	 0.5708792791	-1.2607118537	 2.0462259543	-0.321895
C	-0.0951581733	-1.0176966518	 1.0090317331	 0.427836
O	-0.874325053	-1.8360946748	 0.2233409766	-0.2835
C	-0.7923339144	-0.8751596834	-0.8958855353	-0.186684
C	-0.0570109752	 0.08879084	 0.0377389128	 0.17973
H	-0.2236489597	 1.8788747857	 1.3371494359	 0.128859
H	-0.4476997875	 2.2119088486	-0.4500244947	 0.130932
H	 2.8077003603	-0.2016697409	 0.6684625173	 0.124606
H	 2.6382070077	 1.4222917536	 1.3457343747	 0.115709
H	 2.2420574751	-0.435568911	 3.0056322624	 0.11711
H	 0.8799408227	 0.6594551546	 2.9066672823	 0.110632
H	-0.2044966551	-1.293236702	-1.7162135502	 0.137279
H	-1.7868994837	-0.5749367867	-1.2322811264	 0.128703
190.1577	217.1096	286.4838	322.4109	399.6751	424.9564	495.4445	567.0016	645.2549	720.1812	749.7819	771.1671	852.7726	882.0866	905.4949	919.025	953.638	1026.6833	1052.9711	1074.2297	1100.9421	1118.3436	1138.7176	1148.4671	1162.9577	1238.7909	1248.9099	1278.902	1331.8618	1349.3176	1367.367	1434.5073	1481.092	1495.6414	1502.7528	1517.9354	1808.2911	3020.3612	3049.4307	3067.9182	3076.0138	3097.8985	3110.0135	3133.323	3195.7823
C1N2CCN=C3OCC123	C1N2CC[N][C]3OC[C@]123	
InChI=1S/C6H8N2O/c1-2-8-3-6(8)4-9-5(6)7-1/h1-4H2	InChI=1S/C6H8N2O/c1-2-8-3-6(8)4-9-5(6)7-1/h1-4H2/t6-,8?/m0/s1
