23
gdb 86443	1.74966	1.57385	0.88712	3.0013	86.42	-0.2326	-0.0078	0.2248	1378.8632	0.206086	-388.345515	-388.336118	-388.335174	-388.379414	36.271	
C	-0.0134105115	 1.5690711476	 0.0365003099	-0.401814
C	 0.0151968265	 0.0384796735	-0.0039625488	 0.010416
C	 0.6764412818	-0.4924446622	-1.2851277059	-0.177245
C	 0.6946775902	-2.0272779105	-1.35193998	 0.010416
C	 1.3378211025	-2.538943788	-2.6441203604	-0.401814
C	 1.4023242309	-2.6091490697	-0.108104595	-0.288275
C	 0.8284871356	-2.0565771478	 1.1885265871	 0.367148
O	 0.4776611712	-2.7678570208	 2.1017107939	-0.307949
C	 0.7215611942	-0.5394944466	 1.2424161021	-0.288275
H	 1.0030387614	 1.9800082704	 0.0223008466	 0.113576
H	-0.5506523397	 1.9769290088	-0.8261797194	 0.113154
H	-0.507208888	 1.933731402	 0.9430541066	 0.116324
H	-1.024076393	-0.3214057426	 0.0089453331	 0.082035
H	 0.1523080053	-0.0927362153	-2.1618778301	 0.093069
H	 1.7087355875	-0.1146054927	-1.3438081967	 0.08838
H	-0.348720682	-2.3746224348	-1.3308485969	 0.082035
H	 2.3831469743	-2.2157973097	-2.7156064677	 0.113576
H	 1.3237507969	-3.6327524823	-2.6892677528	 0.116324
H	 0.8098602035	-2.1593025608	-3.5252125476	 0.113154
H	 1.3430494358	-3.7002973048	-0.0788134489	 0.113942
H	 2.4669160887	-2.3328610648	-0.1502551213	 0.108939
H	 1.7426727272	-0.1310176193	 1.2865236349	 0.108939
H	 0.2109062906	-0.2583579498	 2.1671700075	 0.113942
96.0307	119.8748	157.0751	236.5812	239.8237	248.239	306.7198	383.4217	387.5925	427.3614	437.118	475.8121	526.5054	628.3891	829.7579	830.5243	853.3144	856.3959	887.4083	950.7513	964.7213	973.0113	1011.3248	1055.568	1070.4443	1111.0006	1130.1423	1151.1101	1189.4684	1238.9027	1250.903	1282.9049	1291.6834	1306.0776	1308.7446	1365.8848	1366.9323	1376.7946	1393.3171	1413.4151	1413.5745	1460.8094	1467.3727	1487.4599	1496.1604	1497.8652	1499.4016	1499.758	1815.2664	2990.6356	2991.5023	3000.3214	3004.7917	3013.6534	3025.8173	3027.0946	3052.9389	3092.4204	3092.7824	3097.9065	3099.6104	3101.2032	3101.8606
CC1CC(C)CC(=O)C1	C[C@H]1C[C@@H](C)CC(=O)C1	
InChI=1S/C8H14O/c1-6-3-7(2)5-8(9)4-6/h6-7H,3-5H2,1-2H3	InChI=1S/C8H14O/c1-6-3-7(2)5-8(9)4-6/h6-7H,3-5H2,1-2H3/t6-,7+
