15
gdb 44325	3.32967	2.01436	1.60202	3.3933	69.01	-0.2217	-0.0047	0.217	831.899	0.115483	-416.782077	-416.776076	-416.775132	-416.812286	24.96	
N	-0.1616021236	 1.0788156021	 0.4628913239	-0.534264
C	-0.1260193309	-0.0704120561	-0.0397609139	 0.431491
O	 0.9864736605	-0.8949508342	-0.098975621	-0.232422
C	 0.6812396306	-1.9799690776	-0.9457552469	 0.058289
C	-0.4209150704	-3.0010733054	-0.5891846828	-0.14273
C	-1.2529471512	-2.7767876688	 0.6296606831	-0.083514
C	-1.7326307538	-1.5347566445	 0.6070797798	-0.085702
N	-1.2727032491	-0.7819090615	-0.561835726	-0.164375
C	-0.692993151	-1.7982413962	-1.4712295759	-0.072099
H	 0.7538761253	 1.3329304733	 0.8338771369	 0.233355
H	 1.52382501	-2.297178887	-1.5462171238	 0.123314
H	-0.2987647529	-3.991175434	-1.0123462683	 0.104589
H	-1.4349353539	-3.5209413942	 1.3919831343	 0.11659
H	-2.3075226425	-0.9970954331	 1.3468162863	 0.138833
H	-1.0026470571	-1.7941523628	-2.5090586556	 0.108646
140.2642	274.9027	354.6245	472.3726	593.2302	627.3612	717.0479	735.247	746.0163	754.3089	814.964	820.2835	849.8419	855.7422	872.2921	914.3369	946.4004	977.8057	989.8062	1028.2884	1052.3716	1064.8568	1083.645	1099.7353	1156.906	1160.2989	1238.8487	1270.651	1329.6314	1353.5774	1389.0106	1656.1547	1788.1015	3179.0655	3187.568	3204.676	3231.1924	3259.2353	3500.5102
N=C1OC2C3C=CN1C23	[NH][C]1O[C@H]2[C@H]3C=CN1[C@@H]23	
InChI=1S/C6H6N2O/c7-6-8-2-1-3-4(8)5(3)9-6/h1-5,7H	InChI=1S/C6H6N2O/c7-6-8-2-1-3-4(8)5(3)9-6/h1-5,7H/t3-,4+,5-/m0/s1
