13
gdb 131752	4.86484	1.07172	0.88344	2.3049	64.3	-0.2783	-0.1175	0.1608	1202.8614	0.088065	-489.865354	-489.857456	-489.856512	-489.898456	27.834	
O	 0.2487094432	 1.3788068416	 0.2554999544	-0.411876
C	 0.0935746548	 0.0028929681	 0.0618704339	-0.103373
C	-1.3379477871	-0.4464521491	-0.0760601926	 0.36359
N	-2.2354046053	 0.4736423514	-0.11930715	-0.128042
O	-3.5591886579	 0.0720438867	-0.2697712551	-0.250084
C	-3.9031366075	-1.2576710901	-0.3564624009	 0.430026
O	-5.0533616833	-1.5720081655	-0.4743083089	-0.309147
C	-2.7613122832	-2.1918783067	-0.298202355	-0.091057
N	-1.5412416842	-1.8203432621	-0.170014666	-0.236909
H	-0.5632385347	 1.8128703362	-0.0346765667	 0.304503
H	 0.6277538324	-0.3544182834	-0.8361064249	 0.126113
H	 0.5337144743	-0.5374244781	 0.9113093786	 0.139056
H	-3.0040520217	-3.250004979	-0.3756901167	 0.167199
67.4978	105.4491	172.5686	219.3978	290.4716	334.3313	386.7595	481.5953	545.0162	549.9463	624.8166	755.3579	791.9885	799.778	940.273	967.099	1032.6467	1050.2591	1119.6724	1212.5229	1235.5411	1263.2111	1333.6813	1366.4012	1451.2788	1493.277	1601.4407	1678.3762	1850.5549	2961.7035	3032.0216	3164.1542	3776.8807
OCC1=NOC(=O)C=N1	OCc1noc(=O)cn1	
InChI=1S/C4H4N2O3/c7-2-3-5-1-4(8)9-6-3/h1,7H,2H2	InChI=1S/C4H4N2O3/c7-2-3-5-1-4(8)9-6-3/h1,7H,2H2
