15
gdb 127589	5.84492	0.90117	0.80309	4.2403	72.28	-0.2681	-0.018	0.2501	1362.3219	0.11394	-413.011491	-413.003045	-413.002101	-413.047532	28.604	
C	-0.4869676629	 1.434921382	-0.3299301588	-0.312291
N	-0.1233576007	 0.0572449093	-0.0628245769	 0.158135
N	 0.5925150571	-0.66156304	-0.9173540239	-0.222482
C	 0.7684388922	-1.8226810848	-0.2831521704	-0.120725
C	 0.1360504416	-1.7478740569	 0.9657098262	 0.307904
C	-0.0100455354	-2.7708235647	 2.0584090327	-0.447799
C	 1.0650768852	-3.7625792488	 2.0522301285	 0.269833
N	 1.9087915182	-4.5510780914	 2.0357447593	-0.306396
N	-0.41997071	-0.5391789708	 1.0850027389	-0.305921
H	 0.2040080178	 2.1185936452	 0.1718626507	 0.155232
H	-0.4374702983	 1.5891308321	-1.4068575116	 0.166872
H	-1.4989993934	 1.6114516251	 0.0356937568	 0.160189
H	 1.3231828149	-2.6307346111	-0.7317985344	 0.146898
H	-0.0289809812	-2.2671953212	 3.0303376678	 0.177216
H	-0.965487765	-3.3032491339	 1.9668351752	 0.173335
8.4145	50.0577	107.4715	180.5357	266.1568	298.1864	376.9419	417.4706	485.5902	677.6938	681.358	726.4615	763.5055	877.4258	950.9371	951.2501	1021.9753	1042.9874	1084.1117	1147.5408	1201.2298	1219.3238	1302.3574	1350.8571	1362.7739	1426.4399	1443.2088	1449.1512	1462.2303	1483.2438	1505.3733	1549.0014	2369.9734	3034.1571	3059.2686	3084.4091	3137.4102	3179.6663	3277.662
CN1N=CC(CC#N)=N1	Cn1ncc(CC#N)n1	
InChI=1S/C5H6N4/c1-9-7-4-5(8-9)2-3-6/h4H,2H2,1H3	InChI=1S/C5H6N4/c1-9-7-4-5(8-9)2-3-6/h4H,2H2,1H3
