17
gdb 22660	5.72385	0.86101	0.75921	2.0159	75.9	-0.249	-0.0139	0.2351	1454.0924	0.134499	-455.117883	-455.108646	-455.107701	-455.153569	32.297	
C	 0.2581502648	 1.4034250404	 0.1267785552	-0.332842
N	 0.1357316409	-0.0432565832	 0.0455416908	-0.318223
C	 0.5070815953	-0.6479773983	-0.9909665218	 0.439792
C	 0.4283467677	-2.1498424545	-1.1914488433	-0.429384
C	 0.935488355	-2.3351417197	-2.5926216121	 0.364143
C	 1.3256817935	-0.9847950243	-3.1426311898	-0.157856
O	 1.0461089601	-0.0456042394	-2.1051946641	-0.254725
N	 1.0071676917	-3.4553369512	-3.1857336057	-0.208335
O	 1.523202706	-3.2912198462	-4.4836297047	-0.395588
H	 1.0701844895	 1.6602861842	 0.8179641133	 0.126067
H	 0.4542096084	 1.8943164277	-0.8329010497	 0.122779
H	-0.6629652096	 1.8123848128	 0.5546636982	 0.123648
H	 1.0462377271	-2.6677585859	-0.4515825761	 0.159839
H	-0.5965374798	-2.5066692058	-1.0594675817	 0.160718
H	 2.3895499908	-0.9426564502	-3.4029555612	 0.143702
H	 0.7504406887	-0.731320428	-4.0407111505	 0.143694
H	 1.52489449	-4.1930084686	-4.8218214168	 0.312572
28.9148	39.9105	124.1397	174.3602	226.2556	265.7247	273.0196	377.157	393.7293	499.6074	573.927	588.7589	673.7795	697.3714	828.9339	855.6772	905.8203	980.1237	1032.1854	1038.5128	1082.0738	1129.7219	1147.0549	1152.7418	1198.5399	1206.8642	1252.2839	1274.5303	1362.3702	1410.2566	1439.1262	1450.6318	1492.3853	1497.5084	1500.2442	1769.9205	1811.9865	3017.7861	3035.945	3065.13	3070.186	3076.2428	3092.7739	3102.0987	3821.7682
CN=C1CC(CO1)=NO	CN=C1CC(=NO)CO1	
InChI=1S/C5H8N2O2/c1-6-5-2-4(7-8)3-9-5/h8H,2-3H2,1H3	InChI=1S/C5H8N2O2/c1-6-5-2-4(7-8)3-9-5/h8H,2-3H2,1H3
