16
gdb 77029	3.0166	1.0116	0.91803	5.0153	75.89	-0.266	0.0164	0.2824	1288.3806	0.121963	-400.710022	-400.700581	-400.699637	-400.745274	33.522	
O	-0.2495562612	 1.3804300262	 0.1491969816	-0.412483
C	-0.137277477	 0.0008199251	 0.0428559588	 0.1046
C	-1.405102253	-0.8013273877	-0.0471194076	-0.060109
C	-2.7504910799	-0.0966353568	-0.0031014698	-0.354623
C	-3.3549493852	-0.1668617247	 1.3271241547	 0.260991
N	-3.8313535572	-0.2388688592	 2.3772172245	-0.305954
C	-0.5108550427	-0.6636575527	-1.2821722844	-0.28797
C	-0.8794120084	 0.1838062545	-2.3749423727	 0.303914
C	-1.1528968365	 0.9344662203	-3.2758530045	-0.440555
H	 0.0408061103	 1.7779600218	-0.680944365	 0.298943
H	 0.7014601709	-0.4268790738	 0.5883447081	 0.11137
H	-1.3889150451	-1.7835917416	 0.4133084667	 0.119298
H	-2.6231329614	 0.9542121449	-0.2760991355	 0.170784
H	-3.4439844764	-0.5412049545	-0.7254723381	 0.156204
H	 0.0530764655	-1.5504124955	-1.5552991748	 0.127243
H	-1.4114137425	 1.5714853138	-4.085675132	 0.208346
39.6173	79.3807	92.9468	170.5831	208.4792	236.9452	318.232	375.1518	385.1767	479.9611	574.2686	602.43	615.3739	647.0578	666.9321	785.4699	788.1558	888.7543	923.9267	959.733	1012.1777	1040.0135	1101.6002	1127.0544	1159.5061	1233.4803	1247.9852	1309.97	1345.8122	1361.0362	1391.0695	1429.4565	1455.7377	2229.4789	2364.6258	3054.4982	3108.5631	3125.7957	3153.2305	3171.9229	3499.6858	3774.1245
OC1C(CC#N)C1C#C	O[C@H]1[C@@H](CC#N)[C@H]1C#C	
InChI=1S/C7H7NO/c1-2-5-6(3-4-8)7(5)9/h1,5-7,9H,3H2	InChI=1S/C7H7NO/c1-2-5-6(3-4-8)7(5)9/h1,5-7,9H,3H2/t5-,6+,7-/m1/s1
