20
gdb 95700	3.06366	1.21397	0.92508	4.4378	76.16	-0.2326	0.0209	0.2534	1277.4642	0.17254	-440.319529	-440.310798	-440.309854	-440.352932	33.172	
C	 0.0770371283	 1.6051872829	 0.0449305511	-0.403528
C	-0.0360473454	 0.0752833377	 0.0352705867	 0.013062
C	 0.4791115719	-0.4833807352	-1.3007347187	-0.17305
N	 0.178448814	-1.8880469104	-1.5413632142	-0.299999
C	 0.6353597964	-2.9751169617	-0.849650617	 0.370235
O	 0.5070209866	-4.1086726979	-1.2741286728	-0.361914
C	 1.3193829674	-2.7052454771	 0.4977572733	-0.189183
O	 0.5804170565	-1.9032349388	 1.3934015832	-0.238614
C	 0.722686625	-0.5073866907	 1.2342305299	-0.071808
H	 1.1163273372	 1.9281890233	-0.0888450706	 0.119714
H	-0.5153503754	 2.0524792039	-0.7592261432	 0.119708
H	-0.2788892317	 2.0209463575	 0.9925694827	 0.122679
H	-1.0893968297	-0.2142264323	 0.1347617349	 0.093337
H	 0.013080842	 0.073952478	-2.1181749913	 0.113187
H	 1.5616024853	-0.2932721358	-1.3765739469	 0.107686
H	-0.2326179454	-2.1327439888	-2.4301334604	 0.246639
H	 1.4465886484	-3.682979539	 0.9654311939	 0.137625
H	 2.3200951817	-2.2750995855	 0.3183119852	 0.100676
H	 1.7919829278	-0.2398004912	 1.1572629275	 0.084115
H	 0.3386438291	-0.0651727189	 2.1594981269	 0.109436
71.3935	131.3536	208.9722	216.9366	278.927	304.0622	345.806	367.3807	424.0805	477.0811	510.4636	541.0735	623.2446	717.6925	814.6886	852.7072	902.0837	934.1227	958.3243	982.4138	1027.8947	1093.2977	1116.2415	1152.1854	1172.5987	1182.0884	1257.0172	1286.3531	1308.6239	1338.2667	1348.1784	1373.4904	1392.966	1403.906	1409.554	1430.2823	1468.5445	1473.386	1489.4841	1498.7863	1502.2357	1507.3181	1788.0205	2948.4433	2961.4896	2979.1591	3030.0311	3040.4868	3071.2066	3082.6182	3097.1262	3107.5078	3121.4548	3613.0969
CC1CNC(=O)COC1	C[C@H]1CNC(=O)COC1	
InChI=1S/C6H11NO2/c1-5-2-7-6(8)4-9-3-5/h5H,2-4H2,1H3,(H,7,8)	InChI=1S/C6H11NO2/c1-5-2-7-6(8)4-9-3-5/h5H,2-4H2,1H3,(H,7,8)/t5-/m0/s1
