14
gdb 15743	3.75637	1.41957	1.11267	2.8092	61.56	-0.2682	-0.0357	0.2324	1022.8496	0.106906	-415.855275	-415.847463	-415.846519	-415.888802	26.69	
N	-0.0479162854	 1.4024530052	-0.4860408456	-0.522654
C	 0.104048842	 0.2454619009	-0.0010051886	 0.434064
O	-0.9782714807	-0.4924007606	 0.4369955552	-0.230401
C	-2.2589786761	-0.073056468	 0.1496844683	 0.172744
O	-3.1938270847	-0.6734219193	 0.5754658918	-0.251283
C	 1.3666011398	-0.508716452	 0.2011586013	-0.08937
C	 1.5489256579	-1.3392784429	 1.4317439152	-0.230211
N	 1.3914933776	-1.9797665635	 0.1297313074	-0.308816
H	 0.8464490316	 1.797107369	-0.7699716937	 0.238938
H	-2.2749263448	 0.8190649215	-0.4861881192	 0.149892
H	 2.2330875644	-0.0208262169	-0.2358393301	 0.107229
H	 2.5422077364	-1.4055688516	 1.8654016617	 0.133656
H	 0.7244415189	-1.3767605741	 2.1364929571	 0.142233
H	 0.4373773031	-2.3218207076	 0.0367350192	 0.25398
43.6758	91.848	120.2709	163.5919	290.0136	308.2445	449.5937	565.9436	616.7668	720.9097	818.8683	855.1714	876.8616	939.0539	979.1182	997.9583	1053.616	1066.1625	1086.1545	1121.8641	1140.8437	1182.9304	1272.4525	1306.0786	1350.4778	1384.8055	1400.5358	1501.9066	1735.4709	1871.5507	3097.9137	3122.8253	3154.2392	3216.6466	3506.7549	3515.0849
N=C(OC=O)C1CN1	[NH][C](OC=O)[C@H]1CN1	
InChI=1S/C4H6N2O2/c5-4(8-2-7)3-1-6-3/h2-3,5-6H,1H2	InChI=1S/C4H6N2O2/c5-4(8-2-7)3-1-6-3/h2-3,5-6H,1H2/t3-/m1/s1
