18
gdb 12821	3.56764	1.95448	1.55307	1.3134	67.27	-0.2495	0.0835	0.333	874.2386	0.1546	-384.934834	-384.927544	-384.9266	-384.96598	28.365	
C	 0.010318055	 1.5281158009	-0.0101391928	-0.468736
C	-0.0365548939	 0.0215264637	 0.0687930557	 0.402568
C	-1.2610805419	-0.6570246936	-0.5195905545	-0.268759
C	-1.2303628464	-2.1651571004	-0.2604129805	-0.08918
O	-1.0607644608	-2.4302924382	 1.1225934778	-0.250442
C	 0.2214992832	-2.0664171843	 1.5985922189	-0.102434
C	 0.698361336	-0.7065423374	 1.1183404594	-0.027228
O	 1.2021515972	-0.6467274982	-0.2264400158	-0.29615
H	 0.9429810818	 1.908038465	 0.4144400207	 0.127539
H	-0.0511924623	 1.8593280285	-1.0527901606	 0.125604
H	-0.8299483665	 1.9735032225	 0.5328989647	 0.123016
H	-2.1589914217	-0.2255522494	-0.0613374637	 0.108229
H	-1.314022839	-0.4570500263	-1.5974083201	 0.102732
H	-2.1789286224	-2.6269001116	-0.5471646091	 0.106224
H	-0.4242175623	-2.6301154291	-0.8464139862	 0.105169
H	 0.1490583885	-2.0657680152	 2.691060059	 0.110516
H	 0.972538507	-2.8203631819	 1.3083658669	 0.102278
H	 1.2939238282	-0.139175635	 1.83472614	 0.089054
139.2776	187.4951	232.3902	314.5264	324.4683	383.6185	406.3832	471.5135	561.5563	652.6002	701.9384	792.6845	868.466	888.467	909.9089	969.5422	1006.6205	1015.8943	1031.2979	1089.4778	1115.1164	1131.5702	1163.7351	1230.7842	1253.2698	1271.3533	1323.0967	1326.8493	1377.6597	1388.9493	1411.5416	1420.8454	1457.9168	1472.3223	1484.0451	1486.8327	1499.7184	1506.9618	2967.4406	3004.3613	3025.9238	3034.7107	3069.341	3072.8782	3094.0445	3097.8056	3102.3571	3122.1562
CC12CCOCC1O2	C[C@]12CCOC[C@H]1O2	
InChI=1S/C6H10O2/c1-6-2-3-7-4-5(6)8-6/h5H,2-4H2,1H3	InChI=1S/C6H10O2/c1-6-2-3-7-4-5(6)8-6/h5H,2-4H2,1H3/t5-,6+/m1/s1
