18
gdb 88348	2.10439	1.3156	0.89774	4.1824	81.98	-0.2821	0.016	0.2981	1311.4073	0.145598	-364.775145	-364.765534	-364.76459	-364.810066	34.897	
C	 0.242267645	 1.5365420119	-0.401021983	-0.414313
C	 0.0682788185	 0.0657749029	-0.0890509261	-0.002902
C	 1.2500024803	-0.8743648532	-0.0495439365	-0.306115
C	 0.4947187357	-0.5618444429	 1.2175741529	 0.016714
C	 1.1542375933	 0.2611008801	 2.3288488937	-0.360563
C	 0.1652383287	 0.9332447131	 3.1766608551	 0.337085
C	-0.6648122576	 1.4805969772	 3.8488303566	-0.428449
C	 2.0419980504	-0.5954642906	 3.1377894556	 0.29746
N	 2.7426604755	-1.2778159571	 3.7519898313	-0.321287
H	 1.2106192535	 1.9208440471	-0.0660202886	 0.116174
H	 0.1909083808	 1.7042162934	-1.4818248106	 0.125542
H	-0.5393660148	 2.1410765686	 0.0707193613	 0.132251
H	-0.8485989182	-0.3556950584	-0.4927704313	 0.09557
H	 1.1609307266	-1.869394575	-0.4699769116	 0.123055
H	 2.2366413447	-0.4345105419	-0.1636138622	 0.11896
H	-0.1497810408	-1.34112999	 1.6105647063	 0.111421
H	 1.7957048758	 1.0248163238	 1.8711126419	 0.150543
H	-1.3923688973	 1.9657389709	 4.451872915	 0.208853
48.3187	104.9847	127.7498	156.5664	185.9102	234.0587	301.8644	364.0167	392.1087	430.5396	516.5932	547.4687	580.8602	646.5596	661.7205	775.0631	833.2228	858.0688	891.7081	933.5918	991.8373	1029.3186	1060.7069	1075.3451	1108.5133	1146.3576	1153.3198	1195.9152	1246.7735	1255.1711	1302.8503	1383.9995	1414.5798	1426.6764	1492.1608	1494.0471	1505.7461	2247.5391	2364.5963	3031.5098	3037.0881	3097.7763	3101.6268	3129.5755	3141.5127	3165.2973	3216.4256	3502.9804
CC1CC1C(C#C)C#N	C[C@H]1C[C@H]1[C@@H](C#C)C#N	
InChI=1S/C8H9N/c1-3-7(5-9)8-4-6(8)2/h1,6-8H,4H2,2H3	InChI=1S/C8H9N/c1-3-7(5-9)8-4-6(8)2/h1,6-8H,4H2,2H3/t6-,7-,8+/m0/s1
