20
gdb 9840	3.31075	1.38581	1.15645	0.4118	70.48	-0.2557	0.0694	0.3252	1098.3362	0.175048	-386.1178	-386.108466	-386.107522	-386.151441	35.094	
C	-0.4475692223	 1.4125167976	-0.0193480129	-0.415216
C	 0.0298610804	-0.0433153988	 0.0183005897	-0.053063
C	 0.9987974447	-0.3204977173	-1.146266549	-0.061849
O	 0.4265082827	-0.0854673077	-2.4235227797	-0.419442
C	 0.6532965779	-0.4943217411	 1.3385638341	 0.414447
O	 0.7762135454	-1.8975658773	 1.4369492587	-0.472706
C	 1.7140099076	 0.31360808	 2.048365389	-0.325223
C	 0.3322310456	 0.1521556797	 2.6522562376	-0.310281
H	 0.3593031062	 2.111442244	 0.2285950356	 0.115462
H	-0.7867504214	 1.6539278432	-1.0294526665	 0.130702
H	-1.2758821564	 1.5879327723	 0.6719042532	 0.116052
H	-0.84421149	-0.6961078019	-0.1282702445	 0.072746
H	 1.8601558618	 0.353936352	-1.0801640319	 0.110968
H	 1.3814497657	-1.3508202561	-1.0793177254	 0.070078
H	-0.3021582627	-0.7048289166	-2.5357145082	 0.282174
H	 1.5649207759	-2.1647708787	 0.9541473769	 0.281689
H	 2.5268203709	-0.2398977976	 2.5055977978	 0.11169
H	 1.9919995601	 1.2856859574	 1.6559143427	 0.114623
H	-0.3207845312	 1.0157658872	 2.6753366821	 0.115035
H	 0.2339122189	-0.5211332007	 3.4955188005	 0.122115
63.0649	115.2262	191.6138	237.4892	259.319	275.9151	309.0698	311.726	357.9274	384.4275	463.732	473.494	523.9473	718.1951	776.0704	867.1644	886.3674	911.8669	930.4166	934.7079	979.1119	1045.7473	1063.1939	1072.2769	1080.6371	1121.7974	1127.4416	1189.4834	1217.1157	1241.7305	1304.0441	1332.7608	1354.569	1365.1027	1397.2357	1405.2242	1418.9526	1449.9885	1493.139	1498.6812	1505.5695	1510.8593	2977.2833	2991.0662	3039.7001	3066.9983	3106.6757	3126.3235	3134.0643	3148.8444	3218.662	3240.1128	3809.4378	3811.5345
CC(CO)C1(O)CC1	C[C@@H](CO)C1(O)CC1	
InChI=1S/C6H12O2/c1-5(4-7)6(8)2-3-6/h5,7-8H,2-4H2,1H3	InChI=1S/C6H12O2/c1-5(4-7)6(8)2-3-6/h5,7-8H,2-4H2,1H3/t5-/m0/s1
