19
gdb 77094	3.16023	1.11253	0.92397	4.3048	81.02	-0.2564	0.0286	0.285	1284.6681	0.1597	-382.05363	-382.044893	-382.043949	-382.087188	32.92	
C	-0.5884873461	 1.1059279231	-0.0607690187	-0.422418
C	 0.0031157795	-0.2803691301	 0.1285970636	-0.055252
C	 1.3151076946	-0.6475379332	-0.6545725324	-0.156634
C	 1.838293693	-1.390268361	 0.6198582341	-0.308442
C	 0.7660952342	-0.6436224991	 1.415095437	 0.34494
C	 0.9499303428	 0.2184821353	 2.6037536583	-0.305731
N	 0.2345380492	-1.0730843017	 2.69575927	-0.365904
C	 1.1789597712	-1.4028722787	-1.8861241844	 0.269074
N	 1.0512625295	-2.0142159873	-2.8596382418	-0.328714
H	 0.1638346656	 1.884785634	 0.1006445972	 0.121976
H	-0.99093417	 1.2244344775	-1.0719356299	 0.135783
H	-1.4108114713	 1.2819578439	 0.6418654178	 0.121694
H	-0.7523025434	-1.0488016771	-0.0733136964	 0.101432
H	 1.9037120134	 0.2539974834	-0.847841924	 0.121518
H	 1.6417935474	-2.4641054036	 0.5763987736	 0.133615
H	 2.8840445991	-1.2232861328	 0.8825771072	 0.12104
H	 1.9085405978	 0.244657794	 3.1156062228	 0.123245
H	 0.376719304	 1.1399542025	 2.6679939323	 0.116374
H	-0.7707442705	-0.9182061891	 2.7370853136	 0.232405
61.2328	135.7504	196.8791	212.1777	228.3734	274.3136	338.2427	373.3648	461.1112	495.7125	558.9314	575.0693	699.4702	807.0687	830.955	878.7663	920.4816	938.4546	958.804	1003.9175	1022.8053	1049.6031	1066.5512	1084.2565	1125.2845	1141.1881	1151.3821	1229.4365	1236.7135	1254.2863	1263.4169	1293.2151	1340.1053	1377.2258	1408.0756	1423.6973	1487.3589	1494.7455	1495.4615	1517.3281	2352.4868	3030.2489	3040.5368	3071.2592	3075.7274	3096.2669	3104.4447	3107.2295	3134.5185	3189.432	3487.0008
CC1C(CC11CN1)C#N	C[C@H]1[C@@H](C[C@]21CN2)C#N	
InChI=1S/C7H10N2/c1-5-6(3-8)2-7(5)4-9-7/h5-6,9H,2,4H2,1H3	InChI=1S/C7H10N2/c1-5-6(3-8)2-7(5)4-9-7/h5-6,9H,2,4H2,1H3/t5-,6-,7+/m0/s1
