19
gdb 49556	2.47428	1.58801	1.47007	1.4554	73.72	-0.2461	-0.0328	0.2133	1004.3205	0.160831	-423.022863	-423.0151	-423.014155	-423.055584	29.691	
O	-0.6601510278	 0.6267768141	 0.5618351959	-0.245871
C	 0.0817071488	 1.016092323	-0.3065615449	 0.127135
C	 1.2292659842	 1.9686865889	-0.1354737368	-0.088561
C	 1.2165862525	 3.3746974797	-0.8028852898	 0.072818
C	-0.1601591374	 4.0426532225	-0.6895165736	-0.231604
C	-0.4706529582	 4.3354095681	 0.8022070113	-0.186719
C	 0.2276163369	 3.3513058414	 1.7788195676	-0.234405
C	 1.5044690485	 2.8126648141	 1.1280748456	 0.067351
O	 2.0733298067	 3.8539589711	 0.2686144864	-0.297835
H	-0.0402863627	 0.6536938808	-1.3552423954	 0.079256
H	 2.1408064632	 1.447360625	-0.4520758387	 0.108907
H	 1.681818257	 3.4847549432	-1.7856584556	 0.081511
H	-0.1690500897	 4.9779907843	-1.2579266678	 0.106361
H	-0.9186580087	 3.3946594297	-1.1459439154	 0.103752
H	-0.104507193	 5.3407868376	 1.0211468863	 0.117125
H	-1.5501096355	 4.3504340051	 0.9743230473	 0.100546
H	 0.4816876311	 3.8777704975	 2.7041911073	 0.099799
H	-0.4160580774	 2.5098941148	 2.0443569087	 0.13644
H	 2.2365277916	 2.432251409	 1.8439779717	 0.083995
62.5817	111.6755	203.1803	218.9784	308.1002	415.5888	430.5883	545.2079	580.6826	712.5106	729.1694	780.7506	840.2005	850.317	881.1947	894.3555	932.66	952.5464	1017.7691	1028.0955	1035.3244	1080.3737	1095.2812	1120.6163	1135.547	1189.8839	1237.1305	1239.7808	1259.5975	1310.5547	1330.2895	1344.6903	1351.5343	1371.8698	1380.2294	1382.7942	1430.5911	1483.6674	1492.9523	1507.4064	1818.3922	2845.8123	3031.2324	3041.8436	3052.5223	3065.6737	3071.8586	3081.6625	3088.0553	3101.5814	3121.9146
O=CC1C2CCCC1O2	O=C[C@H]1[C@H]2CCC[C@@H]1O2	
InChI=1S/C7H10O2/c8-4-5-6-2-1-3-7(5)9-6/h4-7H,1-3H2	InChI=1S/C7H10O2/c8-4-5-6-2-1-3-7(5)9-6/h4-7H,1-3H2/t5-,6+,7-
