21
gdb 52673	2.67691	1.01128	0.8184	1.5612	86.89	-0.2415	0.0565	0.298	1486.8329	0.17934	-387.055245	-387.044488	-387.043544	-387.092413	38.81	
C	 0.1002069475	 1.5025177622	 0.2522340542	-0.499465
C	 0.0322119444	 0.0540425538	 0.1136923656	 0.056705
C	-0.0194281413	-1.145237946	 0.0087419181	 0.068189
C	-0.1154816004	-2.5985857983	-0.1193466785	-0.21391
C	-1.5823364411	-3.0297369409	-0.3377040811	-0.402183
C	 0.7973574798	-3.1694684272	-1.2159340452	 0.424966
O	 0.8035199774	-4.5756879864	-1.2344450097	-0.466577
C	 0.9825783378	-2.4586627742	-2.53118306	-0.323931
C	 2.122035816	-2.5516599587	-1.5305752099	-0.306305
H	 0.7501930694	 1.9457790719	-0.5102822454	 0.147853
H	-0.8899235015	 1.960095379	 0.1483008048	 0.147195
H	 0.4967369526	 1.7908632662	 1.2321009385	 0.148197
H	 0.2285803881	-3.052172177	 0.821068107	 0.10994
H	-2.2174862994	-2.6549062604	 0.468391329	 0.12558
H	-1.9646019602	-2.6343743506	-1.2838737482	 0.122719
H	-1.6622459153	-4.1208994156	-0.3499831299	 0.108494
H	 0.0065968155	-4.8708895569	-1.687235586	 0.282372
H	 1.0470334222	-3.0771417726	-3.419641924	 0.107362
H	 0.5062331866	-1.4944571993	-2.6680914656	 0.121242
H	 2.4082096999	-1.6498545117	-1.0029549782	 0.12348
H	 2.9270440821	-3.2416770172	-1.7541213254	 0.118077
17.3848	62.1818	87.6453	141.3209	218.3011	247.0124	268.3781	287.4493	321.5341	358.4121	374.0143	390.0375	467.803	519.2388	555.5066	686.8339	770.7706	780.9813	894.7399	910.2762	934.1978	975.7942	1007.2797	1050.4825	1052.5079	1053.9576	1077.85	1081.2834	1094.0535	1181.2227	1192.6903	1229.8137	1299.4159	1326.1919	1338.5817	1364.5887	1398.4439	1415.292	1444.4147	1478.8821	1479.3816	1493.3536	1496.6489	1503.2736	2365.7222	3004.4823	3025.7961	3039.8146	3085.9655	3086.4754	3112.3395	3122.8081	3134.2742	3145.2477	3223.0016	3240.3367	3805.267
CC#CC(C)C1(O)CC1	CC#C[C@@H](C)C1(O)CC1	
InChI=1S/C8H12O/c1-3-4-7(2)8(9)5-6-8/h7,9H,5-6H2,1-2H3	InChI=1S/C8H12O/c1-3-4-7(2)8(9)5-6-8/h7,9H,5-6H2,1-2H3/t7-/m1/s1
