18
gdb 124988	3.0384	0.99352	0.79609	3.7531	74.7	-0.2399	0.0011	0.2411	1419.4564	0.148025	-435.271091	-435.261778	-435.260834	-435.306549	32.686	
C	-0.1764457403	 1.5698684386	 0.2283066621	-0.510548
C	-0.0204515579	 0.1017779221	 0.0162967099	 0.246286
C	 0.0910953408	-0.6823709884	-1.1149896673	 0.224598
C	 0.1256140681	-0.2960176902	-2.5582783035	-0.324904
C	 1.553007488	-0.2929079709	-3.1335319323	-0.054661
O	 1.5868196326	 0.0866871983	-4.4982111238	-0.416627
N	 0.2142611563	-1.9887784048	-0.7249063803	-0.254054
N	 0.182433135	-2.063087148	 0.571807217	-0.123126
N	 0.0418039222	-0.8032284109	 1.0274031792	-0.22214
H	 0.6985510476	 2.0063929948	 0.7233565271	 0.14423
H	-0.2990877292	 2.0763630636	-0.7313069805	 0.151833
H	-1.0543794069	 1.8010886271	 0.8417355015	 0.140343
H	-0.4830382261	-1.0080575588	-3.1291159522	 0.112778
H	-0.315020617	 0.695280404	-2.7072130817	 0.106554
H	 2.1642945662	 0.4441224755	-2.601682784	 0.108054
H	 2.0125038654	-1.2780877891	-2.9689208155	 0.111816
H	 1.1608368934	-0.6100271919	-5.0077135998	 0.283484
H	-0.0148591681	-0.6440056711	 2.0209274039	 0.276083
36.7644	88.8043	97.7097	119.0947	243.7793	249.9217	301.7647	359.5809	368.1239	424.8512	567.13	661.7141	698.2528	732.5004	781.8226	801.2716	983.5433	1012.1034	1024.3954	1040.5571	1064.0986	1074.2129	1087.1646	1138.1888	1212.4858	1254.4951	1299.0557	1308.3497	1339.5379	1372.8449	1396.324	1413.2199	1423.493	1473.1639	1478.085	1484.2762	1510.6927	1512.4741	1630.2868	3006.1447	3031.8978	3032.8715	3067.2477	3083.7039	3090.2626	3128.9639	3651.8043	3816.2533
CC1=C(CCO)N=NN1	Cc1c(CCO)nn[nH]1	
InChI=1S/C5H9N3O/c1-4-5(2-3-9)7-8-6-4/h9H,2-3H2,1H3,(H,6,7,8)	InChI=1S/C5H9N3O/c1-4-5(2-3-9)7-8-6-4/h9H,2-3H2,1H3,(H,6,7,8)
