14
gdb 85653	2.14183	1.72594	1.20261	4.0824	61.92	-0.3014	-0.0296	0.2718	1029.3471	0.100219	-473.867917	-473.859859	-473.858914	-473.901276	28.564	
C	 0.5619292792	 1.3253908262	-0.2952168184	-0.405599
C	-0.0032086189	-0.0412218311	 0.0318950753	 0.20983
O	 0.1968125255	-0.9872093067	-1.0181548661	-0.243715
C	 1.2768298051	-1.8168965065	-0.6670854477	-0.187384
C	 2.5199821274	-1.4717824082	-1.3785299847	 0.300293
N	 3.4857301426	-1.1868356636	-1.9442310738	-0.312319
C	 1.4351233025	-1.6199837158	 0.8593172423	 0.427917
O	 2.1083562491	-2.2424907791	 1.6164995323	-0.309813
O	 0.6312160232	-0.5887473324	 1.1940318328	-0.216703
H	 1.6357984945	 1.2625957658	-0.491152575	 0.151339
H	 0.0628238232	 1.719659916	-1.1838974916	 0.146291
H	 0.3912267638	 2.0089575687	 0.5405028897	 0.144843
H	-1.0777362804	-0.0052756872	 0.2336584509	 0.123616
H	 1.0249463434	-2.8615233161	-0.8756160558	 0.171405
61.1503	102.2022	146.3813	234.5801	242.7467	348.5971	423.9109	474.2077	482.9378	550.8195	679.0754	695.8762	748.3214	839.3453	909.2482	933.7976	977.7124	1072.131	1075.8536	1126.111	1142.9713	1223.7634	1249.955	1344.2517	1373.4684	1393.327	1416.9922	1482.565	1486.1482	1913.9329	2361.841	3052.5359	3071.9931	3077.2385	3136.4843	3138.3887
CC1OC(C#N)C(=O)O1	C[C@H]1O[C@@H](C#N)C(=O)O1	
InChI=1S/C5H5NO3/c1-3-8-4(2-6)5(7)9-3/h3-4H,1H3	InChI=1S/C5H5NO3/c1-3-8-4(2-6)5(7)9-3/h3-4H,1H3/t3-,4-/m0/s1
