17
gdb 82637	2.02603	1.78319	1.59592	2.2513	67.57	-0.2237	0.0549	0.2786	973.2264	0.134238	-458.882597	-458.87427	-458.873326	-458.915023	32.036	
C	-0.1416005096	 1.56216851	-0.1106260187	-0.538829
C	-0.0139543719	 0.0807214013	 0.0048502332	 0.21355
C	 0.1010533232	-1.0551838847	-0.9684466057	-0.015274
O	 1.2627335186	-1.6448608074	-0.3708431719	-0.295215
C	 0.893354807	-0.9113402862	 0.8295524956	-0.037644
C	-0.3881303868	-1.6520924333	 1.3207509797	 0.028539
O	-1.0109656076	-1.0453259929	 2.4383560772	-0.446285
C	-1.0230210329	-1.0866826738	 0.0627721322	 0.307339
O	-2.3435148833	-1.1288216745	-0.3073822175	-0.463752
H	 0.7871973916	 2.0261017731	-0.4609371886	 0.128209
H	-0.9325053038	 1.8172513559	-0.8241688691	 0.131447
H	-0.4057417809	 2.013330449	 0.8521534096	 0.128975
H	-0.05111165	-1.1231586284	-2.0382266789	 0.115091
H	 1.7221141688	-0.6747723643	 1.4956710896	 0.083674
H	-0.3060865344	-2.7419731318	 1.4335096432	 0.072967
H	-0.5641273829	-1.3497507445	 3.2343762962	 0.289496
H	-2.857446225	-0.7612048976	 0.422415844	 0.297713
138.472	168.9409	195.4911	198.8173	296.2617	311.0949	354.1503	387.5141	428.1999	516.8829	594.0821	639.2622	677.9307	762.8497	822.5325	850.0167	910.0152	930.6469	965.8405	985.3457	1027.9897	1087.7543	1099.6418	1122.3679	1154.1484	1162.6157	1197.1094	1221.7006	1261.7062	1283.7596	1316.0516	1380.6654	1407.0982	1437.3917	1483.6715	1488.9829	1503.6984	3013.257	3024.5512	3086.9479	3095.8252	3131.214	3204.1559	3776.8808	3820.0721
CC12C3OC1C(O)C23O	C[C@@]12[C@H]3O[C@@H]1[C@@H](O)[C@@]23O	
InChI=1S/C6H8O3/c1-5-3-2(7)6(5,8)4(5)9-3/h2-4,7-8H,1H3	InChI=1S/C6H8O3/c1-5-3-2(7)6(5,8)4(5)9-3/h2-4,7-8H,1H3/t2-,3-,4-,5+,6+/m1/s1
