15
gdb 16797	3.67655	1.95104	1.38694	4.3799	68.61	-0.2314	-0.051	0.1804	878.5934	0.119614	-362.666693	-362.659765	-362.658821	-362.697724	26.242	
C	-0.01188931	 1.4843449378	 0.0786195177	-0.498653
C	-0.0286978054	-0.0034716427	-0.0180192501	 0.37705
C	 0.0051961068	-0.7653672813	-1.1254417962	-0.314389
C	-0.0145109332	-2.2107600255	-0.7845828099	 0.44507
O	-0.0754293294	-3.1523385179	-1.5396607943	-0.335879
C	 0.0126651441	-2.2752934611	 0.7376935335	-0.174092
N	 1.2473293218	-1.6538286641	 1.3030364546	-0.326612
C	-0.0194953858	-0.8772949773	 1.2084324573	-0.152263
H	 0.8766862746	 1.8204807569	 0.6276245628	 0.148294
H	-0.0112748556	 1.9566293855	-0.9062134037	 0.136645
H	-0.8815545524	 1.8504263875	 0.63840618	 0.136317
H	 0.0657156389	-0.4130249507	-2.1474281006	 0.11233
H	-0.4546070563	-3.1051103582	 1.2535519599	 0.109801
H	 1.3502910227	-1.9970994614	 2.2590996203	 0.236331
H	-0.523552131	-0.5676394078	 2.1174325587	 0.100049
141.3497	177.9226	195.9712	278.4787	346.5406	456.1017	558.6798	566.6047	634.2394	755.0603	824.3284	841.6035	842.6394	884.8638	908.7211	919.8473	1017.4004	1030.2973	1060.4769	1120.6817	1147.6904	1165.0106	1188.1393	1262.8697	1310.4625	1354.0262	1394.1114	1410.6265	1476.3401	1479.9295	1669.9744	1820.0577	3023.1997	3072.2363	3125.0356	3174.1346	3196.9828	3217.6448	3454.0954
CC1=CC(=O)C2NC12	CC1=CC(=O)[C@H]2N[C@@H]12	
InChI=1S/C6H7NO/c1-3-2-4(8)6-5(3)7-6/h2,5-7H,1H3	InChI=1S/C6H7NO/c1-3-2-4(8)6-5(3)7-6/h2,5-7H,1H3/t5-,6+/m0/s1
