27
gdb 103746	2.86202	0.98637	0.8641	0.1147	96.85	-0.249	0.0793	0.3283	1548.5292	0.249423	-353.559548	-353.547781	-353.546836	-353.59658	43.662	
C	-0.0238311743	 1.4720757021	-0.564807934	-0.376175
C	-0.0701637378	 0.1615776557	 0.2346108771	-0.246136
C	-1.4313344356	-0.5351953724	 0.21869469	 0.306719
C	-2.4852131977	 0.2477759223	 0.9908227525	-0.463781
C	-1.864938717	-1.2477701076	-1.0476116121	-0.37006
C	-1.5071005859	-2.0667318764	 0.1773589067	 0.306716
C	-0.2204975859	-2.8809759018	 0.1377603443	-0.463784
C	-2.627086751	-2.7959157049	 0.9206315933	-0.246139
C	-3.157801481	-4.0413110284	 0.1953990331	-0.376176
H	 0.98640453	 1.893686816	-0.5551621126	 0.107901
H	-0.3071702483	 1.303615588	-1.6092018398	 0.116005
H	-0.6973306113	 2.2319332452	-0.1575126456	 0.116042
H	 0.7028096919	-0.5017932596	-0.1594261823	 0.093203
H	 0.2116292194	 0.3642698157	 1.2772388885	 0.09064
H	-2.4980565574	 1.2944680625	 0.6701636128	 0.114755
H	-3.4961121545	-0.1348993045	 0.8400945793	 0.115702
H	-2.2791270862	 0.2388427098	 2.0682282042	 0.110996
H	-2.9097867917	-1.1791205712	-1.3376505849	 0.099161
H	-1.1801424193	-1.2680120165	-1.8909308269	 0.099162
H	 0.5278597402	-2.4631286954	-0.5378441485	 0.115702
H	 0.2322307267	-2.9604029263	 1.1337931658	 0.110999
H	-0.42053152	-3.8991175931	-0.2114110027	 0.114755
H	-2.2615606545	-3.0856024293	 1.9156378955	 0.090642
H	-3.4692845059	-2.1232318787	 1.0967461941	 0.093203
H	-3.9879949719	-4.4870655296	 0.7526304221	 0.107901
H	-3.5238575674	-3.7855688603	-0.8046098579	 0.116006
H	-2.3916397436	-4.8136743915	 0.079976068	 0.116042
48.2236	57.3896	107.7903	139.5743	155.4798	220.1463	224.1582	234.9575	295.6655	336.3186	339.5764	361.7383	383.1847	400.835	435.0155	585.3353	679.4738	692.0233	782.0504	782.3908	861.446	896.4692	911.2016	938.5472	969.9258	1006.2822	1015.4434	1023.6318	1053.3475	1065.0981	1075.0027	1081.3584	1121.4787	1131.1817	1210.5167	1219.6095	1275.8304	1308.0881	1328.0774	1358.1425	1367.9172	1394.7915	1405.1757	1408.8789	1417.1881	1423.8041	1469.9229	1480.239	1488.1452	1489.6235	1494.8756	1495.4171	1506.313	1506.6918	1508.341	1514.4418	1514.6257	3014.3212	3014.6874	3028.2639	3030.5812	3035.8848	3036.0564	3085.3022	3086.4006	3089.0442	3090.8083	3101.0674	3101.2489	3107.6839	3109.9946	3113.0321	3125.4338	3127.3602	3188.5399
CCC1(C)CC1(C)CC	CC[C@@]1(C)C[C@]1(C)CC	
InChI=1S/C9H18/c1-5-8(3)7-9(8,4)6-2/h5-7H2,1-4H3	InChI=1S/C9H18/c1-5-8(3)7-9(8,4)6-2/h5-7H2,1-4H3/t8-,9-/m0/s1
