20
gdb 133654	2.29293	1.25379	0.98117	2.0307	67.76	-0.3256	0.0807	0.4063	1264.5121	0.165446	-534.678032	-534.667875	-534.666931	-534.713662	37.147	
C	 0.2399001423	 1.4729815359	-0.2945810808	-0.404577
C	-0.0240559019	-0.0194933561	-0.0333415529	 0.037058
C	 0.8338568271	-0.4828246989	 1.1566626933	-0.402108
C	-1.5440561693	-0.2938185023	 0.1425460276	-0.127023
C	-2.3779747908	 0.2005177196	-1.0526987723	-0.420061
C	-1.844671614	-1.7752722793	 0.3760278394	 0.289966
F	-1.4107032906	-2.2095920413	 1.5724639308	-0.082435
F	-3.1658411686	-2.0277318807	 0.3464234159	-0.082704
F	-1.2746442601	-2.5545255714	-0.5611525302	-0.086883
H	 1.316183234	 1.6539766512	-0.3729563891	 0.116523
H	-0.2191793162	 1.8274536174	-1.2200720171	 0.118439
H	-0.1379861747	 2.0904084269	 0.5295577524	 0.113992
H	 0.29762658	-0.5792567574	-0.9211145495	 0.089224
H	 0.5043076719	-0.0086514453	 2.0885569589	 0.113089
H	 0.8030330976	-1.562513934	 1.3035425425	 0.130306
H	 1.877187437	-0.1958773132	 0.9920920333	 0.108476
H	-1.8899866304	 0.2137808111	 1.0525803118	 0.099643
H	-2.0178521603	-0.2421712227	-1.9871078956	 0.128822
H	-3.4282348142	-0.0695378053	-0.9328277959	 0.13419
H	-2.3190606589	 1.2855019957	-1.1437281224	 0.126064
35.9526	72.8475	178.8059	185.3592	220.6097	237.1018	260.577	319.4725	343.1303	374.069	405.4908	439.5463	482.1217	549.2876	576.0744	667.0366	785.1987	833.4136	926.4832	933.0154	969.6077	987.5419	1037.5663	1071.7072	1115.5647	1161.1409	1194.9619	1199.2692	1204.9108	1271.501	1303.1064	1341.7259	1365.6372	1386.6451	1403.2214	1414.0298	1429.0907	1486.8645	1492.2203	1501.5097	1506.1213	1508.8826	1523.2608	3020.8258	3030.8253	3034.2627	3041.3983	3054.826	3093.5357	3101.2309	3119.7732	3130.3232	3145.1933	3148.5488
CC(C)C(C)C(F)(F)F	CC(C)[C@@H](C)C(F)(F)F	
InChI=1S/C6H11F3/c1-4(2)5(3)6(7,8)9/h4-5H,1-3H3	InChI=1S/C6H11F3/c1-4(2)5(3)6(7,8)9/h4-5H,1-3H3/t5-/m1/s1
