20
gdb 80874	2.23074	1.90286	1.54233	1.6463	77.76	-0.2209	0.0757	0.2966	982.9169	0.172348	-403.095999	-403.088164	-403.08722	-403.127632	32.217	
C	-0.030377198	 1.5006012056	 0.0503458661	-0.512999
C	-0.0152450864	-0.0096577632	-0.004117074	 0.297783
C	 0.4369615201	-0.8134699245	-1.2615707116	-0.273491
C	-0.3163796254	-1.9850449034	-0.5744242223	-0.123555
C	 0.4705893813	-2.1818280778	 0.7334375033	-0.018197
N	 1.8446061022	-1.6126794051	 0.7338107449	-0.353808
C	 0.6837491478	-0.7800191855	 1.1425638755	-0.063935
C	-1.324528593	-0.8632136399	-0.1160728825	 0.122382
O	-2.0722452087	-0.998809192	 1.0669534681	-0.443305
H	 0.9875293762	 1.9047096547	 0.0247749595	 0.12184
H	-0.5807811278	 1.925893538	-0.7957085451	 0.109325
H	-0.507366503	 1.8549142831	 0.9712408855	 0.12121
H	-0.0700324004	-0.4696211814	-2.165572068	 0.085605
H	 1.5040259934	-0.9308457197	-1.4275922687	 0.130948
H	-0.6368349776	-2.868911594	-1.1264783166	 0.053875
H	 0.2117479065	-2.968979763	 1.4304872134	 0.086904
H	 2.3135656622	-1.9307625218	 1.5802491516	 0.225158
H	 0.5947303739	-0.4361944624	 2.1660592906	 0.088505
H	-1.9560185736	-0.5229404512	-0.9479368169	 0.062489
H	-2.8764299697	-1.4861731165	 0.8649363071	 0.283266
190.9284	212.8257	226.7625	240.488	271.9545	308.2206	457.4861	467.3631	541.1597	589.5279	660.9909	730.5718	773.3127	807.4978	820.4403	839.8046	874.392	907.5499	919.6574	934.4259	967.8956	994.8163	1045.1022	1073.5465	1095.1363	1126.6564	1137.8328	1143.5362	1165.1828	1204.9028	1213.4699	1229.9493	1252.4344	1263.8553	1285.3301	1313.7811	1358.5507	1398.882	1410.7613	1437.317	1492.3535	1493.8408	1497.0989	3011.5031	3025.4964	3083.6177	3091.2289	3094.0164	3110.5175	3177.0725	3180.4337	3191.9342	3483.509	3825.2302
CC12CC(C3NC13)C2O	C[C@@]12C[C@@H]([C@H]3N[C@@H]13)[C@H]2O	
InChI=1S/C7H11NO/c1-7-2-3(6(7)9)4-5(7)8-4/h3-6,8-9H,2H2,1H3	InChI=1S/C7H11NO/c1-7-2-3(6(7)9)4-5(7)8-4/h3-6,8-9H,2H2,1H3/t3-,4+,5+,6+,7+/m0/s1
