20
gdb 41261	3.35918	1.86169	1.47409	1.6219	81.62	-0.2182	0.0774	0.2956	943.4197	0.174123	-365.943518	-365.936937	-365.935993	-365.974	28.243	
C	-0.0374394789	 1.4625446603	 0.1996998082	-0.244231
C	 1.4543963272	 1.6133592679	-0.2491857364	-0.322814
C	 1.3878307002	 0.1730616999	-0.7383587363	 0.39427
C	 2.3761277101	-0.942771458	-1.0623674906	-0.354979
C	 1.3238758151	-1.4351524219	-2.0811673731	 0.01602
C	 0.0614430774	-2.1131913881	-1.4982769811	-0.250564
C	-0.5028150756	-0.6999958273	-1.2215315467	-0.00291
C	 0.0730574437	-0.092391202	 0.0527799306	-0.070914
N	 0.6269285676	-0.0690029703	-2.0582361238	-0.194758
H	-0.2685451141	 1.8192850959	 1.204940475	 0.100433
H	-0.7462153337	 1.9090109144	-0.5016228496	 0.114488
H	 1.6927762098	 2.3747008748	-0.9962267547	 0.105562
H	 2.1251915928	 1.7267120631	 0.6092162557	 0.099622
H	 3.2669794479	-0.5683400637	-1.5776325087	 0.109511
H	 2.6853367492	-1.6084081802	-0.2513324553	 0.097678
H	 1.6885456807	-1.8076370692	-3.0405036471	 0.072266
H	-0.5047901292	-2.6317947984	-2.2759598026	 0.108541
H	 0.1819603403	-2.7889641218	-0.6453723188	 0.095603
H	-1.5416287988	-0.4972726064	-1.4984073967	 0.065719
H	 0.0245263784	-0.6598344391	 0.985513382	 0.061457
183.2673	247.4528	321.9161	342.53	389.6699	511.0864	609.5589	684.7061	727.0268	742.9214	827.4053	832.7547	867.1023	887.3302	890.3235	920.8749	927.8083	937.6038	968.2617	983.6491	1014.5964	1043.7695	1071.7292	1094.6579	1123.9271	1153.2869	1173.1718	1190.4722	1207.8559	1209.9635	1234.3329	1246.1601	1253.1039	1263.0051	1275.2778	1292.9209	1319.3289	1349.8092	1359.1452	1466.0468	1472.7362	1483.7269	1486.5292	3041.8485	3044.3964	3045.6906	3057.9139	3068.3248	3073.2452	3080.2531	3095.2822	3103.0483	3105.2288	3127.3135
C1CC23CC4CC(C12)N34	C1C[C@@]23C[C@H]4C[C@@H]([C@H]12)N34	
InChI=1S/C8H11N/c1-2-8-4-5-3-7(6(1)8)9(5)8/h5-7H,1-4H2	InChI=1S/C8H11N/c1-2-8-4-5-3-7(6(1)8)9(5)8/h5-7H,1-4H2/t5-,6+,7+,8-/m1/s1
