19
gdb 112956	4.31228	0.84405	0.78061	6.5706	72.23	-0.2418	0.0208	0.2626	1472.9297	0.161041	-456.35385	-456.344919	-456.343975	-456.388268	32.743	
N	-0.1249017343	 1.5473974296	-0.3256776	-0.512364
C	-0.0128111257	 0.0903477413	-0.2216415696	-0.170458
C	-1.3771709463	-0.5075384713	 0.1136477647	 0.065988
C	-1.3196586144	-1.9148966632	 0.7619727445	-0.26808
C	-1.6046912576	-1.19646068	 2.1168633039	-0.107008
N	-1.9714736672	 0.0307950558	 1.3657266133	-0.341598
H	-1.5481076037	 0.9051800932	 1.664795515	 0.23781
H	-3.6992151709	-0.4324997182	 2.0590493318	 0.30144
C	-2.7590668269	-1.764013447	 2.9399495918	 0.419482
O	-2.6402916957	-2.6911225323	 3.6961021922	-0.347928
O	-3.9234352995	-1.1444042488	 2.700941153	-0.370093
H	 0.7938540863	 1.9688116902	-0.4128221548	 0.236715
H	-0.6391476399	 1.8023099015	-1.1642002184	 0.232259
H	 0.3798594583	-0.4088563449	-1.1241794209	 0.091925
H	 0.6877373991	-0.1309658106	 0.5934920323	 0.106614
H	-2.0468286496	-0.4014986956	-0.7490831532	 0.076179
H	-2.1249153554	-2.5824122916	 0.4522139211	 0.127201
H	-0.3685159417	-2.4436828167	 0.6897622149	 0.119263
H	-0.7224409545	-1.1199924513	 2.7588591283	 0.102654
59.3174	101.1306	111.8987	164.7791	236.8371	255.4304	311.5914	393.8702	475.0306	521.0545	626.3564	714.301	741.9889	800.8339	815.8991	858.1308	886.3695	913.2762	964.1981	980.1717	984.4601	1043.4774	1056.2148	1074.6622	1116.6523	1125.0889	1208.5894	1234.3349	1252.0432	1259.9139	1279.6727	1308.6267	1338.0936	1343.3363	1396.0296	1428.4088	1435.6923	1491.6418	1503.3943	1658.2061	1870.7396	2954.9765	3018.2337	3049.0825	3068.6638	3086.6333	3142.2271	3445.4721	3494.5941	3511.396	3575.7964
NCC1CC([NH2+]1)C([O-])=O	NC[C@H]1C[C@@H](N1)C(=O)O	
InChI=1S/C5H10N2O2/c6-2-3-1-4(7-3)5(8)9/h3-4,7H,1-2,6H2,(H,8,9)	InChI=1S/C5H10N2O2/c6-2-3-1-4(7-3)5(8)9/h3-4,7H,1-2,6H2,(H,8,9)/t3-,4-/m1/s1
