17
gdb 70631	2.49483	1.90057	1.33424	1.7319	67.34	-0.2247	0.0743	0.2989	966.5824	0.135433	-458.916644	-458.909042	-458.908098	-458.948382	30.216	
O	-0.6195393243	 1.1638778101	 0.03251718	-0.468776
C	-0.0895898278	-0.1147129644	 0.057319599	 0.318659
C	-0.2842361495	-0.9670734657	 1.2816560829	-0.378371
C	 1.1151255161	-0.5836089884	 0.8378570889	 0.030703
O	 1.8589703878	-1.5174040411	 0.0943240783	-0.262319
C	 1.0978124335	-1.9026942285	-1.0545586292	-0.170135
C	 0.0541994334	-0.8191429761	-1.2651709819	 0.31921
C	-0.935868286	-0.7706245914	-2.3372459662	-0.250852
O	 0.2164430177	 0.0927109796	-2.3674221859	-0.288078
H	-0.2659499261	 1.5782582476	-0.7675172676	 0.292824
H	-0.660764934	-0.4316120609	 2.1468829988	 0.131879
H	-0.6291556237	-1.9922505766	 1.1938745936	 0.118819
H	 1.7331112337	 0.0607978962	 1.4501922856	 0.115587
H	 1.7691307589	-1.9861351404	-1.9132184755	 0.131586
H	 0.6197675035	-2.8776776943	-0.8841754695	 0.108277
H	-0.9509749226	-1.5433743489	-3.104491047	 0.122187
H	-1.8847026204	-0.2679591468	-2.1590306243	 0.1288
116.812	203.5045	241.8212	279.9721	345.1704	393.9464	432.3126	463.2414	489.3974	556.767	632.2021	718.9155	783.0899	824.266	873.7112	903.075	952.2068	964.2193	991.4809	1000.8149	1028.0816	1051.5896	1077.9402	1122.134	1145.8574	1150.0216	1182.7189	1223.3769	1243.7011	1293.4966	1351.9062	1369.0125	1416.8265	1448.3971	1483.9645	1504.4493	1527.8091	3003.932	3088.1467	3095.4143	3129.1285	3177.7837	3198.8834	3221.5406	3745.3862
OC12CC1OCC21CO1	O[C@]12C[C@H]1OC[C@]12CO1	
InChI=1S/C6H8O3/c7-6-1-4(6)8-2-5(6)3-9-5/h4,7H,1-3H2	InChI=1S/C6H8O3/c7-6-1-4(6)8-2-5(6)3-9-5/h4,7H,1-3H2/t4-,5-,6-/m1/s1
