19
gdb 114275	4.26328	1.14245	1.10363	2.457	76.64	-0.2445	0.0568	0.3013	1158.0165	0.159829	-422.876569	-422.868998	-422.868054	-422.908579	30.6	
O	-0.0983375061	 1.5423065779	-0.2678649144	-0.416779
C	 0.142901839	 0.1935879584	 0.0917771214	-0.089389
C	-1.17550412	-0.5550706051	 0.162924525	 0.051367
O	-1.8839607983	-0.5250060801	-1.1618361773	-0.378404
C	-1.7155122413	-1.9465381406	-1.1922983347	 0.421083
C	-2.3475590758	-3.3682559669	-1.2321240792	-0.297622
C	-0.943714129	-3.4338922288	-0.4455605135	-0.096379
C	-0.3508412384	-2.5909064993	-1.5855782798	-0.269375
C	-1.4221476496	-2.1137538544	 0.2790933303	-0.119235
H	-0.5996422435	 1.5111728971	-1.0921215154	 0.294504
H	 0.8515644637	-0.2770875274	-0.5994497009	 0.096298
H	 0.6010459085	 0.2022641682	 1.0871955084	 0.115289
H	-1.8127734468	-0.0448058834	 0.8908543381	 0.106748
H	-3.2461625811	-3.5203908059	-0.6317030561	 0.109718
H	-2.3838376739	-3.9108868819	-2.1815478657	 0.102395
H	-0.5231578612	-4.3389588506	-0.0059538828	 0.089784
H	-0.2999569991	-3.0614917796	-2.5697875419	 0.096307
H	 0.5584030417	-2.0386328773	-1.3601506535	 0.100501
H	-2.2942354289	-2.2741871104	 0.9154108721	 0.083189
88.3853	159.4298	213.5284	318.453	384.348	438.2911	465.46	488.8718	551.4465	628.528	696.3703	746.5372	779.1208	810.2089	839.0064	903.4451	950.6725	953.9561	994.742	1011.1767	1019.4866	1029.3351	1071.7152	1082.5011	1101.8683	1122.2694	1141.1068	1160.1698	1184.1223	1194.4946	1216.711	1224.0732	1234.0969	1276.651	1336.5882	1382.1069	1402.8768	1434.8621	1493.0558	1498.137	1537.8295	3031.2829	3052.6172	3062.0461	3076.7514	3081.7361	3088.3324	3108.0743	3136.2791	3167.5204	3786.1669
OCC1OC23CC(C2)C13	OC[C@H]1O[C@@]23C[C@@H](C2)[C@@H]13	
InChI=1S/C7H10O2/c8-3-5-6-4-1-7(6,2-4)9-5/h4-6,8H,1-3H2	InChI=1S/C7H10O2/c8-3-5-6-4-1-7(6,2-4)9-5/h4-6,8H,1-3H2/t4-,5-,6+,7-/m1/s1
