20
gdb 95645	2.1982	1.71824	1.03976	4.2745	76.07	-0.2317	0.0118	0.2435	1171.5896	0.171277	-440.314506	-440.305561	-440.304616	-440.348497	33.346	
C	 0.3795305247	 1.6276318922	-0.0100715458	-0.404636
C	 0.2250054025	 0.1012732207	 0.0026274978	-0.08885
N	 0.7093065454	-0.5188396751	-1.233590123	-0.081163
C	-0.119659527	-0.1920718667	-2.3853633007	-0.32566
C	 0.859711928	-1.9539536053	-1.0656811823	-0.16857
C	 1.9240713819	-2.2056979272	-0.0215223103	-0.072332
O	 1.6041489545	-1.5897189136	 1.2334298454	-0.226178
C	 0.8842473142	-0.4503095998	 1.2818813215	 0.418251
O	 0.7168319812	 0.0865908684	 2.3439344347	-0.331984
H	 1.4099479022	 1.8990128178	-0.257194562	 0.125874
H	-0.2862700591	 2.0904249931	-0.7414144113	 0.11582
H	 0.1351337723	 2.018527495	 0.9777491953	 0.153116
H	-0.8505915978	-0.1333870329	 0.1518339554	 0.091593
H	-0.1133146485	 0.8834751919	-2.5720443069	 0.130572
H	 0.2858593885	-0.6862023812	-3.27305451	 0.121714
H	-1.1715505489	-0.5140402572	-2.263478731	 0.096896
H	-0.0863788709	-2.453353226	-0.7749408999	 0.089637
H	 1.1836890584	-2.3967398777	-2.0134617383	 0.111847
H	 2.0339565177	-3.2718785476	 0.1925595932	 0.121471
H	 2.8864831609	-1.8108409688	-0.3657089619	 0.122581
42.8858	117.8768	200.0119	213.5718	233.0916	304.8304	341.7648	360.451	419.3017	460.1944	480.6262	530.3207	650.4738	672.4093	783.8152	833.2773	913.8658	949.4896	1041.3301	1057.3948	1090.7448	1104.9414	1110.6845	1119.3137	1164.7	1194.1464	1217.5213	1268.6364	1272.815	1320.3158	1340.2164	1353.9194	1400.1665	1402.983	1432.7715	1462.3126	1486.2236	1494.5248	1502.529	1505.1022	1505.6696	1509.6118	1834.277	2876.1	2907.672	2930.0664	3044.3604	3056.7199	3070.4334	3078.8221	3104.1981	3122.7722	3132.1731	3157.5822
CC1N(C)CCOC1=O	C[C@H]1N(C)CCOC1=O	
InChI=1S/C6H11NO2/c1-5-6(8)9-4-3-7(5)2/h5H,3-4H2,1-2H3	InChI=1S/C6H11NO2/c1-5-6(8)9-4-3-7(5)2/h5H,3-4H2,1-2H3/t5-/m1/s1
