17
gdb 45786	2.90844	1.49317	1.07776	4.0207	77.	-0.2419	0.0045	0.2465	1110.7549	0.136091	-421.857244	-421.84947	-421.848526	-421.890366	29.755	
O	 0.0963750727	 0.2447855365	 0.8593208253	-0.325581
C	 0.0148667221	 1.2400699934	 0.1935800027	 0.398011
C	-1.3002744567	 1.9776837475	-0.007525425	-0.415514
C	-1.229948979	 3.2012511921	-0.8665308603	-0.103
C	-0.0866039297	 3.6041867167	-1.4097540697	-0.109567
C	 1.1779441625	 2.8848897394	-1.2086814404	 0.425443
C	 2.2019847814	 2.7957525501	-2.3171488309	-0.314583
C	 2.485550393	 3.6351245187	-1.0967722747	-0.314592
O	 1.1356404995	 1.7201685654	-0.397827936	-0.276546
H	-2.0094492839	 1.2432020052	-0.410923571	 0.15099
H	-1.6812268295	 2.2116650981	 0.9951081691	 0.151001
H	-2.1493088827	 3.7539238635	-1.0333781767	 0.104157
H	-0.0337186005	 4.4913470606	-2.0328209922	 0.103936
H	 2.7202013355	 1.8480510922	-2.4034465433	 0.139755
H	 1.978852751	 3.2877904938	-3.2571732342	 0.123168
H	 2.4612776255	 4.7158028548	-1.1809717526	 0.123166
H	 3.191809519	 3.243911482	-0.37407473	 0.139754
43.3265	80.356	240.4507	271.057	380.7511	430.1759	475.6947	512.6472	532.4046	586.5381	637.9926	735.3958	767.5778	821.0751	907.3939	913.0115	935.136	952.4265	972.1884	984.1041	996.1431	1028.1757	1066.2704	1077.6217	1162.9137	1194.6158	1213.2826	1241.985	1292.7211	1329.8886	1351.0286	1439.8151	1450.7808	1452.2526	1487.6553	1742.0168	1844.0809	3028.3219	3049.3962	3140.0953	3141.7107	3168.2567	3189.7084	3227.4578	3241.3503
O=C1CC=CC2(CC2)O1	O=C1CC=CC2(CC2)O1	
InChI=1S/C7H8O2/c8-6-2-1-3-7(9-6)4-5-7/h1,3H,2,4-5H2	InChI=1S/C7H8O2/c8-6-2-1-3-7(9-6)4-5-7/h1,3H,2,4-5H2
