12
gdb 24009	1.98935	1.8826	0.96725	3.8657	75.01	-0.251	-0.0383	0.2127	1100.5991	0.077862	-398.358351	-398.350939	-398.349994	-398.390529	27.349	
C	 0.0584347487	-1.1886112172	-0.0040235287	-0.416711
C	 0.0188101078	 0.0136714201	 0.0029770717	 0.228639
C	-0.0043535883	 1.424569646	 0.0108464333	 0.044396
C	-1.0959817756	 2.2431865534	 0.0288414787	-0.104501
O	-0.7221419316	 3.5475740769	 0.0311941936	-0.128755
C	 0.6253646327	 3.5871624623	 0.0146275847	-0.080274
C	 1.1381316167	 2.3230181052	 0.0014482008	 0.053908
C	 2.5080387591	 1.9668075967	-0.0175249291	 0.195316
N	 3.6272194213	 1.6721571836	-0.0330457481	-0.338913
H	 0.097397254	-2.2500254765	-0.0102853354	 0.201211
H	-2.1543933049	 2.0473510264	 0.0409706869	 0.168066
H	 1.0836258502	 4.561639863	 0.0141588116	 0.177617
100.5352	157.2768	191.1151	202.6146	441.2164	462.8225	508.2205	539.2153	598.4896	616.662	629.3459	648.9031	674.6123	693.6689	791.1482	806.408	895.7248	1095.2748	1159.7018	1198.7585	1247.0788	1313.6402	1349.3612	1567.7625	1603.1713	2243.8702	2355.7602	3288.7135	3295.22	3501.2389
C#CC1=COC=C1C#N	C#Cc1cocc1C#N	
InChI=1S/C7H3NO/c1-2-6-4-9-5-7(6)3-8/h1,4-5H	InChI=1S/C7H3NO/c1-2-6-4-9-5-7(6)3-8/h1,4-5H
