18
gdb 24436	3.41285	1.57509	1.11836	0.8781	78.01	-0.174	0.0622	0.2363	1068.0609	0.151573	-401.994711	-401.987524	-401.98658	-402.026074	29.069	
C	-0.0012601203	 1.5331513762	-0.0068429431	-0.218279
C	 1.4354979482	 2.0607816302	 0.0574996291	-0.076979
O	 2.1170143792	 1.6548851543	 1.2558343122	-0.279393
C	 1.9017161143	 0.3445105097	 1.5191552822	 0.376842
C	 0.9595547615	-0.5043059954	 0.9928553851	 0.168398
C	-0.0349436849	-0.0098965719	-0.0168131629	-0.335838
C	 1.1705212316	-1.7677958655	 1.6315043958	-0.28097
C	 2.2164422607	-1.6301955872	 2.5088212363	-0.085816
N	 2.6652841476	-0.3208068392	 2.432527607	-0.361927
H	-0.5480186894	 1.9108842111	 0.8648230836	 0.113443
H	-0.4852034788	 1.9450493227	-0.898840665	 0.098318
H	 2.0098288472	 1.703819262	-0.8097728148	 0.104186
H	 1.4614999642	 3.1527691762	 0.0664792831	 0.111577
H	-1.0492219823	-0.358867409	 0.2107924539	 0.103992
H	 0.1938290477	-0.3819537254	-1.0257732789	 0.101222
H	 0.6065078487	-2.6733398142	 1.4637458546	 0.087011
H	 2.6829851358	-2.3331285061	 3.1784562678	 0.113668
H	 3.4255143588	 0.0846960412	 2.9489812839	 0.260545
116.5907	211.4896	299.1208	324.1548	388.1223	411.1306	456.4951	522.0865	622.5787	633.8608	677.1156	702.0154	712.3139	808.1214	869.7742	885.018	918.939	925.8396	995.8434	1063.7601	1081.6864	1094.9907	1104.4187	1195.1195	1207.8755	1216.7735	1265.312	1297.3714	1313.1652	1358.9765	1369.3089	1405.56	1419.0675	1475.0743	1487.6168	1500.2212	1522.1931	1543.0195	1649.9875	2996.808	3003.7432	3035.8901	3048.8857	3085.6227	3104.5562	3239.1099	3276.6426	3689.3397
C1COC2=C(C1)C=CN2	C1COc2c(C1)cc[nH]2	
InChI=1S/C7H9NO/c1-2-6-3-4-8-7(6)9-5-1/h3-4,8H,1-2,5H2	InChI=1S/C7H9NO/c1-2-6-3-4-8-7(6)9-5-1/h3-4,8H,1-2,5H2
