20
gdb 97923	4.08378	0.64803	0.62086	2.0541	84.47	-0.2411	0.0363	0.2773	1851.7854	0.169188	-403.089249	-403.078867	-403.077923	-403.126721	36.817	
C	-0.4429164237	 1.4881554935	-0.4247471095	-0.464252
C	-0.1040056313	 0.0575372581	-0.0639033364	 0.342014
C	-1.2152481859	-0.7256542591	 0.6374642293	-0.398698
C	-1.6861285246	-0.0977935607	 1.8687235476	 0.045933
C	-2.0514210014	 0.4393491094	 2.8839430815	 0.068229
C	-2.5525674968	 1.0755577668	 4.1011197777	-0.192376
O	-3.5970734946	 2.0121652579	 3.8657374082	-0.403982
C	 0.8510620706	-0.692802789	-0.918614093	-0.285357
N	 1.2434392695	-0.2543403102	 0.43590187	-0.335295
H	 0.3917501749	 1.9690078126	-0.9447087194	 0.10975
H	-1.317974192	 1.5324451717	-1.0832203739	 0.120988
H	-0.6748656594	 2.069292425	 0.473276441	 0.141303
H	-2.0593165011	-0.8481763846	-0.0553905732	 0.123969
H	-0.8413434858	-1.7310612982	 0.8603212333	 0.136969
H	-2.8681017927	 0.297639876	 4.8150961285	 0.116255
H	-1.7517645347	 1.6422543409	 4.5892280542	 0.138637
H	-4.2608915613	 1.5688145184	 3.3274318406	 0.285416
H	 0.7560062068	-1.7691411106	-1.0390310625	 0.113629
H	 1.2730016528	-0.1805227517	-1.7796383315	 0.109219
H	 1.8381160107	 0.5687382138	 0.3764275075	 0.227647
14.1715	52.0172	85.1313	134.3603	222.8471	233.5877	295.5269	326.6568	341.1115	359.219	382.8302	401.4926	488.7077	575.5456	731.5746	776.0333	848.8748	902.0627	911.5677	938.7419	986.4187	988.6892	1017.764	1042.4486	1064.8043	1114.7469	1147.5889	1155.0525	1213.8216	1230.2472	1265.1613	1316.8505	1347.2709	1357.0885	1393.3146	1417.7281	1420.6836	1453.9321	1485.2234	1493.4632	1502.7571	1518.6118	2359.0361	2973.5774	3015.0022	3029.7783	3060.6128	3067.0275	3094.5362	3102.629	3108.5204	3185.366	3496.3985	3816.8231
CC1(CC#CCO)CN1	C[C@@]1(CC#CCO)CN1	
InChI=1S/C7H11NO/c1-7(6-8-7)4-2-3-5-9/h8-9H,4-6H2,1H3	InChI=1S/C7H11NO/c1-7(6-8-7)4-2-3-5-9/h8-9H,4-6H2,1H3/t7-/m1/s1
