20
gdb 48364	3.30907	1.12854	0.96187	2.1178	79.69	-0.2564	-0.0352	0.2212	1273.1844	0.171307	-403.123864	-403.115172	-403.114228	-403.157649	32.496	
O	-0.4569144049	 0.5172763226	 0.9733157714	-0.274949
C	-0.2027562243	 1.4903957505	 0.3017374806	 0.098684
C	 1.1863691971	 1.9010328992	-0.0694165489	 0.219716
C	 2.119736169	 1.997178897	 1.1076100142	-0.260716
N	 2.2257012851	 0.8879360083	 0.1701204213	-0.338812
C	 1.3289641486	 2.7883581941	-1.2822206698	-0.055351
C	 2.7367706693	 3.2937085323	-1.7023970867	-0.241467
C	 2.3341174256	 3.0684232882	-3.184974149	-0.21544
C	 1.19218196	 2.1403572931	-2.6939452097	-0.229268
H	-1.0108065068	 2.1483714123	-0.084764784	 0.082235
H	 2.9250993462	 2.7250494674	 1.0628457187	 0.128468
H	 1.7064831669	 1.8093890633	 2.094628484	 0.131426
H	 1.76373696	 0.0717727411	 0.5732084042	 0.247961
H	 0.6352386612	 3.6326728916	-1.1849774346	 0.071679
H	 3.026420151	 4.3016842192	-1.395694574	 0.093178
H	 3.5063247564	 2.5839845285	-1.3878571611	 0.127864
H	 1.9460195699	 3.9820145322	-3.6445409172	 0.101192
H	 3.0848116961	 2.6368482082	-3.8502024437	 0.101325
H	 1.509820679	 1.0942213121	-2.6663111128	 0.11691
H	 0.2231909445	 2.2059126689	-3.1949015728	 0.095364
65.7192	116.9892	129.2917	186.5404	250.8876	268.0133	327.6116	396.0783	450.3112	566.7963	700.3897	753.8646	784.2583	826.2551	860.5242	898.9765	921.4869	937.1082	955.098	975.8994	999.4293	1007.2896	1054.4744	1066.3762	1119.4217	1135.2806	1143.0266	1203.3711	1238.8876	1258.2559	1264.6763	1268.4611	1286.6983	1293.1881	1306.1984	1359.913	1392.7392	1430.4398	1474.4966	1486.155	1496.6603	1510.3861	1799.5878	2900.6266	3029.5405	3056.343	3057.8327	3063.6774	3103.0507	3110.7295	3114.0515	3126.2491	3204.2334	3461.0299
O=CC1(CN1)C1CCC1	O=C[C@]1(CN1)C1CCC1	
InChI=1S/C7H11NO/c9-5-7(4-8-7)6-2-1-3-6/h5-6,8H,1-4H2	InChI=1S/C7H11NO/c9-5-7(4-8-7)6-2-1-3-6/h5-6,8H,1-4H2/t7-/m1/s1
