16
gdb 14110	3.87553	1.74506	1.35894	1.8846	65.84	-0.2439	-0.0206	0.2233	908.5206	0.12905	-383.715667	-383.708041	-383.707097	-383.747879	28.013	
C	 0.5121516828	 1.3425745583	 0.118669684	-0.496095
C	-0.2834571282	 0.0582057464	-0.0317728565	 0.293017
O	-0.99894536	-0.3594914619	 0.8566168575	-0.323778
C	-0.134709252	-0.6800926962	-1.3069660892	 0.159736
C	-1.1061892652	-1.7901708981	-1.6956947295	-0.338046
C	 0.3126963047	-2.1451122404	-1.4880703758	 0.084724
O	 1.1157237232	-1.8335581651	-2.6182350111	-0.276634
C	 0.8055475142	-0.4193931136	-2.4828678827	-0.152369
H	 1.5872924075	 1.1295135707	 0.1103780947	 0.144137
H	 0.3143637089	 2.0248060418	-0.7159248196	 0.136929
H	 0.2479769923	 1.8229862316	 1.0610641009	 0.145294
H	-1.7801549025	-2.0456456987	-0.8852497594	 0.150454
H	-1.5190987072	-1.8051708062	-2.7002402982	 0.121752
H	 0.6966452614	-2.850430504	-0.7599712214	 0.12479
H	 0.3665806556	-0.001136961	-3.3961113672	 0.112451
H	 1.7090776644	 0.1391828862	-2.2163518165	 0.113637
67.9885	142.2129	173.0452	203.6582	326.0592	384.1659	445.9235	501.2233	585.6271	627.2711	754.5053	798.036	868.4416	934.941	951.3586	976.7774	986.9937	1017.0512	1042.8163	1060.4523	1090.9563	1102.38	1154.5388	1168.2164	1230.8694	1306.9434	1329.7365	1376.9776	1405.1909	1462.4346	1464.1795	1476.4849	1517.5023	1778.4465	3028.1508	3034.712	3080.0986	3094.2945	3123.2883	3154.6989	3187.648	3229.9969
CC(=O)C12CC1OC2	CC(=O)[C@]12C[C@H]1OC2	
InChI=1S/C6H8O2/c1-4(7)6-2-5(6)8-3-6/h5H,2-3H2,1H3	InChI=1S/C6H8O2/c1-4(7)6-2-5(6)8-3-6/h5H,2-3H2,1H3/t5-,6-/m1/s1
