17
gdb 46611	3.03105	1.54604	1.0604	12.5526	85.82	-0.1017	-0.0056	0.096	1091.171	0.138452	-417.939084	-417.93125	-417.930306	-417.971624	29.938	
O	 0.0706947514	 0.0076054936	-0.0565930409	-0.511004
C	 0.0371666084	 1.2539766585	 0.0106622476	 0.198587
C	-1.0664774646	 2.171371019	-0.0431623967	-0.274998
H	-2.1193555655	 1.9623375452	-0.1458899868	 0.085852
N	-0.6207980506	 3.497651972	-0.030508498	-0.354677
C	 0.723643589	 3.495380671	 0.140647268	 0.258188
C	 1.1682205919	 2.1833554655	 0.1507595381	 0.127117
C	 2.6398730467	 2.1310828125	 0.0747727549	-0.334312
N	 2.9418380115	 3.5587013807	-0.4898104491	-0.259024
H	 3.8775155793	 3.9010149675	-0.251885893	 0.278378
H	 2.8585391606	 3.5045195626	-1.5045406115	 0.306551
C	 1.8158354901	 4.4836517711	 0.0308784644	-0.325761
H	-1.2254661375	 4.2941376524	 0.0683761739	 0.245816
H	 3.1998864212	 2.0826107482	 1.0224465289	 0.130451
H	 3.0652919091	 1.3944460706	-0.6143949054	 0.154527
H	 1.6838631223	 5.3107665127	-0.6758826102	 0.139867
H	 2.2103151067	 4.8992625167	 0.9736411458	 0.134443
66.0934	163.5695	207.0409	251.7173	282.5844	330.5508	520.8412	556.6978	576.2554	588.6201	611.5099	703.0784	709.882	729.4934	777.2945	813.4834	897.1778	960.1569	1033.3941	1041.6583	1078.8415	1095.1426	1117.8556	1207.5058	1226.8844	1274.3134	1318.3713	1328.0889	1340.5675	1365.2178	1376.931	1499.7241	1508.21	1525.7468	1548.9851	1601.7745	1678.0496	2942.7965	2965.8554	3050.1856	3071.7778	3254.6919	3392.1707	3513.6087	3668.9321
O=C1[CH-]NC2=C1C[NH2+]C2	O=C1[CH]NC2=C1C[NH2]C2	
InChI=1S/C6H7N2O/c9-6-3-8-5-2-7-1-4(5)6/h3,7-8H,1-2H2/q-1/p+1	InChI=1S/C6H8N2O/c9-6-3-8-5-2-7-1-4(5)6/h3,8H,1-2,7H2
