18
gdb 87318	2.20011	1.3087	0.94009	2.269	79.51	-0.2561	-0.0359	0.2202	1280.3549	0.144656	-401.904341	-401.894612	-401.893668	-401.939277	35.088	
C	-0.0072418928	 1.4120593668	-0.1620907527	-0.405407
C	 0.1282160528	-0.0749617766	 0.0567111794	-0.026654
N	 1.4648603576	-0.6547753232	 0.0509137575	-0.351876
C	 0.7072503395	-0.6914562935	 1.3093003271	 0.210152
C	 1.2241669372	 0.1374318977	 2.4793275998	-0.443058
C	 2.2227593073	-0.5814161797	 3.2660508731	 0.293742
C	 3.0304996529	-1.2020060868	 3.9035418358	-0.430202
C	 0.104918882	-2.0135162825	 1.6661945377	 0.111996
O	-0.0459579161	-2.9081597707	 0.867351947	-0.276261
H	 0.8425693825	 1.9611271576	 0.2479177951	 0.132082
H	-0.0472531272	 1.6223831912	-1.2361462704	 0.132105
H	-0.9290126169	 1.7947696962	 0.2881850081	 0.123258
H	-0.6589414756	-0.6759545497	-0.3968347112	 0.107028
H	 1.4315080432	-1.5909719693	-0.3543876064	 0.247895
H	 1.6544764639	 1.0679378479	 2.100249723	 0.147403
H	 0.3820507435	 0.4198836259	 3.1257175058	 0.133817
H	 3.752655151	-1.7404179555	 4.4658646806	 0.201499
H	-0.2070184447	-2.1269360359	 2.7253320708	 0.092481
51.8182	95.7394	137.7997	174.5336	216.3594	227.549	264.9581	328.5579	348.7241	388.5114	462.9658	516.8831	627.146	643.1487	671.8542	762.6473	790.5231	877.6779	910.1522	958.8797	992.117	1028.028	1053.4433	1075.5732	1129.727	1137.7959	1210.875	1263.8005	1299.2972	1313.8563	1360.5318	1406.1914	1429.0102	1453.584	1458.4416	1487.6116	1499.5565	1802.1539	2239.9343	2918.0999	3022.1172	3041.0804	3093.611	3101.1381	3116.2385	3139.0735	3461.4449	3506.0656
CC1NC1(CC#C)C=O	C[C@H]1N[C@]1(CC#C)C=O	
InChI=1S/C7H9NO/c1-3-4-7(5-9)6(2)8-7/h1,5-6,8H,4H2,2H3	InChI=1S/C7H9NO/c1-3-4-7(5-9)6(2)8-7/h1,5-6,8H,4H2,2H3/t6-,7-/m1/s1
