19
gdb 38622	2.57548	2.2187	1.60409	2.0275	76.9	-0.2552	0.0829	0.3382	895.8641	0.162692	-385.858775	-385.852398	-385.851454	-385.889061	27.607	
C	-0.0205551282	 1.546231166	-0.0634792476	-0.233087
C	 1.4634545573	 2.026433807	 0.0760298984	-0.300996
C	 1.9216912917	 0.8952495993	 0.9748656458	 0.39415
O	 2.8910845586	 0.8017147143	 2.0024800922	-0.32463
C	 1.4972253925	 0.9373581084	 2.3785335716	-0.00038
C	 0.6137421661	-0.2658135544	 2.6816443036	-0.274711
C	 0.354666823	-0.8512849474	 1.2925214193	-0.046083
C	 0.0360129998	-0.0026839107	 0.0326299586	-0.047852
C	 1.4420738279	-0.4094084712	 0.3574544163	-0.142206
H	-0.6401649679	 1.9950951827	 0.7203493645	 0.104079
H	-0.4548293272	 1.8383319397	-1.0235413061	 0.102197
H	 1.9671411542	 2.0323356857	-0.8965336175	 0.100743
H	 1.5596872485	 3.0167532041	 0.5272371516	 0.104972
H	 1.2818034125	 1.8877654905	 2.8608464272	 0.092671
H	 1.1018858208	-1.0111651307	 3.3207623105	 0.114338
H	-0.2919981472	 0.066127383	 3.2023929027	 0.102547
H	-0.0192481255	-1.870101511	 1.2329028126	 0.080872
H	-0.5251588355	-0.5520990769	-0.7156639126	 0.08774
H	 2.0919892388	-1.0476354882	-0.2289316211	 0.085636
218.2857	239.1181	367.1189	392.2112	447.5662	525.5213	610.2704	657.9977	690.0758	724.3559	782.5364	816.8076	849.5581	862.8383	904.1428	905.9379	957.4611	966.08	994.0469	1018.4403	1020.6989	1057.9785	1063.8932	1092.6532	1102.3807	1131.2568	1157.6123	1204.2769	1206.4899	1215.7476	1288.4135	1302.436	1305.595	1308.6851	1328.2505	1348.834	1400.5637	1453.9232	1481.4577	1488.1547	1503.4779	3031.2242	3044.7971	3046.9618	3068.1354	3090.1217	3111.2051	3138.734	3142.9522	3163.6705	3182.5683
C1CC23OC2CC2C1C32	C1C[C@@]23O[C@@H]2C[C@H]2[C@@H]1[C@@H]32	
InChI=1S/C8H10O/c1-2-8-6(9-8)3-5-4(1)7(5)8/h4-7H,1-3H2	InChI=1S/C8H10O/c1-2-8-6(9-8)3-5-4(1)7(5)8/h4-7H,1-3H2/t4-,5+,6-,7-,8-/m1/s1
