21
gdb 87528	3.20798	1.33435	1.2462	1.4984	82.18	-0.2344	0.0706	0.305	1109.5666	0.184054	-387.055971	-387.04793	-387.046986	-387.088244	32.379	
O	 0.1327285851	 1.3516522051	-0.0837624669	-0.427969
C	 0.0220618073	-0.0429016411	-0.0037233944	 0.026647
C	-0.4172382512	-0.7465610158	 1.2707507082	-0.434536
C	-1.2866002751	-0.7455389902	 0.0398761294	 0.397777
C	-2.6826956639	-0.1358818655	-0.2033862699	-0.107857
C	-2.5637138186	-0.7537851812	-1.6284448399	-0.219492
C	-1.8072206739	-1.8802913769	-0.861534954	-0.107639
C	-2.9263108142	-2.4818030461	 0.0165132571	-0.207547
C	-3.5934453967	-1.1540749968	 0.5161400749	-0.206849
H	-0.6615936638	 1.7409358717	 0.2956338915	 0.28224
H	 0.8343945779	-0.4940913663	-0.5664679976	 0.104335
H	 0.0944296623	-1.6582610443	 1.5666494915	 0.110497
H	-0.7193568676	-0.1166787827	 2.1041417437	 0.105465
H	-2.8957445935	 0.9246083641	-0.0520778775	 0.049657
H	-3.4897943605	-1.0207552777	-2.1471761848	 0.084419
H	-1.9073706226	-0.175814615	-2.2810682642	 0.108209
H	-1.130236316	-2.5701169041	-1.3668436877	 0.059798
H	-3.6123878005	-3.1103551123	-0.5586497334	 0.093932
H	-2.5273642943	-3.0813649523	 0.8392994182	 0.097496
H	-3.5518609553	-1.0501585644	 1.6038040121	 0.096598
H	-4.6386080447	-1.0621960681	 0.2066693138	 0.094821
138.5128	144.0052	167.743	212.8415	298.5282	358.5684	439.9684	451.5019	574.7721	617.9499	664.3866	807.1028	822.8355	838.2805	841.9775	872.7302	903.6404	925.9963	953.2731	962.6011	978.9599	1004.8989	1016.9349	1021.6519	1048.0766	1081.9246	1102.7254	1137.5688	1141.839	1146.9282	1188.1064	1218.5767	1230.6263	1250.439	1260.8853	1264.6647	1298.5173	1318.0227	1324.6481	1377.1441	1436.1151	1490.0745	1491.4253	1496.8212	1519.1623	3049.7758	3051.3834	3058.776	3086.9425	3088.3381	3105.7873	3106.9076	3108.7204	3127.754	3150.7695	3190.9613	3820.3122
OC1CC11C2CC1CC2	O[C@H]1C[C@]21[C@H]1C[C@@H]2CC1	
InChI=1S/C8H12O/c9-7-4-8(7)5-1-2-6(8)3-5/h5-7,9H,1-4H2	InChI=1S/C8H12O/c9-7-4-8(7)5-1-2-6(8)3-5/h5-7,9H,1-4H2/t5-,6+,7-,8+/m0/s1
