18
gdb 31979	4.74109	0.92487	0.79445	2.5275	76.98	-0.1716	0.0619	0.2335	1447.0678	0.148502	-435.284051	-435.27471	-435.273766	-435.31894	33.175	
C	-0.4285986359	 1.1658060917	-0.4089992484	-0.333716
N	-0.3363182162	-0.2145694449	 0.0572443848	-0.374708
C	 0.6262779205	-0.5277670484	 1.0093437935	 0.415707
N	 1.4029873321	-1.5779658518	 0.9912392579	-0.336573
C	 2.1228832954	-1.5372135442	 2.1852460845	-0.244691
C	 1.7663482525	-0.4298932445	 2.8965558997	 0.398642
N	 0.8084855614	 0.2267252869	 2.1436339413	-0.389133
O	 2.1266653328	 0.1246014543	 4.0731361994	-0.264094
C	 3.1218347381	-0.6041195544	 4.7734268704	-0.24858
H	 0.5199708051	 1.5712405226	-0.7929251857	 0.119513
H	-1.1786798549	 1.2181514355	-1.2015001249	 0.132365
H	-0.7747335481	 1.8183391913	 0.3998187898	 0.120363
H	-0.2565109706	-0.8795488949	-0.7013209184	 0.247808
H	 2.8490170068	-2.2939166576	 2.4307719524	 0.100557
H	 0.2868605788	 1.0307932293	 2.4468942208	 0.265251
H	 2.7716415668	-1.6169823864	 5.010004616	 0.128644
H	 4.04370529	-0.6755586678	 4.182118315	 0.127934
H	 3.3177709556	-0.0574461768	 5.6965914319	 0.134712
44.9448	75.1715	151.3621	174.9112	200.8458	230.2864	269.8999	377.9576	401.7913	438.5686	501.4682	632.5666	650.9618	689.479	740.7777	761.4942	770.0172	982.069	1031.1208	1067.9355	1089.5657	1135.6095	1150.7491	1184.5471	1189.266	1217.3509	1254.5833	1285.8741	1417.9103	1423.7714	1460.6642	1474.4402	1481.6522	1493.1631	1508.8461	1511.2829	1519.7587	1635.0229	1645.8484	2986.5607	3008.2348	3066.3071	3066.6151	3118.8984	3142.0959	3266.272	3580.8781	3675.6035
CNC1=NC=C(N1)OC	CNc1ncc([nH]1)OC	
InChI=1S/C5H9N3O/c1-6-5-7-3-4(8-5)9-2/h3H,1-2H3,(H2,6,7,8)	InChI=1S/C5H9N3O/c1-6-5-7-3-4(8-5)9-2/h3H,1-2H3,(H2,6,7,8)
