16
gdb 9235	4.27961	1.27396	1.0975	1.0215	64.87	-0.2273	-0.0316	0.1956	1082.6031	0.129362	-417.071809	-417.063035	-417.062091	-417.105295	30.7	
C	 0.0442470272	 1.1066844756	 0.3801124448	-0.22425
O	-0.059958018	-0.2092121498	-0.1632131465	-0.250184
C	 0.5878687889	-0.4322870335	-1.3236352913	 0.480835
N	 0.5175361581	-1.7581696192	-1.6683798396	-0.56625
N	 1.2047316658	 0.517393483	-1.925507275	-0.363911
C	 1.9525653715	 0.1612837197	-3.1282666224	-0.235462
C	 0.9555165468	-0.0252306544	-4.258623462	 0.1516
O	 0.4760410904	-1.0974365746	-4.5558721167	-0.251308
H	 1.0895284727	 1.3742462107	 0.5545288925	 0.136768
H	-0.3943792646	 1.8434854095	-0.2975300873	 0.136475
H	-0.5067381433	 1.0767730696	 1.3212176746	 0.125741
H	-0.1406008866	-2.3010891912	-1.1312515997	 0.258564
H	 0.5440658672	-1.9639662422	-2.6595868274	 0.280275
H	 2.6357606095	 0.9833198598	-3.3659580649	 0.10992
H	 2.5352316046	-0.7648372145	-3.0162587835	 0.115027
H	 0.61404578	 0.9035879015	-4.7625694454	 0.096159
84.6332	128.3795	144.9676	161.5455	196.9028	223.7754	302.1838	371.7502	503.109	520.1179	525.4136	602.973	655.7548	744.1407	847.2695	903.0262	1004.0764	1040.0778	1101.3363	1124.9646	1174.0556	1183.2516	1217.4194	1260.6713	1333.2216	1397.1135	1416.0333	1475.7839	1483.6864	1492.7666	1503.2631	1645.6002	1713.1626	1798.5935	2913.2629	2997.0103	3049.026	3070.8721	3123.4229	3149.1159	3529.8393	3669.6843
COC(N)=NCC=O	COC(=NCC=O)N	
InChI=1S/C4H8N2O2/c1-8-4(5)6-2-3-7/h3H,2H2,1H3,(H2,5,6)	InChI=1S/C4H8N2O2/c1-8-4(5)6-2-3-7/h3H,2H2,1H3,(H2,5,6)
