18
gdb 12419	3.00832	2.09675	1.52154	1.8564	63.44	-0.2496	0.0829	0.3325	879.9329	0.154675	-422.081012	-422.073352	-422.072408	-422.112552	29.392	
C	-0.0132839349	 1.5319480363	-0.0339227649	-0.402677
C	 0.0479067733	 0.0167970794	 0.0256213622	 0.103893
O	 0.7791301214	-0.4377904253	-1.1228560976	-0.261639
C	 0.8579844178	-1.837371477	-1.1659811122	 0.014211
O	 1.5385064817	-2.3730131832	-0.0587705144	-0.247324
C	 0.8593994398	-2.0530608211	 1.1537726018	-0.118358
C	 0.7499019477	-0.5296040574	 1.2859282033	 0.124686
O	 2.0326028061	 0.0471045297	 1.4530135599	-0.436061
H	 0.988811318	 1.9525868997	 0.0712303545	 0.137932
H	-0.4407449135	 1.855641617	-0.9862751935	 0.122036
H	-0.6363205521	 1.9170720598	 0.7791396377	 0.115148
H	-0.9716849493	-0.4050871564	-0.0151561091	 0.063315
H	-0.1594436094	-2.2699383671	-1.2216442016	 0.079337
H	 1.4327755983	-2.1023608986	-2.0555795393	 0.120735
H	-0.1400099708	-2.5185166055	 1.167118651	 0.089227
H	 1.4571809584	-2.468773009	 1.9677907801	 0.120937
H	 0.1700214237	-0.2698729382	 2.1787273349	 0.085449
H	 2.5499418838	-0.2327806832	 0.6873168173	 0.289152
144.6909	184.6904	214.7206	253.2157	315.6094	347.3702	385.37	428.6737	458.5139	584.8214	646.1525	762.6576	811.9245	864.8043	915.8765	956.4506	1005.5781	1032.3081	1065.1986	1077.7112	1097.5715	1149.736	1181.1438	1207.5492	1257.99	1281.5731	1303.1218	1338.3031	1360.3691	1378.6801	1393.9448	1410.1898	1430.4876	1441.9992	1484.0352	1487.3386	1497.2869	1507.8136	2921.787	2951.4938	2977.4699	3049.7141	3058.5856	3108.2568	3114.2631	3121.5097	3140.5494	3785.5498
CC1OCOCC1O	C[C@H]1OCOC[C@H]1O	
InChI=1S/C5H10O3/c1-4-5(6)2-7-3-8-4/h4-6H,2-3H2,1H3	InChI=1S/C5H10O3/c1-4-5(6)2-7-3-8-4/h4-6H,2-3H2,1H3/t4-,5-/m1/s1
