19
gdb 109094	3.30461	1.16906	0.91637	1.4986	87.96	-0.2079	-0.0223	0.1856	1282.6647	0.160249	-385.902804	-385.894295	-385.893351	-385.936031	32.454	
O	 0.0774807345	 1.427737828	 0.3053671258	-0.413595
C	 0.0402754968	 0.0400456584	 0.0334871557	-0.153396
C	-1.385024945	-0.4511017527	-0.105842777	 0.204942
C	-2.4218361434	 0.4299366504	-0.086756812	-0.163899
C	-3.8269696524	 0.0948569843	-0.0753465212	-0.052485
C	-4.388165786	-0.9811985247	-0.6564388703	-0.086652
C	-3.5925856546	-1.9101083056	-1.5395790506	-0.313866
C	-2.5441184985	-2.5794753329	-0.6894224897	-0.080391
C	-1.5385360955	-1.8942321786	-0.1167694179	-0.100324
H	 0.9884117036	 1.7228434196	 0.2268793261	 0.290421
H	 0.5892986596	-0.1940541891	-0.8947181037	 0.101436
H	 0.5330310553	-0.5355902494	 0.8365896872	 0.095013
H	-2.1655865894	 1.4747906082	 0.0556838056	 0.110919
H	-4.472376929	 0.7858667611	 0.4638948453	 0.087248
H	-5.4434001814	-1.1891967674	-0.5023478495	 0.090032
H	-4.2396713847	-2.6491109832	-2.0176956393	 0.098224
H	-3.1049073774	-1.3298939821	-2.335998405	 0.115316
H	-2.6109050992	-3.6534173923	-0.5361806861	 0.091225
H	-0.7688099534	-2.457857092	 0.4094171465	 0.079832
66.6554	138.4896	208.0044	221.572	232.167	318.4225	367.479	390.9011	471.7592	506.7877	607.5161	653.0329	729.3149	764.0284	777.9495	886.5976	916.5729	935.1976	966.6474	983.1248	993.0117	1034.2561	1044.4092	1076.5089	1091.209	1159.3589	1214.6995	1225.8567	1239.6963	1265.4583	1271.167	1325.4415	1363.6054	1423.1861	1439.6808	1460.2017	1474.4371	1508.2782	1597.4376	1674.2026	1684.7904	2945.1556	2962.6686	2997.3254	3094.2833	3126.6073	3138.1592	3165.2435	3170.5754	3186.836	3845.3599
OCC1=CC=CCC=C1	OCC1=CC=CCC=C1	
InChI=1S/C8H10O/c9-7-8-5-3-1-2-4-6-8/h1,3-6,9H,2,7H2	InChI=1S/C8H10O/c9-7-8-5-3-1-2-4-6-8/h1,3-6,9H,2,7H2
