18
gdb 23400	2.87776	1.43673	1.39618	1.0639	79.21	-0.2374	0.0121	0.2495	1025.284	0.149859	-401.910753	-401.903405	-401.902461	-401.94232	29.769	
O	-0.1470435073	 1.3239527929	-0.0238877794	-0.399858
N	-0.0108585044	-0.0842113861	-0.0177753804	-0.303012
C	-1.1345624374	-0.6596286727	 0.017941601	 0.489896
C	-2.5848405199	-0.2000402643	 0.0396462286	-0.159755
C	-3.079129397	-0.9136186141	-1.2701785331	-0.210646
C	-2.2678642598	-2.2513736092	-1.2814804711	-0.211136
C	-1.4009168762	-2.1536398245	 0.0242084555	-0.145369
C	-2.375606273	-2.2023071316	 1.194465606	-0.080365
C	-3.0671030155	-1.05550747	 1.204758497	-0.078434
H	 0.7721148046	 1.6105110319	-0.043686236	 0.304242
H	-2.772842327	 0.868640456	 0.0901997897	 0.09094
H	-4.1594211227	-1.073291917	-1.2503799835	 0.102996
H	-2.8430388712	-0.3021897068	-2.1454057871	 0.109561
H	-2.9082658041	-3.1361396571	-1.2712044989	 0.102089
H	-1.6197825371	-2.3112990561	-2.1602336227	 0.107928
H	-0.5376405302	-2.8145489086	 0.0634081325	 0.079597
H	-2.5162154429	-3.0632204041	 1.8355611906	 0.100849
H	-3.8877327189	-0.7860898385	 1.8575220312	 0.100479
113.6836	195.9239	244.4735	315.8149	350.6249	403.5345	454.2318	524.2943	666.843	695.0258	714.7024	744.0915	809.1058	817.387	863.9265	874.4865	887.1011	938.4329	946.396	951.6945	969.3079	979.1039	1051.8425	1112.4182	1137.9583	1165.9866	1175.8533	1198.4743	1232.0998	1271.9287	1282.4598	1292.7528	1323.2408	1350.9885	1408.266	1484.525	1500.5016	1635.6956	1800.6628	3056.1875	3066.7849	3100.3957	3117.8407	3143.1033	3163.1533	3200.9361	3225.5121	3820.559
ON=C1C2CCC1C=C2	ON=C1[C@H]2CC[C@@H]1C=C2	
InChI=1S/C7H9NO/c9-8-7-5-1-2-6(7)4-3-5/h1-2,5-6,9H,3-4H2	InChI=1S/C7H9NO/c9-8-7-5-1-2-6(7)4-3-5/h1-2,5-6,9H,3-4H2/t5-,6+
