19
gdb 31625	3.45563	1.093	0.88313	3.27	81.9	-0.182	0.033	0.215	1362.3633	0.158864	-419.242837	-419.233268	-419.232324	-419.278308	34.009	
C	 0.0284180192	 1.514519955	 0.271468933	-0.372538
C	-0.0040004272	 0.0136964736	-0.0674557573	-0.295385
C	-1.3778192362	-0.5354673728	-0.1855686682	 0.341322
C	-2.080734246	-1.0937119564	-1.1786394765	-0.234159
N	-3.3458860879	-1.4138986472	-0.6820550847	-0.083295
C	-4.4397261784	-2.0290090243	-1.396510542	-0.341079
C	-3.4128497836	-1.0341241616	 0.6419378884	 0.452994
N	-4.4125635533	-1.1655284381	 1.4147132955	-0.619484
O	-2.1833359481	-0.4892121968	 0.9505785572	-0.256414
H	 1.0597659792	 1.8627533866	 0.379455632	 0.114897
H	-0.4532898224	 2.1027153422	-0.5153476726	 0.121246
H	-0.4986291878	 1.7099995478	 1.2090407353	 0.136733
H	 0.5145020376	-0.1731204942	-1.0138423163	 0.113333
H	 0.5440202731	-0.5414801852	 0.7057821892	 0.119326
H	-1.8006760184	-1.3004524854	-2.1976111984	 0.142015
H	-4.1453552413	-3.0015539058	-1.8065686561	 0.12905
H	-5.2521853409	-2.1713700028	-0.6830760777	 0.180627
H	-4.7907463261	-1.3913778323	-2.2162721989	 0.12919
H	-4.2012947916	-0.8096698823	 2.3420563981	 0.221623
40.5414	69.7579	100.0423	148.6214	192.7161	228.1405	283.2516	315.2208	382.2883	519.6573	577.438	644.6509	675.668	694.7032	729.9148	751.9576	787.9294	840.8502	943.177	977.1957	1018.8966	1066.2714	1079.999	1095.4026	1157.7379	1162.8048	1213.2863	1272.1864	1308.7345	1335.1304	1363.9666	1407.0629	1431.5393	1468.3469	1477.5521	1495.1819	1495.798	1508.2438	1512.7934	1723.9279	1774.7351	3017.3628	3022.9558	3043.3998	3074.4342	3075.8313	3115.0068	3125.0543	3152.9449	3281.185	3551.5847
CCC1=CN(C)C(=N)O1	CCC1=CN(C)[C@@H]([NH])O1	
InChI=1S/C6H10N2O/c1-3-5-4-8(2)6(7)9-5/h4,7H,3H2,1-2H3	InChI=1S/C6H11N2O/c1-3-5-4-8(2)6(7)9-5/h4,6-7H,3H2,1-2H3/t6-/m1/s1
