19
gdb 73676	2.23947	1.9036	1.42417	2.2793	75.41	-0.2431	0.011	0.2541	991.8582	0.161318	-423.040527	-423.032931	-423.031987	-423.072575	30.357	
O	 0.1141578817	 1.330490601	-0.3826438989	-0.481354
C	 0.0668644045	-0.0402736228	-0.0045319461	 0.362278
C	 0.6745765259	-0.8528166044	-1.1733096811	-0.117448
O	-0.1033355264	-2.0300991614	-1.2831362824	-0.247582
C	-1.4467938412	-1.6250532596	-1.0475563547	-0.100769
C	-1.3757598227	-0.6531978163	 0.1391876217	-0.080302
C	-1.4244683019	-1.3159650118	 1.5411937425	-0.27989
C	-0.0980200356	-0.9659007442	 2.1670233829	-0.059534
C	 0.7010986754	-0.2989765472	 1.3375392707	-0.161944
H	-0.1176048687	 1.8524962785	 0.3929486832	 0.273855
H	 0.6101022604	-0.2382934891	-2.0851655548	 0.098201
H	 1.7147776207	-1.1452394444	-1.0117030176	 0.106874
H	-1.8562572194	-1.1187566835	-1.9369660622	 0.090682
H	-2.0395471211	-2.5240485731	-0.8579822353	 0.105027
H	-2.122141255	 0.1391177056	 0.048900948	 0.07608
H	-2.2698955594	-0.9638371421	 2.1453206088	 0.103681
H	-1.540296238	-2.4048219941	 1.4648986852	 0.115762
H	 0.1611107637	-1.2634622888	 3.1779703317	 0.098855
H	 1.710039697	 0.0365399478	 1.5541501782	 0.097528
71.0585	183.3249	253.2169	313.3533	349.8297	379.7158	433.8807	459.956	588.2913	612.2944	686.199	745.2563	774.4664	813.3021	860.9347	948.674	951.7362	968.4405	970.9652	987.8787	1033.4869	1045.9826	1073.4428	1102.3112	1127.9349	1155.9898	1177.7174	1194.8896	1205.9465	1254.207	1286.2147	1313.6178	1321.9906	1337.9365	1367.4936	1389.0287	1401.9649	1482.148	1499.9676	1517.3605	1687.9968	2970.7298	2985.212	3020.3161	3045.3184	3085.3424	3089.5677	3100.3643	3175.7033	3201.0151	3806.2973
OC12COCC1CC=C2	O[C@]12COC[C@H]1CC=C2	
InChI=1S/C7H10O2/c8-7-3-1-2-6(7)4-9-5-7/h1,3,6,8H,2,4-5H2	InChI=1S/C7H10O2/c8-7-3-1-2-6(7)4-9-5-7/h1,3,6,8H,2,4-5H2/t6-,7-/m1/s1
