17
gdb 124801	2.62312	1.48775	0.99608	1.4496	70.64	-0.2108	0.0048	0.2156	1158.4569	0.137636	-451.332283	-451.323537	-451.322593	-451.365596	32.852	
C	 0.0601347817	 1.4276388214	 0.9601147769	-0.393932
C	-0.1893211385	 0.4469308976	-0.1808733524	 0.003371
O	 0.8343701468	-0.5630826032	-0.2522330223	-0.429179
C	-1.5390712039	-0.2069993565	-0.1286028104	 0.247295
N	-2.5288719685	 0.1462496269	 0.6932805257	-0.281542
N	-3.5020130813	-0.6926907576	 0.3894869709	-0.093989
N	-3.2409618209	-1.5945181787	-0.567956611	-0.289458
C	-1.9906657118	-1.2971850693	-0.9171148056	 0.274734
N	-1.300654174	-1.9375616248	-1.9301901264	-0.599244
H	 1.0636132801	 1.8504296479	 0.8682507345	 0.119523
H	-0.6742431546	 2.2368357165	 0.9434181194	 0.136489
H	-0.02734321	 0.925976714	 1.9297148577	 0.116862
H	-0.0842288903	 0.9734765829	-1.1380443741	 0.108583
H	 0.8116009865	-1.0467625171	 0.5821305857	 0.280673
H	-4.3939672029	-0.6628492112	 0.8527030615	 0.287921
H	-1.6663178244	-2.8516477753	-2.1563557623	 0.251887
H	-0.3019827041	-1.9380206335	-1.7672420178	 0.260005
64.2249	171.7867	179.2982	237.9696	297.1327	316.6447	347.1371	373.403	390.7284	435.3189	484.7111	530.3209	647.3556	690.5989	714.7583	753.6601	805.0134	893.1676	987.3712	1027.1249	1073.255	1098.1103	1113.8065	1189.1869	1221.4128	1260.7334	1285.003	1364.7892	1402.6484	1410.89	1418.3948	1462.8989	1487.615	1490.4557	1552.8312	1591.2103	1647.219	3029.761	3043.5688	3115.2879	3133.5651	3545.9331	3654.0918	3686.6704	3787.9639
CC(O)C1=NNN=C1N	C[C@@H](O)c1n[nH]nc1N	
InChI=1S/C4H8N4O/c1-2(9)3-4(5)7-8-6-3/h2,9H,1H3,(H3,5,6,7,8)	InChI=1S/C4H8N4O/c1-2(9)3-4(5)7-8-6-3/h2,9H,1H3,(H3,5,6,7,8)/t2-/m1/s1
