17
gdb 124300	3.67085	1.00581	0.9171	0.5151	74.25	-0.2319	-0.0124	0.2195	1291.7174	0.13657	-418.049446	-418.040753	-418.039809	-418.084982	30.731	
C	 0.4422723229	 0.6318941808	 0.7145534277	-0.475037
C	-0.1724879084	 0.0772208096	-0.5552588987	 0.391328
O	 0.3151477592	 0.2552592079	-1.6471082904	-0.308734
C	-1.439545625	-0.7695625063	-0.3850398238	-0.407969
C	-1.0648822706	-2.1911404952	-0.0620608295	 0.197255
C	-0.2891280175	-3.0499680171	-0.8212776984	-0.1129
N	-0.2148173656	-4.2106239089	-0.1289090915	-0.17239
N	-0.8847102052	-4.1811280574	 1.037442033	-0.223303
C	-1.3990475243	-2.9552895271	 1.0803147705	-0.09416
H	 1.4165737207	 1.0726939823	 0.5009293563	 0.14135
H	-0.2183709285	 1.3985284119	 1.1372814507	 0.14024
H	 0.5395461658	-0.1568268911	 1.4677761502	 0.146063
H	-2.0637380115	-0.3675842756	 0.4196035513	 0.109854
H	-2.0021863943	-0.7102967889	-1.3213679928	 0.129548
H	 0.200401307	-2.9130200143	-1.7725083815	 0.151748
H	 0.2702175163	-5.0523233347	-0.390202343	 0.277503
H	-2.001357271	-2.655218156	 1.9262830701	 0.109604
26.4505	37.9132	102.4158	145.3881	273.7927	306.7492	380.8502	503.1279	536.0452	554.3073	649.3089	698.3952	728.4788	790.0815	813.6894	886.256	886.3281	951.6155	1008.3424	1017.4472	1042.2556	1066.3342	1145.9242	1171.3096	1234.188	1250.8599	1298.8748	1323.8132	1379.4351	1387.6912	1413.9323	1461.1746	1474.725	1477.4686	1498.1329	1600.4325	1813.3276	3035.0067	3047.2966	3097.9507	3099.5352	3153.5063	3237.334	3266.0797	3673.7875
CC(=O)CC1=CNN=C1	CC(=O)Cc1c[nH]nc1	
InChI=1S/C6H8N2O/c1-5(9)2-6-3-7-8-4-6/h3-4H,2H2,1H3,(H,7,8)	InChI=1S/C6H8N2O/c1-5(9)2-6-3-7-8-4-6/h3-4H,2H2,1H3,(H,7,8)
