19
gdb 83527	2.89368	1.72802	1.58158	1.7034	72.64	-0.247	0.0856	0.3326	931.7152	0.16296	-423.009408	-423.002727	-423.001783	-423.039952	28.764	
O	 0.0345190555	 1.4465007737	 0.0132870392	-0.467601
C	 0.0121059752	 0.0396349461	 0.0319081683	 0.15088
C	-1.3577416841	-0.6130529214	-0.3037494721	-0.096466
C	-1.5068395209	-0.1010338854	-1.7552188357	-0.090111
O	-0.1433693853	-0.0533668092	-2.2546682651	-0.30447
C	 0.6850803122	-0.6008028743	-1.1958151215	 0.045504
C	 0.3748774589	-2.0848146009	-1.0890275318	-0.036765
C	 0.1600768708	-2.7044620027	 0.2715914212	-0.331811
C	-1.0135420983	-2.0965675047	-0.4528488947	-0.024764
H	 0.0440212051	 1.7078603177	-0.9163782721	 0.291442
H	 0.416165226	-0.264453453	 0.9957992259	 0.085676
H	-2.1858015828	-0.3569466369	 0.3577862944	 0.073895
H	-2.1067286759	-0.7719053325	-2.3794464035	 0.102591
H	-1.9364074651	 0.9056084746	-1.8057426632	 0.101146
H	 1.7160606649	-0.3123025462	-1.4030663743	 0.079204
H	 0.6263681509	-2.7161204695	-1.9331102329	 0.095938
H	 0.1742873568	-3.7892376219	 0.2874708881	 0.114835
H	 0.5761426321	-2.2623076923	 1.1686503121	 0.119837
H	-1.790002316	-2.7589445812	-0.8208522422	 0.091039
245.2961	262.7323	327.0248	331.895	370.1044	488.6789	511.5528	566.524	610.8914	761.7791	792.7441	819.0325	830.7402	881.4168	885.5197	895.6828	909.3214	970.3436	973.9057	1012.5132	1026.3155	1042.561	1057.9721	1078.6975	1082.1244	1119.9603	1139.2065	1179.2363	1197.347	1220.2389	1246.2952	1270.7079	1290.3217	1296.7793	1327.2333	1340.9827	1363.2894	1391.9069	1450.679	1504.4206	1523.17	3031.2423	3072.5763	3112.7811	3116.1602	3128.0733	3142.3666	3160.7921	3181.1323	3217.4936	3771.4652
OC1C2COC1C1CC21	O[C@H]1[C@H]2CO[C@@H]1[C@H]1C[C@@H]21	
InChI=1S/C7H10O2/c8-6-5-2-9-7(6)4-1-3(4)5/h3-8H,1-2H2	InChI=1S/C7H10O2/c8-6-5-2-9-7(6)4-1-3(4)5/h3-8H,1-2H2/t3-,4+,5+,6+,7-/m1/s1
