19
gdb 32131	3.54417	1.12051	0.86054	0.9075	88.05	-0.2122	0.0083	0.2205	1359.7534	0.160002	-385.958648	-385.949912	-385.948968	-385.992743	32.464	
C	-0.0328518639	 1.3912739651	-0.0995751964	-0.244096
O	 0.0576421229	-0.0170353823	-0.0192295832	-0.264278
C	 0.6630407733	-0.5602133114	 1.0734052391	 0.417151
C	 1.2043179964	 0.1746761134	 2.1280196818	-0.286273
C	 1.7986754139	-0.5087159625	 3.191343149	-0.083666
C	 1.8568285153	-1.8938864009	 3.2115984649	-0.206823
C	 1.3140059067	-2.6377913157	 2.1534735399	 0.33637
C	 1.3738114129	-4.1460960493	 2.1683744031	-0.491318
C	 0.7224106185	-1.9594562822	 1.0950227236	-0.301029
H	 0.9588084286	 1.8621686877	-0.1113634433	 0.123239
H	-0.5441739623	 1.6106061383	-1.0385124372	 0.133164
H	-0.6140156461	 1.809277023	 0.7327722362	 0.123233
H	 1.1710415563	 1.2561495225	 2.134920892	 0.093975
H	 2.2205216788	 0.0613305397	 4.0131913868	 0.092032
H	 2.3229403496	-2.4068736547	 4.0470163397	 0.083161
H	 0.8608730924	-4.5552402782	 3.04616096	 0.129973
H	 0.9072284715	-4.5741544442	 1.2775354683	 0.122427
H	 2.4095014728	-4.5020766852	 2.2093869827	 0.13003
H	 0.2914986923	-2.4992978731	 0.2583521727	 0.092727
39.8581	86.8023	205.2753	223.5632	227.4396	274.986	332.9544	457.0595	457.5285	519.6746	582.2674	584.761	712.159	736.6466	793.3586	863.7836	897.9567	918.9318	951.368	1006.6829	1013.858	1061.4611	1090.2905	1120.2818	1178.2955	1182.2585	1197.5449	1219.5415	1291.8477	1321.398	1359.306	1413.3517	1461.9565	1481.7523	1485.118	1489.9676	1501.9363	1510.6303	1525.8072	1623.6097	1653.999	3002.4872	3030.4146	3060.9617	3082.8599	3115.6431	3131.243	3166.8246	3183.3772	3185.8333	3215.9323
COC1=CC=CC(C)=C1	COc1cccc(C)c1	
InChI=1S/C8H10O/c1-7-4-3-5-8(6-7)9-2/h3-6H,1-2H3	InChI=1S/C8H10O/c1-7-4-3-5-8(6-7)9-2/h3-6H,1-2H3
