18
gdb 89649	4.78247	1.03595	0.97979	1.0612	71.86	-0.2451	0.0638	0.3089	1228.8532	0.14786	-439.013576	-439.005536	-439.004591	-439.046416	30.911	
O	-0.1174473132	 1.4377191114	-0.0639273025	-0.431714
C	-0.1092653181	 0.0406088756	-0.1075287301	 0.144469
C	 0.5783838322	-0.7480832348	 1.0773745343	-0.351787
C	-0.7882283674	-1.373025428	 1.386027257	 0.433212
O	-1.6885536087	-0.2720839672	 1.6246764428	-0.308973
C	-1.4272348913	-0.6644039996	 0.2578192377	-0.097665
C	-1.101260706	-2.6676477349	 2.0365997756	-0.139125
C	-1.4992663156	-2.6941003831	 3.4690226444	-0.235977
N	-2.4863939065	-2.9768918671	 2.4128304242	-0.321057
H	-0.5892644449	 1.6775688242	 0.7440333583	 0.28918
H	 0.2829119734	-0.2534181303	-1.0836745054	 0.099082
H	 1.3215480014	-1.4685968288	 0.7269438519	 0.113925
H	 1.0043109711	-0.135190934	 1.8754151439	 0.110182
H	-2.2896302404	-0.9106595383	-0.3515517828	 0.110204
H	-0.5445269605	-3.5113964152	 1.6340723902	 0.097973
H	-1.2288103024	-3.5444605201	 4.0879745859	 0.121694
H	-1.5612362304	-1.7427841741	 3.9897345644	 0.123845
H	-3.0454103726	-2.1376917558	 2.2664474403	 0.242533
85.7554	104.3137	161.9075	230.4435	330.6671	361.5194	432.186	485.8199	497.7079	634.8171	666.7542	720.9104	809.9613	843.9862	869.8982	878.8238	932.8748	946.4041	976.9617	982.5043	1011.5005	1031.032	1105.91	1116.6918	1127.0654	1146.0024	1163.6245	1186.6072	1200.4605	1243.4305	1264.884	1280.4378	1306.2877	1313.2673	1384.5241	1435.9791	1457.2749	1488.2483	1507.1637	3065.1707	3094.0908	3114.453	3125.726	3129.9245	3184.8744	3203.9201	3486.3286	3774.1028
OC1CC2(OC12)C1CN1	O[C@H]1C[C@]2(O[C@@H]12)[C@H]1CN1	
InChI=1S/C6H9NO2/c8-3-1-6(4-2-7-4)5(3)9-6/h3-5,7-8H,1-2H2	InChI=1S/C6H9NO2/c8-3-1-6(4-2-7-4)5(3)9-6/h3-5,7-8H,1-2H2/t3-,4+,5-,6-/m0/s1
