18
gdb 127643	3.06993	1.37447	1.01553	1.2166	79.14	-0.2335	0.0121	0.2456	1167.874	0.150139	-398.120907	-398.112616	-398.111672	-398.154746	30.124	
C	-0.5858015011	 1.4073249333	-0.1841118533	-0.33481
N	-0.1893470202	 0.0196697437	-0.0537314018	-0.019908
N	-0.1741119124	-0.7744100749	-1.1426657684	-0.26502
C	 0.1899372095	-1.9702087689	-0.6860088877	-0.001514
C	 0.4065579568	-1.9537583539	 0.7039430114	-0.322832
C	 0.1508780006	-0.6472536367	 1.0873930626	 0.37281
C	 0.2032325008	 0.0307117799	 2.3977621747	-0.130127
C	 1.0249835039	-0.522489897	 3.4999926817	-0.234543
N	 1.4482640795	 0.7210703974	 2.8369041105	-0.316654
H	 0.0456277931	 2.0395808957	 0.4442621629	 0.154874
H	-0.4638032316	 1.6876829904	-1.2298493613	 0.160528
H	-1.6331272314	 1.5522207411	 0.1037726694	 0.139268
H	 0.2840450864	-2.7980947214	-1.3733559151	 0.111347
H	 0.6920146177	-2.7718172315	 1.3451551949	 0.103665
H	-0.6888802288	 0.5912752088	 2.6696629944	 0.103431
H	 0.6901142827	-0.4044321383	 4.5261677315	 0.123176
H	 1.5892040686	-1.4302252067	 3.3078479619	 0.121348
H	 2.188186066	 0.5009923091	 2.1727356716	 0.23496
47.1728	92.1453	151.3674	174.9748	204.4586	321.4539	400.5699	495.7909	602.7504	668.5636	712.9516	742.727	798.1269	828.3328	873.6391	885.4147	946.0904	964.5017	1008.352	1029.258	1065.8919	1111.9431	1138.8757	1150.3889	1164.4656	1191.9417	1234.9973	1270.2842	1302.6564	1323.712	1364.8273	1400.4417	1425.4912	1456.5382	1488.3533	1496.5443	1509.7786	1515.1039	1583.5523	3038.7424	3111.4018	3117.7783	3123.3842	3165.0782	3203.7217	3242.7745	3268.5284	3487.6042
CN1N=CC=C1C1CN1	Cn1nccc1[C@H]1CN1	
InChI=1S/C6H9N3/c1-9-6(2-3-8-9)5-4-7-5/h2-3,5,7H,4H2,1H3	InChI=1S/C6H9N3/c1-9-6(2-3-8-9)5-4-7-5/h2-3,5,7H,4H2,1H3/t5-/m1/s1
