20
gdb 82508	3.20827	1.42006	1.31665	2.5972	77.9	-0.2195	0.0634	0.283	1063.881	0.171718	-403.102864	-403.094763	-403.093819	-403.134912	32.648	
C	 0.0899116413	 1.5292343163	 0.0162306199	-0.471183
C	-0.07644106	 0.0277538128	 0.0162725294	 0.346496
C	-0.8951319075	-0.6480900323	 1.0578095666	-0.299014
N	 0.5834610637	-0.7327305115	 1.1001883301	-0.145913
C	 1.242294373	-1.8892544547	 0.5159628706	-0.033977
C	 0.5832511	-3.0376764623	-0.2174700434	 0.076553
O	-0.7815501278	-3.3261061172	-0.1092696881	-0.40707
C	 1.1120830673	-1.8639741207	-1.0048123946	-0.113019
C	 0.1532264596	-0.7105333117	-1.3168073507	-0.319014
H	 1.0693188626	 1.8167236008	-0.3835724212	 0.114468
H	-0.6792565528	 2.0076350255	-0.6015693892	 0.113031
H	 0.0079188007	 1.9264143878	 1.0312219693	 0.125315
H	-1.3147118901	-0.0483030299	 1.8628524081	 0.10095
H	-1.4576012994	-1.5320277963	 0.7959105578	 0.148679
H	 2.18610055	-2.1193353637	 0.9993717936	 0.096538
H	 1.2083921477	-3.9318800949	-0.2543667164	 0.08825
H	-1.0794081968	-3.6543346301	-0.96479137	 0.289839
H	 1.9576553902	-2.0197977896	-1.6666469231	 0.084723
H	-0.7888151759	-1.056772937	-1.75657893	 0.099494
H	 0.615915734	-0.0365653214	-2.0431994288	 0.104853
139.7356	176.9255	206.1748	253.7443	285.403	335.8371	381.9234	424.9644	522.6001	577.7119	662.4418	690.3298	725.0314	754.1457	764.7061	824.5448	860.7028	914.1402	944.6287	956.4545	1000.7674	1027.4047	1055.2037	1073.8605	1110.7309	1118.5046	1123.2718	1142.6803	1168.2933	1203.8969	1246.0702	1268.4698	1294.6778	1307.5103	1333.591	1364.1917	1386.3038	1415.0784	1447.6326	1483.9332	1487.1141	1493.0918	1510.6422	3024.3257	3042.2871	3077.7684	3083.8502	3087.8624	3111.1264	3117.3568	3153.3327	3162.2461	3253.1096	3797.0763
CC12CN1C1C(O)C1C2	C[C@]12CN1[C@H]1[C@@H](O)[C@H]1C2	
InChI=1S/C7H11NO/c1-7-2-4-5(6(4)9)8(7)3-7/h4-6,9H,2-3H2,1H3	InChI=1S/C7H11NO/c1-7-2-4-5(6(4)9)8(7)3-7/h4-6,9H,2-3H2,1H3/t4-,5+,6-,7-,8?/m0/s1
