17
gdb 85486	2.13876	1.51277	1.09659	4.2908	72.11	-0.2364	-0.0377	0.1988	1135.6452	0.135671	-418.028342	-418.019762	-418.018818	-418.062183	31.311	
C	-0.6200654175	 1.4407396512	 0.6753508842	-0.339594
N	 0.1044873012	 0.2977754046	 0.123565994	-0.064249
C	-0.7671686137	-0.7255058777	-0.4593928015	-0.298482
C	-0.9885479755	-1.7966660818	 0.6215856607	 0.405609
O	-1.7927817672	-2.6869335196	 0.5944401309	-0.291899
C	 0.0188005326	-1.5114119159	 1.7445305762	-0.342983
C	 0.9183227671	-0.4036371374	 1.1418592506	-0.164596
C	 2.1234373587	-0.9745926501	 0.5143108586	 0.303685
N	 3.0640488822	-1.440509	 0.0318663628	-0.317785
H	 0.0951743291	 2.1659569954	 1.0736542886	 0.134591
H	-1.1757953289	 1.9302298808	-0.1283880612	 0.139214
H	-1.3365146864	 1.1854457759	 1.4768523245	 0.103908
H	-1.7144172104	-0.3102054134	-0.8085817543	 0.140617
H	-0.2799807765	-1.2073826223	-1.3184216643	 0.153899
H	-0.5247575781	-1.1327987626	 2.616293831	 0.14651
H	 0.5443443773	-2.4188297666	 2.0452969667	 0.159384
H	 1.2496280559	 0.3133550095	 1.8969075426	 0.132171
60.3704	80.7221	157.1755	213.4513	228.4907	363.2455	371.6018	442.4801	456.5457	473.8424	575.1511	610.0778	713.4247	739.1665	810.2736	873.1325	886.6438	987.6709	1026.0957	1038.027	1082.3241	1141.8841	1159.8082	1184.7006	1198.7409	1257.9408	1272.5445	1295.7624	1318.2492	1374.283	1443.4995	1453.7737	1472.1968	1495.0394	1504.279	1860.9506	2360.6696	2943.6966	3020.5735	3065.5578	3076.6606	3088.8558	3116.775	3122.64	3133.6314
CN1CC(=O)CC1C#N	CN1CC(=O)C[C@H]1C#N	
InChI=1S/C6H8N2O/c1-8-4-6(9)2-5(8)3-7/h5H,2,4H2,1H3	InChI=1S/C6H8N2O/c1-8-4-6(9)2-5(8)3-7/h5H,2,4H2,1H3/t5-/m0/s1
