18
gdb 15228	2.42904	1.82983	1.31762	3.0783	72.73	-0.2458	0.0145	0.2603	1012.4336	0.152975	-343.971363	-343.962502	-343.961558	-344.004894	31.614	
C	 1.4364468766	-0.2204538942	 1.2271967648	-0.383828
C	 0.2512239092	-0.4774757304	 0.2885430494	-0.216629
C	 0.714273225	-0.81552495	-1.1143945419	 0.013303
C	 0.9442199373	-2.2388715873	-1.5672712395	-0.17557
C	 0.6370948279	-3.3174257574	-0.6606312462	 0.294308
N	 0.3857237889	-4.1941038405	 0.0521404241	-0.347237
N	-0.1268611799	-1.4103033726	-2.1388544562	-0.106531
C	-1.5213737312	-1.7421619464	-1.8627206884	-0.326448
H	 2.0486439838	-1.1201802032	 1.342719993	 0.133875
H	 2.080619352	 0.5784420734	 0.8441678499	 0.118829
H	 1.0882541328	 0.078184405	 2.2197448627	 0.122726
H	-0.3700773011	-1.2787192237	 0.6971493464	 0.125964
H	-0.3808014443	 0.4181084259	 0.2357720485	 0.109164
H	 1.4171081956	-0.0889260439	-1.5241245052	 0.104089
H	 1.7602008575	-2.466358349	-2.2485465396	 0.133643
H	-1.7084113804	-2.1873933528	-0.8774780702	 0.131251
H	-2.1144139705	-0.8278035531	-1.9542048487	 0.13166
H	-1.8636155992	-2.4481719998	-2.6244875831	 0.137432
64.8331	143.5487	144.35	174.4498	207.8523	228.4651	293.5853	366.6508	396.152	515.3591	597.157	621.7685	708.7074	787.5934	850.4833	856.6316	968.5248	1006.9302	1034.0148	1065.0223	1123.5774	1147.1599	1160.6886	1172.201	1198.0003	1288.9869	1330.0656	1341.0476	1363.8696	1413.3309	1427.5478	1459.8737	1483.1216	1493.6414	1499.8347	1506.6227	1507.205	2343.4477	3018.5731	3032.6993	3037.8967	3086.2666	3092.2759	3098.1898	3114.9945	3116.6138	3117.8787	3140.4616
CCC1C(C#N)N1C	CC[C@H]1[C@@H](C#N)N1C	
InChI=1S/C6H10N2/c1-3-5-6(4-7)8(5)2/h5-6H,3H2,1-2H3	InChI=1S/C6H10N2/c1-3-5-6(4-7)8(5)2/h5-6H,3H2,1-2H3/t5-,6+,8?/m0/s1
