15
gdb 51509	3.51241	1.14785	0.90797	5.5287	69.13	-0.2595	-0.0485	0.211	1220.0521	0.111295	-457.805435	-457.797324	-457.796379	-457.839189	28.818	
O	 0.1290034389	 0.0354981832	-0.4893240882	-0.270185
C	 0.2181087416	 1.2241402906	-0.5116289968	 0.184877
O	 0.7871998339	 1.922385469	 0.5003404454	-0.192255
C	 0.9212382734	 3.333322631	 0.3208305354	-0.03143
C	 1.1867912628	 4.0361070504	 1.6167886087	-0.092365
C	 2.2742511451	 4.807908623	 1.5572096977	-0.070812
C	 2.9709639521	 4.7544095973	 0.2226300809	-0.372684
C	 2.1813384521	 3.6733002621	-0.5208928669	 0.387678
O	 2.471846707	 3.12537138	-1.5477134819	-0.288023
H	-0.1587997777	 1.8709612281	-1.3244241713	 0.089172
H	 0.0282377087	 3.7220176546	-0.1926789294	 0.115757
H	 0.5382564682	 3.9170363571	 2.4754764833	 0.123133
H	 2.6362922165	 5.4221787343	 2.3732778622	 0.118561
H	 2.9122875045	 5.7001479587	-0.3329779058	 0.147649
H	 4.0345768929	 4.4955155906	 0.2778030165	 0.150927
62.5379	70.245	141.334	190.6352	272.6108	344.6776	426.3001	449.5541	544.8139	641.2039	685.858	742.6297	765.4008	797.3772	955.9063	972.2174	993.364	1028.7779	1040.8093	1067.5144	1128.1815	1139.1428	1164.0081	1167.882	1267.5459	1288.2756	1334.7008	1385.8857	1436.362	1444.8198	1678.4826	1862.309	1875.2542	2974.993	2989.9472	3028.3004	3068.8024	3199.8205	3224.4406
O=COC1C=CCC1=O	O=CO[C@H]1C=CCC1=O	
InChI=1S/C6H6O3/c7-4-9-6-3-1-2-5(6)8/h1,3-4,6H,2H2	InChI=1S/C6H6O3/c7-4-9-6-3-1-2-5(6)8/h1,3-4,6H,2H2/t6-/m0/s1
