16
gdb 26927	2.45185	1.624	0.98296	5.5174	76.74	-0.1998	-0.0357	0.1641	1142.8283	0.124735	-437.949904	-437.941483	-437.940539	-437.983421	30.991	
C	-0.0253823568	 1.5109785804	 0.0746239714	-0.504451
C	-0.0052019853	 0.0207944989	-0.0187589531	 0.243958
C	 0.0183367619	-0.8312358961	-1.1287093753	-0.009713
C	-0.016458324	-0.5253972118	-2.5277896545	 0.067835
O	 0.0116703685	-1.3879511884	-3.4037668584	-0.348451
C	 0.078003802	-2.1838124094	-0.6317455247	 0.275767
O	 0.1091148957	-3.28023121	-1.4079377262	-0.436443
C	 0.0896023432	-2.1244654662	 0.7359026605	-0.199578
N	 0.0374226708	-0.7718698597	 1.0756583462	-0.298809
H	 0.9772014987	 1.9252878393	 0.2390895924	 0.145625
H	-0.4148923231	 1.951686392	-0.845413065	 0.149077
H	-0.6618629411	 1.84969438	 0.8993277952	 0.133178
H	-0.0725803802	 0.5448149605	-2.8139767769	 0.075408
H	 0.0881209524	-2.9477905583	-2.3279118145	 0.310909
H	 0.1193631859	-2.8944764734	 1.4866108607	 0.130801
H	 0.0350469815	-0.429836088	 2.021776772	 0.264886
43.6054	143.8275	190.0201	209.8683	281.7442	294.9052	346.123	453.5654	523.8229	527.9979	602.2014	622.9929	666.6721	700.1908	735.146	754.9321	813.6182	977.0521	1024.8586	1052.1058	1078.6827	1102.084	1215.9535	1277.3068	1341.1135	1374.7882	1413.6081	1418.0074	1473.2002	1483.5662	1499.9777	1529.9092	1562.302	1651.4319	1730.7036	2914.8309	3024.63	3078.5645	3126.6943	3286.9922	3534.3163	3668.4728
CC1=C(C=O)C(O)=CN1	Cc1c(C=O)c(O)c[nH]1	
InChI=1S/C6H7NO2/c1-4-5(3-8)6(9)2-7-4/h2-3,7,9H,1H3	InChI=1S/C6H7NO2/c1-4-5(3-8)6(9)2-7-4/h2-3,7,9H,1H3
