23
gdb 86240	2.55732	1.10336	0.826	2.94	86.89	-0.2447	-0.0165	0.2282	1455.3278	0.205107	-388.329511	-388.319623	-388.318679	-388.365056	36.61	
C	-0.143340463	 1.5712982769	 0.0097263913	-0.41067
C	 0.0457470166	 0.0557789859	-0.0243617007	 0.0503
C	 0.9035243089	-0.4665044084	-1.1871217098	-0.220136
C	 1.284649575	-1.891781225	-0.7589654979	 0.020202
C	 2.4110470246	-2.5460202465	-1.5553227749	-0.415875
C	 1.6059975747	-1.7284352229	 0.7598877176	-0.049339
C	 0.7461031154	-0.5216202668	 1.2354228973	-0.264413
C	 1.2991897622	-3.0034563652	 1.5033538465	 0.151127
O	 2.1134316314	-3.7731704993	 1.9447069025	-0.2579
H	 0.8226091282	 2.0841708241	 0.0871172185	 0.113517
H	-0.6410451141	 1.9316593981	-0.8967925799	 0.114243
H	-0.7522774411	 1.8785985988	 0.8666954304	 0.114946
H	-0.9442951847	-0.4126727107	-0.1084701826	 0.071457
H	 0.3832542954	-0.4388700963	-2.150192622	 0.094981
H	 1.8128909359	 0.1430450822	-1.2887569645	 0.092754
H	 0.3825713966	-2.5163493195	-0.8482161392	 0.07337
H	 3.316895565	-1.9297801817	-1.5269871515	 0.116652
H	 2.6664012958	-3.5298555498	-1.1488285228	 0.13081
H	 2.1281702702	-2.6781748468	-2.6047223287	 0.114054
H	 2.6744990144	-1.5261265824	 0.8805400886	 0.086365
H	 1.3919725096	 0.2313222255	 1.6981110892	 0.107612
H	 0.0159692124	-0.8134814332	 1.9989299817	 0.100764
H	 0.2043321708	-3.211212087	 1.6000626309	 0.065179
39.2012	58.7904	132.3254	221.0482	234.8749	255.8079	260.7318	283.2994	383.7012	391.6355	447.1145	461.5434	516.5481	636.2424	810.3215	842.4161	873.3744	910.3879	929.5326	946.8001	968.6099	1006.1788	1038.5199	1058.5426	1069.7659	1098.9385	1124.0921	1155.7535	1184.8625	1200.4764	1251.5116	1273.2882	1282.3864	1310.5306	1316.8513	1350.1115	1359.5602	1375.7863	1385.7754	1412.5249	1415.1322	1426.4154	1486.2486	1494.7397	1496.2542	1497.5819	1497.9011	1502.7808	1829.1043	2823.0235	2984.0109	3002.926	3014.8321	3025.1338	3029.736	3037.4404	3061.0964	3075.7026	3081.4734	3092.5958	3096.6177	3097.1745	3104.0983
CC1CC(C)C(C1)C=O	C[C@H]1C[C@@H](C)[C@@H](C1)C=O	
InChI=1S/C8H14O/c1-6-3-7(2)8(4-6)5-9/h5-8H,3-4H2,1-2H3	InChI=1S/C8H14O/c1-6-3-7(2)8(4-6)5-9/h5-8H,3-4H2,1-2H3/t6-,7+,8-/m0/s1
