14
gdb 129492	2.9248	1.6529	1.05608	3.0469	65.15	-0.2214	-0.0062	0.2152	1034.618	0.103117	-466.242156	-466.234361	-466.233417	-466.274615	28.997	
N	 0.8632898418	 0.0207336598	-0.5707801685	-0.567149
C	-0.1542071631	 0.3170269367	 0.2555286172	 0.495506
O	-0.2644987095	 1.2848819508	 0.9764237214	-0.392161
N	-1.1985719654	-0.665833897	 0.2335072486	-0.183749
C	-2.343196206	-0.559905679	 1.0041166602	 0.077737
N	-3.1512859121	-1.5498263951	 0.8332671306	-0.225391
N	-2.5093675397	-2.3484391641	-0.0950158329	-0.320628
C	-1.2941876149	-1.8559484895	-0.5073395617	 0.505616
N	-0.4086040041	-2.2807083557	-1.3335933575	-0.640669
H	 1.6334641729	 0.6654706097	-0.602000949	 0.268577
H	 0.8312874107	-0.8368000688	-1.1237993115	 0.297792
H	-2.4994405355	 0.2773225541	 1.6620650967	 0.186852
H	-2.9452293872	-3.1994801753	-0.401118614	 0.277585
H	-0.6706919779	-3.1612938165	-1.7640426596	 0.220082
91.9327	136.781	173.4682	258.3601	337.2079	397.48	401.5352	442.7964	581.4126	644.032	658.3995	665.1912	693.3068	743.4003	778.2793	780.3522	886.738	936.661	1069.3708	1086.6797	1152.6079	1172.3486	1250.8456	1300.0435	1352.5718	1385.7762	1412.363	1615.1944	1642.4136	1734.9714	1838.6727	3309.0855	3375.1719	3549.8761	3701.1684	3706.818
NC(=O)N1C=NNC1=N	NC(=O)N1C=NN[C@@H]1[NH]	
InChI=1S/C3H5N5O/c4-2-7-6-1-8(2)3(5)9/h1H,(H2,4,7)(H2,5,9)	InChI=1S/C3H6N5O/c4-2-7-6-1-8(2)3(5)9/h1-2,4,7H,(H2,5,9)/t2-/m0/s1
