14
gdb 132279	2.01058	1.90411	0.98386	1.1709	68.55	-0.242	-0.0478	0.1942	1108.7202	0.10191	-474.213565	-474.205963	-474.205019	-474.246	28.016	
C	-0.0043084222	 1.4759750992	 0.002728885	-0.454789
C	-0.0284716991	-0.0211396101	 0.0105133438	 0.338509
N	-1.1645896793	-0.636757941	-0.1179743004	-0.322613
C	-1.1864805837	-2.0248842506	-0.110769782	 0.412656
N	-2.1947969484	-2.7899582355	-0.223249337	-0.555892
N	 0.0829731454	-2.6419922348	 0.0419537159	-0.36956
C	 1.1840021894	-1.8933459929	 0.1654183446	 0.419696
F	 2.2932756202	-2.5866080444	 0.2999694449	-0.043564
N	 1.2219571177	-0.6126419064	 0.1608561132	-0.387696
H	 0.6403477395	 1.8295301711	-0.808724513	 0.149366
H	-1.0104779887	 1.8753389275	-0.1170303483	 0.14408
H	 0.4376987143	 1.8419460286	 0.9353313484	 0.149354
H	-3.0310280391	-2.2175257227	-0.3250239512	 0.232202
H	 0.122969384	-3.6516245181	 0.053731516	 0.288253
117.8388	133.598	184.5366	216.1704	306.5366	361.7683	527.5157	554.4088	576.4832	582.6445	641.7288	648.2699	739.5938	779.523	864.9313	937.9556	977.1983	1006.6308	1061.4654	1098.5013	1125.4846	1267.9346	1286.9729	1367.4198	1414.5371	1460.8565	1472.5419	1521.6033	1600.1352	1699.8761	1746.9258	3047.1218	3103.726	3167.1669	3518.8351	3615.0009
CC1=NC(=N)NC(F)=N1	C[C@H]1N=C([NH])NC(=N1)F	
InChI=1S/C4H5FN4/c1-2-7-3(5)9-4(6)8-2/h1H3,(H2,6,7,8,9)	InChI=1S/C4H6FN4/c1-2-7-3(5)9-4(6)8-2/h2,6H,1H3,(H,7,8,9)/t2-/m1/s1
