15
gdb 76031	2.91539	1.20307	1.08442	1.9038	76.7	-0.2351	0.0116	0.2467	1145.7357	0.108212	-420.528613	-420.519358	-420.518414	-420.56215	34.902	
O	-0.3073376308	 1.3654451411	-0.1580127794	-0.429959
C	-0.1308948221	-0.013564084	-0.0920676319	 0.019637
C	-0.5203436399	-0.733166968	 1.1928452447	-0.363082
C	-0.9322213362	 0.0738382426	 2.2951923742	 0.301383
C	-1.2465501708	 0.8209891801	 3.1862031927	-0.406518
C	-1.4195481004	-0.813344969	-0.0824083255	 0.180913
O	-2.5908771011	-0.0764205084	-0.1097263068	-0.4505
C	-1.4733560522	-2.0834897383	-0.7484979222	 0.295167
C	-1.4890405058	-3.1564674585	-1.2906896263	-0.406473
H	-0.2776875035	 1.7186425397	 0.7434289765	 0.300673
H	 0.7205635845	-0.3827051645	-0.6554303199	 0.125066
H	 0.0370264483	-1.6341424185	 1.4258448758	 0.1345
H	-1.5542961418	 1.4375285831	 3.9945831266	 0.205998
H	-2.3220490959	 0.8348252174	-0.3067519476	 0.294045
H	-1.5173534225	-4.099834585	-1.7775737509	 0.199149
102.892	120.4455	158.1078	171.3686	272.0351	280.4132	332.3007	385.446	451.3347	479.9249	524.048	559.2992	588.5915	599.0004	637.0781	663.9179	674.542	684.6087	726.3469	813.8971	852.3948	997.9823	1045.4441	1077.7844	1116.9975	1197.929	1273.3776	1330.2313	1358.2076	1374.5761	1436.9051	2225.2553	2238.8522	3158.0025	3171.4255	3500.291	3502.0671	3697.4452	3718.6765
OC1C(C#C)C1(O)C#C	O[C@H]1[C@@H](C#C)[C@]1(O)C#C	
InChI=1S/C7H6O2/c1-3-5-6(8)7(5,9)4-2/h1-2,5-6,8-9H	InChI=1S/C7H6O2/c1-3-5-6(8)7(5,9)4-2/h1-2,5-6,8-9H/t5-,6+,7-/m1/s1
