20
gdb 17481	3.27754	2.35106	1.85703	0.2038	77.21	-0.2482	0.0905	0.3388	821.8255	0.179398	-311.860725	-311.853925	-311.852981	-311.891036	28.432	
C	-0.002477894	 1.5111532306	 0.0233734598	-0.489287
C	-0.018748837	-0.0044191647	 0.0336458853	 0.340149
C	 0.2641761944	-0.7226106274	-1.3352405526	-0.273939
C	-0.948073417	-1.6152362576	-1.0784174088	-0.061938
C	-0.9330990789	-2.1461994572	 0.3468898574	-0.030587
C	 0.3916896037	-2.1609630953	 1.110498983	-0.243128
C	 0.8137236416	-0.668108158	 1.1457040382	-0.237704
C	-1.3953187113	-0.7426235849	 0.081455962	-0.11564
H	 1.0100220556	 1.8936043524	-0.1512024781	 0.112868
H	-0.6492434369	 1.9121407312	-0.7643320273	 0.112502
H	-0.349691119	 1.9169313465	 0.9810747793	 0.110893
H	 0.0942021565	-0.04813339	-2.17960002	 0.093985
H	 1.2443112784	-1.1997875123	-1.4582936317	 0.082859
H	-1.5572482021	-2.0910679132	-1.8387049552	 0.075969
H	-1.6783219362	-2.9051544579	 0.5601529342	 0.077268
H	 0.2610610965	-2.5671434734	 2.1182120264	 0.094696
H	 1.1405690388	-2.7863303914	 0.6119359861	 0.09744
H	 1.8895894927	-0.5261135162	 0.9943173708	 0.089405
H	 0.5562201303	-0.2202188701	 2.1134634074	 0.089599
H	-2.3637823259	-0.3243829411	 0.3245881537	 0.07459
192.7961	231.4631	263.9935	320.9009	381.1989	419.1676	561.578	625.8653	701.9864	741.5146	779.9495	809.0422	844.2937	874.8704	912.2035	924.4543	954.6148	982.8482	993.3702	999.4624	1017.5338	1051.6116	1067.3815	1088.418	1135.1606	1145.0748	1183.6266	1224.8687	1231.4557	1236.3413	1253.2843	1284.0734	1314.4398	1316.5232	1362.4725	1398.0423	1412.1221	1482.587	1489.7177	1494.7973	1495.7635	1508.364	3017.9014	3020.2535	3025.3642	3039.8343	3065.7555	3079.8818	3083.5822	3085.0518	3091.6873	3163.5477	3171.3315	3193.2868
CC12CC3C(CC1)C23	C[C@@]12C[C@H]3[C@@H](CC1)[C@@H]23	
InChI=1S/C8H12/c1-8-3-2-5-6(4-8)7(5)8/h5-7H,2-4H2,1H3	InChI=1S/C8H12/c1-8-3-2-5-6(4-8)7(5)8/h5-7H,2-4H2,1H3/t5-,6+,7-,8+/m1/s1
