22
gdb 96268	1.98069	1.66006	0.98057	3.3456	83.97	-0.2486	0.028	0.2766	1263.8764	0.195909	-404.374316	-404.365337	-404.364393	-404.408022	34.575	
C	 0.0274415638	 1.5429665245	 0.0669109843	-0.396209
C	-0.0464616242	 0.0256089947	-0.0572150621	 0.13849
C	 0.7522060359	-0.5007277663	-1.2556204371	-0.205106
C	 0.2765271967	-1.862500732	-1.791933474	-0.207506
C	-0.1211197008	-2.8613292922	-0.6927467337	-0.21
C	 0.8183478664	-2.842226155	 0.5258005267	-0.260412
C	 0.5247597164	-1.7800386132	 1.564032612	 0.366018
N	 0.4411063854	-2.1125345708	 2.7865024437	-0.490294
O	 0.4453717255	-0.4618557009	 1.2115576434	-0.270272
H	 1.0700158277	 1.870910392	 0.1281475481	 0.126309
H	-0.4361529448	 2.0179604884	-0.8024798338	 0.116081
H	-0.4912277715	 1.878269843	 0.9682293358	 0.12664
H	-1.1002709599	-0.2732875886	-0.1502825751	 0.084447
H	 0.7021409888	 0.2385557708	-2.0625066385	 0.100623
H	 1.8044337331	-0.5451411419	-0.9515691546	 0.111174
H	-0.5768763966	-1.7150717469	-2.4644597118	 0.099386
H	 1.0756033914	-2.2933795821	-2.4068411615	 0.101687
H	-1.1469473273	-2.6701179831	-0.3564427464	 0.107713
H	-0.1326410754	-3.8712941234	-1.115145228	 0.102579
H	 0.7661987925	-3.7880711638	 1.0664888476	 0.131944
H	 1.8572069757	-2.7269741015	 0.1882706017	 0.114711
H	 0.2601128113	-1.2802258816	 3.3529461931	 0.211998
74.2983	101.8556	182.4569	237.1946	240.3599	294.2519	334.6031	352.4958	418.3357	493.8958	537.0385	544.4168	655.8864	742.9942	797.524	833.7189	859.8077	918.0482	937.6635	949.0436	975.4474	1010.7721	1036.3336	1072.6003	1105.5455	1132.5268	1151.9441	1155.9121	1196.5901	1219.4106	1255.8747	1296.1529	1328.4027	1339.5357	1363.1188	1375.0305	1382.5532	1398.9483	1406.728	1410.2485	1471.3825	1482.127	1486.0269	1494.7601	1500.5722	1506.2774	1726.0792	3002.0238	3022.6364	3025.7147	3037.1406	3040.1981	3044.6508	3057.1776	3074.9872	3083.2293	3117.1092	3122.4778	3127.761	3452.2506
CC1CCCCC(=N)O1	C[C@H]1CCCC[C]([NH])O1	
InChI=1S/C7H13NO/c1-6-4-2-3-5-7(8)9-6/h6,8H,2-5H2,1H3	InChI=1S/C7H13NO/c1-6-4-2-3-5-7(8)9-6/h6,8H,2-5H2,1H3/t6-/m0/s1
