15
gdb 23581	2.83997	1.55075	1.21584	0.9616	68.64	-0.2406	-0.0058	0.2347	1007.2238	0.112722	-453.829153	-453.821738	-453.820794	-453.861038	28.751	
O	-0.2280290304	 1.360021464	 0.0590806929	-0.3922
N	-0.0513405996	-0.0342419798	 0.1512881271	-0.301311
C	-1.1680335778	-0.6325533926	 0.1382915866	 0.47277
C	-1.5160588696	-2.0663465958	 0.0805187139	-0.149297
C	-2.8739463824	-2.2023799034	 0.7112804431	-0.105143
C	-3.3389916017	-0.8278251793	 1.1880926729	 0.158483
O	-3.0227368138	-0.3186685172	 2.44626428	-0.42958
C	-2.6235687546	-0.3048831199	-0.0869620169	-0.16119
N	-2.7797979793	-1.7442563655	-0.7080727621	-0.153782
H	 0.6809605818	 1.6772859177	 0.0295887121	 0.310773
H	-0.8871324229	-2.9151747215	-0.1528347699	 0.120953
H	-3.2777672183	-3.1779638185	 0.9592578786	 0.109151
H	-4.4228764467	-0.7467917514	 1.0759817748	 0.113445
H	-2.0627304478	-0.3103018155	 2.5392125438	 0.293112
H	-2.9408330268	 0.5793788088	-0.6308631266	 0.113815
98.9733	184.7546	211.2463	323.1475	330.0766	401.0629	424.5364	504.1251	583.6267	679.0934	689.011	750.7956	785.562	802.9971	822.8799	933.9357	946.0254	973.3721	996.6382	1035.5623	1043.4856	1116.3747	1137.0602	1169.0601	1179.3431	1184.4517	1267.9475	1294.7282	1321.9416	1343.9399	1422.9444	1439.7508	1796.6508	3096.2958	3179.8026	3180.4901	3215.5882	3792.5205	3819.2671
ON=C1C2C3C(O)C1N23	ON=C1[C@H]2[C@H]3[C@@H](O)[C@@H]1N23	
InChI=1S/C5H6N2O2/c8-5-3-1(6-9)2-4(5)7(2)3/h2-5,8-9H	InChI=1S/C5H6N2O2/c8-5-3-1(6-9)2-4(5)7(2)3/h2-5,8-9H/t2-,3+,4-,5-,7?/m0/s1
