21
gdb 70354	2.68059	1.66105	1.35231	1.7739	80.76	-0.2409	0.0734	0.3143	1050.6538	0.184405	-387.075195	-387.067373	-387.066429	-387.107252	31.456	
C	-0.1591124767	 1.4830384043	 0.0495761807	-0.499854
C	 0.0612971407	-0.0108772216	-0.0050657952	 0.364079
C	-0.7748569465	-0.9396516173	 0.8409115988	-0.328559
C	 0.6957425391	-0.8004258721	 1.1332890507	-0.07276
C	 1.6598934572	-1.8480826743	 0.5801086796	-0.259867
C	 1.5473122084	-1.7769660482	-0.9582147296	-0.064983
C	 0.5279247289	-2.6704324674	-1.6949084609	-0.089546
O	-0.3392512153	-1.5502479769	-1.9689808157	-0.290635
C	 0.5663777753	-0.6258166362	-1.3074989326	 0.042256
H	 0.7394680842	 2.0338374975	-0.2534223463	 0.112867
H	-0.9757319585	 1.7896014149	-0.6144573078	 0.124077
H	-0.4192304756	 1.8065491386	 1.0624870127	 0.113497
H	-1.4649168669	-0.4770214132	 1.5393194378	 0.104998
H	-1.1517385945	-1.8476991068	 0.3836297966	 0.123329
H	 0.97683196	-0.2915109106	 2.0501711087	 0.078764
H	 2.6809797129	-1.6070688701	 0.8938950735	 0.100815
H	 1.4459875976	-2.855542451	 0.9573156502	 0.101531
H	 2.5250066025	-1.7378929095	-1.4405312817	 0.078449
H	 0.8936197546	-3.1321745134	-2.6204509042	 0.098543
H	 0.0346849312	-3.4404459608	-1.0865046339	 0.095304
H	 0.9085584016	 0.1449539343	-2.0075436513	 0.067696
102.2499	171.574	207.9622	271.533	291.7535	358.123	405.6897	484.192	564.622	653.4244	721.5713	764.429	819.6852	858.2947	865.2107	889.9714	910.9268	952.0859	968.9288	997.5438	1004.6461	1021.9159	1049.0946	1071.5271	1086.9053	1109.6015	1117.3304	1127.5931	1165.8941	1194.369	1224.9947	1253.544	1269.5301	1299.0787	1314.256	1333.5629	1349.9963	1366.7247	1413.9545	1422.6238	1488.9364	1491.7034	1499.3933	1504.5972	1525.6833	3003.1586	3019.834	3030.4915	3038.6686	3045.5625	3066.7971	3079.0466	3096.1271	3098.8604	3130.2064	3153.2489	3215.0698
CC12CC1CC1COC21	C[C@]12C[C@H]1C[C@H]1CO[C@@H]21	
InChI=1S/C8H12O/c1-8-3-6(8)2-5-4-9-7(5)8/h5-7H,2-4H2,1H3	InChI=1S/C8H12O/c1-8-3-6(8)2-5-4-9-7(5)8/h5-7H,2-4H2,1H3/t5-,6+,7+,8-/m0/s1
