14
gdb 10811	5.01613	1.60164	1.25194	3.1012	59.31	-0.2296	-0.0257	0.2039	906.6794	0.107887	-415.890466	-415.88313	-415.882186	-415.922737	26.751	
N	 0.0433719402	 1.3525944655	 0.3956294438	-0.555199
C	-0.0873972568	 0.0197623229	 0.092670113	 0.456941
N	-1.1954141345	-0.5971221817	 0.1660042469	-0.340657
C	-1.2318549495	-1.9802402658	-0.2655782613	-0.265951
C	 0.0769687343	-2.7446686325	-0.1514286819	 0.346151
O	 0.1649968816	-3.9468252859	-0.1937123414	-0.298043
C	 1.3118483319	-1.8777353382	 0.0676892689	-0.185719
O	 1.1256243143	-0.5029003818	-0.2643060459	-0.257763
H	 0.8816883473	 1.7967765984	 0.0579536011	 0.261496
H	-0.8049597207	 1.8896496399	 0.3135390021	 0.266079
H	-1.9930711557	-2.5326498112	 0.2966876463	 0.140556
H	-1.5448585804	-2.0450801495	-1.3207224152	 0.137863
H	 1.6044996126	-1.9684766891	 1.1238230376	 0.143407
H	 2.1353783253	-2.2478825509	-0.5461111342	 0.150838
37.5861	137.5859	214.1052	352.6433	399.4652	421.124	468.4483	480.9692	525.1763	559.9286	725.9157	739.3399	766.112	836.8541	910.9969	1000.4927	1040.3597	1125.0461	1203.1547	1218.0216	1238.3231	1268.2896	1306.924	1356.9727	1393.2243	1452.9859	1470.0321	1617.9105	1769.2085	1830.2943	2979.2874	3011.9053	3061.	3119.3577	3599.2632	3718.7682
NC1=NCC(=O)CO1	NC1=NCC(=O)CO1	
InChI=1S/C4H6N2O2/c5-4-6-1-3(7)2-8-4/h1-2H2,(H2,5,6)	InChI=1S/C4H6N2O2/c5-4-6-1-3(7)2-8-4/h1-2H2,(H2,5,6)
