19
gdb 63497	2.96746	1.10033	0.93805	5.32	73.62	-0.2589	0.0094	0.2684	1300.331	0.154877	-460.167501	-460.157402	-460.156458	-460.202185	36.888	
C	-0.0883247502	 1.5239462678	-0.033152411	-0.455417
C	 0.0358400816	 0.0173795703	 0.0305561916	 0.350414
O	-1.1115756305	-0.6591790137	-0.3961283851	-0.447517
C	 1.3651386849	-0.6730806166	-0.2313049733	-0.417645
C	 0.7566331082	-0.6744451251	 1.1614727917	 0.364972
C	 1.3939415928	 0.0813411026	 2.3040595314	-0.448165
O	 0.128053923	-1.865188659	 1.6103156857	-0.207976
C	 0.8929797123	-2.9703258204	 1.7177191054	 0.16046
O	 0.4777826687	-3.9988876566	 2.1606006948	-0.277409
H	 0.8191746125	 2.0344625794	 0.2963754298	 0.120572
H	-0.2783882379	 1.8352728399	-1.0675010894	 0.11513
H	-0.9271832589	 1.8662418567	 0.5805123039	 0.136613
H	-1.2115825933	-0.5004908777	-1.3414127235	 0.285304
H	 1.3129332667	-1.5960642989	-0.797660612	 0.128426
H	 2.2577577212	-0.0785374184	-0.3975150482	 0.117549
H	 1.8499926111	 1.014905257	 1.9695297239	 0.124524
H	 0.6482517387	 0.3125852873	 3.07072418	 0.141655
H	 2.1796457856	-0.5247838092	 2.7680817914	 0.126824
H	 1.9242034637	-2.8171085753	 1.348730273	 0.081687
76.8032	123.3115	169.9103	187.7529	197.2641	221.5372	262.7924	270.9206	313.6572	374.4878	393.3063	430.8488	476.0595	564.3581	577.9218	730.798	776.1165	889.175	908.7567	938.5538	987.4828	1012.018	1041.4966	1055.4689	1083.8669	1115.2874	1175.1414	1186.2427	1217.2422	1289.1314	1304.1011	1399.8214	1414.9107	1421.079	1426.3754	1470.7332	1478.738	1488.0013	1496.7828	1517.7505	1864.1645	2965.9257	3031.5504	3041.2284	3095.0132	3104.2321	3125.7976	3129.4571	3138.5762	3224.6107	3796.7836
CC1(O)CC1(C)OC=O	C[C@@]1(O)C[C@]1(C)OC=O	
InChI=1S/C6H10O3/c1-5(8)3-6(5,2)9-4-7/h4,8H,3H2,1-2H3	InChI=1S/C6H10O3/c1-5(8)3-6(5,2)9-4-7/h4,8H,3H2,1-2H3/t5-,6+/m1/s1
