16
gdb 32396	6.27805	0.82476	0.74353	1.9041	84.99	-0.203	-0.0037	0.1994	1461.1994	0.124409	-400.750726	-400.742054	-400.74111	-400.784421	32.264	
O	 0.3318776863	 1.021148858	 0.8057596858	-0.412143
C	 0.067343858	 0.0170708681	-0.1658088892	-0.169077
C	-1.3626807026	-0.4420149	-0.1555676021	 0.242606
C	-2.1937174075	-0.4573630374	 0.9503647364	-0.17
N	-3.4064108068	-0.9504525357	 0.5657494124	-0.318259
C	-3.3861843606	-1.259509107	-0.7805549445	 0.196725
C	-2.1174881732	-0.9451182221	-1.2452282272	-0.376466
C	-4.5145672575	-1.7811990331	-1.4413075478	 0.267655
C	-5.4889167413	-2.2279547333	-1.9934130052	-0.452774
H	-0.2894601116	 1.7392565324	 0.6437455794	 0.278995
H	 0.3408661244	 0.3515582895	-1.1790498663	 0.093605
H	 0.7476872254	-0.805538183	 0.0856805447	 0.121883
H	-2.0025476164	-0.1555697763	 1.9670741385	 0.134736
H	-4.213228447	-1.0598999423	 1.1556609271	 0.26818
H	-1.7832549916	-1.0690178884	-2.2638924515	 0.103896
H	-6.3404289381	-2.6222710595	-2.4897705105	 0.190439
49.125	119.499	140.7004	204.8485	271.9797	347.9132	402.0761	447.7051	498.0026	524.4004	541.6643	592.2091	645.7712	678.36	680.8322	724.6739	767.9049	828.5273	978.5901	987.7571	1001.5859	1062.4033	1134.48	1165.014	1203.5062	1251.3786	1323.902	1357.1878	1408.5428	1435.0536	1444.6169	1506.0113	1513.1481	1608.5468	2224.7157	2978.6235	3045.7245	3252.3623	3272.7297	3503.1985	3679.2797	3804.8453
OCC1=CNC(=C1)C#C	OCc1c[nH]c(c1)C#C	
InChI=1S/C7H7NO/c1-2-7-3-6(5-9)4-8-7/h1,3-4,8-9H,5H2	InChI=1S/C7H7NO/c1-2-7-3-6(5-9)4-8-7/h1,3-4,8-9H,5H2
