18
gdb 8282	5.56041	0.99746	0.93909	3.7143	69.3	-0.245	-0.0216	0.2234	1257.0451	0.151718	-384.938479	-384.92981	-384.928866	-384.973083	30.329	
C	 0.4742788787	 1.4601861771	 0.2804773444	-0.399268
C	 0.0386975349	 0.0450851438	-0.0347367895	 0.17793
C	 0.5367021054	-0.6239965936	-1.3365268768	-0.323168
C	 1.0548109371	-1.7336362913	-0.3993988443	 0.15106
C	 2.534235474	-2.1073624788	-0.4545852692	-0.294678
C	 2.9429635986	-2.9684621189	 0.7232633031	 0.155003
O	 3.4857099663	-4.0399759159	 0.6282985814	-0.2404
O	 0.7310625952	-0.9464167326	 0.7698169827	-0.315059
H	 1.5511305503	 1.5808148678	 0.1273099255	 0.117732
H	-0.0527137793	 2.1730540284	-0.3632604594	 0.119447
H	 0.2452055293	 1.7075500447	 1.3218273422	 0.131222
H	-1.0474289567	-0.0552348565	 0.1017592665	 0.077827
H	-0.2196171269	-0.9110117588	-2.067945667	 0.112637
H	 1.3330272978	-0.0660986515	-1.8361589261	 0.108397
H	 0.4400602022	-2.6447248331	-0.4321745837	 0.085349
H	 2.7655720212	-2.641300338	-1.3816477164	 0.120194
H	 3.1246959087	-1.1816698573	-0.4194579137	 0.117465
H	 2.6967965831	-2.5311187956	 1.7147915303	 0.09831
41.0213	62.0599	79.6076	187.5679	229.0493	324.8386	350.1254	417.0341	431.9932	505.8538	679.0514	795.6297	837.776	890.3598	911.3399	924.3959	961.9803	998.8096	1061.4631	1087.1353	1108.8699	1136.9604	1148.8869	1197.051	1228.1731	1252.7061	1279.2964	1291.8481	1343.5133	1372.2435	1398.3954	1415.4214	1423.3535	1448.4633	1481.2837	1489.584	1495.131	1830.0523	2906.3529	2994.6344	3001.2384	3023.2985	3033.6717	3068.9865	3098.0934	3106.6302	3112.9207	3132.4552
CC1CC(CC=O)O1	C[C@H]1C[C@@H](CC=O)O1	
InChI=1S/C6H10O2/c1-5-4-6(8-5)2-3-7/h3,5-6H,2,4H2,1H3	InChI=1S/C6H10O2/c1-5-4-6(8-5)2-3-7/h3,5-6H,2,4H2,1H3/t5-,6+/m0/s1
