18
gdb 49640	3.03951	1.59316	1.48534	2.7729	74.41	-0.2117	-0.0288	0.1829	953.1231	0.148979	-401.887292	-401.880191	-401.879247	-401.919159	27.82	
O	-0.6277514237	 0.7390393607	 0.5948092248	-0.24888
C	 0.1421433033	 1.0309214607	-0.2870163382	 0.14048
C	 1.2940398981	 1.9855724033	-0.156025144	-0.084923
C	 1.2552273111	 3.321285518	-0.9772027702	-0.090814
C	-0.0048997982	 4.1673874234	-0.6991940928	-0.176591
N	 0.5244679147	 4.6465387605	 0.622658612	-0.147387
C	 0.3471183045	 3.5728207409	 1.6626668656	-0.179371
C	 1.5661909764	 2.7779255385	 1.1486394675	-0.076349
C	 1.8745920377	 4.0323389347	 0.2686146877	 0.008915
H	 0.0272083197	 0.5965238896	-1.3090769701	 0.074772
H	 2.2025980403	 1.4468376753	-0.4574011762	 0.099857
H	 1.6766661386	 3.31042734	-1.9825643024	 0.075657
H	-0.0891943219	 5.0133778116	-1.3891713604	 0.110043
H	-0.9752792969	 3.66101769	-0.6495028397	 0.109739
H	 0.5314924448	 4.0006123382	 2.6531424054	 0.106962
H	-0.6261748575	 3.078141637	 1.6653781262	 0.127053
H	 2.2454417616	 2.3298411936	 1.8736054881	 0.076223
H	 2.7762455172	 4.6435139741	 0.2858729068	 0.074613
66.234	163.2802	197.777	318.7879	387.3449	445.1262	563.7262	665.3033	723.2061	738.9018	800.4914	843.3285	873.7367	878.1769	898.5437	966.8974	972.7084	974.9317	985.8167	1026.1948	1045.2454	1093.512	1115.3668	1140.2202	1174.7567	1182.5001	1198.6658	1202.8258	1217.5937	1229.8712	1292.0946	1297.3766	1315.8548	1328.3339	1355.7935	1425.0775	1491.4062	1507.0278	1818.3628	2845.3682	3022.1292	3032.0045	3049.3424	3079.8869	3100.2894	3104.8279	3116.6101	3121.5495
O=CC1C2CN3CC1C23	O=C[C@H]1[C@H]2CN3C[C@@H]1[C@@H]23	
InChI=1S/C7H9NO/c9-3-6-4-1-8-2-5(6)7(4)8/h3-7H,1-2H2	InChI=1S/C7H9NO/c9-3-6-4-1-8-2-5(6)7(4)8/h3-7H,1-2H2/t4-,5+,6+,7-
