15
gdb 129756	3.17951	1.32379	1.00394	3.2422	70.91	-0.2277	-0.0413	0.1863	1137.7201	0.113466	-450.069937	-450.061879	-450.060935	-450.103436	28.924	
N	 0.0768528503	 1.4127595875	 0.4538130184	-0.603174
C	-0.0158132277	 0.0762120073	 0.0591304925	 0.138985
C	-1.1176565995	-0.6865090468	-0.2147704326	 0.407621
O	-0.6920448853	-1.922611992	-0.5144929195	-0.240336
N	 0.7276627645	-1.9184778514	-0.3825780076	-0.022541
N	 1.076905677	-0.749071554	-0.0667044443	-0.16204
C	-2.5518952121	-0.3923670181	-0.2136156421	-0.120277
C	-3.4463700691	-0.9679925909	-1.2647378576	-0.234559
N	-3.5299653674	-1.4478652867	 0.1156427049	-0.310876
H	 1.0276843727	 1.6376706163	 0.7208091023	 0.260495
H	-0.2249908192	 2.0623218214	-0.2627423426	 0.256583
H	-2.7869362598	 0.5820029568	 0.2049410465	 0.114803
H	-4.3001391502	-0.389487491	-1.6057940829	 0.130392
H	-2.9855996389	-1.6040532894	-2.0150189449	 0.133702
H	-3.0439681153	-2.338114309	 0.2008049094	 0.251223
63.5876	85.5221	158.7175	165.5923	288.8543	309.9903	432.08	505.054	622.6549	678.7297	689.8631	727.36	766.1413	801.4363	821.7039	885.8415	969.0158	992.8967	1021.8586	1091.3605	1113.1337	1141.701	1170.5256	1205.3087	1269.412	1283.5973	1302.4068	1390.3161	1446.7206	1451.829	1505.8387	1650.3425	1676.2702	3114.0562	3155.022	3205.9654	3502.8544	3528.3047	3614.0455
NC1=C(ON=N1)C1CN1	Nc1c(onn1)[C@H]1CN1	
InChI=1S/C4H6N4O/c5-4-3(2-1-6-2)9-8-7-4/h2,6H,1,5H2	InChI=1S/C4H6N4O/c5-4-3(2-1-6-2)9-8-7-4/h2,6H,1,5H2/t2-/m1/s1
