22
gdb 6557	3.67768	1.20028	1.17266	1.6563	78.29	-0.2623	0.0756	0.3379	1176.5515	0.19781	-350.194138	-350.184547	-350.183603	-350.228285	35.825	
C	 0.022993629	 1.5268015485	-0.1038898337	-0.396446
C	 0.034101831	-0.0080525347	 0.02109362	 0.264588
C	 0.6522832947	-0.4132273293	 1.372468082	-0.405494
C	-1.4132078147	-0.530330323	-0.0408777699	-0.403954
C	 0.8189205105	-0.646473297	-1.1547751417	-0.223157
C	 2.2722523703	-0.2553102097	-1.2771319557	 0.083166
C	 2.9504409321	-0.1883266603	-2.5783070797	-0.183068
O	 2.5649803355	 1.0046516656	-1.8955562179	-0.231836
H	 1.0316716833	 1.9450560038	-0.0585537909	 0.131068
H	-0.4191612386	 1.8415055723	-1.0551002003	 0.109276
H	-0.5674757926	 1.971944472	 0.7046204383	 0.101479
H	 0.0513402116	-0.0233510527	 2.2010344774	 0.110688
H	 0.697759491	-1.5031864443	 1.4798451748	 0.104911
H	 1.6662297169	-0.0194510451	 1.4942227386	 0.113688
H	-1.8892477912	-0.264870682	-0.9913931746	 0.108446
H	-1.4488637436	-1.6211818134	 0.0584598879	 0.105319
H	-2.0179227049	-0.1017761421	 0.7656863259	 0.108255
H	 0.7706713156	-1.7402822718	-1.0558292229	 0.093993
H	 0.3188302998	-0.3921667413	-2.0974503599	 0.095927
H	 2.8990880958	-0.4646498682	-0.4092838699	 0.091225
H	 4.023200331	-0.3660476893	-2.6435643566	 0.111177
H	 2.3896317574	-0.4088375679	-3.4861790711	 0.110749
47.6585	103.1799	176.4403	212.9255	258.8926	261.7672	295.9049	321.133	338.6572	388.9388	409.7907	443.7052	518.44	743.0998	792.6955	860.9601	906.1622	917.471	935.5341	938.7145	960.5188	974.8328	1030.9611	1051.2917	1099.1399	1111.8006	1157.1049	1169.7602	1217.1429	1227.207	1269.8188	1296.698	1312.6313	1343.8104	1399.9329	1403.7992	1432.1702	1449.2121	1463.1439	1479.4787	1482.9841	1486.343	1505.704	1508.0285	1516.3593	1529.9045	3007.0874	3020.8716	3025.7478	3034.0701	3054.6824	3078.6453	3087.9157	3090.7495	3092.2818	3095.4951	3099.261	3106.0967	3119.4466	3164.3378
CC(C)(C)CC1CO1	CC(C)(C)C[C@H]1CO1	
InChI=1S/C7H14O/c1-7(2,3)4-6-5-8-6/h6H,4-5H2,1-3H3	InChI=1S/C7H14O/c1-7(2,3)4-6-5-8-6/h6H,4-5H2,1-3H3/t6-/m0/s1
