21
gdb 40143	2.80961	1.3855	1.2025	1.7315	82.22	-0.223	0.0739	0.2969	1144.4385	0.182341	-387.043649	-387.035254	-387.034309	-387.077056	32.719	
C	 0.1379659958	 1.5074418698	-0.0937423641	-0.337967
C	 1.3217111903	 0.5938238423	 0.2008806264	-0.337967
C	-0.0437423194	 0.0278378984	-0.0099646731	 0.408334
O	-0.7758463997	-0.5766398433	 1.0570149894	-0.316871
C	-1.3165392194	-1.5679664561	 0.1550608605	-0.129755
C	-0.5528829968	-0.966042853	-1.0463657955	 0.218929
C	-1.3264789989	-0.5733125528	-2.3296636212	-0.286904
C	-0.6965017453	-1.7978752443	-3.0486004441	-0.212036
C	 0.3579870214	-1.8734618321	-1.9103407235	-0.2869
H	-0.2556449098	 2.0963043574	 0.727970723	 0.124026
H	 0.0819330879	 1.9883200411	-1.0654729183	 0.111946
H	 2.0728903096	 0.45169005	-0.5699448753	 0.111946
H	 1.7046136647	 0.5833756336	 1.2158571459	 0.124027
H	-1.0200278924	-2.5841189607	 0.4439776727	 0.099906
H	-2.4107921172	-1.5105965808	 0.0978029642	 0.099905
H	-2.4163622216	-0.5239368155	-2.2568717014	 0.100135
H	-0.9656631883	 0.3746241189	-2.7413179175	 0.102329
H	-1.3647413491	-2.6633541897	-3.0477053595	 0.104876
H	-0.3280394879	-1.6485310287	-4.0656989129	 0.099575
H	 1.2898555144	-1.366290486	-2.179838783	 0.102329
H	 0.6071412514	-2.8576189985	-1.5042141225	 0.100135
51.8878	99.36	167.1244	227.9325	269.4461	357.2019	382.2851	493.9718	509.7547	567.8	697.9733	755.9363	780.5169	860.904	869.6217	873.246	901.9196	917.4468	936.2571	952.9022	955.3041	982.461	1019.5274	1045.6202	1051.7476	1062.8565	1143.2273	1146.0531	1173.3525	1186.3489	1189.0817	1213.0953	1226.8461	1254.2528	1273.9002	1275.3019	1295.9602	1350.88	1393.2392	1445.7946	1471.2713	1480.7711	1491.5763	1505.1633	1523.7949	3007.4317	3045.3449	3050.1845	3053.4102	3062.4243	3093.4337	3098.9168	3118.9143	3123.5261	3125.9022	3206.8098	3221.2479
C1CC11OCC11CCC1	C1CC21OCC12CCC1	
InChI=1S/C8H12O/c1-2-7(3-1)6-9-8(7)4-5-8/h1-6H2	InChI=1S/C8H12O/c1-2-7(3-1)6-9-8(7)4-5-8/h1-6H2
