13
gdb 23952	2.00376	1.91525	0.97925	3.6064	84.66	-0.2157	-0.0319	0.1837	1112.4429	0.0891	-378.448562	-378.440737	-378.439793	-378.480877	29.586	
C	 0.1523311641	-1.2087585374	-0.0055752205	-0.423238
C	 0.0480710807	-0.0083317149	 0.0023495107	 0.245431
C	-0.0594470149	 1.3913261008	 0.0114304167	 0.106527
C	-1.157706413	 2.2477113286	 0.0316769427	 0.067364
N	-0.7365904405	 3.5615843568	 0.0327707054	-0.309812
C	 0.5735234811	 3.5115272308	 0.0138570406	 0.001548
N	 1.0369161725	 2.2328608673	 0.0003534124	-0.319118
C	-2.5209401879	 1.8766516067	 0.0490757362	 0.2155
C	-3.680954135	 1.5560558219	 0.0638595334	-0.386038
H	 0.2282082778	-2.2678546179	-0.0123084676	 0.19521
H	 1.2363862536	 4.3639744599	 0.0090184482	 0.141981
H	 1.9972082535	 1.930624856	-0.0149220292	 0.277129
H	-4.7046209519	 1.2752285414	 0.076929231	 0.187516
104.9615	156.3987	183.5387	198.3383	427.9366	454.2175	495.9035	523.919	528.358	552.4649	572.2576	630.7706	664.4956	667.3019	670.8333	686.5354	772.1601	827.2695	955.1572	1093.959	1138.8041	1247.4587	1286.2664	1371.6238	1442.4116	1503.9638	1565.3973	2226.4806	2239.6254	3254.274	3501.2981	3504.8511	3661.124
C#CC1=C(N=CN1)C#C	C#Cc1c(nc[nH]1)C#C	
InChI=1S/C7H4N2/c1-3-6-7(4-2)9-5-8-6/h1-2,5H,(H,8,9)	InChI=1S/C7H4N2/c1-3-6-7(4-2)9-5-8-6/h1-2,5H,(H,8,9)
