17
gdb 111666	2.79066	1.39366	1.30545	3.1845	68.79	-0.2366	-0.021	0.2155	1052.7283	0.135078	-458.945438	-458.937252	-458.936308	-458.978588	30.07	
C	 0.028094014	 1.1283892299	-0.3232718581	-0.241225
O	-0.2174868391	 0.0609152316	 0.5828215623	-0.237111
C	-1.3941556527	-0.6153197704	 0.2982197412	 0.07896
C	-1.4226904298	-1.6458274988	-0.7874836031	 0.044581
O	-0.1835088254	-1.978867543	-1.3657437823	-0.260683
C	 0.6683738741	-2.5809862294	-0.3991276955	-0.183757
C	-0.1499676588	-2.7735426012	 0.8822616757	 0.406614
O	 0.1901648187	-3.4136394963	 1.8418265334	-0.3177
C	-1.4667615436	-2.0901322959	 0.6654161477	-0.275593
H	 0.9583502318	 1.6033413941	-0.0050770888	 0.133648
H	 0.1354399296	 0.7585360098	-1.3498529218	 0.132178
H	-0.780967546	 1.8723430367	-0.2906245574	 0.110786
H	-2.3105990548	-0.0484463121	 0.4745089325	 0.100627
H	-2.2536836485	-1.7443783906	-1.476853637	 0.113816
H	 1.0222783219	-3.5493415155	-0.7710323301	 0.134659
H	 1.5340731875	-1.9432587956	-0.1863916521	 0.139787
H	-2.335475189	-2.4734953932	 1.1839094232	 0.120415
91.0869	97.9217	162.8013	181.6551	245.3744	291.1854	419.5362	450.2217	614.8232	628.7301	636.91	717.5023	760.7755	792.4114	870.8899	940.6572	970.5682	1011.0095	1038.4282	1054.7717	1091.8912	1101.3471	1130.7275	1175.3233	1187.1879	1205.9903	1213.6485	1257.3289	1289.6899	1317.6973	1358.139	1408.95	1475.1322	1483.6278	1487.9675	1505.3921	1849.8288	2997.8827	3034.7218	3067.1428	3077.7868	3083.8109	3129.5832	3176.8318	3207.3119
COC1C2OCC(=O)C12	CO[C@H]1[C@H]2OCC(=O)[C@@H]12	
InChI=1S/C6H8O3/c1-8-5-4-3(7)2-9-6(4)5/h4-6H,2H2,1H3	InChI=1S/C6H8O3/c1-8-5-4-3(7)2-9-6(4)5/h4-6H,2H2,1H3/t4-,5+,6-/m0/s1
