19
gdb 41463	3.20798	1.66929	1.28689	1.8385	82.34	-0.2278	0.0101	0.2379	1018.5837	0.161038	-385.852217	-385.844996	-385.844052	-385.883847	29.031	
C	 0.0837158211	 1.5409245971	 0.2488576001	-0.082465
O	 1.4214696432	 1.5329705037	-0.2944940683	-0.329553
C	 1.3196237263	 0.1410486831	-0.7051755942	 0.424498
C	 1.9578900163	-0.2051471436	-2.0500295064	-0.339476
C	 3.1403627115	-1.1571003004	-1.665666869	-0.2492
C	 2.7844979694	-1.6509368082	-0.2643261819	-0.227561
C	 1.8346513592	-0.8815364748	 0.2552057936	 0.285971
C	 0.601760899	-0.8376178708	 1.1419008996	-0.356813
C	-0.0868287217	 0.0365650546	 0.0267248081	-0.16862
H	 0.0571840361	 1.88620944	 1.2897971766	 0.098102
H	-0.5836030158	 2.1718659614	-0.3538819819	 0.096683
H	 1.2511258547	-0.7313690363	-2.6992322713	 0.10912
H	 2.2797342124	 0.6990196339	-2.5721903599	 0.115245
H	 3.2264641221	-1.9958548075	-2.3652759696	 0.1041
H	 4.1080219068	-0.6389364956	-1.6885971285	 0.114295
H	 3.2111675478	-2.554102868	 0.1590259872	 0.094316
H	 0.1434054092	-1.8096729532	 1.3416845221	 0.11557
H	 0.7101408702	-0.3065400303	 2.0928720193	 0.114806
H	-1.0041724378	-0.3455635248	-0.4180811654	 0.080984
86.3582	188.0377	237.9513	274.7624	370.5304	448.7826	505.4829	628.3422	657.4445	707.3889	780.7916	811.5148	832.2546	857.504	886.4032	904.0024	924.483	981.6014	988.0434	1008.193	1013.8152	1064.3777	1071.2491	1090.0351	1135.6145	1162.245	1176.4481	1181.473	1203.9238	1228.7223	1245.9367	1278.7227	1294.342	1323.6994	1332.9216	1351.4164	1467.1637	1471.0666	1492.0131	1523.3469	1732.0291	3001.9646	3022.0448	3048.5295	3050.8311	3052.7743	3065.7995	3099.2282	3111.7912	3127.8075	3186.3906
C1OC23CCC=C2CC13	C1O[C@@]23CC[CH][C]2C[C@@H]13	
InChI=1S/C8H10O/c1-2-6-4-7-5-9-8(6,7)3-1/h2,7H,1,3-5H2	InChI=1S/C8H10O/c1-2-6-4-7-5-9-8(6,7)3-1/h2,7H,1,3-5H2/t7-,8-/m0/s1
