17
gdb 37403	2.88597	2.22059	1.79321	1.7908	69.05	-0.2266	0.0542	0.2807	810.8969	0.140777	-417.924471	-417.918787	-417.917843	-417.954151	25.008	
N	-0.0351531829	 1.489925859	 0.0295261477	-0.302337
C	 1.4481033338	 1.4471269605	 0.0167840533	-0.074606
C	 1.9832938091	 1.2824217519	 1.4439248446	 0.030879
O	 0.9821308458	 1.3603170069	 2.4783660917	-0.259711
C	 1.4617698891	 0.0706996831	 2.0894282042	 0.048936
C	 0.7022618665	-0.8032470167	 1.0981777802	-0.082435
N	 1.700572993	-1.1891098143	 0.0469230552	-0.308119
C	 1.3274747531	 0.0071865515	-0.7063067118	-0.001875
C	-0.0554435076	 0.030732715	-0.0379898609	 0.000707
H	-0.411931642	 1.8891885964	 0.8850065882	 0.230229
H	 1.9318278947	 2.2581261186	-0.5323628767	 0.067056
H	 2.9458240736	 1.7096122703	 1.7123840878	 0.098923
H	 2.0235217754	-0.4497917218	 2.8650530782	 0.100121
H	 0.1768051173	-1.6449071876	 1.5549480991	 0.070334
H	 2.6652510432	-1.2439332612	 0.3723348587	 0.209848
H	 1.5127766645	 0.0081815803	-1.7800986665	 0.086834
H	-0.9511503366	-0.4497005918	-0.4332165731	 0.085217
288.4519	340.7098	404.0305	477.1878	546.9541	640.0344	662.8789	702.157	735.5356	786.4535	825.5558	841.3087	855.3269	885.9004	941.1728	967.7039	1002.925	1007.5146	1014.3037	1036.3284	1060.0226	1076.3607	1101.961	1134.923	1135.3924	1195.4272	1223.1976	1240.7284	1268.5804	1290.6184	1299.0578	1314.2675	1327.3032	1352.665	1373.1784	1399.8628	1442.7834	3075.7917	3077.4315	3103.7505	3109.1578	3118.9907	3148.9457	3454.2007	3507.1113
N1C2C3OC3C3NC2C13	N1[C@H]2[C@H]3O[C@H]3[C@@H]3N[C@H]2[C@H]13	
InChI=1S/C6H8N2O/c7-1-2-4(7)6-5(9-6)3(1)8-2/h1-8H	InChI=1S/C6H8N2O/c7-1-2-4(7)6-5(9-6)3(1)8-2/h1-8H/t1-,2-,3+,4+,5-,6+/m0/s1
