17
gdb 34319	2.35389	1.79703	1.3154	1.7089	80.55	-0.2445	-0.0027	0.2418	1015.8523	0.135621	-384.618895	-384.611128	-384.610184	-384.650953	30.511	
C	-0.1630721877	-1.281334937	-0.0042362651	-0.484408
C	-0.074664278	-0.0821246177	 0.0047070245	 0.349542
C	 0.0238705174	 1.3695545113	 0.0295123397	 0.202324
C	-0.6616843879	 2.0276270699	 1.2478094333	-0.299673
C	 0.5531230313	 2.3511641895	 2.1795112105	-0.247092
C	 1.6838089863	 2.6070258749	 1.1821513376	-0.199191
C	 1.3943638942	 1.9995537193	 0.0402969868	 0.165098
C	 1.2921888262	 2.1531885542	-1.4531141239	-0.170084
O	-0.1492070484	 1.9230129592	-1.3329605892	-0.325128
H	-0.2389392932	-2.3405393568	-0.0199408376	 0.198723
H	-1.1244397081	 2.9602457341	 0.911541473	 0.122505
H	-1.423172489	 1.402288881	 1.7181418489	 0.107478
H	 0.3647849439	 3.2284318619	 2.8060924678	 0.111579
H	 0.7686191012	 1.5180606462	 2.8610246924	 0.120889
H	 2.5076226744	 3.2832770008	 1.3766837091	 0.105467
H	 1.5280328032	 3.1356303135	-1.8730730736	 0.122532
H	 1.7624399942	 1.3653386959	-2.0540382441	 0.119438
106.2458	142.4492	218.902	254.9632	327.3425	367.5259	485.4173	545.9724	557.3157	620.6852	643.9049	660.0875	691.024	774.9726	832.3552	870.2237	897.4799	899.8365	933.2244	959.1811	1001.6371	1016.7678	1095.1085	1109.3733	1140.8672	1161.8346	1195.5625	1230.1119	1279.8708	1293.9203	1319.9246	1329.6807	1474.7527	1491.6393	1508.0928	1749.9426	2229.0506	3026.0968	3026.8319	3062.8358	3080.754	3087.5758	3124.3756	3204.7441	3500.4434
C#CC12CCC=C1CO2	C#C[C@@]12CC[CH][C]1CO2	
InChI=1S/C8H8O/c1-2-8-5-3-4-7(8)6-9-8/h1,4H,3,5-6H2	InChI=1S/C8H8O/c1-2-8-5-3-4-7(8)6-9-8/h1,4H,3,5-6H2/t8-/m1/s1
