16
gdb 45123	2.58966	1.71923	1.21184	3.5206	68.55	-0.2344	-0.0921	0.1424	1008.1794	0.124383	-437.882358	-437.874748	-437.873804	-437.915024	28.735	
O	-0.1749338814	 0.0658597486	-0.319021564	-0.269272
C	-0.0883551123	 1.2362019848	-0.055080917	 0.295877
C	-1.2598009168	 2.2019004511	-0.0641255808	-0.341893
C	-1.2048020963	 3.2209008698	 1.0607794047	-0.013074
C	-0.6146949526	 2.864145301	 2.3824002917	-0.262355
N	 0.079131098	 3.7848627007	 1.48109964	-0.091171
C	 1.2841010562	 3.3072538431	 0.8107183152	-0.273012
C	 1.2939313025	 1.8613284354	 0.3100513392	 0.288946
O	 2.3057793358	 1.2261316015	 0.1667191256	-0.267509
H	-1.2312548959	 2.7312094743	-1.0293469032	 0.138991
H	-2.1918561107	 1.6291161052	-0.0468730212	 0.142319
H	-2.0151911932	 3.9466501239	 1.0390708633	 0.106013
H	-0.9971125318	 3.3064316884	 3.2977681482	 0.129056
H	-0.222063025	 1.8546324113	 2.5076775555	 0.127041
H	 1.4609586411	 3.9465373111	-0.0669018799	 0.141888
H	 2.1463622124	 3.4428886496	 1.4705657928	 0.148154
48.1377	115.4026	281.0771	298.0155	357.3331	378.3831	416.9827	519.4364	543.3217	548.0889	639.3674	730.122	800.4961	809.5236	869.5542	936.0749	998.2099	1043.8319	1062.2455	1071.2773	1111.7131	1131.4748	1168.6598	1181.3234	1227.6547	1268.3421	1310.8725	1330.345	1335.5982	1411.8941	1446.7876	1457.6177	1517.0206	1813.9079	1836.8413	3001.1208	3010.9928	3084.9373	3088.1518	3090.5355	3125.5197	3179.5913
O=C1CC2CN2CC1=O	O=C1C[C@H]2CN2CC1=O	
InChI=1S/C6H7NO2/c8-5-1-4-2-7(4)3-6(5)9/h4H,1-3H2	InChI=1S/C6H7NO2/c8-5-1-4-2-7(4)3-6(5)9/h4H,1-3H2/t4-,7?/m0/s1
