18
gdb 54574	3.66828	1.35044	1.13666	1.7774	76.46	-0.2288	-0.0184	0.2104	1097.853	0.147308	-401.891064	-401.883095	-401.882151	-401.924147	30.188	
C	-0.4507750028	 1.3683969696	 0.1183898099	-0.491525
C	 0.1624984269	-0.008998789	-0.0479096109	 0.262787
O	 0.6735322515	-0.6080700932	 0.8778614222	-0.323716
C	 0.0943592446	-0.6017611204	-1.4029317602	 0.224823
C	-0.6234573662	-0.197618117	-2.6829642386	-0.25502
N	-0.4987986579	-1.6248269566	-3.1797326489	-0.173657
C	 1.0090393159	-1.7444389031	-3.3484635194	-0.184467
C	 1.1525792818	-1.6622961025	-1.8403398059	-0.111202
C	-0.2734487149	-2.0449930148	-1.7126043217	-0.046354
H	 0.0089976179	 2.0786913952	-0.5785991552	 0.139001
H	-1.5206166343	 1.3397952115	-0.1189952157	 0.141568
H	-0.3124776927	 1.7118436074	 1.1440418534	 0.142998
H	-1.6791403592	 0.0351261828	-2.5195109212	 0.113338
H	-0.1805587688	 0.5532028865	-3.3472110221	 0.102665
H	 1.2483805774	-2.7375613899	-3.7363263898	 0.119564
H	 1.4601864267	-0.9766962295	-3.9861938114	 0.10373
H	 1.9727329045	-1.8943641737	-1.17473881	 0.119297
H	-0.8324813504	-2.7779212733	-1.1493067944	 0.116172
49.6423	126.1651	158.6374	175.1761	334.1334	404.2578	465.1078	493.8121	593.4086	607.3401	701.7078	781.5745	831.587	840.5094	868.0667	912.3242	932.6287	955.5818	960.3334	996.0782	1033.9509	1045.479	1085.5718	1094.8048	1104.2389	1153.4957	1156.6967	1191.5777	1217.1099	1262.9632	1291.101	1318.0645	1372.9402	1401.5217	1461.0237	1473.1103	1502.4187	1521.9504	1776.8169	3032.4351	3033.7013	3045.8486	3091.9916	3096.9341	3107.9053	3153.4251	3214.6101	3230.8785
CC(=O)C12CN3CC1C23	CC(=O)[C@@]12CN3C[C@@H]1[C@@H]23	
InChI=1S/C7H9NO/c1-4(9)7-3-8-2-5(7)6(7)8/h5-6H,2-3H2,1H3	InChI=1S/C7H9NO/c1-4(9)7-3-8-2-5(7)6(7)8/h5-6H,2-3H2,1H3/t5-,6+,7+/m1/s1
