16
gdb 34335	2.9937	1.60204	1.30082	2.6905	74.73	-0.2381	0.0263	0.2644	985.7401	0.124095	-400.626209	-400.618959	-400.618015	-400.657661	29.09	
C	-0.0327928606	-1.2162942209	-0.010617482	-0.380383
C	-0.0152735377	-0.0132010248	 0.0026145745	 0.174333
C	-0.0059856043	 1.420537712	 0.0307839859	 0.104358
C	-0.3734856626	 2.2256285058	-1.252886799	-0.116182
O	 0.8751319615	 2.9595235648	-1.2089166978	-0.279001
C	 1.2946187598	 2.284185018	-0.0216443098	 0.071428
C	 0.9059014742	 2.9281487123	 1.3342850642	-0.06771
N	-0.4283998511	 3.5479577783	 1.160619011	-0.327502
C	-0.3332028426	 2.0989235703	 1.3976711246	-0.131302
H	-0.0438151125	-2.2778569778	-0.0316529948	 0.189386
H	-0.4352715758	 1.6020712828	-2.1503439955	 0.108668
H	-1.2407947614	 2.8837432426	-1.1662148687	 0.122531
H	 2.2954523867	 1.8506411326	-0.0790189027	 0.092412
H	 1.5728497429	 3.2602045515	 2.1202311645	 0.098618
H	-0.6721703609	 3.9876229729	 2.0470924086	 0.237367
H	-0.8223769755	 1.6173500896	 2.2346447572	 0.102981
137.8839	149.7944	239.7919	313.7838	407.058	477.9124	496.0684	531.7944	615.4461	639.8309	653.6121	698.1976	802.1313	826.1056	838.4522	903.0715	905.4739	944.5081	976.3026	1001.5773	1012.964	1046.4981	1083.9862	1097.568	1129.7356	1164.1366	1174.4156	1239.8347	1258.0256	1294.9212	1327.6544	1347.6103	1376.3093	1495.1562	2233.0616	3045.473	3092.568	3116.0323	3187.2373	3202.9507	3484.3251	3501.9293
C#CC12COC1C1NC21	C#C[C@]12CO[C@H]1[C@H]1N[C@@H]21	
InChI=1S/C7H7NO/c1-2-7-3-9-6(7)4-5(7)8-4/h1,4-6,8H,3H2	InChI=1S/C7H7NO/c1-2-7-3-9-6(7)4-5(7)8-4/h1,4-6,8H,3H2/t4-,5+,6-,7+/m0/s1
