18
gdb 116670	2.36401	0.96883	0.79334	3.0889	78.19	-0.2508	0.0095	0.2603	1499.64	0.143996	-439.031657	-439.021045	-439.020101	-439.068463	36.384	
C	-0.5391587797	 0.7858997741	-0.0068448662	-0.252877
O	 0.7034419554	 0.1165487701	-0.2028504498	-0.194908
C	 0.6933886007	-0.8646141731	-1.1206965646	 0.135581
N	 1.7454238846	-1.524281778	-1.3428231877	-0.263419
C	 1.7362839011	-2.6000274483	-2.3332372514	-0.131269
C	 2.3717746913	-3.8379005612	-1.6529048369	-0.051074
O	 1.6668027928	-4.2290307314	-0.4994737744	-0.418659
C	 0.4371880234	-2.9210127691	-2.9353610936	 0.337943
C	-0.6263751027	-3.1767438049	-3.4353880916	-0.491806
H	-0.8976711644	 1.2445679682	-0.9357529053	 0.131914
H	-1.3043704833	 0.1026189788	 0.3796438243	 0.132913
H	-0.3519364617	 1.5679331022	 0.7295362122	 0.148618
H	-0.2656255015	-1.0189824867	-1.6302391508	 0.101447
H	 2.4219839054	-2.3007836612	-3.1396082143	 0.115294
H	 2.3565757055	-4.6860375209	-2.3427389772	 0.114493
H	 3.4179828075	-3.5844006178	-1.4267159425	 0.096882
H	 1.6762714155	-3.4669597442	 0.0921281481	 0.288676
H	-1.5584920301	-3.4234018066	-3.8809802083	 0.20025
45.5519	66.5258	104.07	115.1514	148.5897	170.6107	204.9377	279.6604	304.7807	384.138	418.8457	431.4578	511.6909	621.2817	624.6693	658.4709	746.8449	830.6622	923.7614	1003.1678	1019.7405	1050.3599	1084.1036	1103.9263	1176.8618	1179.684	1228.4798	1272.8115	1289.9869	1329.1344	1397.0531	1405.8708	1426.3484	1485.4504	1494.9171	1495.2778	1500.4987	1760.3264	2224.6067	2992.5524	3004.922	3018.5079	3050.6745	3085.5598	3098.3911	3148.4032	3500.3533	3787.4138
COC=NC(CO)C#C	COC=N[C@@H](CO)C#C	
InChI=1S/C6H9NO2/c1-3-6(4-8)7-5-9-2/h1,5-6,8H,4H2,2H3	InChI=1S/C6H9NO2/c1-3-6(4-8)7-5-9-2/h1,5-6,8H,4H2,2H3/t6-/m1/s1
