21
gdb 39822	2.73387	1.53637	1.52892	1.6024	81.24	-0.2526	0.0822	0.3348	1022.8763	0.185563	-387.072047	-387.06465	-387.063706	-387.103503	30.584	
C	 0.07767178	 1.4213979316	 0.0090146679	-0.301486
O	 1.2253201461	 0.5490513509	-0.0071152668	-0.295687
C	-0.0666125617	-0.0301291141	 0.0026180691	 0.536474
C	-0.619465721	-0.9668206785	 1.0779438919	-0.124005
C	-1.6974435004	-1.3481171464	 0.0117383132	-0.241597
C	-0.6408594264	-0.955222058	-1.0715350938	-0.124005
C	 0.3713783282	-2.0951062987	-1.3027445801	-0.202816
C	 0.548162149	-2.9422087604	-0.0192140738	-0.200817
C	 0.3970507044	-2.1090249686	 1.2766468548	-0.202816
H	-0.06451902	 1.9812109841	 0.9330522674	 0.113395
H	-0.082821396	 1.9911361994	-0.9059139722	 0.113395
H	-0.9490765653	-0.5329392048	 2.025017391	 0.063558
H	-2.0763801683	-2.3719865191	 0.0099847645	 0.097409
H	-2.5397012707	-0.6525100901	 0.0238750594	 0.099069
H	-0.989208342	-0.5111824639	-2.0071240856	 0.063558
H	 0.0438221576	-2.7378674375	-2.127107694	 0.08996
H	 1.3238970803	-1.6462211291	-1.6065441759	 0.114774
H	-0.2128668907	-3.7295779545	-0.0158887245	 0.10135
H	 1.5122625696	-3.4596418676	-0.0316018904	 0.095552
H	 1.3554755628	-1.6633419816	 1.5662544579	 0.114774
H	 0.0858988045	-2.7606800031	 2.1003823299	 0.08996
132.4414	217.0963	233.4833	261.2139	384.6103	398.1304	458.7114	532.48	591.9082	623.8315	777.9615	810.9308	825.1767	837.5261	879.7586	896.4914	898.9414	924.6202	949.9218	970.6983	1046.4588	1069.2262	1082.8094	1086.5099	1104.4519	1112.0037	1118.3108	1164.7332	1181.6209	1207.3481	1226.0559	1238.2686	1273.548	1299.2546	1305.3287	1319.2483	1357.4011	1373.0763	1375.2134	1449.2926	1485.4839	1491.3365	1496.389	1515.5637	1544.106	3032.8649	3034.4797	3042.5911	3065.0104	3067.8846	3072.2703	3075.8479	3077.442	3081.9928	3089.8069	3122.5501	3161.127
C1OC11C2CC1CCC2	C1O[C@]21[C@H]1C[C@@H]2CCC1	
InChI=1S/C8H12O/c1-2-6-4-7(3-1)8(6)5-9-8/h6-7H,1-5H2	InChI=1S/C8H12O/c1-2-6-4-7(3-1)8(6)5-9-8/h6-7H,1-5H2/t6-,7+,8-
