20
gdb 105764	2.33508	1.37135	1.1649	4.1769	78.23	-0.2468	0.0292	0.276	1173.973	0.173527	-399.338085	-399.328908	-399.327964	-399.372456	34.051	
N	-0.1991661995	 1.428390629	-0.1387726496	-0.502487
C	-0.0291924082	-0.0095037884	-0.0244667707	-0.220794
C	 0.8705047721	-0.5146187226	 1.1345127548	 0.097523
C	 0.9781687759	-2.0727304455	 1.2078073842	-0.255525
C	 2.4397239329	-2.3479479852	 1.6490823702	-0.216314
C	 3.0750567193	-0.9382444278	 1.7839470704	-0.178996
N	 2.2511081475	-0.0186712785	 0.9822076557	-0.306713
C	 0.3296208898	 0.0089385554	 2.406308022	 0.309469
N	-0.1336312716	 0.4115028915	 3.3860533645	-0.356621
H	-0.7159937043	 1.7798269804	 0.6624991066	 0.245363
H	 0.7084307115	 1.8846670564	-0.1113065705	 0.238786
H	-1.0149783296	-0.4759878866	 0.0709904157	 0.125723
H	 0.4133746253	-0.3942033866	-0.9539131765	 0.105953
H	 0.2382793789	-2.5026739994	 1.8857028072	 0.125528
H	 0.7824514619	-2.4790667519	 0.2104517458	 0.10702
H	 2.4894661474	-2.9060605267	 2.5871254509	 0.11522
H	 2.9634138778	-2.9399964818	 0.8932402396	 0.106482
H	 3.0436373679	-0.6042420918	 2.8266112556	 0.131966
H	 4.1157697948	-0.8931893018	 1.4557181454	 0.109251
H	 2.4983835002	-0.1287694082	 0.000770739	 0.219165
46.392	113.0081	139.571	175.6326	209.1313	238.4936	319.7719	395.3802	411.4555	488.5478	585.5227	642.5456	660.4315	744.0784	804.0692	809.2678	861.2424	893.3938	907.0834	911.3938	989.4389	1012.1263	1037.8202	1067.0811	1106.7388	1109.9244	1146.023	1190.8408	1236.9983	1256.2146	1290.1353	1315.6234	1328.2988	1353.9395	1372.2254	1400.2544	1456.3677	1482.2135	1490.7336	1498.6886	1512.2035	1676.0858	2349.3996	3013.5751	3050.7109	3051.6354	3064.4804	3082.3397	3097.125	3111.7934	3121.3748	3478.2959	3493.3755	3568.9125
NCC1(CCCN1)C#N	NC[C@]1(CCCN1)C#N	
InChI=1S/C6H11N3/c7-4-6(5-8)2-1-3-9-6/h9H,1-4,7H2	InChI=1S/C6H11N3/c7-4-6(5-8)2-1-3-9-6/h9H,1-4,7H2/t6-/m1/s1
