20
gdb 11082	2.4326	2.11138	2.04142	1.1523	74.21	-0.2429	0.0789	0.3218	867.6997	0.17612	-348.987333	-348.978909	-348.977965	-349.020508	32.181	
C	-0.2701714313	 1.5214774143	 0.1575323339	-0.488483
C	 0.0202902771	 0.0443632707	 0.0215641756	 0.337362
C	 1.1125332763	-0.4038018934	-0.9895528311	-0.274088
C	 1.7925948089	-1.2784333744	 0.1093336581	-0.288558
C	 0.7302502492	-0.8048627005	 1.1407932099	 0.379214
O	 1.1954730298	-0.161873654	 2.2959873233	-0.482323
C	-0.5171907267	-1.7145133189	 1.2658165168	-0.289083
C	-1.1863991088	-0.9417236697	 0.0870736351	-0.276784
H	 0.6512650192	 2.0963555059	 0.2974163727	 0.118305
H	-0.7723082625	 1.9039822531	-0.7399706375	 0.109869
H	-0.9199798967	 1.7231413902	 1.0157916128	 0.116839
H	 0.7471947047	-0.9379775775	-1.8710954908	 0.092864
H	 1.7456292134	 0.4206449754	-1.3286570747	 0.098321
H	 1.8272650884	-2.3553119314	-0.0806319997	 0.089276
H	 2.7955546958	-0.9346936768	 0.37357486	 0.100665
H	 1.6219467712	-0.8184832999	 2.8583402751	 0.274288
H	-0.3605072535	-2.7890505259	 1.1307354135	 0.087428
H	-1.0289570605	-1.5482839488	 2.2171920067	 0.10154
H	-2.1316532813	-0.4634406639	 0.3559896609	 0.099366
H	-1.3480022626	-1.5262427646	-0.8228010107	 0.093981
26.5983	178.8224	189.1464	203.2845	270.0839	328.0731	361.2552	401.7218	495.4748	564.7331	610.4673	696.7073	752.338	757.9358	850.4516	887.4916	916.9345	931.9963	954.5492	959.8913	999.1987	1021.6907	1066.7704	1152.7982	1173.737	1212.0278	1224.3378	1226.4609	1237.0652	1243.1297	1253.4673	1264.9832	1278.5171	1325.7441	1372.0587	1409.2901	1465.469	1475.9654	1482.0572	1487.8938	1493.0417	1502.6062	3019.3743	3044.5195	3046.8136	3051.8199	3056.3753	3083.2034	3091.0379	3095.0043	3097.3489	3111.0491	3115.876	3789.1337
CC12CCC1(O)CC2	C[C@@]12CC[C@]1(O)CC2	
InChI=1S/C7H12O/c1-6-2-4-7(6,8)5-3-6/h8H,2-5H2,1H3	InChI=1S/C7H12O/c1-6-2-4-7(6,8)5-3-6/h8H,2-5H2,1H3/t6-,7-
