22
gdb 121314	3.05261	0.9913	0.80614	3.5923	83.78	-0.2306	0.0388	0.2694	1506.2373	0.195479	-404.409482	-404.399877	-404.398933	-404.444933	34.73	
C	-0.1220998847	 1.5987300225	-0.0103575441	-0.377374
C	-0.0059597421	 0.0729823786	-0.0470949721	-0.177234
C	-1.3786431435	-0.6105121714	 0.0313820508	-0.159139
N	-1.3188133224	-2.0579236665	 0.0048288221	-0.066607
C	-0.9716589158	-2.8217096614	-1.1823839614	-0.166289
C	-1.3306229819	-4.2716668826	-0.7905201385	-0.223121
C	-1.212563057	-4.2764898288	 0.7405002192	-0.328049
C	-1.4413673362	-2.8175907995	 1.1412015481	 0.404406
O	-1.6715940623	-2.3896817309	 2.2544851349	-0.398645
H	 0.8623544487	 2.0725795558	-0.0643988577	 0.115952
H	-0.7177508178	 1.9730755406	-0.8506202762	 0.114103
H	-0.6044852888	 1.9361116869	 0.9133652789	 0.123957
H	 0.5095339705	-0.235443373	-0.9653622236	 0.095212
H	 0.6066904749	-0.2786489918	 0.7911538227	 0.114181
H	-1.8731456887	-0.343685908	 0.9699285677	 0.139945
H	-2.0139793599	-0.2653684371	-0.7962228035	 0.096056
H	-1.5390040579	-2.4678679662	-2.0511923563	 0.107431
H	 0.0963603528	-2.7223548548	-1.4268971629	 0.104901
H	-2.3621438083	-4.4840797599	-1.0867610993	 0.116248
H	-0.6861010312	-5.0020245087	-1.2835747858	 0.108095
H	-1.9251162495	-4.9286669309	 1.2481539232	 0.128972
H	-0.2096961791	-4.5649451728	 1.0771749335	 0.127
51.3551	77.7323	91.5101	151.7827	178.2405	236.6495	280.2923	317.9637	348.0192	510.7711	569.8114	636.2382	677.7924	747.9508	758.8921	859.9599	877.7833	896.6884	909.2004	936.708	1019.7884	1033.2036	1047.3266	1090.5205	1121.9513	1147.4064	1189.0614	1218.3447	1241.118	1252.4632	1289.5374	1308.2013	1315.3752	1333.9512	1340.1091	1362.8666	1408.1868	1416.3476	1451.651	1471.4502	1475.5181	1491.3472	1498.7514	1501.1732	1508.7982	1537.5294	1802.3168	2989.0233	3008.4581	3027.1855	3032.1389	3043.3323	3048.2834	3062.9307	3064.0062	3094.6399	3103.6822	3108.0852	3111.34	3122.6183
CCCN1CCCC1=O	CCCN1CCCC1=O	
InChI=1S/C7H13NO/c1-2-5-8-6-3-4-7(8)9/h2-6H2,1H3	InChI=1S/C7H13NO/c1-2-5-8-6-3-4-7(8)9/h2-6H2,1H3
