18
gdb 39575	2.53121	2.07571	1.63924	2.0558	75.35	-0.2439	0.0036	0.2475	894.6687	0.152192	-401.979997	-401.973473	-401.972529	-402.010566	27.161	
C	 0.0112632194	 1.5323831151	 0.0736988195	-0.252685
C	 1.3946826409	 2.112567377	-0.0553825978	-0.034367
C	 2.4649427087	 1.3904386591	-0.3862980526	-0.075131
C	 2.3621355431	-0.0910452765	-0.6690180836	 0.068949
C	 0.9537997502	-0.4671406523	-1.1237810805	-0.257455
C	 0.0242052651	-0.0069783709	 0.0061484053	 0.012309
N	 0.4488379432	-0.5671385374	 1.2952607965	-0.27284
C	 1.6557569212	-0.9304885509	 1.4201589205	 0.125033
O	 2.6769791542	-0.8444639827	 0.5359231566	-0.236011
H	-0.4384227581	 1.8463496244	 1.0223092366	 0.124452
H	-0.6348502578	 1.9360158732	-0.7200539112	 0.106616
H	 1.5006550035	 3.1781154188	 0.1349377244	 0.095559
H	 3.4506964631	 1.8422800592	-0.4380626227	 0.093436
H	 3.125105543	-0.4047768371	-1.3845237536	 0.087798
H	 0.7172209392	 0.0253602343	-2.0721170354	 0.104504
H	 0.8830768836	-1.549193655	-1.2708816151	 0.10929
H	-0.9983892082	-0.3567048587	-0.1674897946	 0.079289
H	 2.0018333156	-1.3955572896	 2.3420890179	 0.121251
158.0422	258.6222	327.181	393.2813	432.1146	467.6432	564.837	590.2914	643.9229	733.0381	799.0016	807.1616	834.1974	885.9323	914.0768	923.5899	963.9315	972.3745	1003.0158	1035.298	1047.8153	1066.965	1109.178	1147.1188	1155.4843	1209.0304	1235.3058	1295.8633	1327.5341	1351.4774	1361.479	1371.7524	1388.4521	1409.6125	1415.6009	1460.5801	1483.9045	1710.5703	1716.2275	3002.8453	3044.1981	3055.0211	3063.8661	3087.2433	3096.5484	3150.893	3151.7563	3180.9078
C1C=CC2CC1N=CO2	C1C=C[C@@H]2C[C@H]1N=CO2	
InChI=1S/C7H9NO/c1-2-6-4-7(3-1)9-5-8-6/h1,3,5-7H,2,4H2	InChI=1S/C7H9NO/c1-2-6-4-7(3-1)9-5-8-6/h1,3,5-7H,2,4H2/t6-,7+/m0/s1
