20
gdb 91119	2.72293	1.79808	1.46224	0.7699	76.33	-0.2196	0.0664	0.286	968.0212	0.174679	-403.137396	-403.130211	-403.129267	-403.168793	29.693	
O	 0.0488845462	 1.4137849245	-0.1894790109	-0.432317
C	 0.0190032177	 0.0042242247	-0.0513087151	 0.132939
C	 0.6916522085	-0.5425143368	 1.2325834126	-0.209528
N	-0.0097440449	-1.7938351183	 1.5683315056	-0.110788
C	-1.3474794165	-1.672578427	 2.1937421711	-0.011813
C	-1.9437992509	-0.3004905256	 2.4776664784	-0.245454
C	-2.2626709856	 0.3023276417	 1.0841956652	-0.205343
C	-1.4301959978	-0.5135666656	 0.0652927298	-0.070233
C	-1.2241910464	-1.8833982685	 0.7272853408	-0.06824
H	 0.9620607713	 1.6850062473	-0.3224710456	 0.286343
H	 0.4865562045	-0.4723032855	-0.9271603499	 0.067921
H	 1.7514587174	-0.7715816082	 1.0798851831	 0.095847
H	 0.6278728338	 0.2033860388	 2.0335455138	 0.104933
H	-1.5684679071	-2.4876065838	 2.8775949601	 0.086764
H	-2.8462348434	-0.4085947619	 3.0868122382	 0.099121
H	-1.257708969	 0.3294266351	 3.0553960262	 0.107777
H	-3.3251201009	 0.1614411313	 0.8623314677	 0.096438
H	-2.0497127075	 1.3710968773	 1.0174485774	 0.120086
H	-1.9129530976	-0.5624464929	-0.9126085177	 0.071924
H	-1.4197850918	-2.8177193468	 0.2107626792	 0.083621
95.438	245.6421	260.0178	296.9582	375.2451	445.521	514.8722	526.1576	649.2093	717.4158	730.9695	774.119	796.3915	827.5145	878.2462	897.5138	936.0405	939.0925	997.1035	998.2042	1038.2213	1043.7964	1073.1529	1100.4645	1111.7158	1133.2134	1189.4581	1202.2934	1214.8257	1242.0319	1261.9996	1285.7979	1290.8589	1300.9908	1317.1328	1333.5083	1352.2738	1368.0528	1389.0219	1431.5509	1484.7676	1497.8608	1523.5888	2974.3312	3032.0496	3041.1925	3052.3578	3072.1888	3079.9077	3092.8243	3117.152	3140.0422	3157.159	3827.6086
OC1CN2C3CCC1C23	O[C@H]1CN2[C@H]3CC[C@@H]1[C@@H]23	
InChI=1S/C7H11NO/c9-6-3-8-5-2-1-4(6)7(5)8/h4-7,9H,1-3H2	InChI=1S/C7H11NO/c9-6-3-8-5-2-1-4(6)7(5)8/h4-7,9H,1-3H2/t4-,5-,6-,7+,8?/m0/s1
