14
gdb 47996	3.15006	0.82836	0.68916	5.1077	80.01	-0.2711	-0.0705	0.2006	1541.2672	0.099486	-399.524588	-399.515735	-399.514791	-399.55974	30.092	
O	-0.1020115678	-0.0256875359	 0.411725681	-0.227594
C	-0.0020297732	 1.1096342991	 0.0064920759	 0.021162
C	 1.2278565589	 1.8595118135	-0.012661654	 0.029523
C	 2.2404228944	 2.5186035736	-0.0403841108	 0.133644
C	 3.4437972784	 3.284265543	-0.060030858	-0.196717
C	 3.7951334455	 4.1174213874	-1.2759081454	-0.281572
C	 3.3846446359	 4.8240621903	-0.0086884678	-0.167004
C	 2.1146485749	 5.4894544649	 0.063843347	 0.296728
N	 1.096396403	 6.0337883842	 0.1253182145	-0.322015
H	-0.8746670788	 1.6670521119	-0.3884573625	 0.110155
H	 4.2794284177	 2.8572316862	 0.4856711248	 0.143404
H	 4.8388814885	 4.1707410168	-1.5608265879	 0.147119
H	 3.0867027777	 4.11587068	-2.0943479219	 0.162404
H	 4.1685039551	 5.294388455	 0.5748174251	 0.150764
48.4689	62.5359	113.5121	147.7751	211.6099	235.0395	285.5318	443.1933	496.6296	548.5127	582.5966	663.7006	763.292	768.8011	843.0465	903.7026	952.1051	1019.9975	1033.6733	1088.6546	1116.9687	1132.3926	1170.4117	1233.9037	1374.9523	1393.6283	1420.3828	1479.4884	1765.8592	2326.455	2361.6457	2930.8189	3156.2193	3160.6181	3178.3355	3254.9658
O=CC#CC1CC1C#N	O=CC#C[C@H]1C[C@H]1C#N	
InChI=1S/C7H5NO/c8-5-7-4-6(7)2-1-3-9/h3,6-7H,4H2	InChI=1S/C7H5NO/c8-5-7-4-6(7)2-1-3-9/h3,6-7H,4H2/t6-,7-/m0/s1
