14
gdb 81727	3.25383	1.32477	1.04325	4.0518	71.17	-0.236	-0.0374	0.1986	1097.0414	0.099111	-436.609553	-436.60143	-436.600486	-436.642307	30.451	
O	-0.0647348722	 1.486330141	 0.1450262497	-0.422818
C	 0.0183254316	 0.1028293271	 0.0340839855	 0.040124
C	-1.2916872493	-0.7061406239	 0.0332136639	-0.154813
N	-2.0030213522	-0.22205235	-1.1472816575	-0.385255
C	-0.9843022325	-1.3421505685	-1.3075532844	 0.128092
C	-1.3341633057	-2.6071887972	-1.8375447336	 0.132943
C	-1.5957872294	-3.6836102907	-2.3072779775	-0.393604
C	 0.3357412245	-0.571146527	-1.3588301949	 0.333453
O	 1.2795469972	-0.5853544866	-2.083964767	-0.282314
H	-0.7460176223	 1.7695105204	-0.4791524255	 0.299997
H	 0.7417315529	-0.2551996839	 0.7737590513	 0.124183
H	-1.7995512844	-1.1703695821	 0.8684306776	 0.126257
H	-2.9182939366	-0.6697090403	-1.1922441772	 0.254861
H	-1.8235392716	-4.6356850683	-2.7195555804	 0.198894
88.0737	123.9821	173.8716	248.5273	260.0405	378.4085	460.9924	484.4358	517.8046	589.492	603.2872	612.4195	646.1758	659.3479	792.0803	812.3722	831.8263	924.2615	957.9698	983.8139	1046.1787	1088.1099	1151.241	1196.5019	1244.2424	1277.9032	1341.4598	1386.9335	1436.0616	1909.4982	2236.0514	3076.7545	3211.8097	3482.1604	3499.2305	3771.2245
OC1C2NC2(C#C)C1=O	O[C@H]1[C@H]2N[C@@]2(C#C)C1=O	
InChI=1S/C6H5NO2/c1-2-6-4(7-6)3(8)5(6)9/h1,3-4,7-8H	InChI=1S/C6H5NO2/c1-2-6-4(7-6)3(8)5(6)9/h1,3-4,7-8H/t3-,4+,6+/m0/s1
