19
gdb 108564	3.31377	1.38563	1.21875	2.9066	74.19	-0.2209	0.0693	0.2902	1073.2801	0.160327	-422.985104	-422.977353	-422.976408	-423.017365	30.482	
O	-0.0631342219	 1.3117764859	-0.4575371561	-0.420674
C	-0.0427288353	-0.0165226219	 0.052369086	-0.192964
C	-1.4547916095	-0.5210482097	 0.1015626373	 0.330078
C	-2.4837179082	 0.1582785062	 1.0112969951	-0.277259
C	-3.5266782731	-0.9533858075	 1.3175578996	-0.213952
C	-3.249845741	-1.9813188187	 0.2272019333	 0.086187
O	-3.4290856602	-1.3136075755	-1.0702259566	-0.31467
C	-2.0138646437	-1.1616339387	-1.1596030574	 0.075592
C	-1.7178698024	-2.018280841	 0.0292777238	-0.221096
H	 0.8241101717	 1.675226345	-0.3803113534	 0.286768
H	 0.5687185224	-0.6788017789	-0.5835551282	 0.081699
H	 0.395666005	-0.0421894577	 1.0636980547	 0.086174
H	-2.0047103235	 0.5322678123	 1.9216370381	 0.094302
H	-2.9439129176	 1.0137994326	 0.511555819	 0.121418
H	-3.359143326	-1.4020209535	 2.3040868625	 0.095763
H	-4.5583921965	-0.5930770751	 1.2789869975	 0.108339
H	-3.8056597454	-2.9193873023	 0.2711457264	 0.079336
H	-1.5667414322	-1.0763077618	-2.1434575832	 0.103288
H	-1.0205026826	-2.8250834098	 0.2100114717	 0.09167
87.8184	150.48	208.5588	253.085	316.9782	379.4325	389.5391	483.5278	628.6077	668.8482	746.7784	772.585	831.1493	847.1724	871.4803	904.0034	907.799	930.7961	996.9785	1012.3538	1022.8504	1041.2028	1058.5001	1066.229	1101.6084	1153.2126	1166.4728	1205.3619	1218.0217	1236.8619	1253.7755	1277.5533	1300.6914	1304.1027	1331.3296	1351.954	1409.3531	1466.4157	1473.9327	1497.4987	1516.7884	2952.7996	2979.3523	3036.0893	3057.1823	3090.9913	3102.6616	3109.2616	3178.7912	3201.0381	3825.5433
OCC12CCC3OC1C23	OC[C@@]12CC[C@H]3O[C@@H]1[C@@H]23	
InChI=1S/C7H10O2/c8-3-7-2-1-4-5(7)6(7)9-4/h4-6,8H,1-3H2	InChI=1S/C7H10O2/c8-3-7-2-1-4-5(7)6(7)9-4/h4-6,8H,1-3H2/t4-,5+,6-,7-/m1/s1
