17
gdb 43703	4.71109	1.21859	1.09448	1.6877	74.64	-0.248	0.0222	0.2702	1103.5898	0.137648	-417.934111	-417.927113	-417.926169	-417.965598	28.066	
N	 0.0828143435	 1.1950154029	 0.6620688111	-0.541372
C	-0.0186877252	 0.0850720119	 0.0907980512	 0.41499
C	-1.1585107246	-0.8496147877	-0.2470149172	-0.471397
C	-0.0455642869	-1.7191226101	-0.8566238941	 0.517673
O	 0.9523676744	-0.7282360029	-0.4698462777	-0.300118
C	 0.2818084726	-3.2100804005	-0.6375952617	-0.119625
C	-0.7906066138	-3.5296874315	-1.709914678	-0.204661
C	 0.0617813204	-2.3564530335	-2.2567657101	-0.119618
N	 1.2829272464	-3.1393629711	-1.7859039069	-0.331847
H	 1.054483127	 1.5083251425	 0.6951968284	 0.229362
H	-1.6763751251	-1.2705507218	 0.6167144984	 0.143433
H	-1.8893014567	-0.4449093931	-0.9495471574	 0.143432
H	 0.4987300616	-3.7346254918	 0.2930833397	 0.092479
H	-0.6370750391	-4.474812719	-2.2290471077	 0.120029
H	-1.8356665952	-3.3341708783	-1.4648260249	 0.104645
H	 0.0194451894	-1.8751584415	-3.2339699464	 0.09248
H	 2.0246267713	-2.4779278544	-1.5379842366	 0.230113
91.2285	189.433	238.3858	392.2846	412.5395	437.4204	496.2259	576.0624	633.9252	760.4043	787.6436	796.4162	868.4058	875.2501	877.2661	911.7637	957.0355	980.456	1016.9412	1023.2794	1059.502	1071.6801	1081.8745	1098.752	1163.4991	1172.7591	1176.3977	1201.2248	1218.9418	1238.6836	1293.0266	1299.154	1310.1806	1331.0311	1458.9672	1491.9379	1832.1604	3083.5957	3085.4748	3117.5993	3122.315	3138.0608	3166.4836	3408.0102	3476.9343
N=C1CC2(O1)C1CC2N1	[NH][C]1C[C@@]2(O1)[C@H]1C[C@@H]2N1	
InChI=1S/C6H8N2O/c7-5-2-6(9-5)3-1-4(6)8-3/h3-4,7-8H,1-2H2	InChI=1S/C6H8N2O/c7-5-2-6(9-5)3-1-4(6)8-3/h3-4,7-8H,1-2H2/t3-,4+,6-
