15
gdb 10378	2.80177	1.94916	1.42726	3.0486	66.03	-0.2764	-0.0508	0.2255	891.3852	0.118271	-362.674291	-362.666538	-362.665593	-362.706732	27.595	
O	-0.1339766708	 0.0748960213	-0.4443692364	-0.23685
C	-0.0009039807	 1.1530826072	 0.0675668422	 0.118917
C	 1.3085688664	 1.9412813523	 0.0494328302	 0.071222
C	 2.5052859861	 1.1329238072	-0.5423693442	-0.254878
C	 2.2308666874	 1.7710382844	-1.9290628304	-0.2132
C	 1.3436462144	 2.8455920787	-1.2516190671	-0.258514
C	 1.4958372168	 2.6307402243	 1.3144507182	 0.217344
N	 1.6392041843	 3.179697189	 2.3223323495	-0.33083
H	-0.8459196593	 1.6816329601	 0.5569747957	 0.109234
H	 3.4534623439	 1.447918662	-0.1046764378	 0.127398
H	 2.3973243506	 0.0513627642	-0.4621367028	 0.138789
H	 3.095799273	 2.140327728	-2.4812903475	 0.116162
H	 1.6543617882	 1.1067143258	-2.5750591944	 0.132107
H	 0.3742307616	 3.0746109095	-1.700173968	 0.125695
H	 1.870951708	 3.7796932459	-1.0516461873	 0.137403
82.5883	113.7535	176.5187	183.1796	272.9156	290.6746	506.6632	539.7884	553.2979	612.4628	731.1524	793.524	869.1295	875.8535	940.1897	953.8082	972.715	1050.6643	1089.6615	1160.897	1195.5851	1221.2238	1258.0462	1268.2375	1283.0781	1289.7255	1417.0003	1465.7058	1481.025	1499.8937	1831.308	2348.3436	2915.7108	3072.5415	3084.5033	3090.0965	3125.8253	3141.3477	3156.2844
O=CC1(CCC1)C#N	O=CC1(CCC1)C#N	
InChI=1S/C6H7NO/c7-4-6(5-8)2-1-3-6/h5H,1-3H2	InChI=1S/C6H7NO/c7-4-6(5-8)2-1-3-6/h5H,1-3H2
