18
gdb 73432	3.05455	2.00537	1.4855	0.8939	74.01	-0.2133	0.0605	0.2738	912.6306	0.148912	-401.869586	-401.862617	-401.861673	-401.900583	28.506	
C	-0.0503159941	 1.438118922	 0.0112154884	-0.453603
C	 0.0018197792	-0.0691282733	 0.0035257675	 0.434642
O	-1.1759591589	-0.5736689814	-0.5618103609	-0.30866
C	-1.1166005447	-1.938900956	-0.9344423047	-0.093782
C	-0.0116151596	-2.6947653133	-0.243611859	-0.052864
C	 0.6311441476	-2.2567859744	 1.0156427751	-0.064804
C	 0.6685603548	-0.7296529472	 1.1790260251	-0.167868
C	 1.3575869501	-0.6942944605	-0.185321012	-0.106019
N	 1.3862169917	-2.2076609656	-0.2889595904	-0.168965
H	 0.8431173095	 1.858697987	 0.4805617606	 0.120602
H	-0.1229111425	 1.821067359	-1.0109870392	 0.128372
H	-0.9283515231	 1.779660215	 0.5679289736	 0.13064
H	-2.0872168609	-2.388152199	-0.6906633445	 0.112366
H	-0.9767634371	-2.0232354646	-2.0249226452	 0.101613
H	-0.0518003343	-3.7695767973	-0.4086137566	 0.101126
H	 0.9263930078	-2.9460397721	 1.8002457647	 0.099217
H	 0.9168419021	-0.2246261906	 2.1037182678	 0.090512
H	 2.2316474124	-0.1566071277	-0.5346732905	 0.097475
140.6298	208.2306	242.6268	312.9429	408.0744	494.4749	524.8153	568.6037	652.854	703.9827	721.8041	781.1244	837.9391	853.7967	882.535	909.4144	934.4441	971.0029	988.8062	1030.5972	1052.7687	1061.4159	1065.963	1105.517	1122.2081	1155.6953	1189.9458	1218.1207	1247.8237	1253.4544	1277.4044	1338.4053	1380.3287	1414.7084	1435.6085	1444.635	1479.2099	1502.7832	1514.7893	2965.9472	3040.4832	3041.8786	3111.0986	3122.4679	3132.311	3158.0923	3169.8503	3193.0572
CC12OCC3C4C1C2N34	C[C@]12OC[C@@H]3[C@@H]4[C@H]1[C@H]2N34	
InChI=1S/C7H9NO/c1-7-4-5-3(2-9-7)8(5)6(4)7/h3-6H,2H2,1H3	InChI=1S/C7H9NO/c1-7-4-5-3(2-9-7)8(5)6(4)7/h3-6H,2H2,1H3/t3-,4+,5-,6-,7+,8?/m1/s1
