17
gdb 20275	5.31431	2.11736	2.043	1.5368	70.6	-0.2204	0.0921	0.3125	726.6648	0.145734	-326.637322	-326.631971	-326.631027	-326.666315	23.381	
C	-0.0013488562	 1.5202522748	 0.0555362914	-0.303034
C	 1.3189186024	 0.7943184938	-0.0223159821	-0.052531
C	 0.0191810205	 0.0125194426	 0.0059022791	-0.052531
C	 0.0817297198	-0.6290859803	-1.3651151788	 0.017089
C	 0.6432698579	 0.359092403	-2.4237891822	-0.089998
C	 1.3543839818	-0.8454933508	-3.043342689	-0.186155
N	 1.5528294415	-1.1216828558	-1.55478089	-0.162573
C	 1.8125328664	 0.412002858	-1.4026908851	 0.017088
H	-0.2486182386	 1.9659182951	 1.0135607951	 0.112731
H	-0.3602156819	 2.0860795527	-0.7974616276	 0.115027
H	 2.0072061667	 0.8128742919	 0.8132376116	 0.094769
H	-0.2927786119	-0.5705850875	 0.8631680106	 0.094769
H	-0.679275632	-1.3595181651	-1.6456535005	 0.070698
H	 0.1320111395	 1.1910363424	-2.9228753396	 0.0613
H	 0.7450142333	-1.5979812222	-3.5524610072	 0.096327
H	 2.2879314208	-0.6699090587	-3.585956963	 0.096327
H	 2.8048721799	 0.7362182061	-1.7212950227	 0.070698
304.904	323.1425	453.3499	522.4308	670.5472	674.5667	751.622	772.1537	819.4261	830.5823	860.2489	882.2748	912.5138	931.01	957.2901	1004.7708	1011.5287	1026.7579	1058.0874	1072.0994	1081.9015	1091.5159	1114.2163	1115.6535	1137.4624	1185.1017	1192.1117	1223.5188	1250.4513	1264.5315	1290.0275	1332.9994	1344.6134	1379.6726	1489.879	1527.7587	3021.498	3047.1795	3100.7456	3105.3701	3105.8618	3130.9714	3188.2502	3194.7667	3214.3252
C1C2C1C1C3CN1C23	C1[C@H]2[C@@H]1[C@H]1[C@@H]3CN1[C@H]23	
InChI=1S/C7H9N/c1-3-4(1)7-5-2-8(7)6(3)5/h3-7H,1-2H2	InChI=1S/C7H9N/c1-3-4(1)7-5-2-8(7)6(3)5/h3-7H,1-2H2/t3-,4+,5+,6+,7-
