19
gdb 63556	2.59431	1.43578	1.13133	4.2958	76.29	-0.2664	0.0089	0.2753	1141.6637	0.158094	-423.049489	-423.040571	-423.039627	-423.08279	33.493	
C	-0.0540774763	 1.5176103867	-0.0366657103	-0.451908
C	 0.0003108145	 0.0017085781	-0.0325594696	 0.271144
C	-1.2253859141	-0.6879784144	-0.6025669903	-0.462605
C	 1.3416112532	-0.6540644994	-0.2175985297	-0.37975
C	 0.6932770559	-0.6577887545	 1.1447943298	 0.078779
C	 1.1580700635	-0.1064640946	 2.4860049521	-0.156426
O	 0.663425009	-1.3268953247	 3.1329942482	-0.254554
C	 0.245864707	-1.8547402844	 1.9284308557	 0.441821
O	-0.2733776396	-2.9087078365	 1.7338121777	-0.348526
H	 0.8541761005	 1.960705157	 0.383613316	 0.115472
H	-0.1639965313	 1.892296084	-1.0604550591	 0.126884
H	-0.9085706189	 1.8836900585	 0.5433355745	 0.124513
H	-1.3399589533	-0.4437662379	-1.664693824	 0.117033
H	-1.1584419346	-1.7733650381	-0.4993016349	 0.150914
H	-2.1334391269	-0.3598413711	-0.0847321821	 0.121315
H	 1.3890336788	-1.6070960783	-0.7347500929	 0.135285
H	 2.2148005568	-0.021699059	-0.345031798	 0.120063
H	 2.2365010019	-0.0048337592	 2.6296517873	 0.125422
H	 0.6321252138	 0.7717703478	 2.8678723896	 0.125124
119.3033	131.6386	151.2736	216.4327	236.5244	261.1061	311.1955	350.6171	391.9235	424.0951	528.5457	629.1514	668.7761	766.162	792.8426	868.2273	898.4892	924.8525	956.4027	976.1772	1004.6367	1036.6727	1061.9695	1087.0383	1091.1506	1145.9311	1150.9049	1187.9178	1224.6076	1300.7571	1330.7443	1412.9493	1417.6321	1432.1935	1481.1351	1482.2338	1492.5647	1501.7157	1515.592	1520.0095	1923.3095	3026.3205	3032.0719	3062.4407	3089.157	3092.2535	3101.4241	3120.5764	3123.7781	3128.6153	3213.2066
CC1(C)CC11COC1=O	CC1(C)C[C@]21COC2=O	
InChI=1S/C7H10O2/c1-6(2)3-7(6)4-9-5(7)8/h3-4H2,1-2H3	InChI=1S/C7H10O2/c1-6(2)3-7(6)4-9-5(7)8/h3-4H2,1-2H3/t7-/m0/s1
