16
gdb 26977	3.10479	1.2334	0.95127	3.5513	75.2	-0.2258	0.0052	0.2311	1198.5719	0.124318	-400.799756	-400.791205	-400.790261	-400.834201	30.376	
C	-0.0250031687	 1.4337457337	-0.2569617077	-0.502493
C	-0.0992112561	-0.0394214765	-0.0677622923	 0.289136
C	-1.1205414965	-0.94682668	-0.0431539386	 0.158042
C	-2.6010387615	-0.6939469309	-0.1942095704	-0.458771
C	-2.9520760444	 0.1367593508	-1.349309454	 0.273895
N	-3.2286199371	 0.8039120521	-2.2514444043	-0.318839
C	-0.5186956894	-2.2282621622	 0.2001343322	-0.277463
C	 0.8139250007	-2.0056994555	 0.3043574746	-0.014016
O	 1.0838828137	-0.6834637645	 0.1427305462	-0.173699
H	 0.7534579032	 1.6911375657	-0.9822379603	 0.148089
H	-0.9749409532	 1.821803738	-0.6284372715	 0.157413
H	 0.2159847665	 1.9485329325	 0.680875966	 0.138972
H	-3.1244966804	-1.650272071	-0.2981821018	 0.161971
H	-3.0205743439	-0.2163600763	 0.7008146486	 0.163801
H	-1.0243443989	-3.1785353799	 0.2782689685	 0.114373
H	 1.6657253961	-2.6421443258	 0.4763298548	 0.139591
32.4347	83.1258	114.333	227.4034	242.9383	296.8947	373.7468	394.1297	473.3583	620.6152	645.1732	686.5801	740.2648	756.9492	820.7364	908.8866	931.0678	941.1895	969.0732	1062.1446	1076.4786	1138.9269	1178.6965	1233.7692	1251.8158	1266.5654	1341.6825	1418.0107	1442.1514	1460.741	1476.9037	1486.6352	1550.2976	1657.241	2361.2785	3027.8549	3032.6258	3077.0404	3089.6087	3142.1671	3250.1113	3287.5462
CC1=C(CC#N)C=CO1	Cc1c(CC#N)cco1	
InChI=1S/C7H7NO/c1-6-7(2-4-8)3-5-9-6/h3,5H,2H2,1H3	InChI=1S/C7H7NO/c1-6-7(2-4-8)3-5-9-6/h3,5H,2H2,1H3
