19
gdb 126824	2.30216	1.47237	0.96769	3.8206	78.4	-0.2115	0.0304	0.2419	1256.0733	0.161084	-415.416876	-415.407593	-415.406649	-415.45184	32.871	
C	-0.0876765451	 1.5601726666	-0.0101541871	-0.379004
C	 0.0267605859	 0.0342350387	-0.0402618089	-0.157944
N	 0.7401743556	-0.4599990196	-1.2010204101	-0.037468
N	 0.0911682533	-0.6587887991	-2.3938944034	-0.268544
C	 1.061664518	-1.1020431858	-3.1652093057	 0.025323
N	 2.2914941402	-1.1927845681	-2.5833552437	-0.354704
C	 2.0506779126	-0.7760085655	-1.3490095781	 0.473887
N	 2.964938767	-0.7249952684	-0.3209167061	-0.404199
C	 4.3618957401	-0.9834911096	-0.6529440306	-0.316374
H	 0.8980488691	 2.0351029305	 0.0328991418	 0.115909
H	-0.5972726693	 1.9161196575	-0.909046862	 0.1503
H	-0.6593897054	 1.8809582258	 0.8659628643	 0.122808
H	 0.5415274391	-0.3434294464	 0.8498501432	 0.120365
H	-0.9662339856	-0.4215491707	-0.0618464084	 0.141402
H	 0.8841178389	-1.3720121458	-4.196015304	 0.118145
H	 2.8304921718	 0.0453222428	 0.3170649633	 0.24411
H	 4.9420729451	-0.9981022367	 0.272576371	 0.119932
H	 4.4380271117	-1.9592998151	-1.135098562	 0.159352
H	 4.7877006169	-0.2378098011	-1.3371894035	 0.126703
42.4844	89.5616	131.0455	148.1967	194.9342	238.2917	287.3653	322.7477	407.1449	479.4951	560.7335	653.3078	673.2614	750.5072	793.5161	795.9896	902.23	972.4944	986.2371	1034.1344	1090.7081	1103.6857	1143.3821	1160.132	1208.498	1236.3483	1266.5871	1310.7565	1340.3824	1391.6854	1409.5012	1432.4269	1451.3226	1475.8446	1483.9568	1486.114	1491.7373	1506.2324	1515.0733	1568.4465	1612.6721	3017.548	3040.0379	3053.5057	3098.5978	3100.6921	3116.3351	3131.7412	3145.0421	3252.6619	3602.516
CCN1N=CN=C1NC	CCn1ncnc1NC	
InChI=1S/C5H10N4/c1-3-9-5(6-2)7-4-8-9/h4H,3H2,1-2H3,(H,6,7,8)	InChI=1S/C5H10N4/c1-3-9-5(6-2)7-4-8-9/h4H,3H2,1-2H3,(H,6,7,8)
