20
gdb 23603	2.84814	1.06886	0.81637	0.763	83.81	-0.2393	0.0088	0.2481	1420.5021	0.170157	-403.082544	-403.073451	-403.072507	-403.11714	33.995	
O	 0.032939919	 1.1640757	 0.1524282715	-0.394414
N	 0.0302336938	-0.2458529566	 0.1201594364	-0.23711
C	-1.14742701	-0.6931273076	-0.0031445293	 0.39903
C	-2.5256314984	-0.1001431325	-0.2122422316	-0.318641
C	-2.9972326382	-1.5223048208	-0.6492650809	-0.246556
C	-1.6337896494	-2.1279665815	-0.1579774894	-0.073391
C	-0.8779421825	-3.0579747126	-1.0681592962	 0.033144
C	 0.1926894884	-3.9654635678	-0.5195087234	-0.260941
C	-1.1134197449	-4.5483172825	-0.9983043303	-0.27932
H	 0.9727975862	 1.3606483749	 0.2268265292	 0.304768
H	-2.9828255756	 0.254929835	 0.7170859214	 0.12355
H	-2.5886610967	 0.703433677	-0.9500001213	 0.126945
H	-3.8973517138	-1.9087338256	-0.168561825	 0.102929
H	-3.1114670926	-1.6083678603	-1.7325126795	 0.1098
H	-1.7555491933	-2.5979871299	 0.8269657294	 0.084001
H	-0.6911067708	-2.6491315933	-2.0579388643	 0.079907
H	 1.0820439718	-4.1278744914	-1.1177317098	 0.112714
H	 0.3775586158	-3.9390549643	 0.5490705369	 0.114407
H	-1.80922486	-4.917295859	-0.2516455905	 0.108616
H	-1.1197362288	-5.1116308311	-1.9247833533	 0.110564
59.043	75.0374	110.5072	191.8106	225.1699	300.5092	338.9496	392.7949	399.896	484.6136	591.0559	688.0261	759.0318	766.4896	803.1946	828.7579	894.0943	914.343	934.7479	954.0567	980.3307	998.0559	1037.6516	1059.9854	1075.2058	1085.7581	1135.4776	1153.5788	1192.6367	1198.1478	1210.9304	1225.7824	1239.0639	1254.4006	1267.7938	1299.8674	1398.8438	1424.8501	1460.9673	1471.1555	1490.1802	1506.3094	1779.4833	3016.4637	3055.2107	3070.9653	3104.107	3128.5447	3130.1592	3135.5243	3139.4438	3208.5718	3224.3169	3818.4413
ON=C1CCC1C1CC1	ON=C1CC[C@H]1C1CC1	
InChI=1S/C7H11NO/c9-8-7-4-3-6(7)5-1-2-5/h5-6,9H,1-4H2	InChI=1S/C7H11NO/c9-8-7-4-3-6(7)5-1-2-5/h5-6,9H,1-4H2/t6-/m0/s1
