16
gdb 70955	3.40468	1.40978	1.20102	4.334	70.35	-0.2468	-0.0009	0.2459	1023.4732	0.124146	-437.782226	-437.77493	-437.773985	-437.813693	29.297	
O	 0.0994030001	 1.4160429808	 0.0216977783	-0.459079
C	 0.0716789314	 0.0424767182	-0.0120892051	 0.378238
C	 0.6523879944	-0.9321794217	-1.189321587	-0.365901
C	-0.0511648994	-1.8012557255	-0.1181151294	 0.317477
C	 0.6446320463	-0.9609337254	 1.0030841049	-0.337164
N	-0.9590548174	-2.8902033504	 0.2339642858	-0.419092
C	-1.9060772774	-1.9495372467	 0.7435467475	 0.336942
O	-2.8505534144	-2.0962289827	 1.4564343614	-0.317074
C	-1.22694304	-0.8122746723	-0.1182386544	-0.201369
H	 0.9779782257	 1.7038431862	 0.2939283457	 0.289708
H	 0.1695766201	-0.8468323422	-2.1632124927	 0.116558
H	 1.7414395103	-0.9945294096	-1.2679806218	 0.097136
H	 1.732477237	-1.039504974	 1.0706719485	 0.091762
H	 0.1659774263	-0.9834106063	 1.9854032462	 0.114209
H	-0.6951003494	-3.7286195989	 0.7401617908	 0.246393
H	-1.7586652436	-0.7195026494	-1.0684810587	 0.111257
149.8047	182.742	211.4522	327.0824	396.1888	440.751	489.1459	549.8953	564.7489	596.1233	639.8386	695.5306	743.1394	769.9928	825.327	914.2225	930.5041	979.1811	1000.368	1021.4691	1048.7078	1072.9559	1098.8217	1122.1947	1131.7109	1134.8666	1189.4202	1244.2685	1274.8802	1310.6818	1340.6296	1362.4674	1489.3218	1533.0519	1896.7022	3053.7225	3059.4237	3080.8896	3125.5883	3145.4214	3544.168	3806.221
OC12CC3(C1)NC(=O)C23	O[C@@]12C[C@]3(C1)NC(=O)[C@@H]23	
InChI=1S/C6H7NO2/c8-4-3-5(7-4)1-6(3,9)2-5/h3,9H,1-2H2,(H,7,8)	InChI=1S/C6H7NO2/c8-4-3-5(7-4)1-6(3,9)2-5/h3,9H,1-2H2,(H,7,8)/t3-,5-,6+/m1/s1
