23
gdb 122900	4.22387	0.55944	0.51344	1.3105	90.16	-0.2513	0.0415	0.2928	2216.0427	0.201707	-388.25486	-388.243292	-388.242348	-388.293451	40.584	
C	-0.0484641158	 1.5667862023	-0.0539353172	-0.379375
C	-0.0287495678	 0.0406188121	 0.0675004049	-0.166742
C	-1.4267394626	-0.5804068107	-0.0162170001	-0.177306
C	-1.4073148153	-2.0979751288	 0.1063854325	-0.055042
O	-2.7394193116	-2.5676874264	 0.0068332156	-0.25867
C	-2.8691174464	-3.9843501955	-0.0010604768	-0.035611
C	-2.8114997401	-4.5768260287	 1.4168514119	-0.394265
C	-4.1341063751	-4.3183455274	-0.658139728	 0.321101
C	-5.1717627408	-4.6252748414	-1.1794493727	-0.443848
H	 0.9609515448	 1.9851561453	 0.0072397733	 0.111404
H	-0.4830954498	 1.881399363	-1.0090755226	 0.116368
H	-0.6463724883	 2.0189598122	 0.7449514712	 0.11588
H	 0.6061983929	-0.3805356184	-0.7232892012	 0.096167
H	 0.4419046908	-0.2442259318	 1.0178997377	 0.095627
H	-2.0671377556	-0.1740896467	 0.7762181017	 0.105362
H	-1.9026071468	-0.3140081355	-0.9676873715	 0.106739
H	-0.7894587453	-2.5403364711	-0.6942294532	 0.085466
H	-0.9511180062	-2.3923609344	 1.0656056637	 0.086249
H	-2.0485352209	-4.4171369612	-0.5985825573	 0.092997
H	-2.9330410578	-5.6628960161	 1.3800693668	 0.127006
H	-1.8507833531	-4.354435077	 1.8891137263	 0.118176
H	-3.6131103285	-4.153819912	 2.0271241125	 0.135611
H	-6.0874975707	-4.886318862	-1.6495251475	 0.196705
21.1521	51.4826	86.7206	114.4699	129.7717	174.0537	205.8702	232.2115	252.0363	297.8597	348.6401	385.2469	475.6149	542.7456	578.4142	621.0206	666.7081	744.037	812.4446	830.3435	900.4199	926.5845	952.6272	1026.3239	1046.6394	1070.0465	1094.9585	1111.7503	1146.7215	1149.2875	1193.7264	1250.5109	1291.8008	1311.6089	1322.867	1342.0635	1356.7285	1389.157	1397.2545	1413.2648	1438.3977	1487.3915	1487.8995	1490.1868	1496.1811	1500.4553	1510.2061	1527.3283	2242.91	2949.7301	2957.2005	2982.7003	3013.2524	3029.5764	3034.1913	3039.3751	3048.2554	3076.1509	3098.6647	3103.1099	3122.4164	3134.0256	3504.2547
CCCCOC(C)C#C	CCCCO[C@@H](C)C#C	
InChI=1S/C8H14O/c1-4-6-7-9-8(3)5-2/h2,8H,4,6-7H2,1,3H3	InChI=1S/C8H14O/c1-4-6-7-9-8(3)5-2/h2,8H,4,6-7H2,1,3H3/t8-/m0/s1
