14
gdb 10788	4.87188	1.62306	1.28456	1.6989	59.78	-0.2539	0.0086	0.2625	892.4977	0.109157	-415.899815	-415.892838	-415.891894	-415.931386	25.539	
N	-0.0497730885	 1.0429736684	-0.8343980069	-0.512211
C	 0.0183837426	 0.0715817013	-0.0295161924	 0.416475
C	-1.2387387384	-0.5795411868	 0.5056561754	-0.261834
N	-1.0419921482	-2.008428356	 0.6894418756	-0.314117
C	 0.0875136786	-2.5046152404	 1.2623785332	 0.390422
O	 0.2369692376	-3.6540010759	 1.6213105901	-0.360076
C	 1.178265256	-1.4485432993	 1.4282000669	-0.203159
O	 1.1972222493	-0.4500996599	 0.4006545133	-0.238817
H	 0.8867313031	 1.3823643358	-1.0630922666	 0.227489
H	-1.5253443526	-0.084251439	 1.4468214356	 0.13647
H	-2.0374773763	-0.399982345	-0.2128324567	 0.161004
H	-1.8285631783	-2.6366477502	 0.617220509	 0.261162
H	 1.0679650562	-0.9714983601	 2.4124631809	 0.137409
H	 2.1468167289	-1.9461170329	 1.3959315325	 0.159783
73.4635	152.893	180.919	400.1138	409.0369	432.8026	490.2981	547.2079	575.2256	639.4908	782.8055	796.2725	876.2812	919.9086	1002.7823	1009.0244	1036.1077	1101.7174	1156.4429	1249.4392	1253.1117	1291.6631	1340.2924	1384.169	1401.8442	1462.5813	1483.8382	1506.6279	1764.2798	1817.9657	2982.5692	3014.5155	3141.5116	3147.782	3469.5905	3619.7612
N=C1CNC(=O)CO1	[NH][C]1CNC(=O)CO1	
InChI=1S/C4H6N2O2/c5-3-1-6-4(7)2-8-3/h5H,1-2H2,(H,6,7)	InChI=1S/C4H6N2O2/c5-3-1-6-4(7)2-8-3/h5H,1-2H2,(H,6,7)
