16
gdb 78890	2.69552	2.15207	1.50221	0.2299	65.33	-0.2303	0.0602	0.2904	868.0017	0.125174	-437.807878	-437.801029	-437.800085	-437.838683	28.276	
O	-0.0275195199	 1.4229424685	 0.0391646201	-0.446146
C	 0.0328327481	 0.0062567591	-0.0416127756	 0.063237
C	 0.6125429641	-0.6954533017	 1.1606843614	-0.118386
C	 0.0083396065	-2.0413203748	 1.3251217498	-0.047604
C	-1.3145914931	-2.0173412988	 0.5335541777	-0.164463
C	-1.7256504512	-0.8715201475	 1.4317828837	-0.116969
N	-0.4368697638	-0.9271299859	 2.2221581622	-0.16826
C	-1.3508414641	-0.6174336045	-0.0195754938	 0.370346
O	-2.2929523947	-0.2767342883	-0.9688179151	-0.480342
H	-0.3417462894	 1.645083373	 0.9242129532	 0.291486
H	 0.5773119791	-0.2219309327	-0.9629917096	 0.104627
H	 1.5994669471	-0.4592711972	 1.5403676524	 0.106868
H	 0.5199999275	-2.9165798259	 1.7090209857	 0.102166
H	-1.8844760433	-2.8491772246	 0.1462214848	 0.107592
H	-2.6676730298	-0.6249279228	 1.9019706771	 0.104932
H	-2.2878224229	 0.6882011441	-1.0201584641	 0.290917
171.1967	208.6601	314.927	361.9355	373.4435	433.999	547.2453	576.6913	610.5025	717.7664	744.4251	784.0699	796.7184	807.8378	863.1446	915.5387	939.0957	953.9381	961.2681	984.5922	1036.3308	1050.5178	1068.8294	1094.7084	1145.8119	1159.9599	1221.4974	1232.4807	1263.2574	1279.7291	1292.0834	1349.3552	1366.071	1429.9034	1454.1361	3077.9064	3172.5005	3193.6612	3208.9776	3227.2621	3765.4426	3787.7352
OC1C2C3C4C(N23)C14O	O[C@H]1[C@@H]2[C@@H]3[C@H]4[C@@H](N23)[C@@]14O	
InChI=1S/C6H7NO2/c8-5-3-2-1-4(7(2)3)6(1,5)9/h1-5,8-9H	InChI=1S/C6H7NO2/c8-5-3-2-1-4(7(2)3)6(1,5)9/h1-5,8-9H/t1-,2-,3-,4+,5-,6+,7?/m0/s1
