21
gdb 52411	7.24322	0.474	0.46931	2.9342	81.75	-0.251	-0.0216	0.2293	2312.7143	0.179672	-424.210293	-424.200012	-424.199068	-424.247654	35.567	
O	-0.2553972434	 0.0351930117	-0.4010092427	-0.235497
C	 0.0911114232	 1.1418473542	-0.0796878754	 0.16105
C	 1.4406334718	 1.7528992186	-0.3820920382	-0.275865
C	 1.3063637424	 3.1082169308	-1.0942959105	-0.210564
C	 2.6540742964	 3.7861296066	-1.3028711163	-0.052085
O	 2.4295211151	 5.0238180305	-1.951824543	-0.250494
C	 3.6015750783	 5.7292572596	-2.2158928406	 0.147098
C	 4.3949810006	 5.4012910722	-3.4561198692	-0.287268
C	 3.56497057	 6.6686184566	-3.3752008507	-0.286658
H	-0.5964663691	 1.8157903977	 0.4849921524	 0.071698
H	 1.9545804098	 1.899149077	 0.5800746761	 0.120131
H	 2.0230643914	 1.0368829922	-0.9694381651	 0.123843
H	 0.8239233995	 2.9747434625	-2.0689739243	 0.121753
H	 0.6627083256	 3.7789992879	-0.5126426102	 0.114793
H	 3.1547399638	 3.9468852271	-0.3326338822	 0.086388
H	 3.319179933	 3.1504365752	-1.9085444768	 0.094728
H	 4.154067702	 6.028202964	-1.3236182289	 0.082297
H	 5.476203353	 5.4773319522	-3.4228208961	 0.113458
H	 4.0117935251	 4.6055201854	-4.0851335634	 0.119446
H	 2.6439236627	 6.6916016466	-3.9461398152	 0.126653
H	 4.0698688888	 7.6235467815	-3.2843813396	 0.115095
38.655	56.6152	72.4806	95.0975	122.6133	150.6231	231.6692	284.0769	375.8535	431.0788	494.2292	529.5762	753.7142	759.4254	812.7022	819.5229	836.478	925.643	962.2157	975.0419	1007.8955	1045.9428	1053.8511	1072.7745	1091.9148	1122.4012	1130.5046	1156.0124	1193.4987	1203.3158	1217.8323	1244.4905	1261.5716	1289.9298	1314.7462	1354.5162	1383.3333	1428.9334	1440.6068	1453.1998	1464.7485	1497.8965	1499.1249	1526.4043	1838.8702	2849.6158	2957.1012	2995.0219	3005.6549	3038.4161	3077.926	3087.1724	3099.2225	3135.9747	3143.1054	3220.5957	3235.5358
O=CCCCOC1CC1	O=CCCCOC1CC1	
InChI=1S/C7H12O2/c8-5-1-2-6-9-7-3-4-7/h5,7H,1-4,6H2	InChI=1S/C7H12O2/c8-5-1-2-6-9-7-3-4-7/h5,7H,1-4,6H2
