21
gdb 75011	3.18939	1.30931	1.13451	1.8632	83.5	-0.2371	0.0242	0.2613	1175.4509	0.184968	-387.121667	-387.11361	-387.112666	-387.154495	31.484	
C	-0.0227545448	 1.496463489	-0.142090127	-0.487359
C	 0.0396492616	 0.0021990831	-0.0891338508	 0.326859
C	-0.1600184639	-0.8534527649	-1.0931494142	-0.192016
C	-0.0107109957	-2.2957422943	-0.685756424	 0.075599
O	 1.0595221961	-2.9681228182	-1.363876717	-0.260481
C	 2.2342197698	-2.7793353189	-0.5895509838	-0.08296
C	 1.7627853234	-2.8977034009	 0.8658850997	-0.226438
C	 0.3705874016	-2.2272361714	 0.8324446979	-0.045925
C	 0.3449645899	-0.7213006495	 1.2051787724	-0.315022
H	 0.9281314831	 1.9415523075	 0.1775981295	 0.125523
H	-0.248393973	 1.8584898552	-1.1485047523	 0.125361
H	-0.7898027934	 1.8840793158	 0.5406449706	 0.125376
H	-0.3911037622	-0.5730370437	-2.115490028	 0.087924
H	-0.9097775015	-2.8859439504	-0.8951789037	 0.075056
H	 2.9572917623	-3.5436276615	-0.8868884393	 0.104151
H	 2.6799930564	-1.7895837661	-0.778811237	 0.087731
H	 1.6679564814	-3.9542374691	 1.1342699664	 0.103857
H	 2.4459128424	-2.4285810006	 1.5790644324	 0.095778
H	-0.3382753729	-2.7843143526	 1.4472157065	 0.074674
H	 1.2951153414	-0.3793474246	 1.6382285269	 0.099024
H	-0.4196039019	-0.505849674	 1.9635033147	 0.103289
69.7155	120.9568	178.1071	242.7706	283.8911	400.6624	404.7202	482.161	561.9142	608.0446	635.0903	792.1072	819.0228	846.7216	878.0548	887.0714	916.3947	944.5093	952.8367	978.3418	1016.8512	1033.6038	1053.8719	1065.6052	1093.3123	1117.9288	1170.7892	1195.8786	1209.1779	1237.7903	1266.8705	1289.2223	1304.8217	1315.4961	1344.6469	1351.58	1362.7398	1390.3586	1413.5694	1479.4066	1480.6758	1486.9779	1492.5303	1515.434	1723.889	2975.7443	3008.3368	3018.2245	3031.7797	3040.1757	3052.8221	3063.1704	3088.4267	3090.6343	3105.1831	3113.2862	3187.7667
CC1=CC2OCCC2C1	CC1=C[C@H]2OCC[C@H]2C1	
InChI=1S/C8H12O/c1-6-4-7-2-3-9-8(7)5-6/h5,7-8H,2-4H2,1H3	InChI=1S/C8H12O/c1-6-4-7-2-3-9-8(7)5-6/h5,7-8H,2-4H2,1H3/t7-,8+/m0/s1
