16
gdb 25623	3.47479	0.99303	0.77681	1.8068	89.22	-0.1824	0.0003	0.1826	1440.2662	0.124233	-400.756504	-400.747513	-400.746568	-400.791655	32.167	
C	-0.0868514733	 1.4472031882	-0.0038845545	-0.511704
C	-0.0225804415	-0.0049253365	-0.0222859302	 0.244783
C	 0.0167677822	-1.2137397634	-0.0461019054	-0.142894
C	 0.1135749573	-2.6093673124	-0.063949108	 0.184739
C	 1.2108290138	-3.4415441389	-0.0120017682	 0.093124
N	 2.5480504405	-3.0563145795	 0.0025490947	-0.62004
C	 0.7053400453	-4.779361007	-0.0595396242	-0.215622
C	-0.6479526486	-4.6654043211	-0.140561833	-0.032933
O	-1.035544952	-3.3756811451	-0.1507663496	-0.183734
H	 0.5781901613	 1.8898624524	-0.7546295739	 0.148244
H	-1.104044843	 1.7894042868	-0.2251425503	 0.155345
H	 0.1928510467	 1.8577544002	 0.9736580403	 0.145629
H	 2.6729068812	-2.0868189761	 0.2645569815	 0.249687
H	 3.1400669878	-3.6556486858	 0.5612171928	 0.246652
H	 1.2780738794	-5.6936631886	-0.0448918557	 0.107637
H	-1.4404232871	-5.394170993	-0.1972987964	 0.131088
23.0523	81.1928	105.1642	237.4571	260.6445	286.6232	314.9137	376.1608	471.6843	479.713	563.9977	611.9161	665.8912	700.4505	735.3264	767.5289	810.6733	899.0946	985.2662	1046.3956	1051.6774	1053.7355	1081.129	1157.2593	1216.9987	1320.5052	1328.1265	1412.0452	1471.8974	1479.3006	1486.8135	1530.3443	1633.1017	1666.0537	2335.5949	3019.2728	3073.9231	3086.0174	3250.4558	3277.458	3540.5168	3636.6426
CC#CC1=C(N)C=CO1	CC#Cc1c(N)cco1	
InChI=1S/C7H7NO/c1-2-3-7-6(8)4-5-9-7/h4-5H,8H2,1H3	InChI=1S/C7H7NO/c1-2-3-7-6(8)4-5-9-7/h4-5H,8H2,1H3
