18
gdb 12484	3.26734	1.85564	1.30629	2.891	67.6	-0.2328	-0.0171	0.2157	945.6445	0.155069	-384.95821	-384.950669	-384.949725	-384.990418	28.325	
O	-0.0759884716	 0.5962971835	 1.4333756556	-0.298768
C	-0.1243064829	 1.3733914721	 0.5074981777	 0.365108
C	-1.4533203994	 1.9511739643	 0.0291914526	-0.305093
C	-1.6428920039	 2.0062869594	-1.4989662053	-0.199405
C	-0.9807567738	 3.2138974296	-2.1800966419	-0.201318
C	 0.4468074904	 3.4765565516	-1.6783827974	-0.070665
O	 1.1624199271	 2.2674948272	-1.4727565633	-0.236391
C	 1.1989349537	 1.8193141812	-0.1389160721	-0.17994
H	-2.227326005	 1.3427979209	 0.5039616759	 0.125197
H	-1.547148924	 2.9624410209	 0.452746669	 0.118503
H	-1.2532431778	 1.0834157611	-1.9404278082	 0.117723
H	-2.7155378602	 2.0211339681	-1.7178395048	 0.105178
H	-0.9657421274	 3.0433089517	-3.2619593885	 0.107868
H	-1.5765752551	 4.1208415383	-2.0144142984	 0.098661
H	 1.0062536565	 4.0639493921	-2.4148350689	 0.108981
H	 0.4294999764	 4.0621342652	-0.7471845322	 0.090185
H	 1.6216713755	 2.5948259015	 0.5257921197	 0.115134
H	 1.8766407612	 0.9627553012	-0.1051752197	 0.139042
55.7542	137.5321	229.3164	272.7565	341.0139	367.7172	451.4337	484.0584	551.9489	624.0709	719.3537	805.0991	828.0744	850.0121	914.7215	975.4836	1007.3035	1015.4962	1087.2173	1108.1901	1151.44	1200.5975	1200.7431	1251.5869	1279.0082	1295.3178	1319.8584	1343.4157	1368.323	1375.2743	1384.1258	1415.962	1456.0232	1462.2537	1483.044	1496.9561	1509.3844	1802.8799	2946.6329	2990.1227	3009.6727	3026.8348	3046.6777	3057.5092	3074.1714	3088.4047	3098.6895	3106.1598
O=C1CCCCOC1	O=C1CCCCOC1	
InChI=1S/C6H10O2/c7-6-3-1-2-4-8-5-6/h1-5H2	InChI=1S/C6H10O2/c7-6-3-1-2-4-8-5-6/h1-5H2
