19
gdb 108647	2.06854	1.56742	0.93783	3.4139	80.43	-0.2344	-0.04	0.1944	1250.1181	0.158525	-423.07333	-423.063915	-423.062971	-423.108044	34.015	
C	 0.0098678292	 1.4284137293	-0.0791308975	-0.502691
C	 0.0120839827	-0.0656270039	-0.1087244116	 0.221609
C	-0.0984194674	-0.8680346194	-1.1871403501	 0.065261
C	-0.2702100184	-0.5044612815	-2.6381723165	-0.190401
O	-1.1833588144	 0.5649355744	-2.8749096872	-0.406338
C	-0.04176607	-2.2898540331	-0.7725664815	 0.339235
O	-0.1402103672	-3.2531473086	-1.5016169525	-0.342017
C	 0.1563082162	-2.3275126913	 0.7476689736	-0.336857
C	 0.1619461608	-0.8520405296	 1.1784132257	-0.304936
H	 0.9929852374	 1.800777203	 0.2382397017	 0.134878
H	-0.2375468457	 1.850522791	-1.0528459536	 0.161103
H	-0.7092347651	 1.7980911195	 0.6626988676	 0.129565
H	 0.6820114751	-0.1676001264	-3.0635174385	 0.123734
H	-0.5591429797	-1.4140799314	-3.1816699501	 0.124611
H	-2.0470126719	 0.2798544451	-2.5590685679	 0.282988
H	-0.6451839934	-2.912857677	 1.2070000483	 0.131818
H	 1.0934706304	-2.8438698473	 0.9760595787	 0.133693
H	 1.0846126887	-0.5627883057	 1.697124626	 0.117704
H	-0.6557768373	-0.611533157	 1.8697247654	 0.11704
59.7801	90.869	129.9262	155.2024	200.1113	245.1514	302.8935	338.8798	379.3016	476.5433	521.7673	573.5198	617.6994	649.823	731.928	827.1925	897.478	955.5533	966.7242	1000.9176	1014.819	1063.7607	1081.4761	1096.1125	1159.9931	1188.9245	1210.0743	1234.1637	1268.7041	1301.5058	1335.0136	1392.9483	1406.5245	1417.1661	1452.9151	1472.9292	1482.5025	1496.9898	1505.1055	1697.1479	1798.2981	3018.8865	3020.519	3026.1747	3049.3086	3064.2827	3065.0005	3066.1045	3106.0735	3155.3797	3814.3248
CC1=C(CO)C(=O)CC1	CC1=C(CO)C(=O)CC1	
InChI=1S/C7H10O2/c1-5-2-3-7(9)6(5)4-8/h8H,2-4H2,1H3	InChI=1S/C7H10O2/c1-5-2-3-7(9)6(5)4-8/h8H,2-4H2,1H3
