18
gdb 106157	2.54767	1.5428	1.24083	2.6038	71.61	-0.2239	0.066	0.2899	1059.5188	0.147781	-438.993435	-438.985247	-438.984303	-439.026355	31.539	
O	 0.0964254789	 1.3168116698	 0.2949502507	-0.413302
C	 0.0438979381	-0.0642352059	-0.0337216222	-0.22151
C	-1.3460990418	-0.5906750079	 0.0199553933	 0.321683
C	-2.3659214848	-0.8967567414	 1.0904075111	-0.200681
C	-3.3021755094	 0.1133306075	 0.4644768692	-0.180538
N	-2.5091813711	-0.0081794762	-0.8291036352	-0.219569
C	-2.8271694253	-1.4308136463	-1.2581780518	-0.238283
C	-2.0443634195	-1.9098088999	-0.0464267638	 0.296161
O	-1.47951975	-3.1419448942	 0.1997699596	-0.462599
H	-0.4815627412	 1.766699209	-0.332196551	 0.292296
H	 0.4750318009	-0.2492934381	-1.0305488219	 0.098535
H	 0.6685582497	-0.5897814316	 0.6956459589	 0.12432
H	-2.1819232667	-1.1589358827	 2.1256312365	 0.094159
H	-4.3682616397	-0.1203659507	 0.3623414852	 0.095371
H	-3.1837205425	 1.1215479414	 0.8695078702	 0.114347
H	-3.8969672405	-1.6507960179	-1.3528393737	 0.094601
H	-2.3169542641	-1.653015821	-2.1990210084	 0.114449
H	-2.1251744109	-3.6916137841	 0.6577858232	 0.290561
63.5338	117.0592	220.2809	265.036	305.3768	361.7435	381.836	407.278	475.4642	581.2891	609.4771	668.4061	702.4498	810.2137	846.3696	902.358	924.4376	928.2851	958.9315	1007.2494	1035.4995	1051.0603	1089.6505	1093.6107	1146.2191	1159.3365	1187.1526	1224.0935	1237.0139	1246.7087	1284.1121	1310.478	1355.0424	1376.0893	1416.7663	1489.3547	1494.0348	1505.9587	1528.137	2977.1088	3029.6363	3038.5336	3080.3142	3097.6168	3102.7492	3185.7132	3792.5997	3796.5945
OCC12C3CN1CC23O	OC[C@@]12[C@H]3CN1C[C@@]23O	
InChI=1S/C6H9NO2/c8-3-5-4-1-7(5)2-6(4,5)9/h4,8-9H,1-3H2	InChI=1S/C6H9NO2/c8-3-5-4-1-7(5)2-6(4,5)9/h4,8-9H,1-3H2/t4-,5+,6+/m1/s1
