21
gdb 115802	4.09345	1.06961	0.94751	2.1928	79.1	-0.2502	0.0914	0.3416	1330.1876	0.181427	-424.226015	-424.21683	-424.215886	-424.25984	34.447	
C	-0.2755577648	 1.4661262666	 0.0282689937	-0.382828
C	-0.0759873157	-0.0515966837	 0.0237235048	-0.185855
C	 0.7988651554	-0.5429714125	 1.173049146	 0.12143
O	 0.192253145	-0.1626272595	 2.4135588639	-0.274433
C	 0.4508263502	-1.1409366883	 3.4092899494	-0.135306
C	 0.7424490394	-2.4350020366	 2.6683008532	 0.39602
C	 1.3494415018	-3.6157051759	 3.37083063	-0.491362
O	-0.2591535162	-2.7034941836	 1.6707635636	-0.290836
C	 0.9525822139	-2.0481056737	 1.2708662752	-0.074944
H	 0.6802897524	 1.9929197098	-0.0724657935	 0.108138
H	-0.9175291429	 1.7791345523	-0.8006019127	 0.109321
H	-0.7394995804	 1.7892400983	 0.9633381413	 0.137771
H	-1.0404111973	-0.5650659129	 0.0967285523	 0.117931
H	 0.3893945821	-0.3674547594	-0.9189117914	 0.090204
H	 1.807871048	-0.0981877714	 1.092081084	 0.06321
H	 1.3217831351	-0.8692216626	 4.0290126084	 0.089753
H	-0.4295072299	-1.2047860524	 4.0585729558	 0.113916
H	 0.6784874421	-3.9887701413	 4.1523756977	 0.132275
H	 1.5297944027	-4.4290275576	 2.6641024467	 0.135303
H	 2.2984560234	-3.343726196	 3.844427789	 0.125571
H	 1.5941046256	-2.5913074395	 0.5811887227	 0.09472
84.5354	120.7763	165.2265	176.0862	214.5327	240.4023	296.048	342.7253	401.4403	442.1899	515.6185	600.2298	699.4096	763.4247	811.8279	862.6806	868.8358	917.3859	941.2534	971.1013	996.962	1026.7112	1053.4784	1068.0296	1093.5808	1131.9297	1133.1747	1163.6182	1236.366	1254.5693	1288.8454	1291.3042	1317.6668	1350.0313	1372.3462	1405.593	1408.4045	1413.7093	1467.3318	1478.805	1489.8249	1497.4077	1499.424	1505.9179	1508.858	2934.9297	2967.9747	3028.3468	3035.6903	3037.6642	3062.3389	3079.0504	3099.2431	3102.0709	3126.598	3126.8783	3146.8714
CCC1OCC2(C)OC12	CC[C@H]1OC[C@@]2(C)O[C@@H]12	
InChI=1S/C7H12O2/c1-3-5-6-7(2,9-6)4-8-5/h5-6H,3-4H2,1-2H3	InChI=1S/C7H12O2/c1-3-5-6-7(2,9-6)4-8-5/h5-6H,3-4H2,1-2H3/t5-,6+,7-/m1/s1
