18
gdb 121551	5.90932	0.45337	0.45187	4.0717	83.13	-0.2624	0.013	0.2754	2419.4281	0.144823	-401.920715	-401.91013	-401.909186	-401.959259	35.135	
C	-0.0843491626	 1.4737396798	 0.3971982871	-0.38734
C	-0.0443117377	 0.0141202143	-0.0188888759	-0.019521
O	-1.3675820647	-0.4916161362	-0.0025657491	-0.241495
C	-1.4278471646	-1.8516236236	-0.3749095022	-0.204737
C	-2.8068612181	-2.3219196198	-0.3260583782	 0.0264
C	-3.9359420451	-2.7306466648	-0.2886483614	 0.153933
C	-5.3143322995	-3.2104879323	-0.2459094141	-0.475791
C	-5.5380984755	-4.2414642258	 0.776963232	 0.27964
N	-5.7271371819	-5.0544901273	 1.5744953273	-0.299709
H	 0.9245404114	 1.8967239407	 0.3955264924	 0.117699
H	-0.7055177186	 2.0521507285	-0.2922662149	 0.129973
H	-0.502477669	 1.5740809178	 1.4025431317	 0.131684
H	 0.389258354	-0.0918562712	-1.0279876656	 0.088456
H	 0.592115702	-0.569625748	 0.6676350217	 0.090291
H	-1.0232482547	-1.9957967126	-1.3921431558	 0.118126
H	-0.8078674619	-2.4692693453	 0.2982084399	 0.123315
H	-5.9988543371	-2.3758108168	-0.0469845432	 0.186827
H	-5.6111468963	-3.6233481474	-1.2186484918	 0.182248
12.207	58.1517	75.515	97.4551	115.2694	218.3355	239.9736	255.2398	324.9151	371.4774	384.6733	402.7184	515.0197	583.464	811.3884	822.4671	906.7385	930.1468	935.1988	1026.8016	1035.0558	1133.0239	1147.2992	1177.7595	1188.3183	1234.6452	1254.778	1295.5337	1337.8907	1379.1575	1406.2118	1445.2751	1448.3363	1482.9869	1495.949	1501.1769	1531.5257	2370.9823	2389.1539	2945.7723	2957.7659	2965.4059	2980.2473	3027.2024	3046.9833	3057.7345	3121.5748	3124.855
CCOCC#CCC#N	CCOCC#CCC#N	
InChI=1S/C7H9NO/c1-2-9-7-5-3-4-6-8/h2,4,7H2,1H3	InChI=1S/C7H9NO/c1-2-9-7-5-3-4-6-8/h2,4,7H2,1H3
