21
gdb 72634	2.22618	1.30361	1.16234	3.5705	85.46	-0.2408	-0.0159	0.2248	1217.3493	0.180734	-387.085362	-387.075874	-387.07493	-387.119304	35.603	
C	 0.0028067238	 1.5853911528	 0.0339478219	-0.499787
C	 0.0842546724	 0.0838738616	 0.0757706251	 0.277794
C	 0.529928552	-0.7865210318	-1.10971424	-0.277703
C	 1.2004674234	-1.7756453913	-0.1035779079	-0.277722
C	 0.7368548179	-0.8783599095	 1.0546401818	 0.277818
C	 1.5249979647	-0.6589206854	 2.3170204466	-0.499793
C	-0.7943986249	-0.8056805299	 0.9670556474	-0.185471
C	-1.5562223188	-0.1952362671	 2.0751122215	 0.138539
O	-2.647986392	-0.5760165992	 2.4288526792	-0.276712
H	 0.907708602	 2.0026789421	-0.4219648998	 0.120517
H	-0.8529178732	 1.9172585771	-0.5656432651	 0.130844
H	-0.099814424	 2.0291485723	 1.027812912	 0.124223
H	-0.2691746992	-1.1818924659	-1.7444071889	 0.103029
H	 1.262629285	-0.2814014035	-1.7448034742	 0.105054
H	 0.8318163544	-2.8060337724	-0.0922193886	 0.103043
H	 2.2888888724	-1.7953121037	-0.204963908	 0.105041
H	 2.5752015476	-0.4557058257	 2.0790903095	 0.120519
H	 1.1516517925	 0.1836287427	 2.905188446	 0.124224
H	 1.4971199821	-1.5474287236	 2.958648092	 0.130844
H	-1.3298140591	-1.6353298907	 0.5084678024	 0.090503
H	-1.0676785791	 0.6609370613	 2.5909362373	 0.065195
90.4759	139.8	168.9769	181.3333	213.5718	219.1244	291.3579	308.8485	365.1535	445.8344	457.069	491.1033	603.128	680.427	684.2535	789.381	880.3733	918.7271	944.9543	987.3533	994.7874	1031.2358	1038.4504	1063.9645	1110.6068	1111.9223	1175.3649	1176.0493	1216.1417	1216.3613	1234.9808	1240.8919	1318.024	1319.3139	1415.109	1417.777	1425.2763	1453.24	1476.7463	1487.4537	1490.1248	1495.2464	1499.1621	1512.6751	1804.5414	2876.271	3027.4023	3028.9812	3045.4221	3052.7352	3084.0604	3084.958	3090.853	3109.0893	3110.5132	3113.1967	3122.9409
CC12CCC1(C)C2C=O	C[C@@]12CC[C@]1(C)[C@H]2C=O	
InChI=1S/C8H12O/c1-7-3-4-8(7,2)6(7)5-9/h5-6H,3-4H2,1-2H3	InChI=1S/C8H12O/c1-7-3-4-8(7,2)6(7)5-9/h5-6H,3-4H2,1-2H3/t6-,7-,8+
