20
gdb 113497	3.46274	0.97088	0.87558	2.7784	82.01	-0.2533	0.0274	0.2807	1408.0215	0.170679	-403.139886	-403.130838	-403.129894	-403.174021	33.619	
C	-0.2939849618	 1.5226056318	 0.1691369172	-0.372449
C	 0.2424473131	 0.1063287274	-0.0695735858	-0.202916
C	 0.8723782781	-0.4945995556	 1.1699871135	-0.049604
C	 0.0299420145	-1.2153541025	 2.1887543153	-0.346527
C	 0.9883150733	-1.9881392811	 1.3234672987	 0.179009
C	 0.7559334596	-3.1212510273	 0.3287285379	-0.154789
O	 1.9584354393	-3.7836402704	 0.84254628	-0.268802
C	 2.1802935477	-2.7661780804	 1.7573591086	 0.393453
N	 3.0825248657	-2.6108100591	 2.6145936741	-0.565337
H	 0.5083241786	 2.1989863695	 0.4824242754	 0.120747
H	-0.7414807782	 1.9337353953	-0.7408197156	 0.114286
H	-1.0568991277	 1.5274100673	 0.9542780495	 0.120926
H	-0.5738913244	-0.54198207	-0.4140012971	 0.093838
H	 0.9809774881	 0.1257770221	-0.881366068	 0.104926
H	 1.7214007469	 0.056109267	 1.5686601073	 0.110333
H	 0.282993669	-1.12604862	 3.2394414041	 0.137909
H	-1.0293149289	-1.3331751779	 1.9787288961	 0.115996
H	-0.1292128981	-3.7429488646	 0.4884754836	 0.120347
H	 0.8683871366	-2.8786556846	-0.7315895417	 0.121009
H	 3.7470589985	-3.3852450866	 2.6082839869	 0.227647
78.1966	102.0563	135.0041	162.374	230.5348	249.8658	281.0647	378.0933	415.7446	525.8446	610.6073	682.6866	764.227	788.5281	820.8189	843.9477	878.0154	919.4533	940.7451	958.3984	982.2404	1000.32	1049.409	1060.0959	1085.0099	1107.6055	1132.4273	1146.2929	1183.1555	1198.5917	1250.6266	1297.0204	1314.4695	1345.4248	1379.3414	1411.6553	1437.9926	1485.6737	1495.7564	1497.9851	1507.8755	1515.0169	1825.1037	3016.2016	3035.2163	3047.797	3053.0062	3104.172	3108.5267	3109.1285	3124.0111	3140.3861	3217.0825	3488.4986
CCC1CC11COC1=N	CC[C@H]1C[C@]21CO[C]2[NH]	
InChI=1S/C7H11NO/c1-2-5-3-7(5)4-9-6(7)8/h5,8H,2-4H2,1H3	InChI=1S/C7H11NO/c1-2-5-3-7(5)4-9-6(7)8/h5,8H,2-4H2,1H3/t5-,7+/m0/s1
