17
gdb 20262	4.02984	2.74737	2.48016	1.6653	69.15	-0.235	0.1025	0.3375	658.0407	0.147153	-326.697403	-326.692455	-326.69151	-326.72604	22.096	
C	-0.0672960313	 1.5578872728	 0.0435049134	-0.230169
C	 1.4866043552	 1.4565562032	 0.0012057715	-0.057359
C	 1.8234548408	 0.7041914265	 1.3064507332	-0.039426
C	 0.7682936199	-0.3468390122	 1.2975200283	-0.039426
C	 0.0283632459	 0.0040133265	-0.0111405619	-0.057359
C	 1.3136128737	 0.1794660264	-0.8863305417	-0.039583
C	 2.3279009925	-0.8428561805	-0.4095012738	-0.176548
N	 2.1836367841	-0.7104461603	 1.051273253	-0.131443
H	-0.5290684081	 2.0139852986	 0.9241965376	 0.093371
H	-0.4918994573	 1.9918911864	-0.866718402	 0.094889
H	 2.1238756194	 2.2922979203	-0.2863339486	 0.06316
H	 2.2342621715	 1.1850923242	 2.1848614155	 0.089002
H	 0.2783500229	-0.7631566494	 2.1683063071	 0.089002
H	-0.8073689388	-0.6274949426	-0.3111519666	 0.06316
H	 1.1626465036	 0.3400868146	-1.9521432214	 0.072389
H	 2.0937353647	-1.8679309184	-0.7165728878	 0.10317
H	 3.3564501412	-0.6101540462	-0.7058816157	 0.103171
382.2344	420.2004	506.883	674.9556	691.9328	758.4165	781.6359	823.956	834.4714	859.0709	871.4	884.0945	917.6254	934.7808	974.6916	977.9231	1015.3878	1021.5457	1041.1199	1056.6318	1069.2746	1088.8487	1122.943	1171.09	1213.1402	1216.399	1227.6928	1230.3358	1245.3139	1252.6694	1297.167	1305.3456	1309.5977	1366.4264	1494.035	1507.1626	3042.1682	3047.3251	3088.6537	3102.7851	3117.0672	3117.3793	3141.2797	3189.6557	3200.1011
C1C2C3C4C1C2CN34	C1[C@H]2[C@H]3[C@H]4[C@@H]1[C@@H]2CN34	
InChI=1S/C7H9N/c1-3-5-2-8-6(3)7(8)4(1)5/h3-7H,1-2H2	InChI=1S/C7H9N/c1-3-5-2-8-6(3)7(8)4(1)5/h3-7H,1-2H2/t3-,4+,5-,6+,7-,8?
