21
gdb 83950	2.20402	1.64918	1.38826	1.3411	77.53	-0.2412	0.0775	0.3187	1065.0129	0.183744	-424.209024	-424.200521	-424.199577	-424.242027	33.11	
C	-0.1580802251	 1.5846741358	-0.0054213805	-0.443964
C	 0.0494507435	 0.0778158246	 0.0025077906	 0.05153
C	 1.0844623864	-0.6075607573	-0.942681234	-0.114601
C	 2.3961404844	 0.174131003	-0.9514510227	-0.070333
O	 2.9623878591	 0.3189116753	 0.3490954972	-0.278316
C	 2.1082230039	 0.1455128564	 1.4788124433	-0.075139
C	 0.8389385465	-0.6335622515	 1.1465644172	-0.077389
C	 1.1992805048	-1.7370581471	 0.1236960953	 0.153718
O	 0.1664426986	-2.7019395331	 0.0743364387	-0.455315
H	 0.7756204345	 2.1427862074	 0.1089152268	 0.12774
H	-0.6218819656	 1.9075361092	-0.9444624727	 0.113831
H	-0.825314042	 1.8883285694	 0.8091657391	 0.115652
H	-0.910244738	-0.4298869944	-0.1139103479	 0.086898
H	 0.7803797819	-0.8728074642	-1.9606277563	 0.0554
H	 3.1477380191	-0.3538389249	-1.5530515143	 0.098749
H	 2.2459635111	 1.1627517433	-1.4117101096	 0.093846
H	 2.7006708715	-0.3964732067	 2.2269553505	 0.10294
H	 1.8492933346	 1.1238198165	 1.9112466472	 0.094208
H	 0.3059823884	-0.9323904003	 2.0527322893	 0.071659
H	 2.1845410708	-2.2107566386	 0.2326333097	 0.06856
H	 0.2936845015	-3.2319519929	-0.719112747	 0.280325
60.1444	193.4998	200.2917	265.876	272.1499	281.8583	320.5556	361.1448	436.1756	520.8982	571.9479	646.0165	784.9977	814.7737	822.908	881.9516	885.1379	964.3138	973.049	1006.2752	1016.94	1057.5432	1069.4786	1097.9311	1122.5961	1124.8583	1164.3871	1178.6319	1196.0965	1218.8737	1240.7084	1279.4426	1293.6904	1304.9345	1323.6852	1338.4407	1378.8132	1384.6328	1411.5527	1413.1734	1438.05	1495.24	1495.6835	1521.6034	1524.1749	2981.5138	2989.5587	3005.6079	3027.8874	3029.4811	3035.8637	3055.1255	3078.9127	3085.9439	3087.7642	3109.3966	3811.9441
CC1C2COCC1C2O	C[C@H]1[C@H]2COC[C@@H]1[C@H]2O	
InChI=1S/C7H12O2/c1-4-5-2-9-3-6(4)7(5)8/h4-8H,2-3H2,1H3	InChI=1S/C7H12O2/c1-4-5-2-9-3-6(4)7(5)8/h4-8H,2-3H2,1H3/t4-,5+,6-,7-
