19
gdb 69780	3.32346	1.43285	1.18086	3.3484	74.32	-0.2569	0.0609	0.3178	1100.0292	0.157743	-423.00743	-422.999185	-422.998241	-423.039662	32.435	
C	 0.0203459715	 1.5390651297	 0.031567094	-0.478125
C	-0.0432714208	 0.0384338794	 0.1290620802	 0.402831
C	-1.33567929	-0.7017102581	-0.2386847843	-0.357046
C	-1.3291979117	-2.0073006537	 0.5667720021	 0.402831
C	-2.6279604689	-2.6740324303	 0.9330108663	-0.478125
O	-0.2506231588	-2.8872949064	 0.2235343379	-0.272032
C	-0.0901058788	-2.0508498863	 1.3713974185	-0.058758
C	 0.7044578302	-0.7868065383	 1.1009400775	-0.058758
O	 1.147483051	-0.6630971455	-0.252359908	-0.272032
H	 0.9962673131	 1.8995914912	 0.3661668075	 0.131111
H	-0.1242280163	 1.8661960182	-1.0042219987	 0.129966
H	-0.7581231081	 2.007804519	 0.6427518007	 0.119349
H	-2.2034197802	-0.0954934315	 0.0453116733	 0.10259
H	-1.3989349434	-0.8922284019	-1.3149499927	 0.125164
H	-3.1720243863	-2.9824395989	 0.0332026961	 0.129966
H	-2.4393658993	-3.5660350801	 1.5356069579	 0.131111
H	-3.2743629466	-1.9951906411	 1.4992397668	 0.119349
H	-0.0075556144	-2.5585505215	 2.3290549846	 0.090305
H	 1.3634754279	-0.3774259538	 1.8623767302	 0.090305
155.9112	177.5206	190.9498	232.2483	265.365	330.9224	377.8595	394.8955	412.0742	560.1023	571.9618	714.6356	741.4202	741.9047	827.4486	844.4636	890.0729	927.2895	930.618	944.2721	1023.6351	1023.6613	1046.5058	1075.4619	1076.1336	1135.6616	1192.9239	1223.2065	1257.6456	1260.6858	1310.3988	1327.0686	1402.4299	1410.6888	1431.3872	1453.4093	1462.5133	1484.5283	1485.6423	1494.9221	1497.3151	3032.8155	3033.4043	3046.3888	3089.9978	3095.2722	3096.7526	3122.7932	3123.2251	3139.1761	3153.5497
CC12CC3(C)OC3C1O2	C[C@]12C[C@@]3(C)O[C@H]3[C@H]1O2	
InChI=1S/C7H10O2/c1-6-3-7(2)5(9-7)4(6)8-6/h4-5H,3H2,1-2H3	InChI=1S/C7H10O2/c1-6-3-7(2)5(9-7)4(6)8-6/h4-5H,3H2,1-2H3/t4-,5+,6+,7-
