15
gdb 27456	2.51226	1.64584	1.05142	5.2317	81.14	-0.2224	-0.0802	0.1422	1086.2674	0.114027	-416.823905	-416.816338	-416.815394	-416.85604	28.959	
O	 0.0057531428	 1.3496180769	 0.2565977232	-0.429775
C	-0.0264849779	-0.0056267888	 0.0872242838	 0.377184
C	-1.2232979919	-0.6191436708	 0.2323081022	-0.172795
C	-1.5049706778	-2.0334387048	-0.0273300695	 0.281933
N	-2.6086558488	-2.3564997054	-0.5837417498	-0.499062
N	-0.6259578944	-3.0201335353	 0.4672030649	-0.253376
C	 0.6470762061	-2.9962994225	 0.3275587867	-0.006518
C	 1.5068484983	-1.9645306682	-0.2222611192	-0.094777
C	 1.2141346847	-0.6479435966	-0.2916789556	-0.182991
H	 0.9148273456	 1.6620563715	 0.2232817848	 0.300859
H	-2.0824812558	 0.0004376322	 0.465642483	 0.130873
H	-2.6814787704	-3.3771128382	-0.6128636354	 0.215576
H	 1.1786379585	-3.8762673284	 0.7014979825	 0.116687
H	 2.5121072079	-2.278865728	-0.4880086287	 0.112424
H	 2.0038453931	 0.0235396263	-0.6281178429	 0.103758
82.0337	169.614	269.442	284.699	348.2554	372.5652	437.0515	458.7004	512.186	573.8785	668.5162	683.7569	790.3061	829.3141	855.5642	876.292	918.6286	962.3052	969.6983	995.9751	1006.6757	1119.9087	1208.1231	1239.5763	1253.3181	1337.0753	1392.8195	1437.8918	1473.4807	1593.5038	1672.7625	1690.8343	1712.2693	3081.7705	3126.1061	3173.8123	3195.0382	3442.0292	3836.2896
OC1=CC(=N)N=CC=C1	OC1=C[C]([NH])N=CC=C1	
InChI=1S/C6H6N2O/c7-6-4-5(9)2-1-3-8-6/h1-4,7,9H	InChI=1S/C6H6N2O/c7-6-4-5(9)2-1-3-8-6/h1-4,7,9H
