23
gdb 72538	2.47225	1.59898	1.57904	1.499	83.48	-0.2323	0.0687	0.301	1044.5625	0.209076	-388.321263	-388.313125	-388.312181	-388.35366	33.071	
C	-0.0375879484	 1.5483674988	 0.0152567962	-0.457944
C	 0.0148594437	 0.0214495474	 0.0017766745	 0.250632
C	 0.7313451918	-0.50975619	-1.2600685852	-0.220481
C	 0.6619827974	-2.0620592733	-1.2823170383	-0.223162
C	-0.0715850222	-2.5323561376	-0.0198289822	 0.111557
C	 0.6751290363	-2.083793222	 1.2428641004	-0.223209
C	 0.7459859679	-0.5314115937	 1.2458101186	-0.220542
O	-1.3947454757	-1.9932439225	-0.0084118097	-0.285482
C	-1.4076546447	-0.5630693622	 0.0050791498	-0.067071
H	 0.9720275361	 1.9737019087	 0.0134126477	 0.112171
H	-0.5638366878	 1.9363032485	-0.8642033371	 0.111222
H	-0.5541456771	 1.9210026858	 0.906994712	 0.111218
H	 0.2563843382	-0.0880354745	-2.1527270577	 0.093692
H	 1.7693479835	-0.1584937851	-1.2622276185	 0.090532
H	 0.1154733438	-2.4179391772	-2.1603370574	 0.102539
H	 1.6608896957	-2.509635441	-1.3209452195	 0.093204
H	-0.2059892323	-3.6176437673	-0.0284366331	 0.068203
H	 0.1369566028	-2.4537608108	 2.1202204241	 0.102548
H	 1.6738571133	-2.532909679	 1.2640980199	 0.093231
H	 1.7843424635	-0.1811922193	 1.2411958658	 0.090533
H	 0.2824294041	-0.1242622217	 2.1511380707	 0.093688
H	-1.9545463726	-0.2255838671	 0.8985216269	 0.086429
H	-1.9655424772	-0.2092038948	-0.8750963479	 0.086492
62.1971	223.6901	251.0582	256.2554	316.8931	331.4399	388.8297	408.222	511.2496	540.2684	541.722	713.3947	800.7511	817.5209	827.8454	887.6787	896.8443	928.0372	942.3356	953.5933	956.3222	1036.3868	1039.247	1072.5943	1072.8064	1080.4369	1137.4068	1165.0843	1181.7827	1214.9482	1255.2979	1264.1558	1267.7342	1308.1964	1321.5673	1329.8449	1340.0394	1364.2554	1368.3628	1380.7499	1405.2592	1419.4482	1475.1254	1485.6865	1491.9816	1496.1037	1498.0988	1505.8633	1527.0054	2975.63	3004.7211	3020.7005	3025.5573	3031.0974	3043.4643	3046.6084	3060.9433	3063.8124	3073.0017	3089.1403	3090.5543	3091.3034	3095.4818
CC12CCC(CC1)OC2	C[C@@]12CC[C@@H](CC1)OC2	
InChI=1S/C8H14O/c1-8-4-2-7(3-5-8)9-6-8/h7H,2-6H2,1H3	InChI=1S/C8H14O/c1-8-4-2-7(3-5-8)9-6-8/h7H,2-6H2,1H3/t7-,8+
