20
gdb 76968	2.76167	1.10735	0.93142	3.8034	81.77	-0.2437	0.0118	0.2555	1332.0727	0.169812	-403.131974	-403.122586	-403.121642	-403.166734	34.085	
C	-0.155589791	 1.2872966513	 0.1254062941	-0.407189
C	-0.0281102358	-0.1948717282	-0.1380748812	-0.018777
C	 0.9618385157	-0.7911085063	-1.1202703724	-0.045604
C	 1.9144775233	 0.0269132508	-1.9296574937	 0.009955
C	 2.9299063583	-0.6682461216	-2.8091931489	-0.270669
C	 1.7653529177	 0.053678708	-3.4325915263	-0.270755
N	 1.1240667317	-0.9455416138	 0.3150501719	-0.075989
C	 2.1506459119	-0.5239692135	 1.1262010332	 0.1408
O	 2.0153984975	 0.119798527	 2.1417475513	-0.310672
H	 0.7741592985	 1.8273714198	-0.0622456243	 0.128839
H	-0.9369329793	 1.7109621108	-0.5136722724	 0.120762
H	-0.4275146106	 1.4611535535	 1.1696759453	 0.150075
H	-0.9639035989	-0.742406347	-0.0240459628	 0.100174
H	 0.6473077594	-1.7069259665	-1.6236375428	 0.093754
H	 2.2455131901	 0.9483345098	-1.4623395999	 0.095787
H	 3.9175103702	-0.228947507	-2.891976675	 0.120514
H	 2.9220726271	-1.7530705802	-2.8281473305	 0.119197
H	 0.9738018216	-0.5445067955	-3.8719214285	 0.117709
H	 1.948028493	 0.9915250979	-3.9443179373	 0.120079
H	 3.1293807897	-0.9121433193	 0.7820566703	 0.08201
61.3519	90.593	138.2035	147.7967	187.2404	243.1585	273.4189	302.5579	397.65	464.7301	547.3111	642.9394	759.8681	809.1778	817.9852	831.8153	863.5966	929.6977	950.4207	1012.3004	1033.4046	1057.4067	1063.1022	1076.0827	1083.4453	1125.8345	1133.5188	1166.4398	1187.8543	1198.5224	1221.3691	1230.0651	1322.5527	1380.9924	1411.7833	1421.6011	1426.629	1467.0671	1470.1752	1485.8412	1495.0954	1509.5072	1785.8334	2941.3	3049.6751	3087.7713	3102.4362	3118.8258	3133.0048	3136.8782	3138.0821	3164.8207	3212.5848	3227.5928
CC1C(C2CC2)N1C=O	C[C@H]1[C@@H](C2CC2)N1C=O	
InChI=1S/C7H11NO/c1-5-7(6-2-3-6)8(5)4-9/h4-7H,2-3H2,1H3	InChI=1S/C7H11NO/c1-5-7(6-2-3-6)8(5)4-9/h4-7H,2-3H2,1H3/t5-,7-,8?/m0/s1
