21
gdb 71152	2.52742	1.82264	1.44812	0.3691	86.06	-0.2357	0.0898	0.3254	1016.2734	0.182835	-349.893151	-349.885328	-349.884383	-349.924787	32.494	
C	-0.0017360856	 1.5754092053	 0.068543443	-0.514743
C	 0.0573625056	 0.0722844301	 0.092183659	 0.226184
C	-1.224935173	-0.7944449148	-0.115998248	-0.266408
C	-0.5161828699	-1.8667920663	 0.7080307952	-0.076523
C	 0.9740301116	-1.8199352711	 0.325938212	-0.159462
C	 0.4050947627	-0.8559938755	 1.3419731745	-0.128347
C	 1.121828208	-0.7213182359	-0.6979940595	 0.407657
C	 1.3775942629	-0.7766436312	-2.1712341273	-0.342063
C	 2.4157364615	-0.1898270077	-1.2248706184	-0.354254
H	 0.9615394287	 2.0204235607	 0.3401736019	 0.120142
H	-0.2707735266	 1.9415580218	-0.9300441432	 0.117741
H	-0.7543978216	 1.9513564977	 0.7697742671	 0.117157
H	-2.0807149295	-0.3786574557	 0.4251575071	 0.089238
H	-1.5117593999	-1.0196375128	-1.1499876206	 0.086639
H	-0.9428130296	-2.750621776	 1.1654361766	 0.081554
H	 1.6314661098	-2.6614531138	 0.505357189	 0.080636
H	 0.6742067944	-0.6484372465	 2.3675883759	 0.085437
H	 1.5871808712	-1.739345478	-2.6269073027	 0.108262
H	 0.8413217385	-0.087861384	-2.8176952022	 0.105682
H	 2.5686687428	 0.8848242408	-1.2502494891	 0.107463
H	 3.321864708	-0.759558267	-1.0429127003	 0.108006
161.4047	191.0712	225.5658	227.6889	300.785	340.8294	443.9408	511.3457	592.2858	618.7967	739.8184	772.844	780.4652	786.5045	804.05	860.836	888.845	920.7406	936.4799	953.8512	960.0394	985.5406	1012.7206	1015.1825	1029.1548	1046.4715	1051.5648	1075.0767	1124.5876	1134.4554	1163.5327	1181.7126	1184.3201	1216.096	1240.4295	1266.4374	1340.0403	1347.7333	1408.6218	1412.1762	1460.3114	1488.3345	1493.4396	1497.8057	1510.422	3020.6734	3028.1453	3083.3058	3086.3612	3094.5723	3116.7257	3120.7891	3187.0519	3193.0705	3193.614	3207.8406	3218.9157
CC12CC3C(C13)C21CC1	C[C@]12C[C@H]3[C@H]([C@@H]13)C12CC1	
InChI=1S/C9H12/c1-8-4-5-6(8)7(5)9(8)2-3-9/h5-7H,2-4H2,1H3	InChI=1S/C9H12/c1-8-4-5-6(8)7(5)9(8)2-3-9/h5-7H,2-4H2,1H3/t5-,6+,7-,8+/m1/s1
