14
gdb 12429	3.7578	2.05707	1.40039	1.3814	65.8	-0.2558	-0.0504	0.2054	836.3823	0.109957	-378.760028	-378.753414	-378.75247	-378.791065	24.62	
O	-0.0140503357	-0.063312111	-0.3535280882	-0.355829
C	 0.0174022717	 1.1150879337	-0.056266385	 0.376321
N	-1.1906114145	 1.8048349117	 0.1133502098	-0.343647
C	-1.4412984314	 3.1794555924	 0.1474041436	 0.086541
N	-0.7665586211	 4.1101335607	 0.6752843282	-0.216548
C	 0.4101361756	 3.7694060342	 1.4770925023	-0.22317
C	 1.4780957418	 3.0002637317	 0.7438952078	-0.075158
C	 1.2858902893	 1.8560139479	 0.0823921929	-0.118512
H	-1.9712313243	 1.2206558123	-0.1599585647	 0.256336
H	-2.3768232003	 3.4402239986	-0.3506670879	 0.125064
H	 0.8297569373	 4.7035541302	 1.8572478138	 0.119619
H	 0.0866049613	 3.1869348581	 2.3547899079	 0.129218
H	 2.4853956276	 3.4085886786	 0.7790680272	 0.116512
H	 2.1201648927	 1.3336292808	-0.3732808277	 0.123253
91.0004	142.065	307.1419	363.1653	385.1875	489.0429	531.5212	647.0563	697.3336	716.153	782.8524	855.8345	886.0348	929.2341	968.4523	992.1211	1015.5454	1031.2375	1134.9075	1214.0328	1251.1896	1307.0078	1376.112	1408.581	1436.0115	1467.6019	1489.454	1696.0249	1753.5157	1781.5287	2980.1867	3089.892	3116.2022	3157.4245	3198.6761	3576.1962
O=C1NC=NCC=C1	O=C1NC=NCC=C1	
InChI=1S/C5H6N2O/c8-5-2-1-3-6-4-7-5/h1-2,4H,3H2,(H,6,7,8)	InChI=1S/C5H6N2O/c8-5-2-1-3-6-4-7-5/h1-2,4H,3H2,(H,6,7,8)
