19
gdb 97717	4.88218	0.70592	0.67868	1.7945	89.1	-0.2196	0.0248	0.2445	1745.552	0.157946	-385.823383	-385.814192	-385.813247	-385.859331	33.371	
C	 0.2417300383	 1.4639783183	-0.2035160228	-0.364266
C	-0.2590336348	 0.0783623407	 0.2441017269	-0.327145
C	 0.493275166	-0.4774088031	 1.3622826581	 0.20796
C	 1.1254368058	-0.9210084385	 2.2890234244	-0.099169
C	 1.8636831543	-1.4267857021	 3.3906510791	 0.296852
C	 3.3584279525	-1.5985733138	 3.4563237883	-0.330354
C	 2.4723863841	-2.7933122039	 3.7113046861	-0.183366
C	 1.7893160249	-2.6302720717	 5.0602117053	-0.091561
O	 1.3379124798	-1.2908671842	 4.7252238332	-0.319323
H	 1.2861820974	 1.4151652612	-0.5231008407	 0.12743
H	-0.3585651458	 1.8341520835	-1.0400345564	 0.114422
H	 0.173524496	 2.1840275003	 0.6161962125	 0.131967
H	-1.3188445982	 0.141540953	 0.5227868476	 0.134807
H	-0.2146018463	-0.6205742538	-0.6014660905	 0.13109
H	 3.8664718638	-1.6020957323	 2.4979567754	 0.125473
H	 3.8975803533	-1.1248545975	 4.2725808828	 0.118343
H	 2.4980350667	-3.6911308327	 3.1096706723	 0.109864
H	 0.9329376179	-3.2988573646	 5.2027273138	 0.112406
H	 2.4236094244	-2.642775169	 5.9545231245	 0.10457
14.1976	80.6448	95.1652	170.4658	218.4751	316.284	337.1835	388.7873	457.2429	483.0635	522.6288	584.1364	749.7018	781.7371	819.7669	835.0969	907.4761	939.5924	971.667	982.3799	1001.0465	1017.3101	1059.7571	1075.8909	1088.9489	1101.6825	1121.0514	1147.9333	1181.3377	1285.8965	1294.39	1338.724	1346.3667	1395.9983	1409.1733	1468.4576	1473.3752	1494.5936	1504.9602	1519.2538	2353.7586	3019.2507	3023.9763	3044.6776	3047.09	3072.4941	3115.8101	3117.9876	3125.3479	3209.2089	3219.044
CCC#CC12CC1CO2	CCC#C[C@]12C[C@H]1CO2	
InChI=1S/C8H10O/c1-2-3-4-8-5-7(8)6-9-8/h7H,2,5-6H2,1H3	InChI=1S/C8H10O/c1-2-3-4-8-5-7(8)6-9-8/h7H,2,5-6H2,1H3/t7-,8-/m0/s1
