17
gdb 109493	2.1909	1.70025	0.99418	3.6528	71.62	-0.2374	-0.0377	0.1996	1159.8094	0.135236	-455.154141	-455.145188	-455.144244	-455.188579	32.003	
C	-0.00308171	 1.5091479147	 0.0807728551	-0.244049
O	 0.0788067887	 0.1005195411	-0.0962591	-0.231893
C	 0.5666264194	-0.5910764583	 1.0053793329	-0.043015
C	-0.4303743881	-0.8869474707	 2.1296086365	 0.358728
N	-1.2783060601	-0.0364860814	 2.5516415974	-0.541405
N	-0.1798956953	-2.1736958619	 2.5599939971	-0.340302
C	 0.6739488184	-2.9709683638	 1.7003206727	-0.27745
C	 1.0636966269	-1.9868730349	 0.5904477517	 0.375271
O	 1.6389202345	-2.2701355682	-0.4206069674	-0.280847
H	 0.9864332971	 1.9302493803	 0.3169254622	 0.101679
H	-0.3425986556	 1.9186820773	-0.8729930116	 0.127132
H	-0.7080937911	 1.7703167171	 0.8747357329	 0.154251
H	 1.4347404767	-0.0738833915	 1.4584099786	 0.112738
H	-1.8720312376	-0.4250029151	 3.2876103824	 0.200636
H	-0.763588227	-2.5994789488	 3.2622192351	 0.246017
H	 1.5743605596	-3.3386486954	 2.210750572	 0.139125
H	 0.1649837434	-3.8358332505	 1.2561203925	 0.143385
43.1895	110.4852	121.287	179.1962	205.4669	283.9271	328.9751	401.9738	431.754	507.0551	533.9817	599.2696	664.076	694.4809	804.8061	845.9491	922.2141	974.9322	1033.0109	1059.0911	1114.2707	1152.1927	1176.4036	1181.6518	1197.6904	1230.1494	1242.9087	1272.673	1343.3938	1398.3773	1432.2292	1476.7988	1480.0618	1501.3262	1517.8244	1749.78	1881.2414	2923.0207	2988.3971	3012.3503	3047.3175	3089.1123	3135.067	3441.6307	3630.9373
COC1C(=N)NCC1=O	CO[C@H]1[C]([NH])NCC1=O	
InChI=1S/C5H8N2O2/c1-9-4-3(8)2-7-5(4)6/h4H,2H2,1H3,(H2,6,7)	InChI=1S/C5H8N2O2/c1-9-4-3(8)2-7-5(4)6/h4H,2H2,1H3,(H2,6,7)/t4-/m1/s1
