15
gdb 31679	3.38638	1.11828	0.84515	5.7455	72.27	-0.2251	-0.0331	0.192	1288.4486	0.113148	-453.990559	-453.982309	-453.981365	-454.023893	29.3	
C	 0.038882738	 1.3681635824	 0.0080670488	-0.240515
O	-0.0117350882	-0.0644309711	 0.003836539	-0.270617
C	-1.2407440563	-0.5776882467	 0.0105394229	 0.497423
N	-2.3818640169	 0.0457535137	 0.0203176804	-0.400867
C	-3.3351335275	-0.9686114109	 0.0234502012	 0.171191
C	-4.7775255097	-0.7494742211	 0.0338854544	 0.079833
O	-5.3360860956	 0.3226921484	 0.0413258182	-0.276551
C	-2.7245227214	-2.2012808749	 0.0154491782	-0.143768
N	-1.3748755239	-1.9432037694	 0.007051743	-0.334219
H	 1.0982662553	 1.6241577732	 0.0010902966	 0.135059
H	-0.4621632036	 1.7714360022	-0.8758218032	 0.150214
H	-0.4490273482	 1.7657165248	 0.9018504208	 0.150173
H	-5.3567823406	-1.7031486952	 0.0349710869	 0.054773
H	-3.1188976228	-3.2040228447	 0.014956193	 0.151115
H	-0.6201314385	-2.6090068006	-0.0002798406	 0.276758
104.9055	132.1933	140.5793	151.4428	245.1118	269.4179	381.2159	469.2749	517.9545	530.8474	664.4253	677.4082	732.0372	755.1427	820.498	983.6561	1026.8921	1029.4299	1070.528	1101.9469	1183.6668	1217.0344	1240.5636	1347.4739	1386.2314	1414.7296	1460.5148	1478.5946	1481.6126	1503.0982	1575.1359	1644.4127	1803.4575	2847.4758	3050.4981	3126.0249	3161.0665	3275.0744	3664.7911
COC1=NC(C=O)=CN1	COc1nc(C=O)c[nH]1	
InChI=1S/C5H6N2O2/c1-9-5-6-2-4(3-8)7-5/h2-3H,1H3,(H,6,7)	InChI=1S/C5H6N2O2/c1-9-5-6-2-4(3-8)7-5/h2-3H,1H3,(H,6,7)
