16
gdb 79598	4.83031	1.06264	0.97945	3.5269	70.28	-0.2379	-0.0447	0.1933	1179.5608	0.122472	-437.786687	-437.778738	-437.777794	-437.819063	30.268	
O	-0.0227399559	 1.3706946796	 0.1255326476	-0.425612
C	 0.0533803971	-0.0220125996	 0.0264387867	 0.054357
C	-0.5219046938	-0.7484390149	 1.2287834385	-0.057522
C	-1.3050592012	-0.644562815	-0.0579057415	-0.145451
C	-1.2615219737	-2.1802994582	-0.1309660676	 0.184295
C	 0.0917876303	-2.7875667149	 0.0306539068	-0.27263
N	-0.5458611714	-2.2616209592	 1.2331782281	-0.155568
C	-2.4483683466	-3.0303279428	-0.3856881933	 0.097353
O	-2.4559741989	-4.231806612	-0.267804185	-0.25822
H	 0.6978489031	 1.6697691621	 0.6907732563	 0.294608
H	 0.899684228	-0.384045214	-0.5528088824	 0.095801
H	-0.6661971017	-0.245196507	 2.1760196424	 0.114549
H	-2.1889599191	-0.0596607013	-0.2753901948	 0.112661
H	 0.0894528504	-3.8732887033	 0.019248282	 0.154127
H	 0.974271362	-2.3247281261	-0.3937638288	 0.129743
H	-3.3568313684	-2.4737040535	-0.7072260251	 0.077508
101.2123	169.7832	178.7621	285.7752	300.1177	312.0111	357.8998	432.0048	476.6858	587.6545	664.3072	724.4746	798.9702	833.7022	875.5124	904.4307	925.8584	970.7624	989.3098	1039.0012	1054.8396	1083.4846	1106.5047	1117.3416	1148.2583	1186.3794	1196.0194	1261.5948	1283.8888	1303.4741	1341.8364	1431.002	1441.3436	1498.2625	1804.7541	2882.6641	3110.7791	3141.3161	3196.968	3208.2992	3228.6732	3803.1702
OC1C2C1C1(CN21)C=O	O[C@H]1[C@H]2[C@@H]1[C@]1(CN21)C=O	
InChI=1S/C6H7NO2/c8-2-6-1-7(6)4-3(6)5(4)9/h2-5,9H,1H2	InChI=1S/C6H7NO2/c8-2-6-1-7(6)4-3(6)5(4)9/h2-5,9H,1H2/t3-,4+,5+,6-,7?/m0/s1
