21
gdb 60116	3.93778	0.90308	0.82724	1.3134	81.65	-0.2113	0.0674	0.2787	1496.1162	0.183032	-420.439225	-420.429474	-420.42853	-420.474687	35.111	
C	 0.1220111732	 1.5581241144	 0.1474423381	-0.386298
C	 0.0237055733	 0.0363121363	-0.0255598072	 0.072107
C	 0.7334044841	-0.4525846165	-1.2885609393	-0.399706
N	 0.5570351885	-0.6887488914	 1.1282696382	-0.383986
C	-0.1293222139	-0.7430889117	 2.2995855151	 0.514675
N	-1.3428753529	-0.3973167367	 2.5031751454	-0.367823
C	-1.6375837519	-0.7557283266	 3.8923602023	-0.178936
C	-0.2757575025	-1.21848903	 4.4786683575	-0.107678
O	 0.595805752	-1.2706305555	 3.3310836558	-0.271247
H	 1.1685433534	 1.8779896061	 0.2161108009	 0.102316
H	-0.3333864559	 2.0738284161	-0.7043198471	 0.112374
H	-0.4008576992	 1.8664314012	 1.0557246023	 0.140385
H	-1.0352342687	-0.234910666	-0.0765357238	 0.118377
H	 1.8050567995	-0.219316588	-1.2522714659	 0.1095
H	 0.623665256	-1.5339919763	-1.406824726	 0.124572
H	 0.3209149534	 0.0389029652	-2.1740671396	 0.121448
H	 1.5605118165	-0.7354726358	 1.2230011172	 0.243111
H	-2.0476802041	 0.1005854505	 4.4391333426	 0.105438
H	-2.3912861616	-1.5529210579	 3.9340670267	 0.104309
H	 0.1447427308	-0.5089491028	 5.1992716269	 0.111257
H	-0.3021716998	-2.2112821648	 4.9348986201	 0.115805
56.087	69.2455	86.9755	142.2774	227.306	233.3668	265.1232	312.7412	386.144	434.3455	471.4236	489.4162	723.9641	738.5285	773.0155	842.7502	852.8534	924.9775	929.2108	949.9652	963.6053	986.9204	1042.2512	1077.8868	1125.9932	1149.9463	1188.8517	1199.3825	1220.2641	1239.8571	1266.8172	1327.9982	1354.6078	1369.4258	1395.4993	1399.8731	1417.6853	1485.1444	1487.7212	1496.3983	1510.896	1512.0871	1524.2584	1546.9854	1741.805	3013.8292	3026.5394	3030.7835	3040.3438	3053.7578	3068.1333	3093.7999	3098.7449	3104.6923	3122.3737	3128.3746	3618.471
CC(C)NC1=NCCO1	CC(C)NC1=NCCO1	
InChI=1S/C6H12N2O/c1-5(2)8-6-7-3-4-9-6/h5H,3-4H2,1-2H3,(H,7,8)	InChI=1S/C6H12N2O/c1-5(2)8-6-7-3-4-9-6/h5H,3-4H2,1-2H3,(H,7,8)
