17
gdb 79557	2.44489	1.82063	1.25015	1.5689	79.26	-0.2433	0.029	0.2722	1012.5342	0.134891	-384.605057	-384.596917	-384.595973	-384.637539	31.772	
O	-0.0437725924	 1.3984507901	 0.01848736	-0.438727
C	-0.0921110134	 0.0062247638	 0.0750796747	 0.129456
C	-0.4547197515	-0.7778014422	 1.3111458271	-0.118797
C	-1.5575130276	-0.1053701507	 2.0838286896	-0.101877
C	-2.8315918286	-0.8937967909	 2.0493159482	-0.330837
C	-2.4556658181	-0.1065461555	 0.8097136651	 0.175138
C	-3.2315546807	 0.9742184603	 0.2959144942	 0.210319
C	-3.8472744071	 1.8994705706	-0.1701162022	-0.434026
C	-1.3519298585	-0.8038763705	 0.0379533194	-0.221794
H	-0.9386248859	 1.7364412939	-0.1007291449	 0.296212
H	 0.7307768576	-0.4337540501	-0.4857777701	 0.101826
H	 0.1735747024	-1.5760840062	 1.691035125	 0.09407
H	-1.428321534	 0.7359643324	 2.7540147203	 0.110341
H	-2.8044982756	-1.9792491125	 2.0104537211	 0.114302
H	-3.6569707077	-0.4793951573	 2.6197194876	 0.126835
H	-4.4069836623	 2.7049092335	-0.5770575363	 0.193967
H	-1.5158480766	-1.613304899	-0.6652577789	 0.093593
103.55	125.068	170.7589	226.5031	280.4583	392.8092	485.8604	492.0634	561.5978	574.4149	592.8762	649.1209	690.9787	747.4528	766.4122	810.7689	838.1833	909.477	960.2614	975.6504	996.7645	1022.4828	1052.995	1065.1786	1087.7773	1096.0539	1107.5233	1194.0363	1201.2549	1273.1872	1279.9992	1334.1458	1349.3386	1360.5709	1445.1191	1485.4275	2222.5355	3117.7439	3129.3178	3164.4565	3175.4525	3189.8145	3210.8317	3500.7709	3793.4235
OC1C2C3CC3(C#C)C12	O[C@H]1[C@H]2[C@@H]3C[C@]3(C#C)[C@@H]12	
InChI=1S/C8H8O/c1-2-8-3-4(8)5-6(8)7(5)9/h1,4-7,9H,3H2	InChI=1S/C8H8O/c1-2-8-3-4(8)5-6(8)7(5)9/h1,4-7,9H,3H2/t4-,5-,6+,7-,8-/m0/s1
