18
gdb 78796	2.15492	1.89198	1.65898	2.6317	75.38	-0.2104	0.006	0.2164	955.5702	0.146307	-401.903355	-401.895153	-401.894208	-401.935681	31.627	
C	 0.0195152268	 1.5191964944	 0.0586255353	-0.344894
N	 0.0779017956	 0.0619920654	-0.0007057726	-0.118009
C	 0.7790489407	-0.5566772205	-1.1256017576	-0.01583
C	 2.3036824206	-0.5295846641	-0.8755901579	-0.22051
C	 1.3601265506	-1.6287249255	-0.2949107126	-0.16187
C	 1.0563454577	-0.6324583082	 0.896965582	 0.199041
C	 0.6704937493	-0.9293668179	 2.3143412827	-0.512738
C	 2.451774871	-0.0394748443	 0.5264676563	 0.406498
O	 3.3661285521	 0.3730664451	 1.1860597645	-0.347722
H	 0.9962316269	 2.0144912484	-0.0681085988	 0.115002
H	-0.6537634517	 1.8791233939	-0.7256465813	 0.123968
H	-0.3979916427	 1.8246866694	 1.0226561949	 0.127853
H	 0.3806912277	-0.5882566547	-2.1330492742	 0.109794
H	 3.0456959623	-0.6343347314	-1.6545060787	 0.112177
H	 1.4412249078	-2.7015219219	-0.3667216096	 0.124679
H	 1.4691839344	-1.477985136	 2.8220281365	 0.1358
H	 0.5112119073	 0.0029483831	 2.8660449174	 0.1362
H	-0.2517902563	-1.5148041652	 2.356460574	 0.130559
131.4605	160.2134	205.2336	212.6595	220.4759	262.0037	374.9674	458.4093	543.9505	665.4151	668.8589	686.8769	751.4742	787.0818	814.4642	827.1188	841.3508	878.4006	907.0771	951.8491	1013.3889	1051.7831	1088.8372	1113.5627	1125.4486	1158.3283	1163.337	1187.6268	1222.8625	1279.916	1339.1401	1352.8511	1415.0116	1447.7091	1480.0993	1486.175	1490.6031	1498.6225	1867.1144	2971.9803	3042.191	3072.7717	3108.4372	3111.1754	3123.1208	3182.754	3224.9887	3252.118
CN1C2C3C2C1(C)C3=O	CN1[C@H]2[C@@H]3[C@H]2[C@@]1(C)C3=O	
InChI=1S/C7H9NO/c1-7-4-3(6(7)9)5(4)8(7)2/h3-5H,1-2H3	InChI=1S/C7H9NO/c1-7-4-3(6(7)9)5(4)8(7)2/h3-5H,1-2H3/t3-,4+,5-,7-/m0/s1
