19
gdb 115549	1.97408	1.52564	1.12295	2.2878	76.73	-0.2608	0.0275	0.2883	1175.5362	0.158715	-419.194524	-419.184888	-419.183944	-419.229047	34.967	
C	-0.204187563	 1.3582162518	-0.7115449294	-0.258597
O	 0.325210798	 0.2576829054	 0.011288176	-0.240727
C	 0.9973083901	-0.6697076405	-0.77797339	 0.154823
C	 1.8836632157	-1.6935018329	-0.0484093757	-0.273853
C	 1.425349072	-2.7561645491	-1.0847845499	-0.236876
C	 0.168622581	-1.8754473013	-1.3778285851	 0.102569
N	-0.9145774777	-2.2123847378	-0.4640937103	-0.539146
C	-0.2504548261	-1.7508798505	-2.7767738894	 0.205202
N	-0.5981840616	-1.6468729972	-3.8760737761	-0.349968
H	 0.5903404453	 1.9121998435	-1.2313317228	 0.120109
H	-0.9500632331	 1.0438984381	-1.4546290567	 0.125674
H	-0.6826168584	 2.0172258839	 0.0158845347	 0.135492
H	 1.548703674	-0.1762728592	-1.590169248	 0.085407
H	 2.9483568973	-1.4687081886	 0.0241633484	 0.107198
H	 1.4788225566	-1.9042138558	 0.9419707741	 0.137435
H	 2.0907059233	-2.8168033462	-1.9486247687	 0.119878
H	 1.2026939604	-3.7580864914	-0.7179176319	 0.119436
H	-1.4790080605	-1.3911611774	-0.2713815928	 0.24376
H	-1.5150465633	-2.9258759848	-0.8633432364	 0.242186
81.6792	97.9932	154.8598	158.5774	189.9661	207.4616	278.9061	295.5118	385.2638	418.0687	483.7111	550.4193	585.6731	623.7141	720.0642	802.0013	834.2972	916.5407	939.198	947.5913	994.1214	1036.5529	1124.9489	1148.6845	1173.2524	1177.9055	1187.0242	1225.6772	1236.9866	1260.7555	1267.9821	1291.0065	1307.7355	1403.8093	1471.2951	1480.8884	1488.9047	1492.9812	1508.4672	1641.1811	2331.4752	2992.9432	3011.545	3048.6702	3080.546	3089.7661	3126.7976	3140.8837	3154.5788	3505.597	3593.2132
COC1CCC1(N)C#N	CO[C@H]1CC[C@]1(N)C#N	
InChI=1S/C6H10N2O/c1-9-5-2-3-6(5,8)4-7/h5H,2-3,8H2,1H3	InChI=1S/C6H10N2O/c1-9-5-2-3-6(5,8)4-7/h5H,2-3,8H2,1H3/t5-,6-/m0/s1
