25
gdb 58585	2.72548	1.18988	1.05021	1.5143	87.77	-0.2542	0.0601	0.3142	1321.779	0.228603	-389.516943	-389.506704	-389.50576	-389.551728	39.588	
C	 0.0267776347	 1.5306950455	-0.0708311933	-0.399
C	-0.0042004043	 0.0001331398	 0.0572299784	 0.006382
C	 0.7448356266	-0.4443797611	 1.3230678916	-0.396288
C	-1.4435310054	-0.5551098561	 0.0193664745	 0.430359
O	-2.0902249432	-0.033099126	 1.1904285344	-0.488563
C	-2.2417376052	-0.1519225001	-1.2443881095	-0.247585
C	-3.3404101938	-1.2184011432	-1.3529834113	-0.226802
C	-2.591820986	-2.5235565622	-1.0247866086	-0.207576
C	-1.5069472009	-2.117701769	 0.0080731662	-0.26501
H	 1.0563991722	 1.8994607848	-0.0195991479	 0.102415
H	-0.3992976364	 1.8706582925	-1.0193721672	 0.106553
H	-0.5423803458	 1.9929222708	 0.7405069519	 0.130957
H	 0.5087905192	-0.4279621347	-0.8153241619	 0.062547
H	 0.2504442104	-0.0544082932	 2.2166452719	 0.131968
H	 0.7880587067	-1.5339102524	 1.4130278555	 0.106971
H	 1.7737428127	-0.0706530224	 1.3095290239	 0.102298
H	-3.0026148518	-0.3378767377	 1.1937062332	 0.274213
H	-2.620269279	 0.8700146031	-1.1708561469	 0.102116
H	-1.5906153667	-0.2082244193	-2.1263519201	 0.093163
H	-4.1300985218	-1.0289271369	-0.6124510129	 0.085042
H	-3.8315298351	-1.2373815891	-2.3297368841	 0.096632
H	-3.2526806611	-3.313679189	-0.6577599094	 0.095156
H	-2.1176611812	-2.9071781292	-1.9348476373	 0.100748
H	-0.5373467139	-2.5510077572	-0.252402966	 0.099477
H	-1.7454907612	-2.4645563678	 1.0173860549	 0.103828
53.31	104.646	187.992	205.9445	217.0389	244.6505	256.0465	290.2594	328.717	370.4296	405.8293	457.328	482.8722	577.3182	638.9093	737.412	803.9167	852.5287	864.6887	897.9636	912.8231	930.8715	951.8862	967.4	989.3157	999.7309	1030.8675	1054.9063	1098.8427	1099.9057	1165.3631	1190.6468	1195.9149	1221.3141	1240.9696	1261.2064	1295.9244	1315.1119	1332.8984	1346.3451	1349.0293	1354.8123	1396.8533	1397.7974	1419.83	1478.7341	1480.7751	1489.9303	1494.3372	1498.4113	1503.6399	1514.8309	1516.9353	3005.1486	3009.0034	3028.6667	3037.023	3041.2172	3042.0924	3056.0637	3081.8279	3088.4579	3099.2779	3102.966	3103.9437	3108.0197	3118.5231	3123.652	3823.3402
CC(C)C1(O)CCCC1	CC(C)C1(O)CCCC1	
InChI=1S/C8H16O/c1-7(2)8(9)5-3-4-6-8/h7,9H,3-6H2,1-2H3	InChI=1S/C8H16O/c1-7(2)8(9)5-3-4-6-8/h7,9H,3-6H2,1-2H3
