16
gdb 44293	3.68324	1.7694	1.52721	3.8884	70.51	-0.2365	-0.0283	0.2082	868.2935	0.126711	-400.704886	-400.698863	-400.697919	-400.735223	25.112	
O	 0.0098799998	-0.0266743049	 0.0053286647	-0.312032
C	-0.029661635	 1.1751751398	 0.0068423927	 0.425719
C	-1.2915219404	 2.0587508921	 0.0046566736	-0.354397
C	-0.7133099497	 3.4710129048	-0.0449410895	-0.045997
C	 0.0890367266	 3.781668509	-1.3130969655	-0.049347
C	 1.2983150959	 4.1875453676	-0.5669514739	-0.052432
C	 0.6896824867	 3.4589614025	 0.6715517156	-0.110795
C	 1.1553422989	 2.1354077711	 0.034364843	-0.083076
N	 1.3047500854	 2.879087988	-1.2903775265	-0.155
H	-1.9439522619	 1.8042181616	-0.835706154	 0.135289
H	-1.8571711339	 1.8717275821	 0.9259357816	 0.130468
H	-1.3734430061	 4.2816567933	 0.2638534657	 0.084195
H	-0.2625131274	 4.0784921653	-2.2927756194	 0.103879
H	 2.0404839604	 4.9594835105	-0.7164982347	 0.107072
H	 0.7981414881	 3.6960008121	 1.7274166572	 0.082366
H	 2.1068244126	 1.6971526551	 0.3295330095	 0.094087
113.8324	292.2598	391.8094	457.6722	569.417	595.7489	660.8066	718.1945	736.5266	803.6188	826.1408	842.3854	868.8881	888.1322	930.3104	935.8461	960.2798	999.3841	1012.7413	1019.9951	1041.0453	1111.6426	1138.8147	1157.3048	1163.8756	1201.2104	1222.8277	1238.873	1250.9647	1264.0642	1287.4458	1334.0813	1338.0907	1443.9513	1851.6401	3041.0391	3096.6314	3114.575	3137.6437	3145.8951	3198.1642	3216.0735
O=C1CC2C3C4C2C1N34	O=C1C[C@@H]2[C@H]3[C@H]4[C@@H]2[C@@H]1N34	
InChI=1S/C7H7NO/c9-3-1-2-4-6(3)8-5(2)7(4)8/h2,4-7H,1H2	InChI=1S/C7H7NO/c9-3-1-2-4-6(3)8-5(2)7(4)8/h2,4-7H,1H2/t2-,4-,5-,6+,7+,8?/m0/s1
