14
gdb 49451	3.90225	1.19431	0.97687	2.1244	70.06	-0.2497	-0.0775	0.1721	1133.6846	0.100919	-436.695022	-436.687717	-436.686773	-436.727223	26.899	
O	 0.1164382335	 0.0516309037	 0.550874973	-0.278326
C	 0.0218381889	 1.1566453545	 0.0809132257	 0.14442
N	 1.0311012766	 1.8029885781	-0.6301382674	-0.087569
C	 2.4308734198	 1.7675184945	-0.210351506	-0.072551
C	 3.3796519002	 1.9018412341	-1.3653238694	-0.058527
C	 3.2300137686	 3.0804881908	-1.9844354152	-0.196219
C	 2.1960880544	 3.9118959032	-1.3009924753	 0.414496
O	 1.8631051934	 5.0413237441	-1.5593714092	-0.314894
C	 1.6587196814	 3.0467169739	-0.1603662537	-0.185079
H	-0.9088457814	 1.7541090125	 0.0952340032	 0.100962
H	 2.6734629914	 1.1920395602	 0.6751841056	 0.133976
H	 4.0556948695	 1.1079185364	-1.6587687395	 0.136911
H	 3.7459056562	 3.422161516	-2.8719531898	 0.131916
H	 1.3086231975	 3.500601568	 0.7599808679	 0.130483
96.28	136.7918	193.3806	232.789	313.9682	433.4236	458.8926	599.0324	633.5171	732.2379	758.4768	827.7165	840.2496	865.6454	894.7351	945.4047	993.1149	1007.5958	1042.9053	1074.7543	1104.8049	1162.7602	1181.2979	1227.9229	1311.6368	1360.7098	1395.6786	1409.6111	1634.3379	1802.0602	1829.7978	2966.2623	3187.6915	3196.6303	3209.6161	3236.7818
O=CN1C2C=CC(=O)C12	O=CN1[C@H]2C=CC(=O)[C@@H]12	
InChI=1S/C6H5NO2/c8-3-7-4-1-2-5(9)6(4)7/h1-4,6H	InChI=1S/C6H5NO2/c8-3-7-4-1-2-5(9)6(4)7/h1-4,6H/t4-,6-,7?/m0/s1
