19
gdb 90003	4.08619	1.03602	0.96921	1.1652	76.88	-0.2472	0.0015	0.2487	1252.6444	0.15989	-423.007397	-422.99913	-422.998186	-423.041165	31.269	
O	 0.1482970212	 1.4927529774	 0.0481858824	-0.4313
C	 0.1265306347	 0.0720029674	 0.0380551122	 0.102925
C	-1.2983579356	-0.5465611908	 0.0505331936	-0.339519
C	-1.259036297	-1.7612427976	-0.9008394694	 0.258289
C	-1.4106560853	-3.1910889771	-0.2967730801	-0.114128
O	-2.5672729027	-3.4696867157	-1.1049915428	-0.271489
C	-2.5475191047	-2.1478441272	-1.6727860228	-0.121494
C	-0.0057328023	-1.5223838798	-1.6987860185	-0.129329
C	 0.7504913238	-0.5513018334	-1.1900687368	-0.138255
H	-0.2536245559	 1.7924084325	-0.7752406839	 0.273823
H	 0.6876573451	-0.2051650886	 0.9392879056	 0.098232
H	-1.6444289626	-0.8022793462	 1.0551357415	 0.108112
H	-1.992062234	 0.2056865458	-0.3439632394	 0.099969
H	-0.5868243455	-3.8858549147	-0.5023865324	 0.100877
H	-1.6393634859	-3.215240486	 0.7774006858	 0.098352
H	-3.4379593135	-1.5665906105	-1.3967781656	 0.096582
H	-2.4610276519	-2.168504014	-2.7671346626	 0.098164
H	 0.2420967298	-2.1314459054	-2.5628225903	 0.105992
H	 1.7148909423	-0.2269017561	-1.5652004966	 0.104199
46.7257	61.652	183.2975	279.3531	306.9746	345.735	404.3054	407.8589	459.3668	581.3418	680.3427	795.2585	807.981	855.1195	865.6948	892.6354	923.0619	975.4057	988.4632	993.8039	1023.5953	1047.6991	1060.3125	1089.8656	1124.2101	1156.1043	1162.7456	1179.3298	1209.7427	1248.7694	1276.9462	1294.5872	1309.3291	1320.5757	1379.0278	1380.1955	1430.712	1480.7698	1510.7892	1536.302	1678.898	2993.4883	3005.9601	3030.3131	3036.95	3042.9849	3048.9901	3098.4754	3173.9847	3204.7127	3793.0179
OC1CC2(COC2)C=C1	O[C@H]1CC2(COC2)C=C1	
InChI=1S/C7H10O2/c8-6-1-2-7(3-6)4-9-5-7/h1-2,6,8H,3-5H2	InChI=1S/C7H10O2/c8-6-1-2-7(3-6)4-9-5-7/h1-2,6,8H,3-5H2/t6-/m1/s1
