21
gdb 120325	2.98059	1.13222	1.06145	2.0957	78.98	-0.2307	0.0761	0.3068	1276.826	0.182722	-424.20518	-424.196241	-424.195296	-424.239547	32.887	
C	 0.0229751125	 1.4751376269	-0.0619503918	-0.387594
C	-0.1648974757	-0.0055614769	-0.3412699469	-0.034372
O	 1.0641052143	-0.5261466443	-0.82557441	-0.240785
C	 1.0116830144	-1.8796066442	-1.1262252081	 0.132663
C	 0.5446592065	-2.395888763	-2.4704913597	-0.131326
C	 0.4745460417	-1.4161852349	-3.6291263521	-0.083213
O	 1.7060017991	-0.7090790244	-3.65537598	-0.249533
C	 2.716930915	-1.4767763048	-3.0144822168	-0.078134
C	 2.0154569364	-2.447435592	-2.0792024071	-0.138157
H	 0.8094042416	 1.6278167328	 0.6826610255	 0.126442
H	 0.3101893708	 2.0017134918	-0.9762188044	 0.134137
H	-0.9052931215	 1.9126578496	 0.3175008973	 0.11314
H	-0.4616889995	-0.540746661	 0.5763506688	 0.085234
H	-0.9630159136	-0.1671388055	-1.0816738202	 0.091845
H	 0.7526102902	-2.5115083465	-0.2731053741	 0.080972
H	-0.0713434222	-3.2872465934	-2.5142868402	 0.088327
H	 0.3113267706	-1.9745530789	-4.5660094961	 0.089277
H	-0.3242607234	-0.6709554298	-3.5399510007	 0.105872
H	 3.3129286844	-2.0437869078	-3.7477714691	 0.088152
H	 3.3801046621	-0.7736379166	-2.4999214575	 0.115343
H	 2.5199723664	-3.3745766372	-1.8325762069	 0.091712
60.1253	88.6345	119.346	188.9819	205.1058	248.9094	261.0259	384.9034	506.3654	555.6374	712.8293	749.2055	769.0742	813.1133	820.4871	897.1491	917.5099	929.882	982.4419	1020.0118	1029.0957	1051.4955	1078.9903	1098.3446	1119.5725	1128.8975	1139.4058	1154.4736	1188.8737	1231.4814	1236.413	1243.2927	1292.6145	1322.5975	1358.0642	1361.7398	1369.9556	1401.8318	1422.3528	1467.6358	1482.8061	1499.9374	1511.3093	1524.6508	1530.1355	2962.5334	2964.0984	2973.8702	3001.6027	3045.5296	3051.8921	3068.76	3068.9445	3119.6157	3124.2063	3168.8946	3179.2322
CCOC1C2COCC12	CCO[C@H]1[C@H]2COC[C@@H]12	
InChI=1S/C7H12O2/c1-2-9-7-5-3-8-4-6(5)7/h5-7H,2-4H2,1H3	InChI=1S/C7H12O2/c1-2-9-7-5-3-8-4-6(5)7/h5-7H,2-4H2,1H3/t5-,6+,7-
