14
gdb 20284	5.48185	2.14181	2.03469	1.9829	58.65	-0.2395	0.0617	0.3012	674.6645	0.108636	-382.437912	-382.432834	-382.43189	-382.466818	21.484	
O	-0.0212279038	 1.4326330415	-0.0272294847	-0.254848
C	 1.2764540492	 0.8098493241	 0.0317189589	 0.011813
C	 0.0562677343	-0.0042920726	 0.0400930762	 0.011813
C	 0.1026067905	-0.6751657028	-1.32135717	-0.082979
C	 0.6841751989	 0.3516863565	-2.3358983923	 0.072165
O	 1.389971638	-0.7136684729	-3.069634586	-0.318369
C	 1.6019790358	-1.0168803308	-1.6578337529	 0.051249
C	 1.8651838163	 0.5008865343	-1.3334531221	-0.08298
H	 1.8779630331	 1.0338149637	 0.9059625271	 0.106492
H	-0.373113949	-0.4681826315	 0.9214069044	 0.106491
H	-0.6782019124	-1.3568834286	-1.6516219098	 0.087295
H	 0.1688391068	 1.1181130154	-2.9109082039	 0.107299
H	 2.1927565323	-1.8997254115	-1.4087031211	 0.097264
H	 2.7912218	 0.9580323652	-1.6754281238	 0.087295
284.1911	379.951	503.849	547.5473	698.9935	731.231	758.0339	785.1198	839.366	864.2087	874.4381	913.7826	923.0502	947.2303	962.0029	1001.1613	1003.4338	1011.9335	1096.1718	1122.3285	1148.031	1161.1665	1171.7333	1214.8004	1240.0351	1255.6182	1275.9866	1319.6205	1335.9745	1409.7088	3107.3669	3140.3161	3148.7919	3154.4447	3171.3302	3182.8381
O1C2C1C1C3OC1C23	O1[C@H]2[C@@H]1[C@H]1[C@@H]3O[C@H]1[C@H]23	
InChI=1S/C6H6O2/c7-3-1-4(7)2(3)6-5(1)8-6/h1-6H	InChI=1S/C6H6O2/c7-3-1-4(7)2(3)6-5(1)8-6/h1-6H/t1-,2+,3-,4+,5-,6+
