15
gdb 28355	3.23976	1.44485	1.00571	1.7919	75.64	-0.2101	-0.0491	0.1609	1124.1721	0.112953	-454.014813	-454.006648	-454.005703	-454.047337	30.548	
C	 0.0503833905	 1.5070394637	 0.0093573848	-0.472761
C	-0.0911341429	 0.0255626723	 0.0654288499	 0.348563
C	-1.1533341338	-0.7204636674	-0.2912770252	-0.142249
N	-1.1851603253	-2.0952671049	-0.2058495625	-0.334686
C	-0.1155876338	-2.6798183248	 0.2393027572	 0.264275
N	-0.0048079846	-4.0273982311	 0.3313543265	-0.543729
C	 1.1030874807	-1.948213036	 0.6771094035	 0.388587
O	 2.0906598638	-2.479210675	 1.1231920954	-0.357815
O	 1.0357840027	-0.5979842382	 0.5526227885	-0.236139
H	 0.8840688375	 1.7996491757	-0.6391562128	 0.143917
H	-0.8659695182	 1.9571193066	-0.3777903828	 0.138033
H	 0.2511167539	 1.9226623108	 1.0033959276	 0.143579
H	-2.0475430163	-0.240431406	-0.6705497386	 0.112493
H	-0.8289723998	-4.5899140679	 0.207132281	 0.267697
H	 0.7880803556	-4.3946454479	 0.8306397176	 0.280234
107.9046	166.7158	178.9499	257.7372	288.4628	330.3827	357.4464	454.169	488.1245	539.4843	548.5887	575.6589	605.0317	694.053	791.9477	814.9071	884.0551	994.0734	1022.5925	1056.7711	1065.9232	1176.4724	1221.2938	1285.1042	1361.6129	1407.7101	1424.9596	1467.6464	1489.0614	1571.9068	1655.1639	1686.8568	1814.4466	3030.9431	3082.606	3133.9994	3199.8314	3606.0048	3742.1466
CC1=CN=C(N)C(=O)O1	Cc1cnc(N)c(=O)o1	
InChI=1S/C5H6N2O2/c1-3-2-7-4(6)5(8)9-3/h2H,1H3,(H2,6,7)	InChI=1S/C5H6N2O2/c1-3-2-7-4(6)5(8)9-3/h2H,1H3,(H2,6,7)
