18
gdb 33922	3.41952	1.32475	1.12466	2.1113	84.08	-0.2263	-0.002	0.2243	1115.8399	0.14887	-364.767383	-364.759538	-364.758594	-364.799352	31.424	
C	-0.0070969077	-1.1617452149	-0.0692245885	-0.394376
C	 0.0163409369	 0.0379561068	 0.0066825643	 0.2861
C	 0.0150408579	 1.4796142506	 0.0493010763	 0.071045
C	-1.1773060398	 2.1274108095	-0.6511033469	-0.274747
C	-1.1296577921	 3.6676313197	-0.6830664264	-0.298014
C	 0.2395690068	 4.1943161754	-1.0272866432	-0.086574
C	 1.3517180727	 3.5201506264	-0.7267010231	-0.033941
C	 1.3269292001	 2.2170695234	-0.0176300113	-0.09185
N	 0.6035593294	 2.071477427	 1.2683548691	-0.359766
H	-0.0159763089	-2.2222353411	-0.1208203938	 0.190338
H	-1.1906221821	 1.745698078	-1.6786038563	 0.122051
H	-2.1063456102	 1.7892186844	-0.1807041288	 0.116042
H	-1.8685082254	 4.0304559394	-1.4055614566	 0.111147
H	-1.4553037405	 4.0756466242	 0.2850038928	 0.115799
H	 0.3037913675	 5.158702776	-1.5225328746	 0.096761
H	 2.3277965935	 3.9173169773	-0.9892069444	 0.094749
H	 2.2375051472	 1.6274230893	-0.0543685049	 0.102515
H	 0.1342579648	 2.9486321787	 1.4859991262	 0.232722
125.9231	147.6461	203.9205	276.816	347.8643	414.7558	450.638	513.6565	559.039	583.7548	608.8942	649.1412	651.9541	713.523	754.0131	835.7989	847.0247	891.9735	943.874	977.9144	989.8681	1034.9176	1049.1368	1062.1892	1124.2673	1174.4987	1187.2938	1202.9434	1268.0313	1273.1529	1318.6435	1350.481	1366.7775	1415.831	1427.0589	1485.2178	1493.1813	1707.5823	2238.0147	2999.7431	3038.8668	3064.0225	3080.9266	3155.3785	3164.538	3184.1892	3488.2463	3503.235
C#CC12CCC=CC1N2	C#C[C@]12CCC=C[C@H]1N2	
InChI=1S/C8H9N/c1-2-8-6-4-3-5-7(8)9-8/h1,3,5,7,9H,4,6H2	InChI=1S/C8H9N/c1-2-8-6-4-3-5-7(8)9-8/h1,3,5,7,9H,4,6H2/t7-,8+/m1/s1
