15
gdb 11521	4.86571	1.06141	0.96056	3.8226	62.12	-0.2817	0.0063	0.2879	1173.6666	0.117569	-399.778459	-399.770195	-399.769251	-399.811932	28.885	
O	-0.3109649076	 1.3144913316	 0.0721647773	-0.411851
C	 0.0404482455	-0.0488930161	-0.081972298	-0.008728
C	 0.9218278215	-0.3032319199	-1.3216540256	-0.247457
C	 0.1992134825	 0.0999522463	-2.5842272613	 0.087589
C	 0.3349000088	-0.6646612904	-3.8286993678	-0.179267
O	-0.8314561097	-0.7948537008	-3.0132201452	-0.235683
C	 0.691216153	-0.5721162597	 1.1356488074	 0.254421
N	 1.2331486589	-0.9537381387	 2.0822555676	-0.312607
H	 0.4831117525	 1.8081989712	 0.3085071381	 0.295863
H	-0.9072688547	-0.5807366184	-0.2185434741	 0.161371
H	 1.8575599966	 0.2611562691	-1.220167025	 0.113963
H	 1.180686453	-1.3660237612	-1.3659247523	 0.130736
H	-0.0736281347	 1.1524776537	-2.6491095178	 0.11052
H	 0.1831663528	-0.1698846122	-4.7865407749	 0.122609
H	 0.9869287116	-1.5368971545	-3.8544569584	 0.11852
68.8533	78.9033	131.4298	205.5447	253.5599	327.7715	350.9463	407.0907	492.8776	559.4602	594.067	796.0606	847.8671	869.4548	943.0795	965.1182	1006.8034	1086.4412	1102.4802	1124.7204	1161.5021	1169.0626	1217.4471	1276.2313	1296.8336	1316.3748	1358.5343	1421.112	1444.8608	1463.5412	1531.8139	2355.3012	3033.4146	3070.4574	3086.3409	3092.0078	3126.7219	3174.2902	3798.3202
OC(CC1CO1)C#N	O[C@@H](C[C@H]1CO1)C#N	
InChI=1S/C5H7NO2/c6-2-4(7)1-5-3-8-5/h4-5,7H,1,3H2	InChI=1S/C5H7NO2/c6-2-4(7)1-5-3-8-5/h4-5,7H,1,3H2/t4-,5-/m0/s1
