19
gdb 103571	2.34162	1.26248	1.16859	2.8787	71.51	-0.2665	-0.0009	0.2656	1193.2879	0.156491	-460.196438	-460.186496	-460.185552	-460.23145	35.677	
C	-0.0484501156	 1.4194387698	-0.4379408009	-0.400589
C	-0.107010303	-0.0473748556	 0.000960792	-0.203787
C	-1.5168286748	-0.5634945617	 0.2595969567	 0.388273
C	-2.2735126718	 0.1392219381	 1.3701194894	-0.447442
O	-2.3188488784	-0.504325086	-1.0077145268	-0.279714
C	-2.3442830917	-1.8586323225	-1.1198526801	 0.411372
O	-2.7395834517	-2.5267254681	-2.0245312037	-0.340667
C	-1.6618223237	-2.1136974743	 0.2261646923	-0.112894
O	-0.4834557611	-2.8731984037	 0.2018030502	-0.424568
H	 0.9780783596	 1.6959501886	-0.6941754968	 0.119762
H	-0.6739956192	 1.5845749181	-1.3197903621	 0.139307
H	-0.384802385	 2.1002529467	 0.3496909874	 0.118095
H	 0.3541682809	-0.6837082307	-0.7595745992	 0.114162
H	 0.4778560888	-0.1997292682	 0.9160145158	 0.111702
H	-2.3965519259	 1.2026449198	 1.1517310391	 0.140098
H	-3.2684103409	-0.2969804638	 1.4973602231	 0.127303
H	-1.7292102856	 0.0418571124	 2.3149401411	 0.131331
H	-2.3650369325	-2.4798208797	 0.9873320168	 0.102884
H	-0.6029039182	-3.5776142091	-0.4456572243	 0.305372
66.241	88.6377	123.3016	181.9586	213.2416	222.8035	238.9638	297.1521	327.3052	342.5721	450.0286	478.3748	586.2857	639.0086	722.4763	776.6978	808.2794	829.9845	919.7259	949.3705	1005.3709	1023.6698	1064.9806	1108.136	1136.257	1183.6372	1214.9793	1248.1993	1257.8665	1323.1831	1352.6289	1379.7995	1394.2745	1410.0741	1415.9814	1472.5965	1488.8203	1493.6949	1506.4699	1510.823	1923.8999	3008.9005	3042.1775	3045.0292	3047.3224	3088.7001	3113.9606	3115.7001	3122.0016	3128.7376	3801.422
CCC1(C)OC(=O)C1O	CC[C@@]1(C)OC(=O)[C@H]1O	
InChI=1S/C6H10O3/c1-3-6(2)4(7)5(8)9-6/h4,7H,3H2,1-2H3	InChI=1S/C6H10O3/c1-3-6(2)4(7)5(8)9-6/h4,7H,3H2,1-2H3/t4-,6-/m1/s1
