20
gdb 5798	3.47362	1.30754	1.21003	3.4214	71.49	-0.2512	-0.0248	0.2264	1120.2913	0.173263	-386.177263	-386.167492	-386.166547	-386.211551	35.968	
C	-1.3136060695	 0.9481098358	-2.765587805	-0.472054
C	-1.3526869077	-0.4267021414	-2.1304323847	 0.392452
O	-2.2819642028	-1.1845330985	-2.3326881212	-0.316371
C	-0.1869675391	-0.7859835797	-1.2193352078	-0.327906
C	 0.005151555	-2.2985822417	-0.9500370922	 0.35683
C	 0.3843417896	-3.0423171578	-2.2435583594	-0.419855
C	 1.0884182115	-2.4951229831	 0.1129303828	-0.397001
O	-1.1857920085	-2.8431720763	-0.3950367195	-0.472205
H	-1.0864971845	 1.7153187719	-2.0176682911	 0.140999
H	-0.5084359932	 0.9834865545	-3.5091757475	 0.147175
H	-2.2651701073	 1.1648827198	-3.2522502471	 0.145658
H	 0.7310488207	-0.3346102265	-1.6149712096	 0.109127
H	-0.3838076029	-0.2796184205	-0.2629407511	 0.13347
H	 1.3291638925	-2.6734661944	-2.6583331955	 0.101514
H	 0.4952932755	-4.1089165529	-2.0302300568	 0.122793
H	-0.3935171807	-2.9286013659	-3.0036550287	 0.123099
H	 0.8052784755	-1.9928768127	 1.042565191	 0.11589
H	 1.2050802239	-3.5612528973	 0.3267934639	 0.12331
H	 2.0527411835	-2.0998689957	-0.2213273595	 0.10443
H	-1.8918725614	-2.6226452376	-1.0199605211	 0.288644
52.5877	114.9248	139.7063	192.245	211.6831	261.5731	315.4744	317.4607	335.0345	401.1276	447.1772	475.697	499.8293	608.2275	621.3772	773.799	817.848	848.2392	926.6024	929.209	969.6624	977.5459	1010.7531	1037.4488	1146.7752	1168.6452	1198.6828	1239.6845	1280.659	1349.1693	1385.745	1393.0737	1411.6329	1432.7291	1440.0367	1461.2375	1474.8012	1477.8935	1490.4986	1502.0145	1511.4239	1784.9077	3013.3524	3034.198	3036.5429	3040.8944	3061.5176	3097.9103	3105.9022	3114.2901	3117.7073	3123.2774	3153.5776	3719.5128
CC(=O)CC(C)(C)O	CC(=O)CC(C)(C)O	
InChI=1S/C6H12O2/c1-5(7)4-6(2,3)8/h8H,4H2,1-3H3	InChI=1S/C6H12O2/c1-5(7)4-6(2,3)8/h8H,4H2,1-3H3
