20
gdb 111306	2.39881	1.34813	1.14855	2.5794	74.05	-0.236	0.0594	0.2954	1166.5153	0.169423	-440.226049	-440.216757	-440.215813	-440.259648	35.627	
C	-0.2919901161	 1.5804281259	-0.0321033845	-0.460183
C	-0.0002226114	 0.0873881844	 0.056459363	 0.364661
O	-1.1638113817	-0.6194552465	 0.4576865264	-0.475407
C	 0.5635786413	-0.6300389748	-1.1710788239	-0.047329
C	 1.9197876849	-0.1688764468	-1.5066943734	-0.2633
N	 1.7723878161	-1.1673305013	-0.4252055078	-0.16198
C	 1.2797196188	-0.4274593487	 0.8049185874	-0.028344
C	 2.3117243363	 0.4734427743	 1.4590861348	-0.078982
O	 3.4272146726	-0.2862197309	 1.8923939024	-0.422169
H	 0.5643693825	 2.1553040119	-0.3931994043	 0.120353
H	-1.1358402751	 1.7525907962	-0.707008842	 0.131092
H	-0.560645661	 1.9780931111	 0.9546677248	 0.111762
H	-1.4748506196	-0.2389557452	 1.2863673894	 0.278269
H	-0.0383765814	-1.261305607	-1.8159549369	 0.106948
H	 2.3855087451	-0.5900486197	-2.3922574333	 0.127655
H	 2.234331779	 0.8460155978	-1.2808690415	 0.114106
H	 0.9737364691	-1.1915609763	 1.5242950228	 0.097913
H	 2.6252427776	 1.2862876473	 0.7851137912	 0.082208
H	 1.8853233795	 0.946954791	 2.3512611795	 0.105904
H	 3.6538736335	-0.8831320727	 1.169199736	 0.296822
88.4743	144.3124	174.5535	216.0183	262.5006	272.6206	313.4115	320.0009	381.3947	384.9367	487.057	515.3718	562.3412	632.7399	753.2036	771.1444	817.0046	903.7206	924.3665	969.4999	996.0802	1045.9726	1057.6269	1064.6426	1098.4937	1112.6706	1119.5467	1143.3814	1177.8556	1200.7326	1214.9691	1229.5849	1269.0203	1330.3	1338.6916	1384.008	1398.0837	1410.9567	1434.364	1488.3969	1491.5795	1501.8641	1518.3943	2976.5603	3027.8344	3054.0807	3080.4005	3095.0305	3118.0385	3123.5733	3174.3247	3202.4309	3789.9629	3804.1214
CC1(O)C2CN2C1CO	C[C@@]1(O)[C@H]2CN2[C@H]1CO	
InChI=1S/C6H11NO2/c1-6(9)4-2-7(4)5(6)3-8/h4-5,8-9H,2-3H2,1H3	InChI=1S/C6H11NO2/c1-6(9)4-2-7(4)5(6)3-8/h4-5,8-9H,2-3H2,1H3/t4-,5+,6-,7?/m1/s1
