18
gdb 76137	2.25591	1.3574	1.1301	5.2064	69.03	-0.2475	0.0222	0.2697	1149.835	0.146811	-476.24169	-476.23249	-476.231546	-476.275233	34.803	
C	-0.1245139054	 1.6094678606	-0.1704269191	-0.466537
C	-0.0099144673	 0.1048194202	-0.0785658177	 0.383549
O	-1.1442220968	-0.5196156044	 0.4593094603	-0.45333
C	 0.6343070174	-0.7295976425	-1.1383453778	-0.086361
N	 1.24991066	-0.0744325565	-2.2754163507	-0.539568
H	 2.4787139662	 0.7921972971	-1.3332874166	 0.315448
H	 1.7863387135	-0.7412446629	-2.8217941087	 0.256912
H	 0.5514213781	 0.3332135799	-2.8889792578	 0.253976
C	 1.3217540717	-0.5943904142	 0.2242308681	-0.252373
C	 2.6009715693	 0.1617360853	 0.4641179819	 0.405952
O	 3.0384195664	 0.9513479357	-0.5316154157	-0.388687
O	 3.1946725131	 0.0725330262	 1.5082520302	-0.345389
H	 0.7649901921	 2.0717745988	-0.5982936001	 0.142819
H	-0.9977559132	 1.8812018886	-0.7721703288	 0.125444
H	-0.2629684204	 2.0327410632	 0.8310941692	 0.127514
H	-1.2222245301	-0.2484029066	 1.3814226142	 0.2888
H	 0.1468407712	-1.6867459592	-1.3118394891	 0.110318
H	 1.2266794341	-1.4474889992	 0.8845003282	 0.121513
93.5765	154.7133	183.9753	199.4516	246.2688	291.4329	324.1682	348.4329	392.4103	403.779	454.5551	475.4903	540.2445	670.7603	696.2244	785.8011	812.4031	864.9971	943.524	966.0146	976.4859	987.8866	1021.6649	1070.4078	1084.4689	1142.512	1215.2929	1244.5807	1267.7464	1290.8511	1314.5303	1369.8499	1423.0751	1453.0825	1483.9994	1493.5308	1508.0074	1651.3397	1844.323	3037.6151	3095.7622	3125.429	3154.491	3196.7254	3272.4171	3500.1701	3575.9688	3791.9894
CC1(O)C([NH3+])C1C([O-])=O	C[C@@]1(O)[C@@H](N)[C@H]1C(=O)O	
InChI=1S/C5H9NO3/c1-5(9)2(3(5)6)4(7)8/h2-3,9H,6H2,1H3,(H,7,8)	InChI=1S/C5H9NO3/c1-5(9)2(3(5)6)4(7)8/h2-3,9H,6H2,1H3,(H,7,8)/t2-,3-,5-/m0/s1
