19
gdb 17284	4.83598	1.10518	1.02795	1.7716	72.09	-0.2268	0.0792	0.306	1190.1296	0.164981	-365.0034	-364.995062	-364.994118	-365.036696	31.017	
O	-0.0031731545	 1.3794925774	 0.1057566146	-0.418443
C	-0.0288039679	-0.0201034465	 0.1518086728	 0.08791
C	-0.7415000328	-0.7155786376	 1.2849207603	-0.324315
C	-1.3490276091	-0.6820457593	-0.1069778216	-0.00946
C	-2.5824959258	 0.1437328817	-0.3945370843	-0.161524
N	-3.7935737177	-0.6504179742	-0.1961787108	-0.061973
C	-4.3968058787	-0.6011271883	 1.1305367428	-0.214056
C	-5.0310626164	 0.099256551	-0.0206367229	-0.220572
H	 0.6038203392	 1.686494482	 0.7869813265	 0.287635
H	 0.8592236516	-0.501158337	-0.2585599983	 0.085261
H	-0.3433998553	-1.6486218122	 1.6686712785	 0.110149
H	-1.1946709959	-0.0718709319	 2.0321338288	 0.109739
H	-1.3119925118	-1.6111737742	-0.6678827072	 0.095631
H	-2.5729318288	 1.0594007606	 0.2190601556	 0.088953
H	-2.5716911868	 0.4651990429	-1.4434641224	 0.106478
H	-4.8032816008	-1.5367973729	 1.5039579148	 0.113092
H	-3.9219926399	 0.0219978299	 1.8868110015	 0.105163
H	-4.9753667669	 1.1872021868	-0.0294940553	 0.106821
H	-5.9099139321	-0.3144582285	-0.5073965636	 0.113513
58.1117	96.5292	130.8134	246.4828	287.2168	304.0849	369.525	412.8509	482.5853	552.6536	766.5373	776.0815	834.3468	841.1118	883.8196	907.134	935.0029	993.4708	1021.6528	1031.3312	1052.2128	1081.7863	1111.2483	1116.1453	1134.6382	1149.0531	1172.3004	1179.0501	1204.7437	1236.9936	1275.8675	1301.4743	1322.24	1349.9592	1409.7929	1429.2566	1485.4299	1489.0544	1497.5604	1521.8829	2970.9807	3044.0339	3090.4836	3094.781	3096.6711	3128.4731	3155.3101	3172.8594	3187.5607	3217.1591	3807.9969
OC1CC1CN1CC1	O[C@H]1C[C@H]1CN1CC1	
InChI=1S/C6H11NO/c8-6-3-5(6)4-7-1-2-7/h5-6,8H,1-4H2	InChI=1S/C6H11NO/c8-6-3-5(6)4-7-1-2-7/h5-6,8H,1-4H2/t5-,6-/m0/s1
