17
gdb 126293	3.30807	1.141	0.9076	3.6898	78.81	-0.236	-0.0577	0.1783	1281.7321	0.137869	-418.057986	-418.049883	-418.048939	-418.091209	30.139	
C	 0.0339244334	 1.5545633448	 0.1420017434	-0.373735
C	-0.0005325607	 0.0272887257	-0.0471485287	-0.29631
C	-1.4045041801	-0.5238443874	-0.0497849322	 0.321219
C	-2.0378538563	-0.9282913235	-1.1831522319	-0.327448
C	-3.4017846198	-1.4276719973	-1.1520412012	 0.437703
O	-4.0701531894	-1.813069827	-2.0952196295	-0.393393
N	-3.9330353613	-1.433852827	 0.1474793354	-0.262151
N	-3.3468587753	-1.0554250906	 1.2866724603	-0.188206
C	-2.1263376941	-0.6137972809	 1.1893080646	-0.051845
H	 1.0660359446	 1.9162788105	 0.1537580151	 0.124691
H	-0.496997934	 2.0593666627	-0.6705092023	 0.130881
H	-0.4380037333	 1.8511425534	 1.0838610998	 0.126903
H	 0.4932800538	-0.2389569171	-0.9867727406	 0.116083
H	 0.5712523521	-0.4496575451	 0.7584730903	 0.11767
H	-1.5590120119	-0.8984459494	-2.1557921185	 0.12165
H	-4.8808516812	-1.7752256544	 0.2413250333	 0.274505
H	-1.6634026465	-0.3145624376	 2.1238328129	 0.121783
57.1817	133.0385	175.8239	208.5746	290.0184	322.2894	445.3432	474.949	518.4684	567.1017	661.0954	729.2803	746.9202	755.0761	794.2666	902.7941	910.5466	925.9169	982.6256	1026.6419	1069.9081	1092.9599	1152.7292	1198.8766	1248.518	1275.7702	1348.7172	1353.8125	1410.9372	1424.5467	1436.5168	1486.0617	1497.6474	1507.6618	1576.1064	1657.2422	1788.0102	3033.0954	3041.4823	3079.9691	3115.0601	3118.3061	3185.7394	3197.4166	3592.4258
CCC1=CC(=O)NN=C1	CCc1cc(=O)[nH]nc1	
InChI=1S/C6H8N2O/c1-2-5-3-6(9)8-7-4-5/h3-4H,2H2,1H3,(H,8,9)	InChI=1S/C6H8N2O/c1-2-5-3-6(9)8-7-4-5/h3-4H,2H2,1H3,(H,8,9)
