21
gdb 100586	3.01443	0.80792	0.71174	1.7407	84.43	-0.2538	-0.0158	0.238	1676.6221	0.181612	-420.458319	-420.447672	-420.446728	-420.495281	37.451	
C	-0.0544395489	 1.4064714609	 0.3597837806	-0.394838
C	-0.1804607688	-0.0593712356	-0.0635730427	-0.161383
C	-1.6353547396	-0.5211899874	-0.3309654833	-0.100001
C	-2.2767174392	 0.1791858823	-1.5346029488	-0.391489
C	-1.6105394309	-2.0298632427	-0.5666066906	 0.427124
O	-1.3416464661	-2.5307965766	-1.6394472745	-0.364573
N	-1.8768319254	-2.7983002317	 0.5559076675	-0.311888
C	-1.8440837308	-4.1835394289	 0.5699303492	 0.098486
N	-2.0996739036	-4.8171539602	 1.6410561036	-0.46512
H	 0.9882873092	 1.6527535495	 0.5822918636	 0.119827
H	-0.3923823193	 2.0908582549	-0.4234883927	 0.1252
H	-0.6433889913	 1.6121166963	 1.2607847908	 0.114671
H	 0.4092617611	-0.2453519976	-0.9687939821	 0.120127
H	 0.2516039393	-0.6944779934	 0.7199283516	 0.100684
H	-2.229235281	-0.3123715489	 0.5695285913	 0.071733
H	-1.7286256583	-0.0683057301	-2.4469288733	 0.14332
H	-3.3128185786	-0.1449202254	-1.6706530326	 0.120101
H	-2.2796435176	 1.2638860068	-1.4043300887	 0.115326
H	-2.111386456	-2.3522096693	 1.4311883503	 0.26023
H	-1.5856706125	-4.5964233728	-0.4068961196	 0.139964
H	-2.0332466816	-5.8206319202	 1.4808827902	 0.232499
24.925	77.4361	102.9116	163.661	169.1182	203.7679	226.3517	241.0684	294.2628	327.7407	339.0196	453.4354	520.5482	636.9048	708.6616	757.7057	782.9444	835.3016	848.9391	942.975	977.2924	995.9288	1042.0287	1071.0687	1091.2743	1106.6516	1132.1176	1163.3793	1198.6486	1283.1024	1298.3007	1330.753	1361.7118	1385.3129	1394.1563	1409.6646	1415.4766	1485.567	1487.147	1491.6887	1498.341	1506.4306	1510.4532	1726.5489	1794.7237	3009.9034	3026.1093	3035.4496	3050.5237	3067.4422	3102.0393	3111.7191	3118.4595	3125.8338	3135.615	3506.0177	3613.7325
CCC(C)C(=O)NC=N	CC[C@@H](C)C(=O)NC=N	
InChI=1S/C6H12N2O/c1-3-5(2)6(9)8-4-7/h4-5H,3H2,1-2H3,(H2,7,8,9)	InChI=1S/C6H12N2O/c1-3-5(2)6(9)8-4-7/h4-5H,3H2,1-2H3,(H2,7,8,9)/t5-/m1/s1
