16
gdb 19857	3.9439	2.32337	2.00724	1.6665	67.84	-0.2372	0.0265	0.2637	726.272	0.132446	-346.569326	-346.563452	-346.562508	-346.599064	24.018	
C	-0.0551734743	 1.5689811088	 0.0283605017	-0.274207
C	 1.4027263147	 1.9819276378	 0.0256909229	-0.047346
C	 2.2540450839	 0.9552391141	-0.003027845	-0.067363
C	 1.5366156711	-0.3603547279	 0.0049113185	-0.102166
C	 1.3097657984	-1.0757779253	 1.3701230018	 0.017338
O	 0.7841797147	-0.1162654064	 2.2887718655	-0.232222
C	-0.1190726183	-0.7223855847	 1.3596254938	 0.013354
C	 0.009333441	 0.0258203942	 0.015980854	-0.056008
H	-0.5737353277	 1.9505213698	 0.9168377051	 0.114966
H	-0.5888409844	 1.9700110883	-0.8423699558	 0.100224
H	 1.6976227723	 3.0263159237	 0.0503452876	 0.090836
H	 3.3347515822	 1.0444783044	-0.0015086799	 0.091784
H	 1.8373523161	-1.0632994004	-0.7775307529	 0.075865
H	 1.830279461	-1.9291830341	 1.7902383319	 0.099967
H	-0.9802510533	-1.235465657	 1.7736526523	 0.098819
H	-0.5751302875	-0.4394058554	-0.7793380915	 0.07616
168.1751	213.0772	363.9788	463.8447	588.8871	656.0821	733.2465	741.2367	778.7815	828.3064	853.6461	877.0987	892.7671	924.0907	942.4584	969.0874	993.6829	1017.3762	1027.1625	1056.2903	1066.8152	1124.453	1152.0875	1179.0939	1228.4892	1234.1201	1256.4122	1285.6327	1303.4143	1328.5255	1372.874	1391.918	1476.9696	1677.1153	3021.314	3050.1536	3065.4414	3100.657	3169.9958	3174.8754	3185.9945	3201.5877
C1C=CC2C3OC3C12	C1C=C[C@H]2[C@H]3O[C@H]3[C@@H]12	
InChI=1S/C7H8O/c1-2-4-5(3-1)7-6(4)8-7/h1-2,4-7H,3H2	InChI=1S/C7H8O/c1-2-4-5(3-1)7-6(4)8-7/h1-2,4-7H,3H2/t4-,5+,6-,7+/m1/s1
