16
gdb 49988	4.73364	0.90867	0.84996	1.3002	71.76	-0.2552	-0.0417	0.2135	1319.5172	0.121963	-437.879753	-437.871436	-437.870492	-437.913541	30.338	
O	 0.4193775407	 0.0027953835	-0.6160035	-0.278373
C	 0.2056924666	 1.079574729	-0.1179660599	 0.13658
N	 1.1424686201	 1.8321530097	 0.5730440412	-0.111096
C	 2.5313394418	 1.9534874953	 0.1747775884	-0.300542
C	 1.6258354521	 3.1442547377	 0.2159652252	 0.31658
C	 1.1863566413	 4.0147673367	-0.9809970613	-0.423747
C	 1.3795442191	 5.2385646695	-0.0582558295	 0.410078
O	 1.3416000769	 6.418134795	-0.2386966833	-0.278426
C	 1.6763689628	 4.3524428816	 1.1681708052	-0.41846
H	-0.7945607148	 1.5531396849	-0.1004072614	 0.086586
H	 3.2650337436	 1.8072324334	 0.9630379204	 0.133066
H	 2.7998139105	 1.5416950623	-0.7951951833	 0.142287
H	 1.8187291314	 3.9919045016	-1.8725488966	 0.147426
H	 0.143371262	 3.8858177992	-1.2885000018	 0.146024
H	 0.8709036338	 4.3678035575	 1.9097688987	 0.148708
H	 2.6250047919	 4.5509016432	 1.674236168	 0.143309
45.3721	85.2061	163.8435	222.5842	306.4898	341.4846	395.9256	415.4909	477.3826	506.7981	648.7173	665.7998	717.3428	832.5778	880.6493	917.9161	951.7883	1003.9577	1034.9706	1042.2681	1074.9926	1119.4689	1133.1129	1164.7368	1180.1891	1204.8136	1215.693	1253.9508	1415.4019	1419.1963	1421.9203	1452.4667	1513.322	1802.561	1907.216	2952.0304	3055.5415	3060.3747	3107.5011	3112.5553	3114.5121	3197.5559
O=CN1CC11CC(=O)C1	O=CN1CC21CC(=O)C2	
InChI=1S/C6H7NO2/c8-4-7-3-6(7)1-5(9)2-6/h4H,1-3H2	InChI=1S/C6H7NO2/c8-4-7-3-6(7)1-5(9)2-6/h4H,1-3H2
