17
gdb 10348	2.45286	1.80414	1.20932	3.9484	60.61	-0.2505	0.0109	0.2613	1018.2195	0.142138	-438.160505	-438.151771	-438.150827	-438.194258	30.947	
C	-0.8504831668	 1.0464877527	 0.0287536378	-0.326683
N	 0.4225025018	 0.3436172119	-0.132540025	-0.315962
H	 0.3233026764	-0.3988278615	-0.8221300409	 0.242786
H	 2.2167272484	 0.9211013414	-0.3269107647	 0.301358
C	 0.9570036863	-0.2726835578	 1.0883609267	-0.130126
C	 0.378336518	-1.6559542428	 1.4091361924	-0.077017
O	 0.6653698326	-2.5685379974	 0.3608815256	-0.431159
C	 2.4917442787	-0.3785459942	 0.9474942783	 0.42555
O	 3.0070489293	 0.5001433736	 0.0867677605	-0.361613
O	 3.1550678002	-1.1815747335	 1.5547342319	-0.358316
H	-0.7107603212	 1.9014632713	 0.6977881319	 0.133683
H	-1.1749228214	 1.4288641539	-0.9425762995	 0.133222
H	-1.6583798337	 0.421279634	 0.4375248367	 0.116656
H	 0.7643432024	 0.409751032	 1.9273173677	 0.112327
H	 0.77119359	-2.00404962	 2.3710206606	 0.122333
H	-0.7123440768	-1.5967333416	 1.4841236907	 0.110402
H	 1.5967705857	-2.803628292	 0.4530849895	 0.302562
67.7591	96.065	134.1149	188.1249	207.5237	271.7067	315.5542	390.5052	480.362	487.2562	587.8217	599.5048	756.922	795.2147	864.0342	885.424	965.2454	995.7993	1041.1409	1095.3473	1130.2069	1163.5666	1178.917	1221.0948	1241.8666	1300.8304	1337.1326	1393.898	1413.3376	1435.8652	1462.9618	1483.3551	1490.0728	1497.9971	1517.9616	1851.4772	2992.0005	3028.4964	3043.257	3076.1306	3089.3157	3117.3057	3418.1719	3489.3296	3791.3252
C[NH2+]C(CO)C([O-])=O	CN[C@@H](CO)C(=O)O	
InChI=1S/C4H9NO3/c1-5-3(2-6)4(7)8/h3,5-6H,2H2,1H3,(H,7,8)	InChI=1S/C4H9NO3/c1-5-3(2-6)4(7)8/h3,5-6H,2H2,1H3,(H,7,8)/t3-/m0/s1
