24
gdb 121433	3.18536	0.66884	0.5766	0.6642	90.89	-0.2399	0.0362	0.2761	2048.8828	0.214372	-405.570538	-405.558781	-405.557837	-405.609366	40.636	
C	-1.1551419256	 1.7396246949	-0.7027171884	-0.379883
C	-0.8063312183	 0.2649361415	-0.4922030143	-0.148712
C	-2.0152275016	-0.5779076097	-0.0656467934	-0.143705
N	-1.6533037195	-1.9779174465	 0.0282851692	-0.298715
C	-1.8760136079	-2.6414829721	 1.0837217023	 0.404101
C	-2.5260707447	-2.1978194075	 2.3763846052	-0.48819
O	-1.5274986867	-3.9473159527	 1.1642993769	-0.255191
C	-0.903569933	-4.5238842889	 0.0101444255	-0.026462
C	-0.6049827197	-5.9769229953	 0.3320646825	-0.391018
H	-0.2758236187	 2.3165366527	-1.0049761668	 0.112323
H	-1.9155144569	 1.8608258708	-1.4826546693	 0.113493
H	-1.5495234228	 2.1932479663	 0.2138225782	 0.111074
H	-0.3932080334	-0.1653078084	-1.4114918743	 0.104671
H	-0.0230301098	 0.1681385141	 0.270007866	 0.092383
H	-2.4361428466	-0.1622399441	 0.8634728395	 0.078854
H	-2.7980774325	-0.4783286066	-0.8317264728	 0.098574
H	-3.572459896	-1.9243574134	 2.2105542337	 0.143316
H	-2.486997109	-3.0065549747	 3.1060074635	 0.139875
H	-2.0187212703	-1.3220811047	 2.7901992263	 0.142461
H	-1.573769836	-4.4228416803	-0.8504222649	 0.112115
H	 0.005127975	-3.9603877203	-0.2276446219	 0.11198
H	-0.1255431156	-6.45805008	-0.5257783608	 0.117416
H	 0.066692692	-6.0568526593	 1.1917565384	 0.124599
H	-1.5240212725	-6.522996216	 0.56402135	 0.124639
29.6531	54.9401	79.0227	90.4869	108.0446	156.9959	187.3022	238.9891	257.8097	288.0198	303.1257	360.0122	443.8009	485.4031	580.8581	637.2649	755.3897	809.5045	829.8306	892.2677	898.8841	918.0171	1003.1052	1045.3484	1053.2958	1076.5338	1102.6314	1126.4462	1160.1257	1171.9278	1184.2164	1267.6664	1285.7031	1292.823	1319.1462	1331.8655	1386.1484	1395.0973	1405.2566	1413.6085	1420.8254	1478.7612	1483.6143	1485.4232	1490.9785	1496.4861	1500.7283	1500.9715	1514.6751	1521.21	1747.7088	2973.7972	3010.3485	3027.7285	3031.4193	3042.6082	3043.6776	3053.5024	3066.5202	3076.728	3095.1939	3102.3054	3113.7068	3117.7312	3121.0556	3154.0285
CCCN=C(C)OCC	CCCN=C(C)OCC	
InChI=1S/C7H15NO/c1-4-6-8-7(3)9-5-2/h4-6H2,1-3H3	InChI=1S/C7H15NO/c1-4-6-8-7(3)9-5-2/h4-6H2,1-3H3
