17
gdb 18734	2.94774	2.45493	1.67259	3.4951	63.32	-0.2392	0.0618	0.301	804.8998	0.144947	-400.970681	-400.963973	-400.963029	-401.001356	26.684	
O	 0.1102481974	 1.3651999321	-0.1607843953	-0.437888
C	 0.0410301148	-0.0362340552	 0.0028447933	 0.131927
C	 0.7636362486	-0.4974205686	 1.2752535959	-0.102805
O	 0.0123465605	-0.2076953094	 2.4431253638	-0.243553
C	-1.1423137635	-1.0127655602	 2.5509027333	-0.084171
C	-2.0211493764	-0.9416765739	 1.3187007483	-0.031569
N	-2.2970684204	 0.4029503098	 0.796456586	-0.337593
C	-1.4195599891	-0.5035161448	 0.0298111849	-0.077614
H	-0.5888138743	 1.7150966129	 0.4111388617	 0.292953
H	 0.5498318075	-0.4791855975	-0.8615067703	 0.078711
H	 0.9791700643	-1.5788340554	 1.2153312488	 0.076166
H	 1.707223784	 0.0455976538	 1.3709305554	 0.116542
H	-0.8628770364	-2.0681955477	 2.7195607112	 0.087233
H	-1.6844345057	-0.6592746166	 3.433949838	 0.114617
H	-2.8229890237	-1.6772576564	 1.2857345897	 0.088695
H	-3.2202400498	 0.4485180173	 0.3762179489	 0.238307
H	-1.8157169479	-0.9201246503	-0.8918376736	 0.090042
116.9961	245.2279	286.2193	353.6826	421.3068	453.9944	474.6015	508.2897	684.6786	763.1204	783.6851	807.5399	874.1287	895.2972	945.1475	963.1848	978.0463	1059.1732	1069.0983	1104.8351	1121.7905	1145.6379	1165.0583	1208.1559	1241.1106	1275.6618	1302.6056	1327.9289	1347.9225	1365.5654	1397.5503	1419.189	1454.0681	1456.5292	1478.5174	1489.0419	2949.3941	2955.4135	3043.1069	3074.1219	3101.7121	3123.0056	3146.4376	3521.0577	3725.3789
OC1COCC2NC12	O[C@H]1COC[C@H]2N[C@@H]12	
InChI=1S/C5H9NO2/c7-4-2-8-1-3-5(4)6-3/h3-7H,1-2H2	InChI=1S/C5H9NO2/c7-4-2-8-1-3-5(4)6-3/h3-7H,1-2H2/t3-,4+,5-/m1/s1
