21
gdb 61243	3.09619	0.90968	0.85875	4.1404	84.28	-0.2364	0.0257	0.2621	1454.2609	0.181366	-383.25719	-383.247244	-383.2463	-383.292256	36.354	
C	-0.7137885286	 1.3755037846	 0.4888003125	-0.408335
C	-0.2470308066	-0.0457464093	 0.2648678703	-0.012117
C	 1.0906967285	-0.3103836172	-0.3864096733	-0.319534
C	 0.8810527952	-0.6560607243	 1.0665198633	 0.03714
N	 1.5517498174	 0.1355123341	 2.0625896212	-0.065973
C	 0.8819154074	 0.0793096949	 3.3588771026	-0.339238
C	 2.9658422185	-0.2089836632	 2.1535844469	-0.272846
C	 3.7253066956	 0.7778417962	 2.9319100928	 0.269583
N	 4.3296233961	 1.5439692308	 3.5501017237	-0.309628
H	 0.1068787134	 2.0033370441	 0.8439755775	 0.134574
H	-1.0988254804	 1.8066085275	-0.4414247175	 0.11786
H	-1.5188847956	 1.4203865717	 1.2305938293	 0.114939
H	-1.0374247527	-0.745094703	 0.0047699642	 0.087801
H	 1.1861623212	-1.1172436788	-1.1042369119	 0.1146
H	 1.7063683326	 0.5589788996	-0.5948037384	 0.120897
H	 0.7798277646	-1.7219599477	 1.3015370834	 0.070438
H	 0.8739709601	-0.9388292128	 3.789888992	 0.098271
H	 1.382213013	 0.7468414972	 4.0657231153	 0.145482
H	-0.1520824971	 0.4106286626	 3.2442874484	 0.133156
H	 3.1427023742	-1.2040256256	 2.6060417931	 0.126132
H	 3.383337313	-0.2421437315	 1.1424587049	 0.156801
57.9211	94.5592	128.0663	194.4747	206.8683	227.578	250.8415	329.9508	353.7285	368.3483	395.1996	462.7454	514.8855	611.744	772.2447	810.866	853.6262	888.8386	931.9827	966.1649	994.8765	1013.876	1050.0676	1076.4513	1109.5506	1130.0451	1153.0652	1159.1381	1187.6409	1198.9225	1233.9728	1261.7145	1306.6346	1380.2677	1383.2408	1413.5853	1420.1228	1460.9494	1474.6465	1487.218	1496.2007	1500.0552	1501.7393	1508.2892	2364.7597	2921.4412	2942.3655	3022.7524	3033.505	3081.1981	3084.3986	3089.985	3120.4907	3130.8615	3133.4234	3143.4267	3218.989
CC1CC1N(C)CC#N	C[C@H]1C[C@H]1N(C)CC#N	
InChI=1S/C7H12N2/c1-6-5-7(6)9(2)4-3-8/h6-7H,4-5H2,1-2H3	InChI=1S/C7H12N2/c1-6-5-7(6)9(2)4-3-8/h6-7H,4-5H2,1-2H3/t6-,7+/m0/s1
