14
gdb 28861	3.4298	1.39344	1.05496	2.9473	75.8	-0.2475	-0.0778	0.1697	1070.7997	0.103492	-432.897535	-432.890408	-432.889464	-432.929495	27.014	
O	-0.0869052129	 1.2129472945	-0.4884013991	-0.380284
C	 0.0338913507	-0.0696945522	-0.1159681615	 0.417682
N	 1.2189993543	-0.5796880343	-0.1021222285	-0.365591
C	 1.4896431201	-1.8645764192	 0.3175927347	 0.070995
N	 0.7965418095	-2.943333202	 0.3352537107	-0.275351
C	-0.5413047367	-3.0469336382	-0.064791843	 0.29287
N	-1.0167038787	-4.0868823867	-0.6343423576	-0.495454
C	-1.4931988169	-1.9740729787	 0.2862280414	-0.058657
C	-1.2441187109	-0.6560252231	 0.2593627499	-0.136576
H	 0.8099684083	 1.521361889	-0.6917617153	 0.307453
H	 2.5213848506	-1.9646774376	 0.6588893143	 0.125815
H	-0.2569228465	-4.7534047685	-0.7974288319	 0.224163
H	-2.4967512392	-2.3178871411	 0.5182184773	 0.142029
H	-2.0410778416	 0.0539335381	 0.4527037586	 0.130907
62.8742	186.0555	277.5674	351.9793	353.6108	399.8114	472.1285	528.6681	596.7833	655.9681	737.1694	766.6349	780.4497	849.437	861.3847	914.7756	935.1041	1007.5912	1022.073	1048.0586	1136.2639	1209.3042	1295.8729	1351.768	1371.9043	1449.7945	1465.8634	1610.092	1662.9249	1679.7541	1711.0145	3118.1599	3179.5472	3198.3293	3444.7295	3734.209
OC1=NC=NC(=N)C=C1	OC1=NC=N[C]([NH])C=C1	
InChI=1S/C5H5N3O/c6-4-1-2-5(9)8-3-7-4/h1-3H,(H2,6,7,8,9)	InChI=1S/C5H5N3O/c6-4-1-2-5(9)8-3-7-4/h1-3H,(H2,6,7,8,9)
