12
gdb 130695	3.43068	1.67129	1.13181	4.7856	62.38	-0.2803	-0.0763	0.2039	953.6469	0.079021	-468.802142	-468.795448	-468.794504	-468.83337	24.733	
O	-0.0550528663	-0.0832304754	 0.0039109207	-0.356327
C	 0.0056193594	 1.1202940914	 0.0093977518	 0.36856
N	-1.0551309606	 2.0136575854	 0.0284137383	-0.354952
C	-0.7227322234	 3.4415061957	 0.0312289284	-0.283711
C	 0.7664003194	 3.3369121748	 0.0101713398	 0.245419
C	 1.1814639202	 2.0485407169	-0.0021640401	 0.255225
O	 2.4878492392	 1.9778630222	-0.0205718738	-0.240991
N	 2.9150363533	 3.4237000557	-0.0193142609	-0.016049
N	 1.8791434209	 4.1252591182	-0.0010461142	-0.18996
H	-2.0017422843	 1.670473785	 0.0395994035	 0.269686
H	-1.1317710061	 3.9536161559	-0.8483956488	 0.151552
H	-1.1073152016	 3.9444102442	 0.9270482553	 0.151548
131.4653	191.8894	264.1618	294.7495	374.9398	432.4854	548.6905	628.7529	634.6174	652.4612	677.5171	786.8947	794.1151	990.0803	1020.0186	1039.8326	1125.8322	1173.3113	1178.9242	1313.1094	1366.865	1435.4303	1449.1989	1479.6912	1504.5649	1602.9986	1847.1408	3027.3793	3059.4484	3659.6922
O=C1NCC2=C1ON=N2	O=C1NCc2c1onn2	
InChI=1S/C4H3N3O2/c8-4-3-2(1-5-4)6-7-9-3/h1H2,(H,5,8)	InChI=1S/C4H3N3O2/c8-4-3-2(1-5-4)6-7-9-3/h1H2,(H,5,8)
