19
gdb 52121	4.35211	0.84803	0.81365	4.282	77.35	-0.2656	0.0104	0.2761	1447.4462	0.158888	-423.018267	-423.009605	-423.008661	-423.052877	31.613	
O	 0.2267549151	 0.2396786141	 0.857436486	-0.276625
C	 0.2938048596	 1.4157227921	 0.6600189579	 0.178752
O	 0.8041673119	 1.9402494442	-0.4670099292	-0.171908
C	 0.9071526802	 3.3766597557	-0.555040966	-0.222472
C	 2.2988600062	 3.839163116	-0.2725719556	 0.379414
C	 2.8009816124	 4.1125342376	 1.1210068955	-0.320268
C	 2.7925348331	 5.2375065089	 0.1232103786	-0.103708
C	 3.9876958371	 5.1069958344	-0.8291035645	-0.219149
C	 3.4930551941	 3.6770145592	-1.2270591521	-0.285862
H	-0.0666237377	 2.1882841188	 1.3687693062	 0.070212
H	 0.6030519162	 3.6226198753	-1.5769252924	 0.12227
H	 0.1925859801	 3.8437470567	 0.1357830346	 0.109239
H	 2.0381168196	 4.1715425632	 1.891729656	 0.110366
H	 3.7410276888	 3.6819271545	 1.4585621822	 0.114275
H	 2.2129428157	 6.1376865723	 0.2923849189	 0.089968
H	 3.9491571411	 5.8053355271	-1.6675562769	 0.107692
H	 4.9748273771	 5.1779046433	-0.3616899749	 0.102394
H	 4.1623690614	 2.8385941763	-1.0141276931	 0.107747
H	 3.190218328	 3.6207347803	-2.2755175713	 0.107663
43.5445	56.7918	141.9862	182.3433	253.2188	301.1462	361.2803	396.5138	431.831	656.0755	685.4787	730.8779	782.9353	853.0341	897.632	937.2009	940.4022	958.8856	970.8237	1012.6968	1034.939	1038.9718	1048.7975	1083.5453	1112.8049	1138.901	1164.4675	1222.107	1241.7712	1244.6186	1270.9261	1299.0865	1335.071	1386.8344	1410.3806	1436.4313	1481.6393	1483.7811	1491.6457	1511.0735	1865.3252	2934.4506	3019.0203	3050.826	3059.0021	3084.7293	3099.6396	3106.9626	3118.0885	3177.0637	3195.9566
O=COCC12CC1CC2	O=COC[C@]12C[C@H]1CC2	
InChI=1S/C7H10O2/c8-5-9-4-7-2-1-6(7)3-7/h5-6H,1-4H2	InChI=1S/C7H10O2/c8-5-9-4-7-2-1-6(7)3-7/h5-6H,1-4H2/t6-,7+/m1/s1
