18
gdb 41460	3.32054	1.68087	1.32449	3.8721	76.29	-0.244	0.0223	0.2662	984.7003	0.150093	-401.917038	-401.910099	-401.909154	-401.948241	27.942	
C	 0.0979246367	 1.4964406853	 0.4435433037	-0.221093
C	 1.4956602503	 1.5938484014	-0.2414290667	-0.297608
C	 1.323266159	 0.1686941882	-0.842175251	 0.200951
C	 2.0125550657	-0.3410882183	-2.1064289697	-0.359797
C	 3.0907450727	-1.3120483432	-1.4789423182	-0.158565
N	 2.51555445	-1.8198355008	-0.1955615103	-0.329787
C	 1.6305806048	-0.9611640972	 0.0686530998	 0.433777
O	 0.5107126008	-0.9209164041	 0.8520656979	-0.292254
C	-0.0746225314	 0.0694875007	-0.0863166165	 0.012133
H	 0.0744297023	 1.5671568394	 1.5321734481	 0.124565
H	-0.6322053636	 2.1927181674	 0.0236890561	 0.113258
H	 1.5297724952	 2.3624775923	-1.0170788917	 0.112252
H	 2.3576855047	 1.7302644693	 0.4165834545	 0.116104
H	 1.3275997774	-0.9185505986	-2.7355476823	 0.118086
H	 2.4481245488	 0.4521799192	-2.7198294222	 0.104033
H	 3.3000660923	-2.1642303951	-2.1306443437	 0.115079
H	 4.04312383	-0.7968484228	-1.3002525148	 0.108863
H	-1.0215463058	-0.299776553	-0.479451403	 0.100004
127.4827	185.0555	258.476	297.1165	368.9085	475.0988	556.8534	657.1618	709.0984	727.6692	742.5822	806.4684	842.3996	852.9364	879.4541	900.5302	949.5142	968.7175	982.0537	995.7992	1076.8359	1107.4201	1117.6581	1157.3783	1185.7392	1211.7709	1225.9022	1232.5309	1248.1195	1278.8287	1288.5784	1296.2179	1326.5655	1353.0322	1464.7505	1477.2139	1492.0392	1504.7872	1775.0163	3028.2086	3052.7728	3061.5104	3072.4672	3090.8051	3106.37	3109.3245	3122.9927	3134.8719
C1CC23CCN=C2OC13	C1C[C@@]23CC[N][C]2O[C@@H]13	
InChI=1S/C7H9NO/c1-2-7-3-4-8-6(7)9-5(1)7/h5H,1-4H2	InChI=1S/C7H9NO/c1-2-7-3-4-8-6(7)9-5(1)7/h5H,1-4H2/t5-,7-/m0/s1
