21
gdb 89072	4.74632	0.68817	0.64863	1.1795	80.42	-0.2382	0.0792	0.3175	1772.6537	0.180838	-424.175462	-424.165801	-424.164856	-424.211316	35.476	
O	-0.1050280113	 1.422001065	-0.0875095514	-0.4179
C	-0.086894837	 0.0310914354	 0.0741518671	 0.092239
C	-0.6755242024	-0.5873599824	 1.3151920812	-0.315579
C	-1.4035172316	-0.6872074134	-0.0115146442	-0.036122
C	-2.6783205973	 0.0841993593	-0.2191537933	-0.075003
O	-3.741670821	-0.6313331641	 0.3986838218	-0.254833
C	-4.9763530227	-0.0105236127	 0.2413369793	 0.156653
C	-5.7689268104	-0.2467743282	-1.0209429648	-0.286719
C	-6.1778270855	-0.8957686335	 0.2881228602	-0.287924
H	 0.5235483681	 1.7992693789	 0.5363967726	 0.288624
H	 0.7737325944	-0.4626122954	-0.3772670109	 0.086521
H	-0.2151654173	-1.4753206007	 1.7340328024	 0.111224
H	-1.0997065543	 0.0946701075	 2.0449033019	 0.116997
H	-1.3860586175	-1.6561768452	-0.5016163999	 0.091403
H	-2.5877098392	 1.0908735252	 0.2116590093	 0.098442
H	-2.8846182016	 0.2072935134	-1.2936009345	 0.091647
H	-5.0444649232	 0.9773329883	 0.7008788477	 0.078488
H	-6.3747796951	 0.5596430774	-1.4194960861	 0.110198
H	-5.3188607439	-0.8917564674	-1.7674188635	 0.116953
H	-5.9867242983	-1.9576372632	 0.3922451004	 0.123473
H	-7.0662140527	-0.5396080439	 0.7972804248	 0.11122
41.29	54.0772	106.7436	119.9617	215.819	255.2842	299.5601	360.5905	413.1672	444.5997	483.213	579.3853	755.3758	773.5007	815.4413	830.0551	838.2877	905.8399	924.1279	959.2393	986.6587	998.9771	1045.581	1049.8798	1069.9555	1076.7727	1089.8951	1128.7983	1134.8516	1177.2689	1178.6778	1193.6288	1208.7171	1238.4516	1243.7283	1266.2305	1304.1723	1353.9912	1393.2885	1421.5313	1446.1597	1452.8027	1489.1645	1498.8209	1520.8769	2983.3379	3029.4402	3081.7058	3096.1494	3132.2487	3134.2344	3141.2828	3152.9389	3218.6242	3221.2945	3233.7224	3809.1491
OC1CC1COC1CC1	O[C@H]1C[C@H]1COC1CC1	
InChI=1S/C7H12O2/c8-7-3-5(7)4-9-6-1-2-6/h5-8H,1-4H2	InChI=1S/C7H12O2/c8-7-3-5(7)4-9-6-1-2-6/h5-8H,1-4H2/t5-,7-/m0/s1
