18
gdb 69666	3.56757	1.4748	1.21547	2.2354	79.36	-0.2222	0.0009	0.2231	1055.3152	0.148046	-401.869971	-401.862387	-401.861443	-401.901777	29.809	
C	 0.0104344125	 1.5692018239	 0.2552718456	-0.51289
C	 0.1049534909	 0.0987961297	-0.0103511398	 0.275621
N	-0.8616468082	-0.8635922362	 0.5534369444	-0.352965
C	 0.6018743172	-1.0427470377	 0.8443270773	-0.231768
C	 1.0665260347	-1.772508497	-0.3912272988	 0.255827
C	 0.9644061874	-2.8674590983	-1.1303212825	-0.231087
C	 0.6495684832	-2.4050500506	-2.5526750264	-0.10772
O	 0.2697976781	-1.0158097886	-2.4442638893	-0.281297
C	 0.8279733389	-0.5592227845	-1.2337212681	 0.075377
H	 0.9341155679	 2.0810706113	-0.0341825265	 0.127483
H	-0.812799044	 2.0170050556	-0.3131707828	 0.137684
H	-0.1678874419	 1.7702314319	 1.3177224027	 0.11684
H	-1.2676782189	-0.4098820016	 1.375135887	 0.224505
H	 0.9752925266	-1.0448049713	 1.8597572646	 0.103391
H	 0.9501837941	-3.9079886393	-0.8332649044	 0.108571
H	 1.5004043994	-2.5090171588	-3.2461989848	 0.100717
H	-0.1946653814	-2.9634378479	-2.9756020513	 0.119221
H	 1.7385227234	 0.0399470395	-1.4128020271	 0.072491
129.3398	188.1915	200.7476	240.0913	279.6437	336.7508	481.0298	541.5456	620.3676	686.4375	695.8946	777.0956	807.0376	825.1617	893.7379	900.6341	924.3461	949.5505	972.8975	984.4937	1019.2077	1061.897	1082.36	1094.3564	1123.2285	1134.1388	1189.9536	1212.9575	1262.4335	1270.7856	1316.3979	1330.4877	1372.1224	1408.1679	1433.7119	1481.6268	1496.1951	1507.9191	1732.8025	2942.6181	2966.2158	3024.2672	3044.3314	3087.9153	3096.8969	3204.279	3218.6949	3433.5552
CC12NC1C1=CCOC21	C[C@]12N[C@H]1[C]1[CH]CO[C@@H]21	
InChI=1S/C7H9NO/c1-7-5(8-7)4-2-3-9-6(4)7/h2,5-6,8H,3H2,1H3	InChI=1S/C7H9NO/c1-7-5(8-7)4-2-3-9-6(4)7/h2,5-6,8H,3H2,1H3/t5-,6+,7-/m0/s1
