17
gdb 73550	2.62632	1.96884	1.59099	1.3596	67.68	-0.2356	0.0647	0.3003	890.423	0.136183	-458.867328	-458.860199	-458.859255	-458.898537	28.948	
O	 0.2650059388	 1.4159135684	 0.0956190867	-0.481012
C	 0.1224199083	 0.0261629857	 0.0148461144	 0.403073
C	 0.6777981482	-0.6119886787	-1.2560088185	-0.177786
O	-0.4638946189	-0.6120404717	-2.153128474	-0.291027
C	-1.6987297938	-0.7934059854	-1.425349656	-0.197617
C	-1.2861177047	-0.6305455925	 0.0087925888	 0.317676
C	-1.5559231736	-0.0920831214	 1.4326924287	-0.314988
C	-0.1118880212	-0.6991444706	 1.3699876458	-0.0148
O	-0.6603528655	-1.8384915188	 0.6225068455	-0.337635
H	 0.1362342208	 1.7826535002	-0.7866704997	 0.292511
H	 1.4525483468	-0.006647977	-1.7328452115	 0.106679
H	 1.0454064658	-1.6279027585	-1.0937640082	 0.123
H	-2.415106705	-0.0331515781	-1.755283173	 0.115527
H	-2.1156299162	-1.7887277338	-1.6197494801	 0.120878
H	-1.6541056104	 0.9858579197	 1.5547708615	 0.1235
H	-2.2612743292	-0.6737214403	 2.025903931	 0.112902
H	 0.57711597	-0.911841387	 2.1881859986	 0.099119
122.3836	213.5607	309.7903	331.708	356.4838	410.7746	479.9757	519.2372	601.1413	620.1243	718.8552	772.6695	797.1532	854.7149	876.5277	900.9689	941.6134	963.4584	982.4417	1015.0046	1037.1606	1077.6738	1112.8852	1126.6001	1186.9634	1191.6193	1201.5596	1217.4632	1238.1164	1263.0124	1286.6042	1342.6332	1377.104	1393.2476	1475.9957	1494.1635	1503.6088	3029.3989	3062.4051	3075.0131	3091.7653	3114.5839	3115.5143	3175.611	3797.9328
OC12COCC11CC2O1	O[C@]12COC[C@@]31C[C@H]2O3	
InChI=1S/C6H8O3/c7-6-3-8-2-5(6)1-4(6)9-5/h4,7H,1-3H2	InChI=1S/C6H8O3/c7-6-3-8-2-5(6)1-4(6)9-5/h4,7H,1-3H2/t4-,5-,6+/m1/s1
