20
gdb 7155	4.37696	0.79146	0.69977	1.814	80.99	-0.2476	0.0414	0.2889	1671.184	0.174022	-348.986255	-348.975627	-348.974683	-349.023531	36.176	
C	-0.1140035775	 1.5788162586	 0.0037598223	-0.387392
C	-0.0071562513	 0.0518908907	 0.0032386642	-0.163928
C	 0.7328866271	-0.4932369144	-1.2212289945	-0.166998
C	 0.7840269665	-2.0334285835	-1.2538176574	-0.068625
O	-0.5252171984	-2.6074122242	-1.2320372689	-0.417315
C	 1.5669064895	-2.5196247978	-2.3932940194	 0.033771
C	 2.1766139297	-2.8969014947	-3.3615657532	 0.09513
C	 2.9252191927	-3.3684391443	-4.5176869313	-0.499722
H	 0.8759908323	 2.0487311189	-0.0063101662	 0.112015
H	-0.657263457	 1.9385904982	-0.8773902585	 0.112296
H	-0.6443211077	 1.9398415029	 0.8905332576	 0.112162
H	 0.5100929458	-0.2807473411	 0.9133154634	 0.092654
H	-1.0052422362	-0.3969306621	 0.0391372439	 0.112667
H	 0.2490893633	-0.1443869279	-2.1439492632	 0.090427
H	 1.7611057791	-0.1114411586	-1.2492565735	 0.101972
H	 1.2478119226	-2.3836597383	-0.3221576553	 0.110273
H	-0.8911707076	-2.5096369803	-2.1181544356	 0.28078
H	 2.4723103646	-4.2717270783	-4.9410467701	 0.150796
H	 2.9613579308	-2.6118541417	-5.3091920224	 0.147708
H	 3.9577384116	-3.6139216622	-4.245724772	 0.15133
20.754	73.6041	82.7256	90.018	159.9358	206.6122	250.1024	268.3503	303.8007	334.0013	350.4209	418.7643	545.483	555.8169	748.3541	787.862	855.5245	906.5855	952.7578	1040.5321	1051.548	1054.6764	1075.6951	1105.2894	1120.7644	1172.9477	1239.941	1269.3526	1292.6643	1331.4583	1353.083	1389.6708	1412.2752	1413.3934	1421.0428	1476.6077	1477.3463	1478.8608	1494.8598	1499.905	1511.4535	2365.58	3011.5442	3019.9898	3026.0933	3027.6975	3029.0291	3055.9711	3074.7597	3088.6407	3089.3716	3097.6422	3101.3538	3804.2046
CCCC(O)C#CC	CCC[C@@H](O)C#CC	
InChI=1S/C7H12O/c1-3-5-7(8)6-4-2/h7-8H,3,5H2,1-2H3	InChI=1S/C7H12O/c1-3-5-7(8)6-4-2/h7-8H,3,5H2,1-2H3/t7-/m1/s1
