18
gdb 15013	4.36752	1.42089	1.14184	1.7309	63.89	-0.2616	0.0874	0.349	1034.8976	0.15557	-422.075352	-422.067841	-422.066897	-422.107175	28.515	
O	 0.0329260317	 1.4120600761	 0.1025343787	-0.425023
C	 0.0474342763	 0.0046162142	-0.0064546135	-0.069902
C	-1.3630199686	-0.5686068225	-0.0283683692	 0.102439
C	-1.4262383542	-2.0955149525	-0.1155533755	-0.218942
C	-2.8705489849	-2.5503760206	 0.1183291055	-0.091798
O	-3.3803329562	-1.9924047958	 1.3233017909	-0.230465
C	-3.3000735108	-0.5951491806	 1.3041383868	 0.017512
O	-1.9787476517	-0.1311203308	 1.18977455	-0.267955
H	-0.554115424	 1.611411727	 0.841625091	 0.290798
H	 0.5611603349	-0.2435833461	-0.9412322362	 0.106953
H	 0.6057960751	-0.461661109	 0.8215288528	 0.092136
H	-1.9126533107	-0.1238441319	-0.8759947498	 0.073384
H	-1.0719235714	-2.4394172815	-1.0938101259	 0.10266
H	-0.7801235486	-2.5294896773	 0.6555921215	 0.114333
H	-3.5048795449	-2.245171308	-0.7313357144	 0.091366
H	-2.9425617735	-3.6356239295	 0.2230738644	 0.115637
H	-3.9068742012	-0.1934446577	 0.4694753913	 0.077395
H	-3.6852382874	-0.2359922735	 2.2604894215	 0.119474
112.0908	142.6193	214.554	260.0192	369.8159	374.3658	436.9802	490.4894	498.8658	518.2765	678.2449	815.1389	870.9149	929.5032	947.7633	992.7437	1054.8557	1063.7982	1088.4613	1093.6813	1123.8142	1169.9402	1191.2161	1235.6411	1241.6014	1274.7699	1303.0951	1335.6099	1367.9326	1386.5492	1398.1687	1403.1065	1441.0984	1451.7083	1468.4083	1497.6972	1498.6525	1510.848	2917.6421	2956.7192	2967.5397	2979.4911	3040.016	3075.8407	3089.7076	3098.9153	3113.698	3794.8108
OCC1CCOCO1	OC[C@H]1CCOCO1	
InChI=1S/C5H10O3/c6-3-5-1-2-7-4-8-5/h5-6H,1-4H2	InChI=1S/C5H10O3/c6-3-5-1-2-7-4-8-5/h5-6H,1-4H2/t5-/m1/s1
