19
gdb 30142	3.75743	1.06738	1.03938	2.9236	82.98	-0.2006	0.0395	0.2401	1236.8368	0.161031	-382.071112	-382.062807	-382.061862	-382.104507	31.813	
C	-0.2683329623	 1.4873281462	-0.2082135939	-0.309798
N	-0.1419317144	 0.0582029261	 0.0371072348	-0.088734
C	 1.147783068	-0.5541615495	-0.2459507107	-0.26047
C	 0.6992784987	-0.3998820918	 1.1684743267	-0.109507
C	 1.3678864266	 0.5169667973	 2.1217951743	 0.293808
C	 0.9991711465	 0.6557183238	 3.4456823886	-0.18198
N	 1.8271721585	 1.5775680126	 4.0289906328	-0.23552
C	 2.7293161439	 2.0400407713	 3.1058256433	-0.074436
C	 2.4730770332	 1.4015405027	 1.9162418475	-0.25989
H	 0.644446261	 2.0687553486	-0.0110059293	 0.106491
H	-0.5534797528	 1.6357504392	-1.2550378644	 0.115481
H	-1.0672234131	 1.8909756647	 0.422342897	 0.117715
H	 1.1238906376	-1.5280378863	-0.7297213895	 0.107148
H	 1.9567788228	 0.0928722046	-0.5835456282	 0.103306
H	 0.2663292443	-1.2761291711	 1.6479804078	 0.080612
H	 0.218639235	 0.168909759	 4.0086900466	 0.119363
H	 1.7854605381	 1.8635688335	 4.9911226297	 0.262395
H	 3.4751868138	 2.7710016794	 3.3731190603	 0.119507
H	 3.0283364244	 1.5374144496	 1.0013926469	 0.094508
44.0867	122.7639	174.9233	209.9204	289.1406	356.2535	432.492	479.793	492.3006	629.1386	640.856	681.1407	703.5909	748.7835	790.6523	829.042	860.5693	904.9886	947.6023	994.2606	1032.9379	1077.8886	1094.901	1110.3528	1129.4541	1139.0716	1163.6028	1168.192	1207.2137	1258.362	1291.7272	1334.4636	1391.4837	1424.2032	1451.1032	1466.4761	1492.0238	1496.1476	1509.7891	1524.3339	1601.379	2992.9176	3067.8172	3084.9515	3097.7404	3112.4163	3165.8636	3248.3428	3259.4126	3271.193	3686.569
CN1CC1C1=CNC=C1	CN1C[C@H]1c1c[nH]cc1	
InChI=1S/C7H10N2/c1-9-5-7(9)6-2-3-8-4-6/h2-4,7-8H,5H2,1H3	InChI=1S/C7H10N2/c1-9-5-7(9)6-2-3-8-4-6/h2-4,7-8H,5H2,1H3/t7-,9?/m0/s1
