20
gdb 81921	2.06033	1.9706	1.21568	3.8001	77.71	-0.2431	-0.0041	0.239	1082.6776	0.171458	-403.163482	-403.154922	-403.153978	-403.196665	32.933	
C	 0.1867478427	 1.6813839552	-0.1215073522	-0.400544
C	 0.0870322345	 0.1563656982	 0.0015875418	-0.039332
C	 0.7207036078	-0.6166523509	-1.1728404207	-0.03757
C	 2.0766209906	-0.2641168078	-1.6738073587	-0.249518
N	 1.899438632	-1.3691065185	-0.7134566566	-0.117284
C	 2.1280033665	-0.9980066147	 0.6471303863	 0.363482
O	 3.1815953858	-1.1065422248	 1.2131092637	-0.321401
C	 0.8126922947	-0.4673328003	 1.2344973951	-0.091117
C	 1.0129425125	 0.3828215001	 2.4838723557	-0.405331
H	 1.2224958705	 2.0350980007	-0.1135399371	 0.122689
H	-0.270195512	 2.0168876308	-1.057824335	 0.120164
H	-0.3347858584	 2.1771608057	 0.7024743194	 0.123291
H	-0.9749293358	-0.1024188971	 0.0403071371	 0.084334
H	 0.0546374789	-1.1611942126	-1.8362602726	 0.099705
H	 2.3872809536	-0.5713780857	-2.6682330683	 0.129144
H	 2.5572510358	 0.6402836466	-1.3120287181	 0.130758
H	 0.2485487559	-1.37011705	 1.5099807129	 0.11261
H	 1.5505126746	 1.3082796823	 2.2610343566	 0.124178
H	 0.0559414252	 0.6455756832	 2.9445388784	 0.111937
H	 1.6090905545	-0.1726436006	 3.2122057322	 0.139803
51.4682	189.3605	203.6116	240.4559	260.5918	266.9934	292.5158	436.2137	467.1133	515.8338	565.7678	676.2978	693.1732	746.2999	795.5576	857.6123	871.4446	921.1376	983.1523	1016.4778	1035.3603	1041.5917	1065.9778	1101.1138	1117.4507	1136.7183	1161.2364	1168.5083	1178.7737	1252.5545	1287.0504	1318.3936	1345.1592	1367.5859	1382.6556	1409.3862	1418.8196	1487.401	1491.3707	1500.3142	1504.1302	1517.6119	1849.3199	3005.4071	3037.7479	3047.836	3058.1338	3106.0269	3109.4845	3116.1128	3117.8035	3126.9025	3144.9075	3201.5272
CC1C2CN2C(=O)C1C	C[C@H]1[C@H]2CN2C(=O)[C@H]1C	
InChI=1S/C7H11NO/c1-4-5(2)7(9)8-3-6(4)8/h4-6H,3H2,1-2H3	InChI=1S/C7H11NO/c1-4-5(2)7(9)8-3-6(4)8/h4-6H,3H2,1-2H3/t4-,5+,6-,8?/m1/s1
