18
gdb 42948	2.44186	2.07296	1.35033	4.0629	75.34	-0.238	0.0183	0.2563	966.3801	0.150767	-401.956296	-401.949345	-401.9484	-401.987621	27.878	
O	-0.0795392467	 0.0326276851	 0.3897448746	-0.369387
C	-0.0901000626	 1.2100546616	 0.1121901731	 0.367189
C	-1.3016841102	 2.0871595359	-0.1341149011	-0.149908
C	-1.6114066346	 2.9589764388	 1.0670169291	-0.290938
C	-0.8325920485	 3.5328347842	-0.0800716932	-0.067006
C	 0.686810217	 3.4687465317	-0.0284122124	 0.025909
C	 1.5534342091	 3.7108853962	 1.2498927669	-0.266623
C	 2.009259679	 2.2246331743	 1.1357599682	-0.178481
N	 1.0247856864	 2.0349768745	 0.0425317971	-0.089209
H	-2.1064006846	 1.7256600662	-0.7604856523	 0.11181
H	-2.6391320728	 3.2861846135	 1.1761206086	 0.12428
H	-1.1143327681	 2.7439328858	 2.0080084556	 0.123559
H	-1.297003231	 4.2926037176	-0.696609462	 0.096068
H	 1.1131622234	 3.9475768363	-0.9178084508	 0.085319
H	 2.3364685411	 4.4647683115	 1.156141955	 0.111642
H	 0.9610869449	 3.9174100427	 2.1436100952	 0.116225
H	 3.041471833	 2.0896055307	 0.8004421724	 0.119242
H	 1.8250007053	 1.5745017234	 1.9949854861	 0.130312
117.3088	204.2294	207.6569	280.6984	414.3858	486.705	605.4264	650.3679	657.8518	747.6476	761.3131	799.1979	821.8778	857.9948	912.4766	928.8083	957.2036	966.2608	1020.6682	1050.5253	1070.3919	1082.1162	1096.9977	1107.3561	1141.5257	1181.7469	1195.9165	1209.982	1249.7574	1264.3309	1291.4192	1315.4109	1330.0308	1359.1487	1389.4004	1483.1096	1491.4246	1516.9857	1815.7894	3028.4619	3055.3438	3077.2063	3104.44	3129.9514	3136.9137	3183.8347	3203.8356	3217.8472
O=C1C2CC2C2CCN12	O=C1[C@H]2C[C@H]2[C@H]2CCN12	
InChI=1S/C7H9NO/c9-7-5-3-4(5)6-1-2-8(6)7/h4-6H,1-3H2	InChI=1S/C7H9NO/c9-7-5-3-4(5)6-1-2-8(6)7/h4-6H,1-3H2/t4-,5+,6-/m1/s1
