21
gdb 61560	3.3215	0.94315	0.77532	2.6509	79.79	-0.2404	-0.0123	0.228	1500.5751	0.17866	-424.224369	-424.213984	-424.213039	-424.26119	37.198	
C	 1.0602942011	 1.5029582577	-0.6147453437	-0.397813
C	 0.2436461497	 0.3324267806	-0.0664879094	 0.02812
O	 0.2882507289	-0.8314547727	-0.8798609474	-0.262585
C	-0.4927466846	-0.7778488949	-2.0355692635	 0.150784
C	 0.1255042997	-0.3767218787	-3.3512710797	-0.283243
C	-0.2201069517	-1.8251976636	-3.0646616475	-0.297883
C	 0.6981357219	-0.054847623	 1.3532447367	 0.362641
C	 0.6996084765	-1.5244412895	 1.7101431605	-0.467925
O	 1.0068554478	 0.80877154	 2.1414807575	-0.304982
H	 2.0891966009	 1.1856160609	-0.8098468899	 0.122074
H	 0.6291106961	 1.8820481843	-1.5435314837	 0.120987
H	 1.079201679	 2.3032821516	 0.1273257358	 0.144469
H	-0.8085953495	 0.6520048369	 0.0469739568	 0.094278
H	-1.5294163738	-0.492118776	-1.8515774926	 0.085519
H	-0.4772945838	 0.1764484141	-4.0634753369	 0.114
H	 1.1763832925	-0.1127953546	-3.3391397806	 0.12277
H	 0.6055840905	-2.4968844019	-2.8591653236	 0.126251
H	-1.0598623451	-2.279689817	-3.5777111631	 0.116853
H	-0.2822183977	-1.9676392986	 1.5155388039	 0.14084
H	 1.4056102614	-2.0625198148	 1.0704179681	 0.152094
H	 0.9705272501	-1.6405255807	 2.7600210424	 0.132751
30.0359	45.9637	91.9458	150.3125	154.4412	222.2014	248.6688	305.9166	354.9745	384.1167	441.2277	477.4196	552.8587	603.545	751.0022	758.2596	812.8728	828.9683	897.4985	958.3218	963.4026	972.9183	1011.367	1056.5076	1072.7929	1083.6389	1121.34	1123.0167	1147.6078	1195.0574	1197.7401	1224.6502	1244.9782	1328.5197	1343.1958	1380.2996	1391.1278	1411.6387	1452.9815	1453.5395	1465.2169	1488.6271	1495.8376	1500.6971	1813.131	2941.0906	3048.5601	3052.1121	3089.6836	3111.7189	3126.6682	3137.1661	3142.3734	3146.8075	3157.2015	3222.4993	3236.2826
CC(OC1CC1)C(C)=O	C[C@@H](OC1CC1)C(=O)C	
InChI=1S/C7H12O2/c1-5(8)6(2)9-7-3-4-7/h6-7H,3-4H2,1-2H3	InChI=1S/C7H12O2/c1-5(8)6(2)9-7-3-4-7/h6-7H,3-4H2,1-2H3/t6-/m1/s1
