20
gdb 112783	2.01915	1.44304	0.91367	1.8775	83.62	-0.2175	0.0372	0.2546	1330.2267	0.167906	-403.069658	-403.059696	-403.058752	-403.104597	36.029	
C	-0.0558206633	 1.4116985266	-0.2980724005	-0.236098
O	-0.0723031007	 0.1175656458	 0.2615276357	-0.231877
C	-1.3172646593	-0.5088741621	 0.1701182419	 0.126345
C	-1.6241128808	-1.2060722629	-1.1845606908	-0.214925
N	-1.1475637652	-2.4760510425	-0.6116981831	-0.049909
C	-1.8299133587	-3.7043530498	-0.9440539524	-0.328034
C	-1.2808067224	-1.9497619083	 0.7656854	-0.22703
C	-0.2448263572	-2.3193161837	 1.7130162711	 0.371644
C	 0.5885252751	-2.6452206256	 2.5150872703	-0.433758
H	 0.9481297433	 1.8140925496	-0.1462682498	 0.132958
H	-0.2726478289	 1.4015898923	-1.3766643194	 0.107718
H	-0.7853150798	 2.0742901111	 0.1941223872	 0.105107
H	-2.1112883692	 0.1391475009	 0.5643708629	 0.070668
H	-2.7023989757	-1.1979735354	-1.4168223177	 0.082257
H	-1.0646440599	-0.8619066379	-2.0607455199	 0.109243
H	-1.685882695	-3.932160862	-2.0053541803	 0.122783
H	-1.4053606824	-4.5287664632	-0.3622771189	 0.131423
H	-2.9192587112	-3.6662608355	-0.7458886038	 0.087015
H	-2.2701351755	-2.1795980503	 1.2017953206	 0.081138
H	 1.3398251068	-2.921625797	 3.2126238972	 0.193332
82.9075	109.1322	111.1663	149.6393	191.1839	229.9639	259.0036	311.0814	317.4285	363.1003	423.8799	531.9445	559.6982	615.8294	658.0424	763.9497	812.5544	843.4638	948.721	990.4714	1008.4735	1071.4788	1077.9628	1128.8205	1161.5507	1180.0788	1185.0434	1188.8085	1233.3757	1240.7254	1265.5714	1287.865	1318.3605	1367.1712	1393.0041	1449.4405	1481.2327	1484.8919	1488.0555	1496.3719	1504.0209	1508.5385	2239.0718	2913.7366	2928.565	2961.3843	2974.3965	3014.866	3024.1114	3059.9438	3063.2664	3103.8485	3120.5753	3504.4758
COC1CN(C)C1C#C	CO[C@H]1CN(C)[C@H]1C#C	
InChI=1S/C7H11NO/c1-4-6-7(9-3)5-8(6)2/h1,6-7H,5H2,2-3H3	InChI=1S/C7H11NO/c1-4-6-7(9-3)5-8(6)2/h1,6-7H,5H2,2-3H3/t6-,7-/m0/s1
