14
gdb 124371	5.10794	0.99385	0.83632	4.5008	65.87	-0.2659	-0.0461	0.2198	1287.1407	0.100528	-469.999861	-469.991736	-469.990792	-470.034111	28.249	
C	-0.0141878915	 1.5403575065	-0.1144005813	-0.504549
C	-0.0164843533	 0.0447394426	 0.1343402124	 0.405187
O	-0.0548215074	-0.4594721409	 1.235684271	-0.335558
N	 0.0298971546	-0.7131998125	-1.0249380403	-0.432895
C	 0.0380211296	-2.0943639841	-1.0698536019	 0.441542
N	 0.0834357655	-2.7256438866	-2.2156700773	-0.194998
O	 0.0776272485	-4.0580034495	-1.8913391554	-0.146598
N	 0.028502143	-4.2421779016	-0.5428415486	-0.05803
C	 0.0032718376	-3.0524810233	-0.0116830673	-0.093359
H	 0.8895996428	 1.844271426	-0.6527643949	 0.150279
H	-0.8786722808	 1.8361285739	-0.7179052039	 0.150285
H	-0.0519192331	 2.0527487943	 0.8456672142	 0.163555
H	 0.0608734446	-0.2479637167	-1.9198725343	 0.272834
H	-0.0368400502	-2.8869034782	 1.0498141676	 0.182308
39.4801	74.6236	98.0138	169.6954	346.3591	351.6461	365.5952	542.8362	594.0967	609.6737	635.3529	725.1109	780.5426	906.3196	911.9781	925.7097	965.0543	995.3668	1034.4315	1053.5495	1076.8781	1202.3565	1239.1244	1387.7901	1426.3992	1467.9674	1482.1877	1492.0188	1513.2076	1640.5796	1804.7883	3045.5049	3108.3054	3171.1042	3319.1744	3623.7239
CC(=O)NC1=NON=C1	CC(=O)Nc1nonc1	
InChI=1S/C4H5N3O2/c1-3(8)6-4-2-5-9-7-4/h2H,1H3,(H,6,7,8)	InChI=1S/C4H5N3O2/c1-3(8)6-4-2-5-9-7-4/h2H,1H3,(H,6,7,8)
