17
gdb 34422	2.68956	1.55354	1.28759	3.89	71.95	-0.2494	0.013	0.2624	1017.7335	0.138494	-417.997893	-417.990411	-417.989467	-418.029918	28.716	
N	-0.0244025804	-1.1072576652	-0.4848388513	-0.341457
C	-0.0051778818	 0.0180739024	-0.2214096785	 0.254922
C	 0.0189061224	 1.4476018593	 0.0840760312	 0.169774
C	-0.7951224975	 2.2791405557	-0.9381064213	-0.146294
O	-0.1656085359	 3.5468145085	-0.9831713983	-0.247192
C	 1.2352453453	 3.2898783231	-0.9401872769	-0.103085
C	 1.4004762355	 2.2057491598	 0.1210787776	-0.096507
C	 1.0139593298	 2.6361619341	 1.5585177525	-0.1695
N	-0.1789546692	 1.755677123	 1.5147467001	-0.347334
H	-0.770872036	 1.7843420873	-1.9214554001	 0.113505
H	-1.8376928021	 2.4179732043	-0.6388175938	 0.124651
H	 1.5987427062	 2.9381688425	-1.9186508105	 0.10625
H	 1.7392536406	 4.2275929694	-0.6920193684	 0.121906
H	 2.3009336257	 1.6025255965	 0.018704828	 0.1057
H	 1.7185269741	 2.3569556671	 2.3478067954	 0.115686
H	 0.7936249403	 3.7066504743	 1.6377644557	 0.111403
H	-1.065187727	 2.1994087879	 1.7300234687	 0.227572
109.2259	151.3127	188.9558	245.9935	359.6711	381.6051	507.508	534.2239	567.5943	588.1374	694.3945	741.6993	827.1814	895.2856	929.0943	949.4499	960.3361	1015.6025	1033.2256	1069.7412	1092.8547	1116.2869	1129.2515	1149.6148	1197.5516	1207.5467	1248.8413	1284.3606	1323.2317	1330.8909	1358.8461	1384.4713	1397.1111	1495.3067	1510.6694	1512.3622	2353.9787	2984.5212	2990.8487	3032.1545	3078.9169	3094.6735	3099.5491	3135.4977	3532.1252
N#CC12COCC1CN2	N#C[C@]12COC[C@H]1CN2	
InChI=1S/C6H8N2O/c7-3-6-4-9-2-5(6)1-8-6/h5,8H,1-2,4H2	InChI=1S/C6H8N2O/c7-3-6-4-9-2-5(6)1-8-6/h5,8H,1-2,4H2/t5-,6+/m1/s1
