20
gdb 87731	3.09658	1.15409	0.98245	2.3214	82.83	-0.2269	0.0026	0.2295	1269.3178	0.171232	-403.135959	-403.127119	-403.126175	-403.170092	33.916	
C	-0.1384069116	 1.5531494016	 0.1594481692	-0.395606
C	-0.0936965224	 0.0451177785	 0.204265316	-0.05751
N	 1.1433327007	-0.5981431168	-0.2632676739	-0.378861
C	 0.7632336458	-0.715546276	 1.163706121	 0.321955
C	 1.6887209294	-0.1053988238	 2.2225220053	-0.33197
C	 1.6424753141	-1.0741088266	 3.4413309956	 0.085118
O	 1.0881469999	-0.4938112582	 4.6223536644	-0.431728
C	 0.8180930014	-2.2397612727	 2.941404529	-0.133801
C	 0.3169582771	-2.0161295139	 1.7258619012	-0.138464
H	 0.8359844379	 1.9802690166	 0.4081779341	 0.131542
H	-0.4091387764	 1.8995456028	-0.8437713881	 0.121362
H	-0.8816072432	 1.9448856739	 0.8627678474	 0.114068
H	-1.032193332	-0.43957282	-0.0679311943	 0.076797
H	 0.9368776664	-1.465161626	-0.7550282266	 0.226031
H	 2.6992529558	-0.0164984828	 1.8167551978	 0.119526
H	 1.3758975975	 0.8918252374	 2.5438567863	 0.107999
H	 2.6476904519	-1.3803766499	 3.7491378086	 0.092258
H	 0.1546569273	-0.329377236	 4.4465019189	 0.272684
H	 0.6346232389	-3.1131082506	 3.5566490088	 0.1022
H	-0.3361550683	-2.6853230074	 1.1732213992	 0.0964
28.3455	147.0415	168.8001	195.9178	285.4207	326.2918	359.151	401.1404	444.5381	459.4199	526.1464	589.0943	727.8838	773.604	808.6353	815.3372	852.3532	878.4442	954.6921	967.2104	976.1281	1021.271	1046.4752	1053.8116	1066.5758	1091.7582	1124.3005	1130.1903	1180.6701	1235.6902	1251.7308	1279.6158	1280.6912	1312.9566	1347.3308	1381.169	1407.2971	1431.0434	1458.826	1480.4117	1488.7333	1497.3057	1672.2219	3033.7667	3053.2894	3066.0862	3092.6644	3094.6762	3111.1534	3127.0155	3171.2717	3207.9258	3484.4941	3794.0144
CC1NC11CC(O)C=C1	C[C@H]1N[C@]21C[C@@H](O)C=C2	
InChI=1S/C7H11NO/c1-5-7(8-5)3-2-6(9)4-7/h2-3,5-6,8-9H,4H2,1H3	InChI=1S/C7H11NO/c1-5-7(8-5)3-2-6(9)4-7/h2-3,5-6,8-9H,4H2,1H3/t5-,6+,7+/m1/s1
