14
gdb 22860	3.16156	1.3798	0.96664	0.4999	70.8	-0.2354	-0.0896	0.1457	1126.0666	0.101199	-469.990723	-469.982557	-469.981613	-470.023434	30.254	
N	 0.0148215015	 1.310711682	 0.1133324972	-0.570584
C	-0.0239871874	-0.040800752	 0.0419933571	 0.314592
N	-1.0745924343	-0.7825944701	 0.0156798984	-0.305814
C	-0.6731619804	-2.1942131429	-0.0068772924	-0.240169
C	 0.8408261806	-2.2139150103	-0.0103170951	 0.285619
N	 1.5134862738	-3.3011931758	-0.0312231008	-0.206525
O	 2.8773147762	-3.1067143099	-0.0344811136	-0.343831
C	 1.2829495091	-0.7878180528	 0.0122091129	 0.265872
O	 2.3845483512	-0.2889239918	-0.0082437742	-0.323811
H	 0.9039739431	 1.7464153508	-0.0723651693	 0.272166
H	-0.8236471531	 1.8360245169	-0.0690365408	 0.266191
H	-1.0861716833	-2.7161584941	 0.864850097	 0.134116
H	-1.0879084955	-2.6884031557	-0.8936826116	 0.133408
H	 3.2178074184	-4.0094718742	-0.0485839449	 0.318772
75.9694	192.7716	210.3684	275.9384	285.631	306.1044	345.9252	437.9304	457.7652	518.48	535.4062	576.7142	629.5035	706.9579	753.153	829.1446	964.3488	994.9759	1019.8834	1069.8595	1151.3192	1191.2694	1210.3743	1312.0337	1421.6365	1426.3613	1484.7494	1605.1039	1699.0495	1723.5485	1807.3493	3030.7958	3056.579	3597.2505	3723.3751	3793.7665
NC1=NCC(=NO)C1=O	NC1=NCC(=NO)C1=O	
InChI=1S/C4H5N3O2/c5-4-3(8)2(7-9)1-6-4/h9H,1H2,(H2,5,6)	InChI=1S/C4H5N3O2/c5-4-3(8)2(7-9)1-6-4/h9H,1H2,(H2,5,6)
