15
gdb 5506	3.7214	1.94618	1.28841	1.9073	79.03	-0.1984	0.001	0.1994	909.7457	0.119083	-325.534619	-325.52694	-325.525996	-325.566766	28.288	
C	-0.0063218032	 1.4275287258	 0.0601867033	-0.339824
N	-0.0290779887	-0.0208998295	 0.0182305591	-0.053849
C	-0.0218860686	-0.7848071681	-1.1137786446	-0.103455
C	 0.0279929506	-2.1158202159	-0.7522033366	-0.149624
C	 0.0571003553	-2.163746477	 0.6584922606	-0.259657
C	 0.0242232102	-0.8556758442	 1.1242263335	 0.16966
C	 0.0315626597	-0.3552913871	 2.4401713714	 0.270405
C	 0.036850607	 0.0810168397	 3.5648525853	-0.478367
H	 1.0147349334	 1.8107893458	 0.1654293878	 0.141961
H	-0.4379801169	 1.8198510938	-0.86269587	 0.138073
H	-0.5968667055	 1.7808598661	 0.9075218863	 0.155513
H	-0.0546040714	-0.3182314169	-2.0859389885	 0.117223
H	 0.0322557681	-2.954844456	-1.4303611391	 0.100006
H	 0.0878777841	-3.0406521499	 1.2857313986	 0.103488
H	 0.0432415858	 0.4526291633	 4.559143313	 0.188448
64.7931	151.9376	157.7044	196.6198	349.0974	450.4854	497.2854	526.5448	597.4017	612.4067	670.8146	677.5675	720.3394	729.9062	791.5	850.4028	902.9297	1032.1611	1077.3391	1113.5547	1151.621	1192.2174	1255.5309	1340.793	1395.2019	1446.1584	1452.0344	1484.5472	1501.8773	1523.0584	1568.9259	2219.4591	3038.2321	3110.0444	3144.2719	3245.3495	3258.3488	3269.7791	3503.3097
CN1C=CC=C1C#C	Cn1cccc1C#C	
InChI=1S/C7H7N/c1-3-7-5-4-6-8(7)2/h1,4-6H,2H3	InChI=1S/C7H7N/c1-3-7-5-4-6-8(7)2/h1,4-6H,2H3
