15
gdb 35413	3.10566	1.68249	1.38676	5.7019	68.38	-0.2467	0.0057	0.2524	924.4886	0.11384	-416.726463	-416.719669	-416.718724	-416.757721	26.587	
N	-0.2239714298	-1.1918305342	-0.2248054397	-0.337931
C	-0.0794327242	-0.0609923455	-0.0352099722	 0.318346
C	 0.0352010133	 1.3931428397	 0.082313257	-0.034582
O	-0.1725599849	 1.9205059318	 1.4122433709	-0.285396
C	 1.0780973851	 2.6426190813	 1.372496061	 0.12023
C	 2.3164067763	 1.9249770597	 1.9674940977	-0.074127
N	 2.145738362	 0.4901750179	 1.679659456	-0.303883
C	 2.6502525573	 1.3698998472	 0.6132762877	-0.069542
C	 1.4315696745	 2.0759182069	-0.0191993244	-0.105172
H	-0.6857237524	 1.838514715	-0.6153193727	 0.123895
H	 0.9727000073	 3.7058251507	 1.5937948528	 0.092777
H	 2.9562520988	 2.2636500052	 2.7726104076	 0.102989
H	 2.9377544701	-0.0101631216	 2.0787082572	 0.243861
H	 3.608115942	 1.1924014283	 0.1421135785	 0.107748
H	 1.6228881245	 2.7044683678	-0.8854084072	 0.100786
126.8358	140.5945	275.1805	299.0349	420.7698	510.2539	560.8866	627.9878	706.0161	768.1613	785.2183	802.0263	880.7622	887.4783	926.7338	941.5912	965.9233	976.5932	1010.6148	1025.0641	1069.6542	1098.6029	1117.4238	1181.9731	1198.9843	1203.5405	1261.2408	1274.2209	1320.4072	1339.2554	1354.623	1383.3311	2355.7622	3024.5848	3103.4364	3148.557	3192.1041	3206.4014	3498.3466
N#CC1OC2C3NC3C12	N#C[C@H]1O[C@H]2[C@H]3N[C@H]3[C@@H]12	
InChI=1S/C6H6N2O/c7-1-2-3-4-5(8-4)6(3)9-2/h2-6,8H	InChI=1S/C6H6N2O/c7-1-2-3-4-5(8-4)6(3)9-2/h2-6,8H/t2-,3-,4+,5+,6-/m1/s1
