19
gdb 93256	2.66061	1.291	0.9357	3.8439	71.47	-0.2593	-0.0296	0.2297	1233.8559	0.159548	-460.197072	-460.188458	-460.187514	-460.230155	33.274	
O	-0.1066895238	 1.4569086441	 0.070904454	-0.434031
C	 0.0070426706	 0.0440357924	 0.001808481	 0.118084
C	 0.7920177501	-0.5244046339	 1.1942066573	-0.233023
C	 0.8251473914	-2.0665775694	 1.1723981272	-0.315188
C	-0.5746424232	-2.6283501259	 1.0371761541	 0.371935
O	-1.0463491279	-3.4660032048	 1.7759309601	-0.329194
C	-1.4169200089	-2.0542704215	-0.1003454621	 0.043775
O	-2.7169073425	-2.5710543792	-0.0633102613	-0.442428
C	-1.4148328864	-0.5169439041	-0.0237957008	-0.216512
H	 0.7800398038	 1.8313683744	 0.0600781319	 0.282238
H	 0.5212460835	-0.2509798756	-0.9305441784	 0.065402
H	 1.8171691444	-0.1350498537	 1.1952558053	 0.09539
H	 0.314539164	-0.1723270609	 2.1163006383	 0.121171
H	 1.4084025064	-2.4065196627	 0.3053509604	 0.12543
H	 1.2907990265	-2.4807268484	 2.0692814875	 0.12937
H	-0.9154851656	-2.3538624473	-1.0399378379	 0.087777
H	-2.7118400677	-3.2173222854	 0.661600865	 0.290952
H	-1.9416703588	-0.2045589845	 0.8855136767	 0.116933
H	-1.9673306857	-0.1093878734	-0.8745610882	 0.121921
90.3711	140.2544	199.8272	289.9059	292.8145	305.17	382.2374	389.0399	411.2754	449.5298	495.8905	513.4229	605.7062	713.6	743.0056	842.6281	887.4243	925.8463	981.8137	1035.8606	1063.5399	1079.701	1099.3404	1105.3247	1144.3838	1169.2011	1225.8961	1246.3776	1267.6438	1287.1499	1312.6011	1322.8325	1348.0101	1375.2583	1393.4607	1435.7845	1445.3954	1468.1715	1488.5155	1505.5514	1804.0402	2927.1372	2939.4083	3023.0195	3029.1765	3048.0999	3074.59	3103.4339	3111.7191	3677.4688	3815.6899
OC1CCC(=O)C(O)C1	O[C@H]1CCC(=O)[C@@H](O)C1	
InChI=1S/C6H10O3/c7-4-1-2-5(8)6(9)3-4/h4,6-7,9H,1-3H2	InChI=1S/C6H10O3/c7-4-1-2-5(8)6(9)3-4/h4,6-7,9H,1-3H2/t4-,6-/m0/s1
