21
gdb 30909	1.89101	1.7646	0.98489	1.5052	87.61	-0.1691	0.0479	0.2169	1258.2893	0.182746	-383.30568	-383.295454	-383.294509	-383.341314	36.823	
C	 0.0334957556	 1.576063264	 0.1504245859	-0.367476
C	 0.0230941754	 0.0411295295	 0.0014547628	-0.309548
C	 0.6679816475	-0.4750884005	-1.2444119472	 0.246003
C	 0.0841973692	-0.8078242367	-2.4542017333	 0.158951
N	-1.305104802	-0.7578137375	-2.7299310391	-0.611665
C	 1.1117167021	-1.2696268552	-3.3223165482	-0.24638
C	 2.293316516	-1.2029502999	-2.619723655	-0.10582
N	 2.0305990339	-0.7105261617	-1.3695952967	-0.037518
C	 3.0158011575	-0.5434362046	-0.3256026021	-0.341246
H	 1.0547510811	 1.9690250514	 0.1899463621	 0.114012
H	-0.46538543	 2.0547560322	-0.6983643308	 0.113523
H	-0.4811550278	 1.886277173	 1.0662959444	 0.10818
H	 0.4893732123	-0.4065867681	 0.8888182199	 0.096505
H	-1.0156532446	-0.3097201229	-0.0001125315	 0.118389
H	-1.6983523024	 0.1620350072	-2.5679592637	 0.236193
H	-1.4928412967	-1.0060245289	-3.6932100869	 0.234129
H	 0.9938984116	-1.6051018896	-4.3421204681	 0.080058
H	 3.3010826477	-1.4590474646	-2.9066707252	 0.107482
H	 3.0420528863	 0.4882844824	 0.0412024751	 0.134631
H	 2.8203800482	-1.2058950697	 0.5257827837	 0.135033
H	 4.000205979	-0.7881377899	-0.7289100858	 0.136565
63.3132	80.5651	86.774	132.4251	173.3943	194.2997	274.1466	292.8299	307.3342	391.6729	492.1857	574.0652	616.9466	670.0798	690.1419	713.4779	733.7735	760.1867	789.6373	817.5632	961.1044	989.8496	1055.1275	1076.0054	1086.1036	1102.7548	1148.9441	1165.0366	1238.1806	1272.2485	1299.9712	1358.0418	1386.3955	1403.5517	1414.6548	1457.6753	1475.6289	1481.3865	1487.8786	1495.211	1504.4236	1523.518	1536.6245	1627.7324	1654.567	3016.4134	3025.3744	3029.1742	3058.5847	3076.7921	3098.703	3103.301	3131.4632	3234.0398	3259.4972	3519.6676	3605.7845
CCC1=C(N)C=CN1C	CCc1c(N)ccn1C	
InChI=1S/C7H12N2/c1-3-7-6(8)4-5-9(7)2/h4-5H,3,8H2,1-2H3	InChI=1S/C7H12N2/c1-3-7-6(8)4-5-9(7)2/h4-5H,3,8H2,1-2H3
