16
gdb 28030	3.90065	0.93908	0.80386	1.5596	76.87	-0.1855	0.0519	0.2373	1380.0604	0.123499	-400.745771	-400.736919	-400.735975	-400.779879	33.054	
O	 0.2133036444	 1.3438432175	 0.1480389477	-0.435036
C	 0.1181282892	-0.0026489127	 0.0053650173	 0.401069
C	 0.3458091786	-0.8606521875	-1.042083356	-0.399318
C	 0.0686152908	-2.1800569294	-0.554104723	 0.311817
C	 0.144777655	-3.4614701757	-1.3449386772	-0.470807
C	 1.4434774467	-3.691940522	-1.9778533131	 0.321987
C	 2.50700657	-3.8726468932	-2.507810513	-0.471363
C	-0.3127647376	-2.0668740835	 0.7572365098	-0.197863
N	-0.281696875	-0.7232909674	 1.0914462301	-0.298761
H	 0.5213655354	 1.7131241733	-0.6848418557	 0.308356
H	 0.6846834222	-0.5946564559	-2.0313462136	 0.094041
H	-0.0905248081	-4.3059786823	-0.6854791694	 0.130017
H	-0.6281585801	-3.4702387106	-2.1269209579	 0.134412
H	 3.4493607165	-4.0360079908	-2.9682400944	 0.191007
H	-0.6028016873	-2.8132748182	 1.4781767037	 0.115089
H	-0.4990530808	-0.3221035416	 1.9865508746	 0.265352
36.6007	93.4508	212.7353	238.5291	270.2063	313.6173	337.9993	423.7719	438.5119	457.2982	606.9205	614.1547	632.2886	638.8584	677.468	686.9275	742.9323	778.5263	930.9479	947.6082	988.5243	1014.6371	1117.1575	1161.9282	1185.5462	1209.8711	1280.3139	1340.2439	1342.83	1420.5399	1461.1595	1541.7042	1578.1932	1639.5478	2237.7703	3000.711	3046.5607	3246.9164	3268.8256	3507.9698	3688.8642	3850.424
OC1=CC(CC#C)=CN1	Oc1cc(CC#C)c[nH]1	
InChI=1S/C7H7NO/c1-2-3-6-4-7(9)8-5-6/h1,4-5,8-9H,3H2	InChI=1S/C7H7NO/c1-2-3-6-4-7(9)8-5-6/h1,4-5,8-9H,3H2
