12
gdb 5661	5.39952	2.25391	1.59014	0.	61.77	-0.2031	-0.0023	0.2008	723.0864	0.086763	-381.362751	-381.357477	-381.356533	-381.391967	21.04	
O	-0.053813096	 1.3553766004	 0.0099240771	-0.201103
C	 1.2579029305	 1.7760700985	-0.000547909	-0.003717
C	 2.1486621116	 0.7381946714	-0.0146439102	-0.35819
C	 1.3137754663	-0.4136371946	-0.0127679699	 0.295843
C	 0.0126251748	 0.0024835291	 0.00202823	 0.295843
C	-0.8222611854	-1.1493485516	 0.003932137	-0.35819
C	 0.0684971681	-2.1872235001	-0.0102514128	-0.003717
O	 1.3802138187	-1.7665303459	-0.0206555631	-0.201103
H	 1.3929875911	 2.8446726923	 0.0038342864	 0.139629
H	 3.2229979737	 0.8186707195	-0.0245758016	 0.127538
H	-1.8965968054	-1.2298247277	 0.0138876253	 0.127538
H	-0.0665880581	-3.2558258614	-0.0146756391	 0.139629
206.5842	352.1949	465.1665	585.403	600.7893	683.5269	700.1771	719.8591	742.281	753.3863	809.9102	810.3219	890.7536	941.4044	1031.3888	1032.7261	1116.2772	1162.3268	1170.9751	1261.5595	1330.4422	1437.3316	1478.9337	1532.1328	1542.4226	1607.3104	3268.2534	3268.5107	3291.1141	3291.1607
O1C=CC2=C1C=CO2	o1ccc2c1cco2	
InChI=1S/C6H4O2/c1-3-7-6-2-4-8-5(1)6/h1-4H	InChI=1S/C6H4O2/c1-3-7-6-2-4-8-5(1)6/h1-4H
