18
gdb 38801	3.12995	2.21178	1.8133	0.749	73.52	-0.2084	0.0698	0.2782	818.6818	0.151472	-401.87051	-401.86476	-401.863816	-401.900218	25.326	
C	-0.0376596598	 1.5489655203	 0.1184573041	-0.254064
C	 1.5041810469	 1.4781429347	-0.0169958004	 0.084752
O	 2.0684557914	 1.3660230167	 1.2846771437	-0.27726
C	 1.9512183422	 0.037063432	 1.7700526701	 0.073828
C	 2.9256895027	-0.8564184187	 0.9760111903	-0.178913
N	 1.8298136208	-1.1519524151	-0.0040594602	-0.147298
C	 1.3464020463	 0.0610550545	-0.7400945731	-0.028695
C	-0.0302122159	 0.02009037	-0.0195309142	-0.046252
C	 0.7987244131	-0.7575585942	 1.04555688	-0.028898
H	-0.4079381589	 2.010915033	 1.0365660279	 0.103086
H	-0.516609081	 2.0115450868	-0.7502027943	 0.101585
H	 2.0312849699	 2.2748109705	-0.5443254626	 0.080888
H	 1.9891468613	 0.0759910282	 2.8613812461	 0.078698
H	 3.8158278982	-0.358544407	 0.5819496402	 0.107857
H	 3.2082115325	-1.786184806	 1.4800520846	 0.105454
H	 1.4944310334	 0.0631170546	-1.8214747001	 0.074203
H	-0.8914898226	-0.5272281929	-0.4035507536	 0.076419
H	 0.3359424293	-1.5602556574	 1.6249699415	 0.074611
233.2502	377.5165	384.5863	459.9713	570.6371	614.6431	663.7231	719.4127	797.1572	802.5379	825.6541	847.5473	878.6416	908.7123	922.726	937.0757	984.5476	993.0792	1010.7433	1038.031	1056.9516	1081.5361	1118.1245	1131.7004	1159.0298	1186.6602	1208.2715	1211.3842	1228.7541	1240.0062	1258.4302	1272.6562	1295.891	1305.1467	1313.4141	1337.2107	1382.3477	1477.2363	1487.0257	3044.4341	3050.9903	3071.8269	3083.4727	3087.2275	3098.946	3107.872	3108.961	3112.7208
C1C2OC3CN4C2C1C34	C1[C@H]2O[C@@H]3CN4[C@H]2[C@H]1[C@H]34	
InChI=1S/C7H9NO/c1-3-6-4(1)9-5-2-8(6)7(3)5/h3-7H,1-2H2	InChI=1S/C7H9NO/c1-3-6-4(1)9-5-2-8(6)7(3)5/h3-7H,1-2H2/t3-,4+,5+,6-,7+/m0/s1
