18
gdb 35633	3.15212	1.3705	1.06623	4.0015	80.77	-0.2435	0.0037	0.2472	1123.9978	0.150322	-364.831731	-364.82416	-364.823216	-364.863782	29.782	
N	 0.0597910091	-1.1748836562	 0.0879412096	-0.328041
C	 0.0321412275	-0.0198089733	 0.052580089	 0.271501
C	-0.002303659	 1.4453416915	 0.0161732928	-0.166712
C	-0.8958229867	 1.9967230165	 1.1610202851	-0.274845
C	-0.7629503278	 3.4900375423	 1.305238536	-0.102467
C	 0.3552853008	 4.1447747526	 0.9868200227	-0.034154
C	 1.5640489545	 3.4632744886	 0.4650133759	-0.096763
C	 2.1726832383	 2.31593918	 1.2644329629	-0.283427
C	 1.4090198394	 2.0284401932	 0.0065061742	-0.017301
H	-0.4731709975	 1.7307166365	-0.9337577007	 0.129548
H	-1.9346977072	 1.7162691176	 0.9611156436	 0.125112
H	-0.6300349709	 1.4928773484	 2.0989625047	 0.135021
H	-1.6173502142	 4.0269166783	 1.7056886638	 0.09665
H	 0.4106402675	 5.2219500154	 1.1152113551	 0.095173
H	 2.2593124948	 4.0852965334	-0.0885647724	 0.093257
H	 3.2492788642	 2.1904706031	 1.2385994317	 0.122275
H	 1.7193242969	 2.0899289366	 2.2227781833	 0.128183
H	 1.9955799903	 1.7274056554	-0.8554971972	 0.106991
97.1758	149.3409	219.209	268.5936	339.2951	418.1833	492.2585	508.6641	554.3561	609.6184	712.3541	725.0125	777.9865	833.9311	869.2493	931.1239	945.8825	965.007	989.185	998.7863	1011.8223	1061.878	1076.0167	1101.3922	1128.7885	1151.5185	1194.3978	1212.2566	1241.4841	1304.7613	1327.3539	1343.3631	1377.8595	1410.5862	1426.1913	1479.9573	1496.7292	1711.5567	2355.7633	3020.7989	3032.6741	3076.3672	3140.4304	3154.7137	3160.2444	3167.9166	3184.0897	3227.7858
N#CC1CC=CC2CC12	N#C[C@H]1CC=C[C@H]2C[C@@H]12	
InChI=1S/C8H9N/c9-5-7-3-1-2-6-4-8(6)7/h1-2,6-8H,3-4H2	InChI=1S/C8H9N/c9-5-7-3-1-2-6-4-8(6)7/h1-2,6-8H,3-4H2/t6-,7+,8+/m0/s1
