13
gdb 14588	7.46949	0.6638	0.64884	2.297	67.65	-0.2646	-0.0404	0.2241	1616.8307	0.092871	-361.451796	-361.443053	-361.442108	-361.488245	28.274	
O	-0.5732055228	 0.449591108	 0.5033077739	-0.223515
C	-0.0534987353	 1.4846585619	 0.1912647772	 0.168962
C	 1.3588908229	 1.5753238339	-0.3970436098	-0.414738
C	 1.4635281727	 2.5885039334	-1.4357382988	 0.07539
C	 1.4985959526	 3.4346155952	-2.2890340315	 0.082932
C	 1.5640112475	 4.4543694739	-3.3330933498	-0.470861
C	 2.0350718185	 5.7548502525	-2.8376873719	 0.278991
N	 2.4032899852	 6.7812359616	-2.4587243985	-0.296489
H	-0.5582150301	 2.465639105	 0.3235151872	 0.100324
H	 2.0337653379	 1.8251744701	 0.4357369809	 0.165994
H	 1.6467149952	 0.5818969683	-0.7552480606	 0.161071
H	 2.2330264944	 4.1315474424	-4.1411281399	 0.186402
H	 0.5778826013	 4.5987871338	-3.7928425385	 0.185537
9.0319	52.8079	88.4356	120.7846	253.2901	273.9571	373.2121	385.5624	450.4424	473.2544	572.751	725.4436	822.5464	930.8136	934.9907	1030.4662	1041.9409	1163.4773	1210.7897	1234.7669	1288.76	1339.3104	1415.5293	1439.1305	1446.7052	1844.0099	2371.4355	2383.4375	2907.6376	3008.6967	3027.9542	3058.3713	3086.024
O=CCC#CCC#N	O=CCC#CCC#N	
InChI=1S/C6H5NO/c7-5-3-1-2-4-6-8/h6H,3-4H2	InChI=1S/C6H5NO/c7-5-3-1-2-4-6-8/h6H,3-4H2
