14
gdb 15471	2.88147	2.0875	1.46404	2.0375	63.01	-0.2466	-0.0341	0.2125	858.0325	0.106078	-382.518871	-382.511516	-382.510572	-382.550881	26.887	
O	-0.0061516076	 0.0023068339	-0.1688921438	-0.288978
C	-0.032221637	 1.1895268101	-0.018899911	 0.39125
C	-1.2506754698	 2.0904447691	 0.187040391	-0.339935
C	-0.6201128693	 3.448007155	 0.5060168322	-0.092276
O	 0.644847391	 3.4394189926	-0.1694238982	-0.239731
C	 1.2013894725	 2.142354232	-0.0238324105	-0.190432
C	 1.9684142884	 1.9809362958	 1.2114955752	 0.34667
C	 2.5656508045	 1.8523175891	 2.2465665248	-0.459431
H	-1.8142292733	 2.1180047737	-0.7520376116	 0.147258
H	-1.9047299617	 1.6861700212	 0.9623218437	 0.142761
H	-1.1806835299	 4.3027806857	 0.1247558524	 0.123699
H	-0.4736485248	 3.5738430766	 1.5878163028	 0.114611
H	 1.8278529161	 1.9366641103	-0.8974919476	 0.13715
H	 3.1105324809	 1.736834175	 3.1511528606	 0.207384
69.4084	133.155	156.4363	268.4732	376.7826	446.0319	516.1872	563.2276	632.2992	636.1608	671.4696	681.9051	812.2299	838.4147	931.2924	952.5496	991.4191	1053.7608	1077.6006	1137.4918	1202.0724	1225.6553	1248.8648	1283.4608	1325.9628	1386.5999	1445.6412	1513.8696	1871.6933	2230.117	3012.9818	3058.9799	3067.7529	3116.8941	3124.8689	3501.2358
O=C1CCOC1C#C	O=C1CCO[C@H]1C#C	
InChI=1S/C6H6O2/c1-2-6-5(7)3-4-8-6/h1,6H,3-4H2	InChI=1S/C6H6O2/c1-2-6-5(7)3-4-8-6/h1,6H,3-4H2/t6-/m0/s1
