19
gdb 73193	2.26196	1.50542	1.37574	2.8732	75.3	-0.2427	-0.0267	0.216	1067.3311	0.157807	-423.00252	-422.993885	-422.992941	-423.036196	31.999	
C	-0.1552305001	 1.4215525247	-0.3232915386	-0.507027
C	 0.0508688232	-0.0468067707	-0.0318046296	 0.292213
C	-1.1742037275	-0.879541202	 0.416218311	-0.131958
O	-0.4705255345	-1.3912351174	 1.5773058472	-0.292265
C	 0.7091943733	-0.6442952849	 1.2511992876	 0.08304
C	 1.7176046143	-1.4598145715	 0.40313217	-0.274808
C	 1.0903043379	-0.8267424457	-0.8900535303	-0.150479
C	 0.6426858425	-1.7570933	-1.9817727199	 0.143713
O	-0.457492337	-1.773943971	-2.4760430452	-0.249741
H	 0.7994080197	 1.9544770756	-0.3972487831	 0.114661
H	-0.6846516781	 1.5551337261	-1.2738877457	 0.134929
H	-0.7488592299	 1.9024981943	 0.4613654908	 0.123699
H	-2.032399246	-0.2644309828	 0.7157381372	 0.099084
H	-1.516481252	-1.6704728937	-0.255054917	 0.127054
H	 1.0941249911	-0.063023094	 2.094163894	 0.076779
H	 2.7693182898	-1.209987535	 0.5582647792	 0.108743
H	 1.5824650653	-2.5380611501	 0.5160031038	 0.120009
H	 1.8097473762	-0.1379640041	-1.3530721737	 0.102802
H	 1.4334305918	-2.4654745178	-2.3251983776	 0.079551
61.2045	93.1951	169.8221	214.0606	220.4008	288.3103	365.0617	382.4662	403.378	600.2527	617.1749	709.3372	751.8881	832.6448	865.5619	893.9818	935.3552	973.7011	993.7941	1001.6242	1011.0281	1045.2151	1095.0932	1139.7647	1147.6305	1168.0522	1179.2156	1191.082	1245.943	1267.9211	1275.8549	1308.9574	1330.5194	1383.7794	1413.2959	1422.9531	1470.0402	1491.5077	1494.1224	1531.8353	1816.8273	2853.2276	3018.1564	3020.8223	3025.4766	3061.7429	3070.9802	3088.8844	3096.3011	3103.8544	3125.9361
CC12COC1CC2C=O	C[C@]12CO[C@H]1C[C@H]2C=O	
InChI=1S/C7H10O2/c1-7-4-9-6(7)2-5(7)3-8/h3,5-6H,2,4H2,1H3	InChI=1S/C7H10O2/c1-7-4-9-6(7)2-5(7)3-8/h3,5-6H,2,4H2,1H3/t5-,6-,7+/m0/s1
