15
gdb 48679	3.54436	1.19386	1.08218	0.8219	67.06	-0.258	-0.062	0.196	1106.372	0.111469	-457.78106	-457.773356	-457.772412	-457.813669	28.448	
O	-0.3930866173	 0.5512177839	 0.7153474679	-0.249048
C	 0.243084258	 0.9488936439	-0.2269358998	 0.095534
C	 1.3572752686	 1.9309290251	-0.1078679175	 0.305871
C	 1.9471701372	 2.336088522	 1.2323027557	-0.299028
C	 2.7563431918	 3.6173105799	 0.9305528242	-0.347357
C	 2.1487570525	 4.1916545831	-0.3534411985	 0.4251
O	 2.1307949197	 5.3409593579	-0.7046640424	-0.302597
C	 1.4792312987	 3.0475299645	-1.088562857	-0.144502
O	 2.3149915514	 1.892834674	-1.1714663614	-0.272563
H	 0.0542118629	 0.6108412643	-1.2682420176	 0.096708
H	 1.1263268355	 2.5299468993	 1.9282483544	 0.141629
H	 2.5537234446	 1.5321268735	 1.6563722106	 0.130518
H	 2.7220938733	 4.3624140334	 1.7266564435	 0.141953
H	 3.8094967903	 3.3877313444	 0.7379989555	 0.151407
H	 0.8019381929	 3.2286777506	-1.9178070277	 0.126376
80.5352	134.007	183.9989	206.6235	338.7816	383.7915	452.6797	480.1005	544.4587	629.0471	657.7955	744.1632	801.3886	811.4922	868.9401	940.7577	989.8004	1000.3805	1048.1867	1068.424	1146.2655	1172.6503	1222.7477	1242.3774	1273.1952	1286.6289	1335.2057	1373.897	1425.7923	1453.3693	1488.921	1820.3261	1852.2349	2912.9116	3065.0241	3072.4224	3113.9717	3132.22	3173.7913
O=CC12CCC(=O)C1O2	O=C[C@]12CCC(=O)[C@H]1O2	
InChI=1S/C6H6O3/c7-3-6-2-1-4(8)5(6)9-6/h3,5H,1-2H2	InChI=1S/C6H6O3/c7-3-6-2-1-4(8)5(6)9-6/h3,5H,1-2H2/t5-,6-/m1/s1
