17
gdb 26301	3.86124	1.04415	0.85172	4.3265	71.22	-0.1955	0.0264	0.2219	1314.4373	0.136486	-455.205572	-455.19671	-455.195765	-455.239317	33.062	
C	 0.3967795761	 0.9434526674	 0.8494231744	-0.404612
C	-0.2682460277	-0.0170391008	-0.1346857609	 0.005208
O	-1.518051467	 0.4870112701	-0.6181124447	-0.427991
C	 0.6191188583	-0.3844776919	-1.2826603646	 0.315015
C	 1.9317363437	-0.1764962902	-1.5303167019	-0.201594
N	 2.2264761332	-0.7677999109	-2.7558313558	-0.342021
C	 1.0936786735	-1.3439077186	-3.3256923195	 0.444162
O	 0.9917237355	-1.906557397	-4.3968343948	-0.430476
N	 0.117132262	-1.1089211792	-2.3660060562	-0.396612
H	 1.2849764216	 0.4923068095	 1.302394332	 0.125183
H	 0.7013666948	 1.8675148281	 0.34599668	 0.115396
H	-0.3081329014	 1.1963074267	 1.6444655524	 0.131522
H	-0.5578113161	-0.9297804953	 0.4033331274	 0.106345
H	-1.3298180387	 1.2874389252	-1.1227410734	 0.281641
H	 2.6827953332	 0.3119537705	-0.934498895	 0.138971
H	 3.113059339	-0.7672250574	-3.2273885773	 0.268097
H	-0.8562403501	-1.3096141262	-2.5172924622	 0.271766
56.5356	127.02	166.2447	227.7571	242.8495	316.617	350.6057	411.4405	429.4917	476.9411	515.3347	542.2694	606.0517	687.414	731.0259	758.3657	766.8516	885.7407	978.3428	983.0398	1034.4099	1080.2271	1097.7126	1120.4933	1192.0032	1224.8077	1284.4283	1349.7406	1354.6826	1392.8868	1401.2533	1421.5094	1427.1898	1490.9951	1496.02	1678.2115	1846.2073	3018.282	3038.4057	3107.8094	3131.1031	3287.9707	3688.5111	3699.2088	3786.5147
CC(O)C1=CNC(=O)N1	C[C@@H](O)c1c[nH]c(=O)[nH]1	
InChI=1S/C5H8N2O2/c1-3(8)4-2-6-5(9)7-4/h2-3,8H,1H3,(H2,6,7,9)	InChI=1S/C5H8N2O2/c1-3(8)4-2-6-5(9)7-4/h2-3,8H,1H3,(H2,6,7,9)/t3-/m1/s1
