17
gdb 14113	3.78828	1.78831	1.41078	2.4103	69.15	-0.2388	-0.0223	0.2165	912.1623	0.141692	-363.839059	-363.831354	-363.83041	-363.871186	28.66	
C	 0.1321781222	 1.2555489432	-0.7433402057	-0.504565
C	-0.0421446013	 0.0904492676	 0.2113122898	 0.291721
O	 0.7533810535	-0.1580031257	 1.0930190481	-0.306533
C	-1.253975373	-0.7589229505	 0.0475414612	 0.261295
C	-1.974232887	-0.9730823856	-1.2372791238	-0.27546
N	-2.6498560694	-0.1607274494	-0.2308440871	-0.160498
C	-3.1954171094	-1.1378450016	 0.7844939381	-0.150241
C	-1.7897752933	-1.6965664442	 1.1237830949	-0.315481
H	 0.8906214768	 1.9322781683	-0.3483828028	 0.143139
H	 0.4638590319	 0.891198549	-1.7226413104	 0.141409
H	-0.8155203068	 1.7823268799	-0.8890079618	 0.156814
H	-1.653464854	-0.4043162242	-2.1039174351	 0.126588
H	-2.3469548516	-1.9716877168	-1.4615723712	 0.11797
H	-3.6669486102	-0.5919614165	 1.6028543752	 0.120677
H	-3.9203949853	-1.8356300042	 0.3533309281	 0.109378
H	-1.6115744753	-2.7637797762	 0.969575138	 0.108249
H	-1.4408343578	-1.420048143	 2.1185501145	 0.13554
74.3858	156.9558	164.59	203.5732	301.4251	383.5477	467.7541	479.9458	588.805	633.4128	744.5711	769.3358	789.0901	840.5848	938.8812	952.729	963.018	992.0317	1039.5969	1086.4346	1103.4613	1126.7872	1147.6483	1195.8535	1219.4005	1255.0163	1277.5322	1326.001	1363.6264	1391.6165	1467.6289	1477.7718	1491.7199	1494.465	1516.3283	1785.6393	3039.6237	3052.7725	3071.9003	3097.1396	3106.8077	3119.0557	3143.471	3154.6784	3198.7776
CC(=O)C12CN1CC2	CC(=O)[C@]12CN1CC2	
InChI=1S/C6H9NO/c1-5(8)6-2-3-7(6)4-6/h2-4H2,1H3	InChI=1S/C6H9NO/c1-5(8)6-2-3-7(6)4-6/h2-4H2,1H3/t6-,7?/m0/s1
