17
gdb 85780	2.28958	1.04439	0.97597	1.2622	70.66	-0.1887	0.0466	0.2353	1310.3829	0.132659	-455.168448	-455.157746	-455.156802	-455.207146	35.212	
C	-0.225369541	 1.2559586275	 0.0137072345	-0.334832
N	-0.0789139615	-0.0342771266	 0.6789063729	-0.113239
C	-1.196272621	-1.0369224285	 0.5270781071	-0.186985
C	-0.1531532016	-1.9958026479	-0.0188338204	-0.29933
C	 0.6842909263	-1.5328665288	-3.1494406021	 0.593633
O	 1.4897808415	-2.3531322575	-2.9670138977	-0.310902
O	-0.1121845294	-0.7149070814	-3.3684346315	-0.296428
C	 0.767832504	-1.0139662741	 0.0994454896	 0.371158
N	 2.0916515036	-0.7820413782	-0.2172421414	-0.597266
H	 2.6049670024	-1.6179880434	-0.460958587	 0.25903
H	 2.5827597058	-0.2288770183	 0.4737583678	 0.253026
H	 0.7193077113	 1.8055023295	 0.0672344106	 0.11869
H	-0.508421785	 1.1638571834	-1.0475143508	 0.118139
H	-0.9866704564	 1.8454562371	 0.5332063085	 0.122419
H	-1.6687791416	-1.2856412315	 1.4841122193	 0.105802
H	-1.9606200446	-0.6906193641	-0.1787284017	 0.105068
H	-0.1202128828	-3.0599495572	-0.1851948378	 0.092017
26.2269	32.9212	57.6457	75.1675	93.5961	194.4302	216.3921	240.1096	301.7945	357.2082	445.1892	608.6476	660.5727	670.9124	686.9355	699.5368	739.7244	793.0724	935.1293	955.0156	1017.2032	1078.2238	1085.4237	1172.0052	1200.4726	1212.551	1238.8994	1248.961	1375.8836	1403.0891	1454.8736	1483.6683	1504.059	1505.8926	1617.7315	1712.3284	2429.8442	2973.8674	3025.2766	3070.4893	3073.4948	3109.6331	3261.2481	3540.5943	3644.7038
CN1CC(C([O-])=O)C1=[NH2+]	CN1C[CH][C]1N.C(=O)=O	
InChI=1S/C5H8N2O2/c1-7-2-3(4(7)6)5(8)9/h3,6H,2H2,1H3,(H,8,9)	InChI=1S/C4H8N2.CO2/c1-6-3-2-4(6)5;2-1-3/h2H,3,5H2,1H3;
