14
gdb 42161	3.88463	1.1272	0.89544	1.1661	72.17	-0.2533	-0.0932	0.1601	1228.7961	0.098284	-436.646025	-436.637192	-436.636248	-436.680578	30.646	
O	-0.0679516285	-0.0836704622	-0.4302245494	-0.277238
C	-0.0821869274	 1.1226705487	-0.3303586927	 0.109087
C	 1.1182928583	 1.9182483289	-0.2098886155	 0.306313
C	 2.1443946435	 2.5420730064	-0.1309487728	-0.383252
C	-1.397566455	 1.9319837339	-0.280855728	 0.306001
O	-1.3959580658	 3.108437651	 0.005369196	-0.326683
N	-2.5033694493	 1.2142831569	-0.659400292	-0.074675
C	-3.0568023269	 0.0237492007	-0.0521019051	-0.212425
C	-3.8151498178	 1.3218358526	-0.0673824281	-0.229508
H	 3.0455284704	 3.1015829645	-0.0587815834	 0.22036
H	-3.3276156331	-0.7729768629	-0.7379781922	 0.139269
H	-2.628116035	-0.306319869	 0.8891783755	 0.143273
H	-3.8905839792	 1.8889400299	 0.8565051755	 0.143216
H	-4.6377891442	 1.4547818905	-0.7634912278	 0.136263
35.1921	102.9338	131.56	185.2859	190.8185	241.6469	303.7749	426.315	450.1276	533.2835	630.909	651.2794	720.4907	721.0659	800.4043	839.0298	874.1478	984.9465	1042.8396	1062.0328	1134.6947	1137.0951	1166.4246	1171.8159	1231.5583	1431.244	1495.7525	1524.7809	1763.0882	1781.8518	2216.0613	3118.1858	3124.6746	3204.0203	3218.0244	3494.3811
O=C(C#C)C(=O)N1CC1	O=C(C#C)C(=O)N1CC1	
InChI=1S/C6H5NO2/c1-2-5(8)6(9)7-3-4-7/h1H,3-4H2	InChI=1S/C6H5NO2/c1-2-5(8)6(9)7-3-4-7/h1H,3-4H2
