13
gdb 8794	5.20886	1.20063	0.98177	3.7165	57.12	-0.2456	-0.1188	0.1268	1110.57	0.093124	-435.772305	-435.763593	-435.762649	-435.806922	28.248	
C	-0.146132933	 1.4181694131	 0.0810575189	-0.337104
N	-0.0255894133	-0.0250939217	 0.1239243259	-0.304432
C	 0.6411691758	-0.6830685381	 1.091893938	 0.312977
O	 1.223596793	-0.1868469186	 2.0447109434	-0.363957
C	 0.6151591455	-2.2069376904	 0.8991132607	 0.216756
O	 0.0508152954	-2.7315456625	-0.0281817232	-0.270734
C	 1.3602838281	-3.0365383605	 1.9710361597	 0.094314
O	 1.3910906366	-4.2351891577	 1.8990462195	-0.212074
H	 0.297770253	 1.8227083448	-0.8344945727	 0.139833
H	-1.1957034254	 1.7265432976	 0.1283913239	 0.139835
H	 0.3847191772	 1.8208840658	 0.944670075	 0.173262
H	-0.4489335228	-0.6003171544	-0.5902876439	 0.271244
H	 1.8425961899	-2.4580117274	 2.7763374647	 0.14008
48.4547	69.7546	92.8622	145.4811	163.2016	281.6471	343.2158	375.1775	422.7833	510.1863	620.6819	728.9425	794.0516	858.5223	958.0201	1015.942	1141.3228	1151.8655	1181.621	1267.5243	1387.0637	1445.5471	1493.9637	1497.2102	1574.4689	1770.5695	1804.6112	1830.0028	3007.8387	3036.4833	3092.9429	3153.4284	3611.1146
CNC(=O)C(=O)C=O	CNC(=O)C(=O)C=O	
InChI=1S/C4H5NO3/c1-5-4(8)3(7)2-6/h2H,1H3,(H,5,8)	InChI=1S/C4H5NO3/c1-5-4(8)3(7)2-6/h2H,1H3,(H,5,8)
