20
gdb 93491	2.49625	1.43541	1.07181	1.9109	76.39	-0.263	0.0137	0.2767	1176.6033	0.171813	-440.307037	-440.298195	-440.297251	-440.340355	33.888	
C	-0.0169495591	 1.5814281469	 0.0151925356	-0.409829
C	 0.011750861	 0.0530892342	 0.0485275632	-0.001741
C	 0.6501640309	-0.5339100027	-1.2233698962	-0.275619
C	 0.8858854366	-2.0247999521	-1.1629095724	 0.360119
N	 0.7754784724	-2.7647514215	-2.1815406117	-0.494284
O	 1.3490108825	-2.519910846	 0.0376033661	-0.266976
C	 0.7421609807	-2.0126608001	 1.2398106192	-0.12201
C	 0.7690010536	-0.4911941117	 1.2755405115	 0.123466
O	 2.1054945965	-0.0093937536	 1.346107823	-0.442843
H	 1.0010366723	 1.9807123717	 0.0338314664	 0.134701
H	-0.516996854	 1.9469365519	-0.8872915953	 0.11406
H	-0.5512088297	 1.9834296067	 0.8824100447	 0.112578
H	-1.0191189912	-0.3212143341	 0.1226202729	 0.077833
H	 0.0582328216	-0.3177418355	-2.1141474912	 0.133348
H	 1.6291285389	-0.0562901602	-1.3710704232	 0.124233
H	 1.0189194466	-3.727965942	-1.9384017508	 0.220197
H	-0.2880057157	-2.3853510648	 1.3165972392	 0.11014
H	 1.3306764493	-2.4331235849	 2.058480235	 0.125052
H	 0.2756911113	-0.1512964585	 2.1941157201	 0.08719
H	 2.6457968754	-0.5708549636	 0.778580894	 0.290384
90.2714	134.1611	168.0016	228.2813	254.7562	288.5652	359.2037	382.5608	417.9676	451.4218	508.5308	583.8357	606.1113	717.991	822.4477	843.1204	888.5947	914.7941	937.7188	966.1303	985.8858	1039.6801	1052.2223	1087.8903	1116.9794	1133.529	1176.5377	1211.5662	1250.9647	1284.0912	1296.8558	1317.1336	1334.8792	1365.8924	1388.338	1408.7213	1413.8849	1425.7347	1473.3106	1495.2971	1499.0046	1504.4624	1755.2516	3003.1701	3018.6202	3022.6553	3036.6527	3046.342	3102.2002	3108.3376	3118.4306	3121.3457	3456.6165	3800.0235
CC1CC(=N)OCC1O	C[C@H]1C[C]([NH])OC[C@H]1O	
InChI=1S/C6H11NO2/c1-4-2-6(7)9-3-5(4)8/h4-5,7-8H,2-3H2,1H3	InChI=1S/C6H11NO2/c1-4-2-6(7)9-3-5(4)8/h4-5,7-8H,2-3H2,1H3/t4-,5+/m0/s1
