17
gdb 29296	5.44853	0.91879	0.83345	1.2246	77.49	-0.1856	0.0301	0.2157	1352.1096	0.13736	-418.004506	-417.996104	-417.99516	-418.038056	31.567	
O	 0.4445284498	 1.3476437595	-0.1873268342	-0.448881
C	 0.1559999744	 0.0201193698	-0.0558935097	 0.334964
C	-0.2625272956	-0.7816773439	-1.0913093785	-0.176004
N	-0.4425588369	-2.0493369867	-0.5704999256	-0.337219
C	-0.1569568262	-2.0613336757	 0.7709786771	 0.362533
C	 0.2265173495	-0.7787477617	 1.1180722072	-0.396328
C	-0.225488129	-3.2640967095	 1.6180165234	-0.073401
C	-1.0040630299	-4.4733449709	 1.2377957329	-0.257674
N	 0.4652097599	-4.5263351521	 1.2419099707	-0.318265
H	 0.723360446	 1.683214184	 0.6690725598	 0.296485
H	-0.4406500399	-0.5589824475	-2.1291335732	 0.119249
H	-0.809646626	-2.823703148	-1.0938495637	 0.257036
H	 0.5340759106	-0.460558658	 2.1036128099	 0.090852
H	-0.1313318997	-3.0376648136	 2.6762786686	 0.096934
H	-1.4886993725	-5.0696447382	 2.006195386	 0.124752
H	-1.5357991255	-4.4693990692	 0.2884542725	 0.099624
H	 0.819315241	-4.4352256584	 0.2919651368	 0.225339
39.3922	136.0497	179.3051	204.5692	306.7934	329.6581	345.033	453.1812	469.7439	610.0272	628.5526	690.6724	691.3155	713.3081	769.5045	797.0559	868.5913	956.9778	980.031	984.0134	1006.3513	1089.3818	1124.092	1144.7992	1162.0224	1170.1103	1195.8836	1257.3899	1292.6356	1322.3286	1333.6934	1381.6662	1467.6791	1481.8333	1513.1608	1562.3535	1662.1204	3098.4288	3149.1409	3180.5926	3234.3271	3282.3733	3490.3585	3690.1981	3847.4336
OC1=CNC(=C1)C1CN1	Oc1c[nH]c(c1)[C@H]1CN1	
InChI=1S/C6H8N2O/c9-4-1-5(7-2-4)6-3-8-6/h1-2,6-9H,3H2	InChI=1S/C6H8N2O/c9-4-1-5(7-2-4)6-3-8-6/h1-2,6-9H,3H2/t6-/m1/s1
