15
gdb 81085	2.00085	1.81323	1.17178	4.2393	68.46	-0.2615	-0.0506	0.2109	1057.3	0.109384	-457.706079	-457.697753	-457.696809	-457.739331	29.988	
C	-0.0983383002	 1.5442952539	 0.0102789102	-0.437837
C	-0.0395353501	 0.0259383355	-0.0037159457	-0.029832
C	 1.242029876	-0.6374760867	-0.5896393429	-0.0833
O	 1.9894802372	-0.2322416982	 0.6285271232	-0.310547
C	 0.6976151758	-0.6790177822	 1.1886467414	 0.172991
C	 0.4451078182	-0.6015229543	 2.6496362854	 0.037064
O	 1.2587575859	-0.2468822557	 3.4623581711	-0.233744
C	 0.8933214422	-1.9106303994	 0.2088707926	 0.441369
O	 0.899198031	-3.0912975084	 0.1788022823	-0.28818
H	 0.855165821	 1.9664835554	 0.3320847951	 0.154447
H	-0.3310119357	 1.922619135	-0.9900071943	 0.130159
H	-0.883032651	 1.8942199608	 0.6876926159	 0.131687
H	-0.9848096671	-0.4368619898	-0.3060544605	 0.100952
H	 1.7321904044	-0.4894732109	-1.5495680068	 0.124062
H	-0.5821927777	-0.9206706449	 2.9345080629	 0.090711
75.2686	142.6187	176.1576	203.1061	224.3393	239.1767	313.8814	451.9076	543.8631	564.0738	664.1099	721.9202	761.5778	783.7619	811.8237	879.0871	955.3556	976.9787	1028.5173	1059.5549	1072.2423	1108.3934	1172.1226	1197.4558	1217.8586	1294.6008	1384.1473	1406.6666	1423.9253	1494.4602	1500.31	1817.1806	1944.649	2885.8146	3046.5018	3062.8391	3108.35	3144.2555	3155.0933
CC1C2OC1(C=O)C2=O	C[C@H]1[C@H]2O[C@]1(C=O)C2=O	
InChI=1S/C6H6O3/c1-3-4-5(8)6(3,2-7)9-4/h2-4H,1H3	InChI=1S/C6H6O3/c1-3-4-5(8)6(3,2-7)9-4/h2-4H,1H3/t3-,4+,6-/m0/s1
