23
gdb 108636	1.97835	1.33702	0.93927	1.7535	88.98	-0.2266	0.0224	0.249	1373.3346	0.205211	-388.315181	-388.305073	-388.304128	-388.350299	37.723	
C	-0.3737170006	 1.3003491721	-0.118724881	-0.385137
C	-0.0291720422	-0.1907490073	-0.0275512801	 0.024023
C	 0.9320386878	-0.6216096511	-1.1673272664	-0.301185
C	 2.3034519653	-0.6228127264	-0.5227441502	 0.21959
C	 3.5309905936	-0.7306087024	-1.373920807	-0.502143
C	 2.2071232399	-0.5654126314	 0.8139604249	 0.198141
C	 3.3125421382	-0.5642119545	 1.8251352728	-0.174377
O	 3.2701963002	 0.5852579216	 2.6741395408	-0.414978
C	 0.762727848	-0.5114277077	 1.2677667302	-0.304542
H	 0.5356777726	 1.9118751372	-0.0839211397	 0.109665
H	-0.8962078454	 1.5320316627	-1.0530394339	 0.108927
H	-1.0156625176	 1.6100625171	 0.7125788368	 0.112213
H	-0.9600707689	-0.764770813	-0.066866161	 0.065442
H	 0.6917661744	-1.6245772481	-1.5500560794	 0.098757
H	 0.8787421358	 0.0515941446	-2.0333533211	 0.092531
H	 3.5665848148	 0.080660211	-2.1123361817	 0.123681
H	 4.4565092969	-0.7016800016	-0.7939969508	 0.123129
H	 3.5268649569	-1.6669460478	-1.9474168262	 0.127336
H	 3.2059659204	-1.4174099465	 2.5069877903	 0.110478
H	 4.2951335919	-0.6593505113	 1.3417934614	 0.088164
H	 3.3046706969	 1.3581847019	 2.1007157466	 0.278275
H	 0.6059178777	 0.2356483472	 2.0536733511	 0.106562
H	 0.4638840534	-1.4778462865	 1.6999717638	 0.095448
71.0446	74.7446	126.1164	173.4867	226.0327	254.0488	273.4729	309.7715	345.5779	370.8411	375.6848	444.7331	550.0069	593.8084	662.8375	789.8739	810.6259	888.2454	902.6293	939.9873	954.4881	962.8615	1020.5818	1028.5841	1043.2705	1092.0962	1100.4872	1120.3928	1176.1492	1191.0447	1205.491	1238.3628	1252.2642	1286.8808	1322.96	1358.8953	1363.445	1367.161	1404.0885	1411.9624	1418.0732	1480.1191	1481.8193	1486.5426	1491.506	1499.3034	1501.9915	1502.9543	1732.7095	2995.4663	2996.8974	2999.8768	3016.3321	3023.7896	3031.0998	3045.86	3052.7037	3058.0283	3062.216	3092.7621	3097.6758	3115.5547	3808.8502
CC1CC(C)=C(CO)C1	C[C@H]1CC(=C(CO)C1)C	
InChI=1S/C8H14O/c1-6-3-7(2)8(4-6)5-9/h6,9H,3-5H2,1-2H3	InChI=1S/C8H14O/c1-6-3-7(2)8(4-6)5-9/h6,9H,3-5H2,1-2H3/t6-/m0/s1
