17
gdb 33864	4.07109	1.29589	1.15956	4.2137	76.38	-0.2508	0.0196	0.2704	1062.3902	0.13818	-380.846152	-380.838983	-380.838038	-380.877619	28.57	
N	-0.0001000035	-1.120269048	-0.0849841767	-0.347388
C	-0.0091997834	 0.0366178907	-0.0466382729	 0.207612
C	-0.0250062451	 1.4693270792	 0.0051458149	 0.186475
C	 0.4325032167	 2.2509242152	-1.2180651683	-0.331304
C	 1.2644790452	 2.2972192901	 0.0303890906	-0.034829
N	 1.1599546844	 3.356584452	 1.0214554222	-0.099773
C	 0.221706144	 4.4568170081	 0.750489255	-0.251256
C	-0.2058331863	 3.3119108365	 1.5921281389	-0.00721
C	-0.9995960692	 2.1554713669	 0.9785492765	-0.331376
H	 0.8306395872	 1.6670684334	-2.0403391427	 0.14134
H	-0.1636444152	 3.0999405425	-1.5280739324	 0.129252
H	 2.2281847841	 1.802345012	 0.0206209028	 0.126507
H	 0.4963876124	 5.3967550682	 1.2209183254	 0.126215
H	-0.2034938854	 4.5711516152	-0.2414204274	 0.117851
H	-0.2772440418	 3.4430648429	 2.6684318407	 0.105074
H	-1.9161296272	 2.485263148	 0.4795372936	 0.125935
H	-1.2910491969	 1.4479159372	 1.7581482698	 0.136874
126.2942	155.5275	248.028	277.9502	430.8936	449.0782	529.9201	556.3145	583.6841	664.8221	716.4826	758.3916	818.14	844.6606	874.1982	902.7951	934.3817	952.7831	1013.127	1055.6788	1075.7973	1081.2484	1094.6859	1120.2156	1129.1204	1161.0283	1189.331	1246.8064	1261.7486	1289.9528	1316.4569	1371.7101	1391.1494	1473.5867	1491.1314	1520.9015	2346.7059	3059.8692	3108.6988	3118.5991	3144.4079	3146.8654	3187.7427	3200.1202	3232.8863
N#CC12CC1N1CC1C2	N#C[C@]12C[C@H]1N1C[C@H]1C2	
InChI=1S/C7H8N2/c8-4-7-1-5-3-9(5)6(7)2-7/h5-6H,1-3H2	InChI=1S/C7H8N2/c8-4-7-1-5-3-9(5)6(7)2-7/h5-6H,1-3H2/t5-,6-,7+,9?/m1/s1
