21
gdb 77598	2.24841	1.63333	1.34342	1.35	83.61	-0.2218	0.0235	0.2453	1089.4192	0.18142	-387.092737	-387.08347	-387.082526	-387.12585	35.968	
C	-0.002201301	 1.5391403724	 0.0762352405	-0.495085
C	 0.0941103626	 0.0318082741	 0.0588312872	 0.229544
C	 0.426035724	-0.6547879675	-1.2725340006	-0.33408
C	 1.2126861777	-1.8809536663	-0.864899683	-0.08328
C	 1.4185966665	-1.9265038978	 0.452497139	-0.132409
C	 0.7745636144	-0.7854283643	 1.1720383411	 0.243806
C	 1.4353868904	-0.2015247617	 2.3983502431	-0.489597
C	-0.7371652386	-0.7871974383	 1.0289573324	 0.018303
O	-1.4569375424	-0.126112828	 2.0305713654	-0.42749
H	 0.9528280946	 1.9991280394	-0.2012662878	 0.118975
H	-0.7524393342	 1.8916024389	-0.6431796448	 0.11034
H	-0.2838975846	 1.9153803227	 1.0621574438	 0.126343
H	-0.4794409353	-0.9120676178	-1.8395866486	 0.102156
H	 1.0163590423	 0.0038877277	-1.9265921897	 0.101011
H	 1.5495782583	-2.6232297975	-1.5797026896	 0.091877
H	 1.9629170983	-2.703692608	 0.9791102484	 0.090047
H	 2.3948894765	 0.265289792	 2.150056794	 0.112836
H	 0.796538969	 0.5436024242	 2.8754719151	 0.135502
H	 1.6310451521	-0.986404905	 3.1383132879	 0.11591
H	-1.201418143	-1.7071255864	 0.6684948724	 0.077749
H	-2.1947343177	 0.334313537	 1.6163627137	 0.28754
149.5144	151.7977	192.7154	196.3622	238.2339	253.6621	287.067	300.7103	378.7807	422.1512	491.2407	517.3686	614.3924	662.7844	728.9947	754.136	782.426	892.0822	917.3193	954.1192	959.661	980.4062	986.3412	1052.9124	1078.7201	1086.8455	1122.6571	1145.9624	1168.6991	1211.6392	1219.6251	1250.7373	1282.4552	1315.3271	1365.7251	1376.2878	1406.9938	1414.4981	1436.8064	1479.481	1489.7668	1493.8708	1501.0613	1507.529	1674.1563	2995.6051	3020.89	3023.9112	3030.1559	3074.406	3076.544	3083.2665	3120.9863	3134.0622	3177.5074	3205.0197	3797.9843
CC12CC=CC1(C)C2O	C[C@@]12CC=C[C@]1(C)[C@H]2O	
InChI=1S/C8H12O/c1-7-4-3-5-8(7,2)6(7)9/h3-4,6,9H,5H2,1-2H3	InChI=1S/C8H12O/c1-7-4-3-5-8(7,2)6(7)9/h3-4,6,9H,5H2,1-2H3/t6-,7-,8+/m1/s1
