17
gdb 86007	2.07861	1.60549	1.46035	3.2085	64.24	-0.258	-0.052	0.206	1005.253	0.133723	-496.089091	-496.080332	-496.079388	-496.121976	33.469	
O	-0.4862265556	 1.2533320737	 1.0213325482	-0.449234
C	-0.0411972858	 0.2023178374	 0.1891704202	 0.080038
C	 0.6292615838	-0.9826801908	 0.9258239136	-0.329439
C	-0.7304261266	-1.7554004541	 0.9270579725	 0.227019
O	-0.7462403029	-3.0922130665	 0.4896626603	-0.476493
C	-1.5217473818	-1.5910044713	 2.2041489446	 0.115623
O	-1.5114187596	-0.5991995401	 2.8996704796	-0.275537
C	-1.2185289482	-0.7448974754	-0.1952066924	 0.107099
O	-2.4898822411	-0.1929318736	-0.1343872897	-0.425173
H	-0.7324853581	 0.8675449091	 1.8802746357	 0.302687
H	 0.5106241151	 0.6613684804	-0.6325653502	 0.094931
H	 1.3551152849	-1.5065559872	 0.3000140421	 0.120772
H	 1.0688757521	-0.7530240879	 1.8990090314	 0.11896
H	-0.1998937134	-3.6234967897	 1.0796175919	 0.285555
H	-2.1493514721	-2.4687576298	 2.4633858503	 0.107622
H	-1.071223536	-1.2546169501	-1.1530116159	 0.103779
H	-2.3799204448	 0.6472578759	 0.3391453778	 0.29179
115.7806	166.4753	205.756	233.5133	255.7825	269.4314	325.5055	353.2655	425.9528	473.6904	498.6083	578.4602	590.6323	692.2435	731.618	792.4404	827.0781	854.7249	905.3975	954.4243	1030.6928	1064.4444	1119.378	1145.2791	1178.2717	1197.1985	1224.4618	1251.1651	1263.0267	1323.1715	1334.7338	1338.4707	1400.6329	1435.0176	1458.0522	1477.8867	1791.0606	2927.8962	3063.2401	3069.928	3101.2985	3134.344	3629.7256	3688.7295	3798.5492
OC1CC(O)(C=O)C1O	O[C@H]1C[C@@](O)(C=O)[C@H]1O	
InChI=1S/C5H8O4/c6-2-5(9)1-3(7)4(5)8/h2-4,7-9H,1H2	InChI=1S/C5H8O4/c6-2-5(9)1-3(7)4(5)8/h2-4,7-9H,1H2/t3-,4-,5+/m0/s1
