20
gdb 65224	2.61756	1.43292	1.10031	3.4637	79.11	-0.2475	0.0344	0.282	1162.2022	0.170927	-403.162636	-403.153656	-403.152712	-403.196408	33.882	
C	 0.0801157189	 1.5044154076	 0.5291287335	-0.461462
C	 0.0305517686	 0.0810705603	 0.0049372209	 0.348484
C	 1.0702699458	-0.3346625835	-1.0121277288	-0.30981
C	 1.1434803131	-0.8599569671	 0.4028047739	-0.303771
C	-1.3696784833	-0.4825832005	-0.1048450021	-0.219749
C	-2.2832782415	 0.0207588941	-1.2715711982	-0.178653
N	-2.3778500873	-1.3750569966	-1.7065746322	-0.321146
C	-1.5518373763	-1.8890544601	-0.741059632	 0.418629
O	-1.1460458144	-3.0001835792	-0.5168275815	-0.370529
H	 1.1119859407	 1.8631315767	 0.5943100815	 0.116262
H	-0.4692511609	 2.1940902105	-0.123286007	 0.113036
H	-0.3607432378	 1.5728769878	 1.5309234781	 0.115597
H	 0.7910823504	-1.0349843354	-1.7919135454	 0.122325
H	 1.7934353993	 0.4112734625	-1.3245079646	 0.10464
H	 1.9196175908	-0.4726748644	 1.0546711171	 0.103355
H	 0.8912717358	-1.9027675454	 0.5559418799	 0.147389
H	-1.877240099	-0.4275249821	 0.8646019831	 0.099411
H	-3.238060995	 0.4643472421	-0.9730451627	 0.111038
H	-1.7763112785	 0.6752628098	-1.9876916941	 0.114896
H	-2.8473900394	-1.8131413771	-2.4850853593	 0.25006
64.8029	115.7046	151.4291	200.2912	232.1522	295.2604	328.3956	352.6831	408.1714	493.3217	526.2058	640.9808	744.3435	769.2313	798.7944	872.0329	874.7977	913.8208	937.2913	956.7251	991.0184	1046.4037	1061.1065	1067.7192	1070.3991	1094.1913	1130.0991	1163.7367	1177.5747	1194.2513	1196.0458	1264.8335	1296.4957	1349.3191	1363.7547	1396.1807	1418.1422	1468.0695	1491.171	1497.4436	1510.2502	1526.603	1879.4418	3018.4344	3040.9652	3052.7171	3076.2736	3090.5858	3098.886	3131.2474	3134.9469	3212.5465	3230.2076	3610.6347
CC1(CC1)C1CNC1=O	CC1(CC1)[C@H]1CNC1=O	
InChI=1S/C7H11NO/c1-7(2-3-7)5-4-8-6(5)9/h5H,2-4H2,1H3,(H,8,9)	InChI=1S/C7H11NO/c1-7(2-3-7)5-4-8-6(5)9/h5H,2-4H2,1H3,(H,8,9)/t5-/m0/s1
