16
gdb 34143	2.85303	1.69739	1.35944	0.3849	75.66	-0.2379	0.022	0.2599	962.0059	0.125335	-400.643819	-400.636901	-400.635957	-400.675037	27.924	
C	-0.0244689437	-1.1712342255	 0.0704903031	-0.365545
C	-0.023205176	 0.0318609959	 0.0618381196	 0.046029
C	-0.0252107214	 1.4603527067	 0.0195541549	 0.24724
N	-0.6320843484	 2.3459773099	 1.0876887194	-0.363899
C	-0.0859816472	 3.3105862064	 0.0675392955	-0.094723
C	 1.2017674839	 2.441067824	-0.0513684997	-0.079517
C	 1.6439288889	 2.4836669073	-1.5034121023	-0.117527
O	 0.3698113209	 2.4723163052	-2.1877178898	-0.271947
C	-0.5391129657	 2.4187397476	-1.1239368402	 0.083897
H	-0.026173094	-2.2331797872	 0.0835052594	 0.184522
H	-1.6542483356	 2.3071162369	 1.011381597	 0.212749
H	-0.1560778356	 4.3909387559	 0.1864749246	 0.089013
H	 1.9322305065	 2.4330236825	 0.7546962309	 0.099026
H	 2.1977533183	 3.3928086856	-1.7645443393	 0.112307
H	 2.2317958339	 1.6088670884	-1.8035238768	 0.120384
H	-1.5735277147	 2.3815990904	-1.4657280263	 0.097991
125.7286	153.1705	298.8543	359.063	441.595	511.5976	523.7056	589.1943	613.1193	669.3918	702.8428	748.1827	780.1295	829.3726	913.0453	936.2557	950.4511	956.3326	982.3777	1016.1802	1032.9855	1089.2807	1101.149	1140.2213	1161.4656	1205.7769	1216.1021	1253.7119	1265.9883	1277.996	1295.6068	1333.8363	1393.7155	1515.3175	2231.9086	3031.8228	3073.4194	3126.0302	3136.3375	3155.7633	3376.067	3500.6183
C#CC12NC3C1COC23	C#C[C@@]12N[C@H]3[C@@H]1CO[C@@H]23	
InChI=1S/C7H7NO/c1-2-7-4-3-9-6(7)5(4)8-7/h1,4-6,8H,3H2	InChI=1S/C7H7NO/c1-2-7-4-3-9-6(7)5(4)8-7/h1,4-6,8H,3H2/t4-,5-,6+,7+/m0/s1
