21
gdb 114257	4.1599	0.93072	0.90762	2.5435	78.79	-0.2434	0.0664	0.3098	1383.7427	0.182655	-424.201076	-424.19229	-424.191345	-424.235241	33.535	
O	 0.1494662584	 1.1074350135	 0.6734270596	-0.421386
C	 0.0913748225	-0.2164081287	 0.1832364256	-0.063835
C	-1.2969091287	-0.5249474902	-0.350832785	 0.116227
C	-1.7059578707	-2.0036026314	-0.4798644275	-0.386954
C	-2.7103867148	-1.6848528741	 0.6507184655	 0.473512
C	-4.213473552	-1.9913277821	 0.4726949495	-0.285144
C	-4.0417044204	-3.1728399067	 1.4679795001	-0.215041
C	-2.7217110589	-2.5125298018	 1.9543988935	-0.283513
O	-2.2821518414	-0.3083633199	 0.6950599723	-0.345321
H	-0.6039542249	 1.1955565212	 1.2709733661	 0.292327
H	 0.8369939703	-0.3023404148	-0.615696041	 0.105774
H	 0.3491497324	-0.9496611599	 0.9662114352	 0.079359
H	-1.5155758736	 0.1093216027	-1.2182134847	 0.083367
H	-2.1556863492	-2.284215334	-1.4336136269	 0.111658
H	-0.9245470442	-2.723062183	-0.2220146424	 0.108535
H	-4.8111647089	-1.1826509505	 0.9033619532	 0.114735
H	-4.574255775	-2.2021470236	-0.5374766851	 0.096173
H	-4.8289533049	-3.3212554487	 2.2087703559	 0.104551
H	-3.8631102351	-4.1212737398	 0.9548615132	 0.106031
H	-1.8584032932	-3.1507319497	 2.1611572442	 0.095948
H	-2.8910525878	-1.8536979685	 2.8112881089	 0.112997
42.2673	99.1907	133.1425	180.6401	299.9784	328.4497	371.8706	425.5517	464.6245	508.4035	523.5371	691.2252	784.0178	801.8256	846.5868	875.4469	903.6072	920.6568	924.8576	946.2481	966.7481	1025.5386	1029.2231	1046.8603	1090.8411	1146.8974	1160.4093	1174.3343	1189.884	1212.566	1223.2731	1244.609	1248.9339	1269.0203	1273.7617	1299.5393	1319.5445	1349.1288	1399.1656	1438.5396	1467.7642	1481.112	1488.5145	1499.1098	1504.0249	2962.5582	3034.9436	3052.323	3057.1775	3065.7753	3067.202	3069.1843	3104.6106	3109.2479	3124.768	3127.789	3779.0978
OCC1CC2(CCC2)O1	OC[C@H]1CC2(CCC2)O1	
InChI=1S/C7H12O2/c8-5-6-4-7(9-6)2-1-3-7/h6,8H,1-5H2	InChI=1S/C7H12O2/c8-5-6-4-7(9-6)2-1-3-7/h6,8H,1-5H2/t6-/m1/s1
