16
gdb 51293	4.28166	1.10731	0.93111	5.8978	73.02	-0.2377	-0.0183	0.2194	1215.7161	0.126224	-434.066708	-434.059066	-434.058122	-434.099537	28.444	
O	-0.4103735763	 0.0049872167	-0.1069865851	-0.257981
C	-0.1196426911	 1.1684305166	-0.1594686143	 0.157134
N	 1.1582299444	 1.7055526723	-0.1556831012	-0.401712
C	 2.3820793674	 1.0435145587	-0.1229927698	 0.485335
N	 2.5484808336	-0.2122385609	-0.2634708814	-0.260642
C	 3.9803581115	-0.51310037	-0.1098100326	-0.156546
C	 4.7017907298	 0.819449342	 0.0708327284	-0.048785
N	 4.5362557942	 1.7131445789	-1.0931708317	-0.323149
C	 3.6339109986	 1.8494143502	 0.0839192758	-0.199035
H	-0.8691388956	 1.9855220486	-0.2089450409	 0.077209
H	 1.2044680277	 2.7122508784	-0.1920544244	 0.255424
H	 4.1200987687	-1.1685294174	 0.7585133815	 0.114005
H	 4.3355135545	-1.0549946151	-0.9928069988	 0.126761
H	 5.5923923016	 0.9037569884	 0.683691148	 0.099077
H	 5.240442513	 2.4476653077	-1.0397357445	 0.234551
H	 3.6525934079	 2.752355865	 0.685742031	 0.098354
49.588	154.2274	175.9963	273.9425	303.6731	352.0026	408.9476	564.0262	575.846	696.0512	751.9573	812.7793	821.4056	852.4906	887.7625	908.1444	950.9778	1005.3966	1021.1455	1036.6785	1071.1171	1121.5336	1136.3221	1156.726	1216.4455	1249.3369	1254.2165	1337.1303	1361.1507	1410.1072	1445.8478	1473.8119	1540.9903	1707.5856	1848.258	2916.4085	3035.6034	3077.5082	3161.3833	3175.5469	3478.6476	3627.2386
O=CNC1=NCC2NC12	O=CNC1=NC[C@H]2N[C@@H]12	
InChI=1S/C5H7N3O/c9-2-7-5-4-3(8-4)1-6-5/h2-4,8H,1H2,(H,6,7,9)	InChI=1S/C5H7N3O/c9-2-7-5-4-3(8-4)1-6-5/h2-4,8H,1H2,(H,6,7,9)/t3-,4-/m1/s1
