17
gdb 54973	2.93094	1.12918	0.95949	3.3125	71.64	-0.2522	-0.0478	0.2043	1242.9687	0.134197	-455.165588	-455.156023	-455.155079	-455.200234	34.185	
C	 0.3829277341	 1.6042100793	-0.6180366552	-0.489181
C	 0.0187434649	 0.2146579927	-0.151092093	 0.216081
N	 1.0941668671	-0.7541620404	 0.0570368365	-0.335483
C	 0.3568138787	-0.3164503301	 1.2341275354	-0.165949
C	 1.0915100485	 0.5325117601	 2.2448870698	 0.437075
N	 0.5831448429	 0.4283416938	 3.5098277147	-0.533673
O	 2.0193218864	 1.2662517515	 1.9702577117	-0.355338
C	-1.2624627266	-0.3578108056	-0.6822649967	 0.107962
O	-1.5189445561	-1.5390970876	-0.6727918464	-0.271911
H	 1.279683782	 1.9488434683	-0.1052454636	 0.183611
H	 0.5699135765	 1.6012006411	-1.6972445029	 0.125575
H	-0.4339872124	 2.3061589826	-0.4169930463	 0.116422
H	 0.7430397624	-1.6740326963	-0.21488638	 0.249373
H	-0.3760232125	-1.0102645429	 1.6421537777	 0.096426
H	-0.0836642817	-0.2794920829	 3.7635723077	 0.262245
H	 1.0676224602	 0.9138916309	 4.2474542104	 0.265781
H	-1.9747169942	 0.3836161555	-1.1020778797	 0.090985
57.925	106.0968	162.2757	178.1169	208.6473	225.1468	252.6784	318.2317	368.5228	386.4349	438.0196	558.5941	619.1863	650.6282	732.8954	784.4664	814.5143	872.6724	936.7539	998.2199	1033.7346	1079.9737	1083.0607	1106.8376	1129.3704	1234.5264	1269.7888	1305.6338	1344.1293	1416.5658	1427.7296	1467.6217	1490.6314	1502.9032	1618.583	1795.0884	1805.3487	2913.5033	3037.153	3096.1906	3122.4915	3166.9688	3453.0519	3600.4059	3734.165
CC1(NC1C(N)=O)C=O	C[C@]1(N[C@H]1C(=O)N)C=O	
InChI=1S/C5H8N2O2/c1-5(2-8)3(7-5)4(6)9/h2-3,7H,1H3,(H2,6,9)	InChI=1S/C5H8N2O2/c1-5(2-8)3(7-5)4(6)9/h2-3,7H,1H3,(H2,6,9)/t3-,5-/m0/s1
