22
gdb 118437	1.68889	1.21753	0.79403	5.2174	79.14	-0.2432	0.0246	0.2679	1531.6025	0.193161	-441.525937	-441.515303	-441.514359	-441.56256	37.793	
C	-0.0679936925	 1.7143709517	-0.1578433541	-0.395147
C	-0.259934456	 0.202807343	-0.210243044	-0.119113
N	 0.7692552508	-0.4332602916	-1.0415729707	-0.327292
H	 0.7749691925	-0.0096324962	-1.96262956	 0.226557
H	 2.2220191733	-0.8502845242	 0.0840192422	 0.300595
C	 0.664783455	-1.8931241845	-1.1440227624	-0.094163
C	 1.1569489225	-2.414493923	-2.5063217774	-0.201087
C	 0.233816946	-2.0651699719	-3.6773342877	-0.398085
C	 1.510791346	-2.5491134572	-0.0312617209	 0.426031
O	 1.4129677448	-3.7088437817	 0.2691990886	-0.348573
O	 2.3876070611	-1.7097934008	 0.5358977767	-0.36933
H	 0.9161558838	 1.9711149309	 0.2450448926	 0.129546
H	-0.1509536753	 2.1583809624	-1.1566316396	 0.116986
H	-0.8314814753	 2.1763854959	 0.4740920418	 0.127282
H	-0.1793034602	-0.2183356754	 0.7989468946	 0.124037
H	-1.2744596705	-0.0378527773	-0.5697699098	 0.098496
H	-0.3684293331	-2.2399456188	-0.9949839249	 0.094417
H	 2.1671634714	-2.0250197592	-2.6876776876	 0.107225
H	 1.2495746559	-3.5007160113	-2.4198469036	 0.139112
H	-0.7683578995	-2.4790527766	-3.5239454164	 0.126409
H	 0.1260359695	-0.9838827085	-3.821565034	 0.109118
H	 0.6265189297	-2.4752831358	-4.6122757932	 0.126977
50.4189	75.2491	104.2837	114.9555	160.9055	177.4327	243.7437	252.5888	320.8487	348.7342	371.2893	438.6855	562.5348	651.1382	727.2736	750.9476	780.7438	823.1902	880.4386	893.9367	913.2343	944.2111	1004.3836	1062.1019	1086.5777	1105.269	1148.7598	1154.1329	1190.2835	1231.5786	1275.7767	1296.9603	1307.6512	1355.5081	1370.7301	1389.6472	1415.4683	1418.3329	1433.2855	1470.9926	1486.0163	1495.8869	1497.9095	1500.7526	1505.4066	1523.2546	1868.8801	2965.6698	2997.0302	3030.2505	3032.7179	3035.2179	3052.4535	3082.8666	3103.5139	3105.4586	3111.2459	3121.8556	3432.3907	3534.9885
CC[NH2+]C(CC)C([O-])=O	CCN[C@@H](CC)C(=O)O	
InChI=1S/C6H13NO2/c1-3-5(6(8)9)7-4-2/h5,7H,3-4H2,1-2H3,(H,8,9)	InChI=1S/C6H13NO2/c1-3-5(6(8)9)7-4-2/h5,7H,3-4H2,1-2H3,(H,8,9)/t5-/m0/s1
