19
gdb 40588	5.55618	0.98497	0.96495	1.9922	79.23	-0.2284	0.0798	0.3082	1268.3061	0.159568	-385.774209	-385.766941	-385.765997	-385.806325	29.139	
C	-0.224537043	 1.4214904305	-0.2306540059	-0.27036
C	 1.2305997122	 1.2587862054	 0.1291561221	-0.270351
C	 0.3356566606	 0.0459144201	 0.0408925419	 0.011718
C	-0.0560131819	-0.6956172784	 1.2897005025	-0.036077
C	-1.1537729406	-1.7857697352	 1.2053027323	-0.105553
C	-0.1490319074	-2.8662993068	 0.6865689377	 0.086834
O	-0.5082374458	-3.8609392545	 1.6900191309	-0.330418
C	-0.5404879045	-2.5845785676	 2.3961573724	 0.079699
C	 0.7034485623	-1.9930033271	 1.6647127776	-0.10554
H	-0.8858008929	 1.8519430513	 0.5146677651	 0.110609
H	-0.4780512933	 1.6838840153	-1.2517348754	 0.111718
H	 1.9743192293	 1.4096781683	-0.6453362753	 0.111718
H	 1.5474930715	 1.5798622893	 1.1163504877	 0.110609
H	 0.4813224461	-0.5843890861	-0.833251974	 0.077811
H	-0.184409151	 0.0047665015	 2.1246990772	 0.062732
H	-2.2103139608	-1.7024891902	 0.9500412495	 0.081929
H	 0.0635187768	-3.2064101362	-0.3261110792	 0.096304
H	-0.8009214586	-2.5730359286	 3.454188559	 0.094691
H	 1.7499902111	-2.144388131	 1.9296768938	 0.081928
72.9462	142.0394	168.3725	306.3591	411.1636	460.0973	564.6476	748.6805	763.4903	788.8691	797.3552	819.155	837.4389	849.0568	880.8995	895.1867	903.1239	934.0974	945.3913	982.7428	1016.1321	1030.6661	1057.9513	1077.1351	1102.0387	1126.2275	1136.3127	1140.2318	1157.4316	1170.9647	1180.494	1198.3008	1203.8679	1229.2603	1234.7403	1282.1475	1326.341	1338.422	1448.0168	1470.3907	1506.7904	3025.2499	3112.4874	3117.9178	3121.9067	3128.278	3130.9801	3133.8539	3138.5308	3206.4421	3221.6406
C1CC1C1C2C3OC2C13	C1CC1[C@H]1[C@H]2[C@@H]3O[C@H]2[C@H]13	
InChI=1S/C8H10O/c1-2-3(1)4-5-7-6(4)8(5)9-7/h3-8H,1-2H2	InChI=1S/C8H10O/c1-2-3(1)4-5-7-6(4)8(5)9-7/h3-8H,1-2H2/t4-,5-,6+,7-,8+
