18
gdb 40661	3.41633	1.45695	1.25021	1.3703	75.6	-0.2248	-0.0056	0.2192	1036.3431	0.14871	-401.888411	-401.881038	-401.880094	-401.920492	29.024	
C	 1.0276320501	-1.0415925533	-0.5109068288	-0.225946
C	-0.0019272855	-0.0369757046	-0.9000288875	-0.226399
N	 0.6685590414	 0.0417855944	 0.398258008	-0.097679
C	-0.0781829573	-0.2751344896	 1.6144281339	-0.016671
C	-0.9037964556	 0.912781625	 2.0850392947	-0.077711
C	-2.1382628019	 0.5684885312	 2.4529143208	-0.095867
C	-2.3523039241	-0.8939432438	 2.221028457	-0.002228
O	-2.2694969601	-1.2625931385	 0.8247632383	-0.248446
C	-1.106267886	-1.4248835629	 1.6476002565	-0.011239
H	 0.6768673401	-2.047259002	-0.2892756019	 0.112296
H	 2.0329152606	-0.9941409859	-0.921136033	 0.113574
H	 0.2556665372	 0.760114384	-1.5925324977	 0.110678
H	-1.0357761957	-0.3621201292	-0.9254604196	 0.150596
H	 0.6822729207	-0.5143637804	 2.3739869651	 0.0947
H	-0.4933915692	 1.9154099955	 2.0659795333	 0.113265
H	-2.9056459329	 1.2331006147	 2.8298230933	 0.105945
H	-3.0443789873	-1.4881570906	 2.8094773055	 0.101659
H	-0.7817574146	-2.4516230539	 1.7914950921	 0.099472
66.0029	169.7137	192.3289	300.7377	340.0163	446.4696	499.5924	544.8425	705.652	742.2127	794.4321	818.3567	836.4555	844.7942	872.5997	901.9351	916.8849	951.2901	979.8037	1005.9197	1043.951	1057.4794	1066.0311	1111.7546	1116.6341	1126.8776	1137.3629	1177.7162	1189.4665	1255.395	1283.4439	1298.4916	1322.8495	1343.5859	1372.3216	1408.9696	1497.1514	1521.8184	1668.4063	2986.1222	3100.623	3117.4282	3148.7098	3167.9901	3182.1286	3198.8856	3221.4008	3222.9724
C1CN1C1C=CC2OC12	C1CN1[C@H]1C=C[C@H]2O[C@@H]12	
InChI=1S/C7H9NO/c1-2-6-7(9-6)5(1)8-3-4-8/h1-2,5-7H,3-4H2	InChI=1S/C7H9NO/c1-2-6-7(9-6)5(1)8-3-4-8/h1-2,5-7H,3-4H2/t5-,6+,7-/m0/s1
