22
gdb 61234	1.91114	1.47338	0.93704	1.1415	88.22	-0.223	0.0532	0.2762	1330.96	0.19124	-367.153498	-367.143137	-367.142193	-367.188692	38.773	
C	 0.026664517	 3.0157857154	 2.1748137136	-0.387483
C	 0.0828666902	 1.7204156897	 1.3598781749	 0.046714
C	 0.9744404163	 1.9386114479	 0.1125370632	-0.348062
C	 1.0168686197	 0.8324861095	-0.8354131495	 0.313048
C	 1.0580737519	-0.0573048756	-1.6435054357	-0.45092
N	 0.6698577184	 0.6655596025	 2.1822813111	-0.079771
C	-0.076336667	 0.1508515781	 3.3256129134	-0.256676
C	 0.1918525941	-0.7207422597	 2.1463825289	 0.036809
C	-0.9527513883	-1.2066868596	 1.2835968718	-0.420148
H	 1.0278438408	 3.2897318444	 2.5228618882	 0.124882
H	-0.3712588506	 3.8383782976	 1.5728813049	 0.112001
H	-0.6147244148	 2.8975646186	 3.0522382252	 0.115968
H	-0.9351048574	 1.4762928381	 1.0175395182	 0.069465
H	 0.6237235931	 2.8372051395	-0.4105338037	 0.122739
H	 1.9906031759	 2.1519343074	 0.4661353598	 0.136361
H	 1.1033440373	-0.842880814	-2.35624818	 0.192413
H	 0.4810278988	 0.0504951431	 4.254049087	 0.109141
H	-1.1098866221	 0.473451944	 3.455433642	 0.101692
H	 1.0111404277	-1.4345455091	 2.2215888206	 0.089808
H	-1.8139044268	-0.5337207085	 1.3135686293	 0.116035
H	-0.6422402172	-1.3172214435	 0.2412448142	 0.139589
H	-1.2893509971	-2.1834092956	 1.6482007127	 0.116396
54.1384	98.3231	139.6898	175.6245	216.2589	228.9238	240.0275	324.4763	346.0498	373.1193	381.6636	437.3525	519.7732	566.8521	605.1003	629.3792	707.4381	792.8628	874.0185	891.5221	915.4322	938.7183	989.9743	1023.7652	1036.9642	1068.1198	1114.0004	1117.862	1132.936	1146.3203	1167.0429	1192.6118	1251.8578	1306.4213	1337.4491	1364.9803	1370.2702	1401.1605	1406.4819	1418.0052	1457.0051	1489.1446	1493.5111	1500.2465	1500.6747	1511.6224	2233.6623	2974.9489	3023.9372	3039.4325	3040.4555	3064.4645	3077.8102	3098.9816	3111.7158	3112.3628	3116.0259	3126.7148	3163.3183	3505.763
CC(CC#C)N1CC1C	C[C@@H](CC#C)N1C[C@H]1C	
InChI=1S/C8H13N/c1-4-5-7(2)9-6-8(9)3/h1,7-8H,5-6H2,2-3H3	InChI=1S/C8H13N/c1-4-5-7(2)9-6-8(9)3/h1,7-8H,5-6H2,2-3H3/t7-,8+,9?/m0/s1
