23
gdb 122979	6.30449	0.46923	0.45071	2.9146	80.15	-0.2552	0.06	0.3152	2426.3635	0.203218	-462.546124	-462.534761	-462.533816	-462.583814	39.721	
C	 0.0167366949	 1.3549450018	-0.0940767455	-0.227395
O	 0.0142390021	-0.0500973795	-0.0360795126	-0.229275
C	 0.6791876046	-0.5553681022	 1.1000499629	-0.050966
C	 0.608427921	-2.0756884229	 1.0683799062	-0.194611
C	 1.3078878601	-2.7249054092	 2.2665698654	-0.219752
C	 1.2970428249	-4.2526125384	 2.2195932267	 0.096127
O	 1.943188604	-4.7664128587	 1.0463534771	-0.437189
C	 1.9347928007	-4.8979276129	 3.4526128518	-0.060828
O	 1.9570335526	-6.3028902823	 3.3338372693	-0.424742
H	 1.0398971058	 1.7620986173	-0.1388689766	 0.101307
H	-0.5182442403	 1.6472366668	-1.001018567	 0.127109
H	-0.4895975579	 1.8024190978	 0.7764802165	 0.102034
H	 1.731712977	-0.218379211	 1.1106762589	 0.079228
H	 0.2127724525	-0.1656268046	 2.0228360458	 0.081374
H	-0.4454269135	-2.3771979841	 1.0428955427	 0.109203
H	 1.057482164	-2.4355565939	 0.1373406799	 0.116941
H	 2.3521811621	-2.3805181859	 2.3242605311	 0.08802
H	 0.8320867703	-2.4019066572	 3.2021668268	 0.104472
H	 0.2656128533	-4.6159336837	 2.1358352056	 0.098978
H	 2.8238811391	-4.3738444866	 1.0038551055	 0.281401
H	 2.9538565062	-4.4869614431	 3.5850377234	 0.068488
H	 1.363964457	-4.649000525	 4.354248394	 0.105772
H	 2.1789180695	-6.4738916723	 2.408794342	 0.284302
50.0906	64.9232	81.1631	114.1167	139.6324	157.0955	208.815	239.9748	256.1003	317.8706	346.27	399.605	462.1967	504.5516	516.8819	586.53	759.1968	845.1414	872.738	969.6325	991.3891	1022.156	1058.3685	1086.2736	1097.4346	1113.412	1128.2926	1167.0447	1178.8635	1209.6703	1219.7123	1223.9288	1261.9103	1283.6147	1305.1214	1322.1222	1340.3554	1383.1234	1395.9729	1421.8099	1428.6592	1446.729	1479.0412	1483.043	1486.246	1499.3566	1506.5601	1508.6678	1533.2096	2923.697	2934.0423	2957.9794	2966.9363	2991.8303	3008.0643	3037.1036	3043.1171	3050.8599	3067.8016	3094.4023	3112.7004	3759.0121	3780.1968
COCCCC(O)CO	COCCC[C@@H](O)CO	
InChI=1S/C6H14O3/c1-9-4-2-3-6(8)5-7/h6-8H,2-5H2,1H3	InChI=1S/C6H14O3/c1-9-4-2-3-6(8)5-7/h6-8H,2-5H2,1H3/t6-/m1/s1
