21
gdb 103935	3.25105	1.16575	1.07938	2.7106	79.07	-0.2437	0.0853	0.329	1248.1593	0.179225	-424.186657	-424.176968	-424.176023	-424.220656	36.516	
C	-0.1435729677	 1.3344125251	-0.0650209572	-0.248165
O	 0.1264012525	-0.0498630454	-0.0501370859	-0.283708
C	 0.7212443625	-0.5462060216	 1.1245635241	 0.423456
C	 2.134179585	-0.0081305829	 1.3497921775	-0.457382
C	-0.1579989626	-0.5462830832	 2.4424958726	-0.374749
C	-0.0547535772	-2.081901753	 2.4398888145	 0.429011
C	-0.0524220011	-3.0183245937	 3.6035419271	-0.501872
O	-0.6750377866	-2.5055496479	 1.2173206943	-0.284413
C	 0.6882959885	-2.0819025896	 1.1650991325	-0.097431
H	 0.7701382872	 1.9454406109	-0.0932220461	 0.104827
H	-0.7193075266	 1.5330526451	-0.9723130197	 0.129336
H	-0.7414406093	 1.6468819362	 0.8038864957	 0.106219
H	 2.128246905	 1.0610459329	 1.5811472918	 0.121249
H	 2.6151111762	-0.5246131841	 2.1861328218	 0.118574
H	 2.7417278585	-0.1643805837	 0.4525136966	 0.124886
H	 0.3311644429	-0.0546977491	 3.2873137492	 0.099982
H	-1.1791119386	-0.1754378373	 2.3313962559	 0.109572
H	-1.034222229	-3.0348170844	 4.0903675819	 0.1314
H	 0.1811792242	-4.0344122639	 3.2747568628	 0.134739
H	 0.6862484036	-2.7102518002	 4.3507066112	 0.122318
H	 1.4148392226	-2.7752312403	 0.7531061995	 0.092153
96.0443	118.7723	168.8218	194.2358	207.4526	252.4847	307.4899	313.0535	324.6961	370.6005	437.6953	470.6492	562.5149	614.8848	690.0349	786.0417	855.9175	888.1917	912.9383	922.1468	933.7606	1008.7115	1009.6829	1057.5525	1106.2739	1141.5615	1144.1034	1177.2501	1180.1311	1201.1751	1217.7332	1248.4378	1267.3453	1311.3507	1399.6141	1404.158	1451.8505	1472.4356	1475.7619	1484.1806	1485.0179	1490.7046	1496.8904	1505.0522	1510.1309	2985.3576	3032.0776	3033.2957	3038.682	3063.661	3094.6279	3109.6949	3110.3446	3113.1426	3120.8636	3125.0978	3168.4923
COC1(C)CC2(C)OC12	CO[C@@]1(C)C[C@@]2(C)O[C@@H]12	
InChI=1S/C7H12O2/c1-6(8-3)4-7(2)5(6)9-7/h5H,4H2,1-3H3	InChI=1S/C7H12O2/c1-6(8-3)4-7(2)5(6)9-7/h5H,4H2,1-3H3/t5-,6-,7+/m0/s1
