15
gdb 25730	2.70784	1.56976	0.99985	3.3725	70.22	-0.2492	-0.0361	0.213	1113.7101	0.112816	-454.023205	-454.014529	-454.013585	-454.057145	30.456	
C	-0.0024491087	 1.5278887251	 0.1767196258	-0.502777
C	 0.0195963306	 0.048781531	 0.0100051949	 0.18816
C	 0.0107470332	-0.6975379915	-1.1323638383	 0.192554
O	 0.0404345367	-2.029089075	-0.7647149502	-0.197217
C	 0.0645686142	-1.9996034917	 0.5813071913	 0.06398
N	 0.0552359555	-0.8161774835	 1.1011817613	-0.299714
C	-0.0220082897	-0.3497057125	-2.5640655824	 0.319589
N	-0.0195624364	-1.4145089175	-3.4148847654	-0.539668
O	-0.0498661737	 0.8104260457	-2.941666946	-0.367365
H	 0.8859312249	 1.860466684	 0.7241766274	 0.139996
H	-0.0337902178	 2.0137921604	-0.7981430336	 0.169652
H	-0.8748617763	 1.8293284635	 0.7661706168	 0.139935
H	 0.0902747382	-2.9517330084	 1.0886827764	 0.156298
H	 0.0003607618	-2.3619032944	-3.0817029805	 0.270284
H	-0.0439808325	-1.2300405952	-4.4032523775	 0.266293
70.592	102.8767	122.5804	176.1334	189.1155	280.4898	312.6361	422.4561	498.0203	550.1176	650.741	667.9893	681.9831	691.0471	789.2314	857.6189	955.2704	988.547	1071.2987	1073.1673	1115.3335	1155.1432	1176.8362	1287.6727	1334.2844	1397.9832	1417.292	1477.1596	1489.3525	1545.2654	1607.0979	1653.6496	1771.9027	3041.7168	3095.0766	3163.5386	3272.5815	3613.4458	3753.2436
CC1=C(OC=N1)C(N)=O	Cc1c(ocn1)C(=O)N	
InChI=1S/C5H6N2O2/c1-3-4(5(6)8)9-2-7-3/h2H,1H3,(H2,6,8)	InChI=1S/C5H6N2O2/c1-3-4(5(6)8)9-2-7-3/h2H,1H3,(H2,6,8)
