19
gdb 76771	2.32648	1.54984	1.10025	3.3854	76.7	-0.2396	-0.0364	0.2032	1156.8538	0.156861	-423.014808	-423.005501	-423.004557	-423.049032	33.999	
C	 0.2241635594	 1.6813630117	 0.1009357674	-0.410506
C	 0.112564618	 0.1637729983	 0.0201862529	-0.112768
C	 0.6914586602	-0.6443543918	-1.2042558375	-0.148922
C	 1.723310279	 0.0744829419	-2.0701613035	-0.39022
C	 1.3283769967	-1.62833814	-0.200563867	 0.353538
C	 1.3205937916	-3.0998200324	-0.1701630923	-0.252455
O	 2.5204658021	-2.3626316343	-0.3925568585	-0.259306
C	 1.0259466731	-0.6720924803	 0.9448275349	 0.319275
O	 1.4031414611	-0.5576743685	 2.0746159972	-0.30556
H	 1.2454944617	 2.0231830888	-0.0860121551	 0.127575
H	-0.4357322131	 2.1675785742	-0.6240601349	 0.121024
H	-0.0602215711	 2.0207745336	 1.1012553569	 0.137486
H	-0.9257962155	-0.1412352946	 0.202923562	 0.106114
H	-0.0832482594	-1.0904999315	-1.8332408857	 0.079735
H	 2.526601248	 0.5101248642	-1.4672219306	 0.127303
H	 2.1878222095	-0.6304243713	-2.7655424009	 0.130155
H	 1.2619172411	 0.8774601028	-2.6526968267	 0.118939
H	 1.2606138386	-3.6168378447	 0.7861693914	 0.134494
H	 0.931671169	-3.639356476	-1.0329804299	 0.124098
50.1002	166.6235	172.8335	190.0805	208.937	229.6376	236.4779	255.3433	375.8342	478.634	548.5351	556.0483	691.6893	742.1026	771.2153	832.4753	873.9439	934.7198	960.5468	985.2122	1022.5918	1045.5887	1083.3558	1121.4361	1137.6128	1158.2376	1165.6176	1172.2145	1216.5862	1258.9918	1330.9142	1349.6201	1405.2818	1410.6184	1421.6594	1488.3246	1490.5555	1501.2875	1503.6455	1520.4468	1887.9087	3029.4856	3038.7036	3044.8849	3070.1323	3082.1959	3108.4931	3112.1013	3114.582	3122.98	3176.8755
CC1C(C)C2(CO2)C1=O	C[C@H]1[C@@H](C)[C@]2(CO2)C1=O	
InChI=1S/C7H10O2/c1-4-5(2)7(3-9-7)6(4)8/h4-5H,3H2,1-2H3	InChI=1S/C7H10O2/c1-4-5(2)7(3-9-7)6(4)8/h4-5H,3H2,1-2H3/t4-,5+,7+/m0/s1
