15
gdb 130088	4.99052	1.14075	0.96996	1.3604	69.23	-0.2101	0.011	0.2211	1162.0019	0.114767	-450.103102	-450.095316	-450.094372	-450.135532	28.914	
N	 0.0475005848	 1.3013000236	 0.5294543298	-0.576395
C	-0.015060038	 0.0258879882	 0.013357557	 0.386184
N	-1.1763017848	-0.6444193973	-0.0899834116	-0.356791
N	-0.7178794446	-1.7882464866	-0.6692864349	 0.06537
C	-0.8864257603	-3.2513930515	-0.7894570219	-0.175379
C	 0.6720713958	-3.2920124672	-1.0400379709	-0.025251
O	 0.9916573456	-3.7704894405	-2.3165914417	-0.409698
C	 0.6044670925	-1.7777506978	-0.7917495534	 0.305596
N	 1.1306272397	-0.6373809657	-0.3810165989	-0.417686
H	 0.8521852328	 1.8217620828	 0.214889405	 0.260613
H	-0.8175275322	 1.8161830718	 0.4620969822	 0.26001
H	-1.2102083928	-3.7360847615	 0.1346480346	 0.139213
H	-1.4997279789	-3.5645748091	-1.6364172982	 0.141753
H	 1.2120752737	-3.8269406535	-0.248064433	 0.105192
H	 1.9399342467	-3.6702163657	-2.4512335541	 0.297266
80.4364	144.9304	221.6114	271.3035	288.9888	323.7437	396.5467	456.2798	534.8575	589.6363	632.7764	734.1642	767.294	805.0871	864.7796	898.0462	988.4143	996.8666	1071.3227	1114.114	1131.2437	1171.9558	1195.8001	1256.9138	1286.4219	1290.7453	1376.2985	1420.916	1473.1787	1503.7035	1532.6284	1593.0779	1641.2068	3025.5717	3070.4663	3135.7103	3581.4611	3689.7372	3818.5035
NC1=NN2CC(O)C2=N1	Nc1nn2C[C@@H](O)c2n1	
InChI=1S/C4H6N4O/c5-4-6-3-2(9)1-8(3)7-4/h2,9H,1H2,(H2,5,7)	InChI=1S/C4H6N4O/c5-4-6-3-2(9)1-8(3)7-4/h2,9H,1H2,(H2,5,7)/t2-/m1/s1
