20
gdb 107159	4.40587	0.98317	0.93417	1.951	79.85	-0.2443	0.0765	0.3209	1320.8383	0.17135	-403.085779	-403.077208	-403.076264	-403.119249	33.157	
O	 0.0911360092	 1.3417730052	-0.391571589	-0.418192
C	 0.0607096096	 0.0587796594	 0.2182157466	-0.159638
C	-1.3363158118	-0.4756269383	 0.3173338024	 0.329396
C	-2.4082222158	-0.1083945058	 1.3645383149	-0.386884
C	-2.9463835333	-1.5527259832	 1.2364632504	 0.376575
C	-3.3921519773	-2.4391577457	 2.3571905854	-0.332168
C	-4.3659598622	-2.0449929975	 1.2657478311	-0.327523
C	-1.8782541477	-1.8745513338	 0.2071790249	-0.188351
N	-1.9573939855	-0.9484499951	-0.9247482772	-0.372899
H	-0.2987558459	 1.2313217737	-1.2663468513	 0.287875
H	 0.6822089472	-0.6627255247	-0.3328731379	 0.094684
H	 0.4945419778	 0.1865774513	 1.2155109943	 0.106473
H	-1.9858747945	 0.0957887349	 2.3527118686	 0.110991
H	-3.0812683435	 0.7109411048	 1.0900296335	 0.099454
H	-3.0337838326	-3.463786902	 2.3708424988	 0.115473
H	-3.5182621684	-1.9994482476	 3.3414571079	 0.11466
H	-5.1463446081	-1.3336993432	 1.5166344586	 0.114768
H	-4.6659611938	-2.8037136812	 0.5498695048	 0.115627
H	-1.3681267911	-2.8217019757	 0.0658733669	 0.092364
H	-2.9035390622	-0.5920472456	-1.0508283938	 0.227314
59.2041	94.9381	181.7954	251.099	273.5255	341.2097	367.9939	417.2718	430.6867	502.5035	594.2973	723.7679	775.0417	807.7066	851.7276	858.2922	909.4528	914.2368	942.2755	975.8274	979.1678	1008.5807	1045.6023	1050.9502	1071.9986	1078.5231	1118.8666	1134.3733	1168.3122	1186.2383	1196.064	1233.9568	1238.1884	1255.2662	1307.0843	1371.1392	1389.9561	1413.0379	1448.4862	1463.7973	1486.068	1492.2055	1505.637	2994.1923	3040.3638	3076.1901	3095.2774	3122.137	3126.3214	3168.5128	3200.3301	3215.2339	3460.1984	3798.925
OCC12CC3(CC3)C1N2	OC[C@]12CC3(CC3)[C@H]1N2	
InChI=1S/C7H11NO/c9-4-7-3-6(1-2-6)5(7)8-7/h5,8-9H,1-4H2	InChI=1S/C7H11NO/c9-4-7-3-6(1-2-6)5(7)8-7/h5,8-9H,1-4H2/t5-,7-/m1/s1
