14
gdb 97525	5.18307	0.6005	0.5424	5.2239	72.57	-0.2621	-0.0628	0.1994	1897.5097	0.098614	-473.824217	-473.814486	-473.813541	-473.861209	31.875	
O	 0.0144945161	 1.4960213358	 0.0605965494	-0.392918
C	 0.0131881588	 0.095871327	-0.1543454306	-0.214974
C	-1.3200640543	-0.5050415564	-0.0983756608	 0.191432
C	-2.4221267365	-0.9903970588	-0.0253368123	-0.106608
C	-3.7271739747	-1.6250146179	 0.0504423872	 0.293172
O	-3.8830757265	-2.811647497	 0.1849995957	-0.290587
N	-4.7684919056	-0.6890999794	-0.0535650517	-0.345427
C	-6.1408925346	-0.9294865242	-0.0033236888	 0.164846
O	-6.6752238848	-1.9909182358	 0.1509163549	-0.248291
H	-0.3148088299	 1.6590472527	 0.9508023789	 0.293373
H	 0.4355590808	-0.0591144101	-1.15342971	 0.159801
H	 0.6723949333	-0.4309370376	 0.5526305622	 0.138538
H	-4.4866784167	 0.2716162455	-0.1890966641	 0.266941
H	-6.6934429255	 0.0240074463	-0.12740686	 0.090703
27.944	51.2039	62.77	139.6843	182.0704	222.0298	237.7134	300.4379	351.5565	394.3887	554.4451	577.6653	623.4286	676.6482	764.0211	935.7961	954.5038	979.9848	1027.4639	1063.3457	1146.3754	1199.0553	1211.6557	1368.7667	1408.8182	1444.6616	1476.5904	1499.6673	1790.5883	1862.5823	2337.5203	2928.2115	2992.9933	3069.8734	3606.3409	3815.6007
OCC#CC(=O)NC=O	OCC#CC(=O)NC=O	
InChI=1S/C5H5NO3/c7-3-1-2-5(9)6-4-8/h4,7H,3H2,(H,6,8,9)	InChI=1S/C5H5NO3/c7-3-1-2-5(9)6-4-8/h4,7H,3H2,(H,6,8,9)
