14
gdb 35309	5.61873	1.00727	0.94057	4.6339	74.54	-0.2652	-0.024	0.2412	1193.9464	0.099395	-399.474022	-399.466155	-399.46521	-399.506568	29.388	
C	-0.0628285154	-1.2098883116	-0.0705137296	-0.424799
C	-0.0013584038	-0.0131817759	 0.0170104898	 0.331653
C	 0.0741371558	 1.4319440993	 0.1046661613	-0.081436
O	-0.0940519056	 1.9571447415	 1.4666130791	-0.317733
C	 1.1221295851	 2.6979446896	 1.3468988441	 0.36176
C	 2.2958385699	 1.7736113354	 1.1716664721	-0.335169
C	 1.4430035099	 2.1160634515	-0.0210422636	-0.177446
C	 1.1776718371	 4.0317366509	 1.8515644374	 0.210219
N	 1.2402143247	 5.1127570154	 2.2587274701	-0.340923
H	-0.121423611	-2.2682592064	-0.1450707895	 0.212503
H	-0.6724410122	 1.9018701816	-0.5448728855	 0.131713
H	 3.2712562385	 2.2478934563	 1.1797593345	 0.147164
H	 2.2393956079	 0.7912186626	 1.6297830061	 0.147714
H	 1.818446629	 2.6030532598	-0.9093668863	 0.13478
85.7464	112.8114	184.4167	214.3034	331.9811	402.0339	474.5841	506.1428	554.6616	588.7308	639.0192	641.9063	686.3349	736.1387	858.2173	889.4877	925.6015	962.9506	981.2376	1011.6488	1057.1491	1066.5229	1089.6803	1161.3126	1265.842	1271.9975	1344.9177	1382.4521	1471.1002	2240.3621	2352.4402	3051.007	3131.7913	3223.4042	3231.8675	3499.6652
C#CC1OC2(CC12)C#N	C#C[C@H]1O[C@]2(C[C@@H]12)C#N	
InChI=1S/C7H5NO/c1-2-6-5-3-7(5,4-8)9-6/h1,5-6H,3H2	InChI=1S/C7H5NO/c1-2-6-5-3-7(5,4-8)9-6/h1,5-6H,3H2/t5-,6+,7+/m0/s1
