13
gdb 130989	7.68427	0.7469	0.68366	2.2525	63.02	-0.2568	-0.0541	0.2026	1491.6068	0.085744	-489.848761	-489.84018	-489.839236	-489.884058	28.16	
O	-0.2047472637	 0.1862247063	 0.5296021434	-0.222952
C	 0.0458342722	 1.1128452877	-0.190233266	 0.139751
C	 1.3701943404	 1.8553800271	-0.13243132	-0.173395
O	 1.3164566219	 2.8891971492	-1.1241682835	-0.264436
C	 2.3798487482	 3.6695372505	-1.2513684587	 0.51867
C	 2.5501840232	 4.7166757568	-2.1299130286	-0.249179
N	 3.7957248934	 5.2055409144	-1.8829259668	-0.055111
N	 4.4081455499	 4.6135539074	-0.9876003594	-0.026108
O	 3.4341161847	 3.4989013342	-0.4997209303	-0.258426
H	-0.6645819332	 1.500177256	-0.951764366	 0.110161
H	 1.5188849502	 2.2815054728	 0.8658774862	 0.167681
H	 2.1970435734	 1.1655054197	-0.3341009383	 0.167736
H	 1.8895185895	 5.1185186679	-2.875814402	 0.14561
40.797	53.2136	91.1528	109.6048	194.7453	299.9942	320.1777	420.589	593.0535	662.6511	725.0653	742.3375	753.9367	754.1428	936.3822	1018.8304	1052.9896	1083.2208	1104.5705	1147.6232	1235.5266	1322.7559	1340.8319	1408.5834	1423.9593	1464.6618	1512.4241	1610.1879	1851.3825	2913.3223	3046.0109	3094.4447	3308.2651
O=CCOC1=CN=NO1	O=CCOc1cnno1	
InChI=1S/C4H4N2O3/c7-1-2-8-4-3-5-6-9-4/h1,3H,2H2	InChI=1S/C4H4N2O3/c7-1-2-8-4-3-5-6-9-4/h1,3H,2H2
