24
gdb 103826	3.05132	0.92476	0.86203	1.6903	86.41	-0.2256	0.0714	0.297	1503.7422	0.214505	-405.525712	-405.514693	-405.513749	-405.561386	41.018	
C	 2.5199415043	 0.3466759581	 0.892757276	-0.38117
C	 1.2529247928	-0.4797849482	 0.6579282861	 0.081375
C	-0.0091123528	 0.3283903384	 0.9691437737	-0.386612
N	 1.220332957	-0.8875040877	-0.7489856379	-0.108326
C	 2.0252764971	-2.0303751665	-1.1648263167	-0.305153
C	 0.5291972905	-2.1037258424	-1.1847038131	 0.28641
C	-0.1846122875	-3.0357378149	-0.2234475319	-0.468697
C	-0.1793952396	-1.9340097137	-2.5203494088	-0.116406
O	-0.332431831	-3.1619237203	-3.2192647495	-0.414237
H	 3.4185433847	-0.2396293701	 0.6769997729	 0.111998
H	 2.5256845196	 1.2270245936	 0.2423875981	 0.122312
H	 2.5749813733	 0.6813902484	 1.9332697137	 0.109446
H	 1.2873544067	-1.3520937394	 1.3327576465	 0.057687
H	-0.0649866089	 1.2061439354	 0.3175584275	 0.123072
H	-0.9128330772	-0.2672205181	 0.8112933568	 0.114095
H	-0.004156602	 0.6670908145	 2.0098761726	 0.110224
H	 2.6023432837	-1.9028491641	-2.0795134224	 0.102297
H	 2.5332381679	-2.6070752074	-0.391553712	 0.104018
H	 0.4045597013	-3.2612732082	 0.6674834595	 0.117673
H	-1.1443252371	-2.6135613216	 0.0965980979	 0.121068
H	-0.399372579	-3.9755625911	-0.7395619742	 0.134871
H	-1.196862733	-1.5592179396	-2.3587935746	 0.106692
H	 0.3598029389	-1.1838564123	-3.115137489	 0.095168
H	 0.5506679902	-3.5013987129	-3.3996271415	 0.282195
79.1309	83.2991	131.8412	167.3209	211.421	212.837	242.2551	269.2318	294.8992	328.2685	382.2069	384.4993	394.9497	412.2326	486.2022	605.7669	709.1549	763.726	873.0216	913.2971	930.7228	933.9955	953.6572	963.4133	984.1114	1056.033	1076.6055	1085.8743	1109.6799	1120.2753	1151.6609	1183.1237	1196.1658	1222.6629	1297.6344	1352.509	1360.0981	1365.2086	1392.976	1397.8911	1412.3911	1416.162	1420.1198	1481.0506	1485.8318	1488.248	1494.2763	1500.7787	1506.1968	1512.2001	1512.8087	2948.1873	3008.7318	3034.8496	3037.9087	3040.1549	3066.0757	3073.2412	3102.8085	3107.2634	3109.3562	3112.6594	3115.3539	3130.4514	3152.4441	3807.289
CC(C)N1CC1(C)CO	CC(C)N1C[C@]1(C)CO	
InChI=1S/C7H15NO/c1-6(2)8-4-7(8,3)5-9/h6,9H,4-5H2,1-3H3	InChI=1S/C7H15NO/c1-6(2)8-4-7(8,3)5-9/h6,9H,4-5H2,1-3H3/t7-,8?/m1/s1
