17
gdb 89282	2.24673	1.82491	1.19327	3.9097	67.8	-0.2734	-0.0027	0.2707	1046.186	0.134901	-458.978949	-458.970665	-458.969721	-459.011769	31.388	
C	-0.1659092199	 1.6204555395	 0.2462088844	-0.483671
C	 0.0376283572	 0.1413017053	 0.094959049	 0.438671
C	-1.1414887359	-0.8490578972	-0.0543720611	-0.326272
C	-0.4770709044	-1.7874114212	 1.01050547	 0.145216
O	-0.2582754126	-3.1376856789	 0.7319637485	-0.423601
C	 0.7484775683	-0.814687795	 1.0980911954	-0.325168
C	 1.7146679706	-1.0345342603	-0.0553698631	 0.430665
O	 2.6685630084	-1.7104651662	-0.2860215019	-0.33477
O	 1.0687328421	-0.1846605756	-0.9162424299	-0.279415
H	 0.7796727363	 2.1255641507	 0.4627762594	 0.136274
H	-0.5793652462	 2.0449519471	-0.6745973661	 0.141454
H	-0.8676297261	 1.8265310058	 1.0600339248	 0.129488
H	-2.1128513864	-0.456288899	 0.2539269121	 0.114865
H	-1.2258530511	-1.2696603438	-1.0583504337	 0.123356
H	-1.0380021071	-1.7628733739	 1.9477254444	 0.107593
H	 0.3992800928	-3.2189755116	 0.0312448605	 0.297599
H	 1.1618498337	-0.5544307358	 2.0703374376	 0.107715
97.2064	111.3008	212.402	230.5785	294.026	313.1495	396.0176	410.1946	435.485	522.3312	600.786	636.7137	733.0598	806.9499	845.6156	863.462	898.5131	930.9128	967.7538	1007.9606	1031.0721	1100.2243	1116.049	1151.1357	1156.7292	1202.6963	1234.3766	1235.9878	1299.2178	1322.6269	1342.8981	1417.7124	1440.2108	1465.8284	1480.7475	1490.1307	1915.5371	3039.5278	3072.9483	3083.6152	3109.8854	3119.5786	3134.4881	3142.9438	3794.311
CC12CC(O)C1C(=O)O2	C[C@]12C[C@@H](O)[C@H]1C(=O)O2	
InChI=1S/C6H8O3/c1-6-2-3(7)4(6)5(8)9-6/h3-4,7H,2H2,1H3	InChI=1S/C6H8O3/c1-6-2-3(7)4(6)5(8)9-6/h3-4,7H,2H2,1H3/t3-,4+,6+/m1/s1
