21
gdb 83546	3.01119	1.46772	1.27873	1.487	81.8	-0.2502	0.0667	0.3169	1078.4006	0.184253	-387.063499	-387.055563	-387.054619	-387.095395	32.48	
O	 0.1651437971	 1.4589467303	-0.1433627803	-0.453382
C	 0.0422697275	 0.0685344606	-0.0215306427	 0.177851
C	 0.1871496937	-0.651520637	 1.3588681148	-0.158261
C	-0.9063135009	 0.0383397471	 2.2018649502	-0.233525
C	-2.0719860179	 0.0492370681	 1.1505478152	-0.233516
C	-1.3530616207	-0.637125847	-0.0302396479	-0.15825
C	-0.6145990945	-1.7795936931	 0.6876368054	 0.465975
C	-0.0953486336	-3.0488075346	 0.0986983681	-0.366673
C	-1.1148621613	-3.0770731061	 1.2288355635	-0.367932
H	-0.4110778986	 1.8828050972	 0.500191558	 0.28343
H	 0.7110805872	-0.3631240917	-0.7675685853	 0.092212
H	 1.1588327147	-0.8232112583	 1.8229841284	 0.060347
H	-1.1586656323	-0.5371944625	 3.0957688538	 0.102821
H	-0.6134283909	 1.0410562998	 2.5321408978	 0.089501
H	-2.9410881446	-0.5205245536	 1.4882146553	 0.102819
H	-2.4202576126	 1.0579488636	 0.9025408464	 0.089506
H	-1.9163807964	-0.794474669	-0.9505448072	 0.060346
H	-0.4308913713	-3.3388134889	-0.8923104105	 0.112432
H	 0.9218578748	-3.3515209736	 0.3277083579	 0.112432
H	-0.7752320073	-3.3971135104	 2.2092158464	 0.110932
H	-2.1282377722	-3.3844289009	 0.9890008728	 0.110933
157.0938	187.3484	233.6008	254.5691	257.6352	275.2831	435.4547	459.8505	559.3772	642.5321	706.4544	776.1164	784.1436	808.9872	846.9925	868.5899	898.0918	918.2252	943.6076	975.6406	976.6	1004.9294	1006.9821	1016.8103	1050.3556	1079.1683	1095.1527	1136.7223	1151.6886	1180.0227	1182.4123	1182.9709	1223.3058	1245.4363	1247.5408	1264.0923	1293.7772	1313.7554	1320.3075	1409.9663	1442.8364	1464.2661	1496.4754	1508.2472	1519.839	3036.5474	3048.8032	3086.5345	3103.2239	3106.2594	3110.4472	3117.8852	3118.6879	3121.736	3194.0865	3208.4251	3821.8259
OC1C2CCC1C21CC1	O[C@H]1[C@H]2CC[C@@H]1C12CC1	
InChI=1S/C8H12O/c9-7-5-1-2-6(7)8(5)3-4-8/h5-7,9H,1-4H2	InChI=1S/C8H12O/c9-7-5-1-2-6(7)8(5)3-4-8/h5-7,9H,1-4H2/t5-,6+,7+
