15
gdb 93482	3.09856	1.39245	0.98854	1.9563	62.91	-0.2734	-0.0237	0.2497	1107.9976	0.115017	-491.168482	-491.160772	-491.159828	-491.200827	29.157	
O	 0.005631095	 1.4225647263	 0.1255911514	-0.431155
C	 0.0010490251	 0.0300191165	 0.025722149	 0.036128
C	-1.4253146663	-0.5189323443	 0.0112248631	-0.196583
N	-1.3589921544	-1.9567193576	-0.2128499356	-0.353626
C	-0.570707139	-2.527903216	-1.1725683242	 0.466414
O	-0.6734205778	-3.6665562916	-1.5691714271	-0.380323
N	 0.4235074813	-1.6667101133	-1.6869282761	-0.389421
C	 0.7300842218	-0.4046828435	-1.2453145638	 0.399833
O	 1.5268085835	 0.326816926	-1.7964951402	-0.367841
H	 0.702018589	 1.7220081596	-0.4807215622	 0.300015
H	 0.5392226338	-0.439111659	 0.8689079061	 0.110787
H	-1.9063757351	-0.3303887079	 0.9732705062	 0.136772
H	-2.0040544906	 0.0020464176	-0.7647085018	 0.127213
H	-2.1337971943	-2.5371994273	 0.0672728058	 0.266395
H	 0.9506606481	-2.0408102855	-2.4646529206	 0.275394
99.1951	136.169	212.8147	302.1499	376.3537	382.8554	426.8088	460.2996	499.5361	534.8475	591.6582	670.0882	711.0737	766.5086	768.1523	795.1927	946.2221	1036.4866	1075.7858	1124.7911	1168.9379	1220.7767	1257.5846	1297.8348	1314.6624	1378.5538	1412.1883	1422.2	1451.2333	1470.9367	1520.4967	1803.4124	1837.8493	2948.7371	3011.3733	3107.5265	3608.8672	3643.0069	3693.2766
OC1CNC(=O)NC1=O	O[C@H]1CNC(=O)NC1=O	
InChI=1S/C4H6N2O3/c7-2-1-5-4(9)6-3(2)8/h2,7H,1H2,(H2,5,6,8,9)	InChI=1S/C4H6N2O3/c7-2-1-5-4(9)6-3(2)8/h2,7H,1H2,(H2,5,6,8,9)/t2-/m0/s1
