18
gdb 93213	2.89823	1.42133	0.99557	1.0144	77.87	-0.2317	-0.0301	0.2016	1183.7869	0.149371	-435.300853	-435.29241	-435.291465	-435.333677	32.586	
C	-0.2327736872	 1.4791506118	 0.0346340066	-0.387435
C	 0.0636082761	-0.0214157536	 0.0009378799	 0.034381
C	 0.849173491	-0.3963551846	-1.2466018835	-0.093566
O	 1.193548693	-1.795430192	-1.2409146027	-0.252373
C	 1.7022663869	-2.282928212	-0.0926626215	 0.364859
N	 2.2203518973	-3.4381708746	 0.0032680308	-0.539422
C	 1.5626913917	-1.4197789883	 1.1326989351	 0.303197
N	 2.337146382	-1.8268404273	 2.1809477986	-0.546615
N	 0.7844577727	-0.4055873863	 1.2102426841	-0.321737
H	 0.6979117709	 2.0557953257	 0.0400469464	 0.120159
H	-0.83073518	 1.7868224167	-0.8295952616	 0.107964
H	-0.7825285569	 1.724403656	 0.9462841533	 0.130816
H	-0.8965564653	-0.5616321327	-0.0220999833	 0.088254
H	 0.2759002212	-0.2451823669	-2.1639699975	 0.120882
H	 1.7720480838	 0.1966976095	-1.304291234	 0.113032
H	 2.2139715473	-3.9140074598	-0.9006682317	 0.227942
H	 2.6669086207	-2.7791270374	 2.1311509508	 0.274452
H	 2.0897085149	-1.4560535041	 3.0844897001	 0.255211
81.4039	167.0789	218.3978	229.3656	280.1862	352.0739	382.3574	446.4895	469.4756	499.3078	520.7833	543.6094	574.7066	661.4581	756.3967	799.8923	877.5966	902.6897	931.9492	954.9674	1012.8023	1077.7523	1132.7447	1139.1119	1167.2532	1218.2438	1267.3118	1290.6774	1340.5986	1352.1686	1391.2172	1409.7051	1458.1165	1485.5891	1498.6211	1502.0508	1600.0086	1707.5088	1738.3482	2973.3123	3019.5834	3037.6391	3104.0151	3110.7749	3126.7124	3472.9261	3575.8273	3705.349
CC1COC(=N)C(N)=N1	C[C@H]1CO[C]([NH])C(=N1)N	
InChI=1S/C5H9N3O/c1-3-2-9-5(7)4(6)8-3/h3,7H,2H2,1H3,(H2,6,8)	InChI=1S/C5H9N3O/c1-3-2-9-5(7)4(6)8-3/h3,7H,2H2,1H3,(H2,6,8)/t3-/m0/s1
