19
gdb 104255	2.20878	1.31736	1.10072	5.2266	75.76	-0.2581	0.0003	0.2584	1206.9769	0.158391	-419.193146	-419.18353	-419.182585	-419.227788	34.966	
C	 0.0342541587	 1.5614272448	-0.2102829394	-0.414287
C	-0.045081653	 0.0391273396	-0.0478613612	-0.203729
C	-1.4727945519	-0.5072164434	 0.0344610423	 0.219044
N	-2.1405734579	-0.034631862	 1.2241159505	-0.562454
C	-2.2138608968	-0.5067077225	-1.3422999587	-0.113457
O	-2.0150582645	-1.9296959304	-1.4954608477	-0.278561
C	-1.5679214044	-2.0637409042	-0.1375497685	-0.020854
C	-0.3547337113	-2.8686171813	-0.0032671389	 0.28719
N	 0.6102930286	-3.4926706835	 0.1193302779	-0.331656
H	 1.0729809464	 1.8727950258	-0.3508274516	 0.131045
H	-0.5335793029	 1.9076252925	-1.0808006536	 0.120957
H	-0.340037031	 2.0947539065	 0.6701077627	 0.120929
H	 0.4565243889	-0.4415750267	-0.8942722898	 0.125101
H	 0.4952348996	-0.2693741579	 0.8534767159	 0.126495
H	-2.0385657027	 0.968166439	 1.3314534609	 0.235993
H	-3.1355502059	-0.2342872402	 1.1973205887	 0.231608
H	-3.2799886732	-0.2512918263	-1.2712167403	 0.096027
H	-1.7587142907	 0.0548425272	-2.164833916	 0.114209
H	-2.3449382861	-2.4945448171	 0.5094268967	 0.1164
65.1176	101.2052	121.8714	185.4928	213.6358	240.7673	270.0119	329.3047	361.5247	399.6271	438.1763	543.908	594.0746	676.1893	782.9761	785.7215	821.5849	906.782	951.401	985.7716	1003.674	1023.1401	1049.6828	1065.9559	1080.5051	1144.272	1158.8024	1201.6086	1257.3302	1313.6608	1321.1199	1357.6779	1371.9279	1396.3117	1415.4853	1478.1076	1499.701	1507.8223	1517.6995	1663.8222	2355.3452	3004.6542	3012.8428	3033.2905	3048.1004	3074.3739	3080.6425	3104.3193	3111.2073	3507.2256	3590.2457
CCC1(N)COC1C#N	CC[C@@]1(N)CO[C@H]1C#N	
InChI=1S/C6H10N2O/c1-2-6(8)4-9-5(6)3-7/h5H,2,4,8H2,1H3	InChI=1S/C6H10N2O/c1-2-6(8)4-9-5(6)3-7/h5H,2,4,8H2,1H3/t5-,6+/m0/s1
