21
gdb 63991	3.49959	0.99849	0.94174	0.772	94.3	-0.2236	-0.0139	0.2096	1362.7985	0.181046	-349.952498	-349.943136	-349.942191	-349.986119	36.616	
C	-0.5724221124	 1.5573043079	-0.1579578658	-0.444581
C	 0.0791009534	 0.1783389978	-0.0080127915	 0.316242
C	-1.0063262316	-0.9055183364	 0.1106349072	-0.420156
C	 1.0207321204	-0.1666086872	-1.2050936456	-0.286491
C	 2.1719344618	-0.8955641762	-0.5709485672	-0.17333
C	 2.1836322423	-0.7584024488	 0.7639342233	 0.205333
C	 1.0207092528	 0.1012520363	 1.2321206657	-0.3529
C	 3.1450199122	-1.2822639035	 1.6610758818	 0.189594
C	 3.9344858005	-1.7081401587	 2.4664276901	-0.413485
H	 0.1824578443	 2.3463307692	-0.243566159	 0.110615
H	-1.2046118504	 1.6001348299	-1.0521053314	 0.111258
H	-1.2054491821	 1.7919136829	 0.7051615865	 0.112355
H	-1.6461859656	-0.9194015742	-0.7785995479	 0.108965
H	-0.5584869291	-1.8988593942	 0.2197098456	 0.118918
H	-1.6461014801	-0.7266738992	 0.9817129742	 0.110418
H	 0.5100154938	-0.7618212592	-1.9722042374	 0.101627
H	 1.3756152388	 0.7426266986	-1.7128042167	 0.105221
H	 2.9192965196	-1.4388401207	-1.1374829881	 0.097656
H	 1.3855064306	 1.0938167437	 1.528365529	 0.107198
H	 0.5189537449	-0.3203189642	 2.1099372132	 0.106895
H	 4.6402249557	-2.0890336837	 3.1619649239	 0.188647
70.8529	142.3569	163.0945	245.3219	274.6724	307.0334	323.3484	356.2822	399.8841	411.4738	501.5115	543.1128	546.6873	591.8969	629.487	633.2571	780.7565	850.1656	867.4101	908.6793	924.1727	953.5347	954.9665	986.8437	1002.9466	1045.5708	1118.9628	1145.2779	1188.4634	1214.3017	1234.3824	1284.0473	1293.6755	1318.871	1339.1776	1399.5857	1420.4896	1479.0072	1483.2227	1486.4999	1497.9207	1504.4682	1508.6904	1673.2525	2220.0159	2995.6792	3016.406	3021.0355	3026.8337	3040.9818	3063.0969	3087.9542	3093.0992	3094.1137	3099.0596	3201.3118	3504.6685
CC1(C)CC=C(C1)C#C	CC1(C)CC=C(C1)C#C	
InChI=1S/C9H12/c1-4-8-5-6-9(2,3)7-8/h1,5H,6-7H2,2-3H3	InChI=1S/C9H12/c1-4-8-5-6-9(2,3)7-8/h1,5H,6-7H2,2-3H3
