17
gdb 16057	3.44218	1.74224	1.44793	3.1883	70.64	-0.2442	-0.0259	0.2183	916.0729	0.141544	-363.827192	-363.819538	-363.818593	-363.859014	28.567	
C	-0.1297928639	 1.5057543197	-0.0030464926	-0.323304
N	 0.095050937	 0.0713145967	 0.1142592621	-0.117302
C	 1.3537549149	-0.5534512511	-0.1566448189	-0.084521
C	 2.5798276269	 0.2448903427	 0.328496524	-0.241576
C	 1.9736762439	 0.2918554036	 1.7639920946	-0.307822
C	 0.7604627223	-0.510312814	 1.2661450752	 0.230471
C	 0.0966952664	-1.6135016187	 1.9827431646	 0.081803
O	 0.4101279764	-1.9869960509	 3.0885198804	-0.270028
H	 0.7097261518	 2.1358802837	 0.3182138303	 0.114353
H	-0.3491122665	 1.734308781	-1.0501097296	 0.131052
H	-1.0063647335	 1.7705162098	 0.5947784015	 0.133114
H	 1.3741579501	-1.3897789754	-0.8483124972	 0.107125
H	 3.4952240135	-0.3475143813	 0.283405841	 0.117634
H	 2.7580956511	 1.1985774339	-0.1763212239	 0.108518
H	 2.5511082236	-0.2840495587	 2.4876315073	 0.134897
H	 1.757915217	 1.2753740192	 2.1891809559	 0.106593
H	-0.7222982009	-2.0917203002	 1.4024997555	 0.078992
105.9997	168.1482	202.2241	244.9058	264.5549	292.4397	408.8721	502.9897	556.0853	698.4019	705.2551	778.5767	791.3748	904.1769	948.1789	956.8879	1002.8176	1004.9244	1062.6177	1096.2748	1111.2237	1156.0181	1183.339	1213.5284	1225.5846	1240.2687	1282.0188	1304.028	1377.7216	1427.883	1457.3565	1473.716	1488.6469	1504.6613	1508.1472	1802.9942	2899.9569	3016.5825	3062.5363	3073.1621	3086.6683	3116.044	3118.0729	3140.3533	3164.574
CN1C2CCC12C=O	CN1[C@H]2CC[C@@]12C=O	
InChI=1S/C6H9NO/c1-7-5-2-3-6(5,7)4-8/h4-5H,2-3H2,1H3	InChI=1S/C6H9NO/c1-7-5-2-3-6(5,7)4-8/h4-5H,2-3H2,1H3/t5-,6-,7?/m0/s1
