23
gdb 121356	3.18606	0.92728	0.80016	2.634	82.65	-0.2378	0.0649	0.3028	1546.0515	0.205471	-425.437462	-425.427441	-425.426496	-425.472978	36.765	
C	 0.0007455499	 1.5545561	-0.083812298	-0.381491
C	-0.0056634994	 0.0290770829	 0.0412665776	-0.168929
C	 0.806291777	-0.4721589447	 1.2404755526	-0.174086
C	 0.8134730464	-1.9924182681	 1.3544099326	 0.137966
O	 1.3998354727	-2.5742689089	 0.1797802441	-0.283505
C	 2.3111149406	-3.6087431112	 0.5388419388	-0.052458
C	 2.0019403886	-3.9464114707	 2.0013420652	-0.261374
C	 1.5918837276	-2.5717377593	 2.5476342154	 0.078969
O	 2.7219331945	-1.7464999599	 2.8020902711	-0.433043
H	 1.0203919707	 1.9365945421	-0.2064020155	 0.113778
H	-0.5849071689	 1.8873427069	-0.9467274073	 0.107797
H	-0.4224086296	 2.0296626068	 0.8088503308	 0.108378
H	-1.0411689658	-0.3280285101	 0.1274284015	 0.085242
H	 0.3992705729	-0.423316103	-0.8702538024	 0.115882
H	 1.840939399	-0.1231594927	 1.1722042389	 0.114686
H	 0.3941552578	-0.056833193	 2.1701959935	 0.085645
H	-0.2272487609	-2.3503711655	 1.4302427041	 0.062654
H	 2.1698480052	-4.4570241517	-0.1393675512	 0.099309
H	 3.3448557644	-3.2505764921	 0.4340596631	 0.098384
H	 1.1599923354	-4.6436903816	 2.0719195122	 0.106376
H	 2.850552201	-4.3805690107	 2.5383116168	 0.091457
H	 0.9519656575	-2.6404607919	 3.4381438128	 0.064292
H	 3.2403551835	-2.1606544835	 3.4986438133	 0.284071
57.8373	94.6663	102.9669	130.1919	179.823	248.3988	275.7616	291.0446	312.453	379.6911	440.1955	535.7201	665.7258	740.9933	780.4457	818.7577	865.0794	876.6155	907.0314	914.0134	941.6645	1007.2004	1023.0757	1046.5348	1058.8374	1093.2365	1118.786	1154.0641	1162.1233	1206.7729	1209.1967	1233.4745	1266.8488	1287.4701	1313.7104	1325.9393	1330.0734	1365.3545	1378.1208	1402.2128	1408.5875	1415.1183	1424.1077	1473.2422	1480.7178	1494.0497	1500.2244	1510.9662	1524.3383	2953.3218	3003.8574	3007.5421	3014.9069	3022.6403	3027.2376	3046.4245	3065.023	3067.6761	3088.4218	3097.5603	3098.8727	3100.3267	3823.9254
CCCC1OCCC1O	CCC[C@H]1OCC[C@H]1O	
InChI=1S/C7H14O2/c1-2-3-7-6(8)4-5-9-7/h6-8H,2-5H2,1H3	InChI=1S/C7H14O2/c1-2-3-7-6(8)4-5-9-7/h6-8H,2-5H2,1H3/t6-,7-/m1/s1
