17
gdb 128392	7.17573	0.7035	0.64439	11.9772	98.99	-0.1775	-0.048	0.1295	1694.1712	0.137278	-414.158621	-414.149779	-414.148835	-414.193071	31.281	
C	-0.0551850688	 1.4600259202	-0.2461584614	-0.328794
N	-0.1025302606	 0.0300618993	 0.0137274519	-0.30601
C	 0.5630475465	-0.5389307261	 1.0413239389	 0.176123
N	 0.7630471517	-1.8193754858	 1.1738159488	-0.336992
H	 0.4604238303	-2.4637282895	 0.4442746687	 0.272841
C	 1.3568855258	-2.5397201278	 2.2133449882	 0.383666
C	 1.9067472502	-2.1596919101	 3.4417325822	-0.324491
C	 2.3108543056	-3.3984310707	 3.9394733472	-0.005379
N	 2.0176572135	-4.4043874294	 3.0752435429	-0.246761
N	 1.4254071251	-3.8703831232	 2.00334622	-0.326977
H	 0.8059323115	 1.7489130912	-0.8618048092	 0.148699
H	-0.9719083497	 1.7664389206	-0.7543890555	 0.155573
H	 0.0001329275	 1.9973831639	 0.7037131394	 0.159189
H	-0.3861674012	-0.563870124	-0.7516125319	 0.267248
H	 0.9210546245	 0.1147209653	 1.827249993	 0.17305
H	 1.9954739086	-1.1836508406	 3.8932235584	 0.061897
H	 2.7973561297	-3.6111963334	 4.8823755184	 0.077119
64.2214	95.6187	103.0265	131.4855	190.5581	302.4739	348.5704	378.0749	471.8617	544.1427	648.9705	698.3872	705.6209	786.2405	801.5033	851.727	934.2574	954.0784	1011.5948	1029.2789	1067.2514	1138.1762	1144.6049	1164.8664	1192.8516	1275.5222	1318.7395	1351.5888	1379.6437	1385.139	1441.8292	1471.1872	1487.8247	1504.0911	1533.5892	1545.8145	1753.5517	3022.9493	3101.7388	3137.6494	3214.3596	3224.654	3245.0544	3491.2118	3612.3267
CNC=[NH+]C1=CC=N[N-]1	CN[CH]Nc1ccnn1	
InChI=1S/C5H7N4/c1-6-4-7-5-2-3-8-9-5/h2-4H,1H3,(H-,6,7,8,9)/q-1/p+1	InChI=1S/C5H9N4/c1-6-4-7-5-2-3-8-9-5/h2-4H,1H3,(H3,6,7,8,9)
