17
gdb 98877	4.243	1.07109	0.86911	0.9584	72.79	-0.2376	-0.0019	0.2357	1303.8647	0.137023	-455.197822	-455.18896	-455.188016	-455.23252	30.22	
C	 0.0316006882	 1.3486746819	 0.0100000795	-0.235302
O	-0.0313427359	-0.0818131829	 0.0030808229	-0.257538
C	-1.2845504017	-0.589960807	 0.0097445368	 0.532558
O	-2.3001380859	 0.0656492597	 0.0205791772	-0.412783
N	-1.2572511282	-1.9608126922	 0.0023796854	-0.182147
C	-2.4750520651	-2.780777739	 0.0067844893	-0.185017
C	-1.8678144128	-4.2146828884	-0.0057205046	-0.175778
N	-0.3994856614	-4.0616042986	-0.0158733646	-0.264759
C	-0.1532777033	-2.8151735078	-0.0107141602	 0.087492
H	 1.0935059665	 1.594877119	 0.0031352726	 0.135463
H	-0.4620697491	 1.7621016084	-0.8728343808	 0.143698
H	-0.4484307387	 1.7528960004	 0.9045450062	 0.143684
H	-3.0738450452	-2.5681874482	 0.8961972969	 0.133327
H	-3.0869011408	-2.5582770959	-0.8712456074	 0.133335
H	-2.1643420459	-4.7956199571	 0.873217188	 0.124047
H	-2.1775318467	-4.7858797499	-0.886491312	 0.124047
H	 0.837748076	-2.3798990622	-0.0156908052	 0.155672
70.3596	87.7778	109.1182	121.9752	167.3225	174.3592	319.1063	404.9469	501.0107	534.3323	753.9594	770.9417	816.0433	825.2608	908.3882	950.8508	956.6236	968.7297	1007.3659	1114.2613	1159.697	1182.8532	1211.8449	1216.8851	1245.2248	1249.1243	1310.706	1330.1612	1380.8274	1415.8564	1481.5167	1483.416	1497.8222	1503.6776	1528.2614	1701.7629	1810.554	3049.7701	3053.3058	3063.5761	3077.5864	3106.1701	3129.1047	3159.1865	3234.5676
COC(=O)N1CCN=C1	COC(=O)N1CCN=C1	
InChI=1S/C5H8N2O2/c1-9-5(8)7-3-2-6-4-7/h4H,2-3H2,1H3	InChI=1S/C5H8N2O2/c1-9-5(8)7-3-2-6-4-7/h4H,2-3H2,1H3
