21
gdb 63588	3.13675	1.2306	1.03827	1.7152	78.45	-0.2519	0.0776	0.3295	1235.9367	0.18123	-424.224367	-424.215111	-424.214166	-424.258373	34.87	
C	-0.0648345535	 1.5304709375	-0.0040971073	-0.456787
C	-0.0797878006	 0.0200782199	 0.1074528585	 0.314178
C	-1.2517686836	-0.6508724138	-0.5788407786	-0.458379
O	 1.1946923752	-0.6221511367	-0.1096146634	-0.327377
C	 0.6307556204	-0.6585715937	 1.2062462946	 0.327011
C	 1.3854362102	 0.0406602018	 2.3371053567	-0.31003
C	 1.7633207735	-1.1408528274	 3.2387463456	-0.090443
O	 0.6704586553	-2.0449821888	 3.1251173263	-0.250572
C	 0.2621758698	-2.0414024087	 1.7662584286	-0.150292
H	 0.813758769	 1.9605286974	 0.4793513324	 0.12708
H	-0.0556271188	 1.8299922443	-1.0577752446	 0.125645
H	-0.9613569059	 1.960850385	 0.4556650951	 0.120651
H	-1.2984457304	-0.3456038583	-1.6298430389	 0.124925
H	-1.1628943506	-1.7384726436	-0.5483017422	 0.129921
H	-2.1974876285	-0.3630509789	-0.1064741781	 0.121408
H	 2.24622474	 0.5957497623	 1.9606329564	 0.119145
H	 0.7262957971	 0.7307915011	 2.8742582486	 0.111866
H	 2.6979899008	-1.6110280046	 2.8920096153	 0.096216
H	 1.8753700314	-0.883013343	 4.2944328826	 0.10984
H	-0.809249564	-2.259672026	 1.739345638	 0.109721
H	 0.7919108133	-2.8092003855	 1.1810674042	 0.106273
56.2707	152.0958	161.6786	187.5	208.7034	252.4746	292.9651	357.3127	434.8908	444.2498	479.9927	530.5431	640.0035	700.1434	760.128	862.3474	892.9117	932.309	945.226	951.9824	971.2013	1000.6552	1021.41	1093.1751	1114.9196	1143.0359	1157.8045	1164.827	1223.7992	1227.1253	1252.487	1264.3503	1307.8924	1348.7623	1391.6631	1408.1431	1418.0498	1458.6069	1471.9583	1475.4862	1486.5773	1502.7198	1504.1741	1520.9983	1524.0173	2973.957	2987.0519	3033.7719	3038.97	3052.0238	3081.2741	3093.2194	3098.604	3100.6074	3123.0699	3132.8874	3137.6127
CC1(C)OC11CCOC1	CC1(C)O[C@]21CCOC2	
InChI=1S/C7H12O2/c1-6(2)7(9-6)3-4-8-5-7/h3-5H2,1-2H3	InChI=1S/C7H12O2/c1-6(2)7(9-6)3-4-8-5-7/h3-5H2,1-2H3/t7-/m1/s1
