16
gdb 11924	3.15197	1.87453	1.51354	4.0575	70.88	-0.2327	0.0054	0.238	885.0555	0.131108	-342.756493	-342.748945	-342.748	-342.788145	28.313	
C	-0.0501585688	 1.5627281447	 0.031227205	-0.488055
C	 0.0249187133	 0.0655099794	 0.007427289	 0.24286
C	-0.8582745992	-0.8253886015	 0.8405571353	-0.343359
C	 0.6366137092	-0.9387588777	 1.0046189609	 0.212444
N	 1.1427358503	-1.8044643143	-0.0892700109	-0.364849
C	 0.6992466672	-0.7701171753	-1.0895071403	-0.215037
C	 1.3393130882	-0.7278997923	 2.223645508	 0.182968
N	 1.932437851	-0.5485316323	 3.2024864091	-0.351262
H	 0.9074453239	 2.0162983944	-0.2447600624	 0.128707
H	-0.8092843864	 1.9248791077	-0.6725229839	 0.131419
H	-0.3214553757	 1.9271553566	 1.0266033926	 0.136031
H	-1.3815994092	-0.3204728083	 1.6458299769	 0.134956
H	-1.3724383158	-1.6791920204	 0.4080620986	 0.130354
H	 2.1561510338	-1.85891132	-0.0621388212	 0.235966
H	 0.054977147	-1.1713804943	-1.8788195386	 0.113507
H	 1.5383809611	-0.2357494364	-1.5462069483	 0.113351
116.0229	150.6089	183.4289	251.6703	319.4996	360.5642	434.0891	543.524	558.2617	583.2411	680.0101	759.7163	809.8362	832.2937	938.3787	966.6102	978.2102	1006.7657	1023.6285	1078.0588	1102.088	1147.9358	1191.9401	1233.9058	1277.7591	1287.7473	1370.5454	1405.3309	1428.2209	1483.3732	1485.7316	1496.2718	1513.5065	2337.0323	3026.6679	3038.4693	3086.8426	3089.4362	3108.6645	3120.2187	3218.6408	3524.8527
CC12CC1(NC2)C#N	C[C@]12C[C@]1(NC2)C#N	
InChI=1S/C6H8N2/c1-5-2-6(5,3-7)8-4-5/h8H,2,4H2,1H3	InChI=1S/C6H8N2/c1-5-2-6(5,3-7)8-4-5/h8H,2,4H2,1H3/t5-,6+/m1/s1
