21
gdb 11625	5.38645	0.85931	0.78141	1.0826	76.05	-0.23	0.0734	0.3034	1496.5188	0.187311	-366.231374	-366.221962	-366.221018	-366.266049	34.249	
C	-0.1808480327	 1.5079680037	 0.0868223087	-0.400319
C	-0.029392047	-0.0084712871	-0.0366758024	 0.138
O	 0.6531673492	-0.3607955245	-1.2405797572	-0.429373
C	 0.6436780346	-0.6278524845	 1.1938607967	-0.193259
C	 0.7528111496	-2.1502860795	 1.1145668134	-0.139481
N	 1.4900094577	-2.6801368989	 2.2566721104	-0.060626
C	 0.7007396654	-3.0211480493	 3.4356929514	-0.220264
C	 1.2732690647	-4.0870514654	 2.5675697082	-0.220379
H	 0.7983856649	 1.9860971401	 0.2162038064	 0.106522
H	-0.6445586029	 1.9175027093	-0.8146362763	 0.122891
H	-0.7978355615	 1.7773150791	 0.9502385555	 0.114987
H	-1.0251797082	-0.454738035	-0.1579310606	 0.086423
H	 1.5304382896	 0.0371893688	-1.2020377145	 0.275989
H	 1.6511464609	-0.2051910035	 1.3113092973	 0.095412
H	 0.082999844	-0.3428758801	 2.0932500242	 0.094566
H	-0.2595943073	-2.5913981969	 1.0377512805	 0.072936
H	 1.2891637184	-2.4269175726	 0.2015727661	 0.113894
H	 1.1506914234	-2.786773832	 4.3963026143	 0.114136
H	-0.377638063	-2.8717785576	 3.3890197353	 0.105239
H	 0.5757291508	-4.6455841728	 1.9447153509	 0.108155
H	 2.1510050593	-4.6453977815	 2.8808141617	 0.11455
54.8174	72.5352	127.3403	151.2618	243.1701	267.9555	300.2861	310.5599	389.9862	441.4765	483.8651	500.4161	768.1136	790.7901	840.2871	855.3207	906.0837	941.2434	976.5758	1012.975	1032.5606	1061.3777	1086.2468	1112.5424	1116.0232	1124.0489	1151.6803	1168.2382	1185.5655	1236.0433	1290.0151	1303.6348	1321.9096	1341.0696	1373.0345	1401.3918	1407.7738	1422.1019	1478.2412	1488.7314	1492.8715	1495.9959	1503.5208	1522.9925	2918.0821	3013.5299	3022.4704	3030.008	3054.7838	3081.7653	3088.0065	3094.205	3094.3576	3118.0014	3172.4811	3186.9085	3792.7234
CC(O)CCN1CC1	C[C@@H](O)CCN1CC1	
InChI=1S/C6H13NO/c1-6(8)2-3-7-4-5-7/h6,8H,2-5H2,1H3	InChI=1S/C6H13NO/c1-6(8)2-3-7-4-5-7/h6,8H,2-5H2,1H3/t6-/m1/s1
