16
gdb 10425	2.65547	1.92231	1.38997	2.6221	64.9	-0.2473	0.0187	0.2661	920.2368	0.13138	-379.90159	-379.893621	-379.892677	-379.933999	28.903	
O	 0.1487945272	 1.2696849803	-0.3756349327	-0.416637
C	-0.0183417372	-0.0882347186	-0.0378528851	-0.113657
C	-1.5019724892	-0.4765331353	 0.1221976989	 0.131078
C	-2.268960014	-0.4857645887	-1.2360986548	-0.196771
N	-1.9970752939	-1.9382970137	-1.3333959653	-0.311174
C	-1.7306841397	-2.0200893163	 0.1190775935	-0.209662
C	-2.1000939413	 0.2861973208	 1.2061935129	 0.215418
N	-2.5403175216	 0.9191668799	 2.0687645429	-0.345713
H	-0.1211525289	 1.8042332664	 0.3800095199	 0.299035
H	 0.393285224	-0.6716686477	-0.8659319469	 0.137495
H	 0.5274441789	-0.3580220725	 0.8785389295	 0.105597
H	-3.3263414923	-0.2200637494	-1.1129816029	 0.111878
H	-1.8291323436	 0.1258252278	-2.0288854134	 0.132454
H	-2.769553464	-2.5039353808	-1.6649789576	 0.229336
H	-0.8676659723	-2.6359343072	 0.3953696523	 0.116725
H	-2.5901014921	-2.307805195	 0.7377810888	 0.114596
101.3281	132.7504	174.9235	185.7684	248.3667	344.9162	389.3721	437.7782	533.973	563.069	646.8482	699.4601	877.2767	918.2366	949.8599	954.1017	1017.1965	1029.6757	1064.8212	1104.2671	1125.1	1138.6533	1177.037	1235.2794	1266.5761	1296.652	1355.5705	1377.7589	1387.0547	1417.5285	1499.9658	1507.9835	1530.1077	2346.0652	2996.5653	3014.6015	3023.4052	3066.4798	3090.4544	3100.3987	3543.3863	3798.4187
OCC1(CNC1)C#N	OCC1(CNC1)C#N	
InChI=1S/C5H8N2O/c6-1-5(4-8)2-7-3-5/h7-8H,2-4H2	InChI=1S/C5H8N2O/c6-1-5(4-8)2-7-3-5/h7-8H,2-4H2
