16
gdb 17089	4.86204	1.67223	1.60354	1.7971	69.97	-0.2455	0.0347	0.2802	844.3469	0.131365	-346.542511	-346.53598	-346.535035	-346.57299	26.28	
C	-0.0684823811	-1.1870410581	-0.0591159329	-0.439317
C	-0.0120774032	 0.0119352623	 0.0023892797	 0.336844
C	 0.0627431796	 1.4669602591	 0.0432456981	-0.07812
O	-0.414346561	 1.9968368122	 1.311153407	-0.285099
C	 0.7331830403	 2.7373167122	 1.7689029319	 0.115817
C	 1.1842874184	 3.5088372762	 0.5051754354	-0.241258
C	 1.4940616888	 2.0526815139	 0.0361953417	-0.063614
C	 1.914340778	 1.7712716435	 1.5129134897	-0.237152
H	-0.1255497666	-2.2464963119	-0.1061128922	 0.197165
H	-0.5480947418	 1.8850064143	-0.767098082	 0.103629
H	 0.5054796865	 3.1978526519	 2.728422148	 0.083551
H	 0.4227250449	 4.0806177216	-0.0307725296	 0.101486
H	 2.0889157743	 4.1006547053	 0.6532591065	 0.103585
H	 2.1188986853	 1.8149091829	-0.8225843114	 0.084032
H	 2.8866506273	 2.201389648	 1.7574811971	 0.102502
H	 1.8227425103	 0.7520054364	 1.8916008631	 0.115949
132.1207	158.4836	326.3973	440.3961	476.4558	527.825	546.6445	627.9005	659.2555	684.0513	825.8206	845.0077	859.5724	873.4052	897.797	933.3623	969.2639	999.7616	1027.6632	1044.0314	1054.7274	1098.9166	1108.3661	1139.9993	1211.9089	1239.4476	1250.0764	1276.0537	1279.2932	1327.7296	1366.3989	1474.3525	1507.243	2237.1789	3020.4987	3067.3514	3080.104	3135.076	3138.7221	3143.6397	3147.325	3502.8727
C#CC1OC2CC1C2	C#C[C@H]1O[C@@H]2C[C@H]1C2	
InChI=1S/C7H8O/c1-2-7-5-3-6(4-5)8-7/h1,5-7H,3-4H2	InChI=1S/C7H8O/c1-2-7-5-3-6(4-5)8-7/h1,5-7H,3-4H2/t5-,6+,7-/m1/s1
