19
gdb 74390	3.22792	1.52384	1.18063	1.9924	80.75	-0.2207	0.0028	0.2235	1090.7228	0.15812	-385.825574	-385.817671	-385.816727	-385.857426	31.727	
C	-0.0532949225	 1.518898154	 0.0206728761	-0.501226
C	-0.0062791946	 0.030081669	-0.0311074476	 0.317388
C	-0.0337516057	-0.8148783295	-1.0687320266	-0.300907
C	 0.0452538945	-2.2076928727	-0.4650414991	 0.316552
C	 0.040962001	-3.4505418293	-1.3188367016	-0.518288
C	-0.7783143782	-2.1580256893	 0.8815733689	 0.036674
O	 0.181794605	-3.0371766255	 1.5604755999	-0.327933
C	 1.0030347938	-2.098455159	 0.785881162	 0.036679
C	 0.0894452641	-0.8910660427	 1.1773123163	-0.159202
H	 0.839489414	 1.9307578424	 0.5086425136	 0.128942
H	-0.1216336058	 1.9502780367	-0.9819060906	 0.126273
H	-0.9141200021	 1.8721024878	 0.6029381717	 0.12894
H	-0.0981430632	-0.5857011847	-2.1246878977	 0.09839
H	 0.8897868011	-3.4585097556	-2.0113460775	 0.11727
H	 0.1046746249	-4.3375014901	-0.6825512926	 0.136538
H	-0.8745328681	-3.5173869725	-1.9167788493	 0.117268
H	-1.8439863059	-2.3321207539	 1.0561822163	 0.08612
H	 2.0904889646	-2.2005498995	 0.8448270388	 0.086119
H	 0.1309321733	-0.4999292357	 2.1931192589	 0.074403
162.5252	176.7707	235.2675	236.3733	277.184	301.3151	427.0336	503.2105	537.4444	569.2823	665.2476	706.7146	715.7623	790.73	820.4514	867.9149	878.1364	897.8855	928.4592	950.6895	1016.8716	1031.1175	1063.6424	1087.5298	1130.3138	1131.3826	1146.0545	1167.1849	1186.065	1202.0351	1232.1886	1301.5712	1323.6772	1346.1579	1406.67	1413.3796	1476.753	1486.6524	1492.0027	1498.1159	1693.703	3014.9274	3031.587	3059.2824	3074.5993	3081.4581	3091.1693	3108.1792	3117.2114	3135.257	3211.7356
CC1=CC2(C)C3OC2C13	CC1=C[C@]2(C)[C@H]3O[C@@H]2[C@@H]13	
InChI=1S/C8H10O/c1-4-3-8(2)6-5(4)7(8)9-6/h3,5-7H,1-2H3	InChI=1S/C8H10O/c1-4-3-8(2)6-5(4)7(8)9-6/h3,5-7H,1-2H3/t5-,6-,7+,8+
