18
gdb 35285	3.84743	0.86821	0.76593	1.5887	78.32	-0.2511	0.0072	0.2583	1469.4808	0.148172	-398.074449	-398.065745	-398.064801	-398.108971	31.489	
N	-0.4535425328	-1.1120389414	 0.4992561469	-0.334979
C	-0.2473159839	-0.0016049248	 0.2482360599	 0.285841
C	 0.0014951144	 1.3764232786	-0.1027090339	-0.147915
C	 0.7114303175	 2.2591652479	 0.8826919682	-0.235605
N	 1.365441387	 1.8621030175	-0.3481037363	-0.070612
C	 2.4770549569	 0.9090869433	-0.2463727947	-0.19789
C	 3.772342487	 1.6435606537	-0.001361764	 0.036581
C	 5.0163905586	 1.1819137679	-0.6664245429	-0.245066
N	 4.3828930101	 2.4478421625	-1.0667726063	-0.304352
H	-0.7540549117	 1.8039707518	-0.7556700557	 0.142408
H	 0.420147835	 3.3022875613	 0.9611537141	 0.139077
H	 1.0280122736	 1.7907030014	 1.8131748144	 0.13509
H	 2.3151958012	 0.1633225354	 0.5490452926	 0.117904
H	 2.5285207301	 0.3644891379	-1.1964430018	 0.112029
H	 3.8538737333	 2.1015935506	 0.9831175053	 0.094575
H	 5.9732615248	 1.2861203268	-0.163354198	 0.123325
H	 4.9480188008	 0.3242906058	-1.331446738	 0.114437
H	 3.8583381883	 2.3261136339	-1.9301773497	 0.235153
50.4174	79.0411	108.8753	173.2987	223.869	310.2069	356.1347	421.8269	467.4912	558.1401	631.0842	761.449	809.696	834.6026	836.9743	904.6108	939.8176	945.987	1000.2362	1023.8837	1031.5868	1067.8736	1120.0918	1124.722	1131.1584	1141.0802	1157.8531	1224.0137	1250.5671	1286.2731	1310.6392	1322.5608	1364.4977	1371.7762	1436.5281	1484.4847	1508.2442	1515.902	2349.2463	2975.9835	3058.0188	3101.1444	3108.463	3121.1969	3151.8043	3193.4984	3196.4615	3496.6259
N#CC1CN1CC1CN1	N#C[C@H]1CN1C[C@H]1CN1	
InChI=1S/C6H9N3/c7-1-6-4-9(6)3-5-2-8-5/h5-6,8H,2-4H2	InChI=1S/C6H9N3/c7-1-6-4-9(6)3-5-2-8-5/h5-6,8H,2-4H2/t5-,6+,9?/m1/s1
