17
gdb 70775	3.72176	1.37755	1.15316	1.9061	80.53	-0.2329	0.017	0.2499	1081.8584	0.133624	-384.571745	-384.563775	-384.56283	-384.603829	31.472	
C	 0.0648824256	 1.4059485951	-0.1606636348	-0.530872
C	 0.0030104798	-0.0776376332	-0.0079564425	 0.426168
O	 0.5345037674	-0.921204637	-1.0807528806	-0.385971
C	 0.0546229269	-1.876148986	-0.0819453221	 0.440928
C	 0.1736426339	-3.2815406947	-0.3008027915	 0.08137
C	 0.2646386115	-4.4691882394	-0.4661089877	-0.373237
C	 0.5177330432	-1.0090253188	 1.1430160745	-0.177385
C	-0.8737725048	-1.0813442253	 1.8039148309	-0.284949
C	-1.208303515	-1.0238543033	 0.29956103	-0.177393
H	 1.1024624348	 1.7369747334	-0.2666341296	 0.138413
H	-0.4912042807	 1.7228055501	-1.048219506	 0.13845
H	-0.3690573924	 1.8984151453	 0.7152004814	 0.130262
H	 0.348402177	-5.5168567128	-0.6189822758	 0.185142
H	 1.5137396212	-1.0149526346	 1.5859047641	 0.088512
H	-1.1185605856	-2.0120141987	 2.321192352	 0.110905
H	-1.1741242708	-0.2180344676	 2.4033766331	 0.101142
H	-2.1695361522	-1.0466244424	-0.2139824956	 0.088515
131.1797	136.3619	197.4723	244.8761	293.6924	384.3205	475.1364	533.7303	550.8896	552.5538	610.4937	647.5592	689.7947	727.4389	761.5269	797.8028	858.1729	897.7417	919.5917	962.4418	1024.3466	1031.025	1070.3238	1109.4221	1116.2485	1138.3783	1162.8969	1170.6745	1233.5653	1243.5347	1255.8286	1390.0885	1433.2677	1473.3794	1491.0042	1511.8434	2236.7715	3039.0856	3059.3664	3113.163	3113.5067	3117.3211	3120.5763	3124.786	3500.8852
CC12OC3(C#C)C1CC23	C[C@@]12O[C@@]3(C#C)[C@@H]1C[C@@H]23	
InChI=1S/C8H8O/c1-3-8-5-4-6(8)7(5,2)9-8/h1,5-6H,4H2,2H3	InChI=1S/C8H8O/c1-3-8-5-4-6(8)7(5,2)9-8/h1,5-6H,4H2,2H3/t5-,6+,7-,8+
