18
gdb 8140	4.21344	1.63489	1.35179	1.95	73.72	-0.2315	0.0113	0.2428	971.3151	0.152871	-347.810504	-347.802719	-347.801775	-347.842095	29.962	
C	 0.0588677678	 1.509881608	 0.0804743016	-0.485565
C	-0.0321859657	 0.0198194627	 0.0043752039	 0.314985
C	-0.1736811866	-0.7337474452	-1.0923240233	-0.241994
C	-0.1295220756	-2.1939200919	-0.762735092	 0.40828
C	-0.7939129549	-3.2291015566	-1.6246136225	-0.491133
O	 1.1430635472	-2.5799621517	-0.1701481876	-0.302994
C	 0.0517158715	-2.2663491135	 0.6994277737	-0.028395
C	 0.0777733499	-0.847701945	 1.2511166072	-0.336085
H	 1.0320984711	 1.8256580103	 0.4776232101	 0.130995
H	-0.0712815799	 1.9724579206	-0.901559031	 0.125231
H	-0.7007813369	 1.9211475298	 0.7576428402	 0.123958
H	-0.2727678733	-0.3578790497	-2.1045561185	 0.088719
H	-0.3310120303	-3.262553971	-2.6172638388	 0.126965
H	-0.7009669047	-4.2204798177	-1.1746615783	 0.129449
H	-1.8564602109	-2.9998741184	-1.7586795952	 0.122731
H	-0.3144972161	-3.0918517339	 1.3055703785	 0.08756
H	 0.9989107103	-0.6445256465	 1.8116395234	 0.120514
H	-0.7589538227	-0.6711695404	 1.9405985785	 0.106778
149.2253	177.2761	192.7533	232.3567	266.441	365.8848	407.6825	442.0242	512.2675	573.1694	650.8509	729.4211	808.7072	857.5873	871.3487	912.3245	937.7631	974.2262	1007.8188	1025.299	1054.4701	1084.1854	1102.4862	1163.9143	1192.1738	1237.7785	1293.5938	1324.0341	1334.8338	1408.6609	1413.1053	1442.7268	1458.606	1478.8413	1483.3226	1488.717	1495.1695	1702.4256	3015.5704	3020.3546	3034.0619	3056.0209	3062.7481	3094.6641	3111.6726	3123.6755	3137.121	3193.1394
CC1=CC2(C)OC2C1	CC1=C[C@@]2(C)O[C@H]2C1	
InChI=1S/C7H10O/c1-5-3-6-7(2,4-5)8-6/h4,6H,3H2,1-2H3	InChI=1S/C7H10O/c1-5-3-6-7(2,4-5)8-6/h4,6H,3H2,1-2H3/t6-,7+/m0/s1
