19
gdb 55935	4.283	0.94488	0.87819	3.942	76.14	-0.223	0.0372	0.2603	1347.7632	0.159771	-419.190724	-419.18209	-419.181146	-419.224706	32.626	
N	 0.6439049263	-0.0418590774	-0.5634986423	-0.506288
C	-0.2070834055	 0.3733664628	 0.4107413902	 0.377315
O	-0.0213765784	 1.3441312719	 1.1181020547	-0.366037
C	-1.4727595537	-0.4864465958	 0.5338046339	-0.263614
N	-1.3326233935	-1.8082598038	-0.0556422971	-0.098682
C	-0.7039867501	-2.9039533516	 0.7497832766	-0.185952
C	-1.9203577982	-3.792820957	 0.4837497338	-0.069175
C	-3.1604937049	-3.114772941	 1.0089680693	-0.294084
C	-2.5308069713	-2.6229818722	-0.2680216941	-0.00049
H	 1.462812825	 0.5052930162	-0.7674842307	 0.257132
H	 0.3811621375	-0.8283995511	-1.1353326325	 0.261703
H	-1.7532954283	-0.4876946507	 1.5974811676	 0.114315
H	-2.2691507485	 0.0426892498	-0.0039962796	 0.131562
H	 0.230323978	-3.2533415314	 0.3006366037	 0.108748
H	-0.5193797057	-2.6497690229	 1.8018897941	 0.107989
H	-1.888859381	-4.8375339594	 0.2069802668	 0.097436
H	-4.0823752387	-3.6722950606	 0.8757810173	 0.117221
H	-3.122605	-2.5233439508	 1.9200735896	 0.114612
H	-3.059188289	-2.5872650751	-1.2147846812	 0.09629
62.8674	66.7101	124.5853	224.6233	296.244	330.9704	383.0442	434.0381	489.2342	540.095	570.539	699.9804	724.5087	786.5734	804.5651	862.8136	875.9752	924.8101	959.311	971.6265	993.3616	1037.3936	1064.2647	1077.8218	1092.9092	1101.6819	1118.9308	1157.3469	1185.7094	1242.251	1261.6765	1275.6603	1312.4468	1341.8649	1359.7103	1369.2741	1463.4835	1482.5359	1512.7074	1577.4202	1808.9919	2996.5317	3017.505	3059.8539	3077.1874	3115.7895	3163.7866	3201.1859	3211.9475	3584.5795	3732.3318
NC(=O)CN1CC2CC12	NC(=O)CN1C[C@H]2C[C@@H]12	
InChI=1S/C6H10N2O/c7-6(9)3-8-2-4-1-5(4)8/h4-5H,1-3H2,(H2,7,9)	InChI=1S/C6H10N2O/c7-6(9)3-8-2-4-1-5(4)8/h4-5H,1-3H2,(H2,7,9)/t4-,5-/m1/s1
