20
gdb 99181	5.29023	0.71792	0.70563	2.2332	78.28	-0.2435	0.063	0.3065	1686.2891	0.170881	-440.319356	-440.309652	-440.308707	-440.355426	34.209	
C	-0.1507364158	 1.5474823195	 0.2424668089	-0.231867
O	-0.1034130618	 0.1457987874	-0.0284514372	-0.270523
C	-1.3115341431	-0.4772905675	 0.0075895542	 0.520704
O	-2.3599934772	 0.0804440302	 0.2461900385	-0.41826
N	-1.1502979722	-1.8019607227	-0.2628969423	-0.381724
C	-2.2404082932	-2.738040589	-0.3010639754	 0.086901
C	-2.4364590336	-3.6315467695	-1.5571602747	-0.237895
C	-2.8732816917	-4.7789803454	-0.6056742893	-0.210894
C	-2.1678993582	-4.0305683518	 0.5583758624	-0.237879
H	 0.8806298012	 1.8960135369	 0.1764104924	 0.126938
H	-0.7740709747	 2.0666931814	-0.4903270696	 0.137423
H	-0.5525728772	 1.7395628151	 1.2408533218	 0.137376
H	-0.2122268498	-2.1223918842	-0.4425693711	 0.246437
H	-3.1431239828	-2.1671237698	-0.0787843237	 0.122737
H	-3.1350138477	-3.2880064974	-2.3234945504	 0.105315
H	-1.4749661607	-3.8531040003	-2.0329597722	 0.094672
H	-3.9581123925	-4.8036999497	-0.4726162062	 0.10961
H	-2.5282469231	-5.7875059783	-0.8396923582	 0.100946
H	-1.1310806449	-4.3639725938	 0.675822046	 0.094669
H	-2.644383581	-4.0169758012	 1.5412537259	 0.105314
36.6899	67.3455	100.8851	108.1873	156.3048	202.4349	312.2789	347.3248	376.2011	470.1263	484.02	663.8562	716.0694	778.6752	785.5354	789.0266	907.3907	924.7788	944.2037	959.4751	984.3957	1039.7465	1081.0836	1145.8024	1183.8323	1194.8136	1205.735	1217.1805	1231.8556	1249.2358	1258.3687	1259.0011	1281.3551	1294.9579	1379.3177	1470.4717	1475.8967	1481.6617	1487.5389	1501.8934	1510.1733	1551.5908	1815.043	3045.4398	3048.2616	3050.0777	3067.7383	3099.8363	3107.6166	3117.6432	3120.8988	3129.0313	3150.5806	3639.1436
COC(=O)NC1CCC1	COC(=O)NC1CCC1	
InChI=1S/C6H11NO2/c1-9-6(8)7-5-3-2-4-5/h5H,2-4H2,1H3,(H,7,8)	InChI=1S/C6H11NO2/c1-9-6(8)7-5-3-2-4-5/h5H,2-4H2,1H3,(H,7,8)
