16
gdb 20105	5.01648	1.56727	1.41966	0.4712	64.9	-0.236	0.0593	0.2953	898.2207	0.130303	-383.666007	-383.659088	-383.658143	-383.697415	26.145	
C	 0.376259954	 1.4634662044	 0.1608890824	-0.171305
O	 1.0575557585	 0.3083063757	-0.3322013868	-0.229596
C	-0.2975058508	 0.1573060546	 0.0912879646	-0.045204
C	-0.5017844397	-0.677867588	 1.2996952863	 0.485239
C	 0.5179295251	-1.0060683569	 2.3407523924	-0.34116
C	-0.2091971841	-2.1295570407	 1.6226404179	-0.188731
C	-1.6552540043	-2.1731149104	 2.0992206312	-0.091523
O	-1.8287733136	-0.7507550231	 1.8369893626	-0.331742
H	 0.7209281908	 1.8298664311	 1.1258316634	 0.121005
H	 0.1498186858	 2.224056122	-0.5842132755	 0.120471
H	-1.0138423051	-0.0120258358	-0.713107147	 0.100037
H	 1.5476880419	-0.8731887476	 2.0265925957	 0.134334
H	 0.3067688223	-0.7887747529	 3.3846668168	 0.111807
H	 0.300794747	-2.8885869384	 1.0457833873	 0.109065
H	-2.3165984874	-2.7627141604	 1.4547587124	 0.111259
H	-1.8404648804	-2.4253107534	 3.1500545563	 0.106044
72.4103	172.5426	195.2812	314.2303	398.3017	427.6743	496.1028	666.7563	755.2309	842.3085	855.8024	876.2684	912.7412	951.4558	977.138	984.4149	994.9123	1022.4793	1056.0007	1074.7563	1096.6868	1135.2253	1149.9525	1155.2494	1170.2652	1178.2129	1267.2435	1279.1081	1336.1837	1381.6656	1442.1881	1491.7022	1517.3087	1522.7471	3025.2548	3074.5826	3090.7109	3109.1476	3115.0428	3183.8651	3207.8492	3219.2179
C1OC1C12CC1CO2	C1O[C@H]1[C@]12C[C@H]1CO2	
InChI=1S/C6H8O2/c1-4-2-8-6(1,4)5-3-7-5/h4-5H,1-3H2	InChI=1S/C6H8O2/c1-4-2-8-6(1,4)5-3-7-5/h4-5H,1-3H2/t4-,5+,6-/m0/s1
