19
gdb 91283	2.77511	1.36904	1.15724	2.3534	73.85	-0.2414	-0.0199	0.2215	1112.5823	0.160006	-423.046743	-423.03874	-423.037796	-423.079781	31.294	
O	 0.6332650517	 0.5993223934	-1.0300386456	-0.427801
C	 0.0995214204	-0.3161273997	-0.1082164784	 0.161625
C	 0.1761677149	-0.0107931456	 1.4084698526	-0.29232
C	-1.2695559749	-0.5661501364	 1.5776723603	-0.015972
C	-2.2882717667	 0.3851260653	 2.1966424442	-0.327814
C	-2.6008303955	 1.3943652452	 1.0844817777	 0.378521
O	-3.0061415158	 2.5165544764	 1.2393344556	-0.304694
C	-2.3037137009	 0.7313974703	-0.2705856923	-0.341801
C	-1.4468590132	-0.5088089226	 0.0106038335	-0.076785
H	 0.419794895	 1.4909130319	-0.7363983438	 0.283394
H	 0.5719883601	-1.2741816179	-0.3433637119	 0.093521
H	 0.9769608358	-0.4867954036	 1.9785463216	 0.109132
H	 0.2199283462	 1.0686654768	 1.6021615814	 0.099009
H	-1.2945149647	-1.5702984707	 2.001538058	 0.075636
H	-3.2246841587	-0.1367438308	 2.4385822529	 0.126101
H	-1.9549745899	 0.8952189713	 3.1040626464	 0.12705
H	-3.2654967161	 0.4638809058	-0.7234441014	 0.135859
H	-1.8411315654	 1.449574312	-0.9545888158	 0.124682
H	-1.8368563824	-1.3996356112	-0.484049915	 0.072657
52.2687	93.598	233.2982	290.9043	332.4372	405.8165	439.9198	454.2209	544.6388	558.9014	632.5671	698.2809	745.4315	779.85	814.6713	847.9585	878.0814	945.8733	980.1213	1010.1662	1033.5361	1072.6209	1094.0088	1129.6709	1143.1748	1150.4409	1174.7345	1212.4125	1234.8111	1250.839	1269.9605	1279.6548	1301.6723	1314.3231	1340.1786	1354.8816	1435.2304	1448.6144	1457.0735	1484.8454	1844.7075	3023.0118	3027.7962	3046.7213	3066.8798	3085.4197	3091.8331	3098.2362	3102.4075	3113.0256	3812.7455
OC1CC2CC(=O)CC12	O[C@H]1C[C@H]2CC(=O)C[C@@H]12	
InChI=1S/C7H10O2/c8-5-1-4-2-7(9)6(4)3-5/h4,6-7,9H,1-3H2	InChI=1S/C7H10O2/c8-5-1-4-2-7(9)6(4)3-5/h4,6-7,9H,1-3H2/t4-,6-,7+/m1/s1
