23
gdb 60257	3.06282	0.91299	0.76152	2.5464	81.74	-0.2367	0.0628	0.2995	1566.8356	0.203962	-425.412991	-425.402572	-425.401628	-425.449158	38.104	
C	 0.0787092058	 1.5779667031	 0.1158863057	-0.406926
C	 0.0250764347	 0.0546972356	 0.0064661634	 0.133849
O	 0.819950122	-0.564124536	 1.0190985118	-0.423467
C	-1.4126877608	-0.4854571287	 0.0058223135	-0.22661
C	-1.473137442	-2.0036783558	-0.1201552276	-0.030433
C	-1.2001272753	-2.8585248159	 1.1342766076	-0.070061
O	-2.4710768621	-3.5304355828	 1.0172039848	-0.295453
C	-2.8507504801	-2.7313780724	-0.1290187136	 0.13198
C	-4.1239680342	-1.942203593	 0.121601214	-0.397248
H	 1.1165273747	 1.9219136395	 0.1224374265	 0.12562
H	-0.4412518963	 2.0556336535	-0.7207371839	 0.117542
H	-0.4012082776	 1.9184340407	 1.0423634861	 0.107411
H	 0.5083806241	-0.2508763355	-0.9306459224	 0.089439
H	 0.5042033441	-0.2479009833	 1.8730942336	 0.277378
H	-1.9172576056	-0.1562671582	 0.9252471716	 0.087882
H	-1.9565240088	-0.0199655343	-0.8268735863	 0.097941
H	-0.8567788422	-2.315366746	-0.9688277706	 0.075816
H	-0.3542964263	-3.5520220064	 1.0747716395	 0.103974
H	-1.1241445097	-2.2953975691	 2.0732869935	 0.078748
H	-2.9899806803	-3.3728050845	-1.0108172316	 0.069976
H	-4.0296750552	-1.2907898912	 0.9949101243	 0.116224
H	-4.3816354889	-1.3276244574	-0.7481648319	 0.111182
H	-4.9525378501	-2.633474882	 0.3049073521	 0.125234
36.9848	79.4784	107.4558	132.0902	217.3417	245.9894	248.323	300.7909	313.6371	367.6306	392.6516	460.5325	481.2338	512.4644	752.7854	828.3768	839.2081	876.9238	886.9045	929.3964	946.7769	987.7078	1022.5056	1026.8867	1068.4674	1088.2456	1113.7699	1125.1814	1157.0657	1160.3217	1180.8979	1227.9395	1255.0921	1290.6247	1306.3185	1334.4909	1356.4826	1374.8433	1385.3735	1401.8457	1405.5858	1408.9265	1421.7801	1474.0849	1485.741	1493.1055	1495.647	1496.4262	1524.8963	2993.3779	3004.9401	3013.9114	3021.6758	3029.0376	3035.6254	3045.3732	3055.5541	3071.3293	3094.0565	3104.2556	3116.7349	3118.7387	3797.2279
CC(O)CC1COC1C	C[C@@H](O)C[C@H]1CO[C@H]1C	
InChI=1S/C7H14O2/c1-5(8)3-7-4-9-6(7)2/h5-8H,3-4H2,1-2H3	InChI=1S/C7H14O2/c1-5(8)3-7-4-9-6(7)2/h5-8H,3-4H2,1-2H3/t5-,6+,7+/m1/s1
