22
gdb 120664	2.82661	1.01646	0.85868	0.6625	83.75	-0.2375	0.0762	0.3137	1458.1687	0.193754	-404.299281	-404.289683	-404.288739	-404.33464	35.107	
C	-0.4815569697	 1.1900526744	-0.517730955	-0.222469
O	-0.6877882779	-0.2000193115	-0.5851261095	-0.237404
C	-1.066430082	-0.7570285898	 0.658680741	-0.053184
C	-1.1897990597	-2.2484643742	 0.4942288819	-0.125555
N	-2.1535843381	-2.9074199833	 1.4029102621	-0.400132
C	-2.4242006473	-2.8724073411	-0.0315012551	 0.389773
C	-3.6174151162	-2.1844397546	-0.7039347946	-0.286851
C	-3.4339851584	-3.168524282	-1.8984475071	-0.205014
C	-2.4943534769	-4.0449505399	-1.0161202708	-0.308993
H	-0.1987630482	 1.5293481683	-1.5174042582	 0.124762
H	-1.3925573975	 1.725357524	-0.2054808902	 0.103286
H	 0.3240909788	 1.4510042659	 0.1873108822	 0.102531
H	-0.3167693984	-0.5162993838	 1.4323863097	 0.085199
H	-2.0289553127	-0.3455905003	 1.0007462832	 0.096053
H	-0.2541594542	-2.7633173066	 0.2805833698	 0.083926
H	-1.810518799	-3.8261128474	 1.6746379812	 0.227759
H	-4.5491216641	-2.3495028877	-0.1550267326	 0.103647
H	-3.5130308822	-1.1194492771	-0.9212784159	 0.109773
H	-4.3348526811	-3.6514837117	-2.2811525514	 0.098483
H	-2.9005098743	-2.7072879369	-2.7322508167	 0.112134
H	-1.55523347	-4.3867883566	-1.4599575997	 0.101243
H	-3.0167496309	-4.9086095181	-0.5899892643	 0.101035
48.7601	88.7139	99.5808	123.8256	196.9322	242.4395	289.4776	347.8487	384.574	461.8495	512.2191	569.8074	707.5523	786.4271	799.1355	874.0043	920.8088	931.8267	946.8779	966.4747	1003.2491	1018.3963	1021.0981	1069.9129	1107.2448	1135.9839	1161.7417	1179.0417	1194.7659	1214.0471	1217.3306	1229.5208	1249.1405	1257.0409	1265.1062	1281.0834	1294.33	1345.8969	1407.3374	1468.7851	1476.7821	1479.4652	1484.6449	1487.8508	1503.8306	1510.058	1525.9552	2952.8082	2969.0719	2999.709	3010.1392	3039.3872	3059.6224	3073.1462	3091.9444	3111.1541	3112.6947	3118.855	3131.045	3490.0041
COCC1NC11CCC1	COC[C@H]1NC21CCC2	
InChI=1S/C7H13NO/c1-9-5-6-7(8-6)3-2-4-7/h6,8H,2-5H2,1H3	InChI=1S/C7H13NO/c1-9-5-6-7(8-6)3-2-4-7/h6,8H,2-5H2,1H3/t6-/m1/s1
