19
gdb 94913	2.16591	1.71919	1.40342	1.7927	81.12	-0.2392	0.0494	0.2886	1042.0124	0.159017	-385.852406	-385.844007	-385.843063	-385.885037	32.702	
C	-0.0988242496	 1.5289964389	-0.0691028345	-0.40786
C	-0.0309042134	 0.0151948433	 0.0648436283	 0.12467
O	 0.5750793422	-0.5287172972	-1.108581776	-0.262451
C	 1.1455139323	-1.7932285871	-0.7967787765	-0.099807
C	 1.5154317022	-1.7369666717	 0.6754984796	-0.088004
C	 2.3094999822	-0.5192343202	 1.1291625086	-0.218336
C	 3.0767914528	 0.291095341	 0.2264122113	 0.361925
C	 3.7866774789	 0.9510912543	-0.4864298954	-0.473353
C	 0.7872190232	-0.5412277501	 1.2214800672	-0.085042
H	 0.9041219923	 1.9549477658	-0.1362101651	 0.141926
H	-0.6564503214	 1.8009129301	-0.9697184377	 0.1234
H	-0.6127894355	 1.9612660889	 0.7952930668	 0.109248
H	-1.0555875144	-0.3849631077	 0.1724575708	 0.065723
H	 0.4249234963	-2.6107146659	-0.96202567	 0.092338
H	 1.9990924272	-1.9402107113	-1.4663032333	 0.117567
H	 1.6232803801	-2.6634137175	 1.2271284047	 0.095829
H	 2.7892850053	-0.6532620663	 2.0956549958	 0.114933
H	 4.3892967859	 1.5396926823	-1.1325445263	 0.193487
H	 0.3465563334	-0.5380066796	 2.2117541117	 0.093805
118.0278	131.2678	181.5055	225.7188	243.07	329.4089	343.2443	467.0903	540.4166	571.4032	598.0979	645.1966	707.8786	720.1895	762.7015	801.5436	846.1733	887.0713	969.3729	985.1106	1003.8155	1009.1104	1059.9582	1081.4459	1098.0407	1122.906	1136.4693	1158.9364	1192.7731	1241.1615	1323.208	1338.932	1351.2612	1362.7672	1391.6373	1412.428	1428.6346	1486.5592	1501.5353	1510.8248	2232.8611	2931.0966	2972.9222	3046.6659	3073.0856	3114.2771	3134.1721	3142.14	3175.8145	3186.5094	3503.9962
CC1OCC2C(C#C)C12	C[C@H]1OC[C@H]2[C@@H](C#C)[C@@H]12	
InChI=1S/C8H10O/c1-3-6-7-4-9-5(2)8(6)7/h1,5-8H,4H2,2H3	InChI=1S/C8H10O/c1-3-6-7-4-9-5(2)8(6)7/h1,5-8H,4H2,2H3/t5-,6-,7+,8-/m1/s1
