21
gdb 54401	3.12954	1.30743	1.16548	2.7565	82.3	-0.2361	-0.0096	0.2265	1154.7189	0.183509	-387.107953	-387.099521	-387.098577	-387.141476	32.675	
C	-0.0520307873	 1.4780543803	-0.02147573	-0.489762
C	 0.0410411844	-0.0383251582	 0.0434145412	 0.254223
O	 1.110509879	-0.6073293773	 0.0814064863	-0.299776
C	-1.2553836147	-0.8026359243	 0.0446301888	 0.285573
C	-2.1193045435	-0.916510821	-1.2620436444	-0.265165
C	-2.7086147018	-2.14545711	-0.5133422308	-0.025402
C	-1.2806353256	-2.354808033	 0.0665925233	-0.260603
C	-3.4404270797	-1.4789084463	 0.6673049499	-0.210567
C	-2.345200575	-0.4420606152	 1.087256352	-0.274274
H	 0.9345974914	 1.8975689528	-0.2222229957	 0.140197
H	-0.7627712686	 1.8008391638	-0.7894819873	 0.133781
H	-0.4173863528	 1.86820879	 0.9356680506	 0.143988
H	-2.7888183703	-0.0865863298	-1.5089498397	 0.089735
H	-1.5188083095	-1.1955522616	-2.1305604072	 0.108421
H	-3.2338704472	-2.9367710462	-1.0483377757	 0.062951
H	-0.5781923916	-2.7828287108	-0.64980774	 0.111308
H	-1.1825091838	-2.853186274	 1.0351105959	 0.09205
H	-4.3760692117	-1.0003991229	 0.3641061306	 0.097112
H	-3.6695677559	-2.1888656657	 1.4668921461	 0.100687
H	-1.992607853	-0.5895316209	 2.1120217606	 0.106303
H	-2.6884034525	 0.5919295003	 0.9935140654	 0.099219
41.0185	128.983	164.1318	180.8013	293.5917	353.2485	413.3312	460.6242	513.9378	595.4912	608.0177	666.8831	827.6387	831.526	838.0363	882.6732	895.4219	931.3196	939.8025	968.1588	981.7608	990.4804	1011.7501	1045.8349	1084.8928	1088.7354	1116.9742	1145.3069	1193.9077	1201.6164	1233.7345	1237.988	1246.6904	1267.3177	1302.0328	1317.9838	1343.9466	1383.405	1464.2426	1475.6391	1488.3598	1494.0707	1501.2974	1532.522	1796.2721	3036.7562	3048.2833	3050.1246	3058.7378	3064.3528	3088.3817	3098.2703	3107.2678	3113.2893	3119.4686	3134.8028	3150.0394
CC(=O)C12CC(C1)CC2	CC(=O)[C@@]12C[C@@H](C1)CC2	
InChI=1S/C8H12O/c1-6(9)8-3-2-7(4-8)5-8/h7H,2-5H2,1H3	InChI=1S/C8H12O/c1-6(9)8-3-2-7(4-8)5-8/h7H,2-5H2,1H3/t7-,8-
