16
gdb 20210	3.39564	2.75337	2.19178	2.5399	62.27	-0.2222	0.0823	0.3045	689.3136	0.133587	-383.718254	-383.712574	-383.71163	-383.747922	23.043	
C	-0.0102293613	 1.5547162862	 0.0128506153	-0.070788
O	 1.3495252777	 1.9853699467	-0.0824786468	-0.252181
C	 2.0862863137	 0.9664052474	-0.7023441446	 0.067498
C	 2.3876248464	-0.2832417693	 0.1105820787	 0.067487
O	 1.9091554389	-0.3354354409	 1.4272822068	-0.25218
C	 0.4957751942	-0.5437428225	 1.3778564612	-0.070794
C	 0.0330583281	 0.016778566	 0.021795567	-0.08691
C	 1.2524134414	-0.2767349885	-0.8814265801	-0.178659
H	-0.4369093036	 1.9845406587	 0.9243606564	 0.109403
H	-0.5844000768	 1.9212202832	-0.8516068828	 0.092753
H	 2.7949291204	 1.3165270712	-1.4460018231	 0.097922
H	 3.3121162106	-0.8282853525	-0.0507538984	 0.09792
H	 0.2691788459	-1.6182816075	 1.4507038262	 0.092752
H	 0.049430547	-0.0327006747	 2.2364987422	 0.109402
H	-0.897417015	-0.4347001826	-0.3273604787	 0.082257
H	 1.1874720924	-0.8766660409	-1.7795793193	 0.094119
148.0206	242.9263	376.2634	561.7429	576.9874	731.8425	732.1956	764.6262	793.9871	807.0281	835.7988	936.3191	947.6216	965.8812	967.1408	1024.274	1026.4819	1056.3858	1073.7626	1104.238	1117.7459	1120.5632	1184.6913	1206.2953	1223.5994	1262.8971	1266.9353	1306.256	1316.8265	1372.2313	1382.5166	1417.7971	1507.2956	1520.9714	2988.5459	2988.8561	3077.3132	3084.859	3100.1304	3158.3227	3166.0561	3193.8724
C1OC2C3OCC1C23	C1O[C@H]2[C@H]3OC[C@@H]1[C@@H]23	
InChI=1S/C6H8O2/c1-3-2-8-6-4(3)5(6)7-1/h3-6H,1-2H2	InChI=1S/C6H8O2/c1-3-2-8-6-4(3)5(6)7-1/h3-6H,1-2H2/t3-,4+,5-,6+
