20
gdb 90986	2.66707	1.85444	1.34408	2.3284	77.88	-0.2309	0.0733	0.3042	1009.389	0.171797	-403.090692	-403.082929	-403.081985	-403.122411	31.484	
C	-0.0892154636	 1.5439286047	-0.0709001941	-0.405859
C	 0.0278869222	 0.0303421883	 0.0346985245	 0.08234
O	 0.8699853372	-0.4796911278	-1.025579114	-0.294495
C	 1.8585706773	-1.187349385	-0.3286401425	 0.158503
C	 1.2621787235	-1.9529265705	 0.8831751676	-0.132676
N	 2.5774609202	-1.7717363387	 1.5921721211	-0.341303
C	 2.2984287495	-0.4346441239	 0.9576346859	-0.128855
C	 0.7522733763	-0.5109044853	 1.2710752594	 0.308816
C	 0.1882526198	-0.2056310417	 2.636773441	-0.512809
H	 0.8829271353	 2.0244231976	 0.0776669479	 0.119163
H	-0.4585060936	 1.8223087949	-1.0618045523	 0.129943
H	-0.789500862	 1.934102264	 0.6749498665	 0.115008
H	-0.9680486388	-0.4261889138	-0.0645743206	 0.076185
H	 2.586725917	-1.6515848559	-0.9889653814	 0.100522
H	 0.7089135344	-2.8939541454	 0.8958400561	 0.075434
H	 2.4177356344	-1.7123757717	 2.6009680518	 0.208013
H	 2.9755188546	 0.4153985496	 1.0577159492	 0.076455
H	 0.1694134099	 0.872177274	 2.828847364	 0.127434
H	-0.8380556253	-0.5783622946	 2.730866647	 0.124186
H	 0.7807578517	-0.6699632589	 3.4329215331	 0.113996
137.7598	215.188	226.7602	247.0057	300.7499	329.6928	444.1583	480.1007	503.6341	646.9734	671.358	715.5055	779.461	812.3023	842.7945	876.1128	904.084	907.7906	939.9685	1002.598	1040.2827	1069.5487	1079.5207	1102.6215	1114.4672	1127.8554	1143.1276	1160.0451	1177.1044	1215.583	1238.4353	1266.7386	1279.4068	1302.8595	1326.3453	1369.2122	1382.8263	1406.557	1417.6097	1485.1386	1491.1071	1491.9176	1499.7877	2994.044	3026.7589	3037.6069	3087.4876	3095.1126	3095.8106	3101.2843	3109.5329	3117.7161	3165.7296	3406.8889
CC1OC2C3NC2C13C	C[C@H]1O[C@@H]2[C@H]3N[C@@H]2[C@@]13C	
InChI=1S/C7H11NO/c1-3-7(2)5-4(9-3)6(7)8-5/h3-6,8H,1-2H3	InChI=1S/C7H11NO/c1-3-7(2)5-4(9-3)6(7)8-5/h3-6,8H,1-2H3/t3-,4-,5-,6+,7+/m1/s1
