19
gdb 72746	2.50142	1.75571	1.54199	1.8254	74.48	-0.2397	0.0613	0.301	971.962	0.15914	-422.965629	-422.957878	-422.956934	-422.997595	30.567	
C	-0.0385675809	 1.5777410043	-0.0283623704	-0.497653
C	-0.0154457423	 0.0677750087	 0.0435412174	 0.230472
C	 0.9953433102	-0.6657727305	-0.8875446224	-0.144057
O	 1.7398022106	-1.2067448712	 0.2451619795	-0.328145
C	 0.7415819823	-0.7496022376	 1.1257055823	 0.382757
C	 0.8235409311	-0.3622409001	 2.5862745952	-0.173404
O	-0.5668254746	-0.7649843397	 2.7425876394	-0.297692
C	-0.5866281252	-1.4746467495	 1.4723816572	 0.050351
C	-1.334274244	-0.7093011015	 0.3557318791	-0.319574
H	 0.9747804108	 1.9937604434	-0.0484444566	 0.121757
H	-0.5565528486	 1.9193426768	-0.932757622	 0.121873
H	-0.5644325598	 2.0030339797	 0.8328531583	 0.129153
H	 0.5772485491	-1.4629984435	-1.5135446376	 0.104996
H	 1.6304422045	-0.0150724345	-1.4976609355	 0.109935
H	 1.4972261078	-0.9908937263	 3.1848782674	 0.110208
H	 0.9844487194	 0.6926053613	 2.8363486261	 0.107729
H	-0.7219395781	-2.5522865711	 1.5980504836	 0.077573
H	-2.1493023418	-0.0862654738	 0.7325473594	 0.113837
H	-1.7097549207	-1.3354644549	-0.4596888503	 0.099884
102.8407	191.3844	214.0632	247.2732	335.6279	352.6318	384.6858	472.3408	503.5279	617.516	709.037	755.685	819.4235	842.3408	900.5398	920.3754	947.9542	973.3982	978.0783	983.3049	1004.9567	1080.0468	1112.0448	1122.1303	1133.9104	1155.3002	1164.3865	1220.8819	1248.8503	1254.1863	1273.4949	1289.0697	1315.2823	1354.9981	1373.1734	1407.92	1462.2844	1489.9904	1494.0497	1513.874	1517.4388	3006.1973	3020.8436	3024.765	3049.5811	3063.5575	3074.4538	3078.3999	3085.5069	3098.6716	3112.0321
CC12COC11COC1C2	C[C@@]12CO[C@]31CO[C@H]3C2	
InChI=1S/C7H10O2/c1-6-2-5-7(6,4-8-5)9-3-6/h5H,2-4H2,1H3	InChI=1S/C7H10O2/c1-6-2-5-7(6,4-8-5)9-3-6/h5H,2-4H2,1H3/t5-,6+,7+/m0/s1
