19
gdb 95540	2.29226	1.53002	1.06839	2.9989	78.37	-0.238	-0.0296	0.2084	1161.9164	0.15859	-423.042784	-423.03406	-423.033116	-423.076402	32.447	
C	-0.1334843913	 1.5294046249	-0.0947787565	-0.413642
C	-0.0024778714	 0.0160930251	-0.0011707679	 0.099106
O	 0.68975707	-0.4256655776	-1.1647237856	-0.260706
C	 0.6799651193	-1.8310811413	-1.3220730511	-0.122072
C	 0.9643245331	-2.5741073551	-0.0479903102	-0.060713
C	 0.9906135524	-1.9648464276	 1.1354807779	-0.105853
C	 0.7347887363	-0.4787793476	 1.2634161263	-0.120396
C	 2.0794754817	 0.215497581	 1.4491737283	 0.158541
O	 2.4737808729	 0.6750850687	 2.4898384943	-0.257718
H	 0.8484733421	 2.0083721459	-0.1511679892	 0.133306
H	-0.6944081112	 1.8022210665	-0.9921969129	 0.127496
H	-0.658662484	 1.92271203	 0.7806340135	 0.124431
H	-1.0086116013	-0.4351145705	 0.0151967347	 0.075383
H	-0.2889731908	-2.1665398204	-1.7360546013	 0.103872
H	 1.4397278568	-2.0590410717	-2.0790099321	 0.12306
H	 1.1238178145	-3.6456368377	-0.1335676177	 0.101737
H	 1.2142408513	-2.5128601155	 2.0456854307	 0.107833
H	 0.1358017352	-0.2711961156	 2.1566226901	 0.094232
H	 2.7016667344	 0.2334053386	 0.5283366186	 0.092102
71.257	101.3372	184.7235	208.5308	248.3589	274.8093	308.7822	416.9189	463.5986	482.4475	514.0239	627.8688	713.3648	788.1512	849.4998	912.6465	929.0663	955.3061	981.3551	997.4957	1035.7461	1072.6039	1084.5647	1121.316	1137.9281	1168.9295	1208.312	1255.0827	1268.7809	1305.9617	1361.0806	1378.3046	1397.2778	1403.6093	1414.0018	1417.0771	1481.0129	1486.1435	1501.4955	1712.4902	1824.6104	2902.5023	2937.9998	2961.416	3045.6249	3052.5653	3058.5488	3118.822	3125.6783	3160.758	3183.309
CC1OCC=CC1C=O	C[C@H]1OCC=C[C@H]1C=O	
InChI=1S/C7H10O2/c1-6-7(5-8)3-2-4-9-6/h2-3,5-7H,4H2,1H3	InChI=1S/C7H10O2/c1-6-7(5-8)3-2-4-9-6/h2-3,5-7H,4H2,1H3/t6-,7+/m1/s1
