21
gdb 81039	2.20241	1.74322	1.5599	1.4473	77.48	-0.2314	0.0824	0.3139	1025.4288	0.182728	-424.218164	-424.209635	-424.208691	-424.250599	33.478	
C	-0.1177166667	 1.6436326109	-0.0259727179	-0.446565
C	 0.0623504661	 0.1327943171	 0.0075327931	-0.012677
C	 1.0956376337	-0.6232123564	-0.8610479587	 0.045411
C	 2.4457407235	 0.077982348	-0.8954643293	-0.072557
O	 2.716259148	 0.7142326723	 0.3506391291	-0.272735
C	 2.1282740123	 0.0944717326	 1.4911338816	-0.095664
C	 0.8192923358	-0.6161177865	 1.1422242106	 0.349519
C	 0.0768729466	-1.1638802418	 2.3377315821	-0.477921
O	 1.1873810839	-1.6491804903	 0.1676539171	-0.334407
H	 0.8298509575	 2.1719209528	 0.0903106978	 0.144896
H	-0.5716324965	 1.9543239099	-0.9736004205	 0.115874
H	-0.7939433829	 1.9670019215	 0.7733769897	 0.115425
H	-0.90382249	-0.3661418306	-0.1183661695	 0.081831
H	 0.80215397	-1.0250170416	-1.8354913367	 0.075115
H	 3.2198425502	-0.6680426532	-1.1314421175	 0.102435
H	 2.4773021568	 0.8654933023	-1.6575477433	 0.103424
H	 2.8122556567	-0.6504974242	 1.9259520561	 0.099999
H	 1.9718468103	 0.8940258283	 2.2244734778	 0.102059
H	-0.2969526603	-0.3499840117	 2.9678191144	 0.121609
H	-0.7718527221	-1.7685619639	 2.0071566527	 0.127682
H	 0.729371177	-1.7963631655	 2.9492259813	 0.127248
170.6136	193.58	200.2125	215.9201	225.8368	247.7963	298.725	421.3822	451.867	498.9871	531.1126	636.8511	696.1801	783.2027	834.86	852.5045	889.9888	910.2415	945.0345	985.7385	1001.7352	1027.121	1054.9787	1082.7013	1137.7622	1146.3019	1157.3292	1197.6626	1234.9833	1248.2751	1270.7445	1283.5446	1313.0901	1351.3258	1377.6197	1377.813	1404.5373	1409.8472	1433.7944	1478.8496	1487.5716	1491.575	1495.2532	1500.1941	1512.639	2986.4676	2993.6096	3033.324	3035.4893	3053.9361	3057.9905	3060.5736	3071.5509	3088.2135	3103.7694	3118.6522	3136.6893
CC1C2COCC1(C)O2	C[C@H]1[C@H]2COC[C@]1(C)O2	
InChI=1S/C7H12O2/c1-5-6-3-8-4-7(5,2)9-6/h5-6H,3-4H2,1-2H3	InChI=1S/C7H12O2/c1-5-6-3-8-4-7(5,2)9-6/h5-6H,3-4H2,1-2H3/t5-,6+,7-/m0/s1
