13
gdb 131047	3.80204	1.1897	0.90615	4.8013	63.66	-0.2195	-0.0289	0.1906	1164.3407	0.091417	-486.134759	-486.127139	-486.126195	-486.167326	27.523	
O	 0.5549122577	 1.9187856199	 1.430562159	-0.316124
C	 0.1550052123	 1.5579382653	 0.3441954944	 0.160245
N	 0.9329422296	 0.9894476735	-0.6290757365	-0.398169
C	 2.291761845	 0.7375786476	-0.5258084825	 0.548648
N	 2.9805447994	 0.193061846	-1.4811168939	-0.321324
N	 4.2561630745	 0.1378961884	-0.9483566909	-0.30024
C	 4.3633350137	 0.6431097658	 0.3307237044	 0.464921
O	 5.3268564667	 0.7328809438	 1.0548409103	-0.413323
N	 3.0340547557	 1.0339695102	 0.5789165555	-0.405224
H	-0.8960594932	 1.6514146197	 0.0215508825	 0.110025
H	 0.512584756	 0.7177390299	-1.5061582008	 0.282368
H	 5.0091372186	-0.2491504741	-1.4881553722	 0.284441
H	 2.6692779439	 1.4577137139	 1.4179922208	 0.303756
90.6712	143.7075	172.6508	219.5686	339.9545	342.4685	460.0739	516.3703	582.7425	602.5865	616.1287	706.2024	763.2719	771.0866	866.6837	987.327	1019.5709	1025.0297	1108.0864	1143.4025	1242.8402	1261.282	1382.1069	1430.9583	1477.0158	1544.7306	1683.1323	1794.8574	1865.2216	2994.1841	3622.1964	3645.7213	3705.4971
O=CNC1=NNC(=O)N1	O=CNc1n[nH]c(=O)[nH]1	
InChI=1S/C3H4N4O2/c8-1-4-2-5-3(9)7-6-2/h1H,(H3,4,5,6,7,8,9)	InChI=1S/C3H4N4O2/c8-1-4-2-5-3(9)7-6-2/h1H,(H3,4,5,6,7,8,9)
