22
gdb 62618	2.20915	1.82652	1.55402	1.9341	84.48	-0.23	0.073	0.303	1031.3014	0.193445	-367.156688	-367.147933	-367.146988	-367.189081	35.254	
C	 0.0272674109	 1.5547010792	 0.0062822008	-0.471284
C	 0.042209863	 0.0253044515	 0.0276533557	 0.287334
C	-1.3592627777	-0.5167686219	-0.2741672381	-0.444505
C	 1.0909371395	-0.7189013996	-0.8096318549	-0.065982
C	 1.26083408	-1.7760189987	 0.2083524028	-0.113964
N	 2.3918246079	-0.8432473877	-0.0597245502	-0.165225
C	 2.135922121	-0.1918204238	 1.2658655566	-0.198276
C	 0.6926062243	-0.7265071231	 1.2560737033	 0.262554
C	-0.0727023341	-0.9814340419	 2.5281546923	-0.518358
H	 1.0246945056	 1.9908281488	 0.0869373791	 0.122278
H	-0.4095529499	 1.9156311712	-0.9319095532	 0.114934
H	-0.5861787247	 1.9536468449	 0.8230218413	 0.112565
H	-1.6856454545	-0.213286369	-1.2752120701	 0.112259
H	-1.3896230186	-1.609941947	-0.2322267231	 0.116461
H	-2.0931988179	-0.1279188651	 0.4404469569	 0.112961
H	 1.1583081632	-0.792593039	-1.888530024	 0.088054
H	 1.3341628252	-2.8549102736	 0.1634319766	 0.091967
H	 2.7586833745	-0.6943397314	 2.0123384335	 0.101251
H	 2.3136043615	 0.8876445308	 1.316363001	 0.092562
H	-0.2992919089	-0.038686892	 3.0409194196	 0.121148
H	-1.0222342664	-1.4931271709	 2.3424449557	 0.121788
H	 0.509718416	-1.5995422118	 3.2201299884	 0.119477
159.3554	175.6571	199.6428	243.4717	265.1163	286.8265	307.5289	354.2368	401.5392	484.37	545.2302	616.7982	628.467	745.3072	783.1452	800.733	842.3443	868.7963	919.3198	945.8532	955.0948	966.2239	990.1598	1009.0808	1014.672	1036.1678	1132.2661	1145.8435	1166.8227	1179.278	1185.1334	1197.5055	1226.4779	1264.9581	1289.5369	1330.3901	1349.6074	1400.3152	1412.5252	1421.5898	1480.8359	1485.927	1488.7621	1495.6819	1504.2494	1507.0669	1526.8643	3023.9183	3024.8541	3029.8314	3039.8176	3082.2349	3085.0278	3089.0312	3089.5867	3099.3709	3102.953	3125.5302	3183.1224	3200.5402
CC1(C)C2C3N2CC13C	CC1(C)[C@@H]2[C@H]3N2C[C@@]13C	
InChI=1S/C8H13N/c1-7(2)5-6-8(7,3)4-9(5)6/h5-6H,4H2,1-3H3	InChI=1S/C8H13N/c1-7(2)5-6-8(7,3)4-9(5)6/h5-6H,4H2,1-3H3/t5-,6+,8+,9?/m0/s1
