19
gdb 38670	2.90056	1.75382	1.28	1.9218	80.27	-0.2412	0.021	0.2622	1011.8304	0.161409	-385.871531	-385.864421	-385.863476	-385.90283	29.169	
C	-0.0065403834	 1.5726215803	-0.0530190177	-0.264329
C	 1.523106107	 1.5396359725	 0.0560708574	-0.057499
O	 2.0337310546	 0.7647537014	-1.0474049964	-0.318498
C	 1.5467719713	 0.0678296837	 0.0965115976	 0.471045
C	 2.3420023541	-0.9500311694	 0.8412343306	-0.345274
C	 1.6898018829	-1.1887126616	 2.2214142803	-0.252789
C	 0.1794425349	-1.1512459171	 2.1992006607	-0.061477
C	-0.5682411927	-0.6317799947	 1.2217075113	-0.067648
C	 0.0155575028	-0.0092668482	-0.0073903295	-0.118959
H	-0.4883785917	 2.0043871046	 0.8274597589	 0.107547
H	-0.4060455279	 2.0324594537	-0.960079246	 0.108221
H	 2.1963737171	 2.2728551926	 0.4861864843	 0.09813
H	 2.3405627372	-1.8861661985	 0.2678723929	 0.112367
H	 3.3849715858	-0.635874309	 0.944308948	 0.110646
H	 2.0293993071	-2.148069072	 2.6297848291	 0.106843
H	 2.0476639499	-0.4281529789	 2.9305688176	 0.11562
H	-0.3139729948	-1.5701192971	 3.0737023336	 0.087227
H	-1.6526612793	-0.6414655691	 1.3112780165	 0.08733
H	-0.3544420851	-0.4847820533	-0.9223314792	 0.081498
134.486	156.0395	284.7751	332.7842	431.3495	460.9791	476.4994	512.5227	638.3506	701.5637	727.8112	772.8775	817.9171	864.4768	881.2656	894.572	942.5676	970.2334	993.6805	1000.4263	1010.547	1024.6139	1065.2751	1085.8436	1134.2115	1153.2314	1181.0457	1219.9238	1227.5611	1255.3727	1264.2321	1272.9747	1337.7547	1344.6935	1363.9899	1416.5164	1459.8023	1474.2785	1482.6397	1497.1786	1709.7402	3003.8915	3024.8501	3045.105	3050.316	3064.6114	3085.9752	3124.3586	3135.8803	3159.4378	3179.3548
C1C2OC22CCC=CC12	C1[C@@H]2O[C@]32CCC=C[C@@H]13	
InChI=1S/C8H10O/c1-2-4-8-6(3-1)5-7(8)9-8/h1,3,6-7H,2,4-5H2	InChI=1S/C8H10O/c1-2-4-8-6(3-1)5-7(8)9-8/h1,3,6-7H,2,4-5H2/t6-,7-,8+/m0/s1
