19
gdb 98220	2.39061	1.16432	0.90143	0.4551	73.41	-0.2486	-0.046	0.2027	1356.3527	0.154951	-460.208575	-460.198129	-460.197185	-460.244969	36.728	
C	 0.8562749254	 1.8741322506	-0.4372972409	-0.381522
C	 0.2670739421	 0.5215384272	-0.0417009924	-0.291417
C	 0.5263026192	-0.5705443796	-1.0474002659	 0.3525
O	 0.9510719641	-0.3746990527	-2.1673105021	-0.325096
C	 0.2049287903	-2.0301295012	-0.6594089981	-0.053014
O	 0.2586823308	-2.8432189883	-1.7923796845	-0.426459
C	 1.1749005215	-2.5034883669	 0.4553997824	 0.333603
C	 2.1891179663	-3.5477855701	 0.0577689505	-0.461925
O	 1.0943652384	-2.0405948299	 1.5693526006	-0.294835
H	 1.9467354854	 1.8231912327	-0.5015683427	 0.129942
H	 0.4845829391	 2.1941118304	-1.4135504016	 0.135602
H	 0.5933762812	 2.6345333823	 0.3025517734	 0.118733
H	 0.6168824566	 0.1750283045	 0.9370259367	 0.164055
H	-0.8265030116	 0.5854606845	 0.0626134999	 0.1342
H	-0.7977334283	-2.0470447376	-0.2072625878	 0.121475
H	 0.5963265279	-2.2651131839	-2.4991127869	 0.296317
H	 2.784073305	-3.1886673962	-0.7887808004	 0.147301
H	 2.8316579424	-3.7727506059	 0.9093099178	 0.138223
H	 1.6809515943	-4.4503414099	-0.2936183881	 0.162315
43.3742	71.0694	78.0671	159.0932	166.6427	203.6014	217.6416	279.5977	354.1852	377.6	451.5858	489.5463	519.8341	559.3037	600.3731	674.2407	753.9946	823.1243	850.2763	981.8886	987.2109	1006.8377	1040.1682	1098.3482	1122.5574	1161.9759	1187.6922	1233.2826	1282.2204	1315.2902	1381.3636	1385.7387	1413.8675	1417.3175	1450.4119	1453.8404	1462.8298	1494.7489	1500.9669	1784.2006	1808.5633	3006.4116	3017.3934	3048.888	3053.1695	3079.8351	3112.8384	3122.6456	3131.5899	3161.4321	3636.8055
CCC(=O)C(O)C(C)=O	CCC(=O)[C@@H](O)C(=O)C	
InChI=1S/C6H10O3/c1-3-5(8)6(9)4(2)7/h6,9H,3H2,1-2H3	InChI=1S/C6H10O3/c1-3-5(8)6(9)4(2)7/h6,9H,3H2,1-2H3/t6-/m0/s1
