16
gdb 12495	3.38707	1.93388	1.3298	2.665	61.2	-0.2391	-0.0259	0.2132	897.8043	0.130938	-420.877321	-420.870071	-420.869127	-420.909582	26.713	
O	 0.1428325626	 0.210036706	 1.0070358277	-0.286187
C	 0.0148380111	 1.1068445308	 0.2088071359	 0.343796
C	-1.3342932017	 1.368605335	-0.4717959872	-0.178789
O	-1.6149868656	 2.7258034176	-0.733855042	-0.243655
C	-1.053356954	 3.2467594939	-1.9249603775	-0.077056
C	 0.4203749494	 3.5990954701	-1.7654594389	-0.077057
O	 1.2190738499	 2.4632517885	-1.4870527711	-0.243656
C	 1.19629607	 2.0166903833	-0.1493568699	-0.178861
H	-1.3669314585	 0.7678038715	-1.3964219498	 0.119714
H	-2.111453361	 0.9928413133	 0.1989621435	 0.138559
H	-1.1742464876	 2.528775556	-2.7509194914	 0.101261
H	-1.6227069437	 4.1509177492	-2.168617634	 0.111133
H	 0.7994536152	 4.0250004467	-2.7013760051	 0.111131
H	 0.5361717923	 4.3523210761	-0.970752312	 0.101258
H	 1.1934333833	 2.8653247075	 0.5554801147	 0.119857
H	 2.1095512684	 1.4412615043	 0.0236515271	 0.13855
37.5649	147.6711	260.639	302.0505	353.8822	428.8281	475.1637	506.3206	550.2002	572.7923	724.4838	845.7388	887.1049	935.4587	996.0946	1014.8836	1054.1737	1132.6093	1149.0664	1186.2933	1204.5617	1273.8024	1275.9076	1323.7607	1326.5194	1355.6768	1371.7822	1403.9974	1411.1765	1454.0733	1455.2401	1482.521	1488.6839	1815.8572	2971.2416	2971.8819	2986.3443	2994.08	3072.169	3072.2828	3100.6258	3101.9299
O=C1COCCOC1	O=C1COCCOC1	
InChI=1S/C5H8O3/c6-5-3-7-1-2-8-4-5/h1-4H2	InChI=1S/C5H8O3/c6-5-3-7-1-2-8-4-5/h1-4H2
