14
gdb 24888	3.38955	1.27557	0.92679	4.0019	84.7	-0.2187	-0.0627	0.156	1170.658	0.102317	-399.590545	-399.58316	-399.582216	-399.62244	28.475	
O	-0.0880573841	-0.06637071	 0.0043476203	-0.399973
C	 0.003976269	 1.1488985398	 0.0092641136	 0.427621
N	-1.1593813083	 1.9447956339	 0.0291618777	-0.43881
C	-1.1992168437	 3.3164713507	 0.0365263238	 0.280135
C	-0.0239367925	 4.0205516107	 0.0238807475	-0.254773
C	 1.1991698373	 3.2977066792	 0.0034473531	-0.040423
C	 1.2250033991	 1.9356527129	-0.0036897029	-0.244509
C	-2.4807873413	 3.9278536913	 0.0571738122	 0.240055
C	-3.5768324922	 4.425158167	 0.0746929787	-0.402883
H	-2.0265628065	 1.4250798465	 0.0384823461	 0.265828
H	-0.0474953251	 5.1005584996	 0.0295723813	 0.118464
H	 2.1318414182	 3.853612235	-0.0066368429	 0.114957
H	 2.1516159685	 1.3757154157	-0.0192616438	 0.122195
H	-4.5402377783	 4.8728702678	 0.0901198453	 0.212113
130.723	142.3703	173.8227	351.9298	421.5397	447.3792	470.9667	542.6699	569.0819	608.0351	645.5325	677.8295	712.0736	720.429	740.6726	817.8905	878.0844	920.9312	1004.8439	1019.3242	1076.28	1167.0412	1214.5849	1231.1227	1348.6781	1433.7465	1461.2803	1583.7876	1642.3483	1785.3091	2230.7976	3177.0449	3219.2684	3240.3815	3497.959	3606.0076
O=C1NC(=CC=C1)C#C	O=c1[nH]c(ccc1)C#C	
InChI=1S/C7H5NO/c1-2-6-4-3-5-7(9)8-6/h1,3-5H,(H,8,9)	InChI=1S/C7H5NO/c1-2-6-4-3-5-7(9)8-6/h1,3-5H,(H,8,9)
