20
gdb 122854	5.37163	0.61621	0.58944	3.3652	73.27	-0.2405	0.0067	0.2472	1896.6039	0.16969	-477.437127	-477.426572	-477.425628	-477.474526	36.091	
C	 0.1960635859	 0.9347794077	 0.5716318793	-0.240214
O	-0.1632973171	-0.1715389395	-0.269572132	-0.226691
C	-1.4158842957	-0.6328824311	-0.1172647655	 0.436946
O	-2.2131157417	-0.1868685893	 0.6704781749	-0.361746
C	-1.7102793933	-1.7675315378	-1.0974004225	-0.296879
N	-2.9356952213	-2.4878248808	-0.8176549381	-0.283996
C	-2.8788989931	-3.3713893178	 0.3548594721	-0.158177
C	-4.1095460441	-4.2763645428	 0.3344531215	-0.05499
O	-4.1941325912	-4.9911597439	-0.8797307691	-0.422377
H	 1.2265319592	 1.1798353583	 0.3154383144	 0.137193
H	-0.4595874939	 1.7887036872	 0.384353479	 0.142982
H	 0.1186990951	 0.6559736716	 1.625317247	 0.143758
H	-1.7581849417	-1.3202865772	-2.0991793887	 0.136651
H	-0.8615969798	-2.4582940772	-1.1122994334	 0.13938
H	-3.6776513696	-1.8075326953	-0.6723876122	 0.230694
H	-1.9819603183	-3.994717565	 0.2558067781	 0.108555
H	-2.8126758004	-2.8267188386	 1.3087310463	 0.103618
H	-4.0540381907	-5.0051738262	 1.1502258622	 0.104236
H	-5.0139519944	-3.6647191908	 0.505690861	 0.079686
H	-3.9287163039	-4.3516940917	-1.5559389843	 0.281368
41.8527	46.2959	72.0208	112.8233	148.3189	169.2641	224.6988	260.9976	300.6253	356.4311	454.9696	521.6807	575.6835	582.1329	689.5669	779.8491	879.414	892.5077	926.1077	986.8632	1009.9338	1043.3458	1095.8975	1140.0555	1178.3425	1183.6309	1204.729	1213.8559	1233.5579	1256.7081	1310.8964	1365.516	1377.6442	1391.1161	1448.5296	1455.1027	1473.0511	1482.1826	1496.4969	1497.6327	1503.4474	1522.5977	1816.214	2941.9263	2993.4865	3028.5928	3054.0762	3058.3296	3070.1695	3090.989	3129.8813	3162.6588	3500.9571	3731.6396
COC(=O)CNCCO	COC(=O)CNCCO	
InChI=1S/C5H11NO3/c1-9-5(8)4-6-2-3-7/h6-7H,2-4H2,1H3	InChI=1S/C5H11NO3/c1-9-5(8)4-6-2-3-7/h6-7H,2-4H2,1H3
