19
gdb 109632	2.06374	1.33733	1.04618	4.5584	77.82	-0.2423	0.0259	0.2682	1245.0442	0.157619	-419.188235	-419.178015	-419.177071	-419.223309	36.451	
C	-0.4125191514	 1.2198422787	-0.3257942966	-0.25179
O	 0.296069094	 0.0365272415	 0.0297181132	-0.243467
C	 0.8633555276	-0.5997862504	-1.0618544305	 0.079621
C	 1.3562750662	-1.997439002	-0.8797132695	-0.109955
C	 1.2982938771	-2.702924043	 0.4550548748	-0.415946
C	 0.0611795816	-1.7507741929	-1.6947662364	 0.083228
N	-1.2471227607	-2.0088863047	-1.1568768993	-0.571547
C	 0.1662917959	-1.9111250778	-3.1249476417	 0.280805
N	 0.2905697557	-2.0423802789	-4.2682306128	-0.350232
H	 0.2549293882	 1.9447352567	-0.8110492301	 0.124497
H	-1.2482893086	 0.9997832629	-1.0018014683	 0.136394
H	-0.7949163863	 1.6491447561	 0.6020797086	 0.13687
H	 1.4020412051	 0.0583703114	-1.7426273046	 0.111764
H	 2.2224205167	-2.2442865425	-1.4871177505	 0.113101
H	 0.4111176539	-2.4252661639	 1.0259737265	 0.125671
H	 1.2979307505	-3.7891438238	 0.3189676008	 0.126272
H	 2.1725026432	-2.4411332387	 1.059199103	 0.13427
H	-1.3744371291	-2.9924835191	-0.9423099849	 0.242214
H	-1.3678315796	-1.4804322996	-0.2995860117	 0.248231
95.3605	111.035	129.4087	154.5986	167.5624	184.4961	223.9559	273.7169	307.3536	336.1558	438.937	493.8231	568.2896	584.5352	588.0502	720.8938	782.2025	845.4064	866.1746	977.806	1023.6731	1031.113	1066.1301	1113.6184	1138.3039	1165.3266	1184.1082	1218.6504	1248.3187	1292.9659	1311.6827	1365.7305	1418.3184	1435.4325	1484.5072	1487.9341	1491.0026	1502.4512	1508.8864	1651.0298	2343.8969	3004.5272	3045.556	3066.7567	3104.0607	3111.9981	3134.0816	3137.692	3156.3549	3504.7966	3588.1526
COC1C(C)C1(N)C#N	CO[C@H]1[C@@H](C)[C@]1(N)C#N	
InChI=1S/C6H10N2O/c1-4-5(9-2)6(4,8)3-7/h4-5H,8H2,1-2H3	InChI=1S/C6H10N2O/c1-4-5(9-2)6(4,8)3-7/h4-5H,8H2,1-2H3/t4-,5+,6-/m1/s1
