18
gdb 34216	3.68583	1.36618	1.34854	4.716	79.91	-0.2714	0.0377	0.3091	1013.0321	0.151863	-364.850243	-364.843602	-364.842658	-364.881118	27.563	
N	 0.0781565101	-1.0979677941	-0.0666347096	-0.355634
C	 0.0279296522	 0.0578691563	-0.021562526	 0.155768
C	-0.0448835228	 1.4806111359	 0.042823026	 0.242571
C	-1.0840019604	 2.2209554829	 0.890735025	-0.280218
C	-0.628838627	 3.6518153069	 0.5258442244	-0.060636
C	 0.8849827187	 3.5939728191	 0.8437645971	-0.227607
C	 1.2071707473	 2.3659152462	-0.0005586867	-0.095268
C	 0.2555092787	 2.3701963433	-1.1703143592	-0.095268
C	-0.6320910388	 3.6009474769	-1.0212417851	-0.227606
H	-2.1090036969	 2.003264009	 0.5771844957	 0.113295
H	-0.9865812632	 1.9981371767	 1.9571252582	 0.113289
H	-1.1902175151	 4.463662155	 0.9855295277	 0.075969
H	 1.4220379545	 4.4850530423	 0.503124093	 0.105586
H	 1.0908103726	 3.4472172426	 1.9083807743	 0.107211
H	 2.1906189047	 1.9205965286	-0.0612048981	 0.107875
H	 0.5133567628	 1.9281134187	-2.1228004933	 0.107874
H	-1.633039563	 3.4597989747	-1.4401489327	 0.107204
H	-0.1859303845	 4.492419719	-1.4736924808	 0.105592
142.5616	162.5776	412.3528	413.5901	426.5566	495.0155	545.9439	568.8111	651.032	684.172	791.969	875.2415	875.923	908.1211	912.7035	917.0455	943.0256	946.6287	959.8683	1008.2359	1026.2877	1071.4802	1076.997	1119.8045	1152.2093	1156.2035	1183.062	1215.8435	1243.0993	1280.3905	1280.5133	1293.2168	1321.1511	1332.7418	1401.4828	1486.5007	1489.5879	1516.0591	2347.6709	3048.4767	3051.44	3059.0042	3094.7099	3097.9792	3106.6812	3133.147	3211.9798	3220.908
N#CC12CC3CC1C2C3	N#C[C@@]12C[C@H]3C[C@@H]1[C@@H]2C3	
InChI=1S/C8H9N/c9-4-8-3-5-1-6(8)7(8)2-5/h5-7H,1-3H2	InChI=1S/C8H9N/c9-4-8-3-5-1-6(8)7(8)2-5/h5-7H,1-3H2/t5-,6+,7-,8-
