18
gdb 24593	4.95279	1.10285	0.93262	1.7198	80.96	-0.1758	0.0395	0.2153	1248.3895	0.149489	-401.95192	-401.944179	-401.943234	-401.984935	29.135	
C	-0.128488737	 1.5545984593	 0.0312264334	-0.234257
C	 1.3692710325	 1.4930181753	-0.3691632897	-0.168092
N	 1.4565953282	 0.1858352767	 0.3149188191	-0.164234
C	-0.0054423408	 0.0556768983	 0.4107727048	-0.166053
C	 2.2597343212	-0.844791382	-0.1068421501	 0.429501
C	 2.102388665	-2.2022177099	-0.14026855	-0.310154
C	 3.3481487111	-2.7201112184	-0.6363971902	-0.157693
C	 4.1501557582	-1.6556407296	-0.872004137	-0.034933
O	 3.4926597729	-0.4905501089	-0.5478339223	-0.189835
H	-0.3203775925	 2.2018899093	 0.8882499115	 0.118123
H	-0.8318669325	 1.7943528835	-0.765831348	 0.113792
H	 1.5324089628	 1.4232999516	-1.4526637969	 0.108041
H	 2.0333430782	 2.2592272786	 0.0399853279	 0.116735
H	-0.3691687491	-0.2484725904	 1.3973177812	 0.112546
H	-0.4234183041	-0.6229107966	-0.3471985866	 0.102473
H	 1.2281317312	-2.7577511486	 0.1559651961	 0.095706
H	 3.6002272037	-3.7568062423	-0.7982571736	 0.10348
H	 5.149786271	-1.5308637557	-1.2504457595	 0.124853
58.481	98.9293	157.8493	185.6097	329.894	450.198	490.2718	603.2601	659.6081	710.4445	732.7358	746.1334	833.3414	847.2529	869.2439	897.0593	926.7185	942.2072	976.8958	1021.8294	1070.391	1089.7735	1128.5617	1138.5156	1151.2332	1184.9375	1205.8417	1222.2127	1257.599	1269.202	1297.645	1326.585	1350.3665	1432.0354	1489.4053	1509.394	1532.4288	1569.6042	1642.4779	2994.1767	3016.9816	3066.1125	3081.2374	3091.6912	3146.6788	3250.4565	3268.8487	3295.6546
C1CN(C1)C1=CC=CO1	C1CN(C1)c1ccco1	
InChI=1S/C7H9NO/c1-3-7(9-6-1)8-4-2-5-8/h1,3,6H,2,4-5H2	InChI=1S/C7H9NO/c1-3-7(9-6-1)8-4-2-5-8/h1,3,6H,2,4-5H2
