17
gdb 51520	5.43438	0.71492	0.70116	0.9828	76.72	-0.2716	0.0136	0.2852	1585.311	0.135773	-418.00721	-417.998352	-417.997408	-418.042888	31.121	
N	 0.6756246549	 0.9390809302	-0.1282751194	-0.436447
C	 0.2925032217	-0.2554754663	-0.0112917853	 0.114904
O	-1.0276929441	-0.5430758475	-0.0261000117	-0.187093
C	-1.4265222699	-1.8756837573	 0.2085653668	 0.15815
C	-2.2198005999	-2.1431510487	 1.5104668703	-0.26395
C	-3.2053902727	-3.0309380512	 0.6757129962	-0.174026
C	-2.644138747	-2.3420759165	-0.6157306841	-0.263898
C	-2.918126711	-4.4552113799	 0.7523427083	 0.273718
N	-2.6755713904	-5.5844717965	 0.810764281	-0.321601
H	 1.6923404053	 0.9821803017	-0.1155872948	 0.233764
H	 0.9300312454	-1.1438760445	 0.0989561931	 0.092336
H	-0.574456492	-2.5568717927	 0.1026463277	 0.103877
H	-1.7012131784	-2.6109833535	 2.3477389731	 0.130216
H	-2.7197064503	-1.2317469696	 1.8445016569	 0.136462
H	-4.2668171721	-2.8712663907	 0.8725156896	 0.133259
H	-3.2656775177	-1.4873606413	-0.8896832082	 0.137935
H	-2.4678215117	-2.9681438558	-1.4904637696	 0.132394
20.9485	53.2033	107.3633	179.1152	200.488	281.2902	368.8138	390.8896	515.5863	555.392	564.9195	759.3699	792.5888	817.9708	823.0329	919.7985	925.4936	979.1336	995.1721	1042.0714	1050.8052	1093.0681	1125.2643	1161.4783	1177.2457	1215.3269	1250.1952	1275.0374	1281.2759	1291.3734	1344.811	1393.8833	1431.8641	1466.6377	1491.4458	1747.9461	2353.3607	3018.6511	3043.4147	3082.6903	3086.2228	3099.9408	3148.9936	3151.5762	3522.3423
N=COC1CC(C1)C#N	[NH][CH]O[C@H]1C[C@@H](C1)C#N	
InChI=1S/C6H8N2O/c7-3-5-1-6(2-5)9-4-8/h4-6,8H,1-2H2	InChI=1S/C6H8N2O/c7-3-5-1-6(2-5)9-4-8/h4-6,8H,1-2H2/t5-,6-
