20
gdb 81619	5.10447	0.81692	0.79644	3.2806	81.57	-0.2299	-0.0206	0.2093	1493.809	0.169248	-403.074104	-403.065259	-403.064314	-403.108418	32.97	
C	-0.5391194394	 1.4836182041	 0.5281117482	-0.444512
C	-0.0695537403	 0.0402801542	 0.5056184231	 0.072025
C	 1.2074587026	-0.4244425347	-0.2633206274	-0.027927
C	 2.0855627645	 0.2408131574	 0.8335195911	-0.254272
C	 0.9418531607	-0.5381801608	 1.5439333505	-0.037967
N	 1.1013001117	-1.6952270254	 0.5624542012	-0.12164
C	 2.2617996374	-2.5681487983	 0.6782727093	-0.251774
C	 1.9084443968	-3.7672007512	 1.5459293045	 0.160982
O	 2.7039376139	-4.3904361116	 2.1989798693	-0.240817
H	 0.2619726607	 2.2079634631	 0.6926593825	 0.11994
H	-1.024961409	 1.7370261423	-0.4203839356	 0.123519
H	-1.2817761636	 1.6262445414	 1.3205736625	 0.124102
H	-0.902338976	-0.6477849732	 0.3393504368	 0.08216
H	 1.3720115146	-0.4637596349	-1.3425652741	 0.07871
H	 3.0986851368	-0.1410846349	 0.9562559397	 0.105656
H	 2.0860814544	 1.3293685271	 0.9046287318	 0.100073
H	 0.7909720419	-0.7110219337	 2.611565775	 0.084481
H	 2.478322261	-2.9677879293	-0.3243895429	 0.129634
H	 3.1978487077	-2.135683316	 1.0588041566	 0.112734
H	 0.8282520834	-4.0327148558	 1.5140626078	 0.084894
51.7771	77.4827	136.43	174.2736	228.7749	297.7277	376.8411	390.9236	456.9646	580.898	610.4279	705.0052	745.2352	791.4493	795.0188	842.2827	887.1762	901.2553	1002.2369	1009.1239	1041.4742	1059.9035	1074.0663	1088.0789	1111.2093	1122.2299	1136.7431	1164.7244	1188.1826	1201.9733	1235.8398	1246.0055	1262.502	1284.2356	1326.1378	1390.4771	1401.4702	1419.0446	1452.9859	1495.4305	1496.7632	1530.94	1837.2707	2891.8847	2991.0292	3030.6055	3037.6986	3077.3176	3083.7053	3088.8887	3093.9092	3101.2941	3122.1419	3143.6789
CC1C2CC1N2CC=O	C[C@H]1[C@H]2C[C@@H]1N2CC=O	
InChI=1S/C7H11NO/c1-5-6-4-7(5)8(6)2-3-9/h3,5-7H,2,4H2,1H3	InChI=1S/C7H11NO/c1-5-6-4-7(5)8(6)2-3-9/h3,5-7H,2,4H2,1H3/t5-,6+,7-
