19
gdb 83593	2.60306	1.68889	1.58308	2.0907	68.89	-0.2468	0.0712	0.318	952.2955	0.162451	-460.172992	-460.165721	-460.164777	-460.204251	29.626	
O	 0.0397282154	 1.3971448785	 0.0364095523	-0.458456
C	 0.0007044252	-0.0163412984	 0.0216287459	 0.134426
C	-1.4064092772	-0.604701217	-0.2053131808	-0.072008
C	-1.5919330462	-0.2722092317	-1.6960975405	-0.113695
O	-0.261193339	-0.3034916299	-2.2616772731	-0.287512
C	 0.6662229483	-0.6083876438	-1.2264128037	 0.168084
O	 0.8922665925	-1.9890115753	-1.0744820821	-0.262095
C	-0.3085529656	-2.7523631754	-0.953283404	-0.072087
C	-1.3154199229	-2.1269830636	 0.0257890747	-0.242472
H	-0.0577309997	 1.7036574426	-0.8723720387	 0.291762
H	 0.4676392349	-0.3609443588	 0.9458922157	 0.093013
H	-2.1636575242	-0.1367746401	 0.4268532184	 0.080614
H	-2.2244613982	-0.9925507351	-2.2257451357	 0.109055
H	-2.0166673082	 0.7277639585	-1.842460433	 0.104058
H	 1.6283497532	-0.163884292	-1.4889083888	 0.094443
H	-0.7674880431	-2.8610295232	-1.9452326151	 0.109098
H	 0.0025328058	-3.7459721307	-0.6216011851	 0.11182
H	-1.0048560839	-2.3165470084	 1.0594010231	 0.109285
H	-2.2927092371	-2.6038712363	-0.1115698193	 0.102667
189.6047	205.1027	269.2944	310.3163	334.6275	363.1205	433.956	460.9464	536.0064	648.4815	765.7251	797.2443	824.5158	861.1784	896.3283	910.4888	955.9411	985.3122	997.3754	1013.573	1053.0984	1065.6963	1109.5583	1118.7311	1124.3478	1186.7968	1215.241	1257.3388	1259.2629	1267.0077	1302.9228	1324.3128	1332.2738	1357.2352	1378.3602	1393.3197	1412.9185	1430.3423	1486.9533	1509.2266	1531.5793	3016.0277	3029.2189	3034.6242	3068.6449	3076.5287	3095.2112	3099.3101	3102.1556	3109.7613	3800.7981
OC1C2COC1OCC2	O[C@H]1[C@H]2CO[C@@H]1OCC2	
InChI=1S/C6H10O3/c7-5-4-1-2-8-6(5)9-3-4/h4-7H,1-3H2	InChI=1S/C6H10O3/c7-5-4-1-2-8-6(5)9-3-4/h4-7H,1-3H2/t4-,5+,6+/m1/s1
