16
gdb 71869	3.11737	1.59056	1.29414	3.1039	68.17	-0.2359	0.0203	0.2562	970.2776	0.126112	-437.890014	-437.883059	-437.882115	-437.921082	28.332	
O	-0.099038446	 1.381856163	-0.0415590006	-0.457766
C	-0.0052857339	 0.0090701352	-0.0537280617	 0.396042
C	 0.7819906381	-0.8245211667	-1.0625641386	-0.315378
C	-0.2161491707	-1.9957762089	-0.7452809333	-0.03889
N	 0.2617788696	-2.8363921743	 0.3448281137	-0.308555
C	 0.3952749533	-2.0776676114	 1.50273844	 0.404369
O	 0.9850968886	-2.4027847785	 2.5079549659	-0.379871
C	-0.3494300059	-0.8013142202	 1.2241695249	-0.244461
C	-1.1487823292	-0.9601290119	-0.0479265044	-0.124397
H	 0.6549261973	 1.7385845633	 0.4417411119	 0.293986
H	 0.6269141047	-0.4291646213	-2.0700885387	 0.116259
H	 1.8466950498	-1.0178579055	-0.8924449036	 0.09624
H	-0.5987079997	-2.5729893477	-1.5841013306	 0.094748
H	 0.957163943	-3.5494551248	 0.1761637581	 0.246389
H	-0.7329600457	-0.2147632398	 2.048135831	 0.112498
H	-2.2175878833	-0.8323838908	-0.1492803538	 0.108786
156.0379	211.3767	283.8021	341.3757	430.2143	448.2121	483.898	549.3889	588.7113	638.1201	694.1782	724.2489	814.2547	858.9248	875.6688	901.605	922.8679	948.7543	993.3757	1002.5708	1025.0099	1076.7026	1131.9453	1161.3018	1165.0396	1207.652	1227.501	1269.9584	1285.0359	1302.809	1347.2794	1396.751	1440.4661	1496.8603	1832.9466	3040.2987	3106.9787	3138.6985	3211.8196	3220.1022	3609.7215	3794.2489
OC12CC3NC(=O)C1C23	O[C@@]12C[C@H]3NC(=O)[C@@H]1[C@@H]23	
InChI=1S/C6H7NO2/c8-5-4-3-2(7-5)1-6(3,4)9/h2-4,9H,1H2,(H,7,8)	InChI=1S/C6H7NO2/c8-5-4-3-2(7-5)1-6(3,4)9/h2-4,9H,1H2,(H,7,8)/t2-,3+,4+,6-/m1/s1
