15
gdb 128446	4.68045	1.06441	0.87195	2.9535	69.94	-0.2586	-0.0231	0.2355	1267.6006	0.11413	-453.996301	-453.988213	-453.987269	-454.029765	28.518	
C	 0.036257955	 1.3307494679	 0.0092945173	-0.239535
O	-0.0257740614	-0.0989190399	 0.0027354796	-0.223159
C	-1.2668827591	-0.6128200004	 0.0099335229	 0.39877
O	-2.2761645469	 0.0536980986	 0.0210348346	-0.383419
C	-1.2740299786	-2.0897099592	 0.0027740348	 0.215691
N	-0.1617952164	-2.8303326287	-0.0090524687	-0.277372
N	-0.6122189319	-4.0886553706	-0.0118104033	-0.173233
C	-1.9694237263	-4.1826744574	-0.0022829179	-0.022932
C	-2.439919374	-2.8916512811	 0.0074982095	-0.260801
H	 1.0973689963	 1.5798478147	 0.0023507667	 0.132979
H	-0.4601223015	 1.7441852657	-0.8726603341	 0.138815
H	-0.4464602655	 1.7354500069	 0.902807209	 0.13882
H	 0.0562349512	-4.841495767	-0.0203556199	 0.281827
H	-2.4712467916	-5.1369985538	-0.0032394574	 0.142229
H	-3.4607996793	-2.5506411258	 0.0167153369	 0.131319
68.433	111.8909	133.5034	155.2023	247.7206	318.4795	395.9346	502.4007	562.0717	643.2149	696.6199	774.4092	813.3936	815.5756	879.4669	945.7227	964.0015	1019.4515	1071.9674	1097.8687	1178.9903	1192.8499	1217.1489	1224.6477	1335.1158	1402.602	1459.1298	1473.4097	1481.752	1494.6873	1507.4665	1562.1245	1796.0528	3049.2572	3121.7214	3158.1656	3265.8264	3295.0361	3663.7688
COC(=O)C1=NNC=C1	COC(=O)c1n[nH]cc1	
InChI=1S/C5H6N2O2/c1-9-5(8)4-2-3-6-7-4/h2-3H,1H3,(H,6,7)	InChI=1S/C5H6N2O2/c1-9-5(8)4-2-3-6-7-4/h2-3H,1H3,(H,6,7)
