25
gdb 65259	3.09743	1.02381	0.99286	0.0977	92.01	-0.2574	0.0795	0.3369	1394.5933	0.230481	-352.366208	-352.35667	-352.355726	-352.401254	36.728	
C	 0.2780105414	 1.465349357	 0.4967616182	-0.476884
C	 0.038858945	 0.0549738788	-0.015593061	 0.386857
C	 0.8083537565	-0.3616588429	-1.249370948	-0.311531
C	 1.1915500927	-0.9173961823	 0.10152866	-0.311528
C	-1.3622749315	-0.5203586344	 0.1451667246	-0.014618
C	-1.8919357817	-0.6365256584	 1.5884727298	-0.216522
C	-3.3972376136	-0.942837558	 1.4206983144	-0.206639
C	-3.7930247425	-0.3690892123	 0.024863931	-0.206641
C	-2.5006647869	 0.2463300546	-0.5572479916	-0.216514
H	 1.3167374226	 1.7641644918	 0.3250491923	 0.110228
H	-0.3590145133	 2.1981194056	-0.0103616933	 0.116686
H	 0.0900650079	 1.5468413017	 1.5728485517	 0.116686
H	 0.3249685045	-1.0286581207	-1.9558849177	 0.104863
H	 1.4705093975	 0.3636615242	-1.7107357602	 0.104694
H	 2.1133322458	-0.5685860262	 0.555452036	 0.104694
H	 0.9666009113	-1.959168584	 0.3060228476	 0.104864
H	-1.3439739483	-1.5361774359	-0.2780041992	 0.058614
H	-1.363846845	-1.3938230457	 2.1752701642	 0.090763
H	-1.7598638231	 0.3207604279	 2.106469468	 0.094799
H	-3.571688069	-2.0231457142	 1.4493084252	 0.096337
H	-3.9924823826	-0.5111752866	 2.2301287136	 0.094461
H	-4.1588954696	-1.1710712769	-0.6242049056	 0.096335
H	-4.5989891291	 0.3668823576	 0.0926355945	 0.094446
H	-2.4422014565	 1.3099564894	-0.2975355428	 0.094793
H	-2.4483026427	 0.1794985996	-1.6478918318	 0.090758
39.3088	65.585	134.0348	176.2614	211.1558	285.0827	301.2068	340.6737	454.2601	474.5155	504.8291	626.6042	743.4043	783.7138	798.9029	820.1145	865.1068	875.4841	891.3954	922.2572	952.7962	966.9324	971.3474	979.4587	1003.2407	1037.1082	1055.0877	1070.4816	1076.6807	1097.1818	1126.37	1177.5999	1188.784	1204.9305	1232.5631	1256.4077	1284.1491	1299.8246	1321.7384	1328.7409	1335.1532	1348.1439	1348.3914	1408.5108	1425.2741	1468.9296	1486.6018	1494.2	1495.4091	1495.7715	1501.2192	1509.7266	1519.8089	2983.9422	3028.5838	3033.5938	3040.8645	3041.3144	3054.7438	3072.4508	3084.8577	3087.6031	3092.8863	3098.1332	3103.5532	3122.8596	3127.7359	3199.6066	3214.2025
CC1(CC1)C1CCCC1	CC1(CC1)C1CCCC1	
InChI=1S/C9H16/c1-9(6-7-9)8-4-2-3-5-8/h8H,2-7H2,1H3	InChI=1S/C9H16/c1-9(6-7-9)8-4-2-3-5-8/h8H,2-7H2,1H3
