14
gdb 129568	3.27166	1.1905	0.99126	2.8753	67.25	-0.2711	-0.0308	0.2403	1154.8803	0.102185	-432.857197	-432.849254	-432.84831	-432.890886	28.371	
N	-0.0594099291	 1.5027605929	 0.0128640817	-0.493161
C	-0.0424271006	 0.045900592	 0.0310064439	-0.226791
C	 0.5964899944	-0.5647377916	-1.1635211999	 0.253201
N	 1.0760388854	-0.9998113025	-2.1213094606	-0.319075
C	 0.6391124778	-0.4775488258	 1.2752510316	 0.42193
N	 1.4364521742	 0.3034858977	 1.9608208241	-0.191424
O	 1.9110673008	-0.4691232735	 3.0080861481	-0.160623
C	 1.3812044868	-1.6977468292	 2.9163706681	 0.092666
C	 0.5621746141	-1.7824741392	 1.8391241083	-0.337129
H	 0.8724811062	 1.8608114771	 0.1980744325	 0.263508
H	-0.3488555179	 1.8366769216	-0.9002940114	 0.247946
H	-1.0804750793	-0.3116634329	 0.0413624376	 0.147974
H	 1.6757322445	-2.3949819851	 3.6850479374	 0.163542
H	-0.0043435271	-2.6308551815	 1.4938519586	 0.137434
31.0535	107.0898	194.4594	223.7005	273.7164	320.5897	418.2458	466.4575	594.6014	614.5479	680.0519	781.6312	805.8685	845.265	877.0286	923.3327	941.8414	965.6815	1011.5172	1077.1786	1122.5906	1155.1199	1190.5549	1279.2542	1327.307	1387.5262	1456.3832	1484.6435	1608.2024	1652.7362	2345.4514	3027.7593	3267.3007	3289.967	3509.3892	3595.9896
NC(C#N)C1=NOC=C1	N[C@@H](C#N)c1nocc1	
InChI=1S/C5H5N3O/c6-3-4(7)5-1-2-9-8-5/h1-2,4H,7H2	InChI=1S/C5H5N3O/c6-3-4(7)5-1-2-9-8-5/h1-2,4H,7H2/t4-/m0/s1
