16
gdb 26615	2.32782	1.87419	1.04382	6.0894	77.23	-0.1889	-0.004	0.1849	1079.7223	0.127576	-434.126738	-434.118674	-434.11773	-434.158794	31.485	
N	 0.0257423208	 1.4252099803	 0.0885361731	-0.614639
C	 0.0347493076	 0.0095213684	 0.0159586452	 0.076334
C	-1.2416737183	-0.6927317802	 0.0885301533	 0.341705
O	-2.3055817747	-0.0725908578	 0.1944267598	-0.433168
C	-1.1378973826	-2.1466956139	 0.046523023	-0.248828
C	 0.0627318581	-2.7618221108	-0.0511522708	 0.010391
N	 1.2289611165	-2.0418373508	-0.077052111	-0.387888
C	 1.2202646977	-0.6675807249	-0.0281685906	 0.340182
N	 2.4584940961	-0.0252292797	-0.0786023649	-0.587886
H	 3.1720167807	-0.4821477002	 0.4788240223	 0.244064
H	 2.3472055954	 0.937083975	 0.2275476542	 0.266632
H	 0.2800271904	 1.8491602106	-0.8000020635	 0.240487
H	-0.9412954614	 1.6886695511	 0.2786886354	 0.254434
H	-2.0512152667	-2.7271162028	 0.0768893351	 0.108636
H	 0.1830241867	-3.8366487129	-0.1081839065	 0.128962
H	 2.1001368236	-2.5131150214	-0.2568967841	 0.260582
144.866	203.8813	237.6619	267.5697	290.3586	344.1933	383.2352	418.3911	499.8664	520.4727	529.9874	571.622	618.7667	700.2003	739.9509	815.4801	832.4474	866.736	928.8881	940.819	1007.7686	1071.6159	1138.2132	1217.1557	1233.4709	1283.5208	1326.909	1394.7329	1432.4027	1562.5336	1626.6517	1640.8099	1653.3515	1701.4231	1708.9375	3203.0664	3222.9865	3453.9975	3494.9865	3528.9035	3589.7157	3650.817
NC1=C([O-])C=CNC1=[NH2+]	Nc1c(=O)cc[nH]c1N	
InChI=1S/C5H7N3O/c6-4-3(9)1-2-8-5(4)7/h1-2H,6H2,(H3,7,8,9)	InChI=1S/C5H7N3O/c6-4-3(9)1-2-8-5(4)7/h1-2H,6H2,(H3,7,8,9)
