21
gdb 87129	2.32408	1.46528	1.16929	1.3293	78.81	-0.2377	0.0696	0.3073	1159.5389	0.18029	-424.186715	-424.177143	-424.176199	-424.220642	37.672	
C	 0.0781004776	 1.4729347352	-0.2931154024	-0.489509
C	-0.0175579778	-0.0210138875	-0.0322630189	 0.325298
C	 1.0857748202	-0.8884467122	-0.6013064011	-0.310859
C	 1.0357041303	-0.6085347341	 0.8812420263	-0.293887
C	-1.4014527933	-0.6392220669	 0.0477865484	 0.292683
O	-1.4282066646	-1.9545399969	 0.5557099416	-0.456684
C	-2.6132676678	 0.1562020619	 0.4741979323	-0.372029
C	-2.5034452692	-0.3641945413	-0.9463996752	 0.043237
O	-2.280197814	 0.5056414253	-2.0174690872	-0.418363
H	 1.1289924141	 1.770203317	-0.3611450964	 0.106796
H	-0.4213078932	 1.752109969	-1.2222358094	 0.139203
H	-0.3677087256	 2.0485250423	 0.5261805327	 0.110995
H	 0.8485136508	-1.8950894626	-0.9310100159	 0.089208
H	 1.8478537222	-0.4045205613	-1.2025020312	 0.109724
H	 1.768310091	 0.0724351005	 1.3014400843	 0.102779
H	 0.7390731304	-1.4219798312	 1.5307805928	 0.123569
H	-1.1591316645	-2.550160945	-0.1523201064	 0.283252
H	-3.3119744006	-0.3284483843	 1.1463638607	 0.121087
H	-2.4896717946	 1.2233357149	 0.6165735183	 0.117803
H	-3.1187465166	-1.2320678148	-1.1871138364	 0.086917
H	-3.069940945	 1.0453818717	-2.1306055671	 0.28878
42.3092	183.845	224.3038	250.2654	262.4107	293.887	318.8716	346.909	356.1079	372.1266	429.248	455.0028	472.4701	582.8475	602.6051	785.426	809.3253	841.8702	865.6394	912.2662	919.1181	953.2965	962.6122	989.1251	1037.9464	1042.1582	1070.9116	1080.8136	1098.941	1127.5255	1174.375	1188.7546	1195.6594	1248.6286	1289.5957	1313.6605	1336.8838	1374.0501	1410.8202	1416.2781	1462.0961	1478.6956	1496.4706	1502.8534	1518.2708	3034.8928	3090.4704	3093.811	3126.1464	3137.7575	3140.0165	3141.9279	3204.8115	3235.9175	3236.3605	3797.825	3800.8209
CC1(CC1)C1(O)CC1O	CC1(CC1)[C@@]1(O)C[C@H]1O	
InChI=1S/C7H12O2/c1-6(2-3-6)7(9)4-5(7)8/h5,8-9H,2-4H2,1H3	InChI=1S/C7H12O2/c1-6(2-3-6)7(9)4-5(7)8/h5,8-9H,2-4H2,1H3/t5-,7-/m1/s1
