19
gdb 90226	2.69802	1.69901	1.52123	1.3474	73.65	-0.2398	0.0352	0.2751	976.6463	0.158923	-422.934953	-422.927169	-422.926225	-422.966893	30.794	
C	-0.5265548571	 1.4232820113	-0.0068412102	-0.397834
C	-0.024074222	-0.0109466718	-0.0558748389	-0.052532
C	 1.158730111	-0.3156594871	-1.0739980523	-0.32074
C	 2.046948227	-0.7018444347	 0.1366358873	 0.320726
C	 2.8350576607	 0.3425078432	 0.9541983858	-0.151752
O	 1.6729126727	 0.5409803684	 1.8382642406	-0.33634
C	 0.9369191541	-0.4525155691	 1.095571624	 0.310135
C	 1.1121191132	-1.9299874795	 1.5044624712	-0.15489
O	 2.186320296	-2.0880276663	 0.5091025466	-0.336065
H	 0.2908535136	 2.1205310886	 0.1983416925	 0.128156
H	-0.9869579375	 1.7021826227	-0.9603938297	 0.113765
H	-1.2742906802	 1.5526827944	 0.7823948047	 0.122067
H	-0.8639195104	-0.7020831688	-0.1752385838	 0.078853
H	 0.9730992712	-1.1483283313	-1.7542124387	 0.119746
H	 1.5025540795	 0.5480705873	-1.6501365089	 0.105514
H	 3.6978646784	-0.0548324281	 1.4981018349	 0.118822
H	 3.1080160503	 1.2706061398	 0.4390747161	 0.107806
H	 1.4743550181	-2.0855495143	 2.5257391781	 0.117425
H	 0.2720712215	-2.6027980645	 1.2964008707	 0.107139
101.7293	211.2707	225.7703	245.8558	308.0608	348.1329	370.4065	429.8442	548.2798	670.5293	712.2425	726.7511	802.0766	848.2145	874.5044	889.9279	901.3118	922.5023	957.1473	963.608	1025.0561	1057.4976	1131.4501	1137.6947	1138.3035	1184.5735	1188.2205	1209.4741	1239.8037	1249.3227	1263.79	1277.6254	1323.4193	1342.9176	1348.4948	1411.061	1460.1489	1488.5626	1494.0557	1499.2641	1501.6851	3025.9415	3028.1705	3035.0805	3054.8894	3061.0534	3087.4836	3090.1978	3101.735	3113.4967	3130.2796
CC1CC23COC12CO3	C[C@H]1C[C@@]23CO[C@@]12CO3	
InChI=1S/C7H10O2/c1-5-2-6-3-9-7(5,6)4-8-6/h5H,2-4H2,1H3	InChI=1S/C7H10O2/c1-5-2-6-3-9-7(5,6)4-8-6/h5H,2-4H2,1H3/t5-,6+,7-/m0/s1
