23
gdb 105266	1.98587	1.45413	1.07943	1.0304	86.12	-0.2395	0.0905	0.33	1280.8228	0.203983	-388.254191	-388.24408	-388.243136	-388.289373	37.741	
C	-0.4686691335	 2.0699436789	-3.7191917875	-0.248094
O	-0.0051209871	 1.6565081505	-2.4504105117	-0.279285
C	 0.398655888	 0.3102730762	-2.3857983508	 0.411935
C	 1.7736660951	 0.0024642628	-2.9407016257	-0.352733
C	 1.549989514	 0.074036884	-1.4421247714	-0.061337
C	 2.1420459564	 1.2025598052	-0.6275429121	-0.402088
C	-0.7211329523	-0.6798466867	-2.55692963	-0.065262
C	-0.9169114751	-1.8723897984	-1.6510355538	-0.27453
C	-1.8572482253	-0.7010729655	-1.5626283147	-0.254407
H	 0.2771716804	 1.8827883625	-4.505573568	 0.103474
H	-1.4055894867	 1.5700089046	-4.0015073691	 0.109254
H	-0.6542125646	 3.1450635672	-3.654528273	 0.122636
H	 1.9459837192	-0.966290216	-3.3979714799	 0.107471
H	 2.3134567763	 0.8257871076	-3.3977142115	 0.110175
H	 1.5452516284	-0.8867943689	-0.9365458818	 0.082015
H	 2.0637006967	 2.1511967128	-1.1618003687	 0.128822
H	 1.6195898156	 1.316945296	 0.3285583153	 0.113876
H	 3.1984278244	 1.0099846158	-0.4106596008	 0.110008
H	-1.0059347678	-0.8483994448	-3.5928486454	 0.084253
H	-1.274475017	-2.7908286218	-2.1036472126	 0.109291
H	-0.2247514665	-2.025461589	-0.8312817682	 0.115364
H	-1.7658919533	-0.0471358106	-0.7026720538	 0.121732
H	-2.8696403751	-0.8134172923	-1.9343195848	 0.10743
48.6661	106.9686	138.0793	173.0881	193.6749	200.5624	229.7637	286.1958	328.6921	422.553	458.0565	483.747	582.6226	644.9961	782.4466	799.5111	837.3819	882.3865	894.3967	921.3008	942.9217	959.331	1003.7108	1036.78	1058.3771	1071.2703	1082.2156	1106.1692	1133.1856	1143.8165	1146.5317	1181.4881	1194.9363	1199.4887	1208.8977	1229.3823	1255.8844	1293.3352	1388.4982	1405.9113	1428.3679	1471.0046	1473.0633	1481.1506	1489.257	1494.9167	1503.7404	1505.7562	1510.4831	2988.6899	3034.0253	3040.2659	3089.4541	3111.2228	3123.1139	3125.6185	3129.7514	3134.4089	3139.5537	3154.5768	3212.081	3212.8322	3227.85
COC1(CC1C)C1CC1	CO[C@]1(C[C@H]1C)C1CC1	
InChI=1S/C8H14O/c1-6-5-8(6,9-2)7-3-4-7/h6-7H,3-5H2,1-2H3	InChI=1S/C8H14O/c1-6-5-8(6,9-2)7-3-4-7/h6-7H,3-5H2,1-2H3/t6-,8+/m1/s1
