19
gdb 68014	2.91735	1.51817	1.19655	2.7312	75.64	-0.247	-0.0158	0.2312	1076.0955	0.159148	-423.048211	-423.040136	-423.039192	-423.080178	32.603	
C	-0.0218029526	 1.5098566539	 0.0015786952	-0.488962
C	 0.0255843784	 0.0003535937	 0.0267420417	 0.320824
C	 0.9924606352	-0.8093112077	-0.8949061768	-0.326422
C	 0.7404618878	-1.9398408769	 0.1614576962	 0.341196
O	 1.5164960172	-3.06568703	 0.2961871908	-0.488098
C	 0.6616674608	-0.7844614514	 1.218071597	-0.326395
C	-0.7365479063	-2.1847507416	-0.067072027	 0.377131
O	-1.2581170663	-3.2693224882	-0.134928009	-0.359518
C	-1.3070552437	-0.7681218493	-0.1727411491	-0.377004
H	 0.9744284497	 1.9380404617	 0.152440421	 0.118364
H	-0.403345055	 1.8778501251	-0.9574997807	 0.119901
H	-0.6767359581	 1.8983886632	 0.7895700937	 0.1199
H	 0.7008911791	-0.98957101	-1.933894148	 0.100914
H	 2.0213769322	-0.4458421968	-0.8426561876	 0.111838
H	 0.9112019759	-3.8196324714	 0.2101762409	 0.290813
H	 1.658624939	-0.4185705118	 1.4744084745	 0.111856
H	 0.0659108802	-0.9418771721	 2.1221165642	 0.100935
H	-2.0510081509	-0.5721487462	 0.6067390187	 0.126386
H	-1.7768974425	-0.5925655145	-1.1463348957	 0.126341
138.1902	213.6143	246.9693	247.5061	276.015	389.3469	398.9972	445.9393	485.6092	510.5945	551.7219	627.6193	637.2636	696.8695	780.3235	799.5039	883.7422	918.8811	962.2283	965.3698	992.9944	1031.6107	1051.2954	1080.3904	1105.0137	1142.7453	1160.1637	1175.786	1209.276	1224.9958	1257.1829	1335.2768	1372.009	1412.7892	1417.9862	1459.2042	1483.4239	1492.9747	1493.7852	1527.327	1855.3947	3026.5547	3047.4456	3051.2363	3056.7015	3090.4903	3094.496	3099.0591	3119.3759	3122.8766	3691.7545
CC12CC(O)(C1)C(=O)C2	C[C@@]12C[C@@](O)(C1)C(=O)C2	
InChI=1S/C7H10O2/c1-6-2-5(8)7(9,3-6)4-6/h9H,2-4H2,1H3	InChI=1S/C7H10O2/c1-6-2-5(8)7(9,3-6)4-6/h9H,2-4H2,1H3/t6-,7-
