17
gdb 78704	5.44361	1.10139	1.09356	2.9716	73.08	-0.2556	0.0749	0.3305	1126.1338	0.135622	-421.715355	-421.708177	-421.707233	-421.746767	28.77	
O	-0.0263282847	 1.4770460277	-0.1047858243	-0.43981
C	 0.0375680741	 0.0730473361	-0.0344071863	 0.094757
C	 0.0497823474	-0.5981232484	 1.355556863	-0.086401
C	-1.4754678392	-0.2769132919	 1.5860396035	-0.169994
C	-1.3286650145	-0.6101909685	 0.0510429525	-0.048426
C	-0.7134404294	-1.8544717246	 0.796131246	-0.187491
C	-1.7476193034	-1.7386007843	 1.9068320636	 0.525993
C	-2.0847118344	-2.504198235	 3.0988249346	-0.305309
O	-2.9968851072	-2.3829581161	 1.9799445257	-0.294487
H	 0.8682363812	 1.8259741405	-0.0435366741	 0.284015
H	 0.7403159775	-0.3399331426	-0.7728724933	 0.065157
H	 0.8254817593	-0.6122285473	 2.1226525371	 0.072576
H	-1.8915055893	 0.6311149246	 2.0154584687	 0.089825
H	-2.1347709846	-0.6332026601	-0.6811441265	 0.087842
H	-0.2682198412	-2.7341021414	 0.3327622202	 0.080186
H	-1.6699482643	-3.5003816662	 3.2480409852	 0.115113
H	-2.4016286273	-1.9947409924	 4.0079647144	 0.116453
139.3689	168.0442	264.2793	283.272	358.4194	379.8939	473.0936	601.7609	621.0116	740.6595	816.3013	830.2435	837.4429	868.1247	881.5715	909.6973	922.5138	970.6191	992.8822	1023.4901	1090.7361	1105.9917	1110.6236	1115.254	1119.272	1137.5802	1155.4255	1162.4882	1171.4851	1190.1287	1212.7409	1238.9936	1291.4805	1315.1083	1434.55	1467.3229	1557.8059	2995.6848	3080.6042	3101.9572	3122.28	3130.6135	3152.9693	3165.3877	3821.9714
OC1C2C3C1C2C31CO1	O[C@H]1[C@H]2[C@H]3[C@@H]1[C@@H]2[C@]13CO1	
InChI=1S/C7H8O2/c8-6-2-4-3(6)5(2)7(4)1-9-7/h2-6,8H,1H2	InChI=1S/C7H8O2/c8-6-2-4-3(6)5(2)7(4)1-9-7/h2-6,8H,1H2/t2-,3+,4-,5+,6-,7-/m1/s1
