17
gdb 38130	2.79083	2.12828	1.85487	1.2024	70.23	-0.2389	-0.0015	0.2374	823.5166	0.139446	-421.802216	-421.796271	-421.795327	-421.83216	25.511	
C	-0.0183059081	 1.5582761154	 0.0122045371	-0.072558
O	 1.3591249143	 1.9662851296	 0.0192706293	-0.26488
C	 2.0981716081	 0.9204795709	 0.5955433252	 0.095177
C	 2.6766622346	-0.2385602434	-0.3080305737	-0.010484
O	 2.1494921787	-1.1971241443	 0.6745356804	-0.296128
C	 1.1720906619	-0.2144661955	 1.0431152952	 0.066755
C	 0.0308475178	 0.0161620912	-0.0121547899	-0.15193
C	 0.5367197671	-0.3985276525	-1.3784063901	-0.055814
C	 1.8574763429	-0.425274896	-1.5607236763	-0.04725
H	-0.5269481721	 1.9305048355	 0.9156018159	 0.093207
H	-0.502349173	 1.993569192	-0.866078041	 0.114977
H	 2.8173962922	 1.3042971895	 1.3210605148	 0.092498
H	 3.7561893727	-0.3332886077	-0.433303836	 0.075901
H	 0.8154136311	-0.3327583615	 2.068432864	 0.084792
H	-0.9253381128	-0.4406700004	 0.2528407985	 0.077623
H	-0.1773893953	-0.5962438174	-2.1716405139	 0.098894
H	 2.3293980102	-0.6470779853	-2.5109221196	 0.09922
231.36	296.1126	377.8159	433.0806	489.5574	621.6197	672.8074	683.804	697.2414	762.681	803.8531	848.0899	869.9231	906.8765	939.7273	951.9857	970.3172	990.397	1003.4334	1022.338	1063.3822	1078.158	1113.455	1136.4894	1191.805	1207.8911	1226.002	1229.5488	1267.5665	1306.3536	1316.2713	1335.6125	1350.1107	1388.0217	1398.8137	1514.4446	1685.9813	2979.8562	3082.5834	3091.296	3091.9664	3098.7934	3108.9804	3171.9486	3201.2129
C1OC2C3OC2C1C=C3	C1O[C@@H]2[C@H]3O[C@@H]2[C@@H]1C=C3	
InChI=1S/C7H8O2/c1-2-5-7-6(9-5)4(1)3-8-7/h1-2,4-7H,3H2	InChI=1S/C7H8O2/c1-2-5-7-6(9-5)4(1)3-8-7/h1-2,4-7H,3H2/t4-,5+,6-,7-/m1/s1
