21
gdb 73451	2.20368	1.86984	1.52874	1.708	81.69	-0.2309	0.0865	0.3175	1020.2939	0.183186	-387.074517	-387.066235	-387.065291	-387.10669	32.887	
C	-0.0272772295	 1.4410972061	 0.0555369266	-0.4981
C	-0.0055621892	-0.0658846553	-0.0155556377	 0.265241
C	 1.0129896128	-0.7362504415	-0.93825307	-0.149163
O	 0.4336791987	-1.9868706708	-1.3208298488	-0.264168
C	-0.6098904108	-2.2426292657	-0.3938776477	 0.028835
C	-0.0803190831	-2.3334633237	 1.0736224112	-0.260132
C	-0.4316954119	-0.8538534227	 1.2242869033	-0.169354
C	-1.2719908941	-0.8772436703	-0.053315072	 0.306265
C	-2.6622375374	-0.4212267186	-0.3763669805	-0.526422
H	 0.9226485132	 1.831563336	 0.4384706898	 0.121669
H	-0.1943702772	 1.8850191663	-0.9325842955	 0.11986
H	-0.8177116028	 1.7998889715	 0.7219238443	 0.119766
H	 1.1897527508	-0.1416621685	-1.8434414641	 0.09803
H	 1.9829607512	-0.8969498148	-0.4452538375	 0.093302
H	-1.2177116639	-3.0637955437	-0.7735693728	 0.079409
H	-0.7220001787	-2.9636346006	 1.6964476807	 0.098805
H	 0.9613495096	-2.6505366301	 1.1923138044	 0.09436
H	-0.6388720947	-0.3346560463	 2.1544250382	 0.076849
H	-2.8501882347	 0.5890175469	 0.0016598455	 0.120268
H	-2.8301097897	-0.4050899526	-1.459952936	 0.125201
H	-3.4170474183	-1.0819275217	 0.0652371688	 0.119477
174.7078	186.5424	198.8873	212.3709	227.0751	307.5099	320.6492	425.5856	485.6784	554.246	639.9543	675.0455	707.7977	776.7577	850.9708	878.9758	914.8852	942.8798	954.2323	979.1465	1000.7339	1013.7286	1058.9899	1079.42	1114.813	1126.409	1133.4137	1162.3587	1186.4389	1217.407	1226.6792	1250.4337	1279.2867	1287.53	1347.3306	1380.8505	1411.8192	1422.2747	1454.4777	1484.3597	1490.1822	1491.9549	1496.5547	1508.0999	1526.5492	2992.0791	3020.8102	3024.9304	3037.5822	3039.4888	3078.4044	3082.68	3092.1521	3092.9796	3100.394	3120.3266	3161.7494
CC12COC3CC1C23C	C[C@@]12CO[C@H]3C[C@@H]1[C@@]23C	
InChI=1S/C8H12O/c1-7-4-9-6-3-5(7)8(6,7)2/h5-6H,3-4H2,1-2H3	InChI=1S/C8H12O/c1-7-4-9-6-3-5(7)8(6,7)2/h5-6H,3-4H2,1-2H3/t5-,6-,7+,8+/m0/s1
