13
gdb 24789	3.78136	1.2252	0.92537	4.1366	77.75	-0.2365	-0.0759	0.1606	1149.9639	0.092209	-411.833945	-411.826664	-411.82572	-411.866011	26.853	
N	-0.0721734957	 1.3177433035	 0.1623562052	-0.524811
C	-0.0098796364	 0.0525381061	-0.01803596	 0.347453
C	-1.2415097908	-0.7352123501	-0.0676159039	-0.201621
C	-1.1860871917	-2.0700730924	-0.2574817801	 0.272163
N	 0.0529141779	-2.6881009754	-0.4053323272	-0.389975
C	 1.1836770447	-1.91747211	-0.3530462141	 0.095151
N	 1.2113053427	-0.6486624834	-0.1765444137	-0.311182
C	-2.3342979935	-2.9147319724	-0.3191776796	 0.225512
N	-3.244888622	-3.6267758114	-0.3740109496	-0.311815
H	 0.8774465138	 1.6966638992	 0.1685960534	 0.222361
H	-2.1897204809	-0.2290743862	 0.0501704102	 0.150063
H	 0.1106719058	-3.683169043	-0.5475121621	 0.284122
H	 2.1133076162	-2.4701765944	-0.4763726585	 0.142578
114.4564	132.044	151.4068	380.9685	399.1798	423.448	450.666	491.6417	553.4967	589.3933	663.2773	741.1842	769.0826	879.5609	901.4838	927.6152	971.5259	1010.1787	1082.0406	1171.1439	1185.402	1303.9747	1372.339	1425.9704	1499.3945	1647.0399	1676.8409	1700.9954	2350.4999	3153.8261	3239.6418	3460.8645	3654.5614
N=C1C=C(NC=N1)C#N	[NH]C1=NCNC(=C1)C#N	
InChI=1S/C5H4N4/c6-2-4-1-5(7)9-3-8-4/h1,3H,(H2,7,8,9)	InChI=1S/C5H5N4/c6-2-4-1-5(7)9-3-8-4/h1,7-8H,3H2
