14
gdb 26613	2.40846	1.90142	1.06335	4.8227	70.27	-0.1986	-0.0307	0.1679	1033.55	0.102132	-473.890119	-473.882538	-473.881594	-473.921852	29.507	
N	-0.009326851	 1.4143648955	 0.1552096263	-0.586187
C	 0.0048662736	 0.0413373855	 0.057636273	 0.241277
C	-1.1552451856	-0.6859467413	 0.0344782914	 0.12866
O	-2.3715128804	-0.0726591766	 0.0499762019	-0.456232
C	-1.1669393771	-2.1176453942	-0.0173786329	 0.367839
O	-2.1829023685	-2.7844057117	-0.0512203566	-0.402583
O	 0.0659292715	-2.7501109259	-0.0395297851	-0.212987
C	 1.2093920303	-2.0366680567	-0.0160027011	 0.069439
C	 1.2397307658	-0.6925560027	 0.0312569366	-0.239057
H	 0.7920222642	 1.9058770449	-0.2080187277	 0.256845
H	-0.8941495891	 1.8504439033	-0.058199816	 0.27321
H	-3.0168377054	-0.797623229	 0.0079228576	 0.307351
H	 2.0830124374	-2.6744997033	-0.0380871457	 0.142438
H	 2.1911586442	-0.1762537378	 0.0572413383	 0.109987
135.0014	201.7493	274.8591	296.7245	327.1276	377.0528	488.922	503.0645	519.2671	535.6695	541.98	572.9941	667.4617	709.7554	751.2686	777.8605	853.0388	902.6562	1000.0534	1077.7129	1107.2959	1193.7	1272.6356	1322.3773	1348.1489	1423.7361	1487.6715	1615.176	1644.747	1724.5068	1778.4953	3207.7119	3232.5334	3577.6736	3688.6982	3691.4973
NC1=C(O)C(=O)OC=C1	Nc1c(O)c(=O)occ1	
InChI=1S/C5H5NO3/c6-3-1-2-9-5(8)4(3)7/h1-2,7H,6H2	InChI=1S/C5H5NO3/c6-3-1-2-9-5(8)4(3)7/h1-2,7H,6H2
