15
gdb 124292	2.67544	1.56472	0.99478	1.8334	70.47	-0.2202	-0.0613	0.1589	1121.2471	0.112241	-453.958278	-453.949941	-453.948996	-453.991593	30.502	
C	-0.0349668712	 1.4547201813	-0.042655313	-0.478563
C	 0.0226206597	-0.0536929192	-0.0248012733	 0.329501
O	 1.0747430042	-0.6705022362	-0.0005703011	-0.328754
C	-1.2559300143	-0.7962557819	-0.0296193043	 0.242974
N	-2.4219433181	-0.1768550924	 0.024146109	-0.197223
O	-3.3680441461	-1.1557282712	 0.0442884261	-0.159027
C	-2.7685454221	-2.3733552169	-0.0049626599	-0.004757
C	-1.412669518	-2.222917464	-0.0552006974	 0.084148
N	-0.39717512	-3.1492215738	-0.1805901664	-0.614722
H	 0.9781631432	 1.8549006941	 0.002161838	 0.139286
H	-0.5374747523	 1.7993534212	-0.9521585784	 0.156485
H	-0.6301504172	 1.8223752559	 0.798568341	 0.158063
H	-3.4294286208	-3.2239530959	 0.0026709941	 0.147395
H	-0.5685351984	-4.0514274235	 0.2360064377	 0.250613
H	 0.5105421415	-2.7592985576	 0.0372858778	 0.274581
64.9802	109.5655	182.785	194.4283	308.6715	323.7202	370.9329	426.5514	503.0047	576.4402	604.7727	636.2256	647.3437	727.3258	731.7716	772.3796	933.7858	957.2638	1007.4339	1047.6063	1105.953	1125.0244	1136.6576	1304.7024	1334.2143	1388.2353	1452.154	1457.1336	1465.9979	1497.277	1620.78	1669.4973	1762.6758	3050.2331	3114.254	3160.6185	3281.6576	3548.6388	3665.2562
CC(=O)C1=NOC=C1N	CC(=O)c1nocc1N	
InChI=1S/C5H6N2O2/c1-3(8)5-4(6)2-9-7-5/h2H,6H2,1H3	InChI=1S/C5H6N2O2/c1-3(8)5-4(6)2-9-7-5/h2H,6H2,1H3
