17
gdb 77032	2.53586	1.23965	1.04653	4.9962	74.84	-0.2555	-0.053	0.2025	1193.2975	0.134233	-417.993482	-417.984315	-417.983371	-418.027944	32.59	
C	-0.4507794179	 1.3262377438	 1.2133262712	-0.435415
C	-0.0551285153	-0.0287176076	 0.6740270565	 0.006724
C	 0.5434940395	-0.2383643039	-0.7128357963	-0.123687
C	 0.7832714001	 0.9188069155	-1.6126300778	 0.154647
O	 1.2219537404	 2.0012153299	-1.2864039527	-0.274975
N	 1.3077521619	-0.4810767481	 0.5257849595	-0.101724
C	 2.4261877524	 0.3930631105	 0.8866131453	-0.300831
C	 3.6713320098	-0.1438080111	 0.3286249483	 0.280846
N	 4.6565027689	-0.5476718356	-0.118494487	-0.300011
H	-0.2921477879	 1.3587947658	 2.2968953041	 0.132078
H	 0.102867636	 2.1422099466	 0.7488525609	 0.163673
H	-1.5176613309	 1.4912129629	 1.0346763833	 0.132782
H	-0.7167232111	-0.8353982209	 0.9890544536	 0.115574
H	 0.2850223385	-1.1512747939	-1.2443154683	 0.11205
H	 0.5194586618	 0.7142824224	-2.6722099451	 0.098742
H	 2.3233531448	 1.4297341575	 0.5470449297	 0.182387
H	 2.506046749	 0.3909489263	 1.9792271449	 0.15714
42.7107	119.1795	181.0434	185.9435	208.7068	219.4481	267.5873	371.6744	387.2403	401.6945	502.9052	549.8475	696.7926	774.4993	827.6202	850.9177	936.7034	960.6064	993.555	1033.9502	1048.7714	1071.0473	1109.844	1159.6246	1179.3093	1271.9381	1340.7352	1375.8395	1383.6427	1402.5982	1423.5158	1432.5416	1469.8248	1495.9935	1505.4326	1785.8196	2368.8838	2906.5317	3040.3626	3045.0875	3086.1335	3102.2702	3107.1578	3139.9046	3156.0597
CC1C(C=O)N1CC#N	C[C@H]1[C@@H](C=O)N1CC#N	
InChI=1S/C6H8N2O/c1-5-6(4-9)8(5)3-2-7/h4-6H,3H2,1H3	InChI=1S/C6H8N2O/c1-5-6(4-9)8(5)3-2-7/h4-6H,3H2,1H3/t5-,6+,8?/m0/s1
