19
gdb 114566	2.63168	1.21893	0.96633	1.797	83.32	-0.2424	0.0201	0.2625	1286.6151	0.156997	-385.823824	-385.814783	-385.813839	-385.857622	34.211	
C	 0.0443128556	 1.5187901593	 0.1738097349	-0.384173
C	-0.1335920578	 0.0249885859	-0.1157548023	-0.193944
C	 0.7247645971	-0.4639337191	-1.2751622906	-0.072124
C	 2.2876072481	-0.5483828302	-1.0936595127	-0.268888
C	 2.1994487764	-2.0493645248	-1.3823068472	-0.062513
O	 1.330099227	-2.6222577712	-0.4066298418	-0.287632
C	 0.727477941	-1.9878770859	-1.5540135025	 0.294483
C	-0.1748421343	-2.7303778029	-2.3642794813	 0.20288
C	-0.9666190579	-3.3085412693	-3.0611873545	-0.402489
H	 1.0832854783	 1.7559269979	 0.427627982	 0.117347
H	-0.2310342725	 2.128340505	-0.6942158861	 0.113153
H	-0.5817474282	 1.8344030764	 1.0139052615	 0.115808
H	 0.1144428801	-0.5641097745	 0.7739113323	 0.11308
H	-1.186983485	-0.1823615416	-0.3444426624	 0.10316
H	 0.4834496222	 0.0793803901	-2.1945753826	 0.081697
H	 2.8352047638	 0.0135230338	-1.8531908966	 0.110084
H	 2.6775790473	-0.3023551012	-0.1027422381	 0.113468
H	 2.9225676193	-2.7082837165	-1.849347201	 0.114855
H	-1.6584857802	-3.8318356515	-3.673771341	 0.191749
81.5376	117.3624	153.8992	165.2914	216.4146	267.2046	351.1064	398.3269	476.0819	534.8735	553.7931	605.1981	633.0179	666.8089	719.1774	778.5769	814.7358	881.4934	911.1468	937.0895	959.1118	974.7234	1022.5749	1067.1072	1112.562	1122.6225	1145.2852	1187.8062	1220.8748	1258.2529	1264.6743	1288.013	1338.0774	1378.9711	1412.2885	1419.1577	1473.8458	1490.3849	1499.8416	1506.9514	2238.7005	3026.1248	3030.3145	3054.6325	3066.8957	3073.0539	3098.6511	3104.2485	3124.8658	3187.9547	3501.9448
CCC1CC2OC12C#C	CC[C@H]1C[C@H]2O[C@@]12C#C	
InChI=1S/C8H10O/c1-3-6-5-7-8(6,4-2)9-7/h2,6-7H,3,5H2,1H3	InChI=1S/C8H10O/c1-3-6-5-7-8(6,4-2)9-7/h2,6-7H,3,5H2,1H3/t6-,7+,8-/m0/s1
