15
gdb 57156	2.27967	1.35179	0.99523	4.9283	69.87	-0.2639	-0.0781	0.1858	1183.1835	0.107532	-457.750764	-457.740866	-457.739922	-457.786849	34.12	
C	-0.0428765401	 1.4401319017	 0.0714038705	-0.486746
C	 0.0259394975	-0.0634462831	 0.0309421216	 0.367613
O	 0.1462081038	-0.7511407447	 1.0186625328	-0.302306
C	-0.0449584521	-0.7907035626	-1.3362556023	-0.077219
O	 0.3226525052	-2.117924137	-1.1854603073	-0.400904
C	-1.4918957927	-0.6795500473	-1.8910167609	 0.211793
O	-2.3160276968	-1.5338118336	-1.6778859528	-0.258097
C	-1.7810777053	 0.5033707997	-2.6831818635	 0.272132
C	-1.9992696072	 1.4767861382	-3.3579131766	-0.432548
H	 0.8139071401	 1.8631104641	-0.4652022209	 0.153202
H	-0.941763644	 1.8021880858	-0.4371131285	 0.160978
H	-0.0327373824	 1.7816405557	 1.1069111177	 0.154207
H	 0.6262246153	-0.282223192	-2.0427174429	 0.113786
H	 0.2431991564	-2.3037662295	-0.2352763303	 0.300606
H	-2.2099914976	 2.3305775147	-3.9560094966	 0.223502
37.0981	49.8711	105.2761	135.9779	165.3678	256.4918	282.5645	312.778	382.8161	424.58	480.0689	516.9721	614.8911	634.5021	658.0372	688.8428	719.639	835.2323	864.0523	969.854	1041.9487	1062.3159	1154.415	1191.067	1227.7429	1339.7926	1392.7023	1429.1582	1459.166	1471.8278	1778.9708	1811.7932	2206.1061	3018.2384	3044.8326	3108.6003	3157.8777	3490.6246	3678.9026
CC(=O)C(O)C(=O)C#C	CC(=O)[C@@H](O)C(=O)C#C	
InChI=1S/C6H6O3/c1-3-5(8)6(9)4(2)7/h1,6,9H,2H3	InChI=1S/C6H6O3/c1-3-5(8)6(9)4(2)7/h1,6,9H,2H3/t6-/m1/s1
