17
gdb 129883	5.35718	0.78394	0.729	2.6516	72.25	-0.2096	0.0037	0.2133	1525.9997	0.137162	-451.312829	-451.303866	-451.302922	-451.347511	32.065	
N	-0.0596912735	 1.3596034609	-0.0529756778	-0.591868
C	-0.0770953257	-0.0320550327	 0.0054160329	 0.320739
C	-1.1276933901	-0.917910385	-0.1186856841	-0.185738
N	-0.5591625764	-2.1341129121	 0.1178315236	 0.089978
C	-1.1616939251	-3.450991015	 0.0427548661	-0.18102
C	-1.1674011514	-4.0088924625	-1.389719905	-0.069369
O	-1.7917035716	-5.2759679311	-1.4424934047	-0.405185
N	 0.7491485926	-2.0105728894	 0.3683966538	-0.157741
N	 1.0481197241	-0.7374513469	 0.300165756	-0.254995
H	 0.8917366993	 1.7012339234	-0.1067887722	 0.255311
H	-0.6150081925	 1.7450760045	-0.804609098	 0.247031
H	-2.1770288227	-0.7960482202	-0.3241951446	 0.134142
H	-0.5773098498	-4.1015155764	 0.6988047845	 0.135081
H	-2.1842988769	-3.401906014	 0.4262030616	 0.13266
H	-1.7502424673	-3.3489350373	-2.0403368273	 0.120528
H	-0.1381485513	-4.0292252306	-1.7738307414	 0.118964
H	-1.1957950017	-5.9218059556	-1.0497199234	 0.29148
46.8051	85.9473	88.0526	229.6307	267.5874	288.2497	311.5023	343.2773	405.5447	441.7743	644.3458	691.7734	699.665	720.8686	775.9734	786.5915	820.7614	1027.5172	1045.5078	1051.685	1058.4064	1089.7403	1115.8154	1142.8508	1185.2863	1282.79	1294.109	1338.5106	1366.9112	1401.673	1409.4411	1417.8067	1477.6856	1499.1655	1510.0773	1616.6163	1650.712	3015.074	3067.9389	3081.5966	3125.2744	3285.3718	3544.0713	3638.2924	3818.8003
NC1=CN(CCO)N=N1	Nc1cn(CCO)nn1	
InChI=1S/C4H8N4O/c5-4-3-8(1-2-9)7-6-4/h3,9H,1-2,5H2	InChI=1S/C4H8N4O/c5-4-3-8(1-2-9)7-6-4/h3,9H,1-2,5H2
