21
gdb 63910	2.99396	1.35873	1.21818	1.5607	83.43	-0.2375	0.0108	0.2484	1133.397	0.183106	-387.093494	-387.084905	-387.083961	-387.126146	34.53	
C	 0.1032423132	 1.5750810374	-0.0184119385	-0.414118
C	-0.0194702065	 0.0529635774	 0.0110448985	 0.32965
O	-1.4349639134	-0.207494826	 0.0711925137	-0.469441
C	 0.5820183574	-0.5642036421	-1.2706078624	-0.245113
C	 0.6932489773	-2.0879460742	-1.2130482781	-0.055463
C	 2.0358073327	-2.7283703967	-0.9512278706	-0.288704
C	 0.9801208768	-2.7109416969	 0.1355141418	-0.066332
C	 1.0882362203	-1.7891811522	 1.2944242024	-0.096088
C	 0.6475939045	-0.5305404108	 1.2453688797	-0.097551
H	 1.1526261166	 1.8825362642	-0.0449913362	 0.112875
H	-0.4022184384	 1.9772679292	-0.9014565912	 0.119108
H	-0.3670077383	 2.0071137154	 0.8696346883	 0.119128
H	-1.540318648	-1.1406965546	 0.2833818473	 0.277836
H	-0.0469399368	-0.2631332987	-2.1140817041	 0.103142
H	 1.5713869881	-0.1231357995	-1.4367973301	 0.09533
H	 0.0222051257	-2.6359141169	-1.8662785905	 0.086158
H	 2.2613610534	-3.6787480889	-1.4229620034	 0.109721
H	 2.8889970856	-2.0673612116	-0.8344811943	 0.113382
H	 0.5224247056	-3.6727751265	 0.3543812519	 0.089388
H	 1.5251303316	-2.1821471763	 2.2102582619	 0.091085
H	 0.7109920326	 0.1107651481	 2.1207693539	 0.086007
84.1596	173.3227	229.8757	272.507	292.2829	301.5294	362.1543	384.7176	430.1701	503.7732	534.5809	579.0404	690.5638	760.9445	784.7498	813.9245	851.7496	867.7317	896.2099	939.3928	952.2606	995.0583	999.9458	1028.3682	1059.8726	1076.9896	1080.7505	1117.9669	1130.0463	1173.2282	1181.2881	1220.1642	1255.1195	1287.9834	1314.0655	1348.7169	1383.4745	1402.677	1407.9204	1429.2147	1469.5716	1483.2358	1489.5704	1497.0009	1701.0396	3033.7429	3041.5284	3081.6596	3115.3173	3119.227	3124.5979	3127.0164	3140.3285	3155.3428	3166.4454	3214.2778	3816.0182
CC1(O)CC2CC2C=C1	C[C@@]1(O)C[C@H]2C[C@H]2C=C1	
InChI=1S/C8H12O/c1-8(9)3-2-6-4-7(6)5-8/h2-3,6-7,9H,4-5H2,1H3	InChI=1S/C8H12O/c1-8(9)3-2-6-4-7(6)5-8/h2-3,6-7,9H,4-5H2,1H3/t6-,7-,8+/m1/s1
