17
gdb 30751	3.15242	1.2653	0.94088	1.3221	73.	-0.1779	0.0447	0.2226	1229.3748	0.136111	-455.144887	-455.13548	-455.134536	-455.179337	33.987	
C	 0.2010903874	 1.2864727087	 0.0941660189	-0.252146
O	-0.4214585181	 0.0889306909	-0.3829873791	-0.277282
C	 0.2850700453	-0.6059429653	-1.2894070898	 0.374021
C	 0.6438313929	-1.918015433	-1.3014001558	 0.022312
N	 0.4806946122	-2.9126634931	-0.3104705495	-0.630512
C	 1.3412215736	-2.1174469795	-2.5471676876	 0.205876
N	 1.8195197134	-3.3690353906	-2.954380266	-0.616059
C	 1.35376007	-0.9129161057	-3.1801609	-0.119005
O	 0.7037518298	 0.031974178	-2.4108976744	-0.198052
H	 1.1694440617	 1.0627853284	 0.5581492743	 0.121017
H	 0.3462959508	 2.0034770597	-0.7192750359	 0.140076
H	-0.4765851674	 1.7080630322	 0.8383467834	 0.132378
H	 0.0699794603	-2.5131880918	 0.5263432619	 0.243093
H	-0.1375420829	-3.6534366615	-0.6302466844	 0.245266
H	 2.1701066607	-3.8966808645	-2.162309539	 0.249664
H	 2.5352195655	-3.3102532712	-3.6670564538	 0.241685
H	 1.7538954548	-0.5638834418	-4.1158127132	 0.117669
48.7045	128.8903	152.8223	162.4237	223.4744	240.2428	308.8537	335.4711	355.8925	408.6288	561.1906	576.4584	596.7582	642.4597	703.9777	745.5585	751.973	795.7266	868.8756	969.4622	1064.3227	1111.1058	1131.0652	1173.8738	1191.3207	1218.4185	1260.7063	1317.9149	1339.7513	1460.2623	1484.9649	1502.6367	1505.6821	1625.306	1648.0734	1654.0571	1730.0914	3021.6426	3098.1695	3140.3558	3287.1936	3485.9136	3518.0933	3580.1524	3616.8568
COC1=C(N)C(N)=CO1	COc1c(N)c(N)co1	
InChI=1S/C5H8N2O2/c1-8-5-4(7)3(6)2-9-5/h2H,6-7H2,1H3	InChI=1S/C5H8N2O2/c1-8-5-4(7)3(6)2-9-5/h2H,6-7H2,1H3
