16
gdb 20250	3.66103	3.12556	2.4816	0.4934	66.05	-0.2075	0.0673	0.2747	637.1784	0.134516	-342.700778	-342.695714	-342.69477	-342.72953	21.959	
C	 0.0025035255	 1.5527279549	 0.1082727886	-0.181054
C	 1.5014235158	 1.4925019134	-0.1212038951	 0.02382
C	 1.3365306142	 0.0623087921	-0.659884977	-0.034828
C	 2.3778985772	-0.3957925067	 0.3677557361	-0.045812
C	 1.6386327468	-0.2540984979	 1.6298013994	-0.032304
C	 0.16423242	-0.4895498285	 1.3571827111	-0.196705
N	-0.0581636369	 0.0473339295	 0.0026751644	-0.135458
N	 2.3156543713	 0.9532179971	 1.0573571314	-0.177071
H	-0.3646331588	 1.9649032785	 1.0538625864	 0.104457
H	-0.5401783165	 2.0162541945	-0.7226626775	 0.107244
H	 2.0602802138	 2.2914389467	-0.6107464652	 0.078895
H	 1.3528547786	-0.2552233223	-1.7002268049	 0.078967
H	 3.3032296212	-0.9348785587	 0.2006952771	 0.095483
H	 2.0876416867	-0.562357551	 2.5691080069	 0.098525
H	-0.0444849142	-1.5670733246	 1.393188265	 0.105411
H	-0.5125934048	 0.002980573	 2.0617371732	 0.110429
291.2244	443.7738	482.3505	626.9622	673.2777	680.6104	743.3977	777.1679	827.7067	855.068	870.9105	913.6493	929.2474	935.5125	977.347	982.3449	1013.3158	1042.8602	1064.7965	1087.4783	1104.8007	1182.0497	1189.1547	1204.3227	1222.7373	1250.918	1260.5984	1284.9233	1304.4748	1308.9993	1327.6733	1393.8831	1492.4049	1512.3181	3016.6541	3033.2094	3079.1988	3087.3436	3095.5265	3134.3692	3161.0048	3180.0873
C1C2C3C4C(CN13)N24	C1[C@@H]2[C@H]3[C@@H]4[C@H](CN13)N24	
InChI=1S/C6H8N2/c1-3-5-6-4(8(3)6)2-7(1)5/h3-6H,1-2H2	InChI=1S/C6H8N2/c1-3-5-6-4(8(3)6)2-7(1)5/h3-6H,1-2H2/t3-,4+,5+,6+,8?/m1/s1
