19
gdb 26268	3.47825	1.09861	1.02062	2.7824	83.17	-0.2465	-0.0372	0.2093	1259.7736	0.161035	-382.132985	-382.124499	-382.123555	-382.166611	31.507	
C	 0.0262744963	 1.5550464611	-0.0148142327	-0.385903
C	-0.0044392569	 0.0169140042	 0.0430211947	-0.09007
C	 0.7984287353	-0.5111188654	 1.2457217716	-0.386146
C	-1.4233802954	-0.5147438323	 0.0394596768	 0.246297
C	-2.3449822048	-0.2456875604	 1.0546113569	-0.040203
N	-3.5944759683	-0.7120075536	 1.0529172894	-0.249789
C	-3.932276854	-1.468678643	 0.0069995475	 0.074523
N	-3.1554667505	-1.8009157283	-1.0231344957	-0.249203
C	-1.9114574602	-1.3178719838	-0.9904403144	-0.064015
H	 1.0585132964	 1.9154448839	-0.0684453488	 0.117907
H	-0.512624759	 1.930984743	-0.8894495336	 0.122469
H	-0.4332426469	 1.9956085964	 0.8765479678	 0.120907
H	 0.4769864437	-0.359577628	-0.8689261541	 0.082432
H	 0.3731394243	-0.1610150886	 2.1924497565	 0.120929
H	 0.8087791078	-1.6047955007	 1.2677956199	 0.122484
H	 1.8342817422	-0.1604241864	 1.197816952	 0.117926
H	-2.0679237152	 0.3718589618	 1.9073356688	 0.111054
H	-4.9488760568	-1.8544874918	-0.0049659777	 0.118261
H	-1.2673786377	-1.5836042881	-1.828350925	 0.11014
41.8079	127.1124	199.6542	226.7393	260.2756	293.0148	303.3817	416.4976	461.4008	550.1738	585.965	642.7669	760.094	788.0659	898.0365	928.8606	941.6487	965.1624	1004.9651	1016.9708	1054.225	1075.2507	1124.482	1141.4996	1177.572	1220.3477	1239.0274	1261.9277	1342.6263	1342.9716	1392.1876	1399.2068	1421.758	1453.3857	1467.2629	1485.9225	1490.2404	1502.4022	1509.3261	1596.4487	1623.5477	3016.8695	3031.7976	3035.541	3099.0043	3104.9679	3110.1135	3112.0498	3133.3526	3142.2238	3166.0917
CC(C)C1=CN=CN=C1	CC(C)c1cncnc1	
InChI=1S/C7H10N2/c1-6(2)7-3-8-5-9-4-7/h3-6H,1-2H3	InChI=1S/C7H10N2/c1-6(2)7-3-8-5-9-4-7/h3-6H,1-2H3
