18
gdb 112522	2.64265	1.14139	1.02337	4.0982	72.71	-0.2782	-0.004	0.2742	1256.2029	0.145967	-439.076279	-439.066738	-439.065794	-439.11184	33.714	
C	 0.4091684944	 1.3519314421	 0.2254056563	-0.391675
C	 0.1295894285	-0.1446204742	 0.0531635263	-0.182364
C	 0.5292590017	-0.6337669237	-1.3253720607	 0.130172
O	 1.9637741776	-0.5044659403	-1.574498699	-0.294965
C	 2.1035171204	-1.8980087601	-1.8762331136	-0.048264
C	 3.0438032977	-2.6054165775	-1.0057754296	 0.277499
N	 3.7683242396	-3.2060934402	-0.3351921977	-0.316699
C	 0.5888341281	-2.1595617904	-1.5798326245	 0.029184
O	 0.2782754965	-2.9066335569	-0.4417693643	-0.402985
H	 1.4698593706	 1.5660194376	 0.0671429153	 0.139775
H	-0.1661183892	 1.9510087956	-0.4892815272	 0.112479
H	 0.1418891398	 1.6840394845	 1.2324173435	 0.118226
H	 0.6669840061	-0.7263474768	 0.8069501259	 0.124994
H	-0.9377438203	-0.3559033675	 0.1929813078	 0.106751
H	-0.0263310563	-0.0933362601	-2.1030105191	 0.084026
H	 2.3974874081	-2.0613212926	-2.9211117187	 0.121584
H	 0.0362675632	-2.5019640918	-2.4627773738	 0.090996
H	 0.5036611936	-3.8307152776	-0.5944103869	 0.301266
24.9122	86.1454	130.477	173.3451	216.9861	234.4989	251.5108	294.3964	374.2968	444.1774	496.9073	565.4145	613.9981	764.076	803.9929	829.9569	892.8874	932.9974	976.7587	1005.4289	1048.1371	1057.8867	1109.862	1135.322	1176.9692	1208.1515	1243.2893	1278.2778	1297.6907	1319.5151	1336.9899	1356.5955	1407.1359	1416.4213	1430.4258	1475.6327	1498.3869	1508.9294	2355.9923	3016.0802	3022.6155	3036.9003	3039.5625	3041.9188	3092.2897	3111.7129	3121.616	3814.6108
CCC1OC(C#N)C1O	CC[C@H]1O[C@@H](C#N)[C@H]1O	
InChI=1S/C6H9NO2/c1-2-4-6(8)5(3-7)9-4/h4-6,8H,2H2,1H3	InChI=1S/C6H9NO2/c1-2-4-6(8)5(3-7)9-4/h4-6,8H,2H2,1H3/t4-,5+,6+/m1/s1
