17
gdb 39020	3.05375	1.8194	1.33321	2.4314	73.01	-0.2248	0.0281	0.2529	951.8987	0.139202	-417.981755	-417.975002	-417.974058	-418.01273	27.179	
C	 0.0633570462	 1.5930565586	 0.1085272348	-0.197862
N	 1.4970214293	 1.4008369381	-0.2570741549	-0.353722
C	 1.4395840852	 0.0539226101	 0.0912530052	 0.403613
N	 2.3051015086	-0.7680201441	 0.5009588516	-0.323289
C	 1.7275836456	-2.0128399883	 1.0129506208	-0.202799
C	 0.3408787175	-1.8688086566	 1.6455182114	 0.047509
O	 0.1106279585	-0.7035963232	 2.4468500876	-0.2507
C	-0.5920061211	-0.8149928622	 1.2056775229	 0.016717
C	-0.0790420745	 0.0377819809	 0.0785921838	-0.140863
H	-0.0765971788	 2.0091312654	 1.1113347083	 0.125757
H	-0.5127285365	 2.162638929	-0.6242652733	 0.112492
H	 2.2364803565	 1.9961430233	 0.0959087199	 0.243056
H	 1.663644474	-2.7806046016	 0.22640681	 0.107794
H	 2.4139182536	-2.4126724973	 1.7688417941	 0.117855
H	-0.0700523263	-2.787904499	 2.0645844402	 0.094906
H	-1.6672222353	-0.9615330924	 1.3030124525	 0.092004
H	-0.4990974726	-0.3104348606	-0.870331125	 0.10753
147.7609	194.4523	286.1857	334.5156	422.4974	452.1571	505.1743	613.9666	684.7089	719.2132	771.7614	781.5191	841.0625	877.7118	933.2106	943.0501	974.2981	1002.4167	1033.2579	1058.0709	1096.904	1119.7642	1132.6086	1156.8069	1209.0361	1215.7461	1249.9036	1283.2791	1309.4867	1339.524	1347.5782	1364.2828	1388.7028	1455.5304	1487.6414	1513.0902	1806.5414	2992.2579	3047.1236	3048.272	3064.8362	3103.8152	3109.6915	3118.9707	3564.1283
C1NC2=NCC3OC3C12	C1N[C]2[N]C[C@H]3O[C@H]3[C@@H]12	
InChI=1S/C6H8N2O/c1-3-5-4(9-5)2-8-6(3)7-1/h3-5H,1-2H2,(H,7,8)	InChI=1S/C6H8N2O/c1-3-5-4(9-5)2-8-6(3)7-1/h3-5H,1-2H2,(H,7,8)/t3-,4-,5+/m1/s1
