16
gdb 33364	6.02567	0.65709	0.62241	4.4017	84.17	-0.2732	-0.0414	0.2318	1705.8449	0.125848	-400.740568	-400.732217	-400.731273	-400.774992	29.482	
N	-0.1532329838	-3.8096494712	-0.4888607348	-0.33765
C	-0.1081990057	-2.6585774287	-0.336534368	 0.204762
C	-0.0548710036	-1.3068461398	-0.1566589949	 0.00807
C	-0.0082715116	-0.1091688328	 0.003157834	 0.126879
C	 0.0667456578	 1.3228295559	 0.1972363313	-0.192618
C	-0.4912116281	 1.8280066624	 1.5671749716	-0.254175
C	 0.5659466046	 2.8684598038	 2.0181313974	-0.077169
O	 1.3983772588	 3.1131783028	 0.8908364481	-0.231079
C	 1.5160283022	 1.886884182	 0.2091110153	-0.095851
H	-0.479404235	 1.8153542703	-0.6146237748	 0.130425
H	-1.4802648063	 2.2700409926	 1.4367726243	 0.127842
H	-0.5814589286	 1.0099284069	 2.2838715915	 0.128545
H	 0.1344654707	 3.8234849681	 2.3256445465	 0.121108
H	 1.1624116845	 2.4713540332	 2.8527939034	 0.10447
H	 2.186574699	 1.1885900098	 0.7345901372	 0.106907
H	 1.9117893851	 2.0782804446	-0.789928068	 0.129533
40.5781	80.2543	105.9534	221.3005	232.1588	292.4066	422.3191	499.112	542.0631	587.0918	593.1768	677.807	770.8223	842.2434	891.9519	940.4977	963.4718	1001.9753	1048.0337	1098.2427	1129.384	1190.1646	1220.524	1230.0894	1269.8577	1294.5871	1299.4908	1330.5401	1365.8152	1400.1977	1497.7192	1507.5953	1526.2039	2263.1727	2397.3822	2983.4387	2996.7312	3048.8199	3083.2401	3102.4021	3117.9931	3134.1184
N#CC#CC1CCOC1	N#CC#C[C@H]1CCOC1	
InChI=1S/C7H7NO/c8-4-1-2-7-3-5-9-6-7/h7H,3,5-6H2	InChI=1S/C7H7NO/c8-4-1-2-7-3-5-9-6-7/h7H,3,5-6H2/t7-/m0/s1
