19
gdb 119699	4.40006	0.95074	0.93845	1.4247	74.89	-0.2278	0.0791	0.3068	1316.1885	0.158904	-422.951972	-422.943713	-422.942768	-422.985374	31.433	
O	-0.0913921228	 1.3587346235	-0.0208401861	-0.421555
C	-0.0161846785	-0.0469783158	 0.1615283514	-0.071927
C	-1.3818809946	-0.6284114542	-0.1985718072	-0.319305
C	-1.4192905783	-2.1131160759	-0.0646789926	 0.502227
O	-0.5836883246	-2.910840014	-0.9164546229	-0.334601
C	-1.3596275811	-4.0573036954	-0.4694802171	 0.068414
C	-0.9174578564	-4.2454315845	 1.0046266767	-0.232692
C	-1.624548435	-2.911759941	 1.2437050797	-0.158677
C	-2.5208273583	-3.1134851225	 0.0197434963	-0.221911
H	 0.7827578214	 1.7281825698	 0.1328466528	 0.285978
H	 0.7524199077	-0.499445654	-0.4817734083	 0.108138
H	 0.2316368819	-0.3054384871	 1.203238453	 0.087334
H	-2.1446985717	-0.1875333197	 0.4532376229	 0.113077
H	-1.6282108378	-0.3401572446	-1.2267213444	 0.119279
H	-1.398352744	-4.8671568872	-1.1947653393	 0.086054
H	-1.4484932257	-5.0716984743	 1.4846541854	 0.103178
H	 0.1600097662	-4.3225225727	 1.1822922715	 0.098531
H	-1.8770489956	-2.4332057732	 2.1816828906	 0.09003
H	-3.5905915528	-3.0714239271	-0.1317051123	 0.098428
77.4678	93.8736	111.3944	254.7671	299.4139	334.7639	348.0029	455.723	555.4717	687.919	748.2531	787.8358	800.8487	810.8729	830.8539	892.7662	921.327	938.1245	959.6673	977.0564	1005.0251	1023.8153	1063.8075	1084.3858	1091.742	1099.1677	1141.7369	1159.1403	1180.0578	1226.611	1242.3686	1253.8216	1271.5819	1298.4033	1319.1618	1335.1636	1451.0901	1464.7894	1479.9282	1486.996	1529.2917	2975.6028	3014.7886	3041.0056	3046.5325	3085.9188	3109.5674	3145.4878	3194.0935	3209.9959	3833.2856
OCCC12OC3CC1C23	OCC[C@@]12O[C@H]3C[C@@H]1[C@@H]23	
InChI=1S/C7H10O2/c8-2-1-7-4-3-5(9-7)6(4)7/h4-6,8H,1-3H2	InChI=1S/C7H10O2/c8-2-1-7-4-3-5(9-7)6(4)7/h4-6,8H,1-3H2/t4-,5+,6-,7-/m1/s1
