15
gdb 44169	5.56429	1.05165	0.96075	3.9161	74.71	-0.2426	0.0006	0.2432	1184.1986	0.112205	-416.726469	-416.718724	-416.71778	-416.758894	29.441	
N	 0.208753987	 1.0625204581	 0.6748551048	-0.541075
C	 0.1079735271	-0.0473741947	 0.0860986455	 0.383162
N	 0.9867591075	-1.0170234658	-0.4282920029	-0.334637
C	-0.0654079009	-1.954637833	-0.8018168546	-0.055551
C	-0.6521985921	-2.8200961738	 0.3582714517	-0.096718
O	-1.5554404837	-1.7442645244	 0.7378149466	-0.285922
C	-1.0993097846	-0.8931794222	-0.3358286994	 0.027349
C	-1.3536512388	-4.0231378779	-0.049903329	 0.336532
C	-1.9164760043	-5.0179297482	-0.4215712436	-0.427845
H	 1.1809329346	 1.3074036488	 0.8724943873	 0.213468
H	 1.9077730632	-1.2490846308	-0.079975915	 0.242041
H	 0.0087511985	-2.4042644692	-1.7901458854	 0.111091
H	 0.0644169751	-3.0398791365	 1.1593854058	 0.110174
H	-1.908279868	-0.4535721127	-0.9173679224	 0.110963
H	-2.4192788908	-5.9001279477	-0.7340881593	 0.206968
75.6384	128.6524	179.5346	269.9781	352.1823	427.7117	442.2904	480.7934	527.4751	638.269	675.9788	689.56	738.4951	812.7035	846.5945	867.5769	939.1025	953.6263	974.4768	1015.6429	1035.6915	1055.5345	1070.8404	1163.7271	1199.5071	1224.9636	1265.1233	1286.9248	1323.3241	1351.1818	1369.1608	1802.2909	2236.0682	3028.9302	3130.3316	3139.047	3456.901	3500.2124	3576.2747
N=C1NC2C(OC12)C#C	[NH][C]1N[C@H]2[C@@H](O[C@@H]12)C#C	
InChI=1S/C6H6N2O/c1-2-3-4-5(9-3)6(7)8-4/h1,3-5H,(H2,7,8)	InChI=1S/C6H6N2O/c1-2-3-4-5(9-3)6(7)8-4/h1,3-5H,(H2,7,8)/t3-,4-,5+/m0/s1
