18
gdb 7559	3.24704	1.20907	1.03136	1.5959	64.35	-0.2497	0.0679	0.3176	1168.8377	0.151159	-422.042951	-422.033639	-422.032695	-422.076883	33.997	
O	 0.0324443354	 1.4563155639	 0.2100041727	-0.418966
C	-0.02102986	 0.0418229296	 0.2886487448	-0.062086
C	-1.3432182163	-0.5326115373	-0.2265571522	-0.258845
C	-1.4141544743	-2.0422169002	-0.1261891033	 0.375093
O	-0.5339689475	-2.7393125584	-0.9742746216	-0.472465
C	-1.7539443679	-2.7029718305	 1.2015803943	-0.392139
C	-2.7324163286	-2.7254886129	 0.041885994	 0.061956
O	-3.8772697853	-1.9272985758	 0.0779107919	-0.420379
H	-0.0736101212	 1.7020031407	-0.7147310868	 0.281528
H	 0.8247319913	-0.4146854731	-0.2524594734	 0.074624
H	 0.1054558166	-0.2005542239	 1.3496839151	 0.110987
H	-2.1738959061	-0.0867679443	 0.3259702676	 0.121278
H	-1.4713965974	-0.2559266239	-1.2821448197	 0.096293
H	 0.3452092874	-2.7083509178	-0.5824159013	 0.283464
H	-1.248103195	-3.6282579371	 1.4550507164	 0.112466
H	-1.9925272299	-2.0536225323	 2.0378457537	 0.116451
H	-2.8322759235	-3.6688725868	-0.4934376453	 0.100361
H	-4.4815561976	-2.3038705299	 0.725864513	 0.290379
83.4613	95.976	133.0264	230.6571	240.3018	287.7075	296.9879	306.5648	359.3151	411.5208	457.0774	474.1153	558.912	737.2532	787.5117	843.5758	915.135	935.0324	982.3578	1016.6915	1034.4456	1046.6704	1080.6529	1103.552	1147.7762	1191.7251	1247.9333	1259.9301	1299.672	1312.3071	1336.1809	1355.3732	1402.762	1417.8397	1421.9758	1479.7106	1495.2082	1515.8701	2960.2528	3019.6251	3065.9991	3109.8883	3114.7855	3128.6437	3223.3124	3802.5446	3809.7093	3813.6375
OCCC1(O)CC1O	OCC[C@@]1(O)C[C@H]1O	
InChI=1S/C5H10O3/c6-2-1-5(8)3-4(5)7/h4,6-8H,1-3H2	InChI=1S/C5H10O3/c6-2-1-5(8)3-4(5)7/h4,6-8H,1-3H2/t4-,5-/m1/s1
