16
gdb 15358	6.20519	0.91279	0.87869	3.0367	65.68	-0.2668	0.0303	0.2971	1275.7954	0.130866	-379.900729	-379.89237	-379.891426	-379.93457	29.389	
O	-0.0301885995	 1.287238544	-0.7139491906	-0.417261
C	 0.0592227243	 0.1869794735	 0.1717927344	-0.064272
C	-1.2819983458	-0.4977928206	 0.3123783671	-0.046394
N	-1.7293230612	-1.2382665298	-0.8840648313	-0.336453
C	-1.4982463349	-1.9691496283	 0.3653966455	-0.016409
C	-0.3737416169	-2.9962300103	 0.3619555089	-0.345762
C	-0.8472293563	-4.3082975208	-0.0808813419	 0.2602
N	-1.2413888852	-5.3394498053	-0.4216317314	-0.300997
H	-0.3601031395	 0.9337791037	-1.5487198107	 0.291766
H	 0.8257178891	-0.5281344886	-0.1596365828	 0.087543
H	 0.3791888395	 0.5918676904	 1.1376516642	 0.11509
H	-2.0295888673	 0.1063733568	 0.8240143712	 0.100567
H	-2.722462233	-1.1100098066	-1.0529607715	 0.244723
H	-2.3742284953	-2.2974931451	 0.9213174301	 0.110025
H	 0.4305830587	-2.6740500388	-0.303938883	 0.162601
H	 0.0493840232	-3.1002804142	 1.3680285118	 0.155033
47.4444	78.727	118.107	185.6341	258.6814	372.1407	385.9693	425.2006	459.6355	514.2009	585.7978	801.6435	848.0791	878.565	944.8757	957.8492	979.7265	1016.4962	1031.0633	1075.7502	1135.5204	1180.9977	1219.0402	1262.9194	1269.7832	1276.0301	1317.0346	1370.0517	1404.2357	1440.0842	1453.423	1482.1638	1498.0315	2364.452	3001.5996	3049.8952	3076.0604	3107.3325	3122.2634	3134.506	3520.5707	3791.9948
OCC1NC1CC#N	OC[C@H]1N[C@H]1CC#N	
InChI=1S/C5H8N2O/c6-2-1-4-5(3-8)7-4/h4-5,7-8H,1,3H2	InChI=1S/C5H8N2O/c6-2-1-4-5(3-8)7-4/h4-5,7-8H,1,3H2/t4-,5+/m0/s1
