22
gdb 113225	3.61358	0.89132	0.87362	2.1724	84.	-0.2279	0.0859	0.3138	1478.0454	0.191942	-404.298735	-404.288713	-404.287769	-404.334139	36.812	
C	-0.2037302906	 1.5178298684	 0.2784753291	-0.373282
C	-0.2887505262	 0.018900291	-0.0029865859	-0.116997
N	 0.5679341294	-0.3236386918	-1.1328989259	-0.107048
C	 1.9332038622	-0.7519894043	-0.8646489668	-0.294898
C	 0.9359576572	-1.7174891105	-1.4260572735	 0.285359
C	 0.4404535509	-2.8721785158	-0.5773953404	-0.482766
C	 0.9886955856	-1.973067296	-2.9083180232	 0.061699
C	 1.34465449	-3.2648562769	-3.5099247148	-0.196242
O	-0.0147683167	-2.8240168817	-3.4724624391	-0.237326
H	 0.8157035952	 1.804755895	 0.5569322434	 0.117212
H	-0.4849379992	 2.0916438814	-0.6087260556	 0.127385
H	-0.8699575376	 1.7945647822	 1.101492617	 0.110333
H	-0.033210559	-0.5366627449	 0.9145269718	 0.082178
H	-1.3168755593	-0.2543112522	-0.2680693274	 0.108022
H	 2.7106727425	-0.3171899838	-1.4896405517	 0.108417
H	 2.226607799	-0.909585138	 0.1738905339	 0.103263
H	 0.3391912668	-2.5903042557	 0.4714622598	 0.11936
H	-0.5261265077	-3.2267195173	-0.9448238001	 0.14348
H	 1.1418127513	-3.7116202788	-0.6200231414	 0.120991
H	 1.1799598454	-1.0686551736	-3.4861042008	 0.095188
H	 1.8033311237	-3.2857813733	-4.4978144339	 0.114286
H	 1.5752437671	-4.1210144633	-2.8787665045	 0.111385
45.5372	81.8721	143.4401	149.211	186.2553	239.7498	278.0138	288.8341	344.3209	370.6954	435.8449	497.5605	565.8522	711.7267	760.6	814.2766	836.2714	862.0593	912.3095	936.7149	958.5836	987.2837	1036.5372	1065.6768	1092.0295	1105.7829	1108.3517	1120.4162	1156.0067	1172.4635	1175.4646	1201.4313	1272.8141	1309.2781	1324.9892	1355.8318	1381.9914	1405.3611	1414.7815	1440.2258	1480.9878	1487.9373	1490.8391	1502.5289	1511.1184	1517.9144	1531.526	2960.1817	3038.4777	3049.0147	3052.5804	3074.4658	3085.8686	3107.0967	3110.1088	3113.7412	3120.633	3141.5272	3158.5835	3171.0191
CCN1CC1(C)C1CO1	CCN1C[C@]1(C)[C@H]1CO1	
InChI=1S/C7H13NO/c1-3-8-5-7(8,2)6-4-9-6/h6H,3-5H2,1-2H3	InChI=1S/C7H13NO/c1-3-8-5-7(8,2)6-4-9-6/h6H,3-5H2,1-2H3/t6-,7-,8?/m1/s1
