21
gdb 94238	3.16395	0.98927	0.91291	3.6729	78.98	-0.2421	-0.0203	0.2218	1375.2548	0.179394	-424.226438	-424.216283	-424.215339	-424.262534	36.323	
C	-0.3648514482	 1.4416111479	-0.1399967081	-0.418479
C	 0.0774114056	-0.0123780075	-0.0707242703	-0.083509
C	 1.4207200498	-0.3977861992	-0.7255022934	-0.082107
O	 1.9015906187	-1.004316879	 0.4901013223	-0.327055
C	 0.7196656706	-0.5877811102	 1.2338154241	 0.397231
C	 1.0938845641	 0.4081192301	 2.3255183952	-0.435741
C	-0.0011393428	-1.8177040682	 1.8091047044	-0.316039
C	 0.8650371224	-2.6063327021	 2.7693025924	 0.151333
O	 0.5302495466	-2.9374310121	 3.8789047143	-0.247356
H	 0.4355741038	 2.1293532189	 0.1482916498	 0.12251
H	-0.6653258412	 1.6972475133	-1.16188471	 0.122213
H	-1.2245636317	 1.6309633249	 0.5113445922	 0.122878
H	-0.7394446733	-0.6556738945	-0.4108900831	 0.079639
H	 1.3793400883	-1.1130453627	-1.5550690998	 0.103548
H	 2.0423136082	 0.4563567522	-1.0272366392	 0.098822
H	 1.6525911565	 1.2519597974	 1.9147368472	 0.122666
H	 0.2016722945	 0.7917139884	 2.8313285207	 0.122624
H	 1.7247776216	-0.0750775242	 3.0782083529	 0.134717
H	-0.9274535109	-1.5317493584	 2.3173519138	 0.116097
H	-0.2524718458	-2.4871880598	 0.975396095	 0.116738
H	 1.8635185332	-2.875212735	 2.3623990894	 0.09927
39.6726	63.0982	77.5971	178.654	208.5509	217.9133	270.7731	282.2583	334.7307	381.6227	416.3753	476.279	530.7211	664.1675	745.7568	834.5624	878.6634	902.1658	917.4466	926.7651	989.473	1023.4825	1040.9619	1056.404	1115.0171	1136.388	1153.407	1174.1609	1197.7716	1213.9245	1263.9038	1293.7322	1314.9152	1346.0799	1388.7755	1412.7936	1417.1856	1421.1679	1449.2302	1480.1545	1488.4667	1499.6511	1505.8629	1528.5477	1827.1618	2907.4324	3005.2184	3022.2269	3033.4463	3041.4423	3047.7091	3064.4313	3094.2997	3097.0124	3108.5774	3108.8353	3127.624
CC1COC1(C)CC=O	C[C@H]1CO[C@]1(C)CC=O	
InChI=1S/C7H12O2/c1-6-5-9-7(6,2)3-4-8/h4,6H,3,5H2,1-2H3	InChI=1S/C7H12O2/c1-6-5-9-7(6,2)3-4-8/h4,6H,3,5H2,1-2H3/t6-,7+/m0/s1
