19
gdb 92545	2.28901	1.86212	1.50802	2.2745	69.23	-0.257	0.0638	0.3208	961.5962	0.161764	-460.154674	-460.147251	-460.146307	-460.186296	30.258	
O	 0.0579823266	 1.3851453996	 0.3260409321	-0.454403
C	 0.0582348793	 0.0005906707	-0.0214226318	 0.076186
C	 0.7704865964	-0.8627034491	 1.0268090859	-0.272048
C	-0.291121763	-1.0652091239	 2.1000296091	 0.116645
O	-0.6016990913	 0.1806675136	 2.8040265758	-0.319521
C	-2.0042705055	 0.0702075381	 2.4241651513	-0.094871
C	-1.6811989	-1.0357085077	 1.413652705	-0.091498
C	-1.4052188096	-0.5369964058	-0.0363069048	 0.119873
O	-2.3084469296	 0.4347945255	-0.5034695747	-0.444555
H	-0.0320652101	 1.4191574083	 1.2917186584	 0.297532
H	 0.5128585199	-0.0597721446	-1.0134547423	 0.087978
H	 1.0460904786	-1.8355036276	 0.6016531408	 0.109769
H	 1.6808577995	-0.3911311965	 1.4083798523	 0.121093
H	-0.0812035208	-1.870060959	 2.8115261941	 0.077378
H	-2.6131216252	-0.2561913098	 3.275115503	 0.108556
H	-2.4056694831	 1.0048288121	 2.0232238648	 0.114391
H	-2.3079241515	-1.9265445233	 1.4441163721	 0.078335
H	-1.4611215975	-1.3996402195	-0.7119521319	 0.079835
H	-1.8525946931	 1.2799752087	-0.3670447692	 0.289326
110.1547	202.122	264.8375	293.1319	353.1793	404.1998	479.1611	509.638	538.8194	655.2773	692.8005	761.6415	773.9826	825.3504	843.0882	895.328	910.6377	925.5006	983.4201	988.199	1029.2688	1040.3825	1086.527	1099.6808	1128.508	1164.1246	1182.9782	1214.0188	1240.795	1254.7949	1276.3529	1297.4782	1330.3482	1335.5365	1349.7748	1357.8471	1386.2262	1444.7262	1455.3284	1466.7278	1524.294	3025.4935	3033.6035	3039.7401	3059.597	3083.9743	3095.7219	3098.3576	3114.0084	3679.2415	3700.1034
OC1CC2OCC2C1O	O[C@H]1C[C@H]2OC[C@H]2[C@H]1O	
InChI=1S/C6H10O3/c7-4-1-5-3(2-9-5)6(4)8/h3-8H,1-2H2	InChI=1S/C6H10O3/c7-4-1-5-3(2-9-5)6(4)8/h3-8H,1-2H2/t3-,4+,5-,6-/m1/s1
