20
gdb 121471	2.73901	0.79936	0.70419	2.6345	85.72	-0.2469	0.0239	0.2708	1706.4312	0.167122	-403.114085	-403.103312	-403.102367	-403.151081	37.957	
C	 0.2419514963	 1.1224066288	 0.975437137	-0.375859
C	-0.2390089816	-0.1111745648	 0.223428195	-0.070034
O	 0.7775581049	-1.114879031	 0.1479133136	-0.202779
C	 0.8357363863	-1.9873387709	 1.1708068956	 0.129947
N	 1.7767227688	-2.8227389335	 1.2314057157	-0.251556
C	 1.8292127018	-3.7908366242	 2.3249381501	-0.082836
C	 3.2042064021	-3.6830003267	 3.0120691886	-0.368955
C	 0.745463976	-3.7147416767	 3.3163108524	 0.320113
C	-0.1382008346	-3.6388671505	 4.1293541917	-0.498773
H	 1.1507054245	 1.5199126617	 0.515360864	 0.137771
H	-0.5277358055	 1.9007411076	 0.9559551507	 0.120716
H	 0.4619605193	 0.8852190902	 2.0209894081	 0.127704
H	-1.1425859216	-0.5290768431	 0.6868276382	 0.109461
H	-0.479946524	 0.1336257089	-0.8145103299	 0.122224
H	 0.0117956577	-1.9090906609	 1.8918490558	 0.093534
H	 1.7763197346	-4.783983784	 1.8564189256	 0.118159
H	 3.303369614	-2.7137869532	 3.5081166777	 0.124116
H	 3.3260188326	-4.4725931398	 3.7582235517	 0.11925
H	 3.9891957606	-3.7703555214	 2.2573909647	 0.129618
H	-0.9141927521	-3.5913575064	 4.8530414538	 0.198179
36.7602	51.6278	115.2071	123.1208	183.7658	209.4575	234.37	241.8244	289.0196	353.1079	414.6802	434.6296	522.1561	552.2986	621.0871	648.8693	664.9755	800.8237	808.9813	893.3673	959.7548	1000.1128	1045.4617	1065.4132	1095.0271	1112.9923	1137.9395	1174.9764	1248.2744	1313.3668	1337.3799	1339.038	1394.9691	1398.6866	1408.8131	1425.3168	1485.0017	1485.4949	1493.0796	1494.7533	1512.5627	1764.165	2221.2161	3001.1661	3020.293	3038.3093	3041.2494	3048.1757	3090.7769	3114.9273	3126.0722	3127.0738	3135.1573	3500.8353
CCOC=NC(C)C#C	CCOC=N[C@@H](C)C#C	
InChI=1S/C7H11NO/c1-4-7(3)8-6-9-5-2/h1,6-7H,5H2,2-3H3	InChI=1S/C7H11NO/c1-4-7(3)8-6-9-5-2/h1,6-7H,5H2,2-3H3/t7-/m0/s1
