17
gdb 98771	3.6246	1.13965	1.01993	2.7147	68.37	-0.261	0.0139	0.2748	1201.9985	0.134615	-458.948522	-458.939914	-458.93897	-458.983323	30.448	
C	-0.1193502122	 1.3549727711	 0.3490758396	-0.239737
O	-0.2510702103	-0.0711664638	 0.4250852454	-0.228987
C	-1.3272371221	-0.5811301911	-0.2041104516	 0.452737
O	-2.1342579341	 0.0846502741	-0.8017583555	-0.3696
C	-1.3807981675	-2.0885009974	-0.0962766555	-0.162682
C	-0.8343774159	-2.8307730193	 1.1772106267	-0.272202
C	-2.2548882757	-3.3686145033	 1.3987289644	 0.0365
O	-3.1149487378	-2.2305020202	 1.5318062598	-0.240578
C	-2.7726589084	-2.6650575246	 0.2142608744	 0.032958
H	 0.7882880382	 1.5991359063	 0.9009804751	 0.132385
H	-0.0352991239	 1.6790616755	-0.6912843139	 0.140174
H	-0.9864510284	 1.8438486024	 0.7996403133	 0.145879
H	-0.9574875992	-2.5101966704	-1.0134994562	 0.115334
H	-0.1041251277	-3.6027547034	 0.9259683489	 0.110052
H	-0.4456988624	-2.1989861657	 1.9764428772	 0.126222
H	-2.5748497494	-4.2907134425	 1.8686214305	 0.109926
H	-3.5824456831	-2.8915727578	-0.4675529225	 0.111619
26.4085	97.6104	110.8654	161.112	184.2362	310.629	356.326	442.2928	505.4793	583.8317	746.7439	782.147	825.3388	850.0384	873.831	922.2538	934.8733	977.9302	1003.478	1039.4859	1053.9405	1077.5001	1140.1852	1178.3341	1187.4205	1209.363	1233.8562	1237.5824	1253.714	1272.7611	1338.5798	1390.1997	1471.2757	1479.5743	1480.351	1496.6444	1818.5797	3053.0327	3067.3681	3082.5327	3128.6969	3143.4327	3159.9453	3191.1651	3208.2335
COC(=O)C1CC2OC12	COC(=O)[C@H]1C[C@H]2O[C@@H]12	
InChI=1S/C6H8O3/c1-8-6(7)3-2-4-5(3)9-4/h3-5H,2H2,1H3	InChI=1S/C6H8O3/c1-8-6(7)3-2-4-5(3)9-4/h3-5H,2H2,1H3/t3-,4+,5-/m0/s1
