19
gdb 106838	2.24391	1.34252	0.99566	1.9174	71.49	-0.2364	0.0554	0.2918	1229.728	0.157862	-460.103225	-460.093876	-460.092932	-460.137798	34.342	
O	 0.0906886665	 1.138711799	-0.6692477789	-0.413084
C	 0.0040255937	-0.1930672339	-0.1729026251	-0.180122
C	-1.3967077791	-0.5951807526	 0.1717129908	 0.188501
C	-2.3953406262	-1.1224767814	-0.8592827235	-0.409102
C	-2.050523122	-1.9489739153	 0.3434728666	 0.398569
C	-1.5408940568	-3.3644726459	 0.3599781536	-0.184182
O	-0.8122769887	-3.6904727757	-0.8113528183	-0.40574
O	-2.8192139754	-1.5229064961	 1.4727499745	-0.330817
C	-2.1771402998	-0.2145797428	 1.426375883	-0.1286
H	-0.4839655919	 1.193641282	-1.4401352164	 0.281567
H	 0.4258658683	-0.9217563681	-0.8814721843	 0.105216
H	 0.6358033807	-0.2080775151	 0.7222614252	 0.110955
H	-3.3898246063	-0.6924339854	-0.946245548	 0.11442
H	-1.9352953491	-1.4323626943	-1.7932119348	 0.110091
H	-0.8541181085	-3.5021066613	 1.2014256356	 0.124429
H	-2.3919711366	-4.0442070306	 0.523707113	 0.108327
H	-1.4423654671	-3.7726413772	-1.5341129467	 0.290217
H	-1.5398021406	-0.069524018	 2.3063389481	 0.111506
H	-2.9049924413	 0.6013272627	 1.3563015957	 0.107848
59.7866	87.7295	120.6864	208.3841	233.3834	294.4125	310.4056	339.199	369.1579	411.8691	440.5519	526.4026	645.0509	759.7582	789.5163	855.4651	929.2363	944.5995	969.2851	980.1165	1021.6734	1040.9064	1055.0158	1067.0625	1083.0648	1129.3657	1149.9896	1164.1296	1211.4839	1263.456	1294.5652	1343.5855	1366.8932	1386.4241	1405.4649	1413.0039	1430.9655	1492.2214	1503.0015	1504.5494	1521.4155	2985.8	2994.9187	3026.4314	3065.7254	3075.1466	3078.191	3109.1397	3203.6714	3808.9266	3822.0811
OCC12CC1(CO)OC2	OC[C@@]12C[C@]1(CO)OC2	
InChI=1S/C6H10O3/c7-2-5-1-6(5,3-8)9-4-5/h7-8H,1-4H2	InChI=1S/C6H10O3/c7-2-5-1-6(5,3-8)9-4-5/h7-8H,1-4H2/t5-,6-/m1/s1
