14
gdb 14656	19.60527	0.56028	0.54841	1.6607	106.17	-0.231	-0.0452	0.1858	1948.0414	0.104834	-308.205763	-308.196919	-308.195975	-308.239458	30.886	
C	-0.0468200624	 1.5589403626	 0.0600174346	-0.369027
C	 0.0104633805	 0.0204105059	-0.013388082	-0.347688
C	 0.687201715	-0.470823409	-1.2026273025	 0.22859
C	 1.2542091431	-0.8674909531	-2.1994299085	-0.420213
C	 1.8860233435	-1.3078289082	-3.3098460794	 0.56892
C	 2.4558130342	-1.7048928515	-4.3112496026	-0.00525
C	 3.0885254202	-2.1458453003	-5.4229357916	 0.178247
C	 3.6541791145	-2.5397432345	-6.4172402195	-0.702249
H	 0.959489616	 1.9852571337	 0.0697960721	 0.135628
H	-0.5812515524	 1.9694165614	-0.8004434486	 0.135629
H	-0.5646643946	 1.8713744765	 0.9711650913	 0.12198
H	 0.5186047043	-0.3735479076	 0.876686544	 0.142088
H	-1.0078914264	-0.389247362	 0.014501902	 0.142091
H	 4.1505301043	-2.8862855539	-7.2894341494	 0.191253
59.1713	74.1131	147.7198	179.5757	248.6554	266.2487	362.2609	438.7108	475.4709	480.1152	539.6633	551.0554	579.2251	643.1978	649.8481	784.5687	880.4607	1007.0462	1079.6043	1099.4577	1280.2278	1299.4549	1356.0111	1410.0946	1466.928	1494.425	1504.8292	2153.5257	2295.5422	2339.7157	3017.2926	3045.8546	3048.933	3124.3488	3129.7923	3503.7192
CCC#CC#CC#C	CCC#CC#CC#C	
InChI=1S/C8H6/c1-3-5-7-8-6-4-2/h1H,4H2,2H3	InChI=1S/C8H6/c1-3-5-7-8-6-4-2/h1H,4H2,2H3
