23
gdb 63633	2.65644	1.12608	1.07594	1.3361	85.8	-0.2386	0.0771	0.3158	1301.5005	0.203519	-388.264564	-388.254542	-388.253598	-388.298906	39.086	
C	 0.1921812617	 1.5227980326	-0.4379176537	-0.452391
C	 0.0613269665	 0.0579589129	-0.0904734015	 0.407425
O	-1.2195319893	-0.4684519982	-0.3530716303	-0.469769
C	 1.2294183676	-0.8852575268	-0.2472953573	-0.372479
C	 0.6945915336	-0.543374415	 1.136223846	-0.124596
C	 1.477424118	 0.2336554257	 2.1741952902	 0.374088
C	 2.9024210632	 0.6332968098	 1.8341233944	-0.47606
C	 0.6861937615	 1.1621194031	 3.0749162667	-0.291961
C	 1.2191738852	-0.1385482472	 3.619294365	-0.313951
H	 1.1802948604	 1.9170869922	-0.1913912199	 0.122305
H	 0.0328389151	 1.6773315518	-1.5127112223	 0.103472
H	-0.5566227937	 2.112263882	 0.1002028613	 0.126142
H	-1.3420133892	-0.4766241486	-1.3093176415	 0.276185
H	 1.0262656811	-1.8797038089	-0.6294645999	 0.107699
H	 2.1855412617	-0.4692437936	-0.5472220564	 0.106757
H	 0.0692784434	-1.3260255149	 1.5566210633	 0.094678
H	 2.9583391836	 1.2954174064	 0.9627765972	 0.115065
H	 3.3603324997	 1.1665226124	 2.6730487081	 0.11062
H	 3.5189851789	-0.2466898987	 1.6202658229	 0.120115
H	 1.1545788916	 2.0859445456	 3.3989251903	 0.104343
H	-0.3820588479	 1.2396663156	 2.9038464671	 0.115963
H	 0.5106098496	-0.9349293673	 3.82209598	 0.110862
H	 2.0539221776	-0.101956841	 4.3116296703	 0.105488
59.0466	142.9507	160.826	212.5685	244.3901	291.0462	302.267	318.5077	338.6873	363.7717	405.6471	425.2895	456.0461	540.9369	697.0851	720.5626	786.1116	850.6337	860.1938	899.8227	921.3179	938.6147	951.4375	968.0934	985.8303	1038.8678	1054.4198	1072.1987	1076.9373	1081.0033	1102.2694	1113.4913	1131.5878	1192.3316	1238.2998	1286.195	1305.8757	1329.8712	1367.5917	1409.0371	1417.0278	1425.0906	1468.6071	1476.9559	1482.7852	1495.531	1501.9781	1507.9025	1508.3579	3024.9845	3026.6769	3085.0536	3090.3529	3099.7365	3124.4084	3128.3197	3129.2868	3130.8555	3143.3447	3203.395	3218.4329	3219.0104	3784.5485
CC1(O)CC1C1(C)CC1	C[C@@]1(O)C[C@H]1C1(C)CC1	
InChI=1S/C8H14O/c1-7(3-4-7)6-5-8(6,2)9/h6,9H,3-5H2,1-2H3	InChI=1S/C8H14O/c1-7(3-4-7)6-5-8(6,2)9/h6,9H,3-5H2,1-2H3/t6-,8+/m0/s1
