16
gdb 66544	3.08747	1.77417	1.4502	3.4247	71.44	-0.2372	-0.0271	0.2101	921.3568	0.124753	-400.668396	-400.661576	-400.660632	-400.699482	27.192	
C	-0.0588316138	 1.4472547262	 0.0117610312	-0.519209
C	-0.0549759364	-0.0471985855	-0.0676713628	 0.32695
C	-0.1186975157	-0.9879073169	 1.1863110793	-0.137368
C	 1.0165154232	-1.0535982053	 0.2131498084	-0.07609
N	 0.2380720533	-2.0977657195	-0.5924883998	-0.187974
C	-0.786266011	-2.2183300203	 0.5717683157	-0.148651
C	-1.8636122894	-1.6825519736	-0.3836624748	 0.466272
O	-3.0305762244	-1.8519676401	-0.5649876301	-0.316976
C	-0.7062264816	-0.9758873843	-1.1037243789	-0.204927
H	 0.5377104362	 1.7917790491	 0.8632718654	 0.12773
H	 0.3649482459	 1.8954980185	-0.8935083702	 0.130005
H	-1.0744299184	 1.8386918744	 0.1380895127	 0.13359
H	-0.1656482762	-0.5966048479	 2.1938665463	 0.102288
H	 2.0935307398	-1.0030560151	 0.3088757843	 0.105916
H	-0.8708725531	-3.1560117018	 1.1171036494	 0.100874
H	-0.7134539784	-0.7222750977	-2.1622639561	 0.097572
125.0454	202.8418	243.2003	282.192	401.9071	564.4417	584.2533	601.0657	679.1509	767.0972	785.1669	819.542	835.1708	878.1596	883.2144	906.6438	935.9337	964.3646	980.058	1033.6525	1070.2282	1092.1509	1101.9763	1129.8668	1161.1295	1166.7962	1198.5255	1215.7343	1236.1109	1283.5312	1409.5432	1433.1601	1483.8986	1499.5721	1906.1622	3027.0274	3090.4891	3097.2369	3139.5886	3144.4486	3192.125	3207.7726
CC12C3C1N1C3C(=O)C21	C[C@]12[C@@H]3[C@H]1N1[C@@H]3C(=O)[C@@H]21	
InChI=1S/C7H7NO/c1-7-2-3-4(9)6(7)8(3)5(2)7/h2-3,5-6H,1H3	InChI=1S/C7H7NO/c1-7-2-3-4(9)6(7)8(3)5(2)7/h2-3,5-6H,1H3/t2-,3-,5+,6-,7-/m0/s1
