23
gdb 42128	1.87521	1.79634	1.07863	1.1481	87.55	-0.2328	0.0272	0.26	1213.9391	0.208179	-388.288053	-388.279375	-388.278431	-388.321106	34.28	
C	 0.0080916447	 1.520305294	 0.0859448844	-0.209095
C	 1.4478154579	 2.0842338387	 0.0459730079	-0.171569
C	 1.904291903	 2.682588072	-1.3130910295	-0.250756
C	 2.4801650204	 1.7155626813	-2.3213905584	-0.040236
C	 1.8059783579	 0.9205435075	-3.1520738334	-0.014228
C	 0.3159578248	 0.7469298924	-3.1783385507	-0.273173
C	-0.1060326259	-0.5124697078	-2.3844865905	-0.063645
O	 0.5096577417	-0.626324306	-1.1194381093	-0.227405
C	-0.1337106491	-0.0037335684	-0.0272115773	-0.060075
H	-0.4506162573	 1.7814627402	 1.0488634847	 0.094834
H	-0.6093801953	 2.0187547372	-0.6704353651	 0.095079
H	 1.5130964296	 2.8888728156	 0.7869443452	 0.091716
H	 2.1597030155	 1.3145316784	 0.3655308476	 0.103536
H	 1.0571214712	 3.2289784844	-1.7472226543	 0.10117
H	 2.6681056837	 3.4398126769	-1.1040484739	 0.095291
H	 3.5674506698	 1.6798837434	-2.3601453039	 0.080444
H	 2.3711152419	 0.2715534751	-3.8192680204	 0.079277
H	-0.1838841164	 1.6295683862	-2.769810479	 0.100863
H	-0.0481110932	 0.6243833857	-4.2068395358	 0.095067
H	-1.2032678415	-0.5480342908	-2.2905700175	 0.084431
H	 0.2066449648	-1.4028741679	-2.942788995	 0.104
H	 0.3190730187	-0.4644910583	 0.8589695524	 0.103108
H	-1.2055233069	-0.2656322697	-0.0201169283	 0.081368
96.1545	158.8625	171.8426	210.7611	256.2539	299.7134	370.2118	419.9108	438.2917	510.2822	558.1807	593.2641	713.4573	751.6316	807.0766	841.1734	856.6659	902.2148	959.5009	978.2661	986.9607	1002.2444	1008.2881	1046.2142	1081.8463	1103.2216	1121.5232	1155.5672	1216.3715	1236.2768	1259.5931	1268.806	1293.0392	1297.3372	1327.3578	1349.5559	1354.626	1371.111	1385.5255	1404.176	1421.8446	1434.5361	1474.6197	1481.7402	1486.4205	1488.2378	1496.0798	1505.4958	1728.8016	2961.0563	2977.1628	3017.8255	3019.6789	3026.8162	3032.1523	3043.501	3050.8026	3059.8089	3067.3495	3072.6472	3092.2408	3126.7496	3151.1831
C1CCC=CCCOC1	C1CCC=CCCOC1	
InChI=1S/C8H14O/c1-2-4-6-8-9-7-5-3-1/h1,3H,2,4-8H2/b3-1-	InChI=1S/C8H14O/c1-2-4-6-8-9-7-5-3-1/h1,3H,2,4-8H2/b3-1-
