15
gdb 43572	3.34156	1.37888	1.10388	3.5781	73.35	-0.2556	0.0092	0.2648	1072.7983	0.113114	-416.752157	-416.744616	-416.743672	-416.784347	28.936	
N	-0.0452023405	 1.2019515795	 0.3687999254	-0.550074
C	-0.0171602577	-0.007990027	 0.015656032	 0.466716
O	 1.1062774018	-0.6882254318	-0.381533572	-0.25699
C	 0.7675751736	-1.9473146725	-1.0171112222	-0.066506
C	 1.6570937442	-3.0048467274	-0.5603390167	 0.33707
C	 2.3828890819	-3.9008736846	-0.2266348045	-0.437735
C	-0.7099340712	-2.168703043	-0.7017220737	-0.073056
N	-0.963066352	-2.154952733	 0.7390995941	-0.321033
C	-1.1893381989	-0.9219411943	-0.0642330288	-0.134283
H	 0.8844948274	 1.6197210887	 0.2994982597	 0.227602
H	 0.886958111	-1.8101636861	-2.1004686032	 0.120375
H	 3.023368412	-4.6885202378	 0.0859006395	 0.205722
H	-1.3096045356	-2.7689915591	-1.3752953192	 0.114264
H	-1.8653084386	-2.5868974647	 0.9266634645	 0.24474
H	-2.1827667976	-0.510481797	-0.180313055	 0.123188
90.672	129.1123	197.1499	275.3395	357.3554	404.0258	504.5663	541.9252	608.9258	631.0522	679.3181	716.238	778.1891	829.4527	851.7555	874.723	886.6428	913.1673	961.0324	1001.8225	1027.3278	1055.2575	1093.9644	1142.7233	1153.2997	1250.5575	1271.0378	1341.1794	1355.1752	1379.8294	1411.9317	1788.4788	2248.0198	3015.8549	3189.0857	3217.3198	3474.4057	3500.9369	3502.453
N=C1OC(C#C)C2NC12	[NH][C]1O[C@@H](C#C)[C@H]2N[C@@H]12	
InChI=1S/C6H6N2O/c1-2-3-4-5(8-4)6(7)9-3/h1,3-5,7-8H	InChI=1S/C6H6N2O/c1-2-3-4-5(8-4)6(7)9-3/h1,3-5,7-8H/t3-,4+,5+/m0/s1
