20
gdb 97611	2.15782	0.80714	0.61803	3.9035	87.56	-0.2566	0.0225	0.2791	1852.3909	0.168042	-403.125836	-403.114814	-403.11387	-403.16467	37.426	
C	 0.351624145	 1.5834439665	-0.2731978509	-0.366447
C	-0.1284603129	 0.1443735922	-0.5352425383	-0.315411
C	 0.644897673	-0.5431794001	-1.5636928064	 0.035138
C	 1.2915849963	-1.0953586595	-2.417285195	 0.110181
C	 2.0677553526	-1.7743009622	-3.4553815325	-0.057716
C	 2.1449198164	-3.2845711195	-3.2385895537	-0.390069
O	 1.4879066401	-1.5885858378	-4.7635502197	-0.182864
C	 1.5361467199	-0.3392397049	-5.2679146038	 0.133093
N	 1.0458986589	-0.1025226266	-6.4067543921	-0.441902
H	 1.3936812583	 1.5920696989	 0.0576292946	 0.12852
H	 0.2800604503	 2.1882728742	-1.1811530868	 0.129363
H	-0.2602562928	 2.0528464366	 0.5025239175	 0.118669
H	-0.0831359545	-0.4350173404	 0.3957211038	 0.133948
H	-1.1852686738	 0.1556430188	-0.8305398905	 0.137827
H	 3.0872670149	-1.3615544517	-3.4697564767	 0.107706
H	 2.7349170267	-3.7419877886	-4.0364566825	 0.131284
H	 2.6118808634	-3.5001093448	-2.2747291805	 0.128057
H	 1.1410961108	-3.7149545104	-3.2486707197	 0.142716
H	 2.024192603	 0.3865482032	-4.6043549261	 0.091118
H	 1.1747939342	 0.8800412759	-6.6397515107	 0.226788
13.3125	54.3382	78.829	101.1586	131.2902	190.4204	205.1474	232.1824	247.9422	339.819	406.4659	469.4226	511.8369	551.733	641.4042	721.2764	783.747	819.2732	899.8951	941.9789	1013.0906	1040.4544	1073.7023	1085.5597	1103.4411	1113.3035	1126.5441	1187.7594	1286.0659	1295.2092	1344.7327	1350.5275	1356.9747	1405.5459	1409.3612	1427.8516	1471.9387	1482.3443	1494.4363	1495.4374	1505.3557	1745.6574	2361.6734	2993.2558	3024.0452	3034.8029	3045.8735	3052.2477	3055.542	3119.9204	3124.5391	3137.0628	3141.0089	3515.0195
CCC#CC(C)OC=N	CCC#C[C@@H](C)O[CH][NH]	
InChI=1S/C7H11NO/c1-3-4-5-7(2)9-6-8/h6-8H,3H2,1-2H3	InChI=1S/C7H11NO/c1-3-4-5-7(2)9-6-8/h6-8H,3H2,1-2H3/t7-/m1/s1
