20
gdb 31519	3.02112	1.1203	0.87385	1.4837	83.97	-0.2152	0.0172	0.2325	1405.7671	0.169878	-403.21372	-403.203863	-403.202919	-403.249086	34.974	
C	-0.3660049466	 1.4204703472	-0.1640654392	-0.378142
C	 0.1517699012	-0.0188130734	-0.0018219717	-0.288489
C	 0.9089713087	-0.5076860531	-1.188383263	 0.370301
N	 2.1540931538	-0.8504315499	-1.2686710799	-0.35012
C	 2.3440365533	-1.2178785492	-2.6034227037	 0.168677
C	 3.6738111232	-1.6826045693	-3.0946944605	-0.495269
C	 1.1706000418	-1.0696624935	-3.269939205	 0.253182
C	 0.7135376691	-1.2821912995	-4.666050303	-0.497738
O	 0.2377398476	-0.6118361477	-2.3659408003	-0.215187
H	 0.4632593153	 2.1203620781	-0.3033163117	 0.128223
H	-1.0274936275	 1.5016133765	-1.0309339899	 0.130829
H	-0.926691683	 1.7276895374	 0.7233881401	 0.117089
H	 0.8238795598	-0.0935785095	 0.8562941703	 0.133088
H	-0.6948951849	-0.6908332716	 0.1863675919	 0.119416
H	 4.0030564595	-2.5731455107	-2.548366852	 0.136347
H	 3.6447626295	-1.9278843902	-4.1595077594	 0.118327
H	 4.4376660148	-0.9122659267	-2.942817125	 0.136114
H	-0.0979433993	-2.0173174552	-4.7179524514	 0.138212
H	 0.3431741856	-0.3536358148	-5.11589199	 0.137908
H	 1.5406626582	-1.647831605	-5.2784829368	 0.137233
42.6212	110.4856	120.3651	141.8299	195.9253	226.8456	250.7779	263.3867	298.6107	398.2868	476.1983	602.5694	639.197	669.8978	736.819	777.6411	795.5621	962.78	968.3065	993.7854	1017.9196	1062.4682	1068.7588	1081.6769	1104.14	1156.888	1224.4626	1269.1643	1312.0635	1350.5591	1370.5556	1408.3085	1422.0438	1424.0615	1471.6366	1474.2112	1475.3489	1491.7906	1492.3426	1497.3339	1507.3985	1625.5415	1688.1699	3028.3134	3033.7371	3035.139	3043.8535	3076.821	3088.3458	3103.3555	3116.2753	3117.6353	3126.6913	3129.0667
CCC1=NC(C)=C(C)O1	CCc1nc(C)c(C)o1	
InChI=1S/C7H11NO/c1-4-7-8-5(2)6(3)9-7/h4H2,1-3H3	InChI=1S/C7H11NO/c1-4-7-8-5(2)6(3)9-7/h4H2,1-3H3
