20
gdb 102480	2.82847	0.90614	0.77626	2.1749	73.21	-0.2423	0.0275	0.2698	1522.857	0.169537	-477.443846	-477.432941	-477.431997	-477.481151	37.663	
C	 0.1534280987	 1.444486291	 0.1411645015	-0.33588
N	 0.2977060177	 0.0053836194	 0.0367861574	-0.314581
C	 0.3932248156	-0.6411472536	-1.1600682937	 0.408507
O	 0.3906165075	-0.0603939496	-2.2342072279	-0.386921
C	 0.4613424398	-2.1648491404	-1.0624191673	-0.145545
C	-0.9672303502	-2.7546698321	-1.1827082983	-0.047629
O	-1.031690851	-4.1112118176	-0.8090204586	-0.43018
C	 1.3869786004	-2.6880522273	-2.1622916678	-0.08789
O	 1.4111480668	-4.1176721386	-2.0974205335	-0.431251
H	 0.981146924	 1.8876272877	 0.7058025748	 0.126352
H	 0.1593189119	 1.8443079875	-0.8733526867	 0.172364
H	-0.789041489	 1.7177199267	 0.6287340043	 0.1278
H	 0.3104487889	-0.5431901439	 0.8804182749	 0.249646
H	 0.8547769603	-2.4687045527	-0.0845160717	 0.08469
H	-1.6437065266	-2.2128937382	-0.5121074298	 0.101168
H	-1.3270864913	-2.5854430616	-2.2110471808	 0.09787
H	-0.3281061521	-4.5550214545	-1.3022861706	 0.28991
H	 1.0110694453	-2.3369521239	-3.1301691455	 0.124936
H	 2.4001188226	-2.2826584587	-2.0297243208	 0.100768
H	 1.8255072807	-4.4506286397	-2.8983637398	 0.295866
28.9025	82.3325	94.0477	114.278	122.2717	215.7819	226.2067	266.2456	280.3283	350.9648	362.5131	387.2786	483.1978	505.5723	572.3249	735.5395	764.1918	866.9609	916.1152	943.4171	1033.96	1061.487	1083.5487	1093.7846	1135.7328	1154.5213	1170.3123	1199.6185	1215.533	1262.3813	1288.1142	1304.7254	1372.825	1381.1967	1438.3247	1453.3378	1466.9278	1493.5913	1500.2969	1509.8345	1523.316	1561.4261	1765.9639	2970.9974	3001.8675	3028.6004	3035.1446	3059.4426	3067.6108	3080.76	3155.3606	3648.9253	3741.726	3838.4461
CNC(=O)C(CO)CO	CNC(=O)C(CO)CO	
InChI=1S/C5H11NO3/c1-6-5(9)4(2-7)3-8/h4,7-8H,2-3H2,1H3,(H,6,9)	InChI=1S/C5H11NO3/c1-6-5(9)4(2-7)3-8/h4,7-8H,2-3H2,1H3,(H,6,9)
