18
gdb 35087	3.11975	1.5148	1.17186	1.2861	82.38	-0.2173	0.011	0.2283	1067.5579	0.148543	-364.754388	-364.746708	-364.745764	-364.786494	30.325	
C	-0.0256300673	-1.2482707153	 0.0060664253	-0.467818
C	-0.0050515332	-0.0464599938	 0.0149089006	 0.336538
C	-0.019125374	 1.4145433181	 0.0174877258	-0.201856
C	-0.7162243667	 2.0312742148	 1.2314321808	-0.073444
C	 0.0155826746	 3.0160579241	 1.7440652648	-0.101421
C	 1.2939301388	 3.1972673846	 0.9673839214	-0.01734
C	 2.609836882	 2.7091699931	 1.624599496	-0.249376
C	 2.3706119487	 1.3758889628	 0.8757672658	-0.161815
N	 1.3306636518	 2.0312024458	 0.0267499585	-0.101928
H	-0.0388674273	-2.310103356	-0.0049181845	 0.198133
H	-0.5428368911	 1.7340050589	-0.8982710561	 0.115442
H	-1.6910360569	 1.7007393544	 1.5682540653	 0.110464
H	-0.2643455475	 3.6441587268	 2.5822479676	 0.103219
H	 1.3376482963	 4.1807583515	 0.4810269998	 0.081002
H	 3.4871838869	 3.2573537268	 1.2765289691	 0.109471
H	 2.6227197594	 2.6618827378	 2.7147270793	 0.103999
H	 3.2069327213	 0.9695376094	 0.3001065259	 0.105058
H	 1.9747301943	 0.5856651161	 1.5222366946	 0.111674
95.9332	142.8046	181.6141	261.5645	342.886	422.726	498.9088	535.9489	613.7871	658.4413	687.5295	697.6642	750.2423	769.2698	823.9862	869.2393	914.1552	919.932	958.059	964.0475	1012.836	1038.0464	1071.5774	1087.7417	1113.8552	1142.3249	1179.4325	1210.7346	1242.7567	1264.6223	1272.7341	1307.0083	1321.5299	1338.3872	1353.2692	1484.2641	1518.2077	1673.6049	2235.0117	2961.1306	3009.9362	3041.9339	3076.8399	3087.115	3132.5393	3192.6237	3221.3226	3502.8105
C#CC1C=CC2CCN12	C#C[C@H]1C=C[C@H]2CCN12	
InChI=1S/C8H9N/c1-2-7-3-4-8-5-6-9(7)8/h1,3-4,7-8H,5-6H2	InChI=1S/C8H9N/c1-2-7-3-4-8-5-6-9(7)8/h1,3-4,7-8H,5-6H2/t7-,8-/m0/s1
