19
gdb 28868	2.24568	1.76489	1.00053	1.805	86.58	-0.2112	0.0057	0.2169	1181.4804	0.1596	-385.972073	-385.96326	-385.962316	-386.005191	33.796	
C	-0.12056509	 1.5190807815	 0.0480472853	-0.503536
C	-0.0364282724	 0.0098079686	 0.0074564877	 0.25976
C	 0.0645112532	-0.6848518966	-1.2112491826	 0.082702
C	 0.0959434894	 0.0158868972	-2.5506613858	-0.544316
C	 0.1391740326	-2.0865599816	-1.183615951	 0.326916
O	 0.2386265612	-2.8271255743	-2.3273816919	-0.44013
C	 0.1152656045	-2.792957749	 0.0174732471	-0.20603
C	 0.0154372812	-2.0954280612	 1.212108029	-0.103481
C	-0.0597668543	-0.7057589517	 1.2068169527	-0.216721
H	 0.7605895493	 1.9928626199	-0.3999223238	 0.128279
H	-0.9969328743	 1.8972930998	-0.4909525084	 0.128278
H	-0.1931598593	 1.8715855118	 1.079730753	 0.122816
H	 1.0232544437	-0.1957760189	-3.1014179228	 0.130685
H	-0.741757788	-0.2908721154	-3.1926736316	 0.130699
H	 0.0323108553	 1.098848999	-2.4479488934	 0.134503
H	 0.246171914	-2.2401173573	-3.0891300933	 0.29438
H	 0.1755517071	-3.8746648207	-0.0124971081	 0.099602
H	-0.0038857622	-2.6370481449	 2.1521387931	 0.093058
H	-0.1377621911	-0.1649365062	 2.1442683348	 0.082538
89.3647	145.9346	177.6477	231.7291	273.1165	323.1406	328.4221	332.016	480.8678	500.7496	505.4352	547.8279	582.7514	676.8494	732.2591	795.1728	818.2025	881.4696	909.28	947.2145	1008.1071	1042.0788	1065.1485	1080.9371	1110.7783	1174.1614	1188.2263	1232.7246	1287.705	1323.8832	1362.4474	1407.7965	1416.847	1477.1062	1482.2252	1487.8946	1503.2803	1513.9754	1526.2295	1627.7372	1653.0792	3001.1477	3026.5732	3041.6322	3076.9878	3114.7128	3146.5548	3170.0693	3186.1384	3203.2047	3837.5766
CC1=C(C)C(O)=CC=C1	Cc1c(C)c(O)ccc1	
InChI=1S/C8H10O/c1-6-4-3-5-8(9)7(6)2/h3-5,9H,1-2H3	InChI=1S/C8H10O/c1-6-4-3-5-8(9)7(6)2/h3-5,9H,1-2H3
