15
gdb 125253	3.08138	1.41511	0.97672	5.9186	72.63	-0.2368	-0.0692	0.1675	1144.6443	0.112393	-453.964791	-453.956635	-453.955691	-453.997409	30.56	
C	-0.0347786029	 1.4955901773	-0.0190658723	-0.476418
C	-0.0517071879	 0.0010720879	 0.0161117373	 0.139191
C	-1.1482478299	-0.7669038324	-0.1093242515	-0.22221
C	-1.0232816444	-2.203947355	-0.0528995663	 0.395495
N	-2.1538094735	-2.9808986358	-0.2588819534	-0.559921
N	 0.0989864478	-2.8287487411	 0.1276763936	-0.17416
O	 1.2470881983	-2.0369199782	 0.2165522035	-0.258189
C	 1.2494961706	-0.6658601911	 0.1887927037	 0.415232
O	 2.3031696185	-0.0901133321	 0.3002883549	-0.338376
H	 0.6155653324	 1.8477350992	-0.8262169994	 0.15967
H	-1.0378981933	 1.904553811	-0.1579024679	 0.12287
H	 0.3930854397	 1.8912035616	 0.9078028523	 0.158082
H	-2.1319491278	-0.3321845074	-0.2634983032	 0.115421
H	-2.9980416512	-2.6294764804	 0.170202188	 0.25758
H	-1.9989378064	-3.9612665234	-0.0623492992	 0.265733
100.9831	144.3564	192.3934	272.1678	310.8518	351.5326	370.1723	378.8284	477.3624	501.095	583.0218	607.9172	687.0933	703.9346	780.4697	812.7561	913.6047	940.9949	1004.1434	1050.365	1067.016	1091.626	1183.1487	1206.4282	1357.3048	1414.9304	1445.8093	1465.4546	1485.132	1607.6662	1644.3107	1712.4841	1812.5384	3044.1838	3102.2331	3133.4972	3167.3393	3552.1946	3657.2904
CC1=CC(N)=NOC1=O	Cc1cc(N)noc1=O	
InChI=1S/C5H6N2O2/c1-3-2-4(6)7-9-5(3)8/h2H,1H3,(H2,6,7)	InChI=1S/C5H6N2O2/c1-3-2-4(6)7-9-5(3)8/h2H,1H3,(H2,6,7)
