23
gdb 122115	2.11442	0.83106	0.62931	2.1795	84.2	-0.2417	-0.0283	0.2134	1855.3479	0.201808	-425.438096	-425.426601	-425.425657	-425.476341	39.473	
C	 0.2511687111	 1.5242777281	 0.0418005807	-0.383825
C	 0.1021988699	 0.0221042375	-0.2112573882	-0.183865
C	-1.3042557115	-0.4791875292	 0.0825501822	-0.047259
O	-1.3550471132	-1.8720213352	-0.1840405255	-0.25691
C	-2.6179151212	-2.4587769249	 0.0481760549	 0.047557
C	-2.6490739625	-3.8327469543	-0.6381797047	-0.195428
C	-2.4670382562	-3.7382049531	-2.1546505613	-0.388759
C	-2.8551607121	-2.6446980209	 1.5448945448	 0.133485
O	-3.9383068022	-2.7578920592	 2.05567	-0.246738
H	 1.2687108184	 1.8591022137	-0.1781761033	 0.120091
H	-0.4325752654	 2.1055320308	-0.586545791	 0.11839
H	 0.0372225812	 1.7771902165	 1.08606653	 0.119085
H	 0.343796359	-0.2150664668	-1.253693601	 0.108777
H	 0.8090456432	-0.5407904268	 0.4089485338	 0.10844
H	-1.5708171998	-0.2735928813	 1.1332201777	 0.091532
H	-2.0426874004	 0.0494913003	-0.5433226088	 0.092444
H	-3.4288649666	-1.8306954344	-0.3547098114	 0.086364
H	-1.8571925388	-4.4550717852	-0.2032637883	 0.108444
H	-3.6045331533	-4.306621601	-0.3891896234	 0.119213
H	-1.5215272483	-3.2487769018	-2.3990461055	 0.135132
H	-2.4675608135	-4.7341306999	-2.6072974337	 0.115721
H	-3.2770435503	-3.1606727839	-2.6134146296	 0.114988
H	-1.9093404976	-2.707884959	 2.1336037817	 0.083122
44.7958	59.4362	75.7987	102.0224	129.8428	146.1283	212.5686	231.8147	232.1821	286.2999	319.2584	372.6892	438.8989	485.565	594.7281	765.2201	780.0219	864.4113	901.5113	913.7998	963.0219	984.3576	1024.1608	1048.1644	1078.0041	1115.8022	1134.4788	1159.6204	1179.0366	1191.6201	1267.8735	1275.9297	1300.2883	1317.5458	1331.0685	1347.1683	1374.3062	1398.79	1406.2856	1413.2207	1441.1753	1480.3163	1491.8764	1494.6486	1500.473	1506.9761	1509.1507	1526.1223	1836.2778	2858.3441	2954.1045	2981.7285	2983.7902	3033.2629	3034.492	3039.8257	3040.1965	3072.9278	3081.3315	3101.6209	3106.0009	3110.6375	3130.4313
CCCOC(CC)C=O	CCCO[C@@H](CC)C=O	
InChI=1S/C7H14O2/c1-3-5-9-7(4-2)6-8/h6-7H,3-5H2,1-2H3	InChI=1S/C7H14O2/c1-3-5-9-7(4-2)6-8/h6-7H,3-5H2,1-2H3/t7-/m0/s1
