17
gdb 123432	5.18708	0.89583	0.79121	3.9966	73.68	-0.2541	-0.0126	0.2415	1393.8014	0.137639	-417.968274	-417.960481	-417.959537	-418.002147	28.529	
C	 0.047619958	 1.3480636553	 0.5217880842	-0.367652
C	-0.0675122552	-0.0933259626	 0.0661438097	 0.040804
C	-1.3849242205	-0.6788747909	-0.2729455116	-0.251428
N	-0.3963412688	-0.4083001242	-1.3361157374	-0.314119
C	 1.3890235123	 1.9537150286	 0.2194609506	 0.153103
C	 2.1578547974	 2.7666791341	 0.9920619422	-0.015537
O	 3.2910871881	 3.104459115	 0.3596894358	-0.16295
N	 3.3047344389	 2.4962636124	-0.8909362048	-0.131305
C	 2.1835140844	 1.8241972993	-0.9604850512	-0.039329
H	-0.7516407045	 1.9306664687	 0.0409733344	 0.109846
H	-0.1405046393	 1.4094193194	 1.6004840387	 0.117511
H	 0.6928187079	-0.7542843914	 0.4779375133	 0.10221
H	-1.5808046237	-1.7305063163	-0.0859861959	 0.12388
H	-2.2601374301	-0.0372938734	-0.2035486723	 0.112381
H	-0.6609460748	 0.4446605017	-1.8253063665	 0.227922
H	 2.0328145967	 3.1756739742	 1.9831522807	 0.149362
H	 1.9715131334	 1.2455443501	-1.8487964	 0.145301
31.5924	84.3873	122.3746	277.9876	308.8891	350.1993	448.4516	616.0088	656.5995	719.2127	790.5462	827.286	844.0555	900.6281	918.6078	929.6761	936.8209	942.6119	981.8738	1024.1394	1050.3308	1126.3103	1142.7524	1155.1853	1176.9516	1210.0074	1253.5466	1263.2583	1277.0396	1308.6461	1330.3354	1396.8737	1427.254	1472.4127	1479.1253	1512.6137	1650.4511	3000.8157	3053.1613	3108.6204	3128.3062	3194.5351	3244.538	3260.4381	3481.2246
C(C1CN1)C1=CON=C1	C([C@H]1CN1)c1conc1	
InChI=1S/C6H8N2O/c1(6-3-7-6)5-2-8-9-4-5/h2,4,6-7H,1,3H2	InChI=1S/C6H8N2O/c1(6-3-7-6)5-2-8-9-4-5/h2,4,6-7H,1,3H2/t6-/m0/s1
