19
gdb 109226	4.63409	0.91373	0.82164	2.3408	78.07	-0.2324	0.03	0.2624	1404.5597	0.15833	-423.012255	-423.003452	-423.002508	-423.046306	32.731	
O	 0.0050579963	 1.4156171475	 0.0877456727	-0.413716
C	-0.0134555046	 0.0037397993	-0.0121469424	-0.175965
C	-1.4242360748	-0.4855088622	-0.0449680592	 0.309811
C	-2.5317594901	 0.257833121	-0.0165695649	-0.158457
C	-3.7887397056	-0.5733447226	-0.0483107363	-0.345103
C	-3.2563200682	-1.9913452949	-0.283951763	 0.432762
C	-4.0684227892	-3.2029272975	-0.150412829	-0.248303
O	-3.7455703853	-2.6796019841	-1.4418402029	-0.266864
C	-1.735470256	-1.9643678793	-0.0965562129	-0.396594
H	 0.9212573196	 1.7050357116	 0.0664459508	 0.289992
H	 0.5092215326	-0.3428018831	-0.9218725725	 0.097135
H	 0.5132139761	-0.4669538159	 0.8382260321	 0.092382
H	-2.5364411234	 1.3385985766	 0.0383271844	 0.109078
H	-4.3512566044	-0.4976735383	 0.8927440774	 0.108786
H	-4.4789819145	-0.2932483385	-0.8526246908	 0.122709
H	-3.5930248888	-4.1506063309	 0.1037255447	 0.106659
H	-5.1164743354	-3.1240525869	 0.139123365	 0.108418
H	-1.2448607392	-2.4874733351	-0.9265514533	 0.119653
H	-1.4261184751	-2.4738104467	 0.8272206302	 0.107616
47.4329	94.6478	180.0752	200.6221	232.1025	304.473	349.5854	397.2085	431.6452	437.2445	554.4866	667.6211	779.3908	806.4665	837.2086	879.9885	907.3302	954.5452	963.6121	996.5584	1018.7284	1062.744	1073.2034	1126.3766	1147.7536	1158.5962	1173.3449	1204.2754	1213.0657	1230.5385	1254.5535	1278.0949	1296.2369	1334.0087	1424.5113	1468.2299	1472.8969	1479.0309	1507.5418	1533.6629	1726.9253	2934.1596	2947.4111	3005.2348	3009.5949	3051.5062	3057.4285	3070.1817	3152.8931	3223.6596	3840.0732
OCC1=CCC2(CO2)C1	OCC1=CC[C@]2(CO2)C1	
InChI=1S/C7H10O2/c8-4-6-1-2-7(3-6)5-9-7/h1,8H,2-5H2	InChI=1S/C7H10O2/c8-4-6-1-2-7(3-6)5-9-7/h1,8H,2-5H2/t7-/m1/s1
