21
gdb 41491	3.20716	1.37621	1.01774	1.301	84.78	-0.2218	0.0319	0.2536	1203.6728	0.185773	-387.12043	-387.112598	-387.111654	-387.152782	30.799	
C	 0.0095192238	 1.517063516	-0.0636443624	-0.203214
C	 1.5107361365	 1.9067564978	 0.0068221505	-0.317581
C	 2.1537889967	 0.6845219879	 0.6180522258	 0.24417
C	 1.3245684528	-0.3621311537	 0.628608715	 0.225468
C	-0.0298039647	-0.0314968928	 0.0512947745	-0.318945
C	 1.7459929739	-1.7175234914	 1.1083808047	-0.185155
O	 3.1483951237	-1.8155824408	 1.2987550255	-0.246308
C	 3.6974722339	-0.6914076304	 1.9658099144	-0.075074
C	 3.5603259091	 0.5887480109	 1.1287667839	-0.329834
H	-0.5189932058	 1.9570512131	 0.7875871405	 0.104601
H	-0.4807182385	 1.8834760069	-0.9689751581	 0.097253
H	 1.9304386166	 2.1093841093	-0.9896162911	 0.102339
H	 1.6785713029	 2.8166987193	 0.5960346412	 0.096568
H	-0.8620862394	-0.381834081	 0.6743785818	 0.099284
H	-0.161442618	-0.5138027283	-0.9286018952	 0.103027
H	 1.2107191355	-1.9772017788	 2.0416986097	 0.091328
H	 1.4866508089	-2.4913003025	 0.3744818822	 0.112683
H	 3.2014944613	-0.5461102824	 2.9401231438	 0.085974
H	 4.7467766034	-0.935246641	 2.154328759	 0.104237
H	 4.2770538038	 0.5777843834	 0.2953567042	 0.110965
H	 3.8187174336	 1.4608098683	 1.7447932001	 0.098214
103.0117	144.3457	176.8222	278.6756	316.0255	333.879	440.9658	494.8865	522.846	613.0362	695.105	727.3377	842.0841	860.288	898.4491	912.1004	921.5207	973.8668	975.1054	1015.4426	1049.1999	1087.0659	1098.9558	1126.9405	1153.0912	1169.9846	1192.0125	1213.3096	1240.3235	1253.1837	1257.8764	1309.2959	1320.2705	1329.0575	1337.3252	1372.3696	1400.747	1422.2454	1471.0839	1484.2466	1486.0224	1491.5172	1499.8472	1508.0821	1744.0334	2921.706	2965.6533	2997.2019	2997.4422	3005.1574	3034.1892	3036.3153	3037.3455	3039.2329	3059.7815	3085.6449	3101.3986
C1CC2=C(C1)COCC2	C1CC2=C(C1)COCC2	
InChI=1S/C8H12O/c1-2-7-4-5-9-6-8(7)3-1/h1-6H2	InChI=1S/C8H12O/c1-2-7-4-5-9-6-8(7)3-1/h1-6H2
