21
gdb 120609	4.39428	0.70274	0.67206	2.8274	81.85	-0.2528	-0.033	0.2198	1753.635	0.178698	-424.231099	-424.220436	-424.219491	-424.267921	37.267	
C	-0.0411199188	 1.5509805878	 0.0336742102	-0.384253
C	-0.0302951594	 0.0263925823	-0.0980289677	-0.160307
C	 1.0280511395	-0.4771577881	-1.0919365915	-0.220721
C	 1.030842371	-1.9834220626	-1.1915259947	 0.017611
O	 0.005653314	-2.6126695255	-1.9540838607	-0.286682
C	 1.363251289	-2.7474847837	-2.4233415171	 0.265894
C	 1.73484913	-2.1227571069	-3.7430692663	-0.471898
C	 1.8974605422	-4.1287760298	-2.1753691691	 0.126655
O	 2.7589402637	-4.6533828979	-2.8331963587	-0.254256
H	 0.9265892501	 1.9265566133	 0.384606541	 0.115538
H	-0.2525606958	 2.0301728546	-0.928516527	 0.118028
H	-0.8043418548	 1.8815240902	 0.7445396697	 0.117349
H	 0.150692649	-0.4278204417	 0.8848167734	 0.098772
H	-1.0150937259	-0.3283044628	-0.4240968721	 0.117231
H	 0.846331892	-0.0340467667	-2.0752723228	 0.107863
H	 2.0256010566	-0.1489319739	-0.770043185	 0.106395
H	 1.2250513092	-2.4870680267	-0.2394161942	 0.090279
H	 1.2999831746	-1.1298209745	-3.8564666056	 0.129119
H	 2.8226236664	-2.0534023901	-3.8286673787	 0.142569
H	 1.381983214	-2.7519768704	-4.5653302967	 0.140616
H	 1.4108902433	-4.6383922869	-1.3136241363	 0.0842
48.6231	75.338	77.8674	99.9924	132.0879	242.795	245.9398	256.6712	291.3675	313.8412	401.8598	458.8818	521.1397	584.4844	737.6228	755.501	811.0379	863.1435	897.0566	908.2211	975.2076	1013.1329	1046.6316	1075.0571	1088.8889	1111.3441	1155.2324	1159.4046	1262.2532	1273.1579	1305.0067	1328.8761	1340.1801	1385.1503	1404.5518	1413.7716	1421.7279	1460.5427	1468.5232	1481.8164	1492.1135	1498.4729	1500.7586	1508.9943	1826.916	2888.7249	3021.4861	3026.1417	3031.346	3056.6487	3058.7171	3060.3954	3092.2293	3102.0605	3106.1146	3120.1988	3154.077
CCCC1OC1(C)C=O	CCC[C@H]1O[C@]1(C)C=O	
InChI=1S/C7H12O2/c1-3-4-6-7(2,5-8)9-6/h5-6H,3-4H2,1-2H3	InChI=1S/C7H12O2/c1-3-4-6-7(2,5-8)9-6/h5-6H,3-4H2,1-2H3/t6-,7-/m1/s1
