22
gdb 88557	3.37739	1.15225	1.0773	1.2082	86.61	-0.2179	0.0895	0.3074	1245.8863	0.194742	-367.148737	-367.14003	-367.139086	-367.182276	33.867	
C	 3.0548739926	-0.7504239343	 0.373931512	-0.315238
N	 1.6536172552	-1.1484062969	 0.3269963178	-0.085747
C	 1.2067398072	-2.1149840758	 1.3210023013	-0.261184
C	 0.7506505834	-0.6963297909	 1.4015299595	-0.127983
C	 1.1626655023	 0.241425307	 2.4820658459	 0.394423
C	 1.9911022377	-0.093412875	 3.6939452277	-0.323039
C	 0.5887110703	 0.4049885294	 3.9025905852	-0.114324
C	 0.5382764015	 1.9266814553	 3.743443047	-0.221226
C	 1.1336597149	 1.7744397702	 2.306603088	-0.290602
H	 3.4882359556	-0.7188265205	 1.3841653715	 0.110156
H	 3.6372624268	-1.4576406698	-0.2257845463	 0.118856
H	 3.1628178297	 0.2415974242	-0.0768836317	 0.1208
H	 0.5309647021	-2.8900452031	 0.9670540981	 0.110658
H	 1.9307521832	-2.4534736745	 2.0603281766	 0.103211
H	-0.2456638322	-0.479454753	 1.0137836257	 0.083673
H	 2.1363131411	-1.1494784409	 3.8930273681	 0.111453
H	 2.8423135688	 0.5299203045	 3.9634978881	 0.100968
H	-0.154395886	-0.2072518747	 4.400291655	 0.086482
H	-0.477766271	 2.3271139602	 3.7285640754	 0.103246
H	 1.1267607395	 2.5015088815	 4.466485647	 0.09508
H	 2.1004420325	 2.251248557	 2.1132474405	 0.094325
H	 0.4312822545	 2.0928465801	 1.5323017077	 0.106012
51.8453	126.136	179.4181	217.1888	224.6454	333.8011	357.0856	395.4058	451.097	490.2604	674.1984	711.7896	761.0118	785.3231	832.7728	869.7318	893.1165	932.2457	939.1276	971.0151	987.2592	1023.8642	1037.1937	1041.9468	1085.3983	1096.9744	1106.7727	1130.703	1140.1865	1159.6482	1173.4287	1201.1181	1209.7947	1224.7427	1246.2491	1274.7044	1289.1002	1332.1096	1386.1568	1429.3207	1447.5225	1481.2155	1485.817	1491.1321	1498.7104	1507.8247	1513.7973	2994.7462	3039.9192	3048.235	3068.52	3086.8055	3091.6863	3092.5613	3096.9539	3099.1255	3111.2875	3172.1978	3176.7554	3203.3475
CN1CC1C12CC1CC2	CN1C[C@H]1[C@]12C[C@H]1CC2	
InChI=1S/C8H13N/c1-9-5-7(9)8-3-2-6(8)4-8/h6-7H,2-5H2,1H3	InChI=1S/C8H13N/c1-9-5-7(9)8-3-2-6(8)4-8/h6-7H,2-5H2,1H3/t6-,7+,8-,9?/m1/s1
