13
gdb 49013	3.25766	1.39813	1.13104	1.4986	59.46	-0.2795	-0.0695	0.21	1017.7475	0.087672	-493.689855	-493.682476	-493.681532	-493.722233	26.434	
O	-0.7301465148	 1.0760127531	 0.8383192548	-0.241412
C	 0.1251131249	 0.8472943362	 0.0220867009	 0.086114
C	 1.3378861985	 1.7092588771	-0.1438252214	 0.278933
C	 1.78408825	 2.69779524	 0.9404868348	-0.127974
O	 1.9608064269	 3.7608638653	-0.0376125375	-0.273487
C	 1.491378173	 2.9301401281	-1.101543	-0.117001
C	 2.6186868668	 2.0743841185	-1.7198525601	 0.445971
O	 3.4143682189	 2.1436257666	-2.5917332478	-0.294912
O	 2.4400798727	 1.0376853381	-0.8116656373	-0.288376
H	 0.073889272	-0.0113818893	-0.6789256405	 0.111049
H	 0.9822433045	 2.940158994	 1.6429449187	 0.14935
H	 2.7092079807	 2.4407446184	 1.4624309904	 0.138059
H	 0.7412164158	 3.3912614339	-1.744650395	 0.133687
94.7812	116.752	205.2098	237.6196	277.1226	388.4417	442.8524	498.6224	674.5467	726.8068	758.4091	805.0878	856.6672	953.9906	960.4004	997.6961	1008.0159	1052.418	1107.142	1144.4075	1169.5778	1198.8405	1259.9651	1281.4923	1346.0444	1406.7178	1495.8997	1821.1975	1957.4149	2927.7984	3061.4517	3121.9218	3128.3751
O=CC12COC1C(=O)O2	O=C[C@]12CO[C@H]1C(=O)O2	
InChI=1S/C5H4O4/c6-1-5-2-8-3(5)4(7)9-5/h1,3H,2H2	InChI=1S/C5H4O4/c6-1-5-2-8-3(5)4(7)9-5/h1,3H,2H2/t3-,5-/m0/s1
