13
gdb 128965	4.08219	1.7389	1.21945	6.3466	76.89	-0.2299	-0.063	0.1669	914.8858	0.093526	-411.791918	-411.786127	-411.785183	-411.821974	23.286	
N	 0.0330159094	 1.2721444885	 0.0091589963	-0.205314
C	 1.1263692954	 2.059309185	 0.0025845501	-0.08367
C	 2.3391645838	 1.4223831874	-0.0127764517	 0.260911
C	 3.7113225054	 1.7222529239	-0.0245972252	-0.333724
C	 4.3330449921	 0.4727703239	-0.0376916972	-0.015732
N	 3.4805823993	-0.5946542658	-0.0350544245	-0.316929
C	 2.2704416865	-0.0450391562	-0.0199274567	 0.367713
N	 1.1073789684	-0.7303770138	-0.0121683277	-0.251649
N	-0.0103277737	-0.0927930449	 0.0022660573	-0.089599
H	-0.894259081	 1.6705947452	 0.0204691205	 0.291296
H	 0.9552798185	 3.1307360631	 0.0100570659	 0.155558
H	 4.1825885756	 2.6931102019	-0.0239213998	 0.107023
H	 5.4022460204	 0.2966820919	-0.0492634471	 0.114115
213.0688	252.4389	393.6427	454.5939	585.7372	608.5518	621.1804	622.7872	700.4268	763.8964	778.7051	814.2032	873.103	913.036	930.3161	946.0359	953.208	1075.9304	1139.2613	1202.2184	1252.2868	1314.1188	1369.8926	1378.6708	1418.7837	1452.3017	1525.2022	1559.5612	1663.3325	3185.8737	3209.3294	3251.8777	3629.5818
N1C=C2C=CN=C2N=N1	[nH]1cc2ccnc2nn1	
InChI=1S/C5H4N4/c1-2-6-5-4(1)3-7-9-8-5/h1-3H,(H,6,7,8)	InChI=1S/C5H4N4/c1-2-6-5-4(1)3-7-9-8-5/h1-3H,(H,6,7,8)
