14
gdb 117028	4.48149	0.81535	0.69585	4.5926	65.9	-0.2839	-0.1359	0.148	1524.1336	0.096857	-473.82284	-473.813146	-473.812202	-473.858849	31.655	
C	-0.0628315437	 1.4029238552	 0.0102960925	-0.232031
O	 0.0087879507	-0.008461511	 0.0019896735	-0.218296
C	-1.2423298834	-0.6128185492	 0.0107522735	-0.157404
C	-1.0759452891	-2.1170508749	 0.0009856699	 0.269855
O	-0.0324217958	-2.7121023239	-0.0122973639	-0.234599
C	-2.3989805273	-2.9075671506	 0.0094558393	 0.195711
O	-3.4829940677	-2.3836534402	 0.0227283163	-0.244626
C	-2.239500822	-4.3717604272	-0.0000147828	 0.269515
N	-2.1665639017	-5.5253825693	-0.0069700743	-0.286445
H	 0.9638492952	 1.7731077085	 0.0024198732	 0.143489
H	-0.5906634084	 1.7874967673	-0.8753717151	 0.114667
H	-0.5734918464	 1.7778617561	 0.9100504773	 0.114667
H	-1.8447367147	-0.3410184469	 0.8972079181	 0.132749
H	-1.8616570858	-0.3314788138	-0.8609445676	 0.132749
40.4212	88.294	90.549	105.5913	179.8721	234.6694	255.6892	263.7865	361.7771	393.7083	416.0469	494.6666	673.4785	710.4626	800.8371	925.0705	1006.1867	1035.0131	1174.871	1182.4947	1216.6115	1242.3503	1244.2698	1412.595	1457.7847	1488.3281	1489.2161	1511.3366	1788.4396	1832.3722	2343.3941	2945.6625	2962.081	2982.5092	3032.3095	3132.528
COCC(=O)C(=O)C#N	COCC(=O)C(=O)C#N	
InChI=1S/C5H5NO3/c1-9-3-5(8)4(7)2-6/h3H2,1H3	InChI=1S/C5H5NO3/c1-9-3-5(8)4(7)2-6/h3H2,1H3
