18
gdb 32073	2.7679	1.2293	0.87683	1.4542	82.08	-0.2482	-0.024	0.2242	1310.8427	0.148803	-402.008809	-402.000091	-401.999147	-402.043331	31.576	
C	 0.1743850701	 1.4646216103	-0.0911173371	-0.495031
C	 0.0811451045	-0.0386703029	-0.0393106332	 0.269302
C	 0.15799972	-0.8204893448	-1.1917862115	-0.230287
C	 0.0679774194	-2.2078993757	-1.1019955233	 0.203233
C	 0.1231957889	-3.0793513778	-2.3381655842	-0.160013
O	 0.9970320392	-2.5829808864	-3.3402998851	-0.406308
C	-0.0852873542	-2.7612624146	 0.1705531123	-0.071129
N	-0.1657082225	-2.0421664224	 1.2904026843	-0.272516
C	-0.0855024016	-0.7154780856	 1.1720805516	-0.060131
H	 1.1358805576	 1.791188658	-0.5028167431	 0.134575
H	-0.6087546002	 1.8914129215	-0.727218071	 0.135962
H	 0.0718225236	 1.9019054893	 0.9056192493	 0.12842
H	 0.2961326683	-0.3600605009	-2.1659192937	 0.110157
H	 0.3771551821	-4.1111690779	-2.050868869	 0.099603
H	-0.8632011043	-3.1185842986	-2.815604344	 0.129221
H	 1.8805958874	-2.5377782817	-2.959331102	 0.284565
H	-0.1431213469	-3.8424696377	 0.2888800196	 0.099786
H	-0.1522063114	-0.148483462	 2.0992392802	 0.10059
45.0238	55.4321	152.2255	207.718	233.2449	332.5247	354.3141	421.0245	457.9439	512.1556	540.9984	626.2357	728.4949	747.3752	894.8491	948.9572	968.0774	970.8496	999.176	1021.4823	1045.6347	1067.5798	1069.1649	1176.8457	1191.9092	1208.3365	1280.8989	1297.3527	1342.768	1380.2063	1412.3848	1415.9691	1458.5896	1477.3464	1484.183	1497.9873	1505.7118	1613.8784	1637.7366	2988.7943	3032.5015	3052.972	3087.1636	3114.7415	3134.0965	3140.8471	3175.4247	3807.7525
CC1=CC(CO)=CN=C1	Cc1cc(CO)cnc1	
InChI=1S/C7H9NO/c1-6-2-7(5-9)4-8-3-6/h2-4,9H,5H2,1H3	InChI=1S/C7H9NO/c1-6-2-7(5-9)4-8-3-6/h2-4,9H,5H2,1H3
