21
gdb 93782	2.34845	1.39743	1.07134	1.8593	79.13	-0.2374	-0.0147	0.2227	1221.4869	0.182365	-424.264096	-424.254965	-424.254021	-424.297789	34.633	
C	-0.0340915719	 1.5421273418	 0.0554735033	-0.402217
C	 0.0034413334	 0.0225638078	 0.01634765	 0.125276
C	 0.6799875794	-0.5252882307	-1.2587337576	-0.303999
C	 0.8997449381	-2.0291790031	-1.1727034355	 0.36915
O	 0.6441864789	-2.7785286758	-2.0866340747	-0.317841
C	 1.4565624545	-2.5196030906	 0.1620465146	-0.080138
C	 2.9691218494	-2.2455116243	 0.2617148852	-0.405945
C	 0.6858775411	-1.8287493226	 1.3057554925	-0.101504
O	 0.7007974924	-0.4199074632	 1.1737909903	-0.253199
H	 0.9823370385	 1.9477389283	 0.038631137	 0.124703
H	-0.5798221356	 1.9350192477	-0.8073227215	 0.120112
H	-0.5270817589	 1.8867183395	 0.9682104412	 0.126962
H	-1.0284169746	-0.3690829411	 0.0549502324	 0.074523
H	 0.0924905023	-0.3056255471	-2.1538407317	 0.118711
H	 1.6578718729	-0.0367848796	-1.3643100149	 0.124037
H	 1.2783708698	-3.5990647977	 0.2017090114	 0.092382
H	 3.171005685	-1.1727632046	 0.3198479498	 0.132836
H	 3.3742043849	-2.7100726268	 1.1665120408	 0.121822
H	 3.5037299382	-2.6576590817	-0.5987904678	 0.129554
H	-0.3534098706	-2.1959456225	 1.3331209619	 0.095089
H	 1.1492510729	-2.0555434038	 2.2711284334	 0.109685
86.0441	107.9582	209.1134	214.2312	238.6022	253.3564	287.3821	347.3542	422.6395	452.704	488.6916	505.5377	628.5942	693.7375	791.6003	830.396	871.0355	901.3252	923.0746	973.1234	992.3594	1018.5096	1079.6337	1108.5795	1135.2106	1139.23	1162.7585	1214.9052	1253.2489	1272.1802	1291.2288	1315.6014	1340.7435	1370.6133	1384.7462	1396.7249	1412.7603	1420.6375	1456.3816	1483.4631	1493.0607	1497.7959	1504.9056	1505.8457	1814.6097	2946.9705	2970.0325	3030.4708	3041.1047	3043.394	3063.2078	3076.4423	3106.799	3108.7421	3117.7896	3124.6097	3127.2187
CC1CC(=O)C(C)CO1	C[C@H]1CC(=O)[C@@H](C)CO1	
InChI=1S/C7H12O2/c1-5-4-9-6(2)3-7(5)8/h5-6H,3-4H2,1-2H3	InChI=1S/C7H12O2/c1-5-4-9-6(2)3-7(5)8/h5-6H,3-4H2,1-2H3/t5-,6-/m0/s1
