18
gdb 54528	3.22193	1.34529	1.0984	2.276	72.11	-0.2486	0.0227	0.2714	1112.2333	0.149059	-439.113356	-439.105126	-439.104181	-439.146284	31.421	
N	 0.0799842032	 1.1982255042	-0.384098769	-0.545862
C	-0.0142510832	-0.0172482739	 0.2388814961	 0.320513
O	 0.9063367431	-0.4811750941	 0.8886988719	-0.374469
C	-1.3046638301	-0.7505883432	 0.0503567254	 0.215097
C	-1.7618003765	-1.6471185882	 1.1883270407	-0.316358
C	-1.2744772884	-2.270154088	-0.0780637358	-0.079114
C	-2.327724206	-2.5988957813	-1.1176898467	-0.100309
O	-3.1881228624	-1.4607274787	-1.1643428067	-0.255737
C	-2.4072940218	-0.3018955996	-0.8994109387	-0.17988
H	 0.900842844	 1.7474879233	-0.1846183808	 0.261361
H	-0.7236587002	 1.6730141142	-0.7568581635	 0.26069
H	-1.0941722166	-1.6845534748	 2.040200655	 0.140491
H	-2.8253550492	-1.669672014	 1.4033663951	 0.123346
H	-0.3184325091	-2.7779729342	-0.087830617	 0.116301
H	-1.8540968814	-2.7821159166	-2.0953484312	 0.097094
H	-2.9529461835	-3.4621736526	-0.8680928026	 0.114804
H	-3.0860828209	 0.4511109272	-0.4825722615	 0.109601
H	-1.967004631	 0.0982575304	-1.8287169706	 0.09243
60.8377	160.0567	203.6158	249.14	259.1664	326.9307	384.6649	412.8382	471.9462	564.3672	628.6115	687.2732	732.3278	766.8403	839.021	897.219	931.8184	946.445	954.113	1034.2564	1044.9767	1078.3993	1087.9538	1100.2812	1112.9034	1127.1557	1209.1948	1227.7831	1260.8952	1279.5254	1343.0625	1360.3105	1389.8627	1418.197	1468.6678	1512.557	1526.5771	1621.2552	1777.9283	2957.6994	2980.8186	3053.5146	3074.0341	3135.7829	3201.9381	3239.6316	3596.8615	3729.9133
NC(=O)C12CC1COC2	NC(=O)[C@]12C[C@H]1COC2	
InChI=1S/C6H9NO2/c7-5(8)6-1-4(6)2-9-3-6/h4H,1-3H2,(H2,7,8)	InChI=1S/C6H9NO2/c7-5(8)6-1-4(6)2-9-3-6/h4H,1-3H2,(H2,7,8)/t4-,6-/m0/s1
