17
gdb 80812	1.99077	1.68736	1.23022	3.9485	75.27	-0.2386	0.0085	0.2471	1076.5659	0.138112	-414.115766	-414.10747	-414.106526	-414.148439	31.931	
N	 0.1964422786	 1.4920289643	 0.0233600888	-0.527946
C	 0.0825214411	 0.0758523264	-0.015137161	 0.049748
C	-0.083465941	-0.6674444189	 1.3342135803	-0.06687
N	-1.500478658	-0.1085304483	 1.393517144	-0.363407
C	-1.3400155631	-0.6637640564	-0.0093776478	 0.208722
C	-2.3877130013	-0.6242689363	-0.9936476148	 0.136369
N	-3.2024757531	-0.5965638819	-1.8151282725	-0.349601
C	-0.6234039678	-1.9182689612	 0.5781884956	-0.029755
N	 0.2628107842	-2.676226875	-0.2746820923	-0.524193
H	 0.1581339693	 1.8965755645	-0.904830787	 0.238853
H	-0.5433210433	 1.8920812684	 0.5914884766	 0.249339
H	 0.7915385442	-0.3751909998	-0.7049473243	 0.115444
H	 0.5733184994	-0.6318271324	 2.2033538331	 0.09432
H	-2.0995047338	-0.7378551897	 1.9390110197	 0.215999
H	-1.3081683243	-2.5123166098	 1.2043602007	 0.071378
H	 0.8703554378	-3.2661331879	 0.2859622637	 0.238241
H	-0.2732434789	-3.2958840959	-0.8751410129	 0.24336
110.5816	136.0194	180.8783	241.1407	304.3524	349.8905	367.3313	393.0601	520.0117	540.3608	558.9502	610.6928	678.5749	772.6807	800.096	822.3549	858.2046	881.6775	934.0256	945.2134	997.6627	1089.4388	1103.9911	1149.8911	1175.1085	1211.6469	1218.486	1230.6855	1260.5406	1276.8908	1292.3129	1308.8534	1406.1109	1448.1615	1646.8692	1650.8044	2339.6193	2970.6922	3123.0813	3160.369	3378.355	3494.2984	3512.5326	3570.4297	3601.3233
NC1C2NC1(C#N)C2N	N[C@H]1[C@H]2N[C@]1(C#N)[C@H]2N	
InChI=1S/C5H8N4/c6-1-5-3(7)2(9-5)4(5)8/h2-4,9H,7-8H2	InChI=1S/C5H8N4/c6-1-5-3(7)2(9-5)4(5)8/h2-4,9H,7-8H2/t2-,3-,4-,5+/m0/s1
