21
gdb 7551	3.47941	1.12035	1.08253	1.7685	75.23	-0.2228	0.0809	0.3037	1226.8565	0.186812	-366.229174	-366.219461	-366.218517	-366.263543	35.364	
C	-0.3077874705	 1.3853370181	 0.0773395373	-0.314573
N	-0.0480063735	-0.0363086441	 0.2413218023	-0.106644
C	 1.2476562864	-0.5487862672	-0.1924317835	-0.299188
C	 0.8958741405	-0.5197113607	 1.2605669377	 0.330163
C	 1.63588225	 0.4497174658	 2.1681560406	-0.467097
C	 0.4383365622	-1.8098632205	 1.9266250956	-0.254344
C	-0.6362487101	-1.5967797655	 2.9974902292	-0.059891
O	-1.0814163914	-2.8161942971	 3.5725257702	-0.419797
H	 0.5799523945	 2.0309046187	 0.1594516349	 0.098733
H	-0.7454727011	 1.5472274707	-0.913297369	 0.123755
H	-1.0387585526	 1.7121065322	 0.824326215	 0.121337
H	 1.2340870936	-1.4805441509	-0.7540101447	 0.106543
H	 1.9891039936	 0.173148844	-0.5356182184	 0.099828
H	 2.0573236943	 1.2947860998	 1.6203142257	 0.119826
H	 0.9832323183	 0.8503771714	 2.9514203506	 0.124922
H	 2.4652012869	-0.065366538	 2.6644996494	 0.124348
H	 0.026870067	-2.4688216546	 1.1523397361	 0.088699
H	 1.2948772066	-2.3292686459	 2.3743150257	 0.098624
H	-0.2405850124	-1.0118483533	 3.8341819455	 0.107151
H	-1.4714926027	-1.0264382221	 2.5627799817	 0.097515
H	-1.4911601396	-3.3343368713	 2.8723938582	 0.28009
72.2574	96.0983	139.8429	180.4358	191.5901	260.0327	289.0082	302.7892	342.3866	368.7521	450.6066	478.3118	504.5137	719.4848	763.4317	792.4679	903.1753	923.6004	982.1555	1011.5165	1046.6183	1066.7604	1075.7148	1115.6249	1122.3378	1140.3616	1161.813	1186.7371	1216.1784	1282.861	1307.5885	1324.6836	1386.7762	1402.4556	1418.1511	1422.1752	1450.4392	1473.3038	1486.3101	1490.6211	1503.0096	1509.4075	1514.4221	1515.0034	2982.9767	2989.5528	3023.0614	3037.99	3059.1359	3063.9329	3077.7555	3082.6501	3094.8492	3097.3814	3123.8288	3161.5668	3814.5607
CN1CC1(C)CCO	CN1C[C@]1(C)CCO	
InChI=1S/C6H13NO/c1-6(3-4-8)5-7(6)2/h8H,3-5H2,1-2H3	InChI=1S/C6H13NO/c1-6(3-4-8)5-7(6)2/h8H,3-5H2,1-2H3/t6-,7?/m0/s1
