14
gdb 43489	2.3591	2.01834	1.2061	2.75	62.96	-0.2711	-0.0334	0.2376	966.4787	0.102273	-473.844234	-473.837269	-473.836324	-473.876265	25.765	
N	-0.0020084726	 1.216534079	 0.2883141053	-0.519262
C	 0.0056783491	-0.0083882745	 0.0135789364	 0.415903
O	 1.1574836952	-0.7386800426	-0.2567532479	-0.219153
C	 0.8755835199	-2.0429643068	-0.6356781315	 0.430022
O	 1.7267669512	-2.7983802084	-0.9785689902	-0.301228
C	-0.6300143205	-2.2714393803	-0.4938088717	-0.021191
O	-0.9364004551	-2.8647007822	 0.7842873874	-0.279165
C	-1.5592975908	-1.6411059342	 1.2481435013	-0.081452
C	-1.1971614538	-0.9103248789	-0.069638543	-0.175002
H	 0.942802248	 1.6039161555	 0.2956841056	 0.242093
H	-1.0419859661	-2.8310656084	-1.336567797	 0.119521
H	-2.6340366107	-1.7758863973	 1.4062600348	 0.126117
H	-1.0964849936	-1.253116795	 2.1603452057	 0.133728
H	-2.0166155701	-0.454878986	-0.6200632854	 0.12907
75.5514	129.0587	241.2882	245.8064	373.6726	479.522	615.3315	628.27	679.3357	727.0425	804.27	863.029	880.0025	914.2751	922.6208	965.9955	1002.7353	1032.0939	1058.7755	1092.7187	1144.4957	1157.0137	1218.7413	1249.6092	1289.54	1304.3655	1332.5606	1352.9884	1523.7055	1793.379	1922.027	3044.2749	3093.3616	3098.816	3152.694	3483.9061
N=C1OC(=O)C2OCC12	[NH][C]1OC(=O)[C@H]2OC[C@@H]12	
InChI=1S/C5H5NO3/c6-4-2-1-8-3(2)5(7)9-4/h2-3,6H,1H2	InChI=1S/C5H5NO3/c6-4-2-1-8-3(2)5(7)9-4/h2-3,6H,1H2/t2-,3+/m1/s1
