25
gdb 118100	2.82812	0.86414	0.82021	0.9957	89.79	-0.2501	0.0857	0.3358	1606.5267	0.226793	-389.475085	-389.464063	-389.463119	-389.511268	40.574	
C	 0.1365848089	 1.2922781848	 0.2374733279	-0.226541
O	 0.0140237855	-0.0974178813	 0.0665202018	-0.233106
C	 0.6875122327	-0.5749214007	-1.0809013599	-0.062698
C	 0.4555559378	-2.0844264429	-1.1899542607	-0.056736
C	-1.0309680216	-2.4032924982	-1.4044089032	-0.404757
C	 1.3634063832	-2.7197016421	-2.2450521426	 0.394498
C	 1.174704463	-2.267286351	-3.6836552065	-0.474871
C	 2.7685856591	-3.0733403366	-1.8130631358	-0.312328
C	 1.7449195977	-4.1644608891	-2.0240871729	-0.314929
H	 1.1885812747	 1.600563422	 0.350718911	 0.101096
H	-0.2911132061	 1.8498323624	-0.6115184984	 0.101349
H	-0.4085016344	 1.561754611	 1.1457673098	 0.124566
H	 0.3125005462	-0.0558399435	-1.9801291933	 0.081104
H	 1.7670201226	-0.3600102253	-1.0070360318	 0.084018
H	 0.7496160204	-2.5030736366	-0.2182992264	 0.076513
H	-1.200109862	-3.4841966975	-1.4300080964	 0.109876
H	-1.6282644333	-1.9755563421	-0.5960178144	 0.129062
H	-1.3993754262	-1.9835559657	-2.3470499207	 0.109164
H	 1.3697999565	-1.1958030231	-3.8043820043	 0.115853
H	 1.8630750316	-2.7999237846	-4.3471813128	 0.111608
H	 0.1577647951	-2.4630858525	-4.0400505269	 0.118813
H	 3.5701186874	-2.976342204	-2.538081893	 0.105458
H	 3.0650292489	-2.8468518838	-0.7938516775	 0.108559
H	 1.3527935639	-4.6697447543	-1.1474195951	 0.108512
H	 1.8522330984	-4.8057538553	-2.8928717083	 0.105915
59.0932	92.0332	99.2975	140.7342	217.1059	223.7131	239.5675	256.6014	286.0649	301.3122	331.266	368.6473	443.0914	491.2129	521.2434	721.839	788.4301	867.5102	872.9242	928.2646	942.8502	946.143	952.9091	992.8164	1021.6297	1052.0771	1081.6658	1089.9337	1113.2262	1146.3443	1157.6269	1170.2494	1189.3365	1193.936	1224.7719	1266.2957	1283.6259	1323.735	1355.282	1383.1697	1400.3631	1423.201	1425.24	1470.7892	1480.8974	1485.754	1492.5399	1494.586	1499.6542	1504.2329	1509.3723	1513.4378	1528.6812	2945.8851	2967.0116	2977.3586	3007.4127	3021.1795	3029.848	3038.8697	3090.8123	3098.8436	3103.4927	3109.4531	3123.5935	3126.4412	3128.3522	3200.691	3215.1437
COCC(C)C1(C)CC1	COC[C@@H](C)C1(C)CC1	
InChI=1S/C8H16O/c1-7(6-9-3)8(2)4-5-8/h7H,4-6H2,1-3H3	InChI=1S/C8H16O/c1-7(6-9-3)8(2)4-5-8/h7H,4-6H2,1-3H3/t7-/m1/s1
