15
gdb 21025	3.72369	2.08339	1.35894	2.4152	63.82	-0.2152	0.0143	0.2295	879.7867	0.120015	-396.026159	-396.018278	-396.017334	-396.058669	27.193	
C	-0.0310322743	 1.454607701	-0.0026170131	-0.349613
N	-0.0692597963	 0.008879549	-0.0266442269	-0.121873
C	-0.1444186554	-0.8388081824	-1.0996096407	 0.044674
N	-0.1592206501	-2.0881243797	-0.7505535061	-0.256873
N	-0.0901095083	-2.0564738991	 0.6241216083	-0.075798
C	-0.0821790383	-3.2667135924	 1.4074687423	-0.328374
C	-0.0318614544	-0.7778287306	 1.133801347	 0.481924
O	 0.0352015259	-0.4025556245	 2.2893515135	-0.448441
H	 0.8455190966	 1.8368751606	-0.5344994811	 0.140559
H	-0.9353158261	 1.8824918041	-0.4459648966	 0.14056
H	 0.0286952944	 1.7492844928	 1.0468994673	 0.176847
H	-0.186464564	-0.4979601707	-2.1225074991	 0.148528
H	 0.7812999663	-3.8883006574	 1.1526674318	 0.140529
H	-0.0224440265	-2.9666944046	 2.454955188	 0.16682
H	-0.9972651894	-3.842745196	 1.2410505555	 0.140531
103.0404	110.0049	129.2991	207.6011	265.2086	270.2645	300.7086	553.6101	596.0914	637.9046	742.9289	794.2736	809.1337	831.4513	1007.6568	1048.7098	1080.51	1159.2144	1159.862	1241.5426	1277.3729	1325.3659	1401.3484	1422.9491	1447.2886	1465.2539	1484.7016	1498.0009	1509.7742	1516.7736	1614.9789	1818.7002	3039.6466	3042.9953	3102.5355	3105.067	3144.7177	3152.2903	3261.9244
CN1C=NN(C)C1=O	Cn1cnn(C)c1=O	
InChI=1S/C4H7N3O/c1-6-3-5-7(2)4(6)8/h3H,1-2H3	InChI=1S/C4H7N3O/c1-6-3-5-7(2)4(6)8/h3H,1-2H3
