21
gdb 107826	3.16527	1.49096	1.27749	0.8678	81.03	-0.2373	0.0901	0.3274	1077.2358	0.18412	-387.063385	-387.055531	-387.054587	-387.095421	31.7	
C	-0.1143806097	 1.3602717203	-0.0179233739	-0.260335
O	 0.1243522603	-0.0309273278	 0.0179889075	-0.3097
C	 0.7360462533	-0.5530094231	-1.1257806132	 0.448429
C	-0.1100389123	-0.5759579097	-2.4503898939	-0.296499
C	 0.2358727062	-2.0603662542	-2.5807258322	-0.069183
C	 1.7145450406	-2.3031062779	-2.3154075863	-0.036801
C	 2.6922332815	-1.131983653	-2.4433251406	-0.24627
C	 2.1787347177	-0.0943229774	-1.4101522067	-0.263284
C	 0.7758952111	-2.1053524391	-1.1627468042	-0.139482
H	 0.8177172991	 1.9422250806	-0.0392905827	 0.109271
H	-0.7234203207	 1.6498266331	-0.8869433426	 0.108313
H	-0.6627348696	 1.6122452058	 0.8928994426	 0.125683
H	-1.1697062623	-0.4408569671	-2.2180749165	 0.105734
H	 0.1777824936	 0.1033081044	-3.2615147148	 0.081589
H	-0.3622048251	-2.8025975077	-3.0966265904	 0.080605
H	 2.0603974404	-3.3070826388	-2.5360218941	 0.082053
H	 3.713603389	-1.4493775987	-2.2137985634	 0.100613
H	 2.7076207985	-0.7244634807	-3.4600626593	 0.09952
H	 2.2335236411	 0.9319551577	-1.7861398749	 0.092493
H	 2.7554592882	-0.1462603916	-0.4797375643	 0.100455
H	 0.583151389	-2.7770960549	-0.337785216	 0.086796
107.8271	177.2872	208.5518	227.5511	344.3817	362.8839	422.1534	441.2325	579.9267	635.0358	697.4566	745.2848	777.4254	817.2291	856.401	905.8435	921.7028	941.6707	973.3271	989.2186	1001.8644	1023.4803	1056.1783	1071.7892	1086.8774	1118.6383	1138.8696	1182.4597	1189.672	1194.7148	1204.8835	1223.6548	1237.7262	1254.6682	1278.5125	1312.3673	1316.794	1351.3593	1399.777	1480.8844	1484.9812	1489.8587	1492.6135	1508.5587	1510.212	2987.9283	3027.9552	3034.3169	3040.2936	3044.3517	3076.3687	3093.1165	3099.9598	3114.7784	3167.6963	3176.7929	3212.1875
COC12CC3C(CC1)C23	CO[C@@]12C[C@H]3[C@@H](CC1)[C@@H]23	
InChI=1S/C8H12O/c1-9-8-3-2-5-6(4-8)7(5)8/h5-7H,2-4H2,1H3	InChI=1S/C8H12O/c1-9-8-3-2-5-6(4-8)7(5)8/h5-7H,2-4H2,1H3/t5-,6+,7-,8-/m1/s1
