20
gdb 111960	2.71643	1.30193	1.05179	3.593	82.12	-0.2222	-0.0017	0.2205	1235.4122	0.171638	-399.362958	-399.353682	-399.352738	-399.397484	33.935	
C	 0.0238720085	 1.5703470718	-0.0479728695	-0.377714
C	-0.0137940917	 0.0413790316	 0.0480189584	-0.180323
N	-1.3553261579	-0.5068977186	 0.0226298491	-0.082225
C	-2.1373771277	-0.8277947332	 1.1289549872	 0.052129
N	-3.3210874483	-1.2392344627	 0.8972334716	-0.2695
C	-3.4708718203	-1.2203052684	-0.5706846433	-0.035761
C	-4.6565905448	-0.363081454	-1.017134465	-0.378039
C	-2.134895008	-0.7150343895	-1.1195285213	 0.358767
N	-1.8552097541	-0.542188731	-2.3479135833	-0.562647
H	 1.0587104017	 1.9260896221	-0.0480565068	 0.124547
H	-0.458163677	 1.9156568038	-0.966734087	 0.139305
H	-0.4965358506	 2.026270991	 0.7995023833	 0.12929
H	 0.5516706068	-0.4063843646	-0.7781706531	 0.122659
H	 0.4676568803	-0.2955826885	 0.9718085549	 0.122743
H	-1.7056833835	-0.7231176077	 2.1207480611	 0.127363
H	-3.6283993882	-2.2501488605	-0.9145501995	 0.118585
H	-4.5457098021	 0.6639564099	-0.6566785896	 0.116942
H	-4.7046132991	-0.3445621457	-2.108656772	 0.139544
H	-5.5878768342	-0.7698852586	-0.6158317964	 0.125838
H	-0.9068744297	-0.1907119772	-2.4863441589	 0.208494
63.6998	72.8689	116.5989	208.1939	222.2082	247.776	306.2421	316.457	397.2397	478.2548	564.567	622.9379	696.4678	708.3916	782.3444	830.0172	846.2569	900.5616	920.7145	943.0423	984.1048	1063.4862	1085.841	1102.0102	1108.4846	1130.1798	1236.9441	1247.0026	1271.8	1303.3446	1328.2028	1370.0517	1386.0951	1396.1504	1408.1408	1416.8626	1484.1513	1487.2285	1490.5628	1495.2543	1505.7595	1682.1726	1739.4061	3033.114	3034.8894	3042.9267	3047.2868	3076.6254	3117.1733	3121.8547	3123.5497	3136.6662	3176.2513	3461.7563
CCN1C=NC(C)C1=N	CCN1C=N[C@@H](C)[C]1[NH]	
InChI=1S/C6H11N3/c1-3-9-4-8-5(2)6(9)7/h4-5,7H,3H2,1-2H3	InChI=1S/C6H11N3/c1-3-9-4-8-5(2)6(9)7/h4-5,7H,3H2,1-2H3/t5-/m0/s1
