17
gdb 7526	3.31729	1.58579	1.27372	2.5028	65.72	-0.2338	0.0251	0.259	983.4905	0.140548	-401.003111	-400.994379	-400.993435	-401.036172	31.959	
C	 0.6632736779	 1.4119649008	-0.6857236977	-0.468715
C	-0.0255398939	 0.2841359374	 0.0508019793	 0.352071
C	 0.7580047529	-0.9903128358	 0.3089242043	-0.371293
C	 0.4209834294	-0.0477511178	 1.4487048125	 0.058668
O	 1.4067079133	 0.7754159525	 2.0056816993	-0.423928
N	-1.4312723374	 0.223038655	-0.2968533428	-0.338036
C	-2.3549829429	-0.6750585445	 0.1261785272	 0.153605
O	-2.1624033164	-1.5971464533	 0.8944644032	-0.338254
H	 1.6947448469	 1.5066903212	-0.3481741822	 0.147794
H	 0.6590528238	 1.2334094525	-1.7668772255	 0.117877
H	 0.1638928788	 2.368250408	-0.4890368377	 0.120624
H	 0.2365476855	-1.9373570525	 0.2848083985	 0.147182
H	 1.7814499336	-0.9959068067	-0.0524471322	 0.10951
H	-0.3462669068	-0.3920618481	 2.1360311561	 0.12058
H	 1.9795025612	 0.2201616794	 2.5451239309	 0.289666
H	-1.7570393732	 0.9384534127	-0.9277061215	 0.245
H	-3.3474327028	-0.469204851	-0.3238297115	 0.077649
62.6036	175.5918	195.1052	207.7703	254.2493	273.5071	298.879	346.1557	398.84	459.3343	491.3679	542.6297	680.0367	812.0111	847.8993	907.4807	928.6649	962.9446	1018.1249	1027.0017	1048.2914	1116.8574	1120.3846	1176.0207	1207.6436	1251.0806	1305.0177	1328.5797	1410.4539	1414.4409	1437.664	1475.7882	1491.3418	1509.487	1539.5387	1793.7378	2926.2985	3028.4498	3085.6013	3139.7269	3157.1445	3158.3822	3251.134	3626.4262	3803.5698
CC1(CC1O)NC=O	C[C@]1(C[C@H]1O)NC=O	
InChI=1S/C5H9NO2/c1-5(6-3-7)2-4(5)8/h3-4,8H,2H2,1H3,(H,6,7)	InChI=1S/C5H9NO2/c1-5(6-3-7)2-4(5)8/h3-4,8H,2H2,1H3,(H,6,7)/t4-,5-/m1/s1
