19
gdb 93359	2.6824	1.59951	1.2198	3.4224	75.39	-0.2283	0.0153	0.2437	1063.4391	0.161668	-419.217174	-419.209192	-419.208248	-419.249698	31.246	
C	-0.3247759629	 1.5968449536	-0.0706191947	-0.403496
C	-0.037445411	 0.0942983109	-0.0084465549	 0.058441
C	 0.5439368514	-0.4382313941	-1.3235935775	-0.181695
N	 1.9453309369	-0.0449161534	-1.4532653512	-0.319824
C	 2.8554703126	-0.3551022894	-0.4744023657	 0.384992
O	 4.0538681701	-0.4111703495	-0.6662470649	-0.371263
C	 2.2378252658	-0.595982301	 0.8784344724	-0.124181
C	 1.8171016656	 0.5939612678	 1.6738341102	-0.236736
N	 0.8192707144	-0.3195254317	 1.1325978093	-0.112271
H	 0.5408971209	 2.1661034429	-0.4205136086	 0.130326
H	-1.1495718225	 1.7832134501	-0.7657926769	 0.115954
H	-0.6197565764	 1.9776519053	 0.9109906186	 0.129277
H	-0.9943850686	-0.418897167	 0.1477337457	 0.090481
H	 0.4364839172	-1.5318631545	-1.3587035398	 0.114787
H	-0.0133152993	-0.0284579345	-2.1708403987	 0.114875
H	 2.3451402463	 0.0142542512	-2.3794908894	 0.247357
H	 2.6530256511	-1.4589747043	 1.3920283818	 0.116017
H	 1.9214301907	 0.5824646654	 2.7557109842	 0.121785
H	 1.9599141778	 1.5688115222	 1.21613542	 0.125173
60.7712	189.9403	230.505	267.4134	317.0291	346.8734	391.6002	446.9341	514.221	554.8119	609.1898	688.9191	739.4073	782.4281	800.409	862.9257	907.4477	934.0964	995.52	1014.2155	1041.2444	1072.7508	1105.2822	1115.1833	1137.2219	1159.2939	1167.7994	1269.9104	1302.9879	1314.2278	1326.2229	1380.6962	1386.1817	1401.0076	1413.4235	1459.6575	1493.4056	1501.894	1510.7931	1519.5428	1802.1027	2997.3361	3022.967	3041.909	3084.8273	3107.8017	3110.9929	3122.8941	3146.8938	3194.1421	3598.6919
CC1CNC(=O)C2CN12	C[C@H]1CNC(=O)[C@H]2CN12	
InChI=1S/C6H10N2O/c1-4-2-7-6(9)5-3-8(4)5/h4-5H,2-3H2,1H3,(H,7,9)	InChI=1S/C6H10N2O/c1-4-2-7-6(9)5-3-8(4)5/h4-5H,2-3H2,1H3,(H,7,9)/t4-,5+,8?/m0/s1
