15
gdb 61368	3.78048	0.82841	0.74413	3.089	69.6	-0.2691	-0.0735	0.1956	1465.9533	0.108149	-457.744458	-457.73494	-457.733996	-457.77991	33.148	
O	 1.2461318854	 1.6562824827	 0.4778795308	-0.443282
C	 0.3325224175	 0.770764295	-0.108201312	 0.054848
C	 0.8547071064	 0.3315119455	-1.491652788	-0.344791
C	-0.1740414426	-0.3736266231	-2.3527395053	 0.218635
O	-1.2646665104	-0.7117414356	-1.9387692372	-0.295622
C	 0.2310853119	-0.6260882455	-3.7233430386	 0.250718
C	 0.589876622	-0.8298646123	-4.8540313285	-0.369679
C	 0.0918314996	-0.4155368773	 0.8126779129	 0.12467
O	 0.6680011331	-0.5016078972	 1.8716762751	-0.262878
H	 1.4772169178	 1.2581507083	 1.3332546479	 0.2953
H	-0.6471399869	 1.2556447323	-0.2554346462	 0.114238
H	 1.2126252869	 1.222273473	-2.0205247763	 0.157599
H	 1.7346710848	-0.3176829236	-1.3897456391	 0.148388
H	 0.8903367579	-1.0172796095	-5.8567604888	 0.221351
H	-0.6306870333	-1.1740715426	 0.4656060034	 0.130505
37.2451	91.3542	111.5591	136.6302	197.9927	242.6261	310.8544	336.7012	372.7474	464.4032	492.412	579.3114	615.627	651.7052	715.0928	735.2998	833.7793	857.7292	888.576	1027.0571	1063.706	1094.8541	1164.322	1184.3532	1287.051	1316.203	1360.0879	1384.5068	1442.0822	1446.8543	1756.7956	1806.1519	2213.3519	2973.2461	3001.5345	3035.3704	3076.7544	3492.1405	3673.7767
OC(CC(=O)C#C)C=O	O[C@@H](CC(=O)C#C)C=O	
InChI=1S/C6H6O3/c1-2-5(8)3-6(9)4-7/h1,4,6,9H,3H2	InChI=1S/C6H6O3/c1-2-5(8)3-6(9)4-7/h1,4,6,9H,3H2/t6-/m0/s1
