17
gdb 85083	2.2862	1.60168	1.39139	4.8884	69.21	-0.2304	-0.0362	0.1942	1008.3343	0.13624	-458.976927	-458.968753	-458.967809	-459.009741	31.465	
O	-0.7885191827	 0.9815186962	-1.0568368291	-0.422939
C	-0.0695425701	 0.1020348165	-0.1578636019	 0.035799
C	-1.1176639793	-0.8099476747	 0.4877770897	-0.318743
C	-1.4742993208	-2.0540483631	-0.3336104998	 0.394086
O	-2.1921127776	-2.9168966079	 0.1061964774	-0.314047
C	-0.858780926	-2.1290312782	-1.7407659548	-0.011241
O	-1.6066680299	-1.285267668	-2.6166317511	-0.441906
C	 0.600817349	-1.7362781394	-1.6648194714	-0.086232
C	 0.9716217195	-0.6975076408	-0.9124243621	-0.102508
H	-0.1390067918	 1.4932688162	-1.5526176471	 0.290643
H	 0.4045459686	 0.7145013535	 0.6189692462	 0.083676
H	-0.7499834097	-1.1675438075	 1.4546400302	 0.140574
H	-2.03087513	-0.2407608938	 0.6884234833	 0.148746
H	-0.9907899499	-3.1467006364	-2.1123444453	 0.099925
H	-1.4702055334	-0.3731015314	-2.3117850926	 0.287994
H	 1.3231488425	-2.2971560783	-2.2503508425	 0.112879
H	 2.0077374016	-0.3741848031	-0.863148729	 0.103292
56.4725	177.6855	212.1725	227.0161	339.7077	352.0159	372.8746	441.7144	503.4198	572.2846	590.3424	618.775	640.2988	720.7431	768.9322	848.4271	904.404	948.4349	952.7008	992.9483	1025.8697	1042.7196	1057.703	1137.6802	1200.6414	1221.7657	1233.2584	1288.2381	1315.0642	1335.2406	1361.2048	1400.0191	1410.6322	1436.1425	1477.8914	1693.0223	1825.9266	3023.663	3060.465	3103.1792	3104.5793	3159.2925	3183.0436	3660.8574	3803.0785
OC1CC(=O)C(O)C=C1	O[C@H]1CC(=O)[C@@H](O)C=C1	
InChI=1S/C6H8O3/c7-4-1-2-5(8)6(9)3-4/h1-2,4-5,7-8H,3H2	InChI=1S/C6H8O3/c7-4-1-2-5(8)6(9)3-4/h1-2,4-5,7-8H,3H2/t4-,5+/m1/s1
