19
gdb 127024	4.39812	0.90757	0.7631	1.8203	80.6	-0.207	0.0321	0.2391	1517.9618	0.159361	-419.229432	-419.220063	-419.219119	-419.264721	33.049	
C	-0.029093373	 1.4330765974	-0.0884953841	-0.393082
C	-0.0058539504	-0.0839290218	-0.0900455941	-0.029629
O	-1.3560698718	-0.5371890841	 0.0491745006	-0.278015
C	-1.5363623064	-1.8684543261	 0.0668201952	 0.471719
N	-0.5368796889	-2.7382803984	-0.0356393819	-0.375251
N	-1.1448616915	-3.9520566741	 0.0255350577	 0.042386
C	-0.3459718071	-5.1505675948	-0.0567207633	-0.315475
C	-2.4865535115	-3.8437890224	 0.1624285728	-0.005095
C	-2.7940252697	-2.5006319787	 0.1946571623	-0.369118
H	 0.9879097747	 1.822762631	-0.1931774028	 0.116479
H	-0.6325278264	 1.8131886988	-0.9177904116	 0.126662
H	-0.4513371093	 1.8141382063	 0.8457715956	 0.126673
H	 0.4175072414	-0.4820485939	-1.0202705208	 0.111243
H	 0.598130171	-0.4809856266	 0.7349566211	 0.111216
H	-1.0052504137	-6.0180259735	 0.0100428449	 0.13472
H	 0.1981436083	-5.185466034	-1.005491919	 0.143987
H	 0.3785935728	-5.186487991	 0.7625143408	 0.144
H	-3.1147224624	-4.7189913875	 0.2257602992	 0.129669
H	-3.7612806261	-2.0386890764	 0.2935852675	 0.106912
55.1914	64.2771	97.8214	139.2758	173.3604	242.4681	315.6552	348.1866	373.8724	494.0426	609.7843	662.8833	715.9739	754.9543	776.8538	813.1078	817.6167	914.3383	1004.7833	1024.216	1060.4639	1084.8897	1100.2024	1138.1147	1152.6878	1184.715	1255.7666	1290.5601	1331.3285	1388.4527	1405.587	1417.27	1456.4533	1466.5689	1470.5716	1483.5285	1497.8991	1516.5623	1525.2881	1546.4131	1592.7403	3025.2528	3040.177	3044.3998	3059.6447	3100.8688	3118.8002	3121.662	3139.4644	3252.0781	3284.1607
CCOC1=NN(C)C=C1	CCOc1nn(C)cc1	
InChI=1S/C6H10N2O/c1-3-9-6-4-5-8(2)7-6/h4-5H,3H2,1-2H3	InChI=1S/C6H10N2O/c1-3-9-6-4-5-8(2)7-6/h4-5H,3H2,1-2H3
