18
gdb 119556	3.10793	1.04955	0.86503	1.9699	73.28	-0.2568	0.0169	0.2737	1331.2048	0.146978	-439.049139	-439.040352	-439.039408	-439.083259	32.416	
O	 0.0496014184	 1.4879521653	-0.2456787044	-0.418247
C	 0.024760504	 0.0703388401	-0.2285607061	-0.065233
C	-1.3672497807	-0.4811083861	 0.1160476147	-0.333649
C	-1.3994884436	-1.9819415606	 0.1074245073	 0.201512
C	-1.6024444181	-2.85048379	-1.1472462784	-0.33459
C	-2.4978902677	-3.0212808384	 0.0245041717	 0.023228
O	-1.8354481597	-3.8594746865	 1.0114181638	-0.277255
C	-0.8556010821	-2.8807049243	 1.1746301379	 0.408957
N	 0.0817747783	-2.7946328169	 2.0021780891	-0.561047
H	-0.0259082249	 1.7942942295	 0.6634599596	 0.283831
H	 0.3076255482	-0.24797704	-1.2376819155	 0.112004
H	 0.7667124418	-0.3449494634	 0.4673918682	 0.124809
H	-1.6600335278	-0.1169317027	 1.1095782979	 0.103884
H	-2.0941475599	-0.0816832588	-0.6000409209	 0.10849
H	-2.016821581	-2.3029826051	-1.9892158019	 0.129402
H	-0.9019817812	-3.638952886	-1.4041660697	 0.133509
H	-3.5755337178	-2.9504204281	 0.0755187747	 0.128495
H	 0.1092948839	-3.605116968	 2.6230418419	 0.231902
65.1775	94.8062	119.5089	189.9923	264.0112	291.5749	340.5651	363.3166	464.5473	477.202	649.563	731.5806	767.5365	779.5834	853.1667	863.0547	910.2636	912.9576	938.7976	1000.4412	1008.3325	1026.4553	1041.0516	1069.6309	1081.5785	1098.7618	1157.92	1197.9687	1255.2616	1280.7865	1317.7663	1332.9442	1397.0846	1410.417	1420.9107	1480.6133	1483.4812	1513.6588	1826.6712	3013.8617	3022.4998	3063.8896	3085.9122	3120.8893	3211.751	3219.9717	3479.2803	3818.6896
OCCC12CC1OC2=N	OCC[C@]12C[C@H]1O[C]2[NH]	
InChI=1S/C6H9NO2/c7-5-6(1-2-8)3-4(6)9-5/h4,7-8H,1-3H2	InChI=1S/C6H9NO2/c7-5-6(1-2-8)3-4(6)9-5/h4,7-8H,1-3H2/t4-,6+/m1/s1
