19
gdb 81216	2.9305	1.60433	1.45092	1.5124	80.37	-0.2417	0.0142	0.256	985.5937	0.16113	-385.819015	-385.811937	-385.810993	-385.849982	29.813	
O	 0.0661445374	 1.3891144092	-0.2232450404	-0.457139
C	 0.0450682788	 0.0067007823	 0.0011107706	 0.180718
C	 0.0287748248	-0.5921983203	 1.422619128	-0.147447
C	-1.4931016406	-0.1669790519	 1.512999669	-0.357807
C	-1.313658486	-0.7871140951	 0.0911751198	 0.286679
C	-1.9813394428	-1.3602738827	-1.1455597951	-0.411494
C	-0.9752055297	-2.4839521883	-1.4446825958	-0.03424
C	-0.1210493058	-2.7388182983	-0.4400896111	-0.158051
C	-0.5137097758	-1.9182756739	 0.7660082784	-0.006032
H	-0.5270336863	 1.8248364555	 0.3964772517	 0.27994
H	 0.7836293494	-0.4125737171	-0.6820090949	 0.087124
H	 0.7762504571	-0.482753115	 2.2108318816	 0.071191
H	-2.1130733365	-0.7315014303	 2.2141003679	 0.100484
H	-1.7153335532	 0.9011116339	 1.6024561924	 0.078343
H	-2.9853748169	-1.7686560002	-0.9652991595	 0.110005
H	-2.0652077404	-0.6430872533	-1.9697995613	 0.114101
H	-0.9836008433	-3.0121849995	-2.3930025993	 0.094396
H	 0.6347387846	-3.516236486	-0.4591433229	 0.092104
H	-1.0724033848	-2.5259845791	 1.4890796909	 0.077125
193.882	227.6523	238.8396	334.6682	392.9322	439.1202	475.8184	541.7527	610.0395	675.9379	731.4108	794.0084	805.2172	839.3188	864.2105	903.0241	909.2881	934.8404	963.9373	984.63	996.8629	1036.7923	1073.9793	1081.3986	1102.5113	1115.0482	1132.1935	1153.189	1192.1416	1204.0964	1211.202	1246.5946	1265.5947	1279.0319	1306.8111	1352.7525	1363.2342	1465.3424	1474.0392	1534.546	1624.802	3014.5388	3016.3632	3044.6685	3063.938	3093.3294	3104.0966	3121.1512	3174.4515	3199.7076	3822.9567
OC1C2CC11CC=CC21	O[C@H]1[C@H]2C[C@]31CC=C[C@@H]23	
InChI=1S/C8H10O/c9-7-5-4-8(7)3-1-2-6(5)8/h1-2,5-7,9H,3-4H2	InChI=1S/C8H10O/c9-7-5-4-8(7)3-1-2-6(5)8/h1-2,5-7,9H,3-4H2/t5-,6-,7-,8+/m0/s1
