16
gdb 34370	2.74927	1.63632	1.31468	4.3908	73.69	-0.2659	-0.0035	0.2624	988.1519	0.125687	-400.752558	-400.745279	-400.744335	-400.784357	27.963	
N	 0.0254349146	-1.1013266411	-0.1264919994	-0.341429
C	 0.0103194395	 0.0515796023	-0.0454274272	 0.248604
C	 0.0055514998	 1.5126074311	 0.0430301189	 0.281492
C	-0.8708254368	 2.2086200902	-1.0197765491	-0.319927
C	-0.0369683471	 3.4070487394	-1.4064451531	-0.063741
C	 1.1720200933	 3.4108273476	-0.8450498225	-0.082268
C	 1.392134816	 2.2393853728	 0.0683573594	-0.160113
C	 1.0643946174	 2.4796536253	 1.5614934435	-0.087045
O	-0.2777467886	 1.9636413449	 1.3846461914	-0.305603
H	-1.082147611	 1.5568782534	-1.8757690816	 0.131128
H	-1.8329831587	 2.4767878273	-0.5690193152	 0.140337
H	-0.4095766419	 4.1669802189	-2.0838921177	 0.109345
H	 1.9290874917	 4.1721700652	-0.9949656977	 0.108487
H	 2.2911931914	 1.6567086535	-0.1392470194	 0.108464
H	 1.6421125501	 1.8631932244	 2.2600693153	 0.117118
H	 1.0568289703	 3.5198979048	 1.9007270343	 0.11515
104.9112	154.3754	206.7572	256.0193	370.2836	443.1816	507.5959	543.2927	573.6855	677.6488	742.142	771.909	851.4375	886.3526	913.2928	961.0522	972.9517	1002.2547	1034.5616	1048.9184	1077.7563	1085.3045	1135.0311	1142.982	1164.0843	1206.1614	1231.0338	1302.0442	1336.234	1343.6518	1369.5364	1465.6843	1516.8901	1680.7095	2353.287	3030.4603	3037.4392	3077.068	3087.9118	3101.4768	3189.5885	3213.3541
N#CC12CC=CC1CO2	N#C[C@]12CC=C[C@H]1CO2	
InChI=1S/C7H7NO/c8-5-7-3-1-2-6(7)4-9-7/h1-2,6H,3-4H2	InChI=1S/C7H7NO/c8-5-7-3-1-2-6(7)4-9-7/h1-2,6H,3-4H2/t6-,7+/m0/s1
