17
gdb 38919	3.25875	1.77591	1.28222	1.7768	73.7	-0.2098	0.0095	0.2193	957.3113	0.139158	-417.963915	-417.957216	-417.956272	-417.994798	27.27	
C	 0.0458274117	 1.4375104307	 0.0510902955	-0.335277
C	 1.3501717425	 0.7059516376	-0.0193472658	-0.071664
N	 1.6607006933	 0.1533799033	 1.3229013626	-0.343513
C	 0.4553102975	-0.7363667677	 1.2246592512	-0.056849
C	 0.7437567285	-2.193055525	 0.8738703569	-0.099597
O	-0.3399963579	-2.7642232858	 0.1174296087	-0.227641
C	-0.8014902329	-2.0054588712	-0.9121493358	 0.096626
N	-0.6451300019	-0.7596293266	-1.1047812332	-0.335983
C	 0.0226757142	-0.0620767582	-0.0764308391	 0.368387
H	-0.2513681738	 1.9260377327	 0.9757049637	 0.113747
H	-0.2453704658	 1.9415916877	-0.8649747162	 0.125485
H	 2.1106931019	 0.884727634	-0.7695561286	 0.102116
H	 2.5165910349	-0.3950818439	 1.3098298252	 0.219229
H	-0.2180795631	-0.6618496184	 2.0851457783	 0.08611
H	 1.65772625	-2.2541070261	 0.267566038	 0.108248
H	 0.8592166532	-2.8328670721	 1.7511385139	 0.12422
H	-1.3700052423	-2.616194801	-1.6092414653	 0.126354
157.8861	191.0848	298.0076	377.3632	440.3407	461.6625	517.5219	537.1922	646.3641	780.5981	794.2817	820.2967	849.8077	893.792	938.3202	944.4328	954.4481	970.2339	1007.493	1028.5971	1063.9412	1070.6501	1093.7536	1128.8748	1142.5244	1221.6149	1256.5682	1283.0719	1295.0379	1312.4311	1358.027	1392.8068	1403.3296	1419.9128	1481.9618	1500.1318	1690.5124	3015.7561	3050.1522	3110.8607	3111.4419	3171.9136	3189.799	3212.9037	3495.4015
C1C2NC3COC=NC123	C1[C@H]2N[C@@H]3COC=N[C@]123	
InChI=1S/C6H8N2O/c1-4-6(1)5(8-4)2-9-3-7-6/h3-5,8H,1-2H2	InChI=1S/C6H8N2O/c1-4-6(1)5(8-4)2-9-3-7-6/h3-5,8H,1-2H2/t4-,5-,6-/m1/s1
