17
gdb 33177	2.96662	1.26494	0.95196	2.9887	71.65	-0.1851	0.0355	0.2206	1209.3493	0.136332	-455.15679	-455.148116	-455.147171	-455.191206	31.608	
O	-0.1934149079	 1.5242771333	 0.2703883734	-0.418105
C	 0.0719160693	 0.1534913521	 0.0024354158	-0.076358
C	-1.2657212603	-0.5593749654	-0.1430091226	-0.163184
N	-2.0069255805	-0.1447263063	-1.3153241625	-0.0926
C	-2.63506594	 1.0814079021	-1.5385327953	-0.110048
C	-3.227350363	 1.0072102133	-2.733388287	-0.064912
O	-2.9940488287	-0.2424929263	-3.29014333	-0.223507
C	-2.227318241	-0.9665416117	-2.4040629567	 0.467331
N	-1.7984237137	-2.1547542963	-2.5446944371	-0.622845
H	 0.6274133161	 2.0172738892	 0.1861470434	 0.29292
H	 0.6539088409	 0.0272051896	-0.9212031769	 0.110229
H	 0.633176414	-0.3130473748	 0.8270627269	 0.094549
H	-1.1058316106	-1.6350462666	-0.2449331598	 0.158057
H	-1.8661994955	-0.3756628648	 0.7560015836	 0.120325
H	-2.5673291921	 1.8824310775	-0.824827364	 0.159833
H	-3.8121793441	 1.6950590433	-3.3163905631	 0.145463
H	-2.1092021627	-2.5484329482	-3.4278176979	 0.222851
33.0428	95.3581	129.2004	223.7071	245.7066	260.3235	342.6316	451.3238	515.8431	578.6689	646.4735	669.1118	700.8402	743.3878	777.3726	795.0091	883.4793	911.7128	955.4966	1004.6334	1053.8029	1069.7007	1093.9525	1135.3011	1180.6988	1231.0032	1257.9946	1280.6355	1288.7358	1380.2612	1406.9623	1445.6295	1453.2583	1475.6248	1513.1751	1660.5413	1766.9061	2981.6934	3024.0182	3044.8821	3124.3928	3298.6658	3322.1085	3550.2921	3839.0872
OCCN1C=COC1=N	OCCN1C=CO[C@H]1[NH]	
InChI=1S/C5H8N2O2/c6-5-7(1-3-8)2-4-9-5/h2,4,6,8H,1,3H2	InChI=1S/C5H9N2O2/c6-5-7(1-3-8)2-4-9-5/h2,4-6,8H,1,3H2/t5-/m0/s1
