18
gdb 90743	3.15763	1.4092	1.18236	2.729	71.7	-0.2273	-0.0277	0.1996	1079.3243	0.148042	-439.077831	-439.069722	-439.068778	-439.110894	30.463	
C	 0.2554484786	 1.5650340828	-0.0469597523	-0.389795
C	 0.0952637167	 0.061292637	 0.0560731107	 0.033487
N	 1.0030266075	-0.748570502	-0.8033596551	-0.337124
C	 1.2573613477	-1.7126772865	 0.3008115726	-0.152063
C	 0.6736142469	-0.687645595	 1.2918100275	 0.096897
O	 1.7656791389	-0.0396941217	 1.9416734486	-0.271915
C	 3.0188477517	-0.5110928704	 1.4691811267	-0.185993
C	 2.7507665389	-1.7471444478	 0.6067734776	 0.410585
O	 3.5628079085	-2.5557550942	 0.245860625	-0.307428
H	 1.2852095352	 1.8592396312	 0.1668884054	 0.130217
H	-0.002211603	 1.9101269431	-1.0537093858	 0.115444
H	-0.4046507375	 2.0724094071	 0.6645894468	 0.117722
H	-0.9614050719	-0.2202119901	-0.0698344042	 0.067195
H	 0.6048980343	-1.1459569989	-1.6458527418	 0.227509
H	 0.7965267094	-2.7004669923	 0.2254706117	 0.088047
H	-0.0401210468	-1.0069107696	 2.0532889277	 0.088918
H	 3.5312163558	 0.2506225659	 0.8649531168	 0.134153
H	 3.6633397992	-0.7678851787	 2.3169538222	 0.134141
74.7806	92.055	185.1803	216.7377	244.0264	367.3018	405.3312	540.4291	559.6513	580.8499	643.7769	688.6572	785.7671	824.4319	857.1091	894.2244	945.6987	967.0404	1007.1887	1023.3199	1053.6742	1093.1336	1115.7533	1147.9725	1190.1781	1196.8718	1210.6811	1232.8239	1265.3881	1319.7535	1328.7249	1367.2547	1372.8682	1385.0175	1413.8592	1482.9608	1487.5261	1490.3922	1862.3469	2981.6434	3011.6663	3039.4099	3069.9958	3080.9213	3095.4671	3103.4444	3132.1132	3547.6215
CC1NC2C1OCC2=O	C[C@H]1N[C@@H]2[C@H]1OCC2=O	
InChI=1S/C6H9NO2/c1-3-6-5(7-3)4(8)2-9-6/h3,5-7H,2H2,1H3	InChI=1S/C6H9NO2/c1-3-6-5(7-3)4(8)2-9-6/h3,5-7H,2H2,1H3/t3-,5+,6+/m1/s1
