16
gdb 8898	3.95432	1.23676	1.01041	2.8376	58.18	-0.2606	-0.0049	0.2556	1138.4722	0.128614	-458.037488	-458.028414	-458.02747	-458.071764	31.237	
C	 0.0421985767	 1.3776659127	 0.0419202296	-0.245314
O	 0.053569611	-0.0602654869	 0.0383818914	-0.226399
C	 0.6491469471	-0.6377032789	 1.0842670405	 0.423827
O	 1.1639817886	-0.0417094097	 2.0025490493	-0.377969
C	 0.5810670216	-2.1532054853	 1.026887746	-0.00247
O	 1.3839325097	-2.6993875613	 2.0511917175	-0.444471
C	-0.8679379478	-2.6527171138	 1.2007438714	-0.061323
O	-0.8804155513	-4.0552293448	 1.3092360742	-0.418591
H	 1.0633115961	 1.7657056436	 0.0420157783	 0.149208
H	-0.4796692039	 1.6699161396	-0.8684688973	 0.143369
H	-0.4814489183	 1.7531513592	 0.9240260789	 0.14819
H	 0.9558547046	-2.4998500069	 0.0557243103	 0.113459
H	 1.5979359164	-1.9604912583	 2.6415601087	 0.298549
H	-1.3036931044	-2.1707632092	 2.092548334	 0.086833
H	-1.4719967768	-2.3771377384	 0.3318314174	 0.119783
H	-0.2032020492	-4.2693472616	 1.9643224098	 0.293319
64.4101	107.0043	118.9307	127.9687	204.1202	250.3751	332.6586	361.2371	408.2061	409.6541	512.5155	538.3502	681.6578	774.1477	877.9495	941.5458	1013.1364	1073.1507	1091.3301	1133.3429	1178.5069	1208.3515	1222.7597	1233.5335	1297.9414	1324.5225	1388.5353	1433.3973	1442.4115	1478.6899	1483.7734	1495.8533	1502.7013	1802.2121	2960.7332	3040.3881	3058.0462	3095.2569	3136.1007	3169.1725	3708.9502	3771.3471
COC(=O)C(O)CO	COC(=O)[C@@H](O)CO	
InChI=1S/C4H8O4/c1-8-4(7)3(6)2-5/h3,5-6H,2H2,1H3	InChI=1S/C4H8O4/c1-8-4(7)3(6)2-5/h3,5-6H,2H2,1H3/t3-/m0/s1
