21
gdb 111073	3.46467	1.06795	1.04074	3.2362	82.71	-0.2298	-0.0021	0.2276	1276.6266	0.183875	-387.10482	-387.096558	-387.095613	-387.137819	32.421	
C	 1.0665610585	 0.2292112301	 1.1372412306	-0.381563
C	 0.0686368328	 0.1750243591	-0.0259301413	-0.224365
C	 0.671154428	-0.4484108635	-1.2827308238	 0.045701
C	 0.8664646579	-2.0011689321	-1.3312115833	-0.03322
C	-0.6258080462	-2.1033801116	-1.7591212553	-0.24818
C	-0.3152262391	-0.7463079476	-2.4760478482	-0.144656
C	 0.6866060169	-1.225162859	-3.5162423371	 0.43315
O	 0.7749598966	-0.9416257154	-4.6801702546	-0.338627
C	 1.5844579639	-2.1747923944	-2.6839902461	-0.338221
H	 1.3900558272	-0.7738841684	 1.4342868571	 0.11873
H	 1.9618321654	 0.7985625567	 0.8643743158	 0.117851
H	 0.6220075648	 0.7082630737	 2.0147612474	 0.116355
H	-0.8303610247	-0.3640377086	 0.2910349851	 0.100418
H	-0.2594067656	 1.1935901437	-0.2696691931	 0.102847
H	 1.5620119356	 0.1286340429	-1.5634004506	 0.070453
H	 1.2584639292	-2.5583669527	-0.4802941411	 0.068643
H	-0.9223054587	-2.9515016529	-2.3831347132	 0.10257
H	-1.330911024	-1.9924212165	-0.9360714155	 0.112242
H	-1.0814365412	-0.0476754659	-2.8070527134	 0.076754
H	 2.6252269788	-1.8363151124	-2.687167336	 0.121788
H	 1.554150484	-3.195538975	-3.0779701733	 0.121331
74.9916	135.5936	156.8778	213.0976	299.812	359.1984	423.1752	467.2184	504.479	593.5451	617.4745	744.4144	770.4452	817.0406	835.8699	859.2653	897.1188	929.5394	947.1456	973.9108	994.9846	1003.2177	1067.4684	1071.498	1087.5296	1102.2908	1113.3081	1160.9942	1171.2298	1214.154	1233.6338	1245.3702	1266.2831	1271.4678	1296.541	1304.7845	1354.6681	1410.3298	1418.4891	1463.5234	1484.6933	1499.0962	1504.6489	1519.7037	1869.4455	3014.5541	3027.9244	3033.4423	3054.1876	3062.9201	3069.6112	3100.6664	3101.8322	3106.2045	3110.5938	3137.7143	3142.4621
CCC1C2CC1C(=O)C2	CC[C@H]1[C@H]2C[C@@H]1C(=O)C2	
InChI=1S/C8H12O/c1-2-6-5-3-7(6)8(9)4-5/h5-7H,2-4H2,1H3	InChI=1S/C8H12O/c1-2-6-5-3-7(6)8(9)4-5/h5-7H,2-4H2,1H3/t5-,6-,7-/m0/s1
