18
gdb 67629	2.4718	1.91807	1.58933	1.4365	74.13	-0.2182	0.0713	0.2895	934.4647	0.14809	-401.886834	-401.879356	-401.878411	-401.918258	30.198	
C	-0.134353979	 1.5083486767	-0.0082374036	-0.51951
C	-0.0043816809	 0.0167288293	-0.0082207723	 0.281725
C	 0.896337442	-0.844484683	-0.9492664171	-0.112163
C	-0.1277582563	-1.9218687468	-0.9889196632	-0.147283
N	 1.1433851099	-2.1322763202	-0.2731841623	-0.119848
C	 0.9192912578	-1.9584774627	 1.1718639333	-0.172898
C	-0.1746210149	-0.9099758268	 1.1951859393	-0.225087
C	-1.0394636664	-1.0800178203	-0.0381324907	 0.335881
O	-2.4082213164	-0.9531221443	-0.111750914	-0.466941
H	 0.7839695865	 1.9904448077	 0.3476148111	 0.1199
H	-0.3429784176	 1.8902637529	-1.0138185723	 0.125212
H	-0.9549805852	 1.8282498317	 0.6408403009	 0.128856
H	 1.5922869236	-0.4831001392	-1.6965375826	 0.091307
H	-0.4371624029	-2.5998089208	-1.7749133907	 0.094952
H	 0.6147877205	-2.9128983513	 1.6150963078	 0.10153
H	 1.8486628697	-1.6294434229	 1.6479227993	 0.106824
H	-0.6171681093	-0.5155797804	 2.1023729174	 0.090712
H	-2.8108900611	-1.6816568095	 0.3748437098	 0.286831
164.2757	178.0041	236.386	270.9933	328.5348	355.9741	425.6716	573.7676	599.1273	633.423	741.4794	768.2824	774.3348	792.256	838.0546	879.7292	894.1702	931.8753	944.4329	966.7215	1027.702	1033.7295	1075.7041	1097.3356	1110.5647	1166.651	1173.3893	1216.9316	1221.7803	1235.2406	1283.9756	1296.5382	1332.9429	1344.7688	1416.8449	1485.2872	1490.9842	1500.4354	1508.6578	3023.9035	3043.0659	3080.9814	3087.7283	3103.8331	3180.8858	3192.2667	3194.3729	3780.0315
CC12C3C4N3CC1C24O	C[C@@]12[C@@H]3[C@H]4N3C[C@@H]1[C@@]24O	
InChI=1S/C7H9NO/c1-6-3-2-8-4(6)5(8)7(3,6)9/h3-5,9H,2H2,1H3	InChI=1S/C7H9NO/c1-6-3-2-8-4(6)5(8)7(3,6)9/h3-5,9H,2H2,1H3/t3-,4-,5+,6-,7-,8?/m0/s1
