22
gdb 109301	3.05138	1.11743	0.85722	1.9155	84.53	-0.2377	0.036	0.2737	1427.0273	0.194364	-404.388605	-404.37906	-404.378116	-404.423263	35.485	
C	 0.1566510347	 1.4745854154	-0.0818028097	-0.366026
C	-0.0712891645	-0.0289555086	 0.0484506127	-0.263248
C	-1.5231626911	-0.4348892131	 0.0888676564	 0.40557
N	-2.4679588059	 0.4093858104	 0.0942704536	-0.312652
C	-3.8454489041	-0.06639131	 0.0806662243	-0.165739
C	-3.9800886874	-1.52123472	-0.3775505507	-0.228232
C	-2.9282345102	-2.3620089249	 0.3381093986	 0.147874
C	-2.861737492	-3.8096173187	-0.1184014382	-0.403014
O	-1.6213412994	-1.7967272923	 0.1162617642	-0.278081
H	 1.2280637934	 1.6958367291	-0.1021276569	 0.10205
H	-0.29611061	 1.8617268548	-0.9979737095	 0.125362
H	-0.2956717574	 2.012849747	 0.7542438061	 0.129214
H	 0.3995024305	-0.572535798	-0.7805525417	 0.118101
H	 0.4081745288	-0.420386908	 0.9552036154	 0.117279
H	-4.2678419964	 0.0565787734	 1.0878939198	 0.106335
H	-4.4265498217	 0.5965286826	-0.5704445737	 0.107207
H	-4.9813722263	-1.9133586638	-0.1698819735	 0.09961
H	-3.8152107769	-1.5930383495	-1.4596460503	 0.107073
H	-3.1179486655	-2.326772195	 1.4214428096	 0.082568
H	-2.6751311282	-3.8640264958	-1.1953293082	 0.124806
H	-2.055770819	-4.3387653131	 0.3973248762	 0.126649
H	-3.8061207511	-4.318291232	 0.0977433257	 0.117295
51.2247	105.2443	157.0151	186.8289	212.7712	233.7706	270.4945	297.2234	400.902	455.9443	501.3994	520.9017	609.3993	658.9083	802.4504	810.2716	868.4993	897.177	910.6577	968.0417	979.6226	1013.9395	1060.4151	1103.3992	1106.5429	1135.6861	1160.1643	1170.9519	1190.5845	1241.0584	1264.0113	1281.0904	1335.741	1357.8528	1377.5949	1395.8189	1402.5555	1413.6604	1413.8939	1468.6652	1476.5355	1485.5561	1489.5323	1493.3814	1499.0446	1500.609	1751.1352	2990.7897	3008.8519	3027.6024	3031.4197	3042.1823	3049.3456	3053.332	3053.6924	3082.5021	3117.2391	3119.0575	3120.9432	3130.7982
CCC1=NCCC(C)O1	CCC1=NCC[C@@H](C)O1	
InChI=1S/C7H13NO/c1-3-7-8-5-4-6(2)9-7/h6H,3-5H2,1-2H3	InChI=1S/C7H13NO/c1-3-7-8-5-4-6(2)9-7/h6H,3-5H2,1-2H3/t6-/m1/s1
