14
gdb 129365	4.47122	0.94985	0.8346	3.7282	64.95	-0.2711	-0.0409	0.2302	1305.7416	0.101583	-469.990125	-469.982307	-469.981363	-470.024151	26.817	
N	-0.4948036596	 1.0785565458	-0.2083991186	-0.435702
C	-0.5472237573	-0.1701075144	-0.3624727737	 0.143507
O	-0.7116936384	-0.9675270899	 0.7214678195	-0.176358
C	-0.8605294358	-2.3597319415	 0.4796027416	-0.210327
C	-2.289580715	-2.7216070683	 0.2119821845	 0.384328
N	-2.9706995205	-3.50861591	 1.0002951262	-0.160173
O	-4.2267370389	-3.5729458869	 0.3878656237	-0.147615
C	-4.1475888474	-2.8056257224	-0.699981436	 0.113239
N	-2.9917690795	-2.2528034042	-0.8800130903	-0.304143
H	-0.3443765776	 1.533638057	-1.106317493	 0.232645
H	-0.4628272126	-0.7248747211	-1.3051098622	 0.098676
H	-0.2384271057	-2.6762451398	-0.3674324679	 0.131165
H	-0.5194802939	-2.8752736725	 1.3782273519	 0.155415
H	-5.0342347479	-2.7245907618	-1.3114972458	 0.175342
49.5834	63.6692	118.4928	181.2937	281.9051	362.7915	398.4863	632.1499	638.9906	686.7047	812.2801	820.3923	908.903	909.1344	952.189	985.7011	998.0071	1037.5967	1039.1451	1140.9682	1145.4437	1240.8388	1298.1219	1321.9516	1379.5083	1396.0486	1425.408	1485.2128	1523.9432	1603.2845	1750.1257	3029.6322	3046.4524	3134.6215	3269.6107	3520.9874
N=COCC1=NOC=N1	[NH][CH]OCc1nocn1	
InChI=1S/C4H5N3O2/c5-2-8-1-4-6-3-9-7-4/h2-3,5H,1H2	InChI=1S/C4H5N3O2/c5-2-8-1-4-6-3-9-7-4/h2-3,5H,1H2
