17
gdb 78183	1.99936	1.80298	1.2548	2.4416	68.29	-0.236	-0.0119	0.2241	1039.0483	0.135656	-458.96947	-458.961301	-458.960357	-459.002279	31.421	
O	-0.1729448748	 1.5580433817	-0.089895739	-0.413483
C	-0.0773582868	 0.1657412449	-0.0341171637	 0.074621
C	-1.3118611249	-0.636658351	 0.1209815547	-0.085211
C	-0.5195859433	-0.7384181844	-1.1861429284	-0.223831
C	-1.3575176303	-0.1054440664	-2.2537212759	 0.434736
O	-1.166452092	-0.1963061013	-3.4409705704	-0.338727
C	-2.520019664	 0.6386609724	-1.5856879035	-0.367061
C	-2.6544206936	 0.0296893747	-0.1767588051	 0.119931
O	-3.6110368164	-1.0235682423	-0.1367095293	-0.441943
H	 0.5481869306	 1.8879612742	-0.637085308	 0.297221
H	 0.7991519065	-0.2021771839	 0.4984333754	 0.106395
H	-1.3363482279	-1.4489699438	 0.8375054662	 0.110323
H	 0.1069607263	-1.5775298124	-1.4606808065	 0.106837
H	-2.2641510502	 1.7013300021	-1.5396218035	 0.137043
H	-3.4323959974	 0.5278125728	-2.1769966203	 0.117034
H	-2.8912355907	 0.792810396	 0.5768851529	 0.081561
H	-4.4770264511	-0.6434008134	-0.3147454855	 0.284553
77.7594	114.6129	218.0854	286.5764	321.6229	341.6829	387.399	404.8563	454.1604	583.6147	621.0168	632.9649	711.8952	742.7004	816.2368	841.5467	907.654	956.3064	974.7729	1001.1088	1029.2595	1059.5033	1097.9379	1117.7411	1179.379	1190.9875	1221.1671	1230.8611	1263.5822	1279.913	1316.8569	1347.8399	1361.6086	1414.0622	1434.6343	1461.7652	1831.4416	3007.7587	3066.3011	3106.6701	3117.5195	3187.8043	3200.6491	3802.9999	3821.4587
OC1C2C1C(=O)CC2O	O[C@H]1[C@@H]2[C@H]1C(=O)C[C@H]2O	
InChI=1S/C6H8O3/c7-2-1-3(8)5-4(2)6(5)9/h2,4-7,9H,1H2	InChI=1S/C6H8O3/c7-2-1-3(8)5-4(2)6(5)9/h2,4-7,9H,1H2/t2-,4+,5-,6+/m1/s1
