20
gdb 64012	2.52297	1.45253	1.16105	4.2931	81.37	-0.2368	-0.03	0.2068	1145.2716	0.171441	-403.209093	-403.200348	-403.199404	-403.241927	34.364	
C	 0.0227526281	 1.5430407853	-0.0145047428	-0.423031
C	-0.0194221601	 0.0101623948	-0.026217988	 0.244919
C	-1.4801474387	-0.4733512817	 0.0948647018	-0.399855
C	 0.6225084785	-0.5284761459	-1.3231806468	-0.266755
C	 1.0341473068	-1.9707039425	-1.213046139	-0.082019
C	 1.3139702506	-2.5319930855	-0.0359673692	-0.137457
C	 1.2538632638	-1.7615496377	 1.2318915923	 0.38508
O	 1.6395861383	-2.2150672222	 2.2967310794	-0.38287
N	 0.7784607843	-0.4762838785	 1.1092452882	-0.343597
H	 1.0542891336	 1.9037631674	-0.0556013571	 0.12517
H	-0.524048672	 1.9493808616	-0.8707869106	 0.121345
H	-0.4436534619	 1.9393079303	 0.8945006024	 0.115377
H	-2.0956288505	-0.0667747329	-0.714767975	 0.112609
H	-1.5366626956	-1.5644209351	 0.0558195942	 0.128597
H	-1.9120955641	-0.1451791659	 1.045585474	 0.114728
H	-0.0792408781	-0.3924382734	-2.1533340239	 0.111413
H	 1.5096938859	 0.071293111	-1.5739501007	 0.120846
H	 1.1346357897	-2.5395204651	-2.1341207266	 0.10604
H	 1.6411411301	-3.5598873093	 0.0666046611	 0.113059
H	 0.6401278413	-0.0162595345	 1.9993325663	 0.236401
105.9803	134.5405	234.8062	255.4158	295.1591	315.0521	335.1165	360.1564	451.236	482.1112	492.0256	533.6919	590.3395	663.6115	678.7019	826.269	845.6341	882.2028	913.6666	937.703	971.0844	1000.5158	1010.7939	1019.9781	1033.7817	1152.525	1164.5412	1206.3022	1252.1986	1287.7781	1339.0405	1358.2494	1397.886	1410.1201	1420.2717	1439.2951	1466.5088	1482.9693	1487.4309	1503.4993	1508.3899	1694.0476	1778.3356	3004.2668	3031.0976	3036.436	3065.5167	3098.7556	3105.0635	3118.2105	3119.8469	3158.0569	3211.3176	3586.435
CC1(C)CC=CC(=O)N1	CC1(C)CC=CC(=O)N1	
InChI=1S/C7H11NO/c1-7(2)5-3-4-6(9)8-7/h3-4H,5H2,1-2H3,(H,8,9)	InChI=1S/C7H11NO/c1-7(2)5-3-4-6(9)8-7/h3-4H,5H2,1-2H3,(H,8,9)
