18
gdb 92523	2.81991	1.59983	1.17406	4.9372	72.41	-0.2323	0.0135	0.2458	1067.6292	0.149309	-439.104236	-439.096178	-439.095234	-439.137261	29.492	
C	-0.0880527036	 1.3695605369	-0.2145887684	-0.344704
N	-0.0663347982	-0.0611440334	-0.0218489787	-0.078009
C	-1.2611188529	-0.8050164651	 0.3391294189	-0.18694
C	-0.8033410773	-2.272274913	 0.365125088	-0.097281
C	-0.7595512536	-3.0235190207	-0.9831336194	-0.078305
O	 0.6849556744	-2.9964875139	-1.0123705979	-0.281924
C	 0.7310168165	-2.2477786997	 0.2232510329	 0.007893
C	 1.1025550544	-0.7805102151	-0.0184383793	 0.403839
O	 2.2148206197	-0.3317613307	-0.1988291001	-0.388913
H	 0.9346758681	 1.6884130618	-0.4230380418	 0.168566
H	-0.7350426803	 1.6448924164	-1.0562851167	 0.125102
H	-0.4526673407	 1.8862519486	 0.6828170035	 0.122682
H	-1.6405936885	-0.4786644434	 1.3185063647	 0.108227
H	-2.0645052967	-0.6360079828	-0.3908617132	 0.110645
H	-1.2284055311	-2.8336551599	 1.1954246157	 0.093547
H	-1.142288491	-4.0502820247	-0.9657032852	 0.109807
H	-1.2021911843	-2.4899329892	-1.8343266045	 0.105486
H	 1.378448925	-2.7155964122	 0.9693305817	 0.100282
86.553	108.9819	155.8268	184.9184	276.0145	304.2604	357.6176	457.6789	601.1129	637.3722	736.8189	786.1081	824.915	886.4922	907.0923	949.6404	983.8426	1003.6275	1029.1695	1089.5062	1116.1119	1138.1247	1154.769	1163.9776	1213.4061	1241.8954	1254.4022	1290.4705	1298.8316	1321.4626	1340.8233	1364.6627	1431.8556	1449.908	1493.2359	1509.7712	1522.1242	1540.7971	1809.9843	2991.0517	3012.4619	3013.1416	3023.2116	3061.8548	3062.4289	3081.6321	3126.1686	3142.7825
CN1CC2COC2C1=O	CN1C[C@H]2CO[C@H]2C1=O	
InChI=1S/C6H9NO2/c1-7-2-4-3-9-5(4)6(7)8/h4-5H,2-3H2,1H3	InChI=1S/C6H9NO2/c1-7-2-4-3-9-5(4)6(7)8/h4-5H,2-3H2,1H3/t4-,5+/m0/s1
