22
gdb 100092	3.24549	0.9026	0.84591	14.9986	83.67	-0.1675	-0.0083	0.1592	1463.8617	0.192159	-441.459089	-441.448456	-441.447512	-441.494774	39.269	
C	 0.2744783128	 1.5076370626	 0.0070629984	-0.354719
N	-0.0239686892	 0.04608788	 0.0022769267	-0.25174
H	 0.3964481641	-0.3941100291	-0.8189033301	 0.295092
H	 0.4122293572	-0.4026583883	 0.8104989252	 0.295095
C	-1.5348779747	-0.4426780231	 0.0143390127	 0.23099
C	-2.1802460537	 0.0827258567	 1.2907615475	-0.425693
C	-2.2047771569	 0.0959305607	-1.2438084416	-0.425695
C	-1.4373343219	-1.9631103896	 0.0054754565	-0.403863
C	-2.8566549931	-2.7518594144	 0.0154015042	 0.368767
O	-3.872262241	-2.0232511621	 0.0293337567	-0.456956
O	-2.7030017144	-3.970169511	 0.0074489176	-0.43782
H	 1.3558385145	 1.6560892764	-0.0027394677	 0.165433
H	-0.1707570065	 1.9598542009	-0.8774624347	 0.186207
H	-0.1533045578	 1.9504610063	 0.9048544414	 0.186213
H	-2.2992183467	 1.1707186149	 1.2963080982	 0.103006
H	-3.1667100807	-0.3911549142	 1.3137746936	 0.214191
H	-1.6258156693	-0.2265974088	 2.1849708495	 0.104069
H	-1.6677133349	-0.2039238636	-2.1517367663	 0.104074
H	-3.1914846327	-0.3779423955	-1.2527045348	 0.214163
H	-2.3238463011	 1.1838982943	-1.23568821	 0.103035
H	-0.9002654272	-2.3088794299	-0.887976193	 0.093078
H	-0.8827464269	-2.3181328231	 0.8844700199	 0.093073
50.7833	81.4263	136.7347	156.8679	210.5305	267.0454	296.7723	301.1622	326.9605	332.4485	342.8614	384.8469	405.2162	543.3037	599.7296	604.2237	709.2281	794.6621	801.8634	809.4455	912.365	954.9834	989.1019	1002.5174	1016.8759	1074.6223	1114.2071	1132.7237	1151.8917	1200.9376	1268.0186	1299.7162	1319.3228	1361.297	1377.5091	1395.5862	1406.0322	1445.0784	1449.675	1467.8684	1495.47	1497.8321	1503.1721	1516.0763	1529.3825	1632.5374	1806.1651	3004.5863	3015.053	3021.3543	3055.1603	3080.5884	3092.0831	3096.4448	3111.8628	3116.8417	3168.549	3192.7412	3427.4908	3488.1928
C[NH2+]C(C)(C)CC([O-])=O	C[NH2]C(C)(C)CC(=O)[O]	
InChI=1S/C6H13NO2/c1-6(2,7-3)4-5(8)9/h7H,4H2,1-3H3,(H,8,9)	InChI=1S/C6H13NO2/c1-6(2,7-3)4-5(8)9/h4,7H2,1-3H3
