18
gdb 30570	6.4059	0.66312	0.60542	1.7207	96.27	-0.1903	0.0096	0.1999	1839.9516	0.148797	-364.836374	-364.827415	-364.82647	-364.87162	32.523	
C	 0.0722768465	 1.521906981	 0.0090100423	-0.363418
C	-0.0164237276	-0.0156972976	 0.0027743935	-0.327068
C	-1.3910921641	-0.5015208536	 0.0128341252	 0.181666
C	-2.5406119297	-0.8748941882	 0.0213409283	-0.067444
C	-3.8746511898	-1.3284106277	 0.0310655796	 0.169989
C	-5.0789849116	-0.6393816253	 0.0425200381	-0.258006
C	-6.1243819411	-1.5942054156	 0.0486727163	-0.129069
C	-5.542825964	-2.8442331116	 0.0409253955	-0.102106
N	-4.1870916564	-2.6753700683	 0.0303660435	-0.304761
H	 1.1182874036	 1.8422052572	 0.001060287	 0.114195
H	-0.424969871	 1.9427963895	-0.8689370953	 0.130151
H	-0.4090678969	 1.9347329971	 0.8995600249	 0.13015
H	 0.5067302268	-0.4068104758	-0.8802187076	 0.127055
H	 0.522346362	-0.4148340616	 0.8726853502	 0.127053
H	-5.1750765231	 0.4348448542	 0.0459295028	 0.095543
H	-7.1841279728	-1.3916690004	 0.0577695133	 0.095811
H	-5.9801803333	-3.8296570865	 0.0420725015	 0.116952
H	-3.5002955677	-3.4091344867	 0.0229584907	 0.263307
24.3271	73.6782	100.937	184.2154	211.7534	298.5453	419.0134	454.191	499.0325	504.8102	571.0769	626.1301	679.4763	722.539	788.8549	801.7049	858.9736	868.3335	898.6412	968.2265	1040.895	1060.9841	1086.813	1103.7211	1126.4452	1146.3287	1269.765	1283.1889	1300.2202	1349.3352	1409.677	1428.8848	1448.352	1478.0728	1483.707	1494.6751	1506.4327	1599.1733	2343.2404	3010.3434	3035.2451	3045.3855	3118.9325	3125.0052	3246.4656	3261.8116	3272.9078	3683.7033
CCC#CC1=CC=CN1	CCC#Cc1ccc[nH]1	
InChI=1S/C8H9N/c1-2-3-5-8-6-4-7-9-8/h4,6-7,9H,2H2,1H3	InChI=1S/C8H9N/c1-2-3-5-8-6-4-7-9-8/h4,6-7,9H,2H2,1H3
