16
gdb 37639	2.9577	2.28649	2.07242	1.4529	64.58	-0.2428	0.0747	0.3175	758.2801	0.128483	-437.840854	-437.835392	-437.834448	-437.870413	23.557	
C	 0.0138255968	 1.5359905684	-0.1035265155	-0.074646
O	 1.2824827649	 2.0872718961	 0.2769151948	-0.260559
C	 2.2658131791	 1.0816205154	 0.3246659033	 0.170475
O	 2.2631168452	 0.3278898329	-0.886665598	-0.254364
C	 1.2726009955	-0.6627030182	-0.6234507294	 0.037511
C	 1.5939407691	-1.2296152691	 0.7733496544	-0.0597
C	 1.9423738626	 0.0481587542	 1.4170965654	-0.073744
N	 0.5134153971	-0.4012374983	 1.4178626227	-0.154363
C	 0.0410865702	 0.0237502988	 0.0514692126	-0.044662
H	-0.7519898757	 1.9786006367	 0.5429465171	 0.117991
H	-0.208071245	 1.8078707081	-1.1444568521	 0.108724
H	 3.227350969	 1.5824146686	 0.4392046664	 0.097121
H	 1.1415077812	-1.3017014515	-1.4940086254	 0.090011
H	 1.8628623607	-2.2270907471	 1.0963429278	 0.103236
H	 2.3963380634	 0.1164745597	 2.3972194843	 0.107787
H	-0.9212647842	-0.4392678847	-0.1728845582	 0.089182
229.1898	391.998	410.0631	568.1431	595.9918	656.6289	707.0647	734.8154	787.9583	817.6274	846.9203	871.8546	901.3971	924.0116	943.1099	967.5924	987.269	994.8957	1045.537	1066.275	1074.9034	1100.2298	1138.5316	1178.3241	1211.6079	1233.7034	1256.0668	1289.0391	1294.2116	1332.4645	1342.7575	1354.4543	1382.1994	1410.2031	1502.4031	3012.2796	3065.6949	3100.3379	3120.8341	3146.415	3195.0498	3207.5268
C1OC2OC3C4C2N4C13	C1O[C@@H]2O[C@H]3[C@H]4[C@@H]2N4[C@@H]13	
InChI=1S/C6H7NO2/c1-2-5-3-4(7(2)3)6(8-1)9-5/h2-6H,1H2	InChI=1S/C6H7NO2/c1-2-5-3-4(7(2)3)6(8-1)9-5/h2-6H,1H2/t2-,3+,4-,5+,6+,7?/m0/s1
