13
gdb 129728	3.35461	1.30922	0.94643	5.0614	67.26	-0.2402	-0.0281	0.2121	1123.339	0.091579	-448.951572	-448.943651	-448.942706	-448.984036	29.022	
N	-0.2733429616	 1.41876477	-0.1114275954	-0.634026
C	-0.0659359156	 0.0173124623	-0.0597087212	-0.085932
C	-1.1032852938	-0.8878632136	-0.1539370008	 0.480042
O	-2.4170099333	-0.6858002288	-0.3007245081	-0.423783
N	-0.5695740277	-2.1257182358	-0.071165533	-0.270854
N	 0.7750991083	-2.1115109456	 0.0747482768	-0.301881
C	 1.0832399192	-0.8120102237	 0.0816759778	 0.218509
C	 2.4261291058	-0.3650424596	 0.2175902897	 0.240208
N	 3.4932580576	 0.0703272916	 0.3244297562	-0.343832
H	 0.2218634216	 1.8481269726	-0.8871329519	 0.256914
H	 0.0436894303	 1.881700784	 0.7350292006	 0.256897
H	-2.5307982749	 0.2770465026	-0.3340536266	 0.316553
H	-1.055086446	-3.0068741161	-0.1042458243	 0.291184
121.4158	135.4593	199.5682	236.8362	277.115	330.5106	429.9591	496.3975	519.9327	525.531	565.2679	618.4153	702.2963	734.2284	748.6916	788.9975	859.2211	1065.819	1159.6128	1190.7143	1220.5361	1284.1261	1395.1989	1416.9046	1465.305	1581.3714	1637.8576	1685.2046	2352.8431	3496.5806	3560.2	3669.6183	3726.6367
NC1=C(O)NN=C1C#N	Nc1c(O)[nH]nc1C#N	
InChI=1S/C4H4N4O/c5-1-2-3(6)4(9)8-7-2/h6H2,(H2,7,8,9)	InChI=1S/C4H4N4O/c5-1-2-3(6)4(9)8-7-2/h6H2,(H2,7,8,9)
