14
gdb 5556	3.45105	1.91787	1.29655	1.6651	60.38	-0.2009	0.0039	0.2048	889.3497	0.108876	-415.880359	-415.873028	-415.872084	-415.912156	26.889	
N	-0.0273278999	 1.3784769633	-0.1052406421	-0.5979
C	-0.0555581674	-0.0045819073	-0.0454697399	 0.208261
C	-1.1311940531	-0.8389896192	 0.054991471	 0.218293
C	-2.5994470807	-0.604090638	 0.047901416	-0.187769
O	-2.9702794335	 0.3638960142	-0.9379550461	-0.411707
O	-0.6319404478	-2.1282121155	 0.1398428511	-0.178027
C	 0.7004497472	-1.9762213869	 0.0892935193	 0.06448
N	 1.1119917829	-0.7526027504	-0.0248555151	-0.301349
H	 0.8077867077	 1.7340910031	-0.5492327336	 0.253373
H	-0.8739556992	 1.7711732864	-0.4951656179	 0.255045
H	-3.1219557105	-1.560988199	-0.0928613832	 0.115162
H	-2.9523721034	-0.1767028965	 0.9940238731	 0.13039
H	-2.6756082518	 0.0244079515	-1.7905900798	 0.283747
H	 1.2982826295	-2.8724001758	 0.1468252572	 0.147999
76.9192	152.4496	217.1156	306.3899	348.8181	380.293	433.5682	448.3456	630.3985	663.1563	710.393	734.7877	782.0297	830.1828	946.6114	963.8894	1029.5483	1051.9514	1144.3644	1178.8622	1225.0406	1281.1205	1322.4516	1365.4862	1410.6965	1448.17	1500.6901	1547.4883	1627.8703	1693.5403	3007.3856	3052.6322	3273.9596	3549.2074	3655.2828	3799.7271
NC1=C(CO)OC=N1	Nc1c(CO)ocn1	
InChI=1S/C4H6N2O2/c5-4-3(1-7)8-2-6-4/h2,7H,1,5H2	InChI=1S/C4H6N2O2/c5-4-3(1-7)8-2-6-4/h2,7H,1,5H2
