21
gdb 39958	4.60666	1.03036	1.00094	1.4171	83.42	-0.2215	0.0755	0.297	1293.7073	0.182236	-387.052956	-387.044674	-387.04373	-387.086172	32.858	
C	 0.4750750522	 1.5533686103	 0.0561322021	-0.334133
C	 1.4156136761	 0.3777919233	-0.1927176574	-0.334134
C	-0.0365297571	 0.1522818895	 0.0627221902	 0.449553
C	-0.7383292421	-0.6406430138	 1.1560780089	-0.434296
C	-1.6477954083	-1.1239635222	 0.0020154551	 0.460874
C	-1.8448625599	-2.6316740621	-0.266190762	-0.284997
C	-3.2827538672	-2.4969625894	 0.3089300678	-0.215351
C	-3.1808865426	-0.9617277402	 0.0873016434	-0.284996
O	-0.913570157	-0.3339773975	-0.9549821903	-0.333182
H	 0.5460510146	 2.0875503857	 0.9984421827	 0.111591
H	 0.2139482541	 2.1693489918	-0.7978070156	 0.123351
H	 1.7662083983	 0.2291838664	-1.2085081628	 0.123351
H	 2.129398758	 0.108528032	 0.5795152762	 0.111591
H	-0.1371046434	-1.419139315	 1.6317074513	 0.109137
H	-1.2376073383	-0.0435995805	 1.9228968573	 0.109137
H	-1.8554236729	-2.8191656915	-1.3438230723	 0.113548
H	-1.1508881958	-3.3293941481	 0.2098643822	 0.094561
H	-4.0816869598	-3.0254894177	-0.2138032463	 0.102297
H	-3.3286311203	-2.7581529617	 1.3694364768	 0.103989
H	-3.5810861519	-0.2917990574	 0.8528590023	 0.094561
H	-3.5781117766	-0.6659136819	-0.8880250795	 0.113548
44.4672	109.2573	212.2358	263.3153	320.9856	366.154	382.9369	425.6928	464.1565	646.139	700.1306	756.5032	782.6736	826.565	850.5562	896.684	901.0292	908.1108	917.3274	920.3046	930.3216	966.8364	995.4589	1025.7939	1047.5443	1066.2665	1124.4388	1133.8043	1172.9116	1183.5492	1186.3302	1212.8648	1228.9107	1244.3502	1250.8945	1273.4238	1290.0242	1305.7012	1388.8596	1447.726	1466.2468	1480.1722	1486.4842	1503.1276	1506.6892	3052.7817	3056.8253	3061.9983	3067.6241	3104.1851	3109.0179	3115.3996	3124.9535	3126.4886	3127.7732	3208.5108	3222.7784
C1CC11CC2(CCC2)O1	C1CC21CC1(CCC1)O2	
InChI=1S/C8H12O/c1-2-7(3-1)6-8(9-7)4-5-8/h1-6H2	InChI=1S/C8H12O/c1-2-7(3-1)6-8(9-7)4-5-8/h1-6H2
