15
gdb 128395	6.57986	0.81379	0.7275	7.0197	79.82	-0.221	-0.0399	0.1812	1478.8089	0.112387	-450.113017	-450.104355	-450.103411	-450.147732	29.648	
C	 0.0728567635	 1.4248173465	 0.2555832831	-0.315591
N	-0.0588139197	 0.0622764431	-0.2306618648	-0.278734
C	-1.2295260431	-0.594213604	-0.2518126553	 0.110488
N	-2.3193168996	-0.0377824574	 0.1675837612	-0.387443
C	-3.4795935253	-0.7505095355	 0.1233107792	 0.494663
C	-4.7454752562	-0.3840088534	 0.5062207719	-0.212985
N	-5.5679285767	-1.4468911508	 0.264600568	-0.108866
N	-4.9368396628	-2.4173417488	-0.2232666442	-0.035059
O	-3.5431895652	-2.008157787	-0.3385060291	-0.239913
H	 1.1165119883	 1.7299659243	 0.1684886302	 0.131403
H	-0.5545237097	 2.1059773107	-0.3272426314	 0.153587
H	-0.2395905541	 1.4940986202	 1.3019301436	 0.153594
H	 0.7570896206	-0.4164961308	-0.5688169839	 0.265815
H	-1.1765030553	-1.6123004862	-0.6448173136	 0.13944
H	-5.0958360947	 0.543119119	 0.923460965	 0.129601
50.2253	61.3577	114.7245	129.1323	233.2581	266.0663	359.4898	438.2677	472.3205	562.9155	644.4773	686.0843	747.9444	808.1256	853.5107	976.0323	985.9108	1007.0448	1043.7405	1133.8394	1158.9694	1173.3983	1252.7847	1302.575	1346.4516	1384.5824	1449.2215	1457.5173	1473.7072	1507.2319	1547.2795	1629.757	1695.0392	3044.8513	3103.6254	3104.9369	3146.0445	3299.3149	3680.4495
CNC=NC1=CN=NO1	CNC=Nc1cnno1	
InChI=1S/C4H6N4O/c1-5-3-6-4-2-7-8-9-4/h2-3H,1H3,(H,5,6)	InChI=1S/C4H6N4O/c1-5-3-6-4-2-7-8-9-4/h2-3H,1H3,(H,5,6)
