19
gdb 83354	2.20895	2.00737	1.60232	1.7068	74.13	-0.2404	0.0182	0.2585	939.3483	0.16081	-423.032072	-423.024328	-423.023384	-423.063512	31.939	
O	 0.0529698975	 1.3809395782	 0.0554016208	-0.456325
C	 0.023626382	-0.026403543	 0.0643307624	 0.132586
C	 0.3501633259	-0.6305688319	 1.4476539448	-0.097489
C	-0.8041109374	-0.0213642642	 2.313965683	-0.20289
C	-2.0109784652	-0.0277032129	 1.3323075628	-0.260168
C	-1.3992678348	-0.6395075498	 0.0308950974	 0.337995
O	-2.084041432	-0.3441398204	-1.1643756777	-0.517381
C	-1.0529094912	-2.087748909	 0.3278682742	-0.144959
C	-0.0110776155	-2.0791433696	 1.1671035165	-0.083798
H	-0.4291371933	 1.6612211242	-0.7314374764	 0.288791
H	 0.6514004815	-0.4509192982	-0.7299113951	 0.069195
H	 1.3518737505	-0.4493985928	 1.837098516	 0.067203
H	-0.9824001687	-0.6108025741	 3.21596045	 0.092983
H	-0.5521406532	 0.998249298	 2.6116035619	 0.113994
H	-2.8590153512	-0.6172152264	 1.6919198461	 0.087595
H	-2.353951377	 0.9889959884	 1.1232348877	 0.100392
H	-3.0288072321	-0.4344244832	-1.0069818767	 0.281436
H	-1.6117980461	-2.9379536632	-0.044147708	 0.094074
H	 0.4589613905	-2.9320747901	 1.6409937202	 0.096768
203.0788	212.1414	249.1397	251.1897	349.3056	366.1242	386.9411	415.6865	515.5574	586.8641	637.6231	676.5618	730.5225	765.1718	800.921	842.2704	873.1576	927.1907	939.646	950.8539	998.8681	1015.2769	1048.6612	1064.0048	1102.8349	1136.908	1151.5298	1179.6708	1218.8358	1224.4453	1257.9785	1274.3212	1300.5052	1306.3253	1326.5439	1358.5483	1390.8236	1416.153	1475.7177	1497.494	1639.5555	3026.177	3053.9495	3073.2801	3100.1746	3115.8226	3124.6219	3192.0782	3217.2433	3795.7245	3823.5375
OC1C2CCC1(O)C=C2	O[C@H]1[C@H]2CC[C@]1(O)C=C2	
InChI=1S/C7H10O2/c8-6-5-1-3-7(6,9)4-2-5/h1,3,5-6,8-9H,2,4H2	InChI=1S/C7H10O2/c8-6-5-1-3-7(6,9)4-2-5/h1,3,5-6,8-9H,2,4H2/t5-,6+,7-/m1/s1
