19
gdb 58943	3.43655	1.31192	1.22549	2.0477	74.33	-0.2372	0.0741	0.3113	1097.9463	0.15855	-422.95868	-422.950485	-422.94954	-422.991445	32.011	
C	-0.0228606902	 1.4523025519	-0.1973728686	-0.396984
C	-0.0578547473	-0.0449851658	 0.1303991159	-0.00432
O	 0.4630153234	-0.3037062093	 1.4294678049	-0.432827
C	-1.4424136932	-0.5997896683	 0.0133350648	 0.499709
O	-2.4181822094	-0.1082896853	 0.9499491185	-0.348358
C	-3.2510775562	-1.2322669382	 0.5360348124	 0.064306
C	-3.6757591306	-0.849390201	-0.9048178904	-0.234933
C	-2.1981266701	-1.046660814	-1.2495606865	-0.170952
C	-1.998953204	-1.9800582415	-0.0519330322	-0.215272
H	 0.9828739578	 1.8429831695	-0.025007672	 0.121023
H	-0.3007056008	 1.6334292902	-1.2406472805	 0.113188
H	-0.7248393187	 1.9970035779	 0.4415670837	 0.12858
H	 0.5908481389	-0.5896630153	-0.5665889351	 0.090132
H	-0.2430405347	-0.0892585752	 2.0512213463	 0.287407
H	-3.9472161355	-1.5632221204	 1.3034180377	 0.089475
H	-4.2967397099	-1.6234569826	-1.3628170542	 0.107284
H	-4.1300615649	 0.1381686083	-1.0315346132	 0.102887
H	-1.7282005461	-1.0999626716	-2.2234502217	 0.093964
H	-1.5694064483	-2.9651411094	 0.0611979301	 0.105691
73.1856	132.3866	177.6441	244.1791	318.1356	335.5791	382.5565	469.0078	484.7977	580.4802	659.1856	783.3396	799.0746	805.0808	830.4193	877.3895	904.8167	929.5522	939.7167	952.5741	987.1768	1003.8051	1038.557	1067.5313	1088.6255	1100.0893	1108.1255	1147.4886	1162.6406	1179.2358	1244.1212	1268.416	1282.3594	1312.8419	1336.6548	1398.8177	1408.4046	1461.4575	1487.5992	1490.3698	1502.5077	3040.1625	3040.9949	3050.5884	3112.8478	3114.0963	3127.7989	3148.274	3197.7995	3219.1862	3787.9154
CC(O)C12OC3CC1C23	C[C@@H](O)[C@@]12O[C@H]3C[C@@H]1[C@@H]23	
InChI=1S/C7H10O2/c1-3(8)7-4-2-5(9-7)6(4)7/h3-6,8H,2H2,1H3	InChI=1S/C7H10O2/c1-3(8)7-4-2-5(9-7)6(4)7/h3-6,8H,2H2,1H3/t3-,4-,5+,6-,7-/m1/s1
