15
gdb 44214	4.19154	1.16094	1.10617	3.4581	65.31	-0.2642	-0.0103	0.2539	1089.4816	0.112346	-457.722655	-457.715411	-457.714467	-457.754951	26.874	
O	-0.0004266248	 0.0868988051	-0.0844041459	-0.317165
C	 0.0787339978	 1.2692056987	-0.0659044892	 0.480607
O	-0.9662167136	 2.1890926782	-0.1709467298	-0.261486
C	-0.0425765321	 3.2805683935	 0.095734622	 0.006435
C	 1.1369036867	 2.3299832009	 0.1028310257	-0.362651
C	 0.9316492552	 3.3632085658	-1.0066263771	 0.265536
C	 0.7370734508	 3.2222605615	-2.5133389738	-0.138801
O	 1.5889746539	 4.3716643146	-2.7364521849	-0.271248
C	 1.8755378729	 4.5191602082	-1.3323784826	-0.149754
H	-0.358254586	 4.0439028398	 0.79339707	 0.136549
H	 2.0312877006	 2.2763182887	 0.7069789457	 0.133642
H	 1.1501325946	 2.3111611643	-2.9618606341	 0.122239
H	-0.2835944918	 3.3821606906	-2.8767723266	 0.126881
H	 1.5831688451	 5.5040228864	-0.9468269299	 0.115032
H	 2.9343629806	 4.3411852036	-1.1044712996	 0.114186
79.6836	119.7348	189.0433	236.864	372.1771	421.6803	494.7736	599.9015	705.739	781.203	825.1756	856.2981	863.5295	908.1198	941.0241	970.165	992.4248	1012.3642	1031.1725	1050.9566	1081.2196	1125.1386	1145.2131	1151.0175	1163.4818	1222.8188	1251.2598	1308.1678	1362.6551	1447.4946	1507.3364	1531.0691	1949.5415	3008.528	3029.7917	3052.2478	3079.7343	3217.2217	3228.3682
O=C1OC2C1C21COC1	O=C1O[C@H]2[C@@H]1C12COC1	
InChI=1S/C6H6O3/c7-5-3-4(9-5)6(3)1-8-2-6/h3-4H,1-2H2	InChI=1S/C6H6O3/c7-5-3-4(9-5)6(3)1-8-2-6/h3-4H,1-2H2/t3-,4-/m0/s1
