19
gdb 106963	3.59283	1.04667	0.98539	1.6532	71.59	-0.2588	0.0677	0.3265	1270.1923	0.156451	-460.120247	-460.110885	-460.109941	-460.154199	35.416	
C	 0.0481214905	 1.5672242724	 0.0352501323	-0.457527
C	 0.0174756096	 0.0493232166	 0.0003609684	 0.391891
O	-1.300854982	-0.4677166922	 0.0023630746	-0.481796
C	 0.948834514	-0.6775058958	-1.0526312186	-0.352824
C	 1.6369234763	-1.3875282123	 0.1216064072	 0.40301
C	 2.3544059192	-2.6977439035	 0.161988756	-0.184962
O	 3.5915852142	-2.6430642541	-0.5323013995	-0.413561
O	 2.1718555956	-0.3359975632	 0.9618981437	-0.301552
C	 0.7954905387	-0.6924995544	 1.1080742216	-0.078397
H	 1.0742892154	 1.9225780817	 0.1554755043	 0.138678
H	-0.348498262	 1.9853476171	-0.8983550473	 0.107392
H	-0.5601248203	 1.9422263444	 0.8642796894	 0.123085
H	-1.7738140859	-0.0805801424	-0.7421317152	 0.279726
H	 0.3595769803	-1.3528764254	-1.6768786106	 0.10888
H	 1.6017822111	-0.0564431463	-1.6700247615	 0.104095
H	 2.4879277576	-3.0000465258	 1.2115874381	 0.099148
H	 1.7579952457	-3.467075101	-0.3389731393	 0.117437
H	 4.1185315959	-1.9559556516	-0.1092120792	 0.292851
H	 0.4393960561	-0.9843235843	 2.090303746	 0.104428
69.431	105.1481	181.0223	242.669	250.69	270.4453	320.8904	327.6872	397.0964	417.9118	452.9509	456.1045	546.84	650.2538	715.4882	785.3457	853.0994	899.1249	929.9304	946.6843	967.0922	979.3346	1019.8861	1071.0965	1097.1684	1113.7035	1149.7765	1183.5823	1212.2056	1232.7401	1249.7886	1292.1856	1365.2847	1385.3744	1399.0901	1417.4301	1449.8536	1477.7816	1487.3662	1488.8712	1498.2273	2995.0521	3026.5547	3066.8026	3081.4175	3094.3378	3128.9821	3132.1055	3181.3303	3804.7696	3806.2555
CC1(O)CC2(CO)OC12	C[C@@]1(O)C[C@@]2(CO)O[C@@H]12	
InChI=1S/C6H10O3/c1-5(8)2-6(3-7)4(5)9-6/h4,7-8H,2-3H2,1H3	InChI=1S/C6H10O3/c1-5(8)2-6(3-7)4(5)9-6/h4,7-8H,2-3H2,1H3/t4-,5+,6-/m0/s1
