13
gdb 14416	3.49121	2.1974	1.79361	3.2723	57.68	-0.2249	-0.0056	0.2193	738.2544	0.095949	-398.532115	-398.525913	-398.524969	-398.562314	24.291	
O	-0.1464808353	 1.3960808594	 0.0216589493	-0.439769
C	 0.0438585458	 0.0516053158	-0.0012043403	 0.384442
C	 0.0719219109	-1.0235274502	-1.0242996449	-0.116482
N	 1.2854726439	-1.6354541576	-0.4705816477	-0.302987
C	 0.9622714858	-0.9616885819	 0.8223077295	-0.237551
C	-0.3926787831	-1.5589806064	 1.2895488463	 0.448176
O	-0.7769265887	-2.0344145716	 2.319826468	-0.331478
C	-1.0560271977	-1.0319626269	 0.0526309546	-0.265379
H	 0.637923171	 1.8243795511	-0.3426317189	 0.304921
H	-0.1716935377	-1.0122712394	-2.0794913886	 0.116904
H	 1.2339624613	-2.6547712768	-0.3972394704	 0.219852
H	 1.774081225	-0.7495887806	 1.5141698924	 0.099142
H	-2.1021324713	-0.9240066248	-0.1963455293	 0.120211
125.719	309.2221	318.3823	372.0337	427.839	510.9735	605.5499	620.3836	721.4347	757.7914	779.7366	843.6128	890.3096	932.1761	953.8918	1001.2437	1033.1013	1069.7287	1081.1441	1128.9447	1147.0512	1180.1833	1210.8396	1285.7401	1316.3107	1344.5658	1492.6376	1883.712	3154.4417	3195.7922	3231.1682	3410.3137	3780.965
OC12C3NC1C(=O)C23	O[C@@]12[C@H]3N[C@@H]1C(=O)[C@@H]23	
InChI=1S/C5H5NO2/c7-2-1-3-5(1,8)4(2)6-3/h1,3-4,6,8H	InChI=1S/C5H5NO2/c7-2-1-3-5(1,8)4(2)6-3/h1,3-4,6,8H/t1-,3+,4-,5+/m1/s1
