17
gdb 38632	3.54666	1.97533	1.67546	1.7947	70.24	-0.2272	0.0774	0.3046	830.7777	0.139245	-421.755429	-421.749761	-421.748817	-421.785082	24.92	
C	-0.0321768371	 1.5554655844	 0.1013859796	-0.350842
C	 1.5115318759	 1.2996109984	-0.0319752181	 0.044157
O	 1.8629147327	 0.6679945808	 1.2042883905	-0.264878
C	 1.0476084199	-0.4827421899	 1.0563734304	 0.06592
C	 1.4919710324	-1.2755663775	-0.1857320175	 0.061462
O	 0.342168051	-2.1100420578	-0.4807411844	-0.296864
C	-0.8129836862	-1.226985039	-0.3266173945	-0.183428
C	-0.0638881598	 0.0268107122	 0.0293105053	 0.230306
C	 1.2030709483	 0.0399498736	-0.9177387441	-0.079234
H	-0.3800455513	 2.0634733039	 1.0040210064	 0.109119
H	-0.444012758	 2.0234383955	-0.7962078689	 0.112158
H	 2.223576425	 2.0784839345	-0.2983401031	 0.087225
H	 0.8168373432	-0.9613294762	 2.0065555611	 0.086385
H	 2.3908592017	-1.8858367793	-0.2611202102	 0.081714
H	-1.3661453009	-1.1736459067	-1.2709501764	 0.10743
H	-1.4700013265	-1.6227939303	 0.4562278933	 0.106488
H	 1.1055709096	 0.1276176033	-1.9977944493	 0.082884
305.9612	357.4743	403.9737	442.4282	504.1165	620.0756	660.7861	731.691	741.6534	819.7172	858.1597	884.4992	908.8001	927.4204	935.8371	941.647	959.378	997.5038	1008.8423	1039.2326	1070.3861	1085.9164	1115.5088	1143.0537	1158.311	1196.8863	1203.5438	1211.9258	1228.2691	1247.9068	1252.6089	1284.2484	1295.7285	1361.674	1367.2759	1479.7755	1526.2029	3026.2513	3062.9562	3067.6143	3127.6784	3128.8935	3138.5923	3141.21	3149.7599
C1C2OC3C4OCC13C24	C1[C@H]2O[C@@H]3[C@H]4OC[C@@]13[C@@H]24	
InChI=1S/C7H8O2/c1-3-4-5-6(9-3)7(1,4)2-8-5/h3-6H,1-2H2	InChI=1S/C7H8O2/c1-3-4-5-6(9-3)7(1,4)2-8-5/h3-6H,1-2H2/t3-,4+,5+,6-,7-/m1/s1
