19
gdb 116798	3.65364	0.66926	0.66038	2.1665	76.26	-0.2426	0.0139	0.2566	1785.891	0.157247	-456.372342	-456.361975	-456.361031	-456.409577	36.223	
C	 0.343769612	 1.1004716481	-0.7038066697	-0.398014
C	-0.2136470746	-0.3247891987	-0.7655942127	-0.112456
N	 0.710765408	-1.4319814674	-0.9519558201	-0.231018
C	 1.9452460624	-1.2324333422	-1.0389774826	 0.126108
O	 2.7893732096	-2.2941325362	-1.1551572003	-0.216977
C	 4.1170594811	-2.0152947045	-1.5790100739	-0.193709
C	 4.3350982658	-2.204766461	-3.0857155848	 0.36719
N	 3.2783445551	-2.7392165632	-3.7467512124	-0.510534
O	 5.3916280363	-1.8920943038	-3.5966429093	-0.357744
H	 1.0373411164	 1.2324406478	 0.1335783347	 0.121697
H	 0.8661745944	 1.3754009848	-1.6264246215	 0.122208
H	-0.4788325167	 1.8083814197	-0.5660463642	 0.119403
H	-0.7772490823	-0.5347166929	 0.1529978288	 0.11791
H	-0.9526972768	-0.3910114972	-1.574810378	 0.115458
H	 2.4631010729	-0.2658763476	-1.0137024123	 0.09206
H	 4.4230199058	-0.9953934446	-1.3196831572	 0.138029
H	 4.7788938144	-2.707861385	-1.0516709589	 0.151074
H	 2.462211868	-3.0487879265	-3.2457525292	 0.283815
H	 3.3775164581	-2.9469400995	-4.7264634266	 0.265502
31.9477	46.4034	56.0497	164.9229	169.3532	219.0086	291.7644	327.36	336.4504	365.8818	404.6356	510.5657	527.7556	539.2166	626.4451	683.2152	779.1006	858.2696	896.567	978.1041	1007.6466	1045.1178	1089.1868	1093.684	1102.9421	1146.9817	1196.4162	1300.6276	1314.6475	1361.5431	1372.986	1377.938	1396.9651	1419.0221	1471.9542	1484.0408	1494.4838	1506.4173	1601.7908	1780.5689	1811.3781	3018.7715	3031.6289	3039.2854	3043.5711	3050.6977	3100.99	3106.5332	3109.4393	3598.005	3735.2715
CCN=COCC(N)=O	CCN=COCC(=O)N	
InChI=1S/C5H10N2O2/c1-2-7-4-9-3-5(6)8/h4H,2-3H2,1H3,(H2,6,8)	InChI=1S/C5H10N2O2/c1-2-7-4-9-3-5(6)8/h4H,2-3H2,1H3,(H2,6,8)
