17
gdb 65745	2.77726	1.15038	1.02478	3.694	68.26	-0.2589	-0.0345	0.2244	1202.552	0.133666	-458.997997	-458.988857	-458.987912	-459.032702	32.015	
C	 0.0713683161	 1.5759465721	-0.1450626421	-0.453824
C	-0.012266854	 0.0502364295	-0.0737295989	 0.077629
C	-1.4512104839	-0.4498881853	 0.1421870116	-0.339579
C	-2.0576924401	 0.0379557359	 1.4484633985	 0.151601
O	-3.1336197444	 0.5720570412	 1.5277845803	-0.24067
C	 0.8026902353	-0.7184296506	-1.1423816103	-0.124504
O	 1.6985725092	-1.2385327919	-0.1075305652	-0.24095
C	 1.0130415611	-0.5875202526	 0.8830518207	 0.450015
O	 1.2311893123	-0.5980616959	 2.052604208	-0.329393
H	 1.0974682149	 1.9111692652	-0.321765914	 0.133959
H	-0.5600155989	 1.9559685154	-0.9548325093	 0.134256
H	-0.2726850358	 2.028014452	 0.7897516705	 0.151133
H	-2.1002218675	-0.1321064689	-0.6800226585	 0.127697
H	-1.4551292496	-1.5487629223	 0.1744616336	 0.13097
H	-1.430783417	-0.1449618152	 2.346803709	 0.11471
H	 0.2877464735	-1.5355034416	-1.6518432034	 0.127977
H	 1.3543896488	-0.1040449772	-1.8567837503	 0.128972
59.806	84.1607	118.1851	162.5257	208.4078	234.8208	280.5221	349.5156	376.058	471.9596	560.7244	696.4155	737.7212	777.0989	819.2903	893.3642	935.8746	964.4331	983.3098	1023.842	1056.6335	1113.3345	1155.6448	1158.7507	1188.681	1241.08	1274.3198	1320.1238	1357.6472	1417.9367	1429.2775	1461.1882	1492.1994	1494.8329	1517.7052	1831.8375	1925.7174	2919.7545	3015.819	3039.1276	3070.9541	3089.8593	3111.015	3118.0106	3133.2417
CC1(CC=O)COC1=O	C[C@@]1(CC=O)COC1=O	
InChI=1S/C6H8O3/c1-6(2-3-7)4-9-5(6)8/h3H,2,4H2,1H3	InChI=1S/C6H8O3/c1-6(2-3-7)4-9-5(6)8/h3H,2,4H2,1H3/t6-/m1/s1
