19
gdb 39015	2.95887	1.71645	1.28007	1.8333	80.42	-0.2384	0.013	0.2514	1014.709	0.161949	-385.862409	-385.855354	-385.85441	-385.893633	28.857	
C	 0.0376457165	 1.5044435633	-0.2000803962	-0.290142
C	 1.3295181163	 0.7575888657	-0.0003778177	-0.021845
C	 2.1401916513	 0.926226537	 1.2908039595	-0.265146
C	 1.2695542321	 0.916827674	 2.5296034874	-0.242878
C	 0.166020036	 0.1866598532	 2.5112887387	 0.25257
C	-1.1968622423	 0.0900767003	 3.1471097167	-0.162089
O	-1.739137901	-0.3480291285	 1.8698209791	-0.311195
C	-0.3891349604	-0.5627377534	 1.3386859652	 0.090058
C	-0.0009418184	 0.011142193	 0.0031049779	-0.060439
H	-0.3196374401	 2.1280476085	 0.6118619431	 0.120119
H	-0.1927421441	 1.8805616366	-1.190378745	 0.10976
H	 1.9453507128	 0.6165472191	-0.8836154071	 0.08504
H	 2.9040224241	 0.1372952509	 1.3413334914	 0.113359
H	 2.6946227181	 1.8717414828	 1.2439549713	 0.108365
H	 1.5268229421	 1.5635177279	 3.3635531025	 0.092231
H	-1.3133068872	-0.6832530255	 3.9201758137	 0.104539
H	-1.6526527887	 1.0222347062	 3.5010906064	 0.115932
H	-0.1726583098	-1.6419882894	 1.3481503261	 0.078748
H	-0.2254302373	-0.6007520316	-0.8648605629	 0.083013
138.3861	186.6701	274.4342	317.0505	376.4939	416.2978	473.3238	587.6848	693.2905	739.7513	773.372	791.9287	832.7205	855.7932	902.6549	929.1063	963.7906	968.2532	989.3959	1020.4716	1025.5153	1066.5813	1072.9466	1109.4123	1112.4714	1129.3394	1139.9657	1146.8128	1215.9209	1237.5476	1265.7562	1305.2977	1326.647	1349.9911	1369.8624	1388.0359	1413.174	1481.2492	1490.4197	1510.2344	1790.5397	2978.9793	2996.0216	3005.0294	3043.0896	3053.0545	3138.6009	3145.8592	3157.095	3167.2482	3223.8837
C1C2CC=C3COC3C12	C1[C@H]2C[CH][C]3CO[C@H]3[C@@H]12	
InChI=1S/C8H10O/c1-2-6-4-9-8(6)7-3-5(1)7/h2,5,7-8H,1,3-4H2	InChI=1S/C8H10O/c1-2-6-4-9-8(6)7-3-5(1)7/h2,5,7-8H,1,3-4H2/t5-,7+,8-/m1/s1
