19
gdb 53439	2.5489	1.11254	0.92035	1.5129	80.05	-0.2429	0.0389	0.2818	1365.0983	0.157593	-423.00367	-422.993704	-422.99276	-423.041143	33.962	
C	 0.241281288	 1.3412554148	 0.5631135428	-0.499029
C	 0.0821974164	-0.0705510153	 0.2467189976	 0.01422
C	-0.0432703265	-1.2388234021	-0.0180934451	 0.148663
C	-0.1708543071	-2.6602168606	-0.3419814575	-0.11964
O	 0.7792564911	-3.4669862447	 0.3598791046	-0.248386
C	 0.1769606889	-3.8373755795	 1.5860392164	 0.025179
O	-1.2159212124	-3.6336808464	 1.4707721003	-0.269661
C	-1.4994948523	-3.3098260362	 0.1117404281	 0.131006
C	-2.7583265789	-2.4698287898	 0.0372552818	-0.412269
H	 1.2774369419	 1.6652896591	 0.4168487847	 0.153019
H	-0.3942587787	 1.9633425752	-0.076611216	 0.151174
H	-0.0297854633	 1.5492678447	 1.6038043424	 0.152083
H	 0.0085383374	-2.821736706	-1.4095964378	 0.111104
H	 0.4190563701	-4.8947120315	 1.7651010904	 0.102991
H	 0.5453189706	-3.221668098	 2.419710522	 0.102962
H	-1.6245740942	-4.2345363933	-0.4741126692	 0.074439
H	-2.6326943278	-1.540774893	 0.5970724471	 0.136605
H	-2.9912680686	-2.2256349247	-1.0038946763	 0.117703
H	-3.6020147645	-3.0248578927	 0.4558178536	 0.127837
17.6415	38.4247	84.2375	93.6728	179.7561	219.0002	254.8101	325.0437	337.3084	421.9299	477.0438	570.45	652.8409	747.1916	838.9572	865.8378	910.6729	958.2987	1021.7922	1052.2991	1053.4829	1057.926	1097.0095	1137.3124	1153.7933	1162.8598	1185.6929	1213.7017	1275.9963	1333.5496	1369.0247	1387.4694	1413.3038	1417.0213	1432.3918	1476.2962	1478.1935	1485.2488	1495.9813	1550.8659	2365.7489	2973.123	2986.9379	3022.9607	3029.2269	3048.9567	3063.2063	3091.0531	3091.8286	3118.7655	3139.3111
CC#CC1OCOC1C	CC#C[C@H]1OCO[C@H]1C	
InChI=1S/C7H10O2/c1-3-4-7-6(2)8-5-9-7/h6-7H,5H2,1-2H3	InChI=1S/C7H10O2/c1-3-4-7-6(2)8-5-9-7/h6-7H,5H2,1-2H3/t6-,7+/m0/s1
