23
gdb 94696	3.22439	1.35345	1.17823	1.2509	85.21	-0.2329	0.085	0.3179	1174.4984	0.206873	-388.293082	-388.284559	-388.283615	-388.325384	34.828	
C	-0.6889197474	 1.3171737606	 0.0259867234	-0.414531
C	 0.0919382226	 0.0017570873	-0.0287218259	 0.015911
C	 1.0976100224	 0.015646747	-1.2037011638	-0.077605
O	 2.209534469	-0.8544792246	-1.0222308027	-0.314136
C	 2.6472768893	-0.9845388327	 0.3340145041	 0.438733
C	 4.0504719947	-1.5443760645	 0.2977984444	-0.46267
C	 1.5265066138	-1.6945820189	 1.1472295358	-0.265473
C	 0.8759559563	-0.2892434858	 1.2661604531	-0.022354
C	 2.3149355432	 0.297792945	 1.1572647451	-0.2859
H	-0.0251714797	 2.1611079306	 0.2469855318	 0.116971
H	-1.1853824695	 1.527001994	-0.9279478504	 0.113824
H	-1.4597733758	 1.2848770192	 0.8026108671	 0.114089
H	-0.6221924601	-0.8194022374	-0.1758658454	 0.0736
H	 0.6190059928	-0.2864595916	-2.1404807109	 0.103265
H	 1.4590582115	 1.0459321528	-1.3469564239	 0.087281
H	 4.7285346076	-0.8515467044	-0.2104421568	 0.119544
H	 4.4225767376	-1.7196401223	 1.311356467	 0.107788
H	 4.0660650917	-2.4930661236	-0.2481283349	 0.123996
H	 0.9698126224	-2.479241826	 0.6272578953	 0.090431
H	 1.8903141254	-2.0667792692	 2.1093241215	 0.08913
H	 0.2860049212	-0.0626021069	 2.1581200876	 0.055671
H	 2.8318034562	 0.2790868467	 2.1199387816	 0.096685
H	 2.4671464048	 1.2740998047	 0.689884737	 0.095753
136.5099	213.2313	220.0961	244.4127	259.3049	312.2713	363.6539	407.8004	453.911	458.482	510.3245	570.6048	663.0776	770.6849	820.8738	850.8667	868.8406	882.422	917.464	956.2749	958.505	991.093	999.5914	1051.121	1053.7531	1077.3887	1109.8518	1136.5178	1157.9305	1179.0649	1205.1653	1220.2225	1243.591	1260.1663	1272.5841	1322.7587	1329.18	1355.4399	1358.3502	1407.1169	1409.9712	1423.2142	1470.5502	1480.1391	1493.0405	1496.4942	1497.1502	1500.2721	1525.1684	2978.3128	3010.9918	3026.2329	3036.6177	3047.2591	3059.5639	3070.8983	3072.7457	3092.2917	3099.6827	3107.4237	3108.0372	3112.6146	3117.5918
CC1COC2(C)CC1C2	C[C@H]1CO[C@]2(C)C[C@H]1C2	
InChI=1S/C8H14O/c1-6-5-9-8(2)3-7(6)4-8/h6-7H,3-5H2,1-2H3	InChI=1S/C8H14O/c1-6-5-9-8(2)3-7(6)4-8/h6-7H,3-5H2,1-2H3/t6-,7-,8+/m0/s1
