22
gdb 121032	3.698	0.79699	0.68661	3.9985	83.92	-0.2352	0.038	0.2732	1690.923	0.19527	-404.412532	-404.402989	-404.402045	-404.447634	35.271	
C	 0.0086609826	 1.6162406011	 0.0894377931	-0.379218
C	 0.0141786948	 0.0914666256	-0.0527459402	-0.180763
C	-1.3917123077	-0.5173239085	 0.0155257362	-0.17144
C	-1.4267423662	-2.0445589948	-0.0646014819	 0.043064
C	-2.84996334	-2.6428246717	 0.0607089481	-0.231153
C	-2.80894777	-3.9232368347	-0.7861614829	-0.335999
C	-1.6834701385	-3.6748782581	-1.79627505	 0.403768
O	-1.4194380784	-4.3269614903	-2.7820265959	-0.379399
N	-1.0038008836	-2.5665829963	-1.3583012335	-0.30838
H	 1.0219603111	 2.025515149	 0.0352278119	 0.115532
H	-0.5833731642	 2.0846621958	-0.7043186047	 0.118619
H	-0.4242184759	 1.921629339	 1.048382351	 0.116521
H	 0.4889022421	-0.1762380224	-1.0060317241	 0.094599
H	 0.6391044258	-0.3494115715	 0.7352396118	 0.098656
H	-1.8664070724	-0.2194231915	 0.9603126615	 0.09779
H	-2.0136225746	-0.1097722491	-0.792175443	 0.100613
H	-0.7843067557	-2.4485759781	 0.7359371791	 0.073877
H	-3.1264887964	-2.8118753036	 1.1035956994	 0.10664
H	-3.5701444841	-1.9348077281	-0.3633949896	 0.110782
H	-2.5336468949	-4.8034449904	-0.1934304748	 0.128134
H	-3.7427986511	-4.1579598908	-1.2997714235	 0.129613
H	-0.1210225427	-2.3308790205	-1.7835604379	 0.248146
65.6012	85.1692	109.989	134.381	180.7762	249.1517	301.3132	352.4396	463.9928	486.6657	513.4894	575.4114	641.865	662.0915	748.5836	823.0136	853.3679	897.6331	902.2054	923.956	990.6003	1016.9814	1043.2865	1059.5997	1095.6753	1117.0906	1158.8524	1188.9106	1222.9473	1265.83	1265.9991	1285.6318	1304.2984	1328.8443	1342.1729	1354.6856	1391.2465	1407.5546	1412.7758	1432.1432	1470.2007	1474.382	1490.3907	1498.7588	1499.7412	1508.3909	1831.171	2953.006	3008.888	3016.7673	3031.7443	3037.5013	3049.3561	3051.8639	3063.1168	3099.0458	3105.5192	3107.1261	3121.6127	3638.9638
CCCC1CCC(=O)N1	CCC[C@H]1CCC(=O)N1	
InChI=1S/C7H13NO/c1-2-3-6-4-5-7(9)8-6/h6H,2-5H2,1H3,(H,8,9)	InChI=1S/C7H13NO/c1-2-3-6-4-5-7(9)8-6/h6H,2-5H2,1H3,(H,8,9)/t6-/m0/s1
