15
gdb 128024	4.91462	0.92882	0.78498	4.177	73.29	-0.226	-0.0352	0.1908	1385.9285	0.112491	-450.101067	-450.092885	-450.091941	-450.134387	29.278	
C	-0.2139593547	 1.5894676389	-0.0499536748	-0.31494
N	 0.0089893305	 0.1587865551	-0.0343514353	-0.220796
C	-1.0014501275	-0.5904758834	 0.1319275296	 0.09696
N	-0.9142500932	-1.961334707	 0.1634112312	-0.42248
C	 0.2530731454	-2.6840131417	 0.0233727445	 0.355409
C	 1.5520530103	-2.3238051437	-0.1711559672	-0.034559
O	 2.2713241235	-3.455814431	-0.2352169533	-0.157777
N	 1.3840892787	-4.5265116611	-0.0749794824	-0.00121
N	 0.2175316243	-4.0566045644	 0.073576147	-0.211753
H	 0.3773349904	 2.0667526974	 0.7402916957	 0.128873
H	 0.1306509032	 2.0092546807	-1.0023366822	 0.128887
H	-1.269159511	 1.8751992394	 0.0899191593	 0.098338
H	-2.0294181258	-0.229481839	 0.2650518534	 0.094513
H	-1.7515081862	-2.5027529718	 0.3005321705	 0.271946
H	 2.049698952	-1.3790438685	-0.271873206	 0.188589
68.7856	130.009	150.0934	210.8782	275.0915	313.665	363.24	367.1853	479.9908	642.9296	664.5397	720.8521	748.4543	799.9138	807.2304	973.7809	988.3655	1037.7251	1066.1221	1112.5511	1140.7833	1152.8627	1204.5093	1260.4213	1319.9355	1404.9627	1419.4447	1449.5891	1480.1732	1505.3022	1556.4811	1663.5546	1753.2266	2971.2611	3038.0758	3056.0418	3072.9145	3344.8277	3662.0588
CN=CNC1=CON=N1	CN=CNc1conn1	
InChI=1S/C4H6N4O/c1-5-3-6-4-2-9-8-7-4/h2-3H,1H3,(H,5,6)	InChI=1S/C4H6N4O/c1-5-3-6-4-2-9-8-7-4/h2-3H,1H3,(H,5,6)
