19
gdb 104082	2.35299	1.57439	1.30222	2.5473	77.77	-0.2233	-0.0503	0.173	1079.5279	0.157945	-423.052253	-423.043142	-423.042198	-423.086259	33.711	
C	 0.0893778253	 1.3720799097	-0.0076599187	-0.253406
O	-0.040185905	-0.0404940254	 0.0545294659	-0.292601
C	-1.3580115632	-0.5902610025	-0.0250466592	 0.296158
C	-2.1204477964	-0.1436606592	-1.2714315753	-0.456541
C	-1.1733397985	-2.1207110587	 0.0800199525	-0.317827
C	-1.7829884464	-2.4965384688	 1.4050070953	-0.052503
C	-2.3073125966	-1.4564293987	 2.0644768866	-0.170556
C	-2.1498985787	-0.2246759292	 1.2687017821	 0.35919
O	-2.5474021546	 0.8872478315	 1.5416527174	-0.351858
H	 1.1510846191	 1.5787674669	 0.1490318789	 0.122566
H	-0.2010305693	 1.7694370303	-0.9892686505	 0.106285
H	-0.4977349422	 1.8784712536	 0.7646358575	 0.141124
H	-1.5208515546	-0.3211956161	-2.1696846154	 0.121148
H	-3.0560915991	-0.704390518	-1.3623232553	 0.120036
H	-2.3774062393	 0.9167016259	-1.2115728484	 0.13987
H	-1.6556136926	-2.6608284002	-0.7434731199	 0.115923
H	-0.1076758925	-2.3678097195	 0.0420971723	 0.137805
H	-1.7850024406	-3.5223591561	 1.7592682792	 0.117298
H	-2.7965848746	-1.4707436456	 3.0298952551	 0.11789
50.1805	98.4109	186.3532	211.5136	258.3396	276.1294	293.8881	322.2256	392.5258	419.6656	520.0358	625.2731	680.3037	692.3044	756.8407	833.094	870.0961	920.9378	937.7736	969.7533	1003.4484	1084.779	1086.1568	1116.1973	1132.7832	1186.1527	1195.0815	1218.4005	1224.6447	1253.137	1339.1662	1368.2088	1397.1346	1462.8532	1475.1398	1484.7088	1485.4198	1505.0843	1518.2804	1650.374	1799.3169	3011.685	3037.206	3041.3346	3082.6384	3084.2447	3109.6669	3120.4227	3126.9368	3187.1709	3226.3063
COC1(C)CC=CC1=O	CO[C@@]1(C)CC=CC1=O	
InChI=1S/C7H10O2/c1-7(9-2)5-3-4-6(7)8/h3-4H,5H2,1-2H3	InChI=1S/C7H10O2/c1-7(9-2)5-3-4-6(7)8/h3-4H,5H2,1-2H3/t7-/m0/s1
