19
gdb 73284	2.39003	1.75445	1.39218	2.6426	70.09	-0.252	0.0704	0.3224	1002.6006	0.160653	-460.145558	-460.137817	-460.136873	-460.177372	30.954	
O	-0.0794092965	 1.4127713348	 0.1247432484	-0.483899
C	 0.0238766649	 0.0180939878	-0.0273935536	 0.377741
C	 0.221192629	-0.5665815738	-1.4605277765	-0.299268
C	-0.8777390062	-1.6209217871	-1.1419278222	-0.284471
C	-1.353371493	-0.6856115732	 0.0088417743	 0.115987
O	-1.8204181899	-1.1864256662	 1.2403960437	-0.252342
C	-0.8081514818	-1.7206102802	 2.0569925826	 0.011811
O	 0.2657640812	-0.839073666	 2.2443592562	-0.226758
C	 0.9472755949	-0.6247873238	 1.0185524838	-0.156749
H	 0.8044259678	 1.7848271817	 0.2158539621	 0.27531
H	-0.1087227471	 0.1601656547	-2.2062079778	 0.114108
H	 1.2147064217	-0.9333515925	-1.7302707177	 0.097123
H	-1.6068833136	-1.847246968	-1.9206822007	 0.109697
H	-0.4569047665	-2.5596554644	-0.7740046349	 0.108365
H	-2.1205254355	 0.0047701579	-0.349226878	 0.102401
H	-1.2603137245	-1.8957183544	 3.0348063395	 0.1206
H	-0.433616178	-2.6738432469	 1.6383556957	 0.076344
H	 1.3476843517	-1.5809025175	 0.6446575988	 0.093069
H	 1.7983219114	 0.0296266672	 1.2376352462	 0.100932
155.0768	180.9783	227.7057	264.5278	323.0066	350.3575	436.2673	455.5955	501.0977	543.014	609.1861	679.7865	792.6086	797.4442	873.6493	924.5378	947.4015	971.4142	992.7563	1004.6663	1030.2781	1074.4804	1087.1682	1133.2264	1162.088	1191.0535	1207.917	1221.0493	1241.3566	1257.2177	1262.8672	1310.108	1331.392	1379.988	1387.4263	1414.7951	1447.9638	1478.6333	1485.4809	1500.8186	1516.574	2925.5787	2978.0075	3063.2105	3063.6118	3075.2388	3089.8642	3116.1824	3117.9488	3135.0863	3800.8225
OC12CCC1OCOC2	O[C@]12CC[C@H]1OCOC2	
InChI=1S/C6H10O3/c7-6-2-1-5(6)9-4-8-3-6/h5,7H,1-4H2	InChI=1S/C6H10O3/c7-6-2-1-5(6)9-4-8-3-6/h5,7H,1-4H2/t5-,6+/m1/s1
