18
gdb 68558	2.45466	1.66162	1.36837	4.145	80.26	-0.2451	-0.0088	0.2363	1019.5397	0.148424	-364.800929	-364.793163	-364.792219	-364.832863	30.815	
C	-0.0376908114	 1.5438151936	 0.0292908001	-0.511843
C	-0.0025968892	 0.0351324599	-0.0032868817	 0.288261
C	 0.3530773138	-0.8006468963	-1.2875928972	-0.25598
C	-0.32040523	-1.9488185953	-0.4643447328	-0.087009
C	 0.6300768971	-2.0154013898	 0.7405844374	-0.084749
C	 0.8356629626	-0.7320844841	 1.0396210925	-0.113099
C	-1.3284297945	-0.8377922264	 0.0138013512	-0.180499
C	-2.067438931	-1.0034630424	 1.2555178276	 0.269001
N	-2.6735582764	-1.1188308695	 2.2334906417	-0.331183
H	 0.9697214991	 1.957671456	-0.0883606833	 0.126493
H	-0.6609720024	 1.9464795027	-0.7752333942	 0.119768
H	-0.4394284811	 1.9068250146	 0.9813604097	 0.136853
H	-0.2143379189	-0.4986809432	-2.1744885362	 0.09747
H	 1.4124781771	-0.918372332	-1.5200579548	 0.105271
H	-0.6746552956	-2.8725918454	-0.9174432707	 0.080707
H	 1.0086917032	-2.9131077992	 1.2065057235	 0.114179
H	 1.4300301553	-0.2792218835	 1.8203378571	 0.110574
H	-2.0188035777	-0.5379597195	-0.7814808299	 0.115785
123.5808	149.4578	207.4449	284.8747	291.7556	400.9535	475.0399	481.5432	550.7279	586.6167	616.1036	723.1857	785.1201	814.91	826.3314	844.5465	891.7642	916.2121	931.3346	946.6828	1010.4484	1056.872	1067.8388	1089.4491	1098.2623	1132.9612	1191.906	1210.0666	1222.4411	1259.0114	1270.9208	1340.1829	1367.2634	1416.8839	1491.2523	1492.9265	1501.2715	1631.6017	2352.4654	3031.7507	3046.9557	3065.7701	3098.9011	3103.9324	3131.0053	3140.161	3226.0434	3253.6741
CC12CC(C=C1)C2C#N	C[C@@]12C[C@@H](C=C1)[C@H]2C#N	
InChI=1S/C8H9N/c1-8-3-2-6(4-8)7(8)5-9/h2-3,6-7H,4H2,1H3	InChI=1S/C8H9N/c1-8-3-2-6(4-8)7(8)5-9/h2-3,6-7H,4H2,1H3/t6-,7-,8+/m1/s1
