12
gdb 129269	5.95884	0.99733	0.85434	3.7031	60.96	-0.2535	-0.0419	0.2116	1226.3585	0.077179	-505.943316	-505.935792	-505.934848	-505.976194	26.555	
N	-0.3241860518	 1.30208395	 0.0126966094	-0.574364
C	-0.0438776804	 0.0828668534	 0.0039135949	 0.520902
O	 1.1568195453	-0.5519108942	-0.0069607745	-0.241916
N	 0.9469683091	-1.9734007102	-0.0141460232	-0.191381
C	-0.3337635025	-2.0663188185	-0.0069615345	 0.573746
N	-1.1238297081	-3.1876145447	-0.0088324358	-0.429127
C	-0.6783947712	-4.5051860845	-0.01788885	 0.157043
O	 0.4720320279	-4.8410737175	-0.0254686669	-0.240343
O	-1.0173256307	-0.8985916721	 0.004008996	-0.219556
H	 0.5182754539	 1.8715404798	 0.0109717952	 0.250991
H	-2.1183891831	-3.0125260709	-0.0025077275	 0.284989
H	-1.5371972783	-5.2011129506	-0.0167275631	 0.109016
51.6005	149.3689	158.7851	225.8852	295.9806	361.3621	502.758	531.2192	614.498	686.1502	736.1489	753.2277	784.6282	856.3859	903.5135	975.256	977.8535	1018.8866	1041.0065	1148.7669	1256.3383	1336.7274	1432.9506	1558.3511	1707.1199	1822.0175	1847.7161	2973.5278	3548.6372	3621.0316
N=C1ON=C(NC=O)O1	[NH][C@H]1ON=C(NC=O)O1	
InChI=1S/C3H3N3O3/c4-2-8-3(5-1-7)6-9-2/h1,4H,(H,5,6,7)	InChI=1S/C3H4N3O3/c4-2-8-3(5-1-7)6-9-2/h1-2,4H,(H,5,6,7)/t2-/m1/s1
