19
gdb 79799	2.54718	1.74277	1.35432	1.1446	82.08	-0.2084	-0.0316	0.1768	1023.2403	0.158502	-385.786098	-385.778136	-385.777191	-385.817921	32.13	
C	 0.2590118062	 1.5783988236	 0.2104884019	-0.414868
C	 0.0048656033	 0.0868711665	 0.1030960256	-0.008131
C	 0.6285693916	-0.7828927573	-1.0615509728	-0.145577
C	 2.0478137755	-1.5265294401	-0.8404364276	-0.123696
C	 3.0501691906	-1.1473692666	 0.2621759909	-0.265286
C	 2.0793342508	-0.5878043442	 1.304456227	-0.108561
C	 0.8163463275	-0.9091917323	 0.9598587218	-0.044094
C	 0.7973545528	-1.9589272382	-0.1783949957	 0.367445
O	 0.1034101219	-3.151202863	-0.212835136	-0.470716
H	 1.3269830654	 1.8080427743	 0.1457816561	 0.114692
H	-0.2552392339	 2.1103919238	-0.5972581708	 0.116134
H	-0.1170584465	 1.9768391076	 1.1592190338	 0.12083
H	-1.0731271016	-0.116844328	 0.0885512847	 0.090543
H	 0.2447028323	-0.7917551887	-2.0796183861	 0.09335
H	 2.3800020589	-2.0207951432	-1.7515944924	 0.081881
H	 3.6714478563	-2.0127138381	 0.5381677699	 0.103083
H	 3.7437317267	-0.3414601666	-0.0091513388	 0.111473
H	 2.3309710897	 0.3291132484	 1.8300608948	 0.09582
H	 0.5559208925	-3.7783574178	 0.3624529838	 0.285679
149.439	219.015	227.8844	243.9617	270.3214	316.1054	381.313	492.7951	543.7818	554.6254	610.4103	668.7035	717.8499	798.7432	808.2721	876.0628	895.5107	901.5857	940.7628	962.0956	982.494	1001.0035	1052.1217	1059.0631	1069.3055	1127.8791	1148.5103	1159.3939	1176.4299	1223.9631	1264.3302	1286.0699	1298.9455	1324.1748	1369.7231	1407.312	1469.183	1483.3967	1489.0507	1494.9456	1593.2404	2989.8495	3025.6149	3031.0026	3042.2737	3094.5924	3106.8269	3131.1437	3139.8999	3160.8201	3792.4303
CC1C2C3CC=C1C23O	C[C@H]1[C@H]2[C@H]3C[CH][C]1[C@@]23O	
InChI=1S/C8H10O/c1-4-5-2-3-6-7(4)8(5,6)9/h2,4,6-7,9H,3H2,1H3	InChI=1S/C8H10O/c1-4-5-2-3-6-7(4)8(5,6)9/h2,4,6-7,9H,3H2,1H3/t4-,6-,7+,8+/m1/s1
