18
gdb 62920	2.77787	1.7684	1.61805	1.6774	70.23	-0.2405	0.0042	0.2447	920.9442	0.148914	-439.079685	-439.07214	-439.071196	-439.111062	30.544	
C	-0.06476154	 1.5401707855	-0.0014763652	-0.441618
C	-0.0043764165	 0.0194040847	-0.0115493907	 0.417622
O	-1.2932556868	-0.4335780095	-0.3172139071	-0.485789
C	 1.1976690291	-0.5610705273	-0.8418512637	 0.054436
C	 2.0618621423	-0.4131925954	 0.4306620123	-0.265347
C	 0.7340936178	-0.6386402944	 1.2092596914	-0.067367
N	 0.4323965266	-2.0815188762	 1.2001066635	-0.27459
C	 0.5903866051	-2.6142002433	 0.0550878162	 0.079298
O	 0.9657003769	-1.9714481804	-1.0713726923	-0.225847
H	 0.9094420349	 2.0089112612	 0.1477219841	 0.117031
H	-0.4735564838	 1.8910703114	-0.9539841004	 0.132182
H	-0.7367198534	 1.8726350087	 0.7949969957	 0.130571
H	-1.3956804041	-1.3180337169	 0.0541126613	 0.292288
H	 1.4892749218	-0.1357398264	-1.8013555765	 0.089198
H	 2.8433259364	-1.1593716891	 0.5804690602	 0.117655
H	 2.4725911145	 0.5886484223	 0.5451027343	 0.118113
H	 0.6002898248	-0.2287015402	 2.210517696	 0.07654
H	 0.4250001244	-3.6741863647	-0.1217208491	 0.135625
164.3141	208.2386	239.7599	286.9782	357.3378	406.97	418.6009	452.2122	499.0958	570.9306	601.1973	688.2775	772.9201	838.4189	859.3165	871.3128	927.6321	948.0932	962.6387	996.1308	1008.5105	1087.5137	1107.5511	1132.5931	1137.432	1156.4455	1185.3911	1234.3086	1240.2651	1280.6348	1306.7759	1342.8173	1377.905	1390.5673	1418.0898	1481.4795	1486.6838	1501.6077	1679.7826	3048.1906	3091.8279	3106.9799	3113.9905	3125.8338	3135.7819	3159.0418	3176.1511	3781.0637
CC1(O)C2CC1N=CO2	C[C@@]1(O)[C@H]2C[C@@H]1[N][CH]O2	
InChI=1S/C6H9NO2/c1-6(8)4-2-5(6)9-3-7-4/h3-5,8H,2H2,1H3	InChI=1S/C6H9NO2/c1-6(8)4-2-5(6)9-3-7-4/h3-5,8H,2H2,1H3/t4-,5+,6-/m0/s1
