19
gdb 17656	3.19415	1.88025	1.55483	2.6691	70.27	-0.2387	0.0731	0.3117	908.7944	0.165774	-365.021438	-365.013409	-365.012465	-365.053901	30.094	
C	-0.2268826984	 1.5763858761	 0.0026371699	-0.43465
C	-0.0056945594	 0.0712414351	-0.0641879764	 0.393433
C	 1.0235669324	-0.4148723069	-1.1215380312	-0.323807
C	 1.8681623777	-0.8397294525	 0.092993745	-0.067961
O	 0.8618976411	-0.3739898783	 1.0203466692	-0.326044
C	-1.3225485354	-0.6801474198	-0.0340296856	-0.016146
C	-1.3984259756	-2.0765605439	 0.4509703277	-0.252702
N	-1.9497190595	-0.9726108875	 1.2633571135	-0.331107
H	 0.7291067941	 2.1073371002	 0.0121179719	 0.116117
H	-0.8063001874	 1.917420066	-0.8622962871	 0.117981
H	-0.7800113732	 1.8412050701	 0.9090070206	 0.132919
H	 0.6750413237	-1.2297255306	-1.7573955072	 0.113557
H	 1.4551287606	 0.3727562974	-1.7415597231	 0.108728
H	 2.0507852878	-1.9156807677	 0.1957493555	 0.105007
H	 2.8159876211	-0.3056551033	 0.2270469833	 0.106577
H	-2.0269616354	-0.3588301404	-0.8005448077	 0.085821
H	-2.137935455	-2.7548720742	 0.0349728997	 0.112822
H	-0.4814965793	-2.5446057624	 0.7957861692	 0.117081
H	-1.2674784099	-0.7604343873	 1.9910122426	 0.242374
84.3272	97.3506	199.234	237.4631	248.1267	309.8528	373.4715	461.4043	532.414	646.7232	784.4153	819.833	860.4587	873.0231	901.0593	935.3264	966.6447	973.0309	992.627	1008.5307	1023.0241	1102.7357	1134.1356	1155.5592	1164.4593	1198.4633	1211.4275	1222.3234	1249.4785	1275.5273	1283.292	1311.1157	1351.667	1405.703	1417.7746	1483.2116	1486.8609	1492.2997	1498.9071	1529.4731	3022.2914	3034.8208	3062.5455	3080.034	3105.6206	3111.6812	3116.2294	3116.8262	3136.8083	3202.9337	3473.7396
CC1(CCO1)C1CN1	C[C@]1(CCO1)[C@H]1CN1	
InChI=1S/C6H11NO/c1-6(2-3-8-6)5-4-7-5/h5,7H,2-4H2,1H3	InChI=1S/C6H11NO/c1-6(2-3-8-6)5-4-7-5/h5,7H,2-4H2,1H3/t5-,6+/m1/s1
