21
gdb 116200	2.20638	1.49066	1.15907	1.3573	74.79	-0.2402	0.0708	0.311	1175.8249	0.180404	-461.353259	-461.343261	-461.342317	-461.388025	36.461	
C	-0.5687941259	 1.1599578661	 0.0753870461	-0.236595
O	-0.2198408522	-0.2051953418	 0.0837615184	-0.255471
C	 0.8059901166	-0.53598855	 1.0012431456	 0.09016
C	 0.2853657117	-0.7200992718	 2.4337731945	-0.086637
O	-0.1759302211	-2.0678714865	 2.5337456299	-0.267907
C	 0.2126485474	-2.792488214	 1.375940243	-0.090321
C	 1.2987633533	-1.9618183492	 0.6767296017	 0.327252
C	 1.4805769199	-2.2729941532	-0.8030576081	-0.45559
O	 2.5391364505	-2.0568980243	 1.3831459056	-0.481294
H	 0.2958795961	 1.7953602612	-0.1715414896	 0.107604
H	-1.3360655411	 1.2914594359	-0.691236557	 0.1295
H	-0.9776473206	 1.4958768694	 1.0395681395	 0.109649
H	 1.6315638749	 0.1858296616	 0.9430059758	 0.076258
H	 1.0899354052	-0.5480622922	 3.1593241869	 0.106232
H	-0.5440065638	-0.040713215	 2.6599086714	 0.09808
H	 0.5874822416	-3.7792273263	 1.6784633016	 0.085195
H	-0.6478409994	-2.9398548308	 0.7076911268	 0.099401
H	 0.5681833179	-2.0657695598	-1.364187219	 0.138592
H	 2.2926121189	-1.666528638	-1.2136359851	 0.123329
H	 1.7443444949	-3.3283623441	-0.9416413619	 0.103246
H	 2.7993796053	-2.9836380574	 1.4017634039	 0.279317
78.9152	106.7225	126.4864	183.5476	204.4492	218.2594	246.4777	299.1055	327.0429	350.24	392.1226	473.9233	503.4212	614.1189	756.2044	844.2402	859.9315	931.0831	940.9801	945.3417	984.7225	1014.3507	1061.4525	1105.0193	1132.6152	1152.4758	1179.5457	1183.5638	1192.3573	1220.658	1236.5783	1258.6629	1297.2206	1358.0345	1363.5788	1378.0074	1403.5337	1420.0354	1479.9958	1486.6286	1487.8424	1497.2647	1499.2629	1510.754	1511.6285	2978.5082	2996.892	3017.1649	3026.0734	3032.4669	3034.7139	3038.7037	3066.428	3103.503	3116.3233	3144.5955	3814.4221
COC1COCC1(C)O	CO[C@H]1COC[C@]1(C)O	
InChI=1S/C6H12O3/c1-6(7)4-9-3-5(6)8-2/h5,7H,3-4H2,1-2H3	InChI=1S/C6H12O3/c1-6(7)4-9-3-5(6)8-2/h5,7H,3-4H2,1-2H3/t5-,6-/m0/s1
