19
gdb 82558	2.7716	1.7706	1.3625	2.5441	74.84	-0.2413	0.073	0.3144	998.1717	0.160172	-422.953116	-422.945863	-422.944919	-422.98441	29.642	
C	-0.177084916	 1.524408752	-0.0192371795	-0.423632
C	 0.0386258169	 0.0142777974	-0.0224258315	-0.025799
C	 0.9678594215	-0.5741490514	-1.1473149473	 0.047542
C	 2.4741232002	-0.4275252411	-0.7040095113	-0.340052
C	 1.887934451	-1.3801886291	 0.3469835447	 0.358589
C	 1.9088759505	-2.2796633435	 1.5830508926	-0.206311
O	 0.6460610559	-1.6758932296	 2.004823309	-0.312153
C	 0.905521967	-0.5277471146	 1.1438481039	 0.133344
O	 1.0356374413	-1.9496467344	-0.6908017466	-0.30399
H	 0.7698698336	 2.0680169456	 0.0737347456	 0.114435
H	-0.6593379804	 1.8566884984	-0.9446489289	 0.117313
H	-0.8158930216	 1.8285151486	 0.8159797358	 0.12752
H	-0.9158436481	-0.5133757931	-0.0965365957	 0.103034
H	 0.6651462168	-0.4561464605	-2.1887513319	 0.085423
H	 3.1279814284	-0.8983199649	-1.4384981302	 0.119082
H	 2.8627894215	 0.5381432718	-0.3704851915	 0.102526
H	 1.8171782588	-3.3531665312	 1.3994648362	 0.126283
H	 2.7141449694	-2.0737502297	 2.2986318952	 0.10701
H	 1.3448610231	 0.2814956691	 1.7417209515	 0.069836
164.4116	209.67	248.2256	288.5292	324.0662	394.8519	484.0898	529.9698	583.9497	647.271	773.1969	795.7726	846.247	854.0471	869.3383	902.7233	946.23	974.3497	983.2233	1017.029	1024.3622	1058.4511	1079.943	1098.5976	1136.9053	1145.3643	1171.8595	1193.1768	1224.2846	1242.9493	1264.8413	1279.2413	1305.6836	1324.7013	1350.1976	1386.1674	1413.984	1484.5901	1496.6796	1498.2101	1498.9452	3015.0575	3029.6869	3031.4131	3067.8267	3077.2706	3098.2946	3103.0696	3106.4388	3115.3336	3146.5432
CC1C2CC3(COC13)O2	C[C@H]1[C@H]2C[C@]3(CO[C@H]13)O2	
InChI=1S/C7H10O2/c1-4-5-2-7(9-5)3-8-6(4)7/h4-6H,2-3H2,1H3	InChI=1S/C7H10O2/c1-4-5-2-7(9-5)3-8-6(4)7/h4-6H,2-3H2,1H3/t4-,5+,6+,7+/m0/s1
