17
gdb 12438	3.39657	1.91437	1.33293	3.6026	69.72	-0.2363	0.0021	0.2384	916.8435	0.144567	-363.899429	-363.892094	-363.89115	-363.931278	27.777	
O	-0.0160042382	-0.1247886708	-0.1812774986	-0.370611
C	-0.0095942079	 1.0898508473	-0.0726599692	 0.373295
C	-1.3433858536	 1.835627221	 0.0118949012	-0.270987
C	-1.3883517198	 3.3530124597	-0.24748681	-0.278053
C	-0.6356096795	 4.1378177178	 0.7944568165	-0.044617
C	 0.685534145	 4.0442906156	 0.9207888879	-0.05115
C	 1.5064580403	 3.1866654092	-0.0122159637	-0.218025
N	 1.1827818447	 1.758415901	 0.0248592781	-0.299408
H	-2.0018621243	 1.3099089151	-0.6857199995	 0.130096
H	-1.737414036	 1.6262948171	 1.0139932337	 0.132863
H	-0.979543934	 3.5619239946	-1.2456744771	 0.114729
H	-2.4361635243	 3.6657848195	-0.2761877627	 0.106758
H	-1.2063370731	 4.7577627403	 1.4806338505	 0.096402
H	 1.2127754871	 4.590740565	 1.6965496853	 0.098146
H	 1.4159853138	 3.5747200946	-1.0395275916	 0.120445
H	 2.5642283798	 3.2641196598	 0.2499000828	 0.116577
H	 1.96153162	 1.1219117832	-0.0698681537	 0.243537
63.7139	143.9562	228.8734	296.5821	342.8818	450.0749	482.4771	524.378	603.5841	653.3199	702.0958	719.0124	794.2061	881.5889	912.7964	935.7917	988.5479	1003.6379	1060.0417	1071.9741	1122.5543	1192.3817	1234.3187	1257.3278	1283.8149	1326.2673	1340.3096	1364.8442	1406.4875	1409.667	1457.153	1479.311	1490.4908	1508.3329	1723.0833	1766.625	2968.6303	3013.5189	3042.9656	3080.4405	3091.6034	3094.116	3158.5303	3184.1728	3601.0959
O=C1CCC=CCN1	O=C1CCC=CCN1	
InChI=1S/C6H9NO/c8-6-4-2-1-3-5-7-6/h1,3H,2,4-5H2,(H,7,8)	InChI=1S/C6H9NO/c8-6-4-2-1-3-5-7-6/h1,3H,2,4-5H2,(H,7,8)
