15
gdb 16046	3.50727	1.75065	1.45068	4.976	66.77	-0.2693	0.0146	0.2839	879.4402	0.119524	-362.64494	-362.637688	-362.636744	-362.676249	27.278	
O	-0.2714514807	 1.4367188939	-0.0232992477	-0.413623
C	-0.1340814911	 0.0521200039	 0.0423877159	 0.060062
C	-0.4707059706	-0.7447980172	 1.264424185	-0.160826
C	-1.6035946044	-0.0810246523	 2.0549128402	-0.222982
C	-2.5147095647	-0.1071098482	 0.7902089945	-0.282153
C	-1.3824437691	-0.7832581915	-0.0074206652	 0.1796
C	-1.5609350497	-1.8239461672	-0.9656051782	 0.190844
N	-1.715034256	-2.674970641	-1.7356553951	-0.35044
H	 0.4558837734	 1.8355973991	 0.4667818555	 0.295442
H	 0.6834516862	-0.3592007026	-0.5496785752	 0.11296
H	 0.1846654325	-1.5277105864	 1.6273205321	 0.111551
H	-1.9848124004	-0.7177039511	 2.8542267029	 0.117266
H	-1.3712703157	 0.9053086214	 2.4635837245	 0.107476
H	-3.3775203727	-0.7628117109	 0.9091925947	 0.126394
H	-2.836904687	 0.8567248402	 0.3938682261	 0.128428
140.2004	173.0535	224.5033	245.2968	264.688	418.832	503.1514	536.8456	566.3594	623.4241	760.3813	794.5203	809.8428	889.3004	953.7966	957.4156	1006.2609	1045.5673	1081.1558	1127.586	1141.102	1216.699	1227.583	1250.7515	1256.1087	1293.703	1297.1321	1339.8547	1459.0468	1475.062	1502.8895	2343.121	3071.3184	3087.9472	3113.5031	3124.4218	3148.6502	3188.7057	3805.2371
OC1C2CCC12C#N	O[C@H]1[C@H]2CC[C@@]12C#N	
InChI=1S/C6H7NO/c7-3-6-2-1-4(6)5(6)8/h4-5,8H,1-2H2	InChI=1S/C6H7NO/c7-3-6-2-1-4(6)5(6)8/h4-5,8H,1-2H2/t4-,5+,6+/m1/s1
