21
gdb 47655	2.07586	1.75532	1.14644	2.4593	83.47	-0.2362	-0.016	0.2202	1136.2057	0.184716	-387.123205	-387.114871	-387.113927	-387.15596	32.787	
O	 0.09651334	-0.0296285885	 0.1573814878	-0.317919
C	 0.0173149265	 1.1669580516	-0.0131363003	 0.383166
C	-1.3415041816	 1.8670460791	-0.0149064579	-0.279229
C	-1.9897862671	 1.8436209045	 1.3856555513	-0.182945
C	-1.064523727	 2.3734153727	 2.5088045162	-0.259397
C	-0.43992574	 3.7012132885	 2.1753543763	-0.035126
C	 0.7336686185	 3.8614240882	 1.559333933	-0.052748
C	 1.6678387332	 2.7503566306	 1.1366637574	-0.261749
C	 1.2709719877	 2.0207936936	-0.1796641681	-0.280001
H	-1.2415109336	 2.8966883902	-0.3658004012	 0.103452
H	-1.9887828691	 1.3284069021	-0.7150530068	 0.119807
H	-2.9117684049	 2.4346480639	 1.3494123861	 0.098839
H	-2.272846872	 0.8142761216	 1.627176494	 0.119465
H	-1.644708108	 2.4477426938	 3.435059118	 0.09979
H	-0.2844074275	 1.6255800251	 2.690504692	 0.117349
H	-1.0282399158	 4.5866647192	 2.4094877867	 0.084935
H	 1.058854581	 4.871583835	 1.3193628707	 0.086925
H	 2.6719994027	 3.1612321824	 0.9936025042	 0.108103
H	 1.7552622757	 1.9949241894	 1.9264710018	 0.124744
H	 2.0841360853	 1.3507194891	-0.4722412759	 0.116527
H	 1.118292316	 2.7610897379	-0.9737260052	 0.106011
86.4253	159.54	194.2791	227.3382	282.1061	294.1546	396.9297	448.4858	526.3785	545.6908	581.7171	652.9721	743.2365	764.3155	825.3693	843.142	860.1225	887.4101	952.8561	994.6001	1002.694	1017.7084	1035.8778	1064.0122	1108.5331	1116.3066	1149.9843	1202.8194	1229.7983	1250.3838	1272.505	1286.6312	1320.8815	1337.3691	1357.4648	1369.2503	1372.995	1424.2121	1471.9531	1476.9664	1486.5655	1490.1783	1503.9728	1715.9781	1800.2925	3034.4671	3035.1807	3037.7699	3038.9902	3055.9364	3072.382	3079.9064	3088.0067	3102.3614	3113.4223	3133.0311	3157.1379
O=C1CCCC=CCC1	O=C1CCCC=CCC1	
InChI=1S/C8H12O/c9-8-6-4-2-1-3-5-7-8/h1-2H,3-7H2/b2-1-	InChI=1S/C8H12O/c9-8-6-4-2-1-3-5-7-8/h1-2H,3-7H2/b2-1-
