20
gdb 87811	2.92936	1.31682	1.13847	2.7692	79.	-0.228	0.0751	0.3031	1167.6204	0.169488	-403.084718	-403.07591	-403.074966	-403.118007	33.598	
C	 0.4736672265	 1.9004664264	 0.3629408582	-0.41866
C	 0.4092052935	 0.3951554864	 0.362845967	-0.034603
O	 1.6693423273	-0.3044661891	 0.3570991928	-0.301231
C	 0.8450923464	-0.4188548268	 1.5025143024	 0.441518
C	 1.3597227843	-0.0889272515	 2.9036937264	-0.260717
N	 0.9494322479	-1.4524593767	 3.4114012685	-0.151685
C	-0.5073653007	-1.601521903	 3.1966313147	 0.020199
C	-1.5317364812	-0.5053976269	 3.3864622301	-0.427006
C	 0.3831865307	-1.7599063527	 2.0230745901	-0.163122
H	 1.2009723462	 2.2610542224	 1.0951227652	 0.128313
H	 0.7676717517	 2.2737472766	-0.6235298685	 0.132909
H	-0.5066245976	 2.3264365645	 0.6036127858	 0.122501
H	-0.3302592205	-0.0421265473	-0.3111795755	 0.089879
H	 2.4486274798	-0.0100125643	 2.9261300023	 0.129193
H	 0.9212006099	 0.7556445275	 3.4438774874	 0.104999
H	-0.8249258199	-2.5511088956	 3.6254276188	 0.100096
H	-1.2806482222	 0.415510236	 2.8568955195	 0.127555
H	-2.5034621608	-0.8448881738	 3.0129486726	 0.125811
H	-1.6495431224	-0.2682412811	 4.449397118	 0.128439
H	 0.5611486809	-2.7054277312	 1.5203727741	 0.105612
92.1958	147.0682	166.3366	172.0942	215.4056	295.4627	338.5668	412.1152	452.4914	482.3268	552.5738	596.9028	704.0273	780.3864	799.2354	832.4042	905.9266	918.4895	961.5307	967.3972	1008.3892	1040.1403	1058.5692	1089.9974	1113.5707	1121.7617	1140.1533	1143.7362	1191.492	1203.4561	1254.1579	1272.2963	1318.609	1363.5343	1409.1898	1409.8308	1431.9898	1472.158	1482.2848	1490.0162	1498.3872	1500.83	1526.8354	3035.3444	3039.1363	3053.7837	3086.4303	3097.6698	3099.422	3112.704	3116.8533	3122.9196	3133.4414	3164.5043
CC1OC11CN2C(C)C12	C[C@H]1O[C@]21CN1[C@@H](C)[C@@H]21	
InChI=1S/C7H11NO/c1-4-6-7(3-8(4)6)5(2)9-7/h4-6H,3H2,1-2H3	InChI=1S/C7H11NO/c1-4-6-7(3-8(4)6)5(2)9-7/h4-6H,3H2,1-2H3/t4-,5+,6-,7-,8?/m0/s1
