15
gdb 25551	3.42431	1.109	0.89133	3.1077	68.97	-0.2033	-0.0369	0.1664	1236.2042	0.111796	-453.965725	-453.957452	-453.956508	-454.000247	29.346	
N	 0.1469370632	 1.2790413771	-0.174277074	-0.615626
C	 0.0958423539	 0.0152027271	-0.084163229	 0.474846
O	 1.1420159237	-0.8803795934	-0.1086443207	-0.219732
C	 0.6191980912	-2.1570893946	 0.0184880548	-0.049499
C	-0.7102698307	-2.089026581	 0.1242712183	-0.120979
N	-1.0578771609	-0.7369659109	 0.0602096702	-0.104281
C	-2.3777996763	-0.1586641601	 0.0992025016	-0.255912
C	-2.960249906	-0.1085272561	 1.5080588918	 0.151038
O	-4.1348091905	-0.1934294924	 1.7453616747	-0.226788
H	 1.1015117236	 1.6036629736	-0.2938562987	 0.23091
H	 1.3213697359	-2.9708712944	 0.0170475349	 0.155819
H	-1.4483098295	-2.8651918778	 0.2333530516	 0.158003
H	-2.2757036709	 0.8736157728	-0.2585924581	 0.185186
H	-3.070792589	-0.6903410153	-0.5598875115	 0.139934
H	-2.1982812077	 0.0245457054	 2.3084595841	 0.09708
36.3475	63.1767	96.4875	220.0092	278.9672	330.5906	420.0292	513.5464	574.853	670.1697	681.4352	707.8222	744.485	759.7827	783.0685	814.2594	907.7775	997.9846	1041.8384	1043.5967	1065.4939	1142.8288	1188.1525	1232.5823	1282.3033	1331.5062	1372.8421	1410.6075	1432.7197	1460.6693	1661.5013	1774.1602	1841.7738	2891.3221	3040.667	3100.4798	3283.9619	3316.1727	3556.6205
N=C1OC=CN1CC=O	[NH][C@@H]1OC=CN1CC=O	
InChI=1S/C5H6N2O2/c6-5-7(1-3-8)2-4-9-5/h2-4,6H,1H2	InChI=1S/C5H7N2O2/c6-5-7(1-3-8)2-4-9-5/h2-6H,1H2/t5-/m0/s1
