21
gdb 36901	4.22833	0.91543	0.86994	1.6824	82.15	-0.2504	0.0918	0.3421	1408.1861	0.182999	-387.034969	-387.026587	-387.025643	-387.068736	32.171	
C	 0.0026653582	 1.5054498582	 0.3965801745	-0.245416
C	-0.0525970129	 0.0073732935	 0.213747771	 0.106327
C	-1.268739887	-0.6910958716	-0.2190829282	-0.184248
O	-0.1881429984	-0.475594381	-1.1285981312	-0.232692
C	 1.370737922	 2.0941781302	 0.0494916311	 0.026781
C	 1.8608909196	 2.0877801791	-1.4433315361	-0.246186
C	 2.0818745408	 3.6033733777	-1.3570325169	-0.036507
C	 0.7870508856	 4.290115849	-1.0342836008	-0.274293
C	 1.5491330289	 3.6201499036	 0.0784309076	-0.074434
H	-0.7781586359	 1.9623740618	-0.2216945411	 0.09935
H	-0.2386960828	 1.7408397669	 1.4427639767	 0.097532
H	 0.666900107	-0.5619968517	 0.8069129765	 0.087252
H	-1.4367602429	-1.727424013	 0.0714151183	 0.111832
H	-2.1714692386	-0.1155693627	-0.4217144783	 0.110984
H	 2.1317242067	 1.6212383235	 0.680340675	 0.070307
H	 2.7787543505	 1.5119128401	-1.577185815	 0.100266
H	 1.1308151316	 1.7531444307	-2.1859406427	 0.110955
H	 2.926527978	 4.1405301716	-1.7708571699	 0.082204
H	 0.8230369756	 5.3749109966	-1.0187413111	 0.107849
H	-0.1547839954	 3.8869538265	-1.3992138916	 0.104212
H	 1.9057991393	 4.1856915709	 0.9318372723	 0.077924
60.7428	77.9285	128.3658	212.2344	279.4814	353.6056	395.8782	467.6611	506.7233	675.4688	777.766	784.779	801.5499	835.0498	857.7692	873.744	935.9148	949.606	967.1933	979.1855	1016.9624	1033.6735	1039.4594	1064.9851	1081.6349	1093.9387	1107.9133	1132.5645	1156.55	1157.8639	1177.8691	1208.0654	1241.2868	1253.0154	1267.0675	1290.8477	1301.4485	1319.9813	1369.8025	1385.5544	1446.3154	1468.0308	1483.8977	1500.4933	1529.346	3014.0978	3035.5277	3061.1652	3066.1564	3079.3714	3087.4217	3106.4385	3114.295	3165.0037	3168.0162	3182.2502	3198.4385
C(C1CO1)C1CC2CC12	C([C@H]1CO1)[C@H]1C[C@H]2C[C@@H]12	
InChI=1S/C8H12O/c1-5(2-7-4-9-7)8-3-6(1)8/h5-8H,1-4H2	InChI=1S/C8H12O/c1-5(2-7-4-9-7)8-3-6(1)8/h5-8H,1-4H2/t5-,6+,7+,8+/m1/s1
