18
gdb 99360	6.88244	0.52153	0.49199	6.8236	73.96	-0.258	-0.0225	0.2355	2100.9164	0.144579	-439.109566	-439.09905	-439.098106	-439.147356	35.179	
O	 0.1367246027	 1.3811939069	 0.1205679447	-0.392197
C	-0.0040378313	 0.0030644521	-0.0877444888	-0.167238
C	-1.4581161747	-0.4063340411	 0.1282175301	 0.373056
O	-2.336593674	 0.3964342603	 0.3131986032	-0.271446
C	-1.7148044763	-1.9118488358	 0.0956044607	-0.323755
C	-3.2003760596	-2.2549433526	-0.0107375945	-0.171802
C	-3.44070577	-3.7751803461	 0.0558822014	-0.348587
C	-4.8549048337	-4.1267773153	-0.0576373593	 0.259669
N	-5.9754390166	-4.3928901311	-0.1503236538	-0.300403
H	 1.0517811656	 1.6196052057	-0.0538680582	 0.295461
H	 0.266444426	-0.3045520185	-1.1141642601	 0.111289
H	 0.6242518567	-0.6017459041	 0.5899195133	 0.106032
H	-1.1399606242	-2.3606122251	-0.7258937357	 0.117768
H	-1.2864037034	-2.335469236	 1.0162104875	 0.130768
H	-3.7477502796	-1.754923304	 0.7918849909	 0.146383
H	-3.606667318	-1.8607141513	-0.9469951263	 0.133771
H	-2.8944939098	-4.2867013711	-0.7459241429	 0.149882
H	-3.0592493098	-4.1810628428	 1.0006281477	 0.151348
24.8012	58.1289	77.0161	98.3549	108.8495	190.9494	227.6312	280.6822	291.0101	398.7082	407.6326	469.9284	560.0386	671.7661	723.0738	799.5332	848.4614	945.4723	952.5606	1000.9496	1043.3725	1088.1546	1099.2394	1150.9405	1169.3242	1235.2731	1255.0056	1270.4643	1295.2075	1323.3117	1357.2626	1394.5825	1443.8717	1455.586	1468.9885	1493.7661	1496.711	1833.142	2364.5914	2943.9191	2965.3535	3008.1574	3033.9978	3042.2844	3066.9639	3072.2796	3118.8297	3836.722
OCC(=O)CCCC#N	OCC(=O)CCCC#N	
InChI=1S/C6H9NO2/c7-4-2-1-3-6(9)5-8/h8H,1-3,5H2	InChI=1S/C6H9NO2/c7-4-2-1-3-6(9)5-8/h8H,1-3,5H2
