18
gdb 27154	2.8959	1.42718	1.03975	0.6398	81.09	-0.2039	0.0229	0.2268	1170.382	0.147903	-401.949264	-401.940972	-401.940028	-401.982708	30.971	
C	-0.2450059941	 1.5313818425	 0.0781179694	-0.508805
C	-0.0357212144	 0.0501650652	 0.0647461975	 0.16845
C	 0.1980051784	-0.7261570426	-1.0298475008	 0.320875
O	 0.3413112947	-2.0442095549	-0.6663764393	-0.188925
C	 0.1939432322	-2.0944896517	 0.6866472401	-0.021771
C	-0.0366960986	-0.8553034063	 1.1846614982	-0.265242
N	 0.3012596015	-0.3690451723	-2.3721620952	-0.187909
C	 1.254413344	-1.0914400835	-3.228241621	-0.225516
C	-0.2082036218	-1.2951326751	-3.3949603239	-0.22552
H	 0.5071920149	 2.0387599827	 0.6932346233	 0.123702
H	-0.1808502527	 1.9290409666	-0.9371769987	 0.140325
H	-1.2266417291	 1.7957416908	 0.48820958	 0.123769
H	 0.280383893	-3.072281925	 1.1313060601	 0.130102
H	-0.1907860578	-0.6009580328	 2.2223944867	 0.106747
H	 1.8046129601	-0.4666171584	-3.9256174357	 0.121661
H	 1.8204196922	-1.8987842801	-2.7736319516	 0.13321
H	-0.6212644417	-2.2388227151	-3.0519163425	 0.133181
H	-0.7384830608	-0.8208028302	-4.2154907566	 0.121666
48.7074	138.941	171.764	172.2718	254.8246	270.5119	428.3274	492.9619	580.4206	621.7487	681.2609	703.1022	740.0531	821.41	823.1434	844.9505	890.8148	926.3361	982.6614	1037.666	1057.7155	1068.1602	1108.019	1115.9584	1130.8343	1156.0297	1181.5355	1182.0697	1211.5996	1280.4838	1332.6467	1408.8874	1438.3316	1483.1539	1489.9501	1493.6886	1509.197	1551.2043	1683.635	3027.1107	3074.4488	3115.2432	3118.6247	3126.201	3202.2337	3217.2238	3246.0747	3279.5877
CC1=C(OC=C1)N1CC1	Cc1c(occ1)N1CC1	
InChI=1S/C7H9NO/c1-6-2-5-9-7(6)8-3-4-8/h2,5H,3-4H2,1H3	InChI=1S/C7H9NO/c1-6-2-5-9-7(6)8-3-4-8/h2,5H,3-4H2,1H3
