20
gdb 52109	4.99427	0.72497	0.68671	3.0559	80.98	-0.2453	-0.0188	0.2265	1645.0297	0.17044	-403.11928	-403.110277	-403.109332	-403.154349	32.74	
O	-0.5001401428	 0.4787337153	 0.6008568517	-0.237462
C	 0.0938384254	 0.9108293661	-0.3531930875	 0.15531
C	 1.350492061	 1.7454497047	-0.292112344	-0.270746
C	 1.1717030188	 3.1014802597	-1.0068687788	-0.31637
C	 2.4526380066	 3.8837173174	-1.0565707439	 0.371861
C	 3.1036301098	 4.6545401683	 0.1094991052	-0.294676
C	 3.6388673296	 5.7035501423	-0.9223075117	-0.23471
C	 2.978654867	 4.8904064281	-2.0438144804	-0.098454
N	 3.4585969694	 3.5093052342	-2.0475940746	-0.357071
H	-0.2725348273	 0.7175016158	-1.3898922976	 0.070746
H	 1.6359803305	 1.8730037686	 0.7560748931	 0.119588
H	 2.1481105475	 1.1922887763	-0.8076689171	 0.130998
H	 0.8266861905	 2.929701179	-2.0328620611	 0.115168
H	 0.3988905199	 3.6888843488	-0.4961831623	 0.109937
H	 2.3754493599	 5.0897834356	 0.79875568	 0.110315
H	 3.8446492671	 4.0980001581	 0.6932202347	 0.097688
H	 3.1912879963	 6.689794448	-0.7792800157	 0.110771
H	 4.7249222267	 5.8215093516	-1.0006312162	 0.10002
H	 2.5394424497	 5.2762297515	-2.9573594498	 0.094951
H	 4.3955960341	 3.4208547307	-1.6568157938	 0.222137
50.4366	66.84	93.0665	126.5956	250.1792	281.1581	326.8397	394.8923	477.509	522.0906	699.8712	754.2076	768.0163	784.8574	831.5541	863.5945	923.6314	942.7299	951.6944	988.0466	1019.6576	1036.0339	1062.1308	1089.8528	1111.9103	1139.338	1184.3906	1192.9058	1222.0179	1230.7254	1249.4708	1265.6867	1280.7332	1295.037	1338.647	1363.8077	1429.3603	1441.0551	1463.4115	1479.2432	1483.9667	1501.521	1835.4154	2847.8624	3019.4981	3031.8397	3041.2918	3049.7873	3072.6314	3095.3657	3102.6042	3112.841	3172.9163	3453.5678
O=CCCC12CCC1N2	O=CCC[C@]12CC[C@H]1N2	
InChI=1S/C7H11NO/c9-5-1-3-7-4-2-6(7)8-7/h5-6,8H,1-4H2	InChI=1S/C7H11NO/c9-5-1-3-7-4-2-6(7)8-7/h5-6,8H,1-4H2/t6-,7+/m1/s1
