20
gdb 106464	3.25715	1.43486	1.25232	2.1862	78.04	-0.2457	0.0198	0.2655	1082.4866	0.172673	-403.155495	-403.147666	-403.146722	-403.187598	31.287	
C	 0.0063956757	 1.5630457137	-0.0857777833	-0.385704
C	-0.0212225137	 0.0457556561	 0.1290513303	-0.270978
C	-1.3982982829	-0.5606413047	-0.0104446614	 0.43648
C	-2.1968765681	-0.5307578739	-1.3442899354	-0.27316
C	-2.9433681788	-1.7728606728	-0.7725376946	-0.000029
C	-1.6287312516	-2.0959396065	-0.0017511955	-0.280796
N	-3.9586493714	-1.3182557281	 0.1851905158	-0.258959
C	-3.5094461437	-0.4585309885	 1.0010983692	 0.101515
O	-2.2416529313	 0.0187569645	 1.0267650643	-0.271784
H	 1.0199641639	 1.954515436	 0.038998825	 0.114209
H	-0.3318390476	 1.8270754293	-1.0932984945	 0.118172
H	-0.645970174	 2.0679902893	 0.6309663619	 0.135056
H	 0.6354255036	-0.4521436273	-0.5940721361	 0.098421
H	 0.3637509675	-0.1993202527	 1.126767709	 0.108302
H	-2.7913630861	 0.3560028071	-1.5720448849	 0.109663
H	-1.550452278	-0.7873433093	-2.1867536549	 0.104443
H	-3.3657472685	-2.510227891	-1.4538273495	 0.075963
H	-0.8929006878	-2.6020282725	-0.6307127393	 0.103947
H	-1.7162509659	-2.5952657527	 0.9653783003	 0.108586
H	-4.1219514113	-0.012228506	 1.7804497035	 0.126655
98.6189	161.1776	200.4209	291.8333	336.9726	373.2045	437.5202	465.8076	489.4724	614.2052	637.1237	759.8034	777.4424	846.3482	870.404	882.9558	909.7359	929.3547	953.8895	966.8584	999.0251	1026.9012	1053.5317	1067.8015	1123.7515	1148.4091	1154.2389	1178.0506	1217.4802	1230.7134	1256.7081	1295.548	1318.0202	1337.6962	1377.3073	1390.3972	1408.8957	1464.8856	1475.9245	1494.1865	1497.3677	1509.8811	1701.4181	3030.1734	3042.3237	3063.8612	3067.4896	3070.6948	3108.0363	3115.9052	3126.087	3129.8618	3132.9577	3176.0588
CCC12CC(C1)N=CO2	CC[C@@]12C[C@@H](C1)[N][CH]O2	
InChI=1S/C7H11NO/c1-2-7-3-6(4-7)8-5-9-7/h5-6H,2-4H2,1H3	InChI=1S/C7H11NO/c1-2-7-3-6(4-7)8-5-9-7/h5-6H,2-4H2,1H3/t6-,7+
