24
gdb 123022	4.35632	0.61647	0.57604	1.9953	88.06	-0.2233	0.0825	0.3058	2042.0436	0.215321	-405.509612	-405.498651	-405.497707	-405.546999	38.719	
C	-0.0201337752	 1.4165851306	-0.1517667553	-0.38248
C	-0.1844191878	-0.0935205089	-0.3393838698	-0.182207
C	-1.5183783243	-0.602911263	 0.1885659076	-0.02615
O	-1.5943615866	-1.9962774772	-0.0274502496	-0.250288
C	-2.7991581449	-2.5684136166	 0.4395103398	-0.082568
C	-2.7363083642	-4.0585710283	 0.2255753395	 0.006031
C	-3.9836212448	-4.8342135603	-0.039114405	-0.261385
N	-2.9687752658	-4.6886966411	-1.0721664171	-0.069576
C	-3.2787026319	-3.8647061186	-2.2315841592	-0.309977
H	 0.9452205443	 1.7576933061	-0.5363897611	 0.117812
H	-0.8027447035	 1.9723119289	-0.6801815363	 0.11578
H	-0.0729747969	 1.6962713136	 0.9063276881	 0.116036
H	-0.1076671202	-0.3560185281	-1.400740897	 0.10669
H	 0.6208021922	-0.6314311871	 0.1738184669	 0.107669
H	-1.6163158375	-0.3770579923	 1.2653663095	 0.081527
H	-2.3534023791	-0.0894570065	-0.3208520119	 0.080597
H	-2.9300573069	-2.3632840551	 1.5164603972	 0.089285
H	-3.664075002	-2.1217301818	-0.0754419859	 0.084042
H	-1.9371166534	-4.5354342872	 0.7910720372	 0.094129
H	-4.1174401495	-5.830779812	 0.3738651347	 0.114241
H	-4.9062290492	-4.2623295438	-0.1467324165	 0.101951
H	-4.0251547659	-3.0758185313	-2.0481935127	 0.095346
H	-2.3601259834	-3.3902375226	-2.5878967439	 0.13381
H	-3.6681613035	-4.5114686775	-3.0242824094	 0.119683
40.8645	57.8403	89.7579	109.2348	154.0227	173.7083	230.5085	232.2491	304.676	310.2723	376.114	419.7585	488.1861	562.5062	755.8654	764.9871	804.7913	900.4632	908.4459	915.6674	1000.2163	1021.3201	1040.7043	1055.9144	1089.9594	1115.2758	1128.6709	1152.2128	1156.9172	1160.7785	1186.0331	1199.0547	1205.7525	1262.2557	1271.8032	1314.5116	1330.8749	1339.8526	1367.2416	1412.3871	1420.6333	1449.6916	1460.4993	1486.2028	1492.0426	1496.9777	1500.1541	1506.6553	1510.8691	1519.8682	1534.3079	2937.857	2955.9347	2963.2921	2973.9831	2995.4199	3031.6116	3039.8627	3068.8065	3071.9319	3079.0928	3099.6215	3108.5637	3113.1923	3117.4444	3168.6393
CCCOCC1CN1C	CCCOC[C@H]1CN1C	
InChI=1S/C7H15NO/c1-3-4-9-6-7-5-8(7)2/h7H,3-6H2,1-2H3	InChI=1S/C7H15NO/c1-3-4-9-6-7-5-8(7)2/h7H,3-6H2,1-2H3/t7-,8?/m1/s1
