12
gdb 14658	25.41956	0.54905	0.53925	2.0963	98.18	-0.2347	-0.0551	0.1796	1903.8054	0.081251	-344.118376	-344.109747	-344.108803	-344.15186	29.452	
O	 0.0120074647	 1.4590081968	 0.0097846097	-0.405937
C	 0.005263419	 0.0391716194	 0.0023597342	-0.246586
C	-1.3661821853	-0.4452700322	 0.0127689351	 0.234084
C	-2.4966875962	-0.882599191	 0.0211461063	-0.392182
C	-3.7582285198	-1.366234097	 0.0305346265	 0.592738
C	-4.8959651848	-1.8019676647	 0.0390439666	-0.007018
C	-6.158875673	-2.2868701678	 0.0486272849	 0.176136
C	-7.2882089495	-2.7202597775	 0.0574003738	-0.698603
H	 0.9322554098	 1.7422873901	 0.0026299451	 0.295135
H	 0.5139307911	-0.3634817301	-0.8895444934	 0.128928
H	 0.5306604063	-0.3728161648	 0.8801915881	 0.128928
H	-8.2796083523	-3.1005089412	 0.0650895431	 0.194376
61.2178	74.9054	155.8343	190.6829	219.0905	284.5607	350.619	439.5188	479.6112	494.8383	559.2803	565.355	617.3601	669.1624	687.8194	928.1152	1017.41	1061.9521	1240.4727	1245.6156	1311.605	1460.9274	1494.4113	2155.6157	2298.2886	2342.1795	2959.5823	2978.1701	3502.6444	3818.1672
OCC#CC#CC#C	OCC#CC#CC#C	
InChI=1S/C7H4O/c1-2-3-4-5-6-7-8/h1,8H,7H2	InChI=1S/C7H4O/c1-2-3-4-5-6-7-8/h1,8H,7H2
