25
gdb 96583	2.17174	1.38432	0.98642	1.1014	88.77	-0.2415	0.0808	0.3223	1331.5527	0.231243	-389.498705	-389.48946	-389.488516	-389.532202	36.593	
C	 0.1553305346	 1.6616060528	-0.0480642987	-0.403577
C	 0.039070781	 0.1304207312	 0.0229300779	 0.05236
C	 0.7423997769	-0.4828877538	-1.21078003	-0.179969
C	 1.0227605096	-1.9927299977	-1.2244963398	-0.201066
C	-0.1826259231	-2.9405338317	-1.1744596679	-0.197273
C	-0.9696254215	-2.9193083929	 0.147089801	-0.063406
O	-0.1181917532	-2.811035326	 1.2788579296	-0.245241
C	-0.1791801778	-1.5876277252	 1.9880435403	-0.078744
C	 0.5732017142	-0.3962889617	 1.3764560053	-0.206212
H	 1.1979908909	 1.9795491826	 0.0727955342	 0.113123
H	-0.1968511628	 2.0435600229	-1.01250877	 0.108252
H	-0.4332429624	 2.1437387884	 0.7395831476	 0.106785
H	-1.0309777359	-0.10736889	-0.0318627124	 0.067856
H	 0.1613946385	-0.2138808943	-2.1037072338	 0.087538
H	 1.7103201518	 0.0259963896	-1.3244920509	 0.089652
H	 1.5858299719	-2.2132519009	-2.1395970099	 0.087563
H	 1.6861361101	-2.2520575698	-0.3932961211	 0.11032
H	-0.87862751	-2.7313317653	-1.9981140949	 0.088562
H	 0.1905736624	-3.9583768415	-1.3389580794	 0.099952
H	-1.7084168125	-2.1086331527	 0.1509025099	 0.092406
H	-1.5316821953	-3.8574736274	 0.2471849398	 0.093408
H	-1.2323688164	-1.3006572808	 2.1467129586	 0.084855
H	 0.2485711788	-1.8041725225	 2.9735439277	 0.101721
H	 1.6406593356	-0.6371056666	 1.2965145207	 0.101525
H	 0.5025956946	 0.4072745531	 2.1219557164	 0.089609
97.1294	148.0689	195.2304	228.6165	244.0685	278.9305	309.0222	329.2278	412.3034	415.4754	460.6134	523.6693	542.6851	751.3844	785.2614	808.4859	820.1403	875.2632	886.3402	949.4335	977.2494	1004.3523	1012.3296	1040.4729	1043.6973	1089.5809	1110.0714	1134.8601	1172.6791	1177.3903	1196.2894	1242.0657	1281.2379	1301.1265	1308.9703	1312.4685	1343.0612	1352.934	1382.894	1387.7786	1392.4105	1395.408	1407.9177	1417.3642	1428.9769	1471.9801	1479.6383	1483.8824	1490.6969	1496.3632	1497.9993	1501.5848	1514.0115	2962.5013	2998.0781	3002.9282	3010.7116	3014.1756	3019.7202	3022.7431	3032.2892	3038.3671	3041.4057	3053.8027	3061.8462	3065.15	3084.1727	3089.4396	3095.5933
CC1CCCCOCC1	C[C@H]1CCCCOCC1	
InChI=1S/C8H16O/c1-8-4-2-3-6-9-7-5-8/h8H,2-7H2,1H3	InChI=1S/C8H16O/c1-8-4-2-3-6-9-7-5-8/h8H,2-7H2,1H3/t8-/m0/s1
