20
gdb 82918	2.93421	1.36391	1.16166	2.1966	78.37	-0.2192	0.0786	0.2979	1146.0129	0.171159	-403.110122	-403.101862	-403.100918	-403.142328	33.139	
C	-0.0553778487	 1.4707194772	-0.1097221639	-0.417846
C	-0.0251175742	-0.0392410786	-0.1348734154	 0.017421
C	 0.7872534606	-0.8001830653	-1.1205937469	-0.13236
N	 1.236384473	-0.6660657189	 0.2842860036	-0.113494
C	 1.1302005842	-2.0089194975	 0.911216	-0.18988
C	 0.7180815757	-3.0223123825	-0.1566677685	-0.081919
C	-0.6673562227	-2.9529778043	-0.7745579754	-0.369341
C	 0.4962547818	-2.2578397959	-1.4353503105	 0.404602
O	 1.0019349283	-2.7487210779	-2.639295053	-0.467142
H	 0.8992682076	 1.878515627	-0.4526312189	 0.127036
H	-0.8518700303	 1.8574823363	-0.7549729677	 0.11208
H	-0.2329184944	 1.8386140588	 0.9067386941	 0.119451
H	-0.9471942372	-0.5076148702	 0.2052303677	 0.075602
H	 1.368873183	-0.2798501882	-1.8782149913	 0.087743
H	 2.118818042	-2.2726732347	 1.3006730426	 0.112689
H	 0.4430823244	-1.973272091	 1.7648631568	 0.103418
H	 1.2223664802	-3.9818890864	-0.1834209774	 0.099406
H	-1.0025225076	-3.8619638071	-1.2644079723	 0.113311
H	-1.4591233923	-2.3884304114	-0.295509787	 0.115002
H	 0.3613979867	-2.5559018495	-3.3323949266	 0.28422
160.8149	185.4703	220.4825	233.4845	283.318	301.4869	370.9565	413.2256	436.1309	477.5655	596.0225	698.3307	732.7005	788.0222	797.8192	841.6096	890.693	913.189	955.4366	972.1707	1023.3773	1032.3953	1044.0163	1049.919	1076.1073	1084.725	1117.6567	1143.9808	1172.8533	1209.941	1228.9005	1258.724	1269.5207	1321.1928	1329.9719	1342.1439	1391.9958	1409.8493	1453.8892	1488.4693	1489.418	1494.6953	1506.2193	3031.6402	3034.0225	3072.1267	3095.0015	3108.7613	3123.8526	3132.0665	3135.7328	3173.6242	3215.8009	3798.6832
CC1C2N1CC1CC21O	C[C@H]1[C@H]2N1C[C@H]1C[C@@]21O	
InChI=1S/C7H11NO/c1-4-6-7(9)2-5(7)3-8(4)6/h4-6,9H,2-3H2,1H3	InChI=1S/C7H11NO/c1-4-6-7(9)2-5(7)3-8(4)6/h4-6,9H,2-3H2,1H3/t4-,5+,6+,7-,8?/m0/s1
