23
gdb 101842	4.9645	0.58873	0.57087	1.1604	83.16	-0.2622	0.0721	0.3343	2027.1973	0.203464	-425.409513	-425.39877	-425.397826	-425.446479	38.479	
C	 0.0845100768	 1.4889154938	-0.2609632694	-0.380582
C	-0.0089718711	-0.0341924396	-0.1448019537	-0.187123
C	-1.4375080748	-0.5349075928	 0.1043337662	 0.133981
O	-2.3308144145	-0.0955038539	-0.9204771196	-0.428851
C	-1.4982945798	-2.0572594782	 0.2784848459	-0.199364
C	-2.9081952597	-2.5755334242	 0.5900361035	-0.223357
C	-2.9707075544	-4.0818494371	 0.6299695803	 0.096683
C	-4.1205727442	-4.8377325999	 0.1199131147	-0.180797
O	-2.9102338923	-4.7532775426	-0.6348103629	-0.239649
H	 1.1047558175	 1.8079369936	-0.4940281328	 0.108406
H	-0.5815208656	 1.8558656431	-1.0460934041	 0.12733
H	-0.2114944924	 1.9730680868	 0.6763623855	 0.112988
H	 0.3700130615	-0.5049957403	-1.0640554649	 0.086244
H	 0.636905335	-0.3921308794	 0.6668536988	 0.095103
H	-1.8241422716	-0.0563794811	 1.014969642	 0.081904
H	-2.0404142599	-0.4977323116	-1.7476290909	 0.277784
H	-1.1379584044	-2.5361688667	-0.6430005418	 0.103478
H	-0.8024834416	-2.3552376619	 1.073675383	 0.093047
H	-3.2458091422	-2.1781804413	 1.5570229473	 0.09683
H	-3.6026748816	-2.202070614	-0.168605904	 0.114949
H	-2.3607063491	-4.5583814681	 1.4011185004	 0.08652
H	-4.3515082473	-5.8215828875	 0.526685263	 0.11179
H	-4.9700707542	-4.2988775972	-0.2984008965	 0.112685
46.1621	53.8467	99.283	116.6896	140.2874	217.0975	228.2032	280.6523	313.0441	329.9193	424.0583	443.1849	483.1277	555.1216	760.5148	782.1146	796.8658	865.6017	878.1301	937.0229	958.0585	993.2437	1021.6308	1043.1615	1066.1837	1087.8538	1106.1413	1129.5306	1147.4646	1160.4785	1170.6442	1204.533	1261.9204	1265.7123	1295.58	1307.4726	1328.7854	1363.4261	1381.5492	1394.3137	1405.0154	1420.9434	1446.6484	1470.6777	1479.8715	1493.073	1495.4241	1509.2433	1530.4969	2999.5293	3007.5426	3018.5284	3023.7111	3037.1694	3045.0514	3057.6398	3075.9814	3081.2513	3096.8115	3101.5992	3122.3548	3165.6392	3787.4167
CCC(O)CCC1CO1	CC[C@@H](O)CC[C@H]1CO1	
InChI=1S/C7H14O2/c1-2-6(8)3-4-7-5-9-7/h6-8H,2-5H2,1H3	InChI=1S/C7H14O2/c1-2-6(8)3-4-7-5-9-7/h6-8H,2-5H2,1H3/t6-,7+/m1/s1
