13
gdb 131259	3.39356	1.6809	1.12412	4.7677	65.58	-0.1984	-0.0002	0.1982	968.8985	0.09139	-448.914457	-448.906967	-448.906022	-448.947121	27.383	
O	 0.0962543083	 1.3560802012	-0.048279966	-0.445925
C	 0.0611999859	-0.0015685555	-0.0113822931	 0.212248
C	 0.0155617669	-0.8192175169	-1.1119871432	-0.164172
N	-0.0000753107	-2.1734863225	-0.6995279978	-0.427062
C	 0.0222781712	-2.1674159248	 0.6541190031	 0.451597
C	 0.0663265136	-0.86577997	 1.133693297	 0.181085
N	 0.0990333927	-0.8985151811	 2.4970061863	-0.311555
N	 0.0765065738	-2.1369404473	 2.8811486266	-0.128362
N	 0.0301937093	-2.9448689943	 1.755665902	-0.356509
H	 0.1255030043	 1.68008082	 0.8573670003	 0.312933
H	-0.0000745264	-0.5672815255	-2.1586407933	 0.130158
H	-0.0767246787	-2.9611774587	-1.3155048213	 0.269177
H	 0.0045667798	-3.9423470046	 1.8766784393	 0.276388
34.1093	205.1057	241.6735	263.5274	269.4097	378.4572	449.1734	559.5423	584.6251	627.1781	678.8092	705.7978	707.5495	772.0353	816.0374	934.6066	1016.8114	1068.3183	1132.8856	1209.2027	1254.2719	1272.3692	1339.7799	1364.9379	1387.4161	1510.0452	1511.5353	1639.8666	1672.788	3279.767	3685.9514	3705.1396	3836.9742	34.1119	205.1058	241.6732	263.5268	269.4097	378.4575	449.1733	559.5424	584.6254	627.1781	678.8091	705.7974	707.5495	772.0355	816.0374	934.6066	1016.8115	1068.3183	1132.8856	1209.2027	1254.2723	1272.3693	1339.78	1364.9382	1387.4165	1510.0454	1511.5354	1639.8665	1672.7881	3279.7669	3685.9513	3705.1395	3836.974
OC1=CNC2=C1N=NN2	Oc1c[nH]c2c1nn[nH]2	
InChI=1S/C4H4N4O/c9-2-1-5-4-3(2)6-8-7-4/h1,9H,(H2,5,6,7,8)	InChI=1S/C4H4N4O/c9-2-1-5-4-3(2)6-8-7-4/h1,9H,(H2,5,6,7,8)
