18
gdb 58057	2.19551	1.38591	0.93985	4.0764	72.15	-0.2772	0.0283	0.3055	1253.0986	0.145449	-439.071686	-439.062025	-439.061081	-439.10663	34.536	
C	 0.104110826	 1.470973603	-0.1408910409	-0.434604
C	-0.0365881866	-0.0393279696	 0.0115073084	 0.139226
O	 0.6819062437	-0.526761447	 1.1344775734	-0.42645
C	-1.5229423089	-0.5103775169	 0.1164786605	-0.217526
C	-2.3253398729	-0.0086269548	-0.9996232156	 0.296751
N	-2.9561566349	 0.4035158492	-1.8758896102	-0.342023
C	-1.5857492209	-2.0308081049	 0.2227504684	 0.092223
C	-2.6719043274	-2.8411944461	-0.3361994453	-0.195044
O	-1.3975835737	-2.7561234245	-0.9863980416	-0.228124
H	 1.1630360795	 1.7384536047	-0.1839675046	 0.135185
H	-0.3851761846	 1.8293265874	-1.049738299	 0.156323
H	-0.3496171842	 1.9928847596	 0.7120140146	 0.111713
H	 0.4012625921	-0.5449993942	-0.8553831684	 0.128285
H	 0.5316257686	 0.0768622938	 1.8707339382	 0.283669
H	-1.9389970138	-0.0849781783	 1.041529802	 0.118849
H	-1.0219097092	-2.4083977883	 1.0732645203	 0.118808
H	-2.90088106	-3.8058453186	 0.1132633929	 0.122537
H	-3.4912271029	-2.3578253444	-0.8637999031	 0.140202
65.0902	74.7492	142.2557	171.5145	184.764	242.6816	294.2042	323.8364	357.1556	400.0237	460.7675	471.5832	543.1415	656.0244	787.0637	863.1815	891.8844	926.7803	950.1991	979.4816	1053.3369	1090.5369	1097.6941	1111.8237	1149.2584	1167.0543	1174.4517	1225.6844	1284.2903	1313.9525	1333.8947	1366.4943	1408.3308	1419.1796	1425.4581	1491.3228	1494.9293	1526.099	2357.4853	3010.5451	3024.551	3069.1052	3094.9752	3105.6816	3135.2041	3141.3754	3187.8647	3797.7495
CC(O)C(C#N)C1CO1	C[C@@H](O)[C@@H](C#N)[C@H]1CO1	
InChI=1S/C6H9NO2/c1-4(8)5(2-7)6-3-9-6/h4-6,8H,3H2,1H3	InChI=1S/C6H9NO2/c1-4(8)5(2-7)6-3-9-6/h4-6,8H,3H2,1H3/t4-,5-,6-/m1/s1
