20
gdb 76831	2.40282	1.60282	1.30688	2.704	79.36	-0.2572	0.0261	0.2833	1078.6819	0.171156	-403.141255	-403.132658	-403.131714	-403.174406	32.974	
C	-0.7606204103	 1.2647358793	 0.2138374848	-0.407025
C	-0.0524324869	-0.0736143807	 0.0557182941	-0.016515
C	 0.7003699284	-0.4223040478	-1.2882632297	-0.008937
C	 0.7380852867	 0.5880665061	-2.4264247753	-0.406181
C	 2.0179121698	-0.6746689412	-0.4725293809	-0.187307
C	 1.2682473321	-0.284123637	 0.8289794889	 0.091544
O	 2.0784674467	 0.9321294535	 0.9247706332	-0.270064
C	 2.8151569588	 0.5754176761	-0.1948815586	 0.442181
N	 3.7982817144	 1.141780005	-0.7295292736	-0.551866
H	-0.0774810543	 2.1022542311	 0.0563169717	 0.133422
H	-1.5870814365	 1.3556562476	-0.4981560582	 0.116851
H	-1.17771763	 1.3635529782	 1.2218407455	 0.117711
H	-0.7452258113	-0.8845462333	 0.3053914742	 0.078531
H	 0.3351351878	-1.3780500627	-1.6745209173	 0.081986
H	 1.1184386709	 1.5610836324	-2.1049658126	 0.131877
H	 1.3899121983	 0.2347975756	-3.2319889719	 0.126242
H	-0.2626500919	 0.7362827406	-2.845785031	 0.113603
H	 2.5670347628	-1.5979651105	-0.6432136526	 0.098469
H	 1.2819985023	-0.8351761705	 1.7692947931	 0.089437
H	 4.0524707122	 1.9943441982	-0.226900304	 0.226038
70.2649	146.657	199.1961	214.4267	230.7822	244.4938	361.4788	417.3015	473.6116	537.8997	593.7029	712.6056	736.6065	782.7091	853.3659	864.8597	874.5499	892.1102	935.621	957.1106	1007.7785	1014.2099	1035.0325	1078.8554	1086.9797	1156.5571	1168.2788	1175.7494	1198.3002	1218.8332	1252.2418	1282.9288	1311.9228	1336.6696	1354.826	1367.1853	1410.4263	1418.6505	1486.2315	1490.1374	1500.6515	1504.9224	1816.1474	3036.2392	3039.1663	3041.7726	3062.3231	3098.5674	3102.4068	3113.4867	3118.4309	3129.4084	3143.1145	3471.0125
CC1C(C)C2C1OC2=N	C[C@H]1[C@@H](C)[C@@H]2[C@H]1O[C]2[NH]	
InChI=1S/C7H11NO/c1-3-4(2)6-5(3)7(8)9-6/h3-6,8H,1-2H3	InChI=1S/C7H11NO/c1-3-4(2)6-5(3)7(8)9-6/h3-6,8H,1-2H3/t3-,4+,5-,6+/m1/s1
