16
gdb 83730	2.70884	1.73117	1.27247	4.354	64.52	-0.2559	0.0121	0.2681	977.7949	0.126009	-475.035474	-475.028057	-475.027113	-475.067502	28.342	
O	 0.4761024314	 0.9999063598	 0.7888090513	-0.431286
C	 0.0318807046	-0.1547640262	 0.1419098646	 0.048457
C	-1.4626382958	-0.2004065988	-0.1595177569	 0.082668
O	-1.9921229356	 1.0208696534	-0.7147342275	-0.276403
C	-2.4252752483	 0.341726291	-1.9121008546	-0.078592
C	-1.6067570129	-0.9107389589	-1.5371226531	-0.066821
N	-0.2513273746	-0.9211008681	-2.0570646355	-0.309382
C	 0.6620457774	-0.3018454187	-1.2505951382	 0.361699
O	 1.7736290905	 0.0826966825	-1.5433096461	-0.38219
H	 1.2981580294	 1.2479237676	 0.3401270403	 0.297679
H	 0.290218798	-1.0627716339	 0.7175639841	 0.091028
H	-2.0812721197	-0.5755699861	 0.660987777	 0.089581
H	-3.5107646704	 0.1750662126	-1.9174723422	 0.106935
H	-2.1268630525	 0.8705814594	-2.8236651538	 0.112703
H	-2.0931334742	-1.8851224288	-1.6052518888	 0.098088
H	-0.0541388772	-1.0337372567	-3.0407141304	 0.255835
96.138	143.1674	217.1886	268.0637	373.1931	402.1613	480.1206	505.2291	560.0944	639.5742	670.6844	753.9309	822.1934	865.7108	895.4394	902.05	973.8868	1009.8688	1045.4504	1096.7998	1115.2277	1161.246	1167.7849	1213.889	1238.4806	1249.0683	1275.8463	1327.4199	1358.7791	1364.049	1388.0123	1422.5487	1438.1945	1511.9929	1831.8109	2935.9388	3011.8951	3066.0102	3074.223	3097.6049	3616.4234	3724.1271
OC1C2OCC2NC1=O	O[C@H]1[C@H]2OC[C@H]2NC1=O	
InChI=1S/C5H7NO3/c7-3-4-2(1-9-4)6-5(3)8/h2-4,7H,1H2,(H,6,8)	InChI=1S/C5H7NO3/c7-3-4-2(1-9-4)6-5(3)8/h2-4,7H,1H2,(H,6,8)/t2-,3+,4+/m1/s1
