21
gdb 95537	2.25553	1.44552	1.01099	3.0635	84.97	-0.2362	-0.0272	0.209	1235.9832	0.182825	-387.121927	-387.112939	-387.111995	-387.155883	33.923	
C	-0.0550931087	 1.5811362342	-0.0538911234	-0.416072
C	 0.0271519184	 0.0508349131	-0.0314459796	 0.004617
C	 0.6636155457	-0.520638118	-1.310115141	-0.20457
C	 0.6167848443	-2.0543923613	-1.3331303489	-0.262405
C	 0.9637664358	-2.6590818336	 0.0000732631	-0.041399
C	 1.0153240438	-1.9687339149	 1.1394182226	-0.094791
C	 0.7460213248	-0.4823263136	 1.2346869616	-0.108652
C	 2.0798469071	 0.2085535647	 1.5005726794	 0.159155
O	 2.400607754	 0.692770246	 2.5552738025	-0.254106
H	 0.9352083487	 2.0391819772	-0.1571717172	 0.120929
H	-0.6643932487	 1.9241553785	-0.8962400133	 0.114251
H	-0.5032614254	 1.9691851079	 0.8666501286	 0.122147
H	-0.9975978786	-0.3416611947	 0.0242762152	 0.082654
H	 0.1496908482	-0.1157487457	-2.1891608829	 0.095458
H	 1.7058885619	-0.1859658365	-1.3848477678	 0.10293
H	-0.3858743113	-2.3979504087	-1.6290160755	 0.113009
H	 1.2927832938	-2.4433770837	-2.1048274351	 0.107154
H	 1.1559731749	-3.7295779743	 0.0184442535	 0.09227
H	 1.2776124033	-2.467636832	 2.0687196273	 0.100456
H	 0.131001278	-0.2793498265	 2.119159931	 0.092372
H	 2.7834692499	 0.2027776019	 0.6371314	 0.074592
60.2908	92.4558	173.3549	224.9117	248.4075	269.0938	305.5855	402.5473	449.6177	454.7978	490.541	581.3643	701.6362	746.8994	804.4134	877.4724	905.4177	949.6137	961.8977	971.6991	991.9882	1013.3972	1049.5494	1073.7149	1099.7312	1128.3107	1143.4664	1184.8071	1235.5847	1259.0677	1273.7893	1320.9212	1331.6435	1359.7019	1369.1626	1392.3073	1409.8572	1417.7161	1421.8353	1474.9436	1494.2894	1497.5212	1502.1437	1713.0876	1823.6228	2869.5619	2999.0331	3004.9644	3025.7815	3030.0488	3043.0511	3043.8729	3067.8428	3095.0681	3102.9582	3144.9976	3169.684
CC1CCC=CC1C=O	C[C@H]1CCC=C[C@H]1C=O	
InChI=1S/C8H12O/c1-7-4-2-3-5-8(7)6-9/h3,5-8H,2,4H2,1H3	InChI=1S/C8H12O/c1-7-4-2-3-5-8(7)6-9/h3,5-8H,2,4H2,1H3/t7-,8-/m0/s1
