18
gdb 120422	3.20877	0.87284	0.7669	3.5632	69.44	-0.2519	0.0191	0.271	1478.951	0.146011	-476.227292	-476.217383	-476.216439	-476.263009	34.599	
O	-0.0992670771	 1.4316290342	 0.0531688761	-0.41534
C	-0.0141664847	 0.0185539946	 0.1171611646	-0.080823
C	-1.4081178224	-0.5403025769	-0.141518564	-0.163541
C	-1.4476360439	-2.0609236175	-0.1316435106	-0.000997
N	-1.2830731897	-2.7063130472	 1.1889399616	-0.33498
C	-2.565764733	-3.1732799787	 1.2855679834	 0.388282
O	-3.2089170324	-3.684913773	 2.1650539333	-0.369228
C	-2.8743097278	-2.7124788137	-0.1609920849	-0.028735
O	-3.9605910465	-1.8391962965	-0.3098076399	-0.425274
H	 0.7742162486	 1.7962647662	 0.2227557907	 0.287731
H	 0.6915330968	-0.3754883522	-0.633510536	 0.085248
H	 0.346577243	-0.312747328	 1.1058658807	 0.077017
H	-2.1048636273	-0.1447128655	 0.6028203119	 0.116133
H	-1.754737447	-0.1856791658	-1.1185252653	 0.123458
H	-0.7640309857	-2.474755101	-0.8825001363	 0.084589
H	-0.5416097135	-2.6658056817	 1.8736232718	 0.252203
H	-2.9336935517	-3.5498938125	-0.8686093963	 0.100136
H	-4.5937167859	-2.0473956347	 0.3870256193	 0.304125
57.1176	86.3477	108.288	127.1822	170.7334	206.0787	265.9446	274.9094	351.0004	385.6631	473.0921	531.021	569.636	719.006	767.0162	806.0326	866.1919	914.0049	925.3275	1025.7666	1074.758	1085.3273	1119.774	1153.8615	1192.0392	1204.397	1226.208	1235.4346	1276.6939	1310.8239	1324.4393	1359.9586	1371.0044	1387.2888	1408.0204	1466.1921	1479.109	1525.7824	1889.5664	2949.4724	2974.2513	3018.5385	3037.6073	3055.9442	3107.21	3599.3949	3797.552	3830.3427
OCCC1NC(=O)C1O	OCC[C@H]1NC(=O)[C@H]1O	
InChI=1S/C5H9NO3/c7-2-1-3-4(8)5(9)6-3/h3-4,7-8H,1-2H2,(H,6,9)	InChI=1S/C5H9NO3/c7-2-1-3-4(8)5(9)6-3/h3-4,7-8H,1-2H2,(H,6,9)/t3-,4+/m1/s1
