19
gdb 67643	3.25009	1.75214	1.57175	2.0464	77.18	-0.2321	0.0778	0.3099	930.9416	0.161574	-385.853539	-385.846853	-385.845908	-385.884163	28.271	
C	 0.0158925615	 1.5494625905	 0.0837138069	-0.516021
C	-0.0059826959	 0.0532712161	-0.0058236327	 0.341384
C	 1.0887381599	-0.8441941402	-0.5053384226	-0.113861
C	 0.5825191096	-1.7867004138	-1.5905625262	-0.230674
C	-0.8456214657	-2.0695879039	-1.1273056396	 0.082021
O	-0.7860847292	-2.9624892755	 0.0231668285	-0.313605
C	-0.7612486385	-1.8084098673	 0.8859051433	 0.120542
C	 0.5720151758	-1.031989821	 0.918214677	-0.150462
C	-1.2501906078	-0.8527460319	-0.2156826315	-0.166695
H	 1.0060358206	 1.9086968683	 0.383214148	 0.12065
H	-0.224595946	 2.0105595255	-0.8821647075	 0.119631
H	-0.7082404454	 1.9227220802	 0.8169915693	 0.118969
H	 2.091385071	-0.4340318544	-0.5762779398	 0.081919
H	 0.5998687529	-1.2865400631	-2.5672663588	 0.091972
H	 1.1460856623	-2.7210205281	-1.6679656117	 0.111203
H	-1.5335061349	-2.4405851936	-1.8900882922	 0.073348
H	-1.2600733113	-1.9671952088	 1.8437524446	 0.07724
H	 1.2359829103	-0.9277518717	 1.7688039155	 0.078917
H	-2.2573282194	-0.4455504874	-0.2596532207	 0.073522
201.5333	208.6443	261.3494	345.6231	424.2079	536.778	551.973	657.1142	699.4611	717.2511	800.3318	835.9485	848.8434	879.3334	885.2504	905.7023	926.5848	949.2658	967.4167	979.9632	1016.796	1054.8501	1061.7571	1071.0484	1088.173	1122.3364	1179.6113	1184.0723	1213.1624	1220.5859	1262.9327	1267.437	1286.2466	1322.5967	1337.3328	1342.8431	1415.0928	1459.3012	1477.414	1486.3422	1499.6377	3018.9816	3027.721	3075.9315	3086.9671	3091.2588	3093.9313	3094.58	3146.1876	3159.6048	3175.4946
CC12C3CC4OC(C13)C24	C[C@@]12[C@@H]3C[C@H]4O[C@@H]([C@H]13)[C@@H]24	
InChI=1S/C8H10O/c1-8-3-2-4-6(8)7(9-4)5(3)8/h3-7H,2H2,1H3	InChI=1S/C8H10O/c1-8-3-2-4-6(8)7(9-4)5(3)8/h3-7H,2H2,1H3/t3-,4-,5-,6+,7+,8-/m1/s1
