20
gdb 112949	4.4084	0.83326	0.8021	3.0327	76.75	-0.2417	0.0307	0.2725	1493.2295	0.169833	-440.300945	-440.290866	-440.289922	-440.337476	35.511	
C	 0.5558795515	 1.5389021975	-0.5341130828	-0.241217
O	-0.2051233012	 0.3580626379	-0.4157251082	-0.243528
C	 0.4358292005	-0.7690812599	-0.950785856	 0.176297
C	 1.5467756849	-1.4601232933	-0.1073678074	-0.25933
C	 0.8738083838	-2.8357009336	-0.417684947	-0.127888
C	-0.4060304146	-2.0545729719	-0.8642074648	-0.262927
C	 1.541511639	-3.5525636731	-1.5773740344	 0.42496
N	 1.7918783658	-4.8795542456	-1.3821745944	-0.535928
O	 1.8347976347	-2.9846222417	-2.6155530202	-0.376325
H	 1.5022512178	 1.4791236704	 0.024883163	 0.105526
H	 0.7930548529	 1.7652815234	-1.5853556809	 0.107305
H	-0.042106693	 2.3556306125	-0.1222088464	 0.123685
H	 0.7841088987	-0.5789091651	-1.9736823393	 0.092416
H	 2.5829833292	-1.337675432	-0.4258730735	 0.111588
H	 1.4444006194	-1.202493478	 0.9501169353	 0.102351
H	 0.7414920316	-3.4998386106	 0.4396856042	 0.061786
H	-1.1263134718	-1.979702692	-0.0461175725	 0.109751
H	-0.9090701135	-2.3909951092	-1.7719090855	 0.113176
H	 1.5343778619	-5.3605816877	-0.5394667008	 0.258791
H	 2.2135805524	-5.4018289979	-2.1327823284	 0.25951
23.8422	69.4141	105.3167	118.5018	166.26	209.1145	247.6978	287.836	351.7477	434.3468	471.4952	575.5524	589.7916	695.0832	760.274	770.119	829.2686	895.315	934.1264	981.9525	1013.4041	1056.017	1060.3849	1095.2581	1120.4701	1163.5755	1182.538	1194.3943	1197.9984	1248.8814	1255.4817	1270.4366	1284.4964	1305.744	1382.965	1419.0659	1456.9859	1477.1954	1484.8228	1490.6148	1509.8358	1614.3777	1782.1718	2974.6507	3020.5899	3032.6705	3062.5109	3067.8596	3077.7584	3111.7858	3132.1859	3135.6356	3604.0084	3744.1959
COC1CC(C1)C(N)=O	CO[C@H]1C[C@@H](C1)C(=O)N	
InChI=1S/C6H11NO2/c1-9-5-2-4(3-5)6(7)8/h4-5H,2-3H2,1H3,(H2,7,8)	InChI=1S/C6H11NO2/c1-9-5-2-4(3-5)6(7)8/h4-5H,2-3H2,1H3,(H2,7,8)/t4-,5-
