12
gdb 128952	7.80165	0.79236	0.72255	1.7085	62.06	-0.267	-0.0601	0.2068	1403.5333	0.076815	-468.765821	-468.758196	-468.757252	-468.799544	25.998	
N	-0.0396957438	-1.1015371746	-0.0036756732	-0.280203
C	-0.0021211905	 0.0518463305	 0.0019809744	 0.279874
C	-0.0052529961	 1.5137473788	 0.0106093289	-0.217225
O	 1.35344361	 1.9534153034	-0.0019792512	-0.263003
C	 1.519206023	 3.2853839731	 0.0033100344	 0.355401
C	 2.6813302224	 3.9933953966	-0.0066040262	-0.063672
O	 2.3531235939	 5.2899856808	 0.0039091903	-0.145925
N	 0.9533998763	 5.3702045341	 0.0219870469	-0.000933
N	 0.4918651934	 4.1878904079	 0.020506271	-0.201408
H	-0.5448691127	 1.8904853265	-0.8660290942	 0.17661
H	-0.5251149441	 1.8801383674	 0.9034239765	 0.176656
H	 3.7237779982	 3.7297017355	-0.0205595077	 0.183828
42.0307	69.532	118.9001	235.9536	335.5977	383.9951	440.5018	527.4336	643.593	712.9131	740.5257	766.9207	798.2117	964.1321	992.0646	1020.4793	1027.9116	1083.6635	1131.9741	1252.0664	1306.4745	1342.3289	1398.5867	1429.8405	1486.48	1658.89	2379.8557	3040.5964	3079.9018	3306.6433
N#CCOC1=CON=N1	N#CCOc1conn1	
InChI=1S/C4H3N3O2/c5-1-2-8-4-3-9-7-6-4/h3H,2H2	InChI=1S/C4H3N3O2/c5-1-2-8-4-3-9-7-6-4/h3H,2H2
