13
gdb 48145	4.16171	0.91563	0.76774	0.9809	70.79	-0.2774	-0.0938	0.1836	1356.3036	0.088842	-448.941487	-448.932812	-448.931868	-448.976091	29.8	
N	 0.5779824696	 0.3121977428	-1.7725162798	-0.470987
C	 0.0230639268	 0.021113225	-0.6687838018	 0.279904
N	-1.3218471968	-0.3715280276	-0.6811663042	-0.349338
C	-2.2199663249	-0.1866894388	 0.3479605338	 0.300023
N	-1.895052881	 0.3258556149	 1.4697406218	-0.504098
C	-3.5637169668	-0.6405196042	 0.0282362401	 0.235948
N	-4.6473879612	-0.9814613914	-0.1855563684	-0.302555
C	 0.8005518642	-0.0645077108	 0.6389754051	 0.128979
O	 1.8848688347	 0.4495320747	 0.7248153472	-0.242205
H	 1.5637621572	 0.5211926287	-1.5942672497	 0.255274
H	-1.6987706056	-0.5040290136	-1.6105197174	 0.283938
H	-2.6742092486	 0.3389628702	 2.1224951866	 0.257137
H	 0.3508290424	-0.65475187	 1.4516525667	 0.127979
47.7418	70.8961	111.9437	160.9833	280.5412	298.4066	336.1849	393.4382	470.5229	523.1362	607.24	632.044	691.3593	720.2536	833.3906	866.2845	911.393	962.8769	1013.669	1094.5536	1167.1147	1299.053	1359.4557	1443.212	1519.2117	1687.479	1708.1097	1816.6351	2352.2911	3024.1879	3458.3977	3539.7957	3595.5458
N=C(NC(=N)C#N)C=O	N=C(NC(=N)C#N)C=O	
InChI=1S/C4H4N4O/c5-1-3(6)8-4(7)2-9/h2H,(H3,6,7,8)	InChI=1S/C4H4N4O/c5-1-3(6)8-4(7)2-9/h2H,(H3,6,7,8)
