22
gdb 83281	2.79871	1.31494	1.16305	0.9623	82.07	-0.2193	0.0777	0.297	1189.4211	0.1952	-404.321875	-404.313071	-404.312127	-404.354918	34.251	
C	 0.4576676786	 1.3541330555	 1.1771085811	-0.403841
C	 0.1889107097	-0.1006717659	 0.8179604167	 0.138189
C	 0.7095845588	-0.4500620862	-0.5954786361	-0.246519
C	 1.0296860459	-1.9218774403	-0.8242882202	-0.022916
C	 0.9352139671	-2.8683564593	 0.3344209124	-0.054798
C	 0.5030483884	-2.2777963144	 1.6720282072	-0.10968
O	 0.8182231786	-0.8996938329	 1.8060122293	-0.250217
N	 0.0488934998	-2.9957247926	-0.8242168137	-0.093614
C	-1.3789958439	-2.745886234	-0.7531076876	-0.32485
H	 1.5356640902	 1.5423629095	 1.2003688578	 0.124796
H	 0.0036658246	 2.0227713591	 0.4390880255	 0.113501
H	 0.0460581747	 1.5892663187	 2.1620654114	 0.122143
H	-0.8988426356	-0.2768844793	 0.8630980798	 0.067039
H	 0.0011865523	-0.0826542692	-1.3488717998	 0.102157
H	 1.6440871323	 0.101024927	-0.7565547581	 0.105061
H	 1.8265055535	-2.0770061	-1.5504499103	 0.088599
H	 1.6546548418	-3.6810962555	 0.4112590898	 0.090353
H	-0.5742982121	-2.4341168669	 1.8473975111	 0.091622
H	 1.0408861592	-2.7812131986	 2.4793133524	 0.109988
H	-1.7474805548	-2.55624635	-1.7667150595	 0.124346
H	-1.8762376058	-3.6487497234	-0.3828408431	 0.124001
H	-1.6970264533	-1.9055083713	-0.1205545861	 0.10464
108.389	155.7946	179.3408	217.6757	240.42	283.4852	307.5188	407.0735	433.7268	474.1311	508.1016	561.4526	716.4594	764.8298	773.0982	798.4645	862.065	915.2699	937.5991	1015.4703	1034.5254	1046.1055	1059.7759	1106.0443	1137.6173	1145.5537	1157.5107	1162.2059	1177.1704	1195.0361	1262.3916	1294.6442	1323.8226	1355.2346	1362.1692	1381.4771	1389.4652	1408.7413	1410.9486	1427.6104	1461.0168	1476.0435	1484.1297	1488.6927	1498.5206	1501.3335	1507.7002	2958.7419	2965.94	3005.0873	3022.6357	3040.8282	3060.4253	3066.631	3088.9283	3095.0023	3104.9392	3114.0398	3121.7963	3122.0573
CC1CC2C(CO1)N2C	C[C@H]1C[C@H]2[C@@H](CO1)N2C	
InChI=1S/C7H13NO/c1-5-3-6-7(4-9-5)8(6)2/h5-7H,3-4H2,1-2H3	InChI=1S/C7H13NO/c1-5-3-6-7(4-9-5)8(6)2/h5-7H,3-4H2,1-2H3/t5-,6-,7+,8?/m0/s1
