17
gdb 54097	2.9748	1.51952	1.18719	1.2747	68.62	-0.2473	-0.0299	0.2174	1050.3795	0.133581	-458.904806	-458.896561	-458.895617	-458.938019	31.492	
C	 0.2789684344	 1.0633767173	 1.1539306069	-0.471585
C	 0.1147862626	 0.0950645454	 0.0035378466	 0.318679
O	 0.9510137622	-0.031287383	-0.8627944131	-0.303044
C	-1.1755366365	-0.7231781374	-0.0027065218	 0.365081
O	-2.1894167115	 0.0466840506	 0.5613183336	-0.494524
C	-1.5780067123	-1.6178243653	-1.219371018	-0.005325
C	-0.465565649	-2.6320712077	-0.8911887372	-0.234493
C	-1.168420025	-2.2474233073	 0.4219391065	-0.02678
O	-2.4768309383	-2.361830263	-0.2766976415	-0.344747
H	 1.2813647202	 1.4915502288	 1.1251634376	 0.135804
H	-0.4741417011	 1.8532152637	 1.0757288746	 0.164343
H	 0.0997024331	 0.5638283496	 2.1115226399	 0.139818
H	-2.9658137095	-0.5350911096	 0.5518929374	 0.290348
H	-2.0005428906	-1.3179406093	-2.1778977372	 0.107016
H	-0.688583804	-3.6470648177	-1.2185774196	 0.115032
H	 0.566192159	-2.3295934065	-1.0512471845	 0.141322
H	-1.0990744039	-2.6792331586	 1.4212114195	 0.103056
43.9404	143.7829	165.1058	229.8534	330.2124	362.9401	388.2181	454.3643	547.173	582.8523	614.3416	617.5156	701.7278	739.1242	805.3908	869.0255	891.0398	907.914	942.389	1011.9791	1029.6442	1030.7042	1063.5575	1122.3475	1134.9722	1167.5326	1195.2447	1205.3835	1212.3176	1271.8668	1279.6664	1378.5812	1414.5254	1456.3245	1465.6049	1484.5686	1805.2029	3048.1733	3102.8551	3112.8667	3116.23	3132.0477	3158.3911	3192.3269	3705.379
CC(=O)C1(O)C2CC1O2	CC(=O)[C@@]1(O)[C@H]2C[C@@H]1O2	
InChI=1S/C6H8O3/c1-3(7)6(8)4-2-5(6)9-4/h4-5,8H,2H2,1H3	InChI=1S/C6H8O3/c1-3(7)6(8)4-2-5(6)9-4/h4-5,8H,2H2,1H3/t4-,5+,6-
