17
gdb 10554	2.83657	1.64043	1.27083	2.023	70.65	-0.239	0.046	0.2849	1004.3863	0.140577	-363.792448	-363.783694	-363.78275	-363.825813	32.038	
O	-0.3018709245	 0.5800584172	-1.1203871489	-0.418505
C	-0.0763165958	 0.2498731962	 0.2486074474	-0.068309
C	-1.2871017926	-0.5386007476	 0.7398155335	-0.280043
C	-1.3477097787	-1.9575552057	 0.1799692558	 0.101861
C	-2.6534568053	-2.4626901194	-0.3504511524	-0.277366
N	-1.5694683737	-2.1378181398	-1.275436737	-0.331545
C	-0.4137053056	-2.8815306205	 0.7803599425	 0.347174
C	 0.3672224382	-3.620731049	 1.3190752751	-0.460916
H	 0.5420542616	 0.7880839703	-1.5302400148	 0.292575
H	 0.8334473303	-0.3543410149	 0.369428359	 0.109423
H	 0.0431121172	 1.1629630219	 0.8513007525	 0.089851
H	-1.2707865503	-0.582069308	 1.833959705	 0.112427
H	-2.1900446734	 0.0097588779	 0.4470584024	 0.107746
H	-2.8854013654	-3.5205047357	-0.2719252193	 0.124717
H	-3.5103903172	-1.7976167561	-0.2695451405	 0.112138
H	-1.6891354626	-1.215420513	-1.6869841842	 0.245803
H	 1.0524436981	-4.289188314	 1.7784050338	 0.192971
56.3807	142.9006	157.2553	197.0598	214.8436	262.7347	341.7098	371.6686	483.368	550.5825	578.9203	607.8205	646.7899	662.929	830.6222	872.5442	910.6609	932.8364	978.7684	995.7713	1037.7632	1078.2692	1109.9079	1146.8016	1184.214	1252.3026	1271.5223	1291.1093	1298.2308	1377.6209	1386.1263	1447.8454	1464.5573	1507.0997	1520.0735	2234.9732	2984.3047	3026.0873	3043.1789	3087.8403	3104.3871	3195.7887	3503.5103	3513.7341	3842.974
OCCC1(CN1)C#C	OCC[C@]1(CN1)C#C	
InChI=1S/C6H9NO/c1-2-6(3-4-8)5-7-6/h1,7-8H,3-5H2	InChI=1S/C6H9NO/c1-2-6(3-4-8)5-7-6/h1,7-8H,3-5H2/t6-/m0/s1
