18
gdb 27152	2.92389	1.34729	0.99402	1.8026	80.99	-0.2058	0.0128	0.2186	1203.9533	0.148828	-401.955291	-401.946984	-401.94604	-401.9888	30.807	
C	-0.3427237831	 1.548382127	 0.1806642414	-0.510233
C	-0.0737193745	 0.0803675883	 0.0527996204	 0.138988
C	 0.1961129282	-0.6307181186	-1.0815233126	 0.300805
O	 0.3797403924	-1.9540120205	-0.7777211789	-0.20189
C	 0.2277022877	-2.0812777767	 0.568703344	-0.022722
C	-0.0461659563	-0.8782048114	 1.1270315911	-0.253355
C	 0.3068426485	-0.2631690557	-2.4986613809	-0.104375
C	 1.2213634859	-1.0022710848	-3.4143155645	-0.23775
N	-0.2339412909	-1.1525976368	-3.552139037	-0.324036
H	 0.4415188214	 2.0522912005	 0.7576905463	 0.131694
H	-0.3984520452	 2.037089848	-0.7953105729	 0.12947
H	-1.2907924628	 1.7341879122	 0.6977033742	 0.131497
H	 0.3413799449	-3.0788302306	 0.9596627643	 0.133697
H	-0.2152999943	-0.6794733776	 2.1745118887	 0.110263
H	 0.1308882481	 0.7911416376	-2.6890593262	 0.095309
H	 1.7085365462	-0.4725666857	-4.2284347942	 0.119009
H	 1.7916862419	-1.8231143181	-2.9899203334	 0.124066
H	-0.5196718578	-2.0275492671	-3.1171841597	 0.239563
62.0762	102.1219	161.8813	175.1325	257.815	278.5331	421.1416	473.9862	604.6988	618.6719	699.2082	713.7634	744.291	814.1356	825.056	877.148	912.0617	967.9289	981.7049	994.8837	1062.0307	1066.3013	1099.9789	1112.1678	1137.026	1174.6221	1186.2377	1263.6301	1275.4479	1277.6537	1304.8634	1388.5513	1419.9967	1443.8316	1482.8402	1496.1698	1502.6551	1555.4177	1668.0041	3029.4149	3078.071	3111.8965	3115.7068	3156.7355	3202.9096	3247.5977	3283.7694	3497.9963
CC1=C(OC=C1)C1CN1	Cc1c(occ1)[C@H]1CN1	
InChI=1S/C7H9NO/c1-5-2-3-9-7(5)6-4-8-6/h2-3,6,8H,4H2,1H3	InChI=1S/C7H9NO/c1-5-2-3-9-7(5)6-4-8-6/h2-3,6,8H,4H2,1H3/t6-/m1/s1
