19
gdb 41385	2.57233	1.99321	1.34348	1.3311	81.06	-0.231	0.0054	0.2364	988.8844	0.161051	-385.846595	-385.839451	-385.838507	-385.878026	29.031	
C	 0.1605192408	 1.5941268331	 0.3606531504	-0.225326
C	 1.4416873594	 1.6589587364	-0.5156991194	-0.302853
C	 1.4248097681	 0.1260110525	-0.5946914668	 0.441199
O	 2.0263172676	-0.5058842721	-1.7670703512	-0.336301
C	 3.0842649741	-1.0959036991	-0.942611193	-0.163981
C	 2.223762201	-0.79702555	 0.2605232059	 0.097079
C	 1.5195142097	-1.4174902087	 1.2016308487	-0.170927
C	 0.0810595142	-0.9096306417	 1.2249874579	-0.266076
C	-0.0162632618	 0.0789359075	 0.0246076433	-0.110646
H	 0.3552196364	 1.7632894203	 1.4226557293	 0.103143
H	-0.6566761276	 2.2482397282	 0.0508933673	 0.103075
H	 1.2433133502	 2.0842360191	-1.5040193627	 0.112483
H	 2.3325961752	 2.13751342	-0.0996939838	 0.098254
H	 3.2651536025	-2.1500792032	-1.1745376618	 0.117569
H	 4.0165391441	-0.5269163243	-1.0431351098	 0.10841
H	 1.8294622688	-2.2862347943	 1.7721565915	 0.0971
H	-0.5915162244	-1.7698286394	 1.1114822822	 0.110046
H	-0.2091511473	-0.4228366965	 2.1651385202	 0.107552
H	-0.8534544111	-0.1296326878	-0.6429102783	 0.080201
99.6318	220.756	237.075	272.1451	393.1908	435.7992	508.9017	608.625	669.9316	730.1344	785.9142	808.9055	827.8027	833.7886	890.7435	923.0963	938.4201	949.2566	955.2313	995.512	1021.8582	1048.78	1082.496	1098.058	1108.883	1136.6993	1178.8029	1188.0002	1208.8283	1241.0421	1252.9088	1273.1858	1289.4549	1308.3657	1316.6566	1355.8406	1474.3504	1480.4012	1496.1895	1513.8146	1732.2075	3016.7857	3023.0056	3042.4214	3052.7484	3066.6609	3082.8766	3097.6556	3104.0265	3123.6959	3191.5839
C1CC23OCC2=CCC13	C1C[C@@]23OC[C]2[CH]C[C@@H]13	
InChI=1S/C8H10O/c1-2-7-5-9-8(7)4-3-6(1)8/h2,6H,1,3-5H2	InChI=1S/C8H10O/c1-2-7-5-9-8(7)4-3-6(1)8/h2,6H,1,3-5H2/t6-,8-/m0/s1
