17
gdb 25703	4.22773	0.79425	0.74196	0.4097	83.15	-0.2167	0.019	0.2357	1575.9956	0.135387	-384.696542	-384.687503	-384.686559	-384.733162	31.472	
C	 0.0392592533	 1.5318312665	 0.172928862	-0.495495
C	 0.0171912865	 0.0780874866	 0.0980467458	 0.051378
C	-0.0030587049	-1.1233511226	 0.0361387081	 0.086413
C	-0.0362237241	-2.5851400361	-0.0353889231	-0.463785
C	-1.4146161743	-3.1568246699	-0.1638445415	 0.380205
C	-2.0404599873	-3.8618085076	-1.1440150034	-0.274153
C	-3.3647628449	-4.1356090702	-0.6655557713	-0.168623
C	-3.4381486842	-3.5747809998	 0.5677743406	-0.018181
O	-2.2592610994	-2.9763893497	 0.8897311561	-0.170609
H	 0.6234970974	 1.9652532054	-0.6464187399	 0.145939
H	-0.9729834539	 1.9467165881	 0.1125405635	 0.149074
H	 0.4822060976	 1.876495391	 1.1139057916	 0.146686
H	 0.5473161177	-2.9321364439	-0.896077183	 0.140724
H	 0.4527845711	-3.0054985381	 0.8546204762	 0.142764
H	-1.6141665127	-4.1487048343	-2.0926598817	 0.107151
H	-4.1478836394	-4.6752705595	-1.1743658867	 0.109525
H	-4.2119963587	-3.5124241561	 1.3147458167	 0.130987
14.3517	39.6116	66.2882	194.8852	207.63	294.3613	327.3929	376.8488	446.9721	615.1136	635.5754	738.6248	746.1297	779.2927	811.5363	847.8902	901.0396	911.8531	959.8668	1034.7119	1053.1206	1054.1997	1106.6295	1159.6646	1179.2111	1200.7687	1239.3885	1278.9142	1339.2704	1414.8761	1419.1879	1454.9622	1478.6989	1479.186	1539.8735	1636.8385	2378.2464	3008.3596	3026.0344	3059.5662	3086.036	3087.0481	3250.1818	3261.678	3285.9847
CC#CCC1=CC=CO1	CC#CCc1ccco1	
InChI=1S/C8H8O/c1-2-3-5-8-6-4-7-9-8/h4,6-7H,5H2,1H3	InChI=1S/C8H8O/c1-2-3-5-8-6-4-7-9-8/h4,6-7H,5H2,1H3
