20
gdb 70620	2.36909	1.88621	1.32436	2.8428	79.04	-0.2224	0.0699	0.2924	1035.1493	0.171376	-403.113737	-403.105633	-403.104689	-403.145934	32.467	
C	-0.2844622466	 1.4221874799	 0.0682216368	-0.505143
C	-0.0187813113	-0.0586502371	 0.0311200681	 0.224925
N	-0.4078114471	-0.9220990309	 1.1775607941	-0.367042
C	 1.0205158247	-0.744857325	 0.8363067	-0.10757
C	 1.5516426402	-1.8833940756	-0.0063801086	-0.092119
O	 0.6041804227	-2.0496366651	-1.0595605607	-0.302166
C	-0.0920405082	-0.8373457368	-1.2571665598	 0.46213
C	-1.2734700997	-0.9099805354	-2.1638877231	-0.326224
C	-0.0114608164	-0.1929210812	-2.6191331555	-0.345822
H	 0.3718058065	 1.9658397247	-0.6179273175	 0.13234
H	-1.3211673213	 1.6478763981	-0.2076885784	 0.129422
H	-0.1164744072	 1.8172889471	 1.075137315	 0.116129
H	-0.6284533446	-0.3211660914	 1.9699727963	 0.223373
H	 1.6822295021	-0.2095672009	 1.5097310698	 0.088884
H	 2.5487327774	-1.6259538722	-0.398334628	 0.089637
H	 1.6167179836	-2.8359098517	 0.5289711281	 0.113091
H	-1.4892725987	-1.8776279069	-2.6020723129	 0.126698
H	-2.1480641292	-0.3155939527	-1.9216020012	 0.112709
H	-0.0348152756	 0.8875369289	-2.7123076167	 0.106375
H	 0.6098091085	-0.7004701556	-3.348382996	 0.120373
102.7822	201.7187	215.589	227.7254	281.8471	367.4979	375.6222	441.4775	479.4329	575.4643	614.4869	715.064	762.3869	810.1161	842.1289	874.9214	894.7409	919.1725	949.9088	961.6566	973.9498	1027.3806	1044.8754	1064.6774	1069.0046	1076.2948	1098.0776	1119.8705	1159.5619	1188.4114	1203.8838	1235.696	1294.6729	1314.9123	1386.2581	1405.4126	1415.807	1444.5853	1449.0535	1488.6174	1497.0397	1504.774	1509.0461	2977.4484	3029.7865	3074.28	3092.2219	3107.1671	3132.2135	3135.6012	3164.7451	3216.2946	3230.5394	3479.6299
CC12NC1COC21CC1	C[C@]12N[C@H]1COC12CC1	
InChI=1S/C7H11NO/c1-6-5(8-6)4-9-7(6)2-3-7/h5,8H,2-4H2,1H3	InChI=1S/C7H11NO/c1-6-5(8-6)4-9-7(6)2-3-7/h5,8H,2-4H2,1H3/t5-,6-/m0/s1
