19
gdb 56004	3.65844	1.00485	0.8833	3.5673	78.38	-0.2334	-0.009	0.2244	1347.1105	0.157807	-423.050296	-423.041178	-423.040234	-423.085376	32.725	
C	 0.1291668395	 0.7709777626	 0.947134901	-0.47984
C	-0.0017588862	-0.0059496058	-0.3443142218	 0.392781
O	 0.8282557273	 0.0356213754	-1.2235541718	-0.311359
C	-1.2253363761	-0.9125962408	-0.476008094	-0.297649
C	-0.844137837	-2.3690429485	-0.1350863347	 0.094931
O	-0.4332151159	-2.4620111238	 1.2349461439	-0.280888
C	-1.2052248717	-3.4434733967	 1.9248906754	-0.11659
C	-2.1895921906	-3.949000707	 0.9090541913	-0.094534
C	-1.9804007287	-3.3476415766	-0.2555849578	-0.098916
H	 1.0609072953	 1.3376779474	 0.9580343727	 0.135261
H	-0.7221005439	 1.4508456556	 1.0698062626	 0.131874
H	 0.098896533	 0.0634951473	 1.7830487747	 0.158501
H	-2.0433806184	-0.5952225336	 0.177558876	 0.101154
H	-1.5586058995	-0.8766904503	-1.5179596312	 0.119618
H	 0.0029260803	-2.646509235	-0.7824453232	 0.105614
H	-0.5457336533	-4.2416712627	 2.3006868168	 0.11079
H	-1.6927515491	-2.9881485409	 2.8005105335	 0.108008
H	-2.9357147944	-4.7012207968	 1.1309526927	 0.110748
H	-2.5188922706	-3.5066178699	-1.1809731962	 0.110496
44.5893	73.4699	98.7556	141.4272	181.179	264.1849	335.4752	399.6355	461.1422	541.0262	596.019	707.88	757.3851	804.4967	808.6306	846.011	922.9516	935.0505	960.3114	970.1662	1019.0173	1044.9916	1058.0685	1078.5962	1105.1004	1127.9237	1172.178	1200.3375	1243.168	1280.2341	1320.7577	1359.2588	1368.4378	1376.8125	1388.4571	1459.8438	1471.5343	1475.5178	1521.4009	1691.1121	1811.4631	2976.4827	2980.7047	2996.7087	3034.4919	3050.5869	3099.9689	3109.4925	3153.5292	3209.4335	3233.7085
CC(=O)CC1OCC=C1	CC(=O)C[C@H]1OCC=C1	
InChI=1S/C7H10O2/c1-6(8)5-7-3-2-4-9-7/h2-3,7H,4-5H2,1H3	InChI=1S/C7H10O2/c1-6(8)5-7-3-2-4-9-7/h2-3,7H,4-5H2,1H3/t7-/m0/s1
