14
gdb 132048	2.35702	1.83722	1.0391	5.1949	68.86	-0.2343	-0.0543	0.18	1060.8257	0.099839	-481.848809	-481.841045	-481.840101	-481.881397	28.462	
C	-0.0312611616	 1.5420119172	 0.0228984577	-0.497826
C	-0.0061751322	 0.0404906292	 0.0005898308	 0.162889
C	-0.1078189842	-0.6674172073	-1.150585247	 0.03386
F	-0.2361450021	-0.0630899671	-2.3307764258	-0.057397
C	-0.0884715488	-2.121425386	-1.2212303551	 0.364033
O	-0.1743030066	-2.7975540771	-2.2076577771	-0.335327
O	 0.0463891148	-2.7482058027	 0.0205739428	-0.220803
C	 0.1481198664	-2.054444218	 1.1700338415	 0.085909
C	 0.1287126643	-0.7113640313	 1.2198297164	-0.245691
H	 0.8915015428	 1.9334804045	 0.4652132177	 0.146001
H	-0.1389594141	 1.9525969686	-0.980851535	 0.153032
H	-0.861888685	 1.9015625927	 0.6402797601	 0.145988
H	 0.2452340166	-2.7087873807	 2.0271718893	 0.146677
H	 0.2142032099	-0.2040088121	 2.1720111436	 0.118655
96.5116	116.8918	181.4952	285.9897	295.6303	320.7953	479.895	508.042	517.4274	556.7748	600.0202	686.2019	766.9944	794.7365	839.3023	926.7373	954.7756	1016.7608	1057.41	1090.8487	1125.2156	1251.6252	1294.4309	1341.3092	1411.1186	1453.9839	1482.826	1488.0121	1610.139	1703.5483	1846.3395	3038.5209	3090.4863	3155.0318	3209.7208	3228.8841
CC1=C(F)C(=O)OC=C1	Cc1c(F)c(=O)occ1	
InChI=1S/C6H5FO2/c1-4-2-3-9-6(8)5(4)7/h2-3H,1H3	InChI=1S/C6H5FO2/c1-4-2-3-9-6(8)5(4)7/h2-3H,1H3
