20
gdb 112253	2.5019	1.11825	0.83834	4.0166	76.32	-0.2426	0.0372	0.2798	1400.4013	0.169945	-440.306924	-440.29693	-440.295986	-440.342454	35.7	
C	-0.1147502713	 1.6757898363	-0.1187132886	-0.390588
C	 0.0608470187	 0.1667194343	 0.0924434182	-0.196349
C	 0.7159377993	-0.4936363	-1.1203074091	-0.178714
C	 0.8693219769	-2.0520149072	-1.2081185515	 0.038116
C	 0.2848990464	-2.9102426113	-0.1016341979	-0.086181
O	 0.3454920205	-4.2538466702	-0.5612833988	-0.428504
N	 0.0513786805	-1.9916560403	-2.4226007939	-0.326328
C	-0.167006417	-0.6380451374	-2.3904502173	 0.439312
O	-0.8114179252	 0.1069954647	-3.0825690479	-0.37236
H	 0.8554712427	 2.1707676116	-0.2372718556	 0.113198
H	-0.7016881613	 1.8702789235	-1.0202589191	 0.15495
H	-0.6227909917	 2.1349251067	 0.7345311129	 0.109471
H	 0.6710981143	-0.0183143697	 0.9855879696	 0.097745
H	-0.9183104953	-0.2881568651	 0.2827637863	 0.103806
H	 1.6583841329	 0.0119686977	-1.3550466548	 0.099869
H	 1.8947397746	-2.386715073	-1.4037487981	 0.091307
H	 0.8717346693	-2.7702747931	 0.8200997928	 0.09258
H	-0.7514770131	-2.606621689	 0.103353927	 0.092906
H	-0.0693780245	-4.8195351365	 0.0963881089	 0.291484
H	-0.2891451169	-2.722569032	-3.0292430832	 0.254279
56.7113	92.8785	113.6789	134.0696	167.1063	242.9105	261.1555	285.3959	317.619	417.4267	451.0812	484.7945	547.1828	701.1476	764.1894	787.0356	823.3705	876.8951	931.387	982.634	1043.7756	1063.4977	1076.1294	1098.2851	1123.541	1158.4606	1186.2724	1193.9464	1228.2818	1261.3757	1280.1517	1295.6712	1336.1838	1376.6182	1380.7762	1391.871	1412.3573	1463.4443	1489.7885	1497.7271	1510.9669	1514.4077	1880.7923	2975.6446	3015.801	3022.9214	3036.2776	3042.6086	3052.9298	3069.5941	3103.1438	3126.4474	3617.2288	3831.5974
CCC1C(CO)NC1=O	CC[C@H]1[C@@H](CO)NC1=O	
InChI=1S/C6H11NO2/c1-2-4-5(3-8)7-6(4)9/h4-5,8H,2-3H2,1H3,(H,7,9)	InChI=1S/C6H11NO2/c1-2-4-5(3-8)7-6(4)9/h4-5,8H,2-3H2,1H3,(H,7,9)/t4-,5+/m0/s1
