13
gdb 15495	3.58084	1.98708	1.28806	3.3822	62.22	-0.2453	-0.0383	0.207	869.5272	0.096147	-398.668608	-398.661919	-398.660975	-398.699663	24.435	
O	-0.0898063251	-0.05662582	-0.0007541094	-0.305603
C	-0.0389337653	 1.1489451225	 0.0080604638	 0.161039
N	 1.1512859676	 1.8617013856	 0.000165071	-0.131333
C	 2.4441248559	 1.290403156	-0.0188238027	 0.001719
C	 3.3859096065	 2.234060645	-0.0225326984	-0.151479
C	 2.7389758005	 3.5932897759	-0.0051409812	-0.40029
C	 1.2409676583	 3.2753985315	 0.0102564559	 0.433056
O	 0.3022239717	 4.0272065737	 0.0258122653	-0.341759
H	-0.9101404872	 1.8210488668	 0.0231327957	 0.130314
H	 2.5176804395	 0.2140816384	-0.0278394794	 0.16361
H	 4.4507497487	 2.0580157146	-0.0361747721	 0.124619
H	 2.9933516689	 4.1960368809	 0.8745521201	 0.158018
H	 2.9727800099	 4.208735459	-0.8817495087	 0.15809
121.7744	177.9216	211.415	278.6977	393.3431	456.8254	590.4102	595.3734	654.1601	729.86	782.562	885.0032	944.8705	961.1503	976.6617	1014.8939	1045.1895	1135.4797	1155.078	1229.0473	1275.0507	1312.4008	1398.9927	1421.7845	1436.2171	1676.929	1802.2647	1853.8208	3037.8853	3046.0524	3077.2888	3248.5859	3276.8774
O=CN1C=CCC1=O	O=CN1C=CCC1=O	
InChI=1S/C5H5NO2/c7-4-6-3-1-2-5(6)8/h1,3-4H,2H2	InChI=1S/C5H5NO2/c7-4-6-3-1-2-5(6)8/h1,3-4H,2H2
