20
gdb 104490	2.61832	1.41417	1.10555	3.329	79.62	-0.241	-0.0239	0.2171	1164.8111	0.170166	-403.114324	-403.105463	-403.104519	-403.147751	33.435	
C	-0.7344127888	 1.3981278317	-0.2586615663	-0.385942
C	-0.0867906043	 0.0380207623	 0.0394175846	-0.291392
C	 0.5286036485	-0.6072701884	-1.1857485058	 0.224073
C	 1.7821976371	 0.050469353	-1.6860177824	 0.143431
O	 2.4005368767	 0.8909319305	-1.0822261552	-0.274793
C	 0.5211978663	-2.0692607527	-1.4959838498	-0.067663
C	-0.7476319654	-2.7702078362	-1.0187226442	-0.267401
C	-1.5164965192	-1.7182292647	-1.8546923189	-0.157359
N	-0.237852984	-1.1033067573	-2.3741484489	-0.182467
H	 0.0062330153	 2.1026954827	-0.6443279382	 0.142692
H	-1.5352054189	 1.3096229523	-0.9998530391	 0.120103
H	-1.164350282	 1.8254972218	 0.6519430516	 0.114254
H	 0.7230345019	 0.1774163031	 0.7631674784	 0.123681
H	-0.8132993012	-0.6292272303	 0.5102785444	 0.100156
H	 2.1068967032	-0.3156117279	-2.6843629895	 0.088508
H	 1.413759872	-2.5785123166	-1.8503551539	 0.099435
H	-0.8394250558	-3.7784309319	-1.4261949819	 0.119543
H	-0.9195135932	-2.8116521237	 0.0599763688	 0.114262
H	-2.0672228543	-2.143760697	-2.6951710383	 0.120875
H	-2.1671309538	-1.020313081	-1.3227786854	 0.116005
96.3525	112.6171	175.6817	208.8473	223.5241	282.6939	314.742	318.43	423.4539	492.0358	552.4622	700.7351	766.299	786.2636	798.0429	821.1053	845.5612	950.2303	969.1827	983.615	1011.5394	1030.2803	1044.2525	1070.8026	1104.6255	1109.2268	1150.5913	1210.9167	1216.9222	1261.4143	1288.632	1301.2609	1332.0987	1362.8349	1381.8187	1407.7343	1430.7458	1473.5829	1488.0798	1495.5845	1509.3202	1512.1142	1821.0242	2900.5561	3042.901	3056.0747	3065.095	3073.7306	3091.8093	3109.4118	3113.7244	3129.551	3131.7225	3142.4639
CCC1(C=O)C2CCN12	CC[C@@]1(C=O)[C@H]2CCN12	
InChI=1S/C7H11NO/c1-2-7(5-9)6-3-4-8(6)7/h5-6H,2-4H2,1H3	InChI=1S/C7H11NO/c1-2-7(5-9)6-3-4-8(6)7/h5-6H,2-4H2,1H3/t6-,7-,8?/m1/s1
