17
gdb 126994	2.7675	1.331	1.00346	3.7135	70.77	-0.2077	0.0265	0.2342	1188.6174	0.136058	-455.144353	-455.135427	-455.134482	-455.17873	32.336	
C	-0.0356950736	 0.9938324069	-1.1063322588	-0.394819
C	 0.0543432359	 0.040716707	 0.0760859744	-0.071263
O	 1.1806589755	-0.8602154404	-0.0277910609	-0.288721
C	 1.0045833637	-1.9293689973	-0.8385549533	 0.278105
C	 1.348203788	-2.125363385	-2.1621575807	 0.168809
O	 1.9067193886	-1.2356812174	-3.0309912461	-0.457837
C	 0.9808110487	-3.4572863325	-2.4391022355	-0.068249
N	 0.4510288182	-4.05228732	-1.3693263954	-0.232629
N	 0.4709808272	-3.1108564555	-0.4094759605	-0.249481
H	 0.8687598652	 1.6064702927	-1.1764025178	 0.123757
H	-0.1654150451	 0.4481731909	-2.0452001264	 0.148886
H	-0.8912967401	 1.6655868177	-0.9821966814	 0.125253
H	 0.2204102146	 0.5875005202	 1.0082955231	 0.11752
H	-0.8661998153	-0.5460244041	 0.1802579447	 0.110215
H	 2.2305427254	-0.486075257	-2.5188569926	 0.298541
H	 1.0814434234	-3.9948025936	-3.3697183442	 0.117512
H	 0.1811998197	-3.3405942326	 0.5259954313	 0.2744
40.2325	83.4961	153.3189	230.4905	251.9337	293.0609	309.8284	364.3573	430.555	480.89	495.9318	645.2524	695.1524	711.2624	746.111	817.6026	863.2256	888.8008	939.7244	1036.9744	1104.941	1119.5652	1161.7839	1194.3874	1244.4972	1278.3567	1286.6794	1323.3129	1391.041	1410.1773	1441.5877	1445.5253	1488.1338	1491.794	1506.5455	1555.2681	1665.2249	3034.274	3039.3023	3093.7235	3110.4215	3126.5245	3252.8938	3671.3047	3807.2021
CCOC1=C(O)C=NN1	CCOc1c(O)cn[nH]1	
InChI=1S/C5H8N2O2/c1-2-9-5-4(8)3-6-7-5/h3,8H,2H2,1H3,(H,6,7)	InChI=1S/C5H8N2O2/c1-2-9-5-4(8)3-6-7-5/h3,8H,2H2,1H3,(H,6,7)
