21
gdb 72489	2.54623	1.77962	1.48294	2.0932	76.37	-0.2493	0.0772	0.3265	1002.7801	0.185319	-424.256565	-424.248992	-424.248048	-424.287983	31.417	
C	-0.0038244136	 1.5016105539	 0.0583783829	-0.461948
C	-0.0036331879	-0.0117036354	-0.0568144592	 0.385625
C	 0.7925325146	-0.5641278686	-1.2717293916	-0.265935
C	 1.4276284754	-1.86438093	-0.718129884	-0.257251
C	 0.8997616118	-1.9125975477	 0.7333819642	 0.188293
O	 0.7165970053	-0.5552747385	 1.0717417969	-0.276615
O	-0.307460464	-2.6333317918	 0.8642954872	-0.257008
C	-1.3353148616	-2.1502366166	 0.0052206243	-0.093857
C	-1.4202295642	-0.6164791759	 0.0174346152	-0.235767
H	 1.0223642516	 1.8772818558	 0.1079903291	 0.12151
H	-0.4983232883	 1.9520805748	-0.8081573874	 0.1149
H	-0.5311800923	 1.8229949596	 0.9612399087	 0.124002
H	 0.1481238739	-0.7411865783	-2.1371392101	 0.100924
H	 1.5583038823	 0.1550186217	-1.5723355206	 0.102858
H	 1.1565552687	-2.7634692916	-1.2761841034	 0.111565
H	 2.5177585072	-1.7977768858	-0.7031772056	 0.108514
H	 1.5869653841	-2.3575799126	 1.4545919307	 0.086244
H	-1.1701891872	-2.511030756	-1.0221842507	 0.091071
H	-2.2657013125	-2.6012397445	 0.3606192472	 0.11094
H	-1.8802331007	-0.2774931507	 0.9513567307	 0.108969
H	-2.0455260825	-0.2721468918	-0.8143790244	 0.092965
173.8981	211.4677	269.3103	278.9787	314.9929	395.4195	418.5636	465.0389	514.8068	587.229	649.5145	756.5015	803.07	814.3285	847.4324	873.8913	889.7789	927.2108	942.6991	989.6086	1003.3835	1027.9468	1034.0667	1064.0581	1108.7443	1128.5771	1175.4221	1209.4523	1236.3659	1257.7244	1269.19	1280.1472	1295.6578	1320.9776	1342.084	1377.8375	1385.3532	1410.496	1418.7858	1469.2137	1482.195	1484.3462	1496.4074	1500.8084	1520.0311	2978.9068	3036.0048	3040.5086	3059.4916	3073.1343	3082.4983	3091.412	3098.5571	3110.3951	3112.7589	3116.2501	3122.7859
CC12CCC(O1)OCC2	C[C@@]12CC[C@@H](O1)OCC2	
InChI=1S/C7H12O2/c1-7-3-2-6(9-7)8-5-4-7/h6H,2-5H2,1H3	InChI=1S/C7H12O2/c1-7-3-2-6(9-7)8-5-4-7/h6H,2-5H2,1H3/t6-,7+/m1/s1
