19
gdb 92283	3.78143	1.37897	1.15529	1.7405	74.34	-0.2193	0.0226	0.2419	1082.6356	0.162539	-419.21641	-419.208897	-419.207953	-419.248629	29.104	
C	-0.4428530187	 1.4562716444	 0.4741638204	-0.329434
N	 0.1367486404	 0.2137811031	-0.0305312119	-0.058333
C	-0.8721599112	-0.7610526485	-0.4524962506	-0.206463
C	-1.2688529554	-1.5620245319	 0.8131984194	 0.077898
O	-1.3489381512	-2.986734499	 0.5683112443	-0.228659
C	-0.3030189461	-3.5267999402	 1.2419477455	 0.107693
N	 0.4534822295	-2.788696915	 1.9425629496	-0.26648
C	-0.0454114889	-1.4174376452	 1.7648612544	-0.016156
C	 0.9361335933	-0.4992256461	 0.9720351811	-0.186811
H	 0.3614010238	 2.143472769	 0.7528109168	 0.125218
H	-1.0275064442	 1.93213025	-0.3188557558	 0.122994
H	-1.1022808598	 1.3366202096	 1.3537212546	 0.094757
H	-1.7139419509	-0.265273789	-0.9404428311	 0.106336
H	-0.4301362162	-1.4646349717	-1.1687171556	 0.114518
H	-2.2256552739	-1.2534739251	 1.2373982976	 0.095249
H	-0.1998082595	-4.5995029431	 1.1193794085	 0.140218
H	-0.2948606324	-0.9888956208	 2.7386685993	 0.088336
H	 1.6705553137	-1.137848421	 0.4686720548	 0.112918
H	 1.4790524379	 0.2038684005	 1.6068093486	 0.106202
84.8319	116.2041	222.6637	278.9749	332.1359	388.3761	471.192	566.2441	599.4772	617.4708	734.7083	812.6266	852.3686	899.5322	906.8123	951.5427	957.2607	1018.0509	1026.285	1038.8762	1046.8599	1058.2737	1104.7365	1123.3624	1160.3556	1196.9281	1260.1573	1274.2457	1291.4982	1301.2688	1312.6864	1334.5094	1346.0817	1359.7831	1375.9798	1455.8609	1487.9586	1493.3205	1503.0027	1505.364	1692.2015	2931.8622	3032.864	3043.4639	3065.3743	3069.2932	3092.8953	3106.1645	3114.4058	3116.1506	3213.774
CN1CC2OC=NC2C1	CN1C[C@H]2OC=N[C@H]2C1	
InChI=1S/C6H10N2O/c1-8-2-5-6(3-8)9-4-7-5/h4-6H,2-3H2,1H3	InChI=1S/C6H10N2O/c1-8-2-5-6(3-8)9-4-7-5/h4-6H,2-3H2,1H3/t5-,6+/m0/s1
