19
gdb 122057	2.50424	0.73216	0.58745	2.4574	73.99	-0.2586	-0.0549	0.2036	1820.2421	0.155036	-460.171886	-460.161193	-460.160248	-460.209488	35.849	
O	 0.1867438683	 1.370412294	 0.1842924761	-0.419947
C	 0.1285389253	-0.0451617396	 0.1224490215	-0.073721
C	-1.3398394402	-0.4488491615	 0.0873151015	-0.183779
C	-1.5338088775	-1.9668235765	 0.0221295376	-0.215979
C	-3.0038973993	-2.3796171024	-0.0196513138	-0.173164
C	-3.6979856997	-2.0760790653	-1.3452104582	 0.142891
O	-4.8894245076	-2.133130281	-1.501806096	-0.245395
C	-3.2265101028	-3.8674408507	 0.2775657391	 0.136906
O	-2.3515241475	-4.6305420727	 0.5855364373	-0.229301
H	 1.110920859	 1.6344212309	 0.2109426636	 0.287959
H	 0.6407363445	-0.4287947125	-0.7754513065	 0.08697
H	 0.6179323608	-0.5061854261	 0.9961012209	 0.089706
H	-1.8327159072	-0.0447304813	 0.9802994164	 0.11183
H	-1.8105293613	 0.0434030874	-0.7732770872	 0.1094
H	-1.0265333157	-2.3759217832	-0.8620246743	 0.108488
H	-1.0605616222	-2.4516935239	 0.8816209794	 0.125034
H	-3.5944724483	-1.8543891371	 0.7466473352	 0.133263
H	-3.0102400685	-1.8366530609	-2.1871617073	 0.094927
H	-4.2858633802	-4.1852328274	 0.1858093147	 0.113914
42.1604	77.4463	78.7523	104.4332	124.023	143.4352	217.6948	255.0388	263.4255	324.962	378.389	452.8849	564.56	688.111	748.1898	823.6656	851.9809	887.6908	986.2504	1007.7959	1051.7644	1062.1857	1092.7695	1128.3022	1156.3814	1207.5575	1214.0194	1244.0662	1277.2065	1311.9445	1318.7514	1335.1365	1390.7452	1405.2201	1414.457	1465.5479	1485.8455	1499.5358	1528.666	1806.1593	1844.057	2878.4467	2923.8509	2959.6161	2985.0173	3007.2795	3023.1506	3030.9323	3062.817	3088.6713	3831.7969
OCCCC(C=O)C=O	OCCCC(C=O)C=O	
InChI=1S/C6H10O3/c7-3-1-2-6(4-8)5-9/h4-7H,1-3H2	InChI=1S/C6H10O3/c7-3-1-2-6(4-8)5-9/h4-7H,1-3H2
