22
gdb 104426	3.01586	1.20654	1.08736	1.9067	83.11	-0.2434	0.0298	0.2732	1240.379	0.194748	-404.375123	-404.36589	-404.364946	-404.408755	35.414	
C	 0.1008787391	 1.5501943456	-0.0571956588	-0.39423
C	-0.0317294494	 0.0290769512	 0.0490649419	-0.186074
C	-1.4800153098	-0.5154907409	 0.003731969	 0.281501
C	-2.1908899271	-0.0617596342	-1.284423452	-0.410356
C	-1.4362054462	-2.0564633924	 0.0979353966	-0.257666
C	-2.7930776238	-2.607255943	 0.5135363186	-0.087114
O	-3.2569892093	-1.9878899693	 1.7217369304	-0.224234
C	-2.9385414719	-0.6791681805	 1.8648069418	 0.119328
N	-2.1962906176	 0.0570457308	 1.1551708079	-0.285006
H	 1.1383103309	 1.8551843666	 0.1120121332	 0.105568
H	-0.1906973134	 1.9192660805	-1.0451764601	 0.11002
H	-0.5288381799	 2.0398039711	 0.689616306	 0.139375
H	 0.541116839	-0.4556998726	-0.7528254195	 0.085358
H	 0.4132545603	-0.3038930158	 0.9946873601	 0.094085
H	-1.590327962	-0.3146600264	-2.1651940968	 0.108679
H	-3.1700981358	-0.5383297533	-1.3895538647	 0.108476
H	-2.3549708595	 1.0176999791	-1.2719049144	 0.132341
H	-1.1342100879	-2.5037622888	-0.8554725959	 0.100953
H	-0.6916211483	-2.3514685251	 0.8466100922	 0.106511
H	-3.5476811872	-2.4429542887	-0.2658767756	 0.113699
H	-2.7532684895	-3.6787771187	 0.723775933	 0.117483
H	-3.4328742105	-0.2807794653	 2.749998487	 0.121304
92.6626	109.7515	187.4468	202.9466	238.4428	287.5888	321.4179	333.5454	370.417	405.2248	518.0062	544.5816	593.4954	706.4492	782.6425	788.6351	861.5839	889.2663	918.1192	954.6766	968.773	1007.9852	1019.8578	1034.15	1065.1289	1086.3759	1141.7242	1188.7712	1203.5778	1236.3202	1260.7352	1279.0956	1331.6322	1366.1939	1371.8137	1397.8229	1403.5518	1406.4969	1421.0552	1469.9122	1480.6664	1485.6267	1494.1477	1502.2108	1511.5085	1516.5676	1727.1691	3014.5926	3027.1809	3033.9451	3037.0231	3042.2768	3053.8878	3079.928	3098.6952	3102.9347	3103.9616	3127.3919	3129.2128	3147.7305
CCC1(C)CCOC=N1	CC[C@@]1(C)CCOC=N1	
InChI=1S/C7H13NO/c1-3-7(2)4-5-9-6-8-7/h6H,3-5H2,1-2H3	InChI=1S/C7H13NO/c1-3-7(2)4-5-9-6-8-7/h6H,3-5H2,1-2H3/t7-/m0/s1
