17
gdb 108296	2.70683	1.44752	1.09768	2.2545	69.8	-0.2377	0.0124	0.2501	1107.7602	0.136439	-455.098945	-455.090782	-455.089837	-455.131999	30.772	
O	-0.0169513126	 1.4852915802	-0.0236562445	-0.413201
C	 0.0864888024	 0.080633265	 0.1287844323	-0.158194
C	-1.2669809175	-0.5695369117	 0.0350761883	 0.41959
C	-2.3359711301	-0.422703827	 1.1367478596	-0.221676
N	-2.7623966046	-1.8380783127	 0.9205129642	-0.318489
C	-1.6385867553	-2.0744171554	-0.0285404002	-0.230927
C	-2.0692154179	-1.7566492782	-1.4483089921	 0.479477
N	-2.4813969082	-2.416174806	-2.4275086866	-0.548778
O	-1.8338392351	-0.3900241435	-1.3119282555	-0.318725
H	-0.423546564	 1.6428696522	-0.8838555653	 0.297553
H	 0.7581850814	-0.3651146539	-0.621040412	 0.100216
H	 0.5206271794	-0.0970734039	 1.1179405468	 0.115799
H	-1.8901290417	-0.2287239739	 2.1193225121	 0.109973
H	-3.1209604545	 0.3138248133	 0.9457516716	 0.124765
H	-2.6974902023	-2.4107850071	 1.7526272036	 0.231656
H	-0.978687902	-2.9226151725	 0.150452178	 0.101101
H	-2.6863498176	-1.8155444952	-3.2283114902	 0.229859
72.7572	121.9528	155.9683	234.5349	315.0939	367.9802	391.3967	422.572	431.0238	631.9396	655.0369	702.0841	779.0747	833.8611	869.3915	882.0635	916.0375	965.8851	988.1237	996.4297	1022.0053	1054.925	1074.2561	1116.3022	1146.4764	1158.9411	1227.5427	1245.4873	1280.9137	1292.6148	1358.022	1379.5378	1390.0036	1431.2411	1491.0567	1498.8007	1831.5376	2990.3236	3032.9326	3080.9194	3096.7666	3125.1705	3472.0043	3559.7152	3799.1984
OCC12CNC1C(=N)O2	OC[C@]12CN[C@H]1[C]([NH])O2	
InChI=1S/C5H8N2O2/c6-4-3-5(2-8,9-4)1-7-3/h3,6-8H,1-2H2	InChI=1S/C5H8N2O2/c6-4-3-5(2-8,9-4)1-7-3/h3,6-8H,1-2H2/t3-,5+/m0/s1
