14
gdb 123973	3.85711	1.66721	1.17359	2.1823	68.53	-0.213	-0.0087	0.2043	953.2855	0.105796	-429.062491	-429.05577	-429.054826	-429.093919	25.404	
C	 0.0002813323	 1.5115643574	-0.0474611231	-0.272638
N	 1.3623778462	 2.0575347495	 0.0458604056	-0.256668
C	 2.364039407	 1.3022253937	 0.2510628108	 0.084096
N	 2.3708413418	-0.0783548127	 0.4197754279	-0.425546
C	 1.1668174053	-0.7192520847	 0.2150101634	 0.388301
N	 0.9166079315	-2.020529002	 0.1935342862	-0.326426
N	-0.403001516	-2.0349471546	-0.0516583966	-0.099034
N	-1.0019650875	-0.8553184684	-0.1833897264	-0.283164
C	-0.0082674298	 0.0122360789	-0.0148765865	 0.249553
H	-0.5930337228	 1.9334655558	 0.7760217852	 0.130531
H	-0.4612628783	 1.8944559761	-0.9665495113	 0.132439
H	 3.355300655	 1.7489590891	 0.3222910502	 0.120028
H	 3.2357997228	-0.5921156762	 0.4393813359	 0.265041
H	-0.9122782875	-2.8993274219	-0.1199939613	 0.293486
64.8981	247.5672	314.4432	331.0041	393.1657	426.7101	498.4815	545.8043	638.2652	692.3457	750.1824	769.1233	900.3782	940.8965	955.7398	991.5847	1027.7205	1100.4169	1170.3982	1197.798	1241.8163	1248.1154	1319.6333	1391.088	1414.4094	1444.2752	1474.3116	1494.2729	1568.8568	1630.4311	1736.599	3003.4418	3030.414	3138.1387	3656.4745	3689.9052
C1N=CNC2=NNN=C12	C1N=CNc2n[nH]nc12	
InChI=1S/C4H5N5/c1-3-4(6-2-5-1)8-9-7-3/h2H,1H2,(H2,5,6,7,8,9)	InChI=1S/C4H5N5/c1-3-4(6-2-5-1)8-9-7-3/h2H,1H2,(H2,5,6,7,8,9)
