22
gdb 89003	3.48736	0.99154	0.85161	2.7987	83.13	-0.2157	0.0825	0.2982	1427.3852	0.194021	-404.293831	-404.28452	-404.283576	-404.328653	34.371	
C	-0.4467439696	 1.3998986896	 0.274086605	-0.315718
N	 0.0098141226	 0.0237643821	 0.1389403426	-0.070898
C	 1.3965174493	-0.2001763047	-0.2449699826	-0.267379
C	 0.9215466649	-0.5538553839	 1.1249797536	 0.031506
C	 1.4357949771	 0.1750122804	 2.3528343868	-0.245466
C	 0.5305863841	 0.0253212712	 3.5668867836	 0.170571
C	 0.8846192619	 0.8264002593	 4.8403431766	-0.302682
C	-0.5322349399	 1.4136705512	 4.6927778718	-0.059
O	-0.7333703247	 0.7270394548	 3.4402474922	-0.283909
H	 0.3514885753	 2.1228633741	 0.5094830507	 0.088704
H	-0.9009324578	 1.7069784245	-0.6738119044	 0.11391
H	-1.1961030028	 1.4519272463	 1.066765726	 0.147098
H	 1.578467548	-0.9683949822	-0.9930926315	 0.109019
H	 2.0461478397	 0.6724236159	-0.3274068612	 0.098105
H	 0.703820169	-1.6052274655	 1.3203349891	 0.08394
H	 2.4154735306	-0.2470648706	 2.6201622408	 0.103064
H	 1.5964635332	 1.2385709804	 2.1493642145	 0.099026
H	 0.3496125349	-1.0424743312	 3.7615975034	 0.073662
H	 1.0791785045	 0.2436919176	 5.7416816322	 0.110477
H	 1.6915521021	 1.5487250939	 4.6974433429	 0.109242
H	-1.251001613	 1.0867105709	 5.4551193576	 0.101975
H	-0.6063435894	 2.5015935561	 4.5816571904	 0.104754
64.8906	71.3744	112.4243	152.09	201.308	258.4885	331.7494	350.0648	397.9549	468.1242	514.9471	732.3399	749.4845	787.9346	818.0318	878.626	888.4011	931.413	971.5568	1012.5757	1030.8895	1034.1085	1050.7991	1099.213	1115.7187	1124.6818	1134.9675	1159.548	1169.3486	1189.441	1208.3865	1216.8635	1243.5122	1257.0838	1281.7083	1313.9676	1343.2725	1368.7843	1398.3897	1428.9345	1452.8677	1464.1101	1490.1048	1490.8619	1508.3449	1514.9912	1533.131	2966.9008	2987.5344	3012.6065	3015.3414	3056.5989	3066.0872	3073.9638	3074.7658	3076.8361	3092.3671	3131.7721	3131.8645	3160.9752
CN1CC1CC1CCO1	CN1C[C@H]1C[C@H]1CCO1	
InChI=1S/C7H13NO/c1-8-5-6(8)4-7-2-3-9-7/h6-7H,2-5H2,1H3	InChI=1S/C7H13NO/c1-8-5-6(8)4-7-2-3-9-7/h6-7H,2-5H2,1H3/t6-,7-,8?/m1/s1
