21
gdb 124584	3.43724	0.99896	0.93714	2.2376	86.31	-0.2241	0.0321	0.2562	1400.5339	0.182557	-383.308753	-383.298958	-383.298014	-383.345224	35.243	
C	-0.0732594108	 1.5899411904	 0.2587141026	-0.387225
C	-0.0541050767	 0.0778158347	 0.0086427901	 0.062879
C	 0.8976350292	-0.6595081707	 0.9575092094	-0.38636
N	-1.4030788281	-0.4852588934	 0.0713413744	 0.044769
C	-2.2618336267	-0.5113729912	 1.1236972301	-0.128768
C	-3.4135871964	-1.1521279423	 0.7076139398	 0.185437
C	-4.6527463415	-1.4278444697	 1.5037136574	-0.505231
C	-3.1389243194	-1.4792225951	-0.6392855218	-0.080852
N	-1.928409317	-1.0770815627	-1.0196213552	-0.264404
H	 0.9287551521	 2.0065612414	 0.1188277223	 0.120285
H	-0.7559470845	 2.0888623248	-0.4339989512	 0.133488
H	-0.3911047393	 1.82067074	 1.2809584866	 0.117957
H	 0.2528340806	-0.1102722968	-1.0230235426	 0.11294
H	 0.6088994963	-0.5120928111	 2.0034833927	 0.117898
H	 0.897335512	-1.732604057	 0.7493779488	 0.133753
H	 1.9176003454	-0.2826125793	 0.835626805	 0.119944
H	-2.003002819	-0.0812443589	 2.0788606055	 0.123629
H	-5.5358650466	-0.9550101424	 1.0590335571	 0.128355
H	-4.8634381287	-2.5013377258	 1.5702177967	 0.128336
H	-4.5576235444	-1.0487598032	 2.525311169	 0.119664
H	-3.7767102062	-1.9916519318	-1.3460115166	 0.103507
14.4764	56.4165	99.8038	178.9722	222.1365	254.0775	264.4999	315.2671	349.6774	421.029	501.2208	599.672	647.4951	679.0967	709.7977	790.2135	868.7158	893.8684	933.5702	950.0705	997.9209	1002.3586	1032.4974	1065.1457	1103.0879	1146.1206	1158.3116	1201.3	1218.115	1287.0187	1354.7537	1383.3571	1391.7558	1400.4713	1415.0553	1420.1743	1426.1025	1466.282	1484.5544	1485.6913	1487.5112	1500.004	1506.2859	1509.2491	1612.3022	3027.7878	3037.1891	3041.1835	3076.8661	3084.5811	3104.5982	3105.4553	3116.9417	3122.5277	3125.004	3233.8094	3251.9345
CC(C)N1C=C(C)C=N1	CC(C)n1cc(C)cn1	
InChI=1S/C7H12N2/c1-6(2)9-5-7(3)4-8-9/h4-6H,1-3H3	InChI=1S/C7H12N2/c1-6(2)9-5-7(3)4-8-9/h4-6H,1-3H3
