19
gdb 88380	2.13726	1.41818	1.18572	4.6094	75.62	-0.2636	0.0276	0.2912	1165.9293	0.157176	-419.192463	-419.182422	-419.181478	-419.2274	36.562	
C	-1.6307088657	-1.1311223092	 2.6956867874	-0.450395
C	-0.7197602453	-1.2502458968	 1.5023595044	 0.064858
O	-0.5802553277	-0.1226526881	 0.6163957143	-0.263194
C	 0.5834056397	-0.5955900204	 1.2814289808	 0.054039
C	 1.3771826114	 0.3925524085	 2.1465809078	 0.023297
C	 2.3780844997	-0.3836662072	 3.0231639424	-0.400157
N	 2.1275007661	 1.340484891	 1.3015113169	-0.518114
C	 0.5188498106	 1.221365134	 3.015689601	 0.330168
N	-0.1158809991	 1.8843133763	 3.7166576731	-0.349487
H	-1.5230491782	-0.182664239	 3.2181254193	 0.171756
H	-2.6708615245	-1.2284862104	 2.3677214996	 0.133388
H	-1.4289435817	-1.9486948318	 3.3967314872	 0.123187
H	-0.8431076637	-2.1894729936	 0.9567211807	 0.094135
H	 1.2817721228	-1.129118326	 0.6271281005	 0.084916
H	 3.0104187	-1.0121676359	 2.3872150456	 0.121309
H	 3.0157434413	 0.3164840556	 3.5655665699	 0.153512
H	 1.8578315413	-1.027290197	 3.7357612379	 0.140228
H	 2.7888835817	 0.8190738847	 0.7312910532	 0.233074
H	 1.4845498315	 1.7993965653	 0.660678108	 0.253481
41.0702	141.4971	152.9938	194.9692	203.706	230.0286	240.1966	294.5146	331.206	360.0776	398.894	449.1903	519.1842	602.4668	644.6498	688.3673	780.789	845.3045	883.2479	931.4474	972.6815	1002.5069	1037.7006	1045.7734	1097.7313	1159.116	1179.3061	1186.0529	1230.4608	1307.0275	1343.5373	1398.3566	1407.7536	1424.6089	1464.6692	1485.8919	1493.2332	1498.9667	1509.9	1653.2913	2363.9973	3040.6813	3042.6149	3048.1135	3075.0049	3098.1627	3122.026	3149.1177	3178.2466	3478.1478	3563.7073
CC1OC1C(C)(N)C#N	C[C@H]1O[C@H]1[C@@](C)(N)C#N	
InChI=1S/C6H10N2O/c1-4-5(9-4)6(2,8)3-7/h4-5H,8H2,1-2H3	InChI=1S/C6H10N2O/c1-4-5(9-4)6(2,8)3-7/h4-5H,8H2,1-2H3/t4-,5-,6+/m1/s1
