21
gdb 93586	4.21841	0.89638	0.81774	2.2042	87.06	-0.2243	0.0186	0.2429	1463.6609	0.183551	-387.091743	-387.082978	-387.082034	-387.125628	33.758	
O	 0.2583795947	 1.3350053821	 0.3090850596	-0.436201
C	 0.0868102174	-0.0640213433	 0.10632109	 0.126943
C	-1.3926891701	-0.5004126414	-0.0639666513	-0.243609
C	-1.3779429378	-1.6285147009	-1.1199555358	-0.324678
C	-0.0506234069	-1.4327262255	-1.8333713284	 0.372161
C	 0.7368714587	-0.5973845835	-1.1453877834	-0.267412
C	 0.3127085346	-2.1281541139	-3.0821410112	-0.091982
C	-0.223588736	-3.5106861971	-3.4110034435	-0.269543
C	-0.6917072378	-2.328870436	-4.2062509045	-0.271733
H	-0.0068944536	 1.7718667004	-0.5083251653	 0.269355
H	 0.5315833213	-0.5113391819	 1.005374456	 0.088268
H	-1.8612333868	-0.7955953853	 0.8778689318	 0.100255
H	-1.9506379222	 0.3625588756	-0.4447149747	 0.096668
H	-1.4060679412	-2.6177003394	-0.6432286472	 0.111697
H	-2.2417041373	-1.5907111097	-1.7937176183	 0.102137
H	 1.7547362235	-0.3329965174	-1.4130856113	 0.085958
H	 1.3307286325	-1.9375176438	-3.4084310741	 0.083534
H	 0.4582074787	-4.2147363773	-3.8745932515	 0.116159
H	-0.9205388429	-3.9604862469	-2.7129416097	 0.11801
H	-1.7060219328	-1.9789286778	-4.0520839067	 0.117251
H	-0.329785436	-2.2073712969	-5.2209964906	 0.116762
58.771	102.1314	135.4527	185.0267	268.9812	334.1122	353.3853	427.1515	520.2548	538.3438	573.9055	627.1189	785.53	823.2152	832.2299	847.6623	861.0989	875.3806	920.2783	936.0478	979.8205	1011.2126	1031.8417	1057.6683	1076.4471	1078.5216	1085.9276	1134.9144	1156.7381	1185.8901	1201.1336	1222.8576	1248.6086	1255.9262	1285.7598	1307.1804	1326.9534	1364.327	1396.1095	1428.482	1468.7381	1482.7248	1498.4995	1501.3446	1699.9741	3014.349	3014.9855	3040.6229	3055.3347	3103.0674	3136.7193	3140.2565	3149.5921	3183.9889	3215.3473	3230.7226	3790.7666
OC1CCC(=C1)C1CC1	O[C@H]1CCC(=C1)C1CC1	
InChI=1S/C8H12O/c9-8-4-3-7(5-8)6-1-2-6/h5-6,8-9H,1-4H2	InChI=1S/C8H12O/c9-8-4-3-7(5-8)6-1-2-6/h5-6,8-9H,1-4H2/t8-/m0/s1
