18
gdb 9293	3.70826	0.87405	0.74451	2.9948	65.74	-0.2474	-0.0183	0.2291	1466.3784	0.15074	-422.076107	-422.066402	-422.065458	-422.111641	33.415	
O	 0.3741928113	 0.4980462055	 0.8980177139	-0.406997
C	-0.1419173493	 0.2930880334	-0.4058168463	-0.096875
C	-1.4946912789	-0.4345129106	-0.4133442616	 0.094919
O	-2.0010576487	-0.5162579765	-1.7407064041	-0.424646
C	-1.4183931646	-1.8055602569	 0.2653158886	-0.206262
C	-2.7909669412	-2.4874117633	 0.3753723421	-0.273622
C	-2.6788472778	-3.9259356291	 0.8178010612	 0.15917
O	-3.2508557594	-4.4114827767	 1.7592385818	-0.238574
H	-0.1660573995	 1.1671707698	 1.3304234451	 0.289304
H	-0.2461322384	 1.2337022112	-0.9648716949	 0.103255
H	 0.6032047106	-0.3198819004	-0.9302699842	 0.101144
H	-2.2251977825	 0.1884667452	 0.1216100458	 0.085127
H	-1.3805993264	-1.0396137716	-2.2614529331	 0.281767
H	-0.7315190897	-2.4414608652	-0.3144098965	 0.088456
H	-0.9638292251	-1.6812242816	 1.2532872547	 0.128672
H	-3.4517476008	-1.9579585732	 1.0681499062	 0.119063
H	-3.2587575008	-2.4757453772	-0.619167287	 0.131012
H	-1.9961336287	-4.5435287428	 0.1850756081	 0.065086
51.912	72.1512	108.6688	133.517	165.0686	228.1329	301.1655	313.5584	328.4293	428.711	444.9079	515.5492	542.8753	767.892	820.8072	884.7548	969.6629	1013.2796	1037.7385	1070.9881	1089.4135	1114.5577	1127.3977	1176.7604	1186.9325	1253.6983	1285.8438	1329.2056	1345.1232	1379.9955	1391.1354	1415.2475	1420.0508	1431.4916	1465.5387	1491.2598	1501.982	1836.9407	2839.1111	2994.9899	3003.171	3017.1696	3022.9709	3054.8516	3083.2257	3101.1183	3790.4992	3817.8233
OCC(O)CCC=O	OC[C@@H](O)CCC=O	
InChI=1S/C5H10O3/c6-3-1-2-5(8)4-7/h3,5,7-8H,1-2,4H2	InChI=1S/C5H10O3/c6-3-1-2-5(8)4-7/h3,5,7-8H,1-2,4H2/t5-/m0/s1
