18
gdb 77439	2.35502	1.53847	1.23058	3.3648	74.57	-0.2436	0.0238	0.2674	1092.2536	0.145237	-439.063095	-439.053777	-439.052833	-439.096652	34.566	
C	 0.0407672201	 1.508531347	-0.0474158114	-0.503247
C	 0.0562940126	 0.0255460477	 0.0749191178	 0.368183
O	 0.5333902057	-0.7660465057	-1.0533903062	-0.30844
C	 1.1873476545	-1.6329085926	-0.1754949028	 0.394515
N	 1.9681012732	-2.5851899509	-0.4081830379	-0.561464
C	 0.6758014664	-0.9647656031	 1.0573135825	 0.099639
C	 1.3737473407	-0.8498445398	 2.3781731792	-0.501261
C	-0.848953967	-0.8614745844	 0.8758463539	-0.025646
O	-1.4726985596	-0.3009719774	 1.9899776789	-0.415946
H	 1.0417969377	 1.9028673912	-0.245286096	 0.139114
H	-0.6178775176	 1.8227765915	-0.8650863396	 0.13498
H	-0.3299654946	 1.9460555843	 0.8833169343	 0.138216
H	 2.1016806836	-2.7172976449	-1.4121576696	 0.228107
H	 2.350250258	-0.3683140116	 2.2698967254	 0.127839
H	 0.7697952261	-0.2738955858	 3.0818540608	 0.14143
H	 1.5386255856	-1.8451333804	 2.80318998	 0.142723
H	-1.3923283456	-1.6650352297	 0.3755736351	 0.103102
H	-2.2874449797	 0.1212796446	 1.6973349357	 0.298154
133.7896	148.539	154.7171	182.2998	210.8176	240.0152	267.5517	299.5571	343.8679	431.5534	520.4041	551.3836	628.281	655.8093	695.1897	769.7304	858.5231	864.1935	883.8505	957.611	973.538	1054.8786	1087.0032	1110.5333	1132.1929	1159.223	1199.3616	1231.3243	1266.404	1357.5012	1362.5191	1411.2657	1419.0981	1470.6995	1479.4184	1490.2052	1493.6011	1505.7452	1829.6728	3035.3839	3044.3632	3086.9034	3100.1194	3104.3093	3125.0384	3137.1066	3477.9285	3808.8124
CC12OC(=N)C1(C)C2O	C[C@@]12O[C]([NH])[C@]1(C)[C@H]2O	
InChI=1S/C6H9NO2/c1-5-3(8)6(5,2)9-4(5)7/h3,7-8H,1-2H3	InChI=1S/C6H9NO2/c1-5-3(8)6(5,2)9-4(5)7/h3,7-8H,1-2H3/t3-,5+,6+/m1/s1
