23
gdb 92530	2.20407	1.66485	1.35929	1.7027	83.6	-0.2526	0.0594	0.312	1102.0311	0.207333	-388.295403	-388.286566	-388.285622	-388.328416	35.013	
C	-0.1746059573	 1.5694810885	 0.0855038725	-0.403755
C	 0.0649736007	 0.061203114	 0.0563082497	-0.001369
C	 0.7587403556	-0.4990123976	-1.2041464834	-0.012315
C	 2.1150499662	 0.129662338	-1.6535848776	-0.244797
C	 2.8623691622	-1.1688732896	-1.2286996775	-0.241103
C	 1.5196982975	-1.7955001503	-0.7469998439	-0.002381
C	 1.3015930064	-1.9035262755	 0.7742660275	-0.259869
C	 0.8880399468	-0.4943723171	 1.2479422631	 0.115711
O	 1.9941410505	 0.3269381341	 1.6187312208	-0.436969
H	 0.7662091013	 2.1244281784	 0.1142599177	 0.122371
H	-0.7397719098	 1.8949020494	-0.7942176117	 0.105635
H	-0.7450519717	 1.8563818035	 0.9750328223	 0.113302
H	-0.9119519828	-0.4408379917	 0.1137857572	 0.070107
H	 0.0498868937	-0.6193343366	-2.0265584988	 0.061542
H	 2.1735093917	 0.3446653908	-2.7230491477	 0.100816
H	 2.4068640937	 1.0426597048	-1.1273166356	 0.098
H	 3.3275705006	-1.7010015372	-2.0619068366	 0.101371
H	 3.6282668928	-1.057496778	-0.4531559563	 0.093312
H	 1.2589177306	-2.7223645714	-1.2617010454	 0.063072
H	 0.4826774515	-2.6024554184	 0.9802759246	 0.097449
H	 2.1805710974	-2.2645718276	 1.317885115	 0.099924
H	 0.2772996107	-0.5376057556	 2.1551033334	 0.077682
H	 2.6453493017	 0.310470075	 0.9121145608	 0.282265
106.8246	144.7017	174.3035	215.5758	242.7171	261.5191	334.6212	390.2729	409.3739	511.5294	598.0821	710.1991	732.782	744.9172	787.6061	828.2334	852.4875	880.9192	914.7933	947.4855	956.4386	983.0972	1002.342	1042.7517	1046.7095	1081.3311	1108.5505	1143.3836	1153.7328	1172.029	1216.6641	1220.5203	1245.5935	1260.4103	1261.142	1275.4753	1287.6531	1321.7402	1331.7393	1346.2364	1358.1468	1367.104	1410.5242	1438.6696	1476.0715	1486.9564	1492.3657	1499.2251	1505.5105	2994.3722	3034.2058	3037.0101	3039.6842	3059.1813	3064.801	3067.7909	3081.286	3084.6562	3091.8336	3097.5422	3110.0979	3120.5052	3844.7236
CC1C2CCC2CC1O	C[C@H]1[C@H]2CC[C@H]2C[C@H]1O	
InChI=1S/C8H14O/c1-5-7-3-2-6(7)4-8(5)9/h5-9H,2-4H2,1H3	InChI=1S/C8H14O/c1-5-7-3-2-6(7)4-8(5)9/h5-9H,2-4H2,1H3/t5-,6-,7+,8+/m0/s1
