17
gdb 10132	3.30004	1.28598	0.9416	0.4647	75.88	-0.249	-0.0217	0.2273	1240.9585	0.138957	-363.832996	-363.823502	-363.822557	-363.867496	32.954	
C	 0.0468533458	 1.4947365437	-0.0903181924	-0.391481
C	 0.0506425512	-0.0184543851	 0.0195708598	-0.034613
O	 0.6252435421	-0.5328589246	-1.1918019595	-0.250916
C	 0.7196816083	-1.876096137	-1.2893272851	 0.276092
N	 0.3235288199	-2.6485893549	-0.3643322985	-0.317534
C	 0.4378012923	-4.0848139973	-0.4974325531	-0.330895
C	 1.3108872515	-2.2589609504	-2.5461761444	 0.285961
C	 1.8010691095	-2.6141303014	-3.5850967145	-0.429873
H	 1.0634470632	 1.8801535496	-0.2086936701	 0.129066
H	-0.5466445313	 1.8223632943	-0.9484834812	 0.129075
H	-0.3849506029	 1.9310304117	 0.8153570495	 0.119618
H	 0.6405665555	-0.3681812519	 0.8736235882	 0.11722
H	-0.9592405119	-0.4254236882	 0.1390702611	 0.117165
H	 0.8845610528	-4.4206346899	-1.4419168951	 0.117586
H	 1.0390958945	-4.4750205685	 0.3320609542	 0.128097
H	-0.5576998605	-4.5339986042	-0.4022236115	 0.128105
H	 2.2352303899	-2.9176347358	-4.5061664775	 0.207328
70.7518	113.3627	115.8822	131.0856	185.5688	246.4566	253.5202	323.693	341.8612	373.4387	524.7133	641.1542	647.8626	660.5844	723.9132	799.186	810.775	916.9372	1055.2976	1093.5064	1134.6844	1151.7322	1161.8078	1182.1996	1285.1949	1289.2193	1394.4615	1420.0398	1443.7541	1485.1822	1489.064	1496.1856	1498.3593	1519.5576	1714.7412	2230.6256	3007.219	3042.9851	3045.9813	3073.5858	3075.8765	3079.0561	3120.1671	3124.9291	3498.8454
CCOC(=NC)C#C	CCOC(=NC)C#C	
InChI=1S/C6H9NO/c1-4-6(7-3)8-5-2/h1H,5H2,2-3H3	InChI=1S/C6H9NO/c1-4-6(7-3)8-5-2/h1H,5H2,2-3H3
