18
gdb 81667	3.72212	1.3023	1.22738	5.2841	71.5	-0.248	0.0491	0.2971	1072.9437	0.149324	-439.119451	-439.111733	-439.110789	-439.151511	30.255	
C	-0.0992432532	 1.5264380434	 0.0297264171	-0.430073
C	 0.017186208	 0.0080087546	-0.016979554	 0.014424
C	 0.8656648932	-0.5998265495	-1.181057673	-0.011915
C	 2.1212722868	-0.4235486208	-0.2771582075	-0.264516
C	 1.1162388188	-0.6245479472	 0.883771093	 0.112775
O	 0.8466553684	-2.0303676381	 1.0536796503	-0.263458
C	 0.6121959236	-2.7713356084	-0.0757136865	 0.449046
O	 0.4710537612	-3.9645297026	-0.0157423446	-0.390446
N	 0.5435854115	-2.0206902596	-1.2256827616	-0.347099
H	 0.8642418406	 2.0325817671	-0.0809129659	 0.120838
H	-0.7542959253	 1.8851929988	-0.7710034994	 0.125934
H	-0.5335684104	 1.848127193	 0.9820289806	 0.128667
H	-0.9680934303	-0.4520350664	 0.0982190018	 0.092324
H	 0.824321674	-0.167564042	-2.1813783024	 0.079544
H	 2.9256272599	-1.154012884	-0.3799900971	 0.116651
H	 2.5239545061	 0.5890677943	-0.2971575652	 0.116654
H	 1.3178589672	-0.2346623772	 1.8815725223	 0.09105
H	 0.56032081	-2.5397117853	-2.0875146677	 0.259599
90.9657	185.0313	238.112	252.805	347.3537	356.3298	440.7499	454.2489	495.1677	557.3563	676.8424	767.6634	804.1422	835.8306	864.3331	872.7757	877.6173	969.5055	996.8836	1045.5604	1067.6148	1091.9116	1097.7136	1123.3073	1140.3813	1160.9812	1222.5421	1234.821	1271.4382	1274.3458	1327.6383	1380.8264	1393.1847	1412.6161	1435.2082	1483.111	1497.1358	1501.676	1861.8123	3036.107	3070.5423	3084.0551	3100.3446	3109.056	3109.9766	3116.1951	3150.0527	3661.8736
CC1C2CC1OC(=O)N2	C[C@H]1[C@H]2C[C@@H]1OC(=O)N2	
InChI=1S/C6H9NO2/c1-3-4-2-5(3)9-6(8)7-4/h3-5H,2H2,1H3,(H,7,8)	InChI=1S/C6H9NO2/c1-3-4-2-5(3)9-6(8)7-4/h3-5H,2H2,1H3,(H,7,8)/t3-,4+,5-/m0/s1
