21
gdb 105116	3.38279	1.08641	0.93636	1.8942	77.84	-0.2607	0.0818	0.3425	1314.6283	0.182703	-424.19223	-424.183338	-424.182394	-424.226016	33.95	
O	 0.1076895508	 1.4625190872	 0.3059222544	-0.420403
C	 0.0431288232	 0.0729572395	 0.5340400336	-0.13101
C	-1.302758108	-0.5168551967	 0.1252719493	 0.342324
C	-2.5033791622	 0.3170029868	 0.249864077	-0.229274
O	-1.8610843245	 0.1438899197	-1.0287920177	-0.286037
C	-1.3862075526	-2.0226426931	 0.1250353228	-0.038357
C	-2.6631786322	-2.7195971216	-0.4212311458	-0.240512
C	-1.7523235939	-3.7850751334	-1.0876852226	-0.221423
C	-0.5584159165	-2.8053640769	-0.9412160515	-0.226605
H	-0.2800419592	 1.5952108403	-0.5699286661	 0.291203
H	 0.8408234784	-0.4615174612	-0.0083531822	 0.096649
H	 0.2094552414	-0.0936339736	 1.6046467432	 0.113419
H	-3.4802759248	-0.1542039734	 0.3347082358	 0.116749
H	-2.4146854107	 1.3150288148	 0.6713928505	 0.128525
H	-1.1476799664	-2.3863961189	 1.1317093644	 0.074906
H	-3.4067562931	-3.0601239626	 0.303085109	 0.094306
H	-3.1502163312	-2.0883156735	-1.1692493027	 0.120478
H	-1.6311035786	-4.6688468947	-0.4547106629	 0.102097
H	-2.0152088	-4.1135134868	-2.0954451639	 0.100925
H	-0.4212916555	-2.20135062	-1.8429255766	 0.114403
H	 0.4077735654	-3.2157707216	-0.6390893978	 0.097637
77.4231	106.3314	142.0589	177.4624	261.6656	276.2053	354.8433	381.3618	459.3057	508.2551	570.1913	652.256	718.7201	786.9518	802.1958	857.8348	894.9203	918.2779	937.9459	955.3187	965.611	1020.3826	1044.0358	1055.3849	1106.5704	1125.8943	1139.154	1179.8484	1194.435	1209.1977	1237.4501	1252.0025	1258.0829	1265.7753	1284.9669	1287.9581	1355.8001	1377.6639	1414.3753	1441.903	1476.9451	1487.7298	1505.0284	1509.3348	1521.0065	2968.811	3035.2992	3056.6913	3058.4847	3061.239	3064.2796	3101.8553	3103.1349	3114.0076	3125.9797	3195.4749	3756.0529
OCC1(CO1)C1CCC1	OC[C@]1(CO1)C1CCC1	
InChI=1S/C7H12O2/c8-4-7(5-9-7)6-2-1-3-6/h6,8H,1-5H2	InChI=1S/C7H12O2/c8-4-7(5-9-7)6-2-1-3-6/h6,8H,1-5H2/t7-/m0/s1
