15
gdb 31472	3.97529	1.00224	0.80772	1.4776	76.76	-0.233	-0.0184	0.2147	1353.8103	0.112858	-416.801553	-416.79309	-416.792146	-416.835286	30.65	
N	 0.2247399762	 1.2134057787	-0.6429669775	-0.48545
C	-0.2143597782	 0.343336607	 0.436131493	-0.287333
C	-1.4994932383	-0.3925211208	 0.1743592076	 0.385323
N	-2.2475943576	-0.345620176	-0.8774319263	-0.358443
C	-3.3111997576	-1.2170097681	-0.5978136658	 0.106333
C	-3.1179792859	-1.7411694512	 0.6427953002	-0.122561
O	-1.9647503841	-1.2242646661	 1.1492886859	-0.169025
C	-4.3709362303	-1.4608137921	-1.5008208692	 0.230915
C	-5.2763343587	-1.6732241685	-2.2645244021	-0.410959
H	 0.319295122	 0.6650980906	-1.493787999	 0.241227
H	-0.510611621	 1.8846968925	-0.8481611199	 0.241207
H	 0.5713847918	-0.3914969568	 0.6534943944	 0.13877
H	-0.3297608773	 0.9328453806	 1.3547025591	 0.138762
H	-3.6611683444	-2.4361621165	 1.2586323948	 0.157836
H	-6.0732515566	-1.8578721333	-2.9409788653	 0.193397
55.2055	120.4726	131.8905	212.8288	221.4915	295.2547	434.2338	464.6695	528.6173	572.4441	574.5837	653.3171	665.8146	709.7978	740.9296	784.124	912.3374	931.8852	979.84	1004.57	1130.7279	1148.2685	1188.2307	1191.5042	1256.1419	1296.645	1390.6043	1392.3646	1471.6716	1590.9624	1621.1371	1679.0728	2241.6994	3027.473	3057.7357	3299.3115	3493.3762	3507.4062	3560.427
NCC1=NC(=CO1)C#C	NCc1nc(co1)C#C	
InChI=1S/C6H6N2O/c1-2-5-4-9-6(3-7)8-5/h1,4H,3,7H2	InChI=1S/C6H6N2O/c1-2-5-4-9-6(3-7)8-5/h1,4H,3,7H2
