17
gdb 22610	2.24896	1.60818	1.04082	3.0763	73.24	-0.2328	0.0014	0.2342	1142.9001	0.134597	-455.050058	-455.041259	-455.040315	-455.083335	33.173	
C	-0.0931875615	 1.5113283151	 0.0025397937	-0.510838
C	 0.1272574563	 0.0338418932	-0.055858072	 0.245316
N	-0.7473614866	-0.9410058229	 0.687911602	-0.390443
C	 0.7113354336	-0.9452218184	 0.925421611	-0.145968
C	 1.2656094051	-1.8383276291	-0.2084962156	 0.056152
O	 0.7928729962	-3.1487098898	-0.2685285941	-0.4283
C	 0.6975202767	-0.7690178004	-1.1784524928	 0.373039
N	 0.8051126009	-0.4708948404	-2.4036946243	-0.26914
O	 1.527017847	-1.4466923521	-3.109649225	-0.383198
H	 0.783527788	 2.0452988241	-0.3757797353	 0.14036
H	-0.9508788333	 1.8027878759	-0.6126261683	 0.143487
H	-0.2822596214	 1.8415031181	 1.0294236107	 0.118399
H	-1.1839565748	-0.4197767855	 1.4483971538	 0.234125
H	 1.1286553529	-0.7679047633	 1.9087888791	 0.10394
H	 2.3573998295	-1.871336145	-0.2547443241	 0.111488
H	-0.1623735264	-3.0857496271	-0.1296555862	 0.294441
H	 1.5330755178	-1.0877089422	-4.0034907925	 0.30714
92.971	152.2166	178.7671	205.3595	226.9607	282.2323	338.1352	382.6157	443.6826	500.9959	530.0619	562.9836	633.6268	670.251	754.9214	814.8612	832.2121	910.5576	960.1142	978.9007	1004.466	1045.8799	1075.6587	1096.2982	1107.0826	1155.9523	1204.0704	1271.5744	1295.5811	1339.5409	1384.6601	1416.0634	1440.1572	1461.4759	1479.2433	1498.5697	1784.4358	3034.3688	3089.174	3100.3315	3110.5309	3196.3393	3469.191	3751.9443	3816.4482
CC12NC1C(O)C2=NO	C[C@]12N[C@H]1[C@@H](O)C2=NO	
InChI=1S/C5H8N2O2/c1-5-3(6-5)2(8)4(5)7-9/h2-3,6,8-9H,1H3	InChI=1S/C5H8N2O2/c1-5-3(6-5)2(8)4(5)7-9/h2-3,6,8-9H,1H3/t2-,3+,5+/m1/s1
