21
gdb 121183	2.75768	0.89979	0.72088	4.4012	84.88	-0.2376	0.0159	0.2535	1614.5355	0.182386	-383.265714	-383.256006	-383.255062	-383.301084	34.88	
C	-0.1557324263	 1.5581156558	 0.0187023205	-0.380985
C	-0.0276273593	 0.0337455974	-0.0355307212	-0.179816
C	 0.828720559	-0.440439086	-1.2104114264	-0.133423
N	 0.9220388416	-1.8879773852	-1.2605180948	-0.064066
C	 1.7315679906	-2.6102069047	-0.2552713607	-0.168024
C	 2.1690922219	-3.5982273901	-1.3619782172	-0.253294
C	 1.6962211032	-2.4988658421	-2.3557638683	-0.110841
C	 0.9237819157	-2.8939779903	-3.5336404499	 0.291965
N	 0.3210290311	-3.2139332406	-4.4664518336	-0.326198
H	 0.8244009793	 2.0377156592	 0.1169246306	 0.115963
H	-0.6259623941	 1.9489313407	-0.8902956556	 0.11995
H	-0.7663181485	 1.8727273585	 0.8699687432	 0.117752
H	 0.411368281	-0.3313839587	 0.9019487332	 0.099714
H	-1.0167879498	-0.4306023085	-0.1162213257	 0.113474
H	 0.3788194239	-0.1047105155	-2.1534452915	 0.113849
H	 1.8332568074	 0.0263554584	-1.1505812422	 0.073313
H	 2.5773094445	-2.0144275638	 0.1260862857	 0.092429
H	 1.1667135768	-3.0079411306	 0.5920373235	 0.116522
H	 3.221283615	-3.8743547574	-1.4120608615	 0.12178
H	 1.5444893625	-4.4899835795	-1.409524521	 0.137206
H	 2.5433581646	-1.875689317	-2.6889220172	 0.102732
63.9022	81.7003	124.9651	135.673	163.9738	238.2158	254.8171	322.701	366.2143	372.1435	530.2556	580.1789	658.079	759.449	803.6038	829.2357	895.0555	908.633	950.6652	956.2629	1035.8631	1047.7472	1068.1571	1091.4635	1136.8412	1142.846	1195.6897	1218.0706	1221.4765	1252.3542	1262.8645	1279.9289	1318.6872	1334.26	1337.9431	1370.5677	1412.5256	1420.2446	1486.9319	1487.5653	1496.3441	1500.7957	1511.8258	1525.17	2356.6445	2896.4997	2957.8437	2970.6237	3024.6051	3032.4183	3042.8956	3069.3403	3080.8861	3100.215	3102.2184	3108.3431	3163.9144
CCCN1CCC1C#N	CCCN1CC[C@H]1C#N	
InChI=1S/C7H12N2/c1-2-4-9-5-3-7(9)6-8/h7H,2-5H2,1H3	InChI=1S/C7H12N2/c1-2-4-9-5-3-7(9)6-8/h7H,2-5H2,1H3/t7-/m0/s1
