15
gdb 34893	2.39114	1.74531	1.22373	3.216	69.37	-0.262	-0.0032	0.2589	1004.1851	0.1125	-416.738827	-416.731395	-416.730451	-416.770898	28.071	
N	-0.1919554038	-1.2027611278	-0.0929709723	-0.32895
C	-0.1099300299	-0.0508701532	-0.0357233242	 0.302802
C	 0.0376101512	 1.3956317692	 0.0459067882	-0.21876
N	-0.2840426339	 2.0299651768	 1.3865262164	-0.128601
C	 0.708622468	 1.5061932364	 2.3457456245	-0.248978
C	 1.1391107752	 2.5813212931	 1.4281666922	-0.129107
C	 1.4614518765	 1.9968135705	 0.0763434538	 0.450126
C	 2.7145441916	 1.6029312501	-0.5627791656	-0.264702
O	 1.9519185326	 2.7464928637	-1.0020081582	-0.269496
H	-0.5636086211	 1.8801747326	-0.7273100486	 0.154238
H	 0.4754343789	 1.783172119	 3.3685856212	 0.141859
H	 1.0869182223	 0.4944273281	 2.2221401883	 0.142431
H	 1.3518904431	 3.5991446511	 1.733963444	 0.126342
H	 3.6617865601	 1.8342907305	-0.0795764756	 0.130703
H	 2.7257941592	 0.76141197	-1.2526628441	 0.140093
107.402	131.1374	188.5489	293.0739	334.7683	394.1134	478.9888	494.1745	563.8475	635.6611	745.3726	789.1937	817.6143	867.7848	916.7599	968.6324	973.0269	1014.7424	1045.8928	1083.0813	1116.7426	1122.4352	1132.8439	1162.3602	1174.0029	1214.038	1228.1288	1323.6533	1329.2055	1448.771	1502.6827	1538.0632	2352.3753	3092.7759	3094.3462	3117.5101	3187.5039	3188.6812	3211.7242
N#CC1N2CC2C11CO1	N#C[C@H]1N2C[C@H]2[C@]21CO2	
InChI=1S/C6H6N2O/c7-1-4-6(3-9-6)5-2-8(4)5/h4-5H,2-3H2	InChI=1S/C6H6N2O/c7-1-4-6(3-9-6)5-2-8(4)5/h4-5H,2-3H2/t4-,5+,6-,8?/m1/s1
