20
gdb 83928	2.45197	1.44099	1.1974	3.2882	80.13	-0.2315	-0.0201	0.2114	1134.1062	0.171035	-403.145422	-403.136613	-403.135669	-403.17897	32.779	
C	-0.1058499553	 1.5425613276	 0.05914085	-0.326717
N	 0.1210074017	 0.1068969819	 0.1082838471	-0.130791
C	 1.3550871779	-0.5283868678	-0.2825075323	-0.06847
C	 2.663821801	 0.2456119327	-0.3748779758	-0.233999
C	 2.8925496279	 0.9174502865	 1.0057700482	-0.227499
C	 1.9009929377	 0.2574131062	 2.0005426966	-0.29989
C	 0.9026815383	-0.5328947586	 1.1694632193	 0.213764
C	 0.2644558485	-1.7445433701	 1.7515468985	 0.112461
O	 0.5735723473	-2.242300675	 2.8069383424	-0.270438
H	 0.7556729318	 2.1727877301	 0.3127872542	 0.111361
H	-0.4301830761	 1.8025740904	-0.953336036	 0.130765
H	-0.9222651511	 1.7894017503	 0.7444012286	 0.132276
H	 1.2367421586	-1.401155734	-0.9221109469	 0.095811
H	 3.4621832845	-0.467355997	-0.6060893805	 0.11299
H	 2.6505652965	 0.9741270663	-1.1933303441	 0.10958
H	 3.927045709	 0.7946636032	 1.3375863448	 0.108
H	 2.7204791055	 1.9951618287	 0.9443653617	 0.112144
H	 2.398273704	-0.4493660047	 2.6704601619	 0.13191
H	 1.4078844884	 0.9967058373	 2.6406798393	 0.108129
H	-0.5380024762	-2.1685284338	 1.108629203	 0.078612
97.2234	117.2914	140.3806	190.3251	215.8138	251.5192	269.6654	417.9529	485.35	496.2251	660.4191	683.1336	723.6464	743.0686	797.9252	848.9663	904.1724	925.0518	988.3384	1010.5151	1056.0742	1059.102	1088.0356	1110.7013	1146.342	1172.6851	1180.7665	1236.4041	1245.2335	1273.9257	1303.8081	1323.4608	1338.6809	1346.7797	1391.6748	1420.0978	1459.3219	1483.6	1487.7941	1496.4603	1502.1163	1520.222	1812.0808	2896.6626	3020.4485	3040.6912	3050.329	3063.8299	3071.1188	3083.1604	3089.3374	3106.8673	3107.9577	3122.8492
CN1C2CCCC12C=O	CN1[C@H]2CCC[C@@]12C=O	
InChI=1S/C7H11NO/c1-8-6-3-2-4-7(6,8)5-9/h5-6H,2-4H2,1H3	InChI=1S/C7H11NO/c1-8-6-3-2-4-7(6,8)5-9/h5-6H,2-4H2,1H3/t6-,7-,8?/m0/s1
