19
gdb 97984	3.54972	0.56431	0.51446	4.6765	85.99	-0.2509	0.0155	0.2664	2137.5419	0.158174	-382.047105	-382.036502	-382.035558	-382.08825	35.852	
C	 0.0535927585	 0.8239393327	-0.22546839	-0.365071
C	-0.4340027125	-0.0974613312	 0.9075917511	-0.314656
C	 0.610395949	-0.4180241895	 1.8758863531	 0.055074
C	 1.4900532029	-0.651236928	 2.6672019366	 0.066175
C	 2.5619533408	-0.994944909	 3.6097539517	-0.319332
N	 3.017028745	-2.391207689	 3.5673899218	-0.276646
C	 1.9468297485	-3.3405626531	 3.8677423753	-0.262425
C	 2.431082457	-4.7192011267	 3.7712010321	 0.258722
N	 2.8015661313	-5.8088234917	 3.6737366996	-0.299525
H	 0.8700472423	 0.3566530755	-0.7825154689	 0.129103
H	-0.763091726	 1.0348151265	-0.9219459441	 0.118329
H	 0.4185688814	 1.7732236773	 0.1756278235	 0.130181
H	-1.277884737	 0.3735328764	 1.427705045	 0.132853
H	-0.8277613422	-1.0282124677	 0.4796765107	 0.132555
H	 3.4373487192	-0.3619629046	 3.4264846445	 0.141274
H	 2.2390864313	-0.779151982	 4.6366545911	 0.137847
H	 3.3857017974	-2.5922516234	 2.64264211	 0.236648
H	 1.6029617402	-3.1657587036	 4.895106931	 0.154528
H	 1.0625618532	-3.2380231386	 3.216274506	 0.144367
0.7653	43.5922	79.2765	121.5784	148.2468	173.0324	221.5276	301.8682	311.3383	380.6316	394.046	497.0825	521.8728	590.3695	716.7822	784.513	804.1781	903.9468	955.7812	969.0989	998.06	1076.9107	1097.8172	1107.4607	1124.9793	1153.3772	1227.7567	1286.2782	1298.938	1349.3727	1356.8254	1384.2852	1409.5111	1465.4672	1473.8009	1491.8771	1494.913	1501.6281	1505.2235	2353.5608	2368.5849	2968.511	3021.5234	3024.3856	3045.5062	3047.2362	3049.0014	3064.9602	3119.596	3124.5902	3519.0581
CCC#CCNCC#N	CCC#CCNCC#N	
InChI=1S/C7H10N2/c1-2-3-4-6-9-7-5-8/h9H,2,6-7H2,1H3	InChI=1S/C7H10N2/c1-2-3-4-6-9-7-5-8/h9H,2,6-7H2,1H3
