16
gdb 131857	5.90696	0.79849	0.71754	4.5569	68.83	-0.2289	0.011	0.2399	1502.2902	0.125428	-471.199215	-471.19076	-471.189815	-471.233516	29.839	
O	 0.0761149733	 1.3103168187	-0.2806335374	-0.421712
C	-0.0539569325	-0.0670438762	 0.0478103122	-0.091572
C	-1.5424944989	-0.3531604744	 0.1644123559	-0.139753
N	-2.1914423098	-0.0054297811	-1.0890826214	-0.405099
C	-3.4241722128	-0.4246027872	-1.4289666154	 0.565894
N	-4.168835871	 0.0091230141	-2.4195746623	-0.3812
C	-5.2584381346	-0.8069702113	-2.3013152482	 0.053013
N	-5.2380238526	-1.681173361	-1.3338120103	-0.144483
O	-3.9750078721	-1.4211168658	-0.7236185954	-0.222892
H	 0.9915210183	 1.4877099902	-0.5140996961	 0.298346
H	 0.3826147188	-0.7052440214	-0.7336527171	 0.106864
H	 0.4357340102	-0.3040007393	 1.0034449356	 0.103337
H	-1.7026963013	-1.4139876008	 0.3711761983	 0.141527
H	-1.95924365	 0.2205570535	 1.0045004539	 0.125131
H	-1.8858721697	 0.8553578466	-1.5179124479	 0.274313
H	-6.1099321553	-0.7488259945	-2.9653794445	 0.138289
42.2523	95.8101	113.3292	188.92	265.6112	287.1235	308.2786	478.6612	490.4622	582.5928	632.3349	754.4173	772.5561	877.6694	898.4775	929.3734	939.4476	977.1829	1017.7849	1084.7363	1100.4513	1146.3446	1195.6606	1229.5487	1265.8074	1281.7888	1301.03	1359.4095	1386.4742	1456.5909	1459.6288	1501.8718	1514.8681	1575.0927	1681.2744	2992.8506	3005.9355	3035.8541	3108.5944	3248.5606	3630.2915	3841.4579
OCCNC1=NC=NO1	OCCNc1ncno1	
InChI=1S/C4H7N3O2/c8-2-1-5-4-6-3-7-9-4/h3,8H,1-2H2,(H,5,6,7)	InChI=1S/C4H7N3O2/c8-2-1-5-4-6-3-7-9-4/h3,8H,1-2H2,(H,5,6,7)
