16
gdb 37696	3.67149	2.08022	1.5934	1.8977	71.	-0.2497	0.0119	0.2615	824.1887	0.127579	-400.675553	-400.669931	-400.668987	-400.705176	24.312	
C	-0.1102920649	 1.5650952882	 0.0080445387	-0.338919
C	 1.4296443197	 1.25140727	 0.0009942187	-0.096812
C	 1.2571532951	 0.0286179215	 0.9534581793	-0.103038
C	 1.8694716046	-1.0226917508	 0.0008219968	-0.016796
N	 1.1092623662	-2.2804215233	 0.005487213	-0.281013
C	-0.15453894	-2.1814451176	 0.0113696241	 0.099453
O	-0.8871225421	-1.015989958	 0.013891712	-0.278822
C	 0.0166449746	 0.0486593375	 0.0087110732	 0.443396
C	 1.2481316747	 0.027018285	-0.9477307726	-0.10304
H	-0.5102837869	 2.0332170594	 0.9122463079	 0.107296
H	-0.5188553397	 2.0317044324	-0.8931013489	 0.107295
H	 2.2508627467	 1.9635471849	-0.0035024853	 0.08982
H	 1.220592351	 0.0320773682	 2.0423472014	 0.083241
H	 2.9420798699	-1.2184046363	-0.0040996683	 0.074102
H	-0.8087777264	-3.0484378766	 0.0152615753	 0.130595
H	 1.2012403774	 0.0286468754	-2.0362281154	 0.083241
265.1077	366.5364	413.9302	437.5269	549.8546	618.7853	639.3417	757.6599	771.0898	835.9028	867.6281	880.1461	889.8809	911.276	933.6525	948.6172	987.5981	996.0691	1024.4345	1050.732	1097.2974	1120.6882	1130.3076	1137.0783	1147.0567	1178.7065	1191.3903	1225.0208	1232.4831	1305.1799	1310.2736	1343.4447	1391.255	1513.5911	1680.9068	3049.2937	3103.7096	3112.2203	3121.206	3124.6323	3152.9272	3186.0733
C1C2C3C4N=COC13C24	C1[C@H]2[C@@H]3[C@H]4N=CO[C@@]13[C@@H]24	
InChI=1S/C7H7NO/c1-3-4-6-5(3)7(1,4)9-2-8-6/h2-6H,1H2	InChI=1S/C7H7NO/c1-3-4-6-5(3)7(1,4)9-2-8-6/h2-6H,1H2/t3-,4+,5-,6+,7-
