15
gdb 24460	3.66739	1.63964	1.16977	4.5483	66.59	-0.2042	0.0226	0.2268	977.6215	0.11675	-453.971462	-453.964886	-453.963942	-454.002456	25.632	
C	 0.024716816	 1.36972022	 0.0329386543	 0.000364
O	 1.3041932585	 1.9437114725	-0.0074597107	-0.237258
C	 2.0883868923	 1.6601190926	 1.1549882323	-0.191682
C	 1.85910372	 0.2246326033	 1.4902845902	 0.151208
C	 0.9108226219	-0.5393178627	 0.8659699202	 0.348743
O	 0.0410939346	-0.05124383	-0.0529820614	-0.253662
N	 0.9358460723	-1.8370468466	 1.2725097148	-0.327741
C	 1.910489825	-1.8766598828	 2.1597305885	-0.001186
N	 2.5039186219	-0.6596897087	 2.3352532106	-0.346894
H	-0.496737573	 1.6555940966	 0.9612187682	 0.094416
H	-0.511316472	 1.7268805111	-0.8462168224	 0.129472
H	 3.1250010509	 1.8757268581	 0.8709232196	 0.126978
H	 1.8199094485	 2.3452725832	 1.9770233504	 0.105518
H	 2.224413572	-2.7516564913	 2.7076769754	 0.134576
H	 3.2648775811	-0.4541351755	 2.9602492697	 0.267148
125.0543	212.0747	307.6055	390.7455	415.3713	459.6999	485.2713	591.8393	654.0456	726.0884	738.2387	783.1445	789.3747	941.7426	960.8389	1011.6978	1036.2908	1091.9222	1109.2968	1135.6526	1205.1083	1237.1819	1264.3873	1320.0047	1328.3533	1363.9104	1405.4544	1443.7886	1481.6087	1494.2347	1511.4907	1538.2979	1648.0442	2952.1717	2971.4806	3049.0163	3139.1993	3260.3401	3667.3143
C1OCC2=C(O1)N=CN2	C1OCc2c(O1)nc[nH]2	
InChI=1S/C5H6N2O2/c1-4-5(7-2-6-4)9-3-8-1/h2H,1,3H2,(H,6,7)	InChI=1S/C5H6N2O2/c1-4-5(7-2-6-4)9-3-8-1/h2H,1,3H2,(H,6,7)
