15
gdb 129616	3.17763	1.27199	0.97615	1.9765	71.81	-0.207	0.0069	0.2139	1150.7029	0.114851	-413.014816	-413.006453	-413.005509	-413.048453	30.204	
N	-0.0799876072	 1.4268626549	-0.1809463873	-0.623336
C	-0.0197588643	 0.0317441354	-0.0611210533	 0.127759
C	-1.0847228543	-0.8522712945	 0.0101415505	 0.322769
C	-2.565857774	-0.6198425189	-0.0448622476	-0.462074
C	-2.944040817	 0.2491037322	-1.1644631151	 0.274716
N	-3.1997496851	 0.9651021239	-2.0349277027	-0.313568
N	-0.5332487985	-2.0895059753	 0.1936750013	-0.26814
N	 0.8020679758	-2.0701864862	 0.2548657051	-0.221324
C	 1.1235133215	-0.7868287147	 0.0994320155	-0.059449
H	 0.8086300612	 1.8255575212	-0.4539895292	 0.247844
H	-0.7953981009	 1.7421952684	-0.826426932	 0.260757
H	-3.1017472675	-1.5704118236	-0.1472098069	 0.158573
H	-2.9349724536	-0.1526172824	 0.8786154504	 0.17593
H	-1.0143081961	-2.9698107458	 0.2686615912	 0.27171
H	 2.16087884	-0.4845839647	 0.1075956403	 0.107833
42.2466	105.8487	186.9508	246.1142	262.5587	325.275	372.8618	412.862	432.1963	485.8129	651.7633	692.5809	706.9735	754.6273	786.0275	858.3287	921.8567	937.7315	957.3444	1085.8073	1158.4998	1200.5495	1240.4522	1269.1726	1300.5267	1353.5126	1410.9266	1450.0838	1452.9148	1541.486	1645.6802	1665.792	2359.3267	3015.9545	3068.7115	3240.701	3525.4247	3618.7758	3669.5179
NC1=C(CC#N)NN=C1	Nc1c(CC#N)[nH]nc1	
InChI=1S/C5H6N4/c6-2-1-5-4(7)3-8-9-5/h3H,1,7H2,(H,8,9)	InChI=1S/C5H6N4/c6-2-1-5-4(7)3-8-9-5/h3H,1,7H2,(H,8,9)
