20
gdb 62595	3.00806	1.72976	1.67038	1.8008	79.5	-0.2214	0.0756	0.297	940.472	0.171809	-365.960896	-365.953459	-365.952514	-365.992097	30.968	
C	 0.0625941983	 1.5193581333	 0.0063662623	-0.428679
C	-0.0108854236	-0.0136498277	-0.003882232	 0.28032
C	-1.4669554366	-0.5000156796	-0.0419703851	-0.429123
C	 0.8259563659	-0.6365653127	-1.1153147359	-0.09602
C	 2.2802622695	-0.7971232175	-0.6944961905	-0.13091
C	 1.3443359057	-1.9744122514	-0.6667827884	-0.034225
N	 1.2848485118	-1.9869200336	 0.8497233781	-0.171155
C	 2.1965815631	-0.7942295357	 0.8412450614	-0.056893
C	 0.7591395364	-0.6202147574	 1.1603644492	-0.078582
H	 1.1011579152	 1.8635006263	 0.0119768514	 0.118258
H	-0.4301949886	 1.9396201461	-0.8770555812	 0.111405
H	-0.4376426566	 1.9322184743	 0.8892639787	 0.111933
H	-1.9724036683	-0.1502953453	-0.948761456	 0.109326
H	-1.5156005692	-1.5925790909	-0.0241860169	 0.127672
H	-2.0308592708	-0.1206919195	 0.817119807	 0.111046
H	 0.5942214418	-0.4768287331	-2.1617887166	 0.08598
H	 3.1394494464	-0.5862768548	-1.3144631238	 0.092369
H	 1.3165189159	-2.9035390238	-1.2193780693	 0.095463
H	 3.0209614227	-0.7033188454	 1.5386720167	 0.093218
H	 0.4224329209	-0.4886391117	 2.1836500509	 0.088597
174.7048	221.2059	228.8255	246.9932	321.4584	344.7704	539.1745	584.4075	604.2085	695.0947	739.6562	764.5516	782.6701	838.6063	844.9915	883.2794	929.3597	936.5284	942.4793	951.633	973.7132	989.0711	1014.9372	1024.9678	1039.5572	1045.3833	1065.8735	1080.8205	1163.916	1204.6204	1216.4543	1229.2874	1250.2916	1264.7677	1302.3434	1367.5281	1382.8865	1398.2488	1421.4738	1483.7306	1489.1274	1505.1583	1505.9778	3027.0779	3031.6975	3090.4346	3095.017	3106.9116	3111.5706	3165.9579	3179.9535	3187.8429	3202.4364	3221.9215
CC1(C)C2C3C2N2C3C12	CC1(C)[C@H]2[C@@H]3[C@H]2N2[C@@H]3[C@@H]12	
InChI=1S/C8H11N/c1-8(2)4-3-5(4)9-6(3)7(8)9/h3-7H,1-2H3	InChI=1S/C8H11N/c1-8(2)4-3-5(4)9-6(3)7(8)9/h3-7H,1-2H3/t3-,4+,5-,6+,7+,9?/m1/s1
