22
gdb 56151	3.24338	0.77066	0.71735	2.4465	79.32	-0.2445	0.0363	0.2808	1669.4474	0.191001	-441.533306	-441.52204	-441.521095	-441.570306	41.086	
C	-0.2073744933	 1.5342585797	 0.2124744978	-0.389268
C	 0.0298546781	 0.0331459874	 0.0264055417	 0.336467
C	 0.7832057698	-0.5419859886	 1.2338200647	-0.416603
O	-1.2826665442	-0.5436015568	-0.0423987394	-0.456964
C	 0.8076463339	-0.2823260085	-1.2690636119	-0.201858
C	 0.0980054825	 0.1555607609	-2.5528370605	-0.325151
C	 0.5868620827	-0.6198983655	-3.7744747406	 0.407572
N	 0.5150612739	 0.0646553983	-4.9551538447	-0.522344
O	 0.99895902	-1.7631408814	-3.7157096101	-0.361725
H	 0.7425154751	 2.0761117614	 0.2459795114	 0.109465
H	-0.8113706586	 1.9385513175	-0.6037871661	 0.118116
H	-0.7446860865	 1.7161543005	 1.1474357473	 0.119489
H	 0.2149117795	-0.3687213151	 2.1521492859	 0.118932
H	 0.9325910805	-1.6221199007	 1.12005452	 0.106598
H	 1.7707507209	-0.0822128454	 1.3437929502	 0.114114
H	-1.1780317747	-1.4994185175	-0.1093623487	 0.278019
H	 1.8064371243	 0.1669672588	-1.2138695204	 0.094879
H	 0.9636503981	-1.3653117034	-1.3350283757	 0.116711
H	-0.9737253543	-0.0554435257	-2.4439408406	 0.142255
H	 0.1932625999	 1.2327977978	-2.7254213812	 0.096798
H	 0.0745173603	 0.9653049317	-5.0209819005	 0.256231
H	 0.7068688721	-0.4399617053	-5.8053750984	 0.258267
34.7375	56.3087	108.9187	163.6381	209.9069	212.2017	238.9792	259.6197	308.672	323.183	350.9918	401.8775	430.9431	481.7741	507.6387	542.0066	612.5255	671.2179	767.8569	785.4542	873.1469	915.8121	935.7939	947.4741	997.0389	1034.5837	1067.7802	1087.1963	1135.1579	1164.4063	1218.2809	1241.146	1265.5068	1299.7794	1358.8506	1376.6273	1403.5776	1407.1446	1421.4288	1467.6843	1477.2305	1486.7209	1493.1549	1500.0921	1510.788	1617.0597	1794.1063	3026.7301	3030.7264	3036.6106	3045.6089	3065.8862	3084.6062	3095.8945	3113.0354	3119.9038	3122.2047	3599.6206	3736.0127	3796.7906
CC(C)(O)CCC(N)=O	CC(C)(O)CCC(=O)N	
InChI=1S/C6H13NO2/c1-6(2,9)4-3-5(7)8/h9H,3-4H2,1-2H3,(H2,7,8)	InChI=1S/C6H13NO2/c1-6(2,9)4-3-5(7)8/h9H,3-4H2,1-2H3,(H2,7,8)
