17
gdb 43872	5.04367	1.10401	1.06125	2.1943	73.96	-0.2478	0.0229	0.2707	1149.9428	0.136702	-417.956456	-417.949151	-417.948206	-417.988375	28.75	
N	 0.0588241144	 1.1407343608	 0.7324663497	-0.540632
C	-0.033070012	 0.0596158961	 0.1074041418	 0.427546
C	-1.1678463571	-0.8498590291	-0.3071246765	-0.446553
C	-0.046789539	-1.7068616034	-0.926160429	 0.433632
C	 0.3106592871	-3.1720462586	-0.607174743	-0.241318
N	 0.5175412174	-3.4970871031	-2.0659822489	-0.121244
C	-0.7838943699	-3.2390272385	-2.7015048974	-0.242412
C	 0.0765146518	-2.0774067893	-2.3912054225	-0.106439
O	 0.9457808831	-0.7384422715	-0.458061157	-0.280487
H	 1.0311336047	 1.4435276717	 0.811918351	 0.229963
H	-1.7140303033	-1.3062783436	 0.5205264907	 0.139441
H	-1.8747576129	-0.4146443756	-1.0159956595	 0.140877
H	 1.2546159852	-3.2419172735	-0.0639992689	 0.137132
H	-0.4504543016	-3.7877328692	-0.1164041575	 0.109359
H	-0.8267785481	-3.5629324837	-3.7367120116	 0.131905
H	-1.6969993275	-3.4118234244	-2.1341061228	 0.115479
H	 0.5676028675	-1.4717462952	-3.1452067487	 0.113752
86.9388	126.0378	244.4515	365.9499	394.0317	420.6545	479.269	496.419	540.3249	748.0662	773.3332	788.2088	839.408	860.5448	873.1669	896.4402	958.4894	968.2222	996.9252	1016.1168	1050.1816	1076.436	1093.6703	1114.4358	1130.2127	1172.0558	1196.1443	1214.3427	1230.1274	1265.5272	1284.2978	1305.7433	1372.0547	1460.3557	1478.9985	1506.7959	1832.6014	3049.2136	3083.2667	3099.5729	3127.7753	3137.605	3175.9548	3197.7584	3477.009
N=C1CC2(CN3CC23)O1	[NH][C]1C[C@]2(CN3C[C@@H]23)O1	
InChI=1S/C6H8N2O/c7-5-1-6(9-5)3-8-2-4(6)8/h4,7H,1-3H2	InChI=1S/C6H8N2O/c7-5-1-6(9-5)3-8-2-4(6)8/h4,7H,1-3H2/t4-,6+,8?/m0/s1
