23
gdb 66249	3.41066	1.11714	1.05274	1.5836	84.93	-0.2495	0.06	0.3095	1281.4544	0.206536	-388.294358	-388.285172	-388.284228	-388.328611	35.8	
O	 0.0469801396	 1.3020379316	-0.2260592125	-0.486004
C	-0.0205959595	-0.126226638	-0.1213274134	 0.391536
C	 0.8361825598	-0.7800029909	-1.2298185882	-0.229711
C	 2.2634870098	-0.7411591063	-0.6668755063	-0.225048
C	 2.0716244375	-1.1308096771	 0.8150000896	-0.204341
C	 0.6576302277	-0.6121646108	 1.1983003335	-0.258421
C	-1.4882553229	-0.4948003121	-0.2067974459	-0.010544
C	-2.5550756524	 0.3751997351	 0.4067563966	-0.275953
C	-2.4389798526	 0.2658992928	-1.0945872616	-0.276373
H	 0.9682950035	 1.5666251131	-0.1512293154	 0.276951
H	 0.5233534722	-1.8230670068	-1.3652238017	 0.091617
H	 0.7095823639	-0.2644466084	-2.1848942617	 0.101351
H	 2.9570272437	-1.4009543243	-1.1951516484	 0.096729
H	 2.6782720428	 0.2729176096	-0.7509049412	 0.085271
H	 2.1094514738	-2.2210259291	 0.9116869211	 0.101755
H	 2.8592612596	-0.7326024476	 1.460572883	 0.095517
H	 0.689232568	 0.2229713626	 1.9034510525	 0.103899
H	 0.0634233297	-1.3990905243	 1.6713203736	 0.099219
H	-1.6490592676	-1.5675634728	-0.1406583095	 0.074068
H	-3.3903914837	-0.1095674343	 0.9002161697	 0.100347
H	-2.2348406619	 1.3068315364	 0.8568599673	 0.123537
H	-2.0435255431	 1.1266720429	-1.6198061643	 0.124139
H	-3.1944426279	-0.2939374712	-1.6350739967	 0.100459
47.8253	74.9018	183.5071	207.4908	227.6724	275.1148	359.1797	382.2291	399.788	488.3609	578.5706	629.6639	742.4369	790.5439	796.831	823.2979	850.4889	874.2097	899.697	913.1015	923.329	969.5978	997.7521	1008.6069	1037.0647	1051.6401	1061.7099	1082.7712	1110.9146	1133.9715	1140.0414	1187.7651	1203.4872	1223.8653	1227.0139	1236.6415	1262.0761	1294.4194	1313.1925	1332.5202	1343.6571	1360.8355	1437.8318	1456.8554	1477.5655	1483.4755	1499.2421	1500.6828	1516.5185	3012.0962	3031.9832	3044.4205	3059.152	3081.7281	3089.4818	3102.9603	3105.9602	3136.5774	3137.0702	3144.1844	3223.4328	3236.9325	3832.942
OC1(CCCC1)C1CC1	OC1(CCCC1)C1CC1	
InChI=1S/C8H14O/c9-8(7-3-4-7)5-1-2-6-8/h7,9H,1-6H2	InChI=1S/C8H14O/c9-8(7-3-4-7)5-1-2-6-8/h7,9H,1-6H2
