17
gdb 5962	3.42237	1.16268	1.05955	4.1347	64.85	-0.2779	0.017	0.2949	1152.6735	0.139437	-401.004043	-400.994472	-400.993528	-401.038317	33.818	
C	 0.148114923	 1.5840075098	 0.0097365404	-0.399843
C	-0.0118239879	 0.0580388235	 0.007657017	 0.179488
O	 0.6828504322	-0.4076434066	 1.1610873725	-0.437936
C	-1.4863656503	-0.4035585976	 0.008610216	-0.193043
C	-2.282311838	 0.0604641691	 1.2257198175	-0.095899
O	-3.5275721101	-0.6186793458	 1.1763364467	-0.42072
C	 0.6398538548	-0.494610462	-1.2077660466	 0.25597
N	 1.1441289993	-0.9522295855	-2.1415233747	-0.33377
H	 1.205637449	 1.8468105665	-0.0560958766	 0.146914
H	-0.382180814	 2.029536534	-0.8349559056	 0.135891
H	-0.2509172646	 1.990856059	 0.9411645171	 0.137538
H	 0.6556947187	-1.3716602645	 1.1648678307	 0.293817
H	-1.9769425515	-0.0631858499	-0.9091592799	 0.126841
H	-1.5120407984	-1.4996394907	-0.0139399116	 0.118524
H	-1.7235452782	-0.1787858372	 2.1416062193	 0.103344
H	-2.4261309694	 1.1508692589	 1.1989694906	 0.09332
H	-4.0531455145	-0.337324271	 1.9308871871	 0.289564
75.4369	101.0266	127.0113	185.2663	240.5129	241.5815	261.7232	332.3856	339.9943	370.2007	411.5218	454.3528	591.4399	601.945	761.9215	797.7967	900.5729	967.8514	997.4028	1028.3466	1072.5052	1119.9325	1172.6788	1192.2389	1236.0041	1253.5837	1308.0502	1346.336	1376.9692	1411.9579	1460.3826	1476.935	1486.8466	1499.1526	1533.843	2351.4556	2985.8715	3021.8012	3041.5519	3060.9042	3090.6017	3143.0593	3143.9495	3799.0908	3831.7531
CC(O)(CCO)C#N	C[C@@](O)(CCO)C#N	
InChI=1S/C5H9NO2/c1-5(8,4-6)2-3-7/h7-8H,2-3H2,1H3	InChI=1S/C5H9NO2/c1-5(8,4-6)2-3-7/h7-8H,2-3H2,1H3/t5-/m1/s1
