14
gdb 86843	2.96983	1.31943	1.07062	3.2991	62.1	-0.2979	-0.0235	0.2744	1102.7808	0.100127	-473.865497	-473.857413	-473.856468	-473.898792	28.611	
C	-0.2190640728	 1.4880227761	-0.0713988801	-0.406972
C	 0.1312072344	 0.0132474519	-0.0131366481	-0.038058
O	 1.1050130824	-0.3207404705	-1.0086606954	-0.241976
C	 1.90672825	-1.3294622835	-0.4646816287	 0.053342
O	 1.899811963	-1.1713634475	 0.9475701566	-0.212312
C	 0.8126373262	-0.4020209886	 1.2886685027	 0.432902
O	 0.5239326249	-0.1399161928	 2.4123526773	-0.309313
C	 1.4010495185	-2.6845886867	-0.8140450452	 0.289296
N	 1.0122149401	-3.7294627338	-1.1135683116	-0.303419
H	 0.6816187791	 2.1001169962	 0.0194378747	 0.141025
H	-0.7149414409	 1.7239230261	-1.0153474643	 0.142821
H	-0.892612246	 1.7267148633	 0.7553656678	 0.155167
H	-0.7685680859	-0.6076530758	-0.1410651484	 0.136445
H	 2.9296503771	-1.2149134543	-0.8322429573	 0.161051
73.3199	92.4932	196.33	204.5429	243.8314	279.4437	390.3629	477.7708	523.1545	583.9714	625.1366	721.1436	790.9014	833.3738	881.707	932.3126	993.0099	1051.733	1098.5725	1103.0605	1142.7684	1199.5372	1320.1568	1342.8526	1364.5526	1379.7221	1407.9537	1483.2024	1496.5729	1918.5023	2364.8956	3001.4916	3057.3337	3093.9009	3138.9101	3142.1421
CC1OC(OC1=O)C#N	C[C@H]1O[C@@H](OC1=O)C#N	
InChI=1S/C5H5NO3/c1-3-5(7)9-4(2-6)8-3/h3-4H,1H3	InChI=1S/C5H5NO3/c1-3-5(7)9-4(2-6)8-3/h3-4H,1H3/t3-,4+/m1/s1
