18
gdb 12232	3.42637	1.52993	1.20322	1.1626	71.17	-0.2397	0.0253	0.265	1057.5071	0.15324	-381.114954	-381.105859	-381.104915	-381.148875	31.947	
C	-0.2106638524	 1.3753332904	-0.057459571	-0.337749
N	-0.2330014619	-0.0774080383	-0.1660107372	-0.33452
C	 0.5498545407	-0.6415819308	-0.9622780692	 0.431772
O	 1.5106232683	-0.1181200019	-1.8135614269	-0.283206
C	 2.014314499	-1.4570748541	-2.151357267	 0.137553
C	 3.4339758436	-1.6715216688	-1.6771662837	-0.394274
C	 0.8609779995	-2.0913369471	-1.3166502216	-0.146663
N	 1.1954290731	-3.0637687018	-0.2995945907	-0.51161
H	 0.6310325146	 1.848223759	-0.5771570692	 0.125342
H	-1.1429720654	 1.7836477414	-0.4647154458	 0.127418
H	-0.1768004745	 1.6541015663	 1.0010917928	 0.122667
H	 1.9295123112	-1.61186834	-3.2312466963	 0.089994
H	 3.5330236249	-1.462764923	-0.6078686214	 0.11855
H	 3.7317040978	-2.7094416103	-1.8520292577	 0.136206
H	 4.1201410059	-1.0131692356	-2.2175746697	 0.128841
H	 0.0907799236	-2.517230414	-1.9655590382	 0.109138
H	 1.6342575287	-2.610487028	 0.4958537581	 0.236847
H	 0.3484692233	-3.4942039034	 0.0555989547	 0.243694
76.8104	90.8637	148.0864	177.5747	196.3478	216.7143	242.2268	309.2951	404.4872	488.5794	576.7968	662.777	750.9989	793.1846	833.5163	870.9956	938.3049	1030.594	1036.2325	1064.8325	1109.415	1123.9255	1131.3936	1179.3064	1194.2114	1224.9999	1242.0502	1312.9406	1380.9553	1410.0221	1428.9668	1440.4876	1480.1919	1493.5699	1495.0403	1498.8116	1671.4116	1838.4265	3015.3861	3044.3739	3059.9539	3078.512	3080.0363	3087.6211	3118.4091	3123.0454	3508.1871	3583.5981
CN=C1OC(C)C1N	CN=C1O[C@@H](C)[C@H]1N	
InChI=1S/C5H10N2O/c1-3-4(6)5(7-2)8-3/h3-4H,6H2,1-2H3	InChI=1S/C5H10N2O/c1-3-4(6)5(7-2)8-3/h3-4H,6H2,1-2H3/t3-,4+/m0/s1
