17
gdb 41389	2.77052	1.96572	1.35588	3.0959	73.01	-0.2323	0.0137	0.2459	940.4684	0.138874	-417.955236	-417.948423	-417.947479	-417.986403	27.052	
C	 0.0980331365	 1.5431192165	-0.1029346186	-0.284465
N	 1.5858446178	 1.2819043173	-0.1110575349	-0.361798
C	 1.3218476513	-0.0175523157	 0.3341604729	 0.328201
N	 1.7612294375	-0.8390723071	 1.193170827	-0.311254
C	 0.6040718718	-1.7168140584	 1.5199321535	-0.180411
C	-0.6767599371	-1.1381510461	 0.8189506136	 0.009681
O	-1.0572333697	-1.8882686097	-0.3581701982	-0.287327
C	-0.6425540579	-0.8327875886	-1.2469604505	-0.130375
C	-0.1133088322	-0.0006250141	-0.075747525	 0.193571
H	-0.2451400787	 2.061867494	 0.7979596745	 0.123086
H	-0.2597091325	 2.0581214879	-0.998125918	 0.122137
H	 2.2165195936	 1.868480545	 0.4244712938	 0.243599
H	 0.7582552525	-2.7495765659	 1.1879755239	 0.124016
H	 0.4991869209	-1.7320845518	 2.6106319615	 0.107078
H	-1.5264383899	-0.9889007406	 1.4923374965	 0.084279
H	 0.0842017212	-1.1653192088	-1.9976809899	 0.116635
H	-1.5038418249	-0.3762517839	-1.7531379522	 0.103345
115.6644	227.6839	260.7277	269.4743	387.7535	469.3015	572.6517	619.3229	690.2681	755.7343	804.8502	831.7357	856.9167	873.0053	933.6746	937.0336	971.7855	983.2274	1019.2451	1057.0715	1102.7418	1117.8099	1160.3586	1170.4018	1197.8841	1210.8539	1230.7946	1241.5176	1305.8815	1318.3932	1328.6941	1356.5481	1371.087	1483.2105	1500.5546	1521.3351	1766.3682	3006.2178	3035.6015	3044.519	3057.7562	3061.3624	3078.8406	3107.1603	3545.5625
C1NC2=NCC3OCC123	C1N[C]2[N]C[C@@H]3OC[C@]123	
InChI=1S/C6H8N2O/c1-4-6(3-9-4)2-8-5(6)7-1/h4H,1-3H2,(H,7,8)	InChI=1S/C6H8N2O/c1-4-6(3-9-4)2-8-5(6)7-1/h4H,1-3H2,(H,7,8)/t4-,6-/m0/s1
