16
gdb 133005	2.71431	1.3799	0.92013	2.0828	79.95	-0.1936	-0.0256	0.1679	1201.775	0.124657	-442.071367	-442.063475	-442.062531	-442.103769	30.073	
C	 0.0069172188	 1.4388231228	 0.0077595769	-0.344949
N	 0.0644735732	-0.005981615	 0.0029502974	-0.320256
C	-1.0411831323	-0.6565564778	 0.0086639136	 0.423484
N	-2.3189212329	-0.0438387503	 0.0195558054	-0.458268
C	-3.4895578581	-0.7333055494	 0.0255647777	 0.415614
F	-4.5595136983	 0.0507621136	 0.0355118372	-0.061092
C	-3.5490089075	-2.0812270109	 0.0217547577	-0.360652
C	-2.2896225866	-2.7686841544	 0.0108176184	-0.049998
C	-1.107902281	-2.1041731363	 0.0046371611	-0.187922
H	 1.0217692025	 1.8445643573	 0.001491564	 0.127565
H	-0.5104172459	 1.8547151719	-0.8760128354	 0.100887
H	-0.4972687855	 1.8492465191	 0.9016205893	 0.100913
H	-2.3769730711	 0.9629512508	 0.0231923488	 0.265482
H	-4.5008830164	-2.5901513027	 0.0267996564	 0.118558
H	-2.2960028241	-3.8535270862	 0.0074851274	 0.113371
H	-0.155259385	-2.6170993126	-0.0036176259	 0.117263
123.5385	175.5353	205.0507	209.6417	265.2331	399.502	435.5395	483.4685	519.9693	532.1148	581.1164	652.9946	720.4614	736.9017	775.302	843.1534	938.986	991.7914	1010.5758	1049.862	1066.819	1106.8931	1154.4312	1176.7153	1263.6503	1266.3016	1349.9966	1430.964	1448.8132	1478.5828	1508.0233	1511.0169	1606.0863	1687.6657	1724.5014	2927.1817	2963.7826	3095.6733	3187.2595	3227.0419	3248.0498	3637.9622
CN=C1NC(F)=CC=C1	C[N]C1=CCC=C(N1)F	
InChI=1S/C6H7FN2/c1-8-6-4-2-3-5(7)9-6/h2-4H,1H3,(H,8,9)	InChI=1S/C6H8FN2/c1-8-6-4-2-3-5(7)9-6/h3-4,9H,2H2,1H3
