22
gdb 10525	2.61583	1.4982	1.12456	0.9905	78.75	-0.244	0.0847	0.3287	1188.5112	0.198131	-350.19366	-350.183948	-350.183003	-350.228349	35.519	
C	-0.1464056589	 1.6395708168	 1.5425230794	-0.38391
C	-0.2820970923	 0.1470194149	 1.7954760093	-0.049982
O	 0.759551702	-0.5138909827	 1.0914045441	-0.296031
C	 0.8780120869	-1.8884261164	 1.3535248046	 0.46676
C	-0.2161472897	-2.7599355538	 0.761797571	-0.249907
C	-0.3308710178	-2.6143206676	-0.7594315491	-0.373939
C	 2.2955831617	-2.3758162634	 1.3489854984	-0.312846
C	 1.533715195	-2.2748698998	 2.6573866827	-0.331756
H	-0.2159242538	 1.8551888583	 0.4724199771	 0.126104
H	-0.9397718205	 2.1882444699	 2.059139582	 0.112517
H	 0.820542448	 2.0038852446	 1.901197638	 0.123497
H	-0.2092183999	-0.0744698386	 2.8711144659	 0.08799
H	-1.2676926618	-0.2066062569	 1.4564226437	 0.089596
H	-0.0081809828	-3.802857777	 1.027294117	 0.094816
H	-1.1775345003	-2.5168089151	 1.2322606888	 0.095666
H	-0.5137705768	-1.5721135829	-1.0351757467	 0.127198
H	 0.5942521768	-2.9275532415	-1.2544269556	 0.116787
H	-1.1494879033	-3.2234307303	-1.1545110425	 0.105869
H	 2.5019335393	-3.3597085617	 0.9414151525	 0.108305
H	 3.0630669753	-1.6333820927	 1.1645284529	 0.12035
H	 1.8151865128	-1.4712168397	 3.3286966829	 0.114223
H	 1.2205036902	-3.1888287344	 3.1510033834	 0.108693
58.3765	76.3129	132.5706	186.2721	202.3295	217.4854	250.0377	317.5435	358.4567	402.1301	444.1231	558.2332	707.6544	774.0959	791.9785	819.9134	864.7799	899.3835	921.3423	970.2572	989.6078	1005.2908	1046.6481	1075.0613	1078.8599	1094.5052	1118.9045	1148.5925	1188.1424	1189.7265	1255.0309	1291.3178	1298.2599	1344.5147	1378.3576	1399.8169	1405.9373	1424.4044	1454.088	1482.4636	1484.2617	1492.6488	1498.7619	1500.2465	1508.7981	1529.0918	2979.7021	3008.9437	3025.5197	3038.8942	3043.5971	3060.8174	3105.3643	3117.6624	3117.7973	3120.2034	3131.2869	3136.903	3215.1482	3230.9261
CCOC1(CC)CC1	CCOC1(CC)CC1	
InChI=1S/C7H14O/c1-3-7(5-6-7)8-4-2/h3-6H2,1-2H3	InChI=1S/C7H14O/c1-3-7(5-6-7)8-4-2/h3-6H2,1-2H3
