16
gdb 49008	3.38152	1.3353	1.12134	1.5631	70.08	-0.2537	-0.0459	0.2078	1069.4332	0.123585	-437.88157	-437.873741	-437.872797	-437.914314	29.032	
O	-0.8003317468	 1.0802473212	 0.7873750711	-0.24285
C	-0.0035612009	 1.1221152707	-0.1139389283	 0.099485
C	 1.3154018121	 1.845575407	-0.0559125005	 0.265495
C	 1.4924060864	 2.9289796196	 1.0385116216	-0.316913
C	 1.545956304	 3.9886742575	-0.1022995288	-0.182711
N	 1.5194463542	 2.8922395915	-1.1366524471	-0.182691
C	 2.7844117857	 2.3222678171	-1.4634185551	 0.399763
O	 3.692651767	 2.7652266683	-2.0983886398	-0.304197
C	 2.5500839157	 1.0698055962	-0.5888652432	-0.452077
H	-0.19511398	 0.6210045362	-1.0900688272	 0.088162
H	 0.6456107257	 2.9999985721	 1.7213281595	 0.143405
H	 2.4158260232	 2.8392088857	 1.6141863075	 0.119897
H	 0.6607072526	 4.622668335	-0.1787423199	 0.132337
H	 2.4424545701	 4.6083395974	-0.1697843641	 0.139059
H	 3.3468674101	 0.8571235588	 0.1257915606	 0.150016
H	 2.3133588011	 0.1580357257	-1.1455706762	 0.14382
80.474	99.9355	199.3014	240.1329	292.475	336.8807	425.002	493.2383	535.9642	641.0399	731.0237	759.9617	817.8382	841.8919	875.4498	917.3932	955.4028	983.9393	1007.7849	1055.1264	1073.8463	1127.1251	1178.205	1186.8801	1212.8911	1226.8067	1256.6005	1282.9199	1320.3882	1415.0132	1437.8859	1483.8279	1508.0862	1827.4784	1900.0244	2879.1993	3067.3998	3075.2314	3082.8623	3128.4739	3135.9374	3150.077
O=CC12CCN1C(=O)C2	O=C[C@]12CCN1C(=O)C2	
InChI=1S/C6H7NO2/c8-4-6-1-2-7(6)5(9)3-6/h4H,1-3H2	InChI=1S/C6H7NO2/c8-4-6-1-2-7(6)5(9)3-6/h4H,1-3H2/t6-/m1/s1
