19
gdb 57929	3.38557	0.87423	0.78387	5.9272	74.49	-0.2433	-0.004	0.2393	1520.3804	0.157721	-456.419864	-456.409398	-456.408454	-456.456966	36.98	
C	 0.0900388405	 1.3813530714	-0.3812628853	-0.381459
C	-0.0140728729	-0.0692548281	 0.1023545231	-0.097738
C	 0.7638652175	-0.2837578897	 1.4152372689	-0.379675
C	-1.4863508546	-0.4312305296	 0.3433104989	 0.437441
O	-2.2615950253	 0.3214560861	 0.8772330547	-0.322923
N	-1.8131990444	-1.7278158225	-0.0636806919	-0.409187
C	-3.089389724	-2.3283807109	-0.0397790019	 0.46258
N	-3.0133210301	-3.6858052309	-0.3265365456	-0.566673
O	-4.1241925235	-1.741493795	 0.1413270894	-0.328299
H	 1.1386012784	 1.6775312494	-0.4804208298	 0.109142
H	-0.3971477039	 1.5145246533	-1.351722339	 0.120717
H	-0.4005653926	 2.0466523514	 0.3330839022	 0.147372
H	 0.4045632135	-0.7343846782	-0.6646871995	 0.067754
H	 0.3471131232	 0.3474435147	 2.2055784108	 0.144185
H	 0.7145552526	-1.3243879826	 1.7522891204	 0.109659
H	 1.8173720988	-0.0201093213	 1.2822347581	 0.119377
H	-1.0740872066	-2.2620887759	-0.4931596917	 0.249538
H	-2.2111095884	-4.2008037833	 0.0044312169	 0.25089
H	-3.8938964583	-4.1587066783	-0.1863179487	 0.267301
19.3048	47.5692	99.7655	153.0557	210.7696	240.5255	245.8289	287.0474	309.2682	397.2779	413.2945	431.7225	551.0398	560.5667	598.6292	683.8173	748.2897	782.9969	867.1379	933.3276	936.9166	960.7669	975.8653	1096.6471	1118.2049	1120.3337	1164.0612	1201.3984	1308.2699	1330.1612	1379.8602	1396.295	1417.2132	1484.6748	1490.4091	1500.6022	1504.1309	1513.8492	1626.7246	1806.7041	1871.7365	3012.7494	3035.7777	3044.7483	3103.9879	3111.9943	3118.5668	3133.5821	3570.7737	3627.4407	3685.8312
CC(C)C(=O)NC(N)=O	CC(C)C(=O)NC(=O)N	
InChI=1S/C5H10N2O2/c1-3(2)4(8)7-5(6)9/h3H,1-2H3,(H3,6,7,8,9)	InChI=1S/C5H10N2O2/c1-3(2)4(8)7-5(6)9/h3H,1-2H3,(H3,6,7,8,9)
