18
gdb 81502	3.59651	1.27237	1.06232	2.9165	77.88	-0.2521	0.02	0.272	1148.842	0.148425	-398.064146	-398.055674	-398.054729	-398.096766	32.612	
C	-0.1123112561	 1.6010720117	-0.0199340751	-0.438007
C	-0.0062692134	 0.088719849	 0.0122422763	 0.041374
C	 1.2378221425	-0.6128526343	-0.6126615154	-0.064724
N	 2.0509358122	-0.0500678182	 0.5332295742	-0.334586
C	 0.7897611422	-0.6065985471	 1.1582535838	-0.064723
C	 0.902306653	-1.885755595	 0.2490921038	 0.176003
N	-0.2945898767	-2.6493060607	-0.051048938	-0.565484
C	 2.0584467617	-2.7492902908	 0.5446604701	 0.205456
N	 2.9155106142	-3.4960415627	 0.7641514811	-0.344087
H	 0.8401990265	 2.0754174977	 0.2194709718	 0.145198
H	-0.433159346	 1.9377228538	-1.0118339891	 0.116271
H	-0.8658356849	 1.9437542722	 0.6976388982	 0.116271
H	-0.947303687	-0.4044659155	-0.2241058058	 0.104658
H	 1.5985931085	-0.6003256435	-1.6425493016	 0.092639
H	 2.8507501622	-0.6566801959	 0.7377335723	 0.229859
H	 0.6173566135	-0.5866306055	 2.2356850496	 0.092639
H	-0.1327893704	-3.2583936844	-0.8482441463	 0.245621
H	-0.5323238921	-3.2529415108	 0.7311233307	 0.245622
130.0163	155.3931	192.1255	210.6495	261.8434	292.403	339.0011	375.1632	479.5536	516.3852	566.3665	654.0442	701.1085	759.9896	805.4692	805.7385	855.3577	889.3668	905.4658	1036.9839	1048.3777	1051.9511	1085.3135	1099.8755	1141.9654	1171.6217	1183.9523	1208.2238	1222.388	1263.1855	1276.487	1292.2201	1297.4479	1399.2308	1414.5442	1491.958	1507.2422	1655.7244	2329.9078	3037.4567	3091.8804	3102.9395	3106.2587	3131.8187	3150.0735	3399.8476	3490.3642	3566.4813
CC1C2NC1C2(N)C#N	C[C@H]1[C@H]2N[C@@H]1[C@]2(N)C#N	
InChI=1S/C6H9N3/c1-3-4-6(8,2-7)5(3)9-4/h3-5,9H,8H2,1H3	InChI=1S/C6H9N3/c1-3-4-6(8,2-7)5(3)9-4/h3-5,9H,8H2,1H3/t3-,4+,5-,6-
