18
gdb 37429	2.97731	1.77553	1.45876	2.4409	74.22	-0.2391	0.0352	0.2743	939.4036	0.150961	-401.927016	-401.920102	-401.919157	-401.958715	27.438	
C	-0.0868362666	 1.4298888741	-0.3154584244	-0.292869
C	 1.2473262942	 0.8242964132	 0.0027028048	-0.060137
C	-0.0206819565	-0.0422126655	-0.0138574003	-0.063514
C	 0.5335005709	-0.8210099502	-1.1986236254	 0.097744
O	-0.280818549	-0.8704335759	-2.3697491807	-0.236825
C	 0.0911735749	-0.1150929922	-3.4340698669	 0.124731
N	 1.0696895943	 0.6653220118	-3.5925884424	-0.268762
C	 2.0460270798	 0.8676009044	-2.5272830497	-0.186922
C	 1.8078356986	 0.0864883317	-1.2242226053	-0.070125
H	-0.5240213462	 2.0295428775	 0.4761751901	 0.116458
H	-0.3170513695	 1.7863828658	-1.3151350076	 0.130737
H	 1.8348721376	 1.135635491	 0.8572811428	 0.091497
H	-0.5644363987	-0.4832757296	 0.8119209124	 0.090472
H	 0.7657093721	-1.8573148306	-0.9445049237	 0.095211
H	-0.62297075	-0.2675360743	-4.2419602003	 0.120413
H	 3.0268864181	 0.6142573648	-2.9473296957	 0.113708
H	 2.0833193964	 1.943801557	-2.317499593	 0.116974
H	 2.6879637097	-0.505953613	-0.9660058946	 0.081209
69.2039	123.4763	263.2298	406.8885	465.1095	477.2411	562.4711	586.8196	692.0819	757.2496	793.4458	805.2337	905.0655	913.6135	930.7023	951.5879	969.6166	988.4982	1010.7466	1037.324	1058.434	1065.2153	1085.8652	1092.7023	1122.1584	1160.8379	1182.125	1222.6378	1266.6768	1278.6265	1317.2526	1338.0977	1353.1659	1377.7775	1385.8847	1421.3369	1480.1019	1498.5294	1746.3142	3022.5189	3046.5151	3075.0982	3090.2808	3125.8483	3151.8515	3185.1014	3193.5611	3210.2784
C1C2C1C1OC=NCC21	C1[C@H]2[C@@H]1[C@H]1OC=NC[C@@H]21	
InChI=1S/C7H9NO/c1-4-5(1)7-6(4)2-8-3-9-7/h3-7H,1-2H2	InChI=1S/C7H9NO/c1-4-5(1)7-6(4)2-8-3-9-7/h3-7H,1-2H2/t4-,5+,6-,7+/m0/s1
