19
gdb 116287	1.9254	1.49558	0.9104	3.4458	72.28	-0.2524	-0.0297	0.2226	1269.347	0.158953	-460.168837	-460.159728	-460.158784	-460.204214	32.584	
O	-0.012345923	 1.4672993927	-0.0814877822	-0.423816
C	 0.0660744515	 0.0597439203	 0.005899221	-0.087067
C	-1.3236958453	-0.5606109023	 0.0214254623	 0.085342
O	-1.9545184276	-0.2396875465	-1.21228183	-0.262969
C	-3.1009834868	-1.0697975655	-1.2978016558	-0.079421
C	-2.6401647887	-2.4463225376	-0.7754772954	-0.260652
C	-1.4348698441	-2.1151863512	 0.1502483286	-0.104974
C	-0.1805824942	-2.8312915522	-0.3065151092	 0.157443
O	 0.5810405362	-3.4093263921	 0.4247696818	-0.25587
H	-0.5690269691	 1.6614707297	-0.8444457768	 0.293114
H	 0.6497766203	-0.3630955397	-0.8269981803	 0.094946
H	 0.5906654309	-0.1786182135	 0.9363626957	 0.12569
H	-1.8930261808	-0.1080422388	 0.8497665492	 0.0846
H	-3.9136587113	-0.6687489872	-0.6721463939	 0.099193
H	-3.4361821368	-1.0805934136	-2.3373564107	 0.116279
H	-3.4306013069	-2.9799488153	-0.24432781	 0.120068
H	-2.3185351998	-3.0800302605	-1.6086573266	 0.115676
H	-1.6062213741	-2.3949201457	 1.1913846838	 0.100212
H	-0.0035639303	-2.7936335809	-1.4070370015	 0.082204
30.6257	63.6375	116.8543	171.0565	215.3686	287.1924	334.0708	410.5417	422.5482	442.1296	491.9368	648.8569	725.5721	828.2718	864.9074	914.5679	920.8141	974.3367	1027.2164	1035.0208	1043.5629	1079.7664	1114.6741	1129.5752	1151.2082	1213.3416	1229.3796	1250.4537	1280.7177	1283.8197	1317.9007	1343.4222	1357.0356	1389.6886	1410.9489	1425.3153	1440.0731	1490.9562	1493.7254	1518.1098	1828.9374	2856.4801	2966.6638	2984.4492	2988.1286	3051.1442	3087.597	3095.8023	3104.0994	3118.2104	3801.5969
OCC1OCCC1C=O	OC[C@H]1OCC[C@H]1C=O	
InChI=1S/C6H10O3/c7-3-5-1-2-9-6(5)4-8/h3,5-6,8H,1-2,4H2	InChI=1S/C6H10O3/c7-3-5-1-2-9-6(5)4-8/h3,5-6,8H,1-2,4H2/t5-,6+/m0/s1
