13
gdb 25413	5.21386	1.07017	0.88792	4.2016	74.23	-0.2584	-0.0884	0.17	1193.9499	0.089691	-452.778026	-452.770725	-452.769781	-452.81044	26.482	
N	-0.0140681697	 1.3238836665	 0.0099856393	-0.494676
C	-0.0513201963	 0.065743589	 0.0029394965	 0.440782
O	 1.2034037461	-0.6533928411	-0.0080646193	-0.218185
C	 1.2078930927	-1.975233655	-0.0151617571	 0.053387
C	 0.0706184925	-2.7123643971	-0.0125354346	 0.031948
C	 0.1009450941	-4.1768967358	-0.0206057295	 0.091559
O	-0.8873999945	-4.8748910497	-0.0185850515	-0.270182
C	-1.1620367627	-1.9563601699	-0.0012425857	-0.012952
N	-1.2195518398	-0.6684449036	 0.0060331076	-0.256021
H	 0.9463661809	 1.6638320495	 0.0063089241	 0.238317
H	 2.2112298055	-2.3949156481	-0.0232398758	 0.159002
H	 1.1229506201	-4.6177824085	-0.0289558883	 0.076856
H	-2.0998912688	-2.508801236	 0.0012842446	 0.160165
60.5376	144.6068	182.1005	291.2964	392.6423	405.4805	469.3971	495.9259	624.3049	634.5181	719.6779	775.0634	784.1549	863.9391	946.4157	957.3283	1015.6693	1019.4955	1037.6739	1182.7742	1255.796	1297.7602	1370.5851	1421.7271	1440.1492	1594.9254	1703.6328	1760.3596	1792.8145	2879.9839	3160.5871	3170.4708	3517.9876
N=C1OC=C(C=O)C=N1	[NH]C1=NC=C(CO1)C=O	
InChI=1S/C5H4N2O2/c6-5-7-1-4(2-8)3-9-5/h1-3,6H	InChI=1S/C5H5N2O2/c6-5-7-1-4(2-8)3-9-5/h1-2,6H,3H2
