17
gdb 29551	3.13372	1.71683	1.12464	3.452	82.15	-0.2006	-0.0149	0.1857	1054.7933	0.138929	-380.928802	-380.921497	-380.920553	-380.960484	28.212	
C	-0.0199297101	 1.4955411923	 0.0663653874	-0.494175
C	-0.0072167421	 0.0037899175	 0.0110166999	 0.224265
C	-0.0257797174	-0.8071989655	-1.0642180082	-0.21308
C	-0.0017434112	-2.26860843	-0.6534671766	-0.247739
N	 0.0325764019	-2.1545485154	 0.7935441783	-0.004653
C	 0.0676031311	-2.9276756335	 1.9263465921	-0.153596
C	 0.0840100802	-2.0210692585	 2.9655405285	-0.097985
N	 0.0607040338	-0.7207378712	 2.5064015877	-0.366941
C	 0.0299345448	-0.8482027879	 1.1969391158	 0.328416
H	 0.868695039	 1.8701460009	 0.5859529332	 0.145525
H	-0.0513314834	 1.9325779344	-0.9343979517	 0.122314
H	-0.885823964	 1.8533876681	 0.6338764617	 0.145571
H	-0.0541108673	-0.5020500575	-2.1012079252	 0.106758
H	-0.8908874668	-2.8141445799	-0.993054278	 0.1378
H	 0.8800141011	-2.7971734391	-1.0363927681	 0.137798
H	 0.0773866658	-4.0045604828	 1.904471004	 0.125738
H	 0.1117117447	-2.2410446721	 4.0224083991	 0.103986
132.5376	180.5476	187.7783	234.0734	280.9225	507.3245	511.766	591.6312	633.0843	678.0192	724.6697	742.3415	784.3318	787.1646	842.6403	938.31	959.4345	986.9712	1017.4236	1067.4998	1082.8242	1119.5292	1148.8774	1184.9613	1202.8251	1276.2496	1299.69	1329.5669	1402.009	1414.6275	1443.5543	1474.2619	1476.2134	1487.0371	1508.6902	1581.3367	1668.5178	3027.4877	3037.5888	3058.5246	3091.6394	3125.1442	3230.5387	3243.3126	3279.4395
CC1=CCN2C=CN=C12	CC1=CCn2ccnc12	
InChI=1S/C7H8N2/c1-6-2-4-9-5-3-8-7(6)9/h2-3,5H,4H2,1H3	InChI=1S/C7H8N2/c1-6-2-4-9-5-3-8-7(6)9/h2-3,5H,4H2,1H3
