21
gdb 59767	2.50948	1.32065	0.94428	2.7279	73.84	-0.2508	0.0525	0.3034	1269.701	0.182795	-461.362904	-461.353614	-461.35267	-461.397222	35.195	
C	 0.0510730312	 1.5335745003	 0.0568508673	-0.410866
C	-0.004244111	 0.0107405681	-0.0262220465	 0.113753
O	 0.7796124695	-0.5870165897	 1.0214981057	-0.44261
C	-1.4318310767	-0.543505629	-0.0215120751	-0.049992
C	-2.2669135139	-0.1895341032	-1.2657662647	-0.10595
O	-3.2507247683	-1.2045230459	-1.3509896296	-0.2475
C	-2.5966070524	-2.4263436444	-1.0414433527	-0.086333
C	-1.4976879761	-2.1066036806	-0.0033416942	 0.080041
O	-0.3023706005	-2.7422404157	-0.41173635	-0.439584
H	 1.0901879723	 1.8724269827	 0.0833824408	 0.128808
H	-0.4408258337	 1.9956267452	-0.8050340103	 0.127994
H	-0.4531338299	 1.8958204282	 0.9615182066	 0.109271
H	 0.4933899111	-0.3225766174	-0.9424474098	 0.106217
H	 0.3956298388	-0.3228550045	 1.8654076647	 0.281794
H	-1.9554067993	-0.1633737526	 0.8661058659	 0.064627
H	-2.7821436455	 0.7720421527	-1.2020568915	 0.108814
H	-1.627342157	-0.1826550601	-2.1661590414	 0.090854
H	-3.3538343447	-3.1278101544	-0.6837896194	 0.106879
H	-2.1020983207	-2.8529996236	-1.9269482097	 0.105469
H	-1.7896495027	-2.4547647713	 0.9968317192	 0.065797
H	 0.3809385494	-2.4462503849	 0.2059178947	 0.292519
48.4672	105.5424	179.0087	204.6932	249.3999	293.2481	312.3143	346.3808	389.4474	428.3539	474.1338	548.7801	621.5913	651.6857	691.9853	803.5966	883.367	937.0993	962.6217	974.2087	1004.8811	1037.4487	1047.4543	1074.9078	1096.6971	1127.7545	1148.2061	1170.5792	1220.9144	1249.9189	1262.8022	1286.4087	1309.5698	1316.6766	1352.1173	1354.925	1380.0848	1405.1194	1407.128	1424.309	1444.064	1490.5383	1495.9857	1501.8228	1517.5255	2950.8516	2991.1065	2999.4771	3017.0761	3026.9393	3066.2225	3093.8571	3098.7821	3102.0442	3120.2098	3741.078	3796.2761
CC(O)C1COCC1O	C[C@@H](O)[C@H]1COC[C@H]1O	
InChI=1S/C6H12O3/c1-4(7)5-2-9-3-6(5)8/h4-8H,2-3H2,1H3	InChI=1S/C6H12O3/c1-4(7)5-2-9-3-6(5)8/h4-8H,2-3H2,1H3/t4-,5-,6-/m1/s1
