21
gdb 82223	2.32923	1.99784	1.44169	1.5484	79.9	-0.2359	0.0781	0.314	999.8788	0.185393	-387.067726	-387.060367	-387.059423	-387.099004	30.883	
C	-0.0820168672	 1.5772677236	 0.0255980774	-0.401781
C	 0.061338759	 0.0515616377	 0.018523339	-0.003865
C	 0.7486064031	-0.5109431887	-1.2351649769	-0.021567
C	 2.1354060408	-0.1188286044	-1.6906074058	-0.308741
C	 1.9180153457	-1.4433100373	-0.9972193276	-0.033862
C	 2.2158267263	-1.6241531331	 0.4818918092	 0.075438
C	 2.2835055033	-0.30319072	 1.2760460511	-0.261646
C	 0.7541479458	-0.484945083	 1.2870952166	 0.091827
O	 0.9435596971	-1.9216312774	 1.1500053014	-0.301098
H	 0.8932297962	 2.0747639401	 0.0120626993	 0.113575
H	-0.6376431884	 1.9206574811	-0.8525672012	 0.117302
H	-0.6199993909	 1.9198204442	 0.9168517087	 0.110822
H	-0.9454651454	-0.3852236964	 0.03671193	 0.082139
H	 0.0639329755	-0.7780694045	-2.0339834447	 0.085597
H	 2.3246018479	-0.1455385113	-2.7588471336	 0.10842
H	 2.6748760565	 0.668610176	-1.179000548	 0.111863
H	 1.9888438691	-2.3455450664	-1.596165249	 0.085186
H	 2.9673196285	-2.3922895857	 0.6784233727	 0.073546
H	 2.7080882233	-0.4693091945	 2.2672811919	 0.10932
H	 2.7260529898	 0.5880416864	 0.8312686163	 0.097888
H	 0.197100304	-0.2259383263	 2.1927702932	 0.069636
162.5808	212.0032	221.1692	339.356	345.5921	431.1742	459.1708	490.107	591.112	632.3733	710.5484	783.1696	826.7683	848.9924	878.0167	904.2532	927.194	934.0493	955.5191	971.6537	1010.6242	1024.2531	1057.3952	1068.6986	1089.1145	1099.605	1123.5206	1132.1323	1143.2358	1153.8886	1214.8387	1245.3706	1254.4787	1299.3636	1307.7788	1342.2405	1347.2701	1364.7576	1387.5804	1403.9556	1415.5391	1483.0665	1495.0536	1498.2459	1513.0901	3020.4314	3029.8144	3060.1713	3078.5769	3089.5479	3095.1541	3103.5954	3134.4749	3140.8748	3146.8115	3159.2489	3219.418
CC1C2CC2C2CC1O2	C[C@H]1[C@H]2C[C@H]2[C@H]2C[C@@H]1O2	
InChI=1S/C8H12O/c1-4-5-2-6(5)8-3-7(4)9-8/h4-8H,2-3H2,1H3	InChI=1S/C8H12O/c1-4-5-2-6(5)8-3-7(4)9-8/h4-8H,2-3H2,1H3/t4-,5+,6+,7-,8+/m0/s1
