16
gdb 62403	3.22812	1.52387	1.31503	3.7287	68.67	-0.2735	0.0086	0.2821	978.6757	0.124892	-437.871699	-437.864108	-437.863164	-437.9035	29.41	
O	 0.0045579599	 1.452933927	-0.0673968136	-0.476062
C	 0.0123442041	 0.0566495685	 0.0116232008	 0.28888
C	 0.9358526551	-0.5409446006	-0.9548194497	 0.239149
N	 1.7103179293	-0.9256785558	-1.7217173202	-0.33418
C	 0.0483650376	-0.6735743347	 1.4018126712	 0.014262
C	-0.9913275287	 0.1067805912	 2.2225936685	-0.229171
C	-2.1270323759	 0.1268650429	 1.1499672121	-0.231908
C	-1.3774016204	-0.63986714	 0.0465124379	 0.036736
O	-0.7406094621	-1.7273838998	 0.7796901115	-0.291578
H	 0.9023027898	 1.7706450529	-0.2133353138	 0.302271
H	 0.9716426373	-1.0192324697	 1.8641197275	 0.100063
H	-1.2631022464	-0.4418163613	 3.1257631239	 0.116787
H	-0.6439672214	 1.1048583673	 2.4954438395	 0.116224
H	-3.0168935736	-0.4236779461	 1.4594183972	 0.117541
H	-2.4121281674	 1.1340015927	 0.842238717	 0.126083
H	-1.8969050372	-0.9492870046	-0.85839887	 0.104903
140.5823	154.4952	239.1401	265.4727	269.7541	370.4518	436.1449	512.1906	547.8655	571.932	675.7961	751.2445	830.868	853.5386	875.9489	905.495	924.3358	944.8254	992.763	1020.9374	1041.6582	1069.2744	1135.1398	1188.4252	1198.6176	1235.4763	1244.7917	1252.5836	1297.6862	1300.3059	1325.0911	1381.9227	1467.8011	1489.8191	2354.9947	3081.3268	3088.4082	3130.5317	3141.886	3145.7096	3149.7502	3816.2084
OC1(C#N)C2CCC1O2	O[C@@]1(C#N)[C@H]2CC[C@@H]1O2	
InChI=1S/C6H7NO2/c7-3-6(8)4-1-2-5(6)9-4/h4-5,8H,1-2H2	InChI=1S/C6H7NO2/c7-3-6(8)4-1-2-5(6)9-4/h4-5,8H,1-2H2/t4-,5+,6+
