19
gdb 5566	3.01494	1.7713	1.21958	1.8363	78.99	-0.1897	0.05	0.2397	1042.1805	0.166002	-327.977893	-327.96921	-327.968265	-328.011855	31.667	
C	-0.2474693154	 1.6155114904	-0.0568980886	-0.358427
C	 0.0408890102	 0.1061594273	 0.0281886869	-0.301206
C	 0.7365675318	-0.4399658627	-1.1868874088	 0.212669
C	 2.0854427992	-0.7110230619	-1.3286677114	 0.209962
C	 3.2294939361	-0.5832092388	-0.3763238666	-0.507747
N	 2.2796308497	-1.1647264148	-2.615121877	-0.28614
C	 1.0882832019	-1.1908366833	-3.295976885	-0.091293
C	 0.1148134423	-0.746298965	-2.4375750992	-0.2312
H	 0.6822729742	 2.1856478707	-0.1522484804	 0.112082
H	-0.8649065402	 1.846226544	-0.9308586773	 0.117173
H	-0.7755860153	 1.9697410524	 0.8350541709	 0.102484
H	 0.6383687663	-0.094436213	 0.925431226	 0.091965
H	-0.90642891	-0.4280760385	 0.1749566404	 0.09883
H	 3.7896173805	-1.5218634244	-0.2771934151	 0.12119
H	 3.9447416815	 0.1910011939	-0.6836789769	 0.124897
H	 2.8681920716	-0.3132519993	 0.6183515751	 0.136904
H	 3.1665074621	-1.4506899348	-2.9915185779	 0.252484
H	 1.0384270741	-1.5280195376	-4.3188511508	 0.110958
H	-0.9366283906	-0.6524736444	-2.6663841941	 0.084414
33.3164	79.066	152.647	209.7052	228.5237	287.9652	373.0943	419.4247	454.5791	610.5374	635.9191	677.2329	699.7656	725.0447	783.2141	820.9535	913.2403	963.9802	976.5991	1038.4163	1058.4855	1078.5741	1093.0811	1126.2444	1186.2539	1260.7499	1282.3773	1310.9379	1357.4091	1405.15	1412.4049	1439.6447	1476.5368	1481.0616	1485.6197	1493.6404	1496.6234	1506.374	1524.0076	1631.1439	3011.4701	3020.9742	3030.0885	3052.8494	3053.3811	3099.4702	3106.6622	3122.2195	3235.695	3266.1573	3678.1625
CCC1=C(C)NC=C1	CCc1c(C)[nH]cc1	
InChI=1S/C7H11N/c1-3-7-4-5-8-6(7)2/h4-5,8H,3H2,1-2H3	InChI=1S/C7H11N/c1-3-7-4-5-8-6(7)2/h4-5,8H,3H2,1-2H3
