18
gdb 43420	2.32157	1.61404	1.05231	5.8029	84.29	-0.2094	-0.0377	0.1716	1142.1208	0.149978	-401.966896	-401.958837	-401.957893	-401.999674	30.928	
O	-0.4828371459	 1.303231336	 1.794073977	-0.365983
C	-0.1033127373	 1.7145170598	 0.7022494383	 0.277269
C	-1.1280535534	 1.6712195428	-0.3984357155	-0.117479
C	-1.4435723616	 2.4299192747	-1.4519545963	-0.055375
C	-0.8754751595	 3.7173827968	-1.9686621037	-0.242734
C	 0.3079015647	 4.3028893915	-1.2046552797	-0.185631
N	 1.5504026873	 3.5642283263	-1.3556219958	-0.273004
C	 2.0111607569	 2.6677893979	-0.442120607	 0.005354
C	 1.3244484095	 1.9742959585	 0.4953265259	-0.186925
H	-1.7937489644	 0.8340035842	-0.1983497211	 0.112384
H	-2.3143664788	 2.1020460545	-2.0195790484	 0.095408
H	-0.5958666778	 3.5931390793	-3.0239919655	 0.113255
H	-1.6862062237	 4.4619182222	-1.9729761562	 0.114635
H	 0.4831573466	 5.3253363891	-1.5555251721	 0.108163
H	 0.0718677232	 4.3592705593	-0.1341981553	 0.135941
H	 2.2483068506	 3.9923354577	-1.9388408226	 0.249972
H	 3.0927985329	 2.5499989265	-0.4672334999	 0.111366
H	 1.9290224307	 1.4605227127	 1.2355637379	 0.103384
74.9065	112.7415	251.7297	257.8212	302.9941	346.6198	405.8848	454.283	512.4655	536.3809	618.0922	673.8209	753.4902	758.8696	810.1746	826.6919	866.0217	930.3638	972.2091	985.4834	1026.799	1061.1094	1094.609	1124.3934	1239.3933	1250.1854	1298.6468	1322.2166	1330.8434	1396.9404	1406.7522	1426.6932	1445.8871	1458.7111	1478.4732	1541.6838	1682.6068	1692.3031	1719.0328	2996.8338	3019.6285	3032.8865	3076.7357	3119.0905	3143.3626	3153.7873	3185.4275	3656.7663
O=C1C=CCCNC=C1	O=C1C=CCCNC=C1	
InChI=1S/C7H9NO/c9-7-3-1-2-5-8-6-4-7/h1,3-4,6,8H,2,5H2/b3-1-,6-4-	InChI=1S/C7H9NO/c9-7-3-1-2-5-8-6-4-7/h1,3-4,6,8H,2,5H2/b3-1-,6-4-
