23
gdb 59785	3.05964	1.08372	0.84821	1.9877	81.39	-0.2546	0.0777	0.3324	1417.7272	0.206535	-425.434145	-425.424773	-425.423829	-425.468396	35.673	
C	-0.0446948016	 1.5487080232	-0.0243403175	-0.397884
C	 0.0322091366	 0.0131023609	-0.0110931435	 0.025089
C	 0.7032708871	-0.4835020944	-1.3023131515	-0.397888
C	 0.7433903681	-0.5200885865	 1.2530710733	 0.008024
C	 0.066379139	-0.0537516301	 2.5539909154	-0.104812
O	 0.671372281	-0.642322405	 3.697290608	-0.235238
C	 0.6538450293	-2.0401541454	 3.6180288088	 0.013863
O	 1.3643879113	-2.5252032638	 2.5133227261	-0.235236
C	 0.8038109416	-2.057252653	 1.2941654444	-0.104818
H	 0.957488986	 1.9914900977	 0.0202286903	 0.116345
H	-0.5200648558	 1.9001752874	-0.9457178779	 0.112702
H	-0.6239725818	 1.9465825375	 0.8132621994	 0.118284
H	-0.998083952	-0.3737214824	 0.0010262048	 0.072146
H	 1.7545276673	-0.1740743594	-1.3414199789	 0.116345
H	 0.6709073995	-1.5720512417	-1.3995586555	 0.118282
H	 0.2025417939	-0.0626618111	-2.1801549278	 0.112703
H	 1.7766455426	-0.1470640491	 1.2646664062	 0.083338
H	 0.1510053495	 1.0254239978	 2.6936181847	 0.113393
H	-1.0081335056	-0.3115949962	 2.5243918157	 0.083709
H	 1.1490126128	-2.4210472273	 4.5136063842	 0.115659
H	-0.3941790133	-2.3999100038	 3.5767131062	 0.068893
H	-0.2134528838	-2.4706253248	 1.166746714	 0.083709
H	 1.4346362983	-2.4619524804	 0.500722901	 0.113393
53.7721	119.1758	181.0481	228.0844	232.6661	254.8136	322.3857	345.1551	393.4623	426.478	454.9073	471.6107	512.1926	658.9761	859.4863	888.4674	907.2331	927.9662	963.5983	966.1398	968.9228	970.1608	1068.8111	1073.8295	1076.6596	1154.4651	1166.0443	1186.5511	1195.0414	1214.4664	1243.3089	1275.1615	1324.5619	1329.1611	1347.253	1359.3232	1373.7833	1382.1123	1402.9292	1418.8978	1423.7945	1444.5249	1487.1305	1491.3145	1494.3624	1497.5967	1505.6111	1511.197	1513.757	2900.2159	2939.1346	2947.5647	2989.3863	3023.3895	3028.1986	3032.9144	3092.3986	3098.2258	3098.6151	3101.8198	3111.1703	3112.8708	3114.2438
CC(C)C1COCOC1	CC(C)C1COCOC1	
InChI=1S/C7H14O2/c1-6(2)7-3-8-5-9-4-7/h6-7H,3-5H2,1-2H3	InChI=1S/C7H14O2/c1-6(2)7-3-8-5-9-4-7/h6-7H,3-5H2,1-2H3
