18
gdb 28212	4.54397	1.22203	0.98833	1.4316	79.77	-0.2133	0.0134	0.2267	1207.3562	0.149929	-402.000702	-401.992834	-401.99189	-402.033457	29.265	
C	 0.1267416805	 1.4271330136	 0.0890166324	-0.492694
C	 0.0377794106	-0.0476896368	-0.0634151412	 0.339899
N	-0.0488252362	-0.743743707	-1.1587363006	-0.380869
C	-0.0825222742	-2.0561767403	-0.7091800949	 0.240909
C	-0.017331049	-2.0788024317	 0.6317798163	 0.297674
C	-0.1078772729	-3.415723593	 1.2718593839	-0.355122
C	 0.0010596791	-4.3221900666	-0.0131212328	-0.197764
C	-0.2281330683	-3.4276495596	-1.2884983573	-0.348157
O	 0.056977715	-0.7982867274	 1.0906101495	-0.228795
H	 1.0649767158	 1.720474375	 0.5721918277	 0.143377
H	 0.078143196	 1.8859762012	-0.898780105	 0.156097
H	-0.693601331	 1.8123408952	 0.7036827995	 0.143045
H	 0.6908060739	-3.6310132991	 1.9897310068	 0.116138
H	-1.0587727896	-3.5633366506	 1.8004147251	 0.116329
H	 1.0050764056	-4.752174398	-0.0544915212	 0.11568
H	-0.7023303082	-5.1566286244	 0.0286922453	 0.106604
H	-1.2239294085	-3.584651189	-1.7214162409	 0.11325
H	 0.4969598312	-3.6578581115	-2.0756476024	 0.114398
92.4984	100.4215	150.0236	246.6633	267.8222	296.331	479.7076	521.3208	660.6562	681.5644	699.4354	719.1441	775.8277	836.686	891.6227	916.9609	936.9746	984.9292	1029.927	1059.9819	1065.372	1116.6409	1156.8768	1202.4353	1207.0389	1247.5933	1277.0542	1283.0657	1322.846	1367.2734	1407.9607	1421.0444	1474.6066	1481.4003	1484.4717	1499.3704	1513.2725	1603.3458	1684.1293	3018.3776	3027.8616	3041.0364	3055.9599	3065.1007	3074.0425	3093.7169	3114.724	3156.0996
CC1=NC2=C(CCC2)O1	Cc1nc2c(CCC2)o1	
InChI=1S/C7H9NO/c1-5-8-6-3-2-4-7(6)9-5/h2-4H2,1H3	InChI=1S/C7H9NO/c1-5-8-6-3-2-4-7(6)9-5/h2-4H2,1H3
