20
gdb 101381	2.63561	1.21643	0.93848	1.6306	73.88	-0.2278	0.0513	0.2792	1275.4321	0.170572	-440.218782	-440.209603	-440.208659	-440.253094	34.327	
O	 0.475404808	 0.272084865	 0.8982533447	-0.405828
C	-0.0902541715	 0.1635440672	-0.398834034	-0.092412
C	-1.4744897191	-0.502011317	-0.41035776	 0.068355
O	-2.0066635447	-0.4829783493	-1.732384947	-0.427687
C	-1.4546616107	-1.9176481044	 0.1570752651	 0.006671
C	-1.2736681342	-2.1922463826	 1.676745283	-0.185602
N	-2.5033357507	-3.0637680302	 1.7295720954	-0.130856
C	-3.6189132182	-2.1697721439	 1.3775153278	-0.234836
C	-2.7740359066	-2.678363613	 0.2800702115	-0.042785
H	-0.0174966019	 0.9426556372	 1.3814363939	 0.287755
H	-0.1647168145	 1.138258197	-0.9013468222	 0.100471
H	 0.6103662594	-0.4505292687	-0.9797646778	 0.099805
H	-2.1659497394	 0.1189117678	 0.1745459422	 0.077062
H	-1.471201118	-1.0740151444	-2.2740827396	 0.280509
H	-0.7277601145	-2.5090164571	-0.4141401634	 0.070996
H	-0.3806159491	-2.7677739448	 1.9216900985	 0.115843
H	-1.3256491451	-1.3247509248	 2.3411320196	 0.094837
H	-4.5922744389	-2.6331975483	 1.5067105944	 0.120828
H	-3.5757583005	-1.1249201975	 1.6792236741	 0.105216
H	-3.1461986099	-3.4025468881	-0.4374673561	 0.091658
52.5308	113.9065	150.3448	175.4939	240.5754	290.5251	305.7611	366.1627	389.3794	438.9983	490.298	566.1603	722.454	755.0741	783.9348	837.3056	947.4685	962.7974	984.8333	1002.5476	1029.5463	1055.7913	1060.8752	1074.4263	1100.6973	1108.4916	1118.7661	1156.9568	1177.7364	1196.8091	1220.1049	1258.7824	1262.3466	1288.7859	1332.6415	1375.421	1379.8735	1400.8934	1414.8035	1418.6095	1490.6367	1500.949	1507.8524	3002.6141	3017.3471	3029.9761	3056.3103	3059.7774	3101.3957	3126.9037	3160.0195	3193.9185	3794.2783	3821.3585
OCC(O)C1CN2CC12	OC[C@@H](O)[C@H]1CN2C[C@@H]12	
InChI=1S/C6H11NO2/c8-3-6(9)4-1-7-2-5(4)7/h4-6,8-9H,1-3H2	InChI=1S/C6H11NO2/c8-3-6(9)4-1-7-2-5(4)7/h4-6,8-9H,1-3H2/t4-,5-,6+,7?/m0/s1
