17
gdb 79064	2.27252	2.07715	1.73964	1.478	70.28	-0.2414	-0.0183	0.2231	889.6638	0.136615	-417.967053	-417.959728	-417.958784	-417.998277	29.467	
C	-0.0026013335	 1.5623521743	 0.0492829979	-0.497379
C	 0.0249981562	 0.0552011102	 0.0708819426	 0.244269
N	-1.3056961793	-0.5756352328	-0.0834265761	-0.240695
C	-1.174828202	-1.7406992925	 0.4130016354	 0.025584
N	 0.064395694	-2.0611881216	 1.0508154615	-0.158911
C	 1.2708361072	-1.7183881783	 0.1971488588	-0.111124
C	 0.7349233742	-0.7579123753	 1.1977448398	-0.086913
C	 0.9636008124	-0.7353019314	-0.9357987148	 0.143901
O	 0.4864467303	-1.1554608821	-2.1766280948	-0.446216
H	 1.0032129538	 1.9740196547	 0.1787459146	 0.117152
H	-0.4026325104	 1.9222049105	-0.902856942	 0.1393
H	-0.6401624435	 1.9495159182	 0.8506038719	 0.12763
H	-1.9480805454	-2.5025595408	 0.3865042146	 0.134098
H	 2.0896740044	-2.4243929868	 0.2585508651	 0.111006
H	 1.1118777219	-0.4411102029	 2.1632540066	 0.104565
H	 1.8643006298	-0.1399440093	-1.1144749216	 0.102907
H	-0.4436635299	-1.3879860741	-2.0655256597	 0.290825
186.6665	197.2962	238.5294	274.7495	307.6636	378.7498	480.8149	540.5739	589.5679	615.8006	725.4365	761.4974	771.3168	836.9333	854.3597	890.8721	914.6911	953.9559	959.0347	976.7222	999.4797	1046.7788	1111.3729	1139.099	1149.1556	1183.4863	1208.2269	1252.3701	1288.9001	1305.8758	1322.6427	1335.1074	1416.4033	1432.0327	1484.6348	1492.4724	1655.1966	3038.3137	3072.799	3107.4868	3117.1401	3181.1404	3192.0123	3198.6213	3781.2653
CC12N=CN3C(C13)C2O	C[C@]12[N][CH]N3[C@H]([C@@H]13)[C@H]2O	
InChI=1S/C6H8N2O/c1-6-4-3(5(6)9)8(4)2-7-6/h2-5,9H,1H3	InChI=1S/C6H8N2O/c1-6-4-3(5(6)9)8(4)2-7-6/h2-5,9H,1H3/t3-,4+,5-,6+,8?/m1/s1
