19
gdb 87790	4.30056	0.9663	0.9099	0.2306	76.68	-0.2565	0.0551	0.3116	1339.477	0.156728	-422.977281	-422.968586	-422.967642	-423.011619	32.893	
C	 0.2013098255	 1.5026782653	-0.3488022639	-0.417258
C	 0.084886009	 0.0290331764	-0.0626205311	-0.018394
O	 1.3156674917	-0.7010867155	 0.1049971167	-0.291867
C	 0.4547394826	-0.5673164487	 1.22284191	 0.42509
C	 0.8820859613	 0.105371233	 2.5394229028	-0.397557
C	 0.2243704453	-1.0732183287	 3.2767768499	 0.436056
C	 0.4991965325	-1.6307854141	 4.5992683858	-0.26209
O	-0.7012728834	-0.889055	 4.3333202813	-0.264239
C	-0.150063998	-1.7740633891	 1.9606581474	-0.399006
H	 0.9365162938	 1.9733224354	 0.3090148297	 0.128492
H	 0.5129746046	 1.669978305	-1.385043333	 0.131327
H	-0.7652893193	 1.9979803292	-0.2050896819	 0.123709
H	-0.6552603142	-0.5054305411	-0.6622068734	 0.089681
H	 1.966165838	 0.1807814239	 2.6612467403	 0.120486
H	 0.425179139	 1.0762230798	 2.7507527559	 0.120902
H	 0.3592076131	-2.6964011187	 4.7782329628	 0.116413
H	 1.2151240549	-1.1392946682	 5.2573134154	 0.116134
H	-1.2235809826	-1.9299875666	 1.8238325126	 0.120935
H	 0.3803168763	-2.7111787873	 1.7691379829	 0.121184
18.8325	159.0365	184.5772	201.3078	295.0846	312.6662	348.9902	402.1192	426.4607	461.494	504.1653	663.2314	770.0057	817.8535	826.0163	855.8742	889.6802	904.7651	961.64	964.3684	1031.6376	1047.6397	1099.2569	1121.2124	1126.1756	1133.3025	1155.1413	1169.8952	1209.5588	1214.2324	1220.966	1237.3308	1352.7912	1408.2989	1428.9065	1448.3737	1461.0885	1479.3428	1490.4231	1519.8032	1543.4601	3036.4133	3055.1802	3059.4856	3078.0742	3084.124	3100.343	3112.0024	3113.515	3125.0477	3164.254
CC1OC11CC2(CO2)C1	C[C@H]1O[C@]21C[C@]1(CO1)C2	
InChI=1S/C7H10O2/c1-5-7(9-5)2-6(3-7)4-8-6/h5H,2-4H2,1H3	InChI=1S/C7H10O2/c1-5-7(9-5)2-6(3-7)4-8-6/h5H,2-4H2,1H3/t5-,6-,7-/m1/s1
