18
gdb 116739	5.67251	0.619	0.56197	1.9039	84.5	-0.2396	-0.0837	0.1559	1916.4956	0.146135	-435.28235	-435.272482	-435.271538	-435.318093	34.488	
C	 0.0103984952	 1.2784721874	 0.3174826353	-0.396958
C	 0.2805039181	-0.1923273912	 0.6440651696	-0.110085
N	 0.8286230547	-1.0505427202	-0.3947188392	-0.261241
C	 1.075646042	-0.5834111321	-1.5447975107	 0.117731
N	 1.5990098088	-1.4178464328	-2.5239439713	-0.351799
C	 1.9082561835	-1.0308798417	-3.8077377288	 0.299729
N	 1.7459856594	 0.1565743536	-4.2440215854	-0.499701
C	 2.4625803672	-2.1534044948	-4.6611904281	 0.103243
O	 2.7841433921	-1.9883933904	-5.8069725088	-0.229365
H	 0.9248181221	 1.8072901216	 0.0286281961	 0.126045
H	-0.7171746204	 1.3897750607	-0.4933862363	 0.126033
H	-0.3976301846	 1.7794679886	 1.2002845448	 0.116292
H	 0.9650629518	-0.2565354372	 1.5008944442	 0.114552
H	-0.6486817034	-0.6667369759	 0.9882065861	 0.114541
H	 0.9287191654	 0.4373196998	-1.8979049267	 0.143762
H	 1.7516692146	-2.3753490765	-2.2409302072	 0.256026
H	 2.0484158191	 0.1818084575	-5.2197924362	 0.242308
H	 2.5566532845	-3.1460409761	-4.1657241375	 0.088886
50.3779	74.5108	95.8942	169.0078	187.5899	217.2584	258.8849	324.3097	333.1941	379.994	447.5015	543.7811	599.3811	603.9379	751.1954	778.4342	870.3273	883.9309	956.6503	1010.1602	1026.273	1068.0046	1092.9659	1126.7177	1147.5645	1241.7152	1299.5986	1310.7395	1364.5174	1385.3333	1410.5061	1429.483	1480.0233	1496.1646	1504.3636	1544.789	1700.482	1751.8186	1835.5978	2880.8026	3013.1117	3031.562	3034.9117	3103.6965	3109.7767	3140.609	3468.8399	3609.5287
CCN=CNC(=N)C=O	CCN=CNC(=N)C=O	
InChI=1S/C5H9N3O/c1-2-7-4-8-5(6)3-9/h3-4H,2H2,1H3,(H2,6,7,8)	InChI=1S/C5H9N3O/c1-2-7-4-8-5(6)3-9/h3-4H,2H2,1H3,(H2,6,7,8)
