19
gdb 95789	2.28765	1.66835	1.03451	1.8516	71.79	-0.2339	-0.0313	0.2026	1168.0852	0.157958	-460.185262	-460.176219	-460.175275	-460.21937	33.242	
C	 0.1773785311	 1.6002911571	-0.1174757258	-0.40002
C	 0.1459638946	 0.0865363397	-0.0022217833	 0.012489
O	 0.7436796684	-0.4734919985	-1.1694978728	-0.24041
C	 0.8879787641	-1.8630028232	-1.081935886	 0.013414
O	 1.7789066508	-2.2388791445	-0.0699110429	-0.24041
C	 1.3054471787	-1.8907450155	 1.2293456732	 0.012489
C	 2.3981305223	-2.186783927	 2.2413378596	-0.400019
C	 0.824092195	-0.4314632349	 1.2765481285	 0.359528
O	 0.8973785786	 0.2364295181	 2.2798532925	-0.304759
H	 1.2089020713	 1.9489331302	-0.213509533	 0.134619
H	-0.3833427617	 1.9182775216	-0.9993926753	 0.125093
H	-0.2591031409	 2.051624884	 0.7747713281	 0.141104
H	-0.9039167601	-0.2617734103	 0.0639202306	 0.093702
H	-0.0987241696	-2.3393511271	-0.9177629924	 0.075112
H	 1.3166541659	-2.2004291195	-2.027258483	 0.123549
H	 0.4087148526	-2.5002202137	 1.4581577919	 0.093702
H	 3.2966275939	-1.6112892849	 2.0040122908	 0.134619
H	 2.0642741478	-1.910466127	 3.2425928627	 0.141104
H	 2.6474258646	-3.2501223801	 2.2197879338	 0.125093
45.7073	121.568	179.1936	189.0127	231.4868	302.7446	303.2572	392.5605	400.7899	438.9654	463.114	538.8691	611.8684	701.9083	818.3391	867.0491	879.3156	984.2784	1007.9377	1057.3892	1093.8282	1109.1165	1112.5675	1116.4169	1177.4961	1191.1068	1232.4575	1294.3114	1335.2098	1351.5999	1355.324	1356.047	1404.3514	1406.1676	1440.3942	1481.4537	1481.5405	1495.0066	1495.2993	1505.8549	1821.5692	2908.7482	2908.7679	2919.8121	3059.1191	3059.4505	3118.619	3132.9462	3133.1764	3151.1775	3151.4631
CC1OCOC(C)C1=O	C[C@H]1OCO[C@@H](C)C1=O	
InChI=1S/C6H10O3/c1-4-6(7)5(2)9-3-8-4/h4-5H,3H2,1-2H3	InChI=1S/C6H10O3/c1-4-6(7)5(2)9-3-8-4/h4-5H,3H2,1-2H3/t4-,5+
