17
gdb 54049	2.48801	1.10663	0.84513	1.4418	76.04	-0.257	-0.0543	0.2026	1357.3972	0.130827	-421.821699	-421.811463	-421.810519	-421.857878	35.381	
C	-0.1688864951	 1.4763567501	-0.1214065587	-0.487668
C	-0.026953042	-0.0223279962	-0.0021974197	 0.365546
O	 0.0033302303	-0.6099019592	 1.0521993401	-0.286353
C	 0.0852010822	-0.7975794805	-1.334906367	-0.176598
C	 0.6581722445	-2.2085841959	-1.1150969214	-0.386106
C	 0.8055589009	-2.9422556791	-2.3660955299	 0.270806
C	 0.9127419077	-3.5158583427	-3.417027392	-0.416204
C	-1.3033952708	-0.8499937792	-1.9807200481	 0.15797
O	-1.8631609754	 0.1020176282	-2.457563934	-0.244517
H	 0.7895149822	 1.899893751	-0.4461777233	 0.14622
H	-0.9047017224	 1.7295176886	-0.8902220942	 0.171967
H	-0.4415991675	 1.9049592629	 0.8435543587	 0.144784
H	 0.7165318302	-0.21496403	-2.014839767	 0.127776
H	 1.623162942	-2.1295686234	-0.6038153631	 0.148085
H	 0.005016842	-2.7521492169	-0.4231891755	 0.154792
H	 1.0136639008	-4.0388991675	-4.3357174253	 0.201094
H	-1.7827611097	-1.8516603103	-1.9558436097	 0.108407
55.2534	69.9584	81.1475	120.078	163.025	206.8103	260.411	281.3381	340.9943	367.1073	442.1529	558.3503	587.0228	614.0888	633.2885	653.5027	778.3135	855.9678	932.453	958.1077	995.0316	1037.4991	1071.0483	1101.3348	1169.5126	1203.6191	1235.5318	1307.0534	1352.0788	1387.0833	1419.3091	1466.1283	1466.6242	1473.5224	1802.0199	1829.5428	2238.943	2910.0901	3037.523	3049.1699	3060.3972	3083.8242	3106.2955	3158.4412	3505.4466
CC(=O)C(CC#C)C=O	CC(=O)[C@@H](CC#C)C=O	
InChI=1S/C7H8O2/c1-3-4-7(5-8)6(2)9/h1,5,7H,4H2,2H3	InChI=1S/C7H8O2/c1-3-4-7(5-8)6(2)9/h1,5,7H,4H2,2H3/t7-/m0/s1
