13
gdb 25292	7.88622	0.65509	0.60485	4.1907	83.98	-0.2441	-0.071	0.173	1685.5138	0.089164	-419.432622	-419.424809	-419.423865	-419.466255	27.138	
O	-0.0844557357	-0.0444873151	-0.0008921179	-0.235653
C	-0.0060929876	 1.1647856931	 0.0077216142	-0.009048
C	 1.223547429	 1.9034487963	-0.0002757623	 0.18193
C	 2.2493734639	 2.5484736038	-0.0067435209	-0.079722
C	 3.4403998375	 3.2951193807	-0.0141681084	 0.115977
C	 4.7176414651	 2.793652669	-0.0323312302	-0.097043
O	 5.6188841967	 3.791850332	-0.0346808652	-0.128142
C	 4.9241417674	 4.9682130441	-0.0176083714	 0.013878
C	 3.5922813603	 4.7329089892	-0.0044509178	-0.304698
H	-0.9138300342	 1.8024491426	 0.0228858428	 0.096295
H	 5.104932149	 1.7885620562	-0.0445599279	 0.163545
H	 5.5244251401	 5.8622383801	-0.0173211865	 0.152191
H	 2.7987396387	 5.461881228	 0.0102288514	 0.130489
67.1097	73.4071	112.9318	202.7191	258.8631	409.1536	505.5782	506.8702	617.8097	663.8235	696.6929	748.8082	811.2965	850.2136	888.6036	939.3488	1017.5671	1024.7541	1063.1127	1119.0002	1205.9873	1254.8829	1330.6397	1372.2892	1422.1883	1544.9077	1600.1744	1754.8008	2308.7426	2913.9377	3270.5425	3285.1025	3296.6185
O=CC#CC1=COC=C1	O=CC#Cc1cocc1	
InChI=1S/C7H4O2/c8-4-1-2-7-3-5-9-6-7/h3-6H	InChI=1S/C7H4O2/c8-4-1-2-7-3-5-9-6-7/h3-6H
