19
gdb 80533	2.50046	1.56003	1.28643	2.8778	75.29	-0.2353	-0.0044	0.2309	1055.6818	0.159825	-423.027659	-423.01944	-423.018495	-423.059989	32.22	
C	-0.2420128808	 1.6089225716	-0.0953902716	-0.432055
C	 0.0065371818	 0.1087800644	 0.0012959555	 0.024875
C	 1.1582975807	-0.583130332	-0.815341343	-0.155923
C	 2.4340835455	 0.0976944926	-0.2644039439	-0.274754
C	 2.1115590184	 0.0870817739	 1.2753175145	 0.124042
O	 2.0623899072	 1.3667945395	 1.883895054	-0.432387
C	 0.7132802716	-0.5529876649	 1.2455862768	-0.169596
C	 0.9860889264	-1.6924960851	 0.235904931	 0.423225
O	 0.929790269	-2.885379827	 0.2455868186	-0.325027
H	 0.6471429372	 2.1983173065	 0.1235936693	 0.137213
H	-0.6035132983	 1.8648976285	-1.0974680669	 0.111987
H	-1.014152834	 1.9079150415	 0.6209157098	 0.12258
H	-0.9311511241	-0.4244070582	-0.1888716366	 0.091898
H	 1.0895676071	-0.7698525812	-1.8856257948	 0.081099
H	 3.3423560623	-0.4585570006	-0.5113542834	 0.109823
H	 2.5475828378	 1.122765415	-0.6267997826	 0.111081
H	 2.814475596	-0.5556218847	 1.8229204069	 0.082836
H	 2.9616108964	 1.7073500746	 1.9331607314	 0.283746
H	 0.2121017398	-0.7162721446	 2.1969354849	 0.085339
141.656	166.8168	226.2436	235.7549	255.076	274.1439	337.0246	449.1086	493.8309	532.0713	649.1538	684.9881	723.1098	751.8677	780.8467	844.4428	928.0431	953.4817	977.0468	1002.6712	1034.5766	1048.8974	1073.2963	1088.7475	1119.4342	1129.2753	1164.1564	1183.3519	1209.8897	1229.9971	1261.9091	1268.6899	1318.9347	1341.0876	1404.1817	1416.903	1436.4222	1489.638	1492.9795	1512.2511	1903.0931	3001.8253	3038.6533	3050.4345	3061.0233	3096.3322	3108.9788	3137.0276	3152.0488	3161.8618	3812.0048
CC1C2CC(O)C1C2=O	C[C@H]1[C@H]2C[C@@H](O)[C@@H]1C2=O	
InChI=1S/C7H10O2/c1-3-4-2-5(8)6(3)7(4)9/h3-6,8H,2H2,1H3	InChI=1S/C7H10O2/c1-3-4-2-5(8)6(3)7(4)9/h3-6,8H,2H2,1H3/t3-,4+,5+,6+/m0/s1
