20
gdb 107112	3.16668	1.2618	1.17804	2.4992	78.79	-0.2224	0.0686	0.291	1153.5902	0.170385	-403.064723	-403.05623	-403.055286	-403.097409	33.686	
C	 0.3355075109	 1.3845658934	-0.0898309964	-0.469242
C	 0.0923381146	-0.0889648426	-0.0013841169	 0.37379
C	-0.9808232348	-0.7386514391	 0.8227777907	-0.352376
C	 0.4609332014	-1.1299821959	 1.0363091796	-0.190032
C	 1.0245550812	-1.9738360839	-0.1235830755	 0.289509
C	 2.4480325662	-2.4814218824	-0.1250787312	-0.142511
O	 2.9629187704	-2.536927945	-1.4379034224	-0.416033
C	 0.0642371772	-2.2750456202	-1.1999536032	-0.291095
N	 0.6705773662	-0.9191937403	-1.1456537801	-0.241755
H	 1.3850999447	 1.5930611796	-0.3201456026	 0.125924
H	-0.274852655	 1.8301089206	-0.8843628471	 0.127138
H	 0.0812788688	 1.8786053097	 0.8526773739	 0.117699
H	-1.3657797449	-0.0826964847	 1.5985642368	 0.117632
H	-1.7308027216	-1.4205077335	 0.4379009626	 0.113766
H	 0.9704239324	-1.014917221	 1.984438864	 0.093097
H	 3.0573710588	-1.8270099196	 0.5221178611	 0.085682
H	 2.504045014	-3.494775719	 0.2903139095	 0.111595
H	 2.6964657208	-1.7021147778	-1.8503837244	 0.29346
H	 0.4530324016	-2.8402277167	-2.0409477111	 0.133696
H	-0.9935780327	-2.4162986116	-1.0159735974	 0.120057
98.6883	157.0131	194.2545	220.4913	289.6525	338.8932	351.5071	464.6664	472.0793	530.9209	544.4055	599.9255	647.2917	741.6309	792.35	807.4587	877.6033	903.8403	941.6824	959.4173	974.6022	1011.8722	1033.5848	1067.0545	1068.7298	1092.6759	1103.2557	1129.1098	1140.981	1172.1821	1208.3148	1225.8796	1291.3737	1364.2462	1382.1064	1388.9698	1423.2131	1445.7506	1475.4696	1479.509	1499.1401	1509.5465	1520.4543	2953.7856	3028.145	3052.0433	3090.9221	3111.783	3124.6615	3141.8496	3191.1592	3201.276	3224.6044	3728.2562
CC12CC1C1(CO)CN21	C[C@]12C[C@H]1[C@@]1(CO)CN21	
InChI=1S/C7H11NO/c1-6-2-5(6)7(4-9)3-8(6)7/h5,9H,2-4H2,1H3	InChI=1S/C7H11NO/c1-6-2-5(6)7(4-9)3-8(6)7/h5,9H,2-4H2,1H3/t5-,6+,7+,8?/m1/s1
