19
gdb 30863	2.26252	1.43768	0.91557	1.1561	81.4	-0.1894	0.0345	0.2239	1311.1493	0.157341	-423.06078	-423.050945	-423.050001	-423.096058	34.619	
C	 0.1499503107	 1.3105994019	-0.0298133589	-0.252654
O	-0.4152521593	 0.0984260414	 0.4765908566	-0.269676
C	 0.3891947619	-0.6335791178	 1.2611967208	 0.323396
C	 0.692349812	-1.9576613181	 1.2317818548	 0.149836
C	 0.2457054841	-2.9594173374	 0.2148155229	-0.506733
C	 1.5240025526	-2.1651011674	 2.3925549231	-0.370839
C	 1.6673681268	-0.968763357	 3.0169375295	 0.366316
C	 2.4038034676	-0.5177108095	 4.2253625187	-0.487204
O	 0.9623854221	-0.0090091955	 2.3305085999	-0.225348
H	 1.0522944679	 1.102719866	-0.6176256873	 0.121468
H	-0.6116791903	 1.7578106066	-0.6703822217	 0.134342
H	 0.3974356713	 1.9998004007	 0.7832116241	 0.137508
H	 1.0970192275	-3.4610153675	-0.2600848085	 0.122371
H	-0.3792578928	-3.7418015947	 0.6616281404	 0.125672
H	-0.3403451813	-2.4725152974	-0.5688474627	 0.130731
H	 1.9642279845	-3.0992590898	 2.7087571773	 0.101161
H	 3.1527087661	 0.2462386196	 3.984167803	 0.131883
H	 1.730306885	-0.0873668917	 4.976001734	 0.13443
H	 2.9196100335	-1.3674506626	 4.678603674	 0.133341
45.576	134.4043	135.6598	143.0847	159.6553	195.9362	237.2371	269.7545	312.3185	399.7133	527.7201	590.2541	623.9697	633.2301	701.6678	796.6561	801.5168	969.7807	997.8812	1014.3481	1035.4057	1064.1429	1066.5847	1144.8503	1175.1477	1180.1216	1206.326	1279.8177	1285.1071	1397.4318	1415.724	1426.1869	1471.3414	1477.7518	1486.0118	1487.8338	1496.6274	1498.838	1504.9932	1634.6596	1705.5589	3021.5747	3023.4418	3024.8268	3070.5307	3070.7203	3096.9245	3116.7106	3125.1958	3141.6381	3242.3012
COC1=C(C)C=C(C)O1	COc1c(C)cc(C)o1	
InChI=1S/C7H10O2/c1-5-4-6(2)9-7(5)8-3/h4H,1-3H3	InChI=1S/C7H10O2/c1-5-4-6(2)9-7(5)8-3/h4H,1-3H3
