21
gdb 96388	1.99762	1.64461	1.18361	4.5074	81.65	-0.2358	0.0275	0.2633	1155.1837	0.184949	-383.298441	-383.289651	-383.288707	-383.33157	33.962	
C	-0.0250372306	 1.5669601364	-0.0213196534	-0.418323
C	 0.0496710181	 0.038676832	-0.0249512293	 0.024437
C	 0.6890839676	-0.5228140957	-1.3050788397	-0.198586
C	 0.7576160399	-2.0564544472	-1.2728453328	-0.207907
C	 1.4630738041	-2.5402625466	 0.0026797147	-0.167821
N	 0.8925544822	-1.9954343462	 1.2419189303	-0.28682
C	 0.7810390979	-0.5328357339	 1.2260564816	-0.146622
C	 2.1303108765	 0.0521413384	 1.3606177183	 0.317032
N	 3.1791997927	 0.5299983395	 1.4446176759	-0.34233
H	 0.9725170446	 2.0128402545	-0.0856925069	 0.14385
H	-0.6085910379	 1.9233885747	-0.8759190062	 0.117563
H	-0.5023675054	 1.9438135664	 0.8899683308	 0.114326
H	-0.9727713299	-0.3603092433	 0.0467326152	 0.071797
H	 0.122021714	-0.1796918748	-2.1776702611	 0.096737
H	 1.702022148	-0.1106334366	-1.4095356171	 0.117429
H	-0.2595682893	-2.4714150803	-1.3047838578	 0.088939
H	 1.2812922326	-2.4366152128	-2.157511616	 0.099362
H	 1.439276893	-3.631673523	 0.0771505795	 0.105603
H	 2.5204315151	-2.2481184526	-0.0287310306	 0.1287
H	-0.0363508706	-2.378402453	 1.3894546308	 0.221412
H	 0.2252848276	-0.2350383058	 2.1236923439	 0.121222
96.6908	146.2895	170.128	222.6434	262.9119	295.2441	331.8713	395.1122	428.527	432.5984	539.9558	616.9628	634.7178	739.81	771.2345	861.2191	871.1313	879.1411	943.7166	962.8268	992.0954	1004.3155	1047.2944	1101.2513	1120.3342	1155.3887	1169.0567	1180.1131	1245.0853	1275.833	1303.1783	1327.1128	1345.194	1369.96	1381.6281	1385.1925	1392.1904	1415.3999	1478.0001	1483.0106	1493.0929	1494.5201	1497.1845	1501.5313	2355.2509	2995.4733	3009.376	3020.3653	3032.3499	3032.7396	3038.0661	3062.6938	3067.576	3086.0855	3098.8831	3110.5101	3513.1355
CC1CCCNC1C#N	C[C@H]1CCCN[C@H]1C#N	
InChI=1S/C7H12N2/c1-6-3-2-4-9-7(6)5-8/h6-7,9H,2-4H2,1H3	InChI=1S/C7H12N2/c1-6-3-2-4-9-7(6)5-8/h6-7,9H,2-4H2,1H3/t6-,7-/m0/s1
