16
gdb 39785	3.09624	1.87746	1.52225	1.5953	67.38	-0.2399	0.0687	0.3087	882.7303	0.125491	-437.775412	-437.769047	-437.768102	-437.805865	26.482	
C	-0.0166979299	 1.4993498185	 0.0096870265	-0.298731
O	 1.2498128591	 0.7963659214	-0.0072619458	-0.259161
C	 0.0791454268	 0.0486626147	 0.0016767744	 0.516352
C	-0.5046511462	-0.970776159	 0.9949977942	-0.050893
O	-1.5967149296	-1.1111847585	 0.0140386176	-0.301974
C	-0.5258947301	-0.9612234381	-0.9886863016	-0.050892
C	 0.2842719542	-2.2523334153	-0.7536129359	-0.048054
N	 1.5537375266	-2.0346854088	-0.0241512939	-0.31267
C	 0.3001670512	-2.259477366	 0.7302070989	-0.048055
H	-0.2414981661	 2.026963441	 0.935008861	 0.12026
H	-0.2612113845	 2.0358222396	-0.9054864121	 0.12026
H	-0.8396470452	-0.7336787235	 2.0031054687	 0.087209
H	-0.8823804975	-0.7144618084	-1.9870574278	 0.087209
H	 0.1298706986	-3.1361508696	-1.3597741134	 0.102961
H	 2.0901449255	-2.9008667089	-0.0340696969	 0.23322
H	 0.1586942472	-3.149105739	 1.330999326	 0.102961
192.0906	245.939	295.4109	377.8043	458.5204	501.4291	609.7605	677.6715	726.6887	781.4365	832.6247	835.3655	839.5085	890.9947	903.1207	912.5578	933.462	936.2946	1015.7951	1041.0789	1064.0102	1099.3676	1112.8835	1133.9553	1146.4524	1164.9963	1187.8842	1192.3892	1242.9893	1256.7847	1299.8691	1334.3327	1392.4417	1466.6572	1558.7968	3088.1281	3142.809	3145.0751	3175.8849	3188.9355	3198.7829	3483.1471
C1OC11C2OC1C1NC21	C1O[C@]21[C@H]1O[C@@H]2[C@H]2N[C@@H]12	
InChI=1S/C6H7NO2/c1-6(8-1)4-2-3(7-2)5(6)9-4/h2-5,7H,1H2	InChI=1S/C6H7NO2/c1-6(8-1)4-2-3(7-2)5(6)9-4/h2-5,7H,1H2/t2-,3+,4+,5-,6-
