18
gdb 69285	3.96772	1.1179	0.98299	1.5595	87.55	-0.2235	-0.0281	0.1954	1236.993	0.147289	-364.775956	-364.767617	-364.766673	-364.808489	32.66	
C	 0.0398695428	 1.5055387552	-0.0192739357	-0.468269
C	-0.0434820241	 0.0044510753	 0.086371285	 0.334119
C	-1.3674862397	-0.6945704569	-0.2469662783	-0.327602
C	-1.3607194418	-1.9359496603	 0.6099926458	-0.200767
C	-0.2869648527	-1.9818924591	 1.4216198092	 0.203698
C	 0.0154722407	-2.9762120432	 2.3821046249	 0.215786
C	 0.3057679273	-3.7948363729	 3.2174911932	-0.423845
C	 0.6187214511	-0.811259784	 1.1535152203	-0.191106
N	 1.1930796604	-0.7345448742	-0.2085666025	-0.363377
H	 1.0307937834	 1.8542725212	 0.2806166147	 0.131959
H	-0.132107475	 1.8338369084	-1.0510338636	 0.119671
H	-0.7106151823	 1.9879330772	 0.6164445445	 0.115728
H	-2.2233951514	-0.0504577972	-0.0012507967	 0.118822
H	-1.458576903	-0.9220213782	-1.3179725216	 0.117083
H	-2.1264862303	-2.7001681815	 0.5555378137	 0.106119
H	 0.5532100422	-4.5247580179	 3.9477692424	 0.19372
H	 1.2344804143	-0.4043459478	 1.9485939316	 0.094018
H	 0.9972337981	-1.599329834	-0.7101486567	 0.224241
110.5706	141.1284	194.7973	229.5457	302.3751	363.7098	380.9904	436.1167	506.1992	532.742	587.7664	623.164	638.7948	664.6192	754.7433	799.0731	827.6834	885.3048	925.4294	954.3339	987.1881	1019.1175	1041.002	1090.5976	1119.9895	1171.7148	1175.7477	1192.178	1263.8524	1273.7334	1320.0818	1330.6409	1403.9932	1432.8033	1469.0233	1487.6555	1495.2492	1649.654	2222.5983	3010.2046	3030.0877	3036.0695	3089.3843	3124.7153	3170.4387	3209.2994	3473.0135	3503.1584
CC12CC=C(C#C)C1N2	C[C@]12CC=C(C#C)[C@H]1N2	
InChI=1S/C8H9N/c1-3-6-4-5-8(2)7(6)9-8/h1,4,7,9H,5H2,2H3	InChI=1S/C8H9N/c1-3-6-4-5-8(2)7(6)9-8/h1,4,7,9H,5H2,2H3/t7-,8+/m1/s1
