19
gdb 71911	3.20611	1.7135	1.64514	0.7987	72.93	-0.242	0.0777	0.3197	917.241	0.161684	-423.035466	-423.028759	-423.027815	-423.066062	28.539	
C	-0.0201929151	 1.4671119988	 0.0231301123	-0.476234
C	 0.0481034794	-0.0412116765	 0.0002289596	 0.354446
C	 0.6175251173	-0.7008491346	-1.2865154042	-0.249454
C	 0.1978392597	-2.1611887246	-1.0552615042	 0.056901
O	 1.0590362508	-2.7786623224	-0.0697828022	-0.305676
C	 0.2637920041	-2.1890281293	 0.9856942392	 0.056889
C	 0.6988395693	-0.7351714309	 1.229072862	-0.249434
C	-0.9332663725	-1.9694593684	 0.0056343764	 0.056778
O	-1.2841658911	-0.6098085247	 0.0355290729	-0.285411
H	 0.9866209313	 1.8944540196	-0.0015237354	 0.121137
H	-0.5746654028	 1.8413060956	-0.8426310956	 0.125116
H	-0.5207387881	 1.8165406548	 0.9310711331	 0.125181
H	 0.1222353427	-0.2747103121	-2.1649262977	 0.101511
H	 1.7000372128	-0.6072494149	-1.397504109	 0.108523
H	 0.0708607226	-2.7782084207	-1.9460099804	 0.079885
H	 0.1940245369	-2.8302084926	 1.8656306103	 0.079885
H	 1.7863445235	-0.6436865196	 1.2723761232	 0.10852
H	 0.2617340911	-0.3335572807	 2.1489420941	 0.101507
H	-1.8023443018	-2.6215272167	 0.0248222657	 0.089929
194.6689	250.4428	284.0362	389.4715	392.8565	464.5867	554.9693	608.0964	645.6525	673.8247	777.2564	833.1414	850.7815	853.5202	876.9275	885.8921	903.0137	966.9971	984.9392	990.5017	1012.5533	1058.5293	1082.522	1097.603	1103.266	1129.0803	1195.761	1199.6208	1219.434	1258.4027	1278.2772	1294.6668	1305.5774	1324.2978	1352.1306	1361.2497	1417.4271	1456.9869	1473.617	1484.0577	1494.2512	3040.7915	3053.9933	3056.6317	3101.8315	3104.3464	3113.8615	3115.8278	3118.7214	3122.77	3161.6213
CC12CC3OC(C1)C3O2	C[C@@]12C[C@H]3O[C@@H](C1)[C@H]3O2	
InChI=1S/C7H10O2/c1-7-2-4-6(9-7)5(3-7)8-4/h4-6H,2-3H2,1H3	InChI=1S/C7H10O2/c1-7-2-4-6(9-7)5(3-7)8-4/h4-6H,2-3H2,1H3/t4-,5+,6+,7-
