14
gdb 124104	3.72101	1.65824	1.18415	1.5513	62.4	-0.2394	-0.0099	0.2295	952.0952	0.105224	-469.997637	-469.991261	-469.990316	-470.028482	24.53	
C	 0.0326984712	 1.3821303164	 0.016906525	-0.000255
O	 1.3156262983	 1.9233655718	-0.0186333436	-0.233404
C	 2.0635995106	 1.6877325539	 1.1833972012	-0.198635
C	 1.8860366089	 0.2462601433	 1.5325908684	 0.192814
N	 2.5603342283	-0.5421525392	 2.3652548265	-0.286129
N	 1.9649816545	-1.7183081115	 2.2030055044	-0.092635
N	 0.9495576084	-1.7766598345	 1.3330493997	-0.309771
C	 0.8938137958	-0.5237737625	 0.9041439941	 0.380051
O	 0.0227473709	-0.0557545515	-0.0074310134	-0.254891
H	-0.5119253829	 1.7093228417	 0.9171980879	 0.102956
H	-0.4827360731	 1.6973619522	-0.8894797793	 0.137335
H	 3.1010175067	 1.9398409643	 0.9511244252	 0.145494
H	 1.7192835838	 2.3585469624	 1.9849360807	 0.120504
H	 2.2652921188	-2.5352373769	 2.7074250631	 0.296565
129.355	233.5798	339.2618	384.5017	429.6624	439.6228	483.3641	600.8365	697.9397	733.803	743.2079	792.9083	948.7181	989.981	992.3615	1030.8311	1099.618	1148.7783	1184.1516	1210.2073	1239.3283	1268.79	1317.9043	1357.2911	1408.8029	1434.3452	1462.7521	1493.5868	1508.4343	1570.7098	1609.9478	2977.8275	2992.7445	3101.0518	3146.7922	3685.2071
C1OCC2=NNN=C2O1	C1OCc2n[nH]nc2O1	
InChI=1S/C4H5N3O2/c1-3-4(6-7-5-3)9-2-8-1/h1-2H2,(H,5,6,7)	InChI=1S/C4H5N3O2/c1-3-4(6-7-5-3)9-2-8-1/h1-2H2,(H,5,6,7)
