17
gdb 31275	2.76694	1.25296	0.89057	2.5585	73.31	-0.19	0.0285	0.2185	1278.7934	0.136514	-455.165781	-455.156702	-455.155758	-455.200547	31.973	
C	 0.1462471227	 1.4325050358	 0.0429109641	-0.234659
O	 0.0060883775	 0.0171662216	 0.0076110747	-0.278444
C	 0.5559709062	-0.6000522165	-1.0597739447	 0.297222
C	 0.5941510834	-1.9636381087	-1.2430478181	 0.209253
C	 0.0948126629	-3.1158368579	-0.4529773902	-0.211481
O	 1.06434679	-4.1638682195	-0.5407656551	-0.429554
N	 1.213381699	-2.1156919532	-2.4724915286	-0.28965
C	 1.528135483	-0.8824583116	-2.9339919584	 0.005386
N	 1.1288871733	 0.0651467832	-2.1051503656	-0.35355
H	 1.2007663557	 1.728409184	 0.0459212726	 0.128037
H	-0.3407486725	 1.9018378193	-0.8179880646	 0.130658
H	-0.3348434677	 1.7563291318	 0.9675733198	 0.12058
H	-0.0673925556	-2.7844658419	 0.5822966901	 0.118333
H	-0.8757817049	-3.4759438861	-0.8356346733	 0.096973
H	 0.680787101	-4.9535914338	-0.1468887253	 0.289098
H	 1.4890253252	-3.0048058609	-2.8554627906	 0.271943
H	 2.0490754606	-0.7233344657	-3.8656021267	 0.129855
48.793	73.4514	150.5451	168.6376	198.3256	271.3215	297.661	323.0658	390.0104	540.6318	581.3537	632.9921	679.6303	735.4548	769.9463	781.1728	957.2235	1015.0323	1032.6671	1061.5909	1121.0837	1176.0695	1181.2602	1204.0103	1220.243	1245.5228	1273.1476	1334.1215	1384.7631	1455.8475	1461.6822	1479.7083	1497.9489	1504.6914	1517.4712	1528.2111	1657.793	2944.4934	3019.1807	3030.0372	3095.1543	3136.2725	3256.1539	3666.7568	3821.7511
COC1=C(CO)NC=N1	COc1c(CO)[nH]cn1	
InChI=1S/C5H8N2O2/c1-9-5-4(2-8)6-3-7-5/h3,8H,2H2,1H3,(H,6,7)	InChI=1S/C5H8N2O2/c1-9-5-4(2-8)6-3-7-5/h3,8H,2H2,1H3,(H,6,7)
