21
gdb 62943	1.86514	1.84419	1.50199	1.5048	77.55	-0.2406	0.0631	0.3038	1053.2058	0.180362	-424.202633	-424.193346	-424.192402	-424.235449	37.288	
C	-0.4508006245	 1.526453615	 0.3932626579	-0.467251
C	-0.1182044859	 0.0505800061	 0.2398146249	 0.326097
O	-1.2073352623	-0.749289502	 0.7024548943	-0.48034
C	 0.2698830835	-0.4917176527	-1.1387013374	-0.068322
C	 1.5816502524	 0.065731384	-1.609012181	-0.314518
C	 1.5897550256	-1.0443554552	-0.5978865805	-0.101852
C	 1.2689241425	-0.5266426417	 0.8207683204	 0.359134
C	 2.2608493228	 0.415221739	 1.4820108446	-0.432818
O	 1.0330301994	-1.5742509048	 1.7347043043	-0.48787
H	 0.3375240677	 2.166397875	-0.0101102592	 0.122458
H	-1.3838833926	 1.7578573892	-0.1302531752	 0.126209
H	-0.5768414745	 1.7907303172	 1.4509397463	 0.111438
H	-1.4465636425	-0.4336280247	 1.5818074973	 0.28286
H	-0.4463767796	-0.9483747134	-1.8110302559	 0.090279
H	 1.8631730449	-0.2247816696	-2.6162797255	 0.116652
H	 1.8957940908	 1.072422979	-1.3467988351	 0.104797
H	 2.0590575405	-2.002535492	-0.7870903916	 0.086471
H	 2.5484418025	 1.2406778978	 0.8273042918	 0.109144
H	 1.8379544669	 0.8306185143	 2.4021155822	 0.114195
H	 3.1650703191	-0.1398041611	 1.7509191588	 0.126738
H	 0.1922397033	-1.9721554294	 1.4662195287	 0.276499
147.3207	204.5794	212.0157	234.3273	241.323	290.2758	294.8107	344.2713	362.8228	415.4373	467.4146	501.5604	552.6749	593.5685	629.198	660.8823	784.7565	802.872	861.9815	942.2708	947.7486	963.4385	970.2212	1003.2362	1016.3276	1072.0298	1090.4861	1102.613	1119.6589	1138.8338	1172.2088	1178.235	1205.336	1224.2153	1290.5319	1340.576	1387.511	1393.5099	1409.7457	1426.2547	1478.7997	1485.4339	1488.8498	1495.3448	1505.3284	3024.8781	3042.5966	3091.3719	3107.9547	3116.1181	3120.912	3128.5772	3179.0857	3186.5713	3201.0949	3726.0655	3793.8131
CC1(O)C2CC2C1(C)O	C[C@@]1(O)[C@H]2C[C@H]2[C@]1(C)O	
InChI=1S/C7H12O2/c1-6(8)4-3-5(4)7(6,2)9/h4-5,8-9H,3H2,1-2H3	InChI=1S/C7H12O2/c1-6(8)4-3-5(4)7(6,2)9/h4-5,8-9H,3H2,1-2H3/t4-,5+,6+,7-
