19
gdb 39112	4.02506	1.17532	1.07281	0.5614	75.4	-0.2319	0.057	0.2889	1176.3902	0.159556	-422.957488	-422.949484	-422.948539	-422.990962	30.035	
C	-0.1811448914	 1.3620202643	 0.2400237615	-0.338808
C	 1.2109475283	 0.8563262061	-0.0997355824	-0.186945
C	 1.7832096302	 0.1272464242	 1.1097553102	-0.090145
O	 0.5890992629	-0.6978111262	 1.2302209876	-0.336701
C	 0.049735062	-0.1020624283	 0.0419459065	 0.480105
C	-0.6532988955	-0.9992124352	-0.924542426	 0.032088
C	-2.1507594112	-1.3095993645	-0.6745948721	-0.292408
C	-2.368778157	-0.6308716282	-2.0402834856	-0.060182
O	-0.9631585408	-0.3048937825	-2.154299303	-0.29298
H	-0.4039978136	 1.7448649878	 1.2326483715	 0.108081
H	-0.6772572657	 1.8604231793	-0.5857584165	 0.128227
H	 1.7558424786	 1.1739007617	-0.9776819171	 0.109473
H	 2.6548218154	-0.4956585303	 0.8797524958	 0.110038
H	 1.9754658349	 0.7128624285	 2.0168796731	 0.103864
H	-0.0372230913	-1.8899902952	-1.1072331333	 0.081087
H	-2.4119166766	-2.366293842	-0.6152530898	 0.114051
H	-2.5784226711	-0.7789405199	 0.1770836346	 0.119742
H	-2.6935988187	-1.2962553572	-2.8494596679	 0.104647
H	-2.9963417795	 0.2674549376	-2.045949597	 0.106766
54.46	72.2145	153.0382	201.9667	303.7006	381.3828	414.0788	480.1335	668.8725	753.5716	782.7748	822.4562	850.6493	877.1192	940.2274	951.1784	952.4232	975.9742	995.1692	998.002	1022.6477	1034.4176	1061.5742	1071.6084	1102.6444	1135.7636	1150.299	1167.0439	1177.375	1217.6988	1256.1993	1270.0964	1271.9411	1335.8447	1356.8486	1375.403	1413.2819	1482.3703	1488.8152	1518.7429	1530.1954	3010.9546	3021.4963	3022.7564	3062.8801	3071.7399	3088.0226	3114.0829	3145.4873	3210.26	3219.1106
C1C2COC12C1CCO1	C1[C@H]2CO[C@@]12[C@H]1CCO1	
InChI=1S/C7H10O2/c1-2-8-6(1)7-3-5(7)4-9-7/h5-6H,1-4H2	InChI=1S/C7H10O2/c1-2-8-6(1)7-3-5(7)4-9-7/h5-6H,1-4H2/t5-,6+,7-/m0/s1
