21
gdb 103681	3.72216	0.93709	0.90319	2.188	79.02	-0.2414	-0.0294	0.2119	1396.7027	0.179294	-424.230175	-424.220107	-424.219163	-424.266075	36.326	
C	-0.0221845898	 1.631565339	-0.2460612933	-0.391872
C	 0.0420747515	 0.1016534503	-0.2871539581	-0.216176
C	-1.2801605321	-0.5903030461	 0.0471648885	 0.440015
C	-2.4088327717	-0.268376646	-0.9216692744	-0.436631
C	-1.1416348828	-2.0908455654	 0.4232643272	-0.360287
C	-1.5822898343	-1.6431065612	 1.8240467729	 0.05621
O	-1.6851545028	-0.2629027793	 1.4250242949	-0.343427
C	-2.9220436851	-2.1500160063	 2.3219817629	 0.13222
O	-3.369865322	-3.2414906122	 2.0828251877	-0.238259
H	 0.9747734114	 2.0624409092	-0.3764949951	 0.113504
H	-0.6614496616	 2.0371663217	-1.0358816513	 0.117372
H	-0.4154219679	 1.969036753	 0.7172255803	 0.136754
H	 0.3720636023	-0.2432126651	-1.2760881639	 0.097323
H	 0.7941708494	-0.2465911897	 0.4308844757	 0.09622
H	-2.1321295951	-0.5533959378	-1.9426407482	 0.118296
H	-3.3169733395	-0.8128087533	-0.6477705138	 0.122247
H	-2.6414651165	 0.799929146	-0.91286326	 0.130058
H	-1.8381734608	-2.773636538	-0.065104372	 0.126769
H	-0.129354214	-2.491108932	 0.357159954	 0.109891
H	-0.8426385705	-1.7833764948	 2.6279442336	 0.09947
H	-3.4760047982	-1.4016936722	 2.9326474723	 0.090306
31.8203	78.4548	97.4329	151.2596	215.353	230.2117	262.9571	307.4103	342.9065	375.1029	440.8372	480.5649	577.5896	666.129	776.9274	784.142	874.3052	879.3473	901.8547	925.6769	982.8762	1001.9143	1032.8713	1045.7735	1068.4305	1081.5919	1130.4983	1166.3941	1215.0005	1251.3173	1268.4913	1275.8644	1325.705	1350.4767	1378.4548	1401.887	1408.2572	1409.6461	1472.6695	1487.1994	1490.1584	1495.0093	1505.4603	1509.8717	1831.7246	2886.2303	2981.9789	3020.7409	3037.9921	3042.8516	3057.9074	3085.3787	3107.8207	3109.7512	3118.8056	3121.529	3142.3139
CCC1(C)CC(O1)C=O	CC[C@@]1(C)C[C@@H](O1)C=O	
InChI=1S/C7H12O2/c1-3-7(2)4-6(5-8)9-7/h5-6H,3-4H2,1-2H3	InChI=1S/C7H12O2/c1-3-7(2)4-6(5-8)9-7/h5-6H,3-4H2,1-2H3/t6-,7+/m1/s1
