17
gdb 66542	3.06349	1.73948	1.43015	3.1743	74.98	-0.2221	-0.0069	0.2152	944.295	0.136421	-384.635117	-384.628188	-384.627244	-384.666264	28.077	
C	-0.0162311781	 1.4330504798	 0.0488116609	-0.515169
C	-0.0513999079	-0.0637012622	 0.0365821063	 0.358812
C	 0.4764654513	-1.0462996192	-0.9833951624	-0.169099
C	 1.1791204189	-0.9510988445	 0.3520538405	-0.110411
C	 0.5106393689	-2.2030265935	 0.9533650949	-0.197295
C	-0.4456413451	-2.1115078803	-0.3105991654	-0.046472
C	-1.1941925242	-0.9892211557	 0.5221289141	-0.256007
C	-0.667075813	-1.6762843101	 1.795139749	 0.442325
O	-1.0905188271	-1.8806169889	 2.8946833355	-0.328418
H	 0.930814919	 1.8007289689	-0.3613655637	 0.123123
H	-0.8263313908	 1.8588530172	-0.5536532215	 0.123769
H	-0.1127891637	 1.8267759825	 1.0672401556	 0.129635
H	 0.8379397853	-0.9067663703	-1.9932381307	 0.094488
H	 2.1414767295	-0.5210171035	 0.5963499045	 0.094724
H	 1.1055314826	-3.0702716953	 1.2290830008	 0.085519
H	-0.9451694462	-2.9670333629	-0.7543062769	 0.087823
H	-2.2315037195	-0.692408132	 0.3844477585	 0.082652
119.6385	207.0551	240.2515	281.0843	405.6299	547.5931	575.6337	597.364	714.196	744.8942	778.5768	800.9115	821.7066	863.1064	879.0493	883.3016	913.0844	940.3302	967.4104	980.2327	1011.2401	1066.2279	1077.7519	1097.4248	1137.3044	1153.7473	1162.3639	1175.4748	1207.4267	1220.4857	1248.8214	1283.7434	1405.5641	1428.1643	1483.2351	1499.595	1887.8654	3023.0548	3085.5587	3093.0507	3147.1209	3151.5834	3167.4711	3197.3653	3209.3099
CC12C3C1C1C3C2C1=O	C[C@@]12[C@H]3[C@@H]1[C@@H]1[C@H]3[C@H]2C1=O	
InChI=1S/C8H8O/c1-8-4-2-3(5(4)8)7(9)6(2)8/h2-6H,1H3	InChI=1S/C8H8O/c1-8-4-2-3(5(4)8)7(9)6(2)8/h2-6H,1H3/t2-,3+,4-,5+,6+,8-/m1/s1
