15
gdb 97193	3.84263	1.18869	0.93478	3.248	66.88	-0.2564	0.	0.2565	1197.0476	0.11393	-491.138268	-491.130235	-491.129291	-491.171449	28.638	
C	 0.0196749435	 1.4500026418	-0.2198920301	-0.33105
N	-0.0258836247	 0.0027685449	-0.1163864194	-0.344413
C	-1.1096231175	-0.5765813716	 0.1420595865	 0.500129
N	-1.1614714632	-1.9665558497	 0.2961339561	-0.439427
C	-2.3054701684	-2.7424066147	 0.2116621863	 0.483132
O	-2.3125981611	-3.9228858413	 0.0157802726	-0.363089
O	-3.4523529272	-2.0244540983	 0.3787972763	-0.218565
C	-3.2790024776	-0.7550151083	 0.9741138879	-0.004834
O	-2.3289476486	 0.0225428622	 0.2757853106	-0.234828
H	 0.906746053	 1.8138003456	 0.3081487378	 0.12964
H	 0.1320251073	 1.7396017975	-1.2714226006	 0.133527
H	-0.8660379554	 1.9551189438	 0.1819500625	 0.121996
H	-0.2887669831	-2.4499004951	 0.1411105931	 0.284982
H	-4.2325345998	-0.2350125527	 0.9004314334	 0.152504
H	-2.9713285169	-0.8739715841	 2.0211011168	 0.130298
90.2277	101.3452	144.8039	213.027	257.7083	290.6475	413.3875	471.9299	539.7457	624.6781	665.7087	717.7304	769.3325	787.6633	874.0822	919.7584	1023.5936	1060.1264	1100.819	1136.0163	1165.4226	1173.9543	1249.1684	1295.5952	1369.4486	1417.6989	1446.2021	1461.3054	1494.2955	1501.7824	1521.3106	1811.9112	1886.3155	3018.977	3027.8531	3078.7884	3093.9841	3158.3026	3634.652
CN=C1NC(=O)OCO1	CN=C1NC(=O)OCO1	
InChI=1S/C4H6N2O3/c1-5-3-6-4(7)9-2-8-3/h2H2,1H3,(H,5,6,7)	InChI=1S/C4H6N2O3/c1-5-3-6-4(7)9-2-8-3/h2H2,1H3,(H,5,6,7)
