22
gdb 13213	4.13742	1.14457	0.9597	1.4584	78.51	-0.2555	0.0717	0.3271	1286.8683	0.199718	-350.199929	-350.190618	-350.189674	-350.234026	34.417	
C	 0.018619054	 1.5837564121	-0.0290747976	-0.381381
C	-0.0214858316	 0.0569102242	 0.0686702585	-0.187018
C	-1.4392433651	-0.5184271058	-0.0441048692	 0.117311
O	-2.0679645322	-0.1349597778	-1.2689157425	-0.434507
C	-1.4755503739	-2.0304317053	 0.1335501537	 0.041327
C	-1.178562684	-2.6389447161	 1.5356251697	-0.232288
C	-2.3234419926	-3.6597914567	 1.2938486928	-0.214923
C	-2.8589619972	-2.7377857357	 0.164968696	-0.228403
H	 1.0464605872	 1.9581913685	-0.0051070081	 0.106571
H	-0.4517721044	 1.9201412545	-0.9566760155	 0.12725
H	-0.5246695558	 2.0445881829	 0.8034053241	 0.112805
H	 0.597513802	-0.3860868515	-0.7259036586	 0.081302
H	 0.419934235	-0.2742308042	 1.0170641999	 0.100308
H	-2.0689721793	-0.0614864979	 0.7323959177	 0.076469
H	-1.5732217411	-0.5454052677	-1.9873344685	 0.27388
H	-0.8272979558	-2.4962761416	-0.6222427494	 0.05416
H	-0.1750500844	-3.028675908	 1.7224529867	 0.095039
H	-1.4286354018	-1.9320538604	 2.3344340935	 0.098717
H	-1.9432440677	-4.6067973318	 0.8998802576	 0.100013
H	-2.9905609184	-3.8787990023	 2.1308231285	 0.095793
H	-3.638300203	-2.058669857	 0.5245431077	 0.103398
H	-3.2129351299	-3.2083992624	-0.7548469971	 0.094176
81.5887	90.5247	126.082	150.034	220.2402	255.5617	289.3964	327.1434	387.389	449.7804	508.726	656.5578	768.3311	780.0895	800.7812	883.2883	904.3196	934.3687	958.6054	975.5095	987.5963	1036.0412	1053.2001	1082.4445	1103.9385	1132.9559	1169.0964	1204.3853	1222.6162	1255.9918	1259.2348	1262.7637	1272.9502	1289.0093	1303.9813	1331.0264	1377.2588	1397.5697	1405.1379	1418.8993	1477.7474	1479.6787	1485.876	1495.8363	1509.1812	1509.7841	2996.6713	2998.9422	3018.7983	3036.5547	3043.7237	3051.6833	3055.1273	3058.569	3095.4809	3100.5462	3104.1262	3117.9338	3121.953	3793.4137
CCC(O)C1CCC1	CC[C@@H](O)C1CCC1	
InChI=1S/C7H14O/c1-2-7(8)6-4-3-5-6/h6-8H,2-5H2,1H3	InChI=1S/C7H14O/c1-2-7(8)6-4-3-5-6/h6-8H,2-5H2,1H3/t7-/m1/s1
