19
gdb 108408	2.01527	1.4253	1.00374	3.6575	76.81	-0.2332	-0.0209	0.2124	1245.2458	0.157535	-422.99241	-422.983403	-422.982459	-423.026685	32.872	
C	 0.0148322933	 1.5338553034	-0.2359155028	-0.376326
C	 0.0046236771	 0.0415451896	 0.1234793572	-0.299632
C	-1.3758611969	-0.552411013	 0.117730693	 0.258904
C	-2.4296122908	-0.3963504075	 1.2166907308	-0.143143
O	-2.9343516913	-1.7385744235	 0.9686764545	-0.283781
C	-1.9006989338	-1.9514936349	 0.0078481771	 0.010369
C	-2.0607727682	-1.0271253255	-1.1838383146	-0.180487
C	-3.381978159	-0.5670991516	-1.6713577489	 0.146976
O	-3.5948367312	-0.2447858378	-2.8174233422	-0.274837
H	 1.032968735	 1.9331250308	-0.2179995778	 0.118931
H	-0.3979846333	 1.6982775056	-1.236021929	 0.133213
H	-0.5840830136	 2.1168042127	 0.4718664885	 0.119917
H	 0.6372188318	-0.5124109068	-0.5800832282	 0.108935
H	 0.4498153704	-0.1041199123	 1.1166622099	 0.106679
H	-1.9814936142	-0.3398315036	 2.2155881126	 0.116938
H	-3.2015225475	 0.3726871008	 1.1140307591	 0.117155
H	-1.4338734007	-2.9290596829	-0.038756467	 0.119022
H	-1.3392534618	-1.1934546391	-1.9794537385	 0.109339
H	-4.189014285	-0.5501540144	-0.9116707936	 0.09183
62.3625	99.4654	135.6736	192.2208	217.124	246.9386	316.4485	345.8382	435.5348	470.4931	544.5435	660.43	742.847	785.4207	872.544	905.1572	928.1109	980.1276	996.9131	1011.2232	1015.4836	1050.6402	1056.8799	1081.6079	1107.531	1145.6393	1163.6828	1218.9857	1247.9474	1270.549	1324.0817	1328.7386	1359.3167	1411.4167	1422.1623	1465.4615	1479.9387	1498.8286	1506.8927	1519.8373	1803.2992	2930.1374	3018.978	3031.4054	3037.4994	3058.1493	3085.6417	3106.2992	3115.0871	3158.4223	3180.1177
CCC12COC1C2C=O	CC[C@]12CO[C@H]1[C@H]2C=O	
InChI=1S/C7H10O2/c1-2-7-4-9-6(7)5(7)3-8/h3,5-6H,2,4H2,1H3	InChI=1S/C7H10O2/c1-2-7-4-9-6(7)5(7)3-8/h3,5-6H,2,4H2,1H3/t5-,6+,7-/m1/s1
