22
gdb 63629	2.85604	1.13247	1.09265	2.7856	82.99	-0.239	0.0743	0.3134	1286.24	0.19181	-404.315875	-404.305896	-404.304952	-404.350302	37.77	
C	 1.1430792496	-0.1880641242	 0.7001050426	-0.471998
C	-0.001414488	-0.688668784	 1.5592115762	 0.286001
C	 0.2725700732	-1.7055766331	 2.6120295751	-0.273061
N	-0.0381155007	-0.312807124	 2.9809858154	-0.337914
C	-1.316005343	-0.7609925776	 0.825014572	-0.036695
O	-2.4861072335	-1.1231046651	 1.5488945039	-0.293833
C	-2.4579916439	 0.1750297868	 0.9161427308	 0.389508
C	-2.4620431134	 1.3614746921	 1.8542745126	-0.471279
C	-3.3874661848	 0.2930647048	-0.274698049	-0.449146
H	 2.0944567538	-0.2555878098	 1.237316113	 0.114867
H	 1.2370423127	-0.7758775899	-0.2198276997	 0.126682
H	 0.9892320725	 0.8575798966	 0.4094326551	 0.126367
H	-0.5032709174	-2.41772127	 2.8755292624	 0.134438
H	 1.2926696864	-2.0626432275	 2.7282848261	 0.106559
H	 0.8183955308	 0.1820670912	 3.2187657864	 0.226553
H	-1.2078676005	-1.2925930779	-0.1264952226	 0.073807
H	-1.8508284242	 1.1591295256	 2.7323824427	 0.164906
H	-2.0828513792	 2.2542558772	 1.3436435258	 0.107018
H	-3.4880758094	 1.5773715312	 2.173706042	 0.115173
H	-4.4203903665	 0.4318425067	 0.0632057188	 0.123895
H	-3.1205500852	 1.1571412012	-0.8931146693	 0.116234
H	-3.3494036692	-0.6058790002	-0.8951650304	 0.121919
64.5429	134.6377	166.7322	196.0603	216.4797	228.2131	284.8012	312.863	355.875	370.1315	389.4063	419.2203	535.4895	541.1026	712.007	746.1248	812.299	858.0294	922.9229	937.5937	949.3312	956.1934	972.9172	996.5726	1019.7653	1068.9374	1097.8793	1110.7344	1141.9008	1153.4221	1157.6506	1263.0381	1272.4407	1306.3254	1356.2938	1379.1903	1406.8344	1415.6301	1417.4353	1465.6473	1477.8746	1485.5835	1486.8737	1498.113	1507.5652	1510.8657	1520.4094	3025.0139	3029.1582	3034.2204	3046.1378	3084.8878	3088.6159	3095.9909	3101.0597	3110.1637	3119.9599	3165.1279	3203.2046	3491.1647
CC1(CN1)C1OC1(C)C	C[C@]1(CN1)[C@H]1OC1(C)C	
InChI=1S/C7H13NO/c1-6(2)5(9-6)7(3)4-8-7/h5,8H,4H2,1-3H3	InChI=1S/C7H13NO/c1-6(2)5(9-6)7(3)4-8-7/h5,8H,4H2,1-3H3/t5-,7-/m0/s1
