12
gdb 131276	5.60261	1.33232	1.07636	3.7994	62.08	-0.2176	-0.0062	0.2114	990.8957	0.08146	-464.992281	-464.985912	-464.984968	-465.022863	24.719	
O	 0.0854245536	 1.2851243212	 0.1576960017	-0.410048
C	 0.0710806639	-0.0422635247	 0.0185225032	 0.447162
N	 0.0996062539	-0.6928216997	-1.1290187889	-0.462314
C	 0.0669744066	-1.9988850306	-0.7017996037	 0.379734
C	 0.0199918052	-2.1252532081	 0.6678646251	 0.362066
N	 0.02275786	-0.8189972214	 1.1477717544	-0.438256
N	-0.0110716463	-3.4130885776	 1.051620071	-0.30101
N	 0.0151029117	-4.1304047879	-0.0511573521	-0.13696
N	 0.0628308352	-3.2794692631	-1.1279667308	-0.333008
H	 0.1201783243	 1.6572857945	-0.7334660378	 0.322791
H	-0.0034581104	-0.481047995	 2.0940799046	 0.287321
H	 0.0878306223	-3.6726820175	-2.0536114466	 0.282522
163.699	298.7735	343.3894	361.3511	420.8475	438.4488	509.2797	556.0253	589.4422	684.0245	724.393	775.6876	797.7418	867.9105	979.6847	1014.97	1033.1941	1176.952	1206.1613	1245.8313	1266.8004	1366.6284	1496.1739	1523.1289	1538.139	1583.1726	1634.0625	3678.4299	3685.4656	3796.9579
OC1=NC2=C(N1)N=NN2	Oc1nc2c([nH]1)nn[nH]2	
InChI=1S/C3H3N5O/c9-3-4-1-2(5-3)7-8-6-1/h(H3,4,5,6,7,8,9)	InChI=1S/C3H3N5O/c9-3-4-1-2(5-3)7-8-6-1/h(H3,4,5,6,7,8,9)
