17
gdb 30042	2.42072	1.86673	1.06183	2.527	81.56	-0.1826	-0.014	0.1687	1093.1	0.138105	-418.084781	-418.076549	-418.075605	-418.117492	31.533	
C	-0.0185631444	 1.4332009726	 0.0365926913	-0.332186
N	 0.0129576896	-0.0252759017	-0.0226235876	-0.137354
C	 0.1650134887	-0.6828677619	-1.221574661	-0.005115
C	 0.213447938	-2.0386701476	-1.2657216226	-0.168023
C	 0.0962942413	-2.7853568102	-0.0638454653	-0.174951
C	-0.0672727499	-2.1441190439	 1.1356985343	 0.159995
N	-0.2501598055	-2.7496477634	 2.3612356252	-0.573748
C	-0.0993001944	-0.6823329786	 1.19626124	 0.423885
O	-0.2087788046	-0.0561388343	 2.2522392725	-0.444763
H	 0.0786484571	 1.8326398099	-0.9731642717	 0.125428
H	-0.956893298	 1.7709979859	 0.4829069946	 0.154207
H	 0.7964830626	 1.8019866764	 0.6640445676	 0.153051
H	 0.2418490384	-0.0523341459	-2.0969439073	 0.120097
H	 0.3363019479	-2.5393010753	-2.2170952309	 0.09976
H	 0.1294075602	-3.8702511889	-0.0984509726	 0.088713
H	 0.1549765251	-3.6630234024	 2.4897684905	 0.247091
H	-0.1188831022	-2.1056804109	 3.130625653	 0.263913
76.8554	131.7365	207.704	280.3735	303.9041	353.9955	389.9961	478.6689	501.4916	519.5368	569.8621	579.4952	606.296	710.606	737.2093	790.327	871.3499	876.4509	904.6852	995.171	1052.2144	1124.0246	1142.6621	1153.669	1193.0667	1267.9435	1321.3899	1368.6419	1428.212	1448.1838	1468.2314	1485.9411	1513.2952	1579.4147	1630.3108	1667.8545	1721.7712	3056.9924	3122.1968	3153.784	3168.0977	3209.8726	3227.8797	3550.8939	3678.9683
CN1C=CC=C(N)C1=O	Cn1cccc(N)c1=O	
InChI=1S/C6H8N2O/c1-8-4-2-3-5(7)6(8)9/h2-4H,7H2,1H3	InChI=1S/C6H8N2O/c1-8-4-2-3-5(7)6(8)9/h2-4H,7H2,1H3
