17
gdb 126280	3.47166	1.14753	0.9207	5.755	82.28	-0.2193	-0.0507	0.1686	1271.79	0.13704	-414.17331	-414.164841	-414.163897	-414.207157	31.043	
C	-0.1957745609	 1.5464650268	-0.0190598623	-0.376593
C	 0.0761490205	 0.0320958096	 0.0324114512	-0.294571
C	 0.8264132548	-0.4784273971	-1.1649236197	 0.447053
C	 2.1022637489	-0.9109676747	-1.1774461401	-0.286533
C	 2.6957531517	-1.3524597666	-2.4241775852	 0.385302
N	 3.9003352336	-1.7728858433	-2.5110428236	-0.524746
N	 1.8602591678	-1.3013881033	-3.5947065759	-0.258644
N	 0.6711071304	-0.8961127455	-3.550881645	-0.040122
N	 0.1488941229	-0.4865444413	-2.3671883656	-0.308121
H	 0.7419278076	 2.1067624007	-0.0694049522	 0.13935
H	-0.79651027	 1.8236224948	-0.8912401353	 0.11997
H	-0.7399331237	 1.8652930536	 0.8739909204	 0.130911
H	 0.6607957285	-0.210744125	 0.9238267605	 0.132513
H	-0.8741367345	-0.5110611398	 0.1216192635	 0.120025
H	 2.6988364475	-0.9361850628	-0.2746607712	 0.120232
H	 4.0892960298	-2.0256839498	-3.4838813679	 0.219512
H	-0.8114598851	-0.1936980864	-2.4430642817	 0.274464
52.8301	88.5238	134.0173	197.7023	285.0859	323.6079	408.841	459.1957	508.0609	545.935	562.803	655.3444	743.5777	765.0776	789.4174	881.0996	887.6219	913.7759	973.4247	1015.2297	1060.0102	1083.4511	1107.2861	1126.8276	1199.2538	1270.0745	1330.1671	1351.7825	1371.633	1414.9132	1441.6705	1481.8263	1497.1602	1505.6806	1597.551	1674.0949	1725.0841	3025.0417	3042.879	3090.2974	3114.8504	3125.191	3217.8134	3453.2089	3654.5568
CCC1=CC(=N)N=NN1	CCc1cc([NH])nn[nH]1	
InChI=1S/C5H8N4/c1-2-4-3-5(6)8-9-7-4/h3H,2H2,1H3,(H2,6,7,8)	InChI=1S/C5H13N4/c1-2-4-3-5(6)8-9-7-4/h4-9H,2-3H2,1H3
