14
gdb 9225	6.51124	0.95099	0.85568	6.7861	56.53	-0.2673	-0.0373	0.23	1253.1134	0.103625	-456.82865	-456.819858	-456.818913	-456.863108	29.105	
O	-0.3198781287	 1.2263396748	-0.4534469702	-0.388598
C	-0.1417731749	-0.0521352198	 0.0861184007	-0.174569
C	-1.4513270571	-0.8231792617	 0.0220984386	 0.375473
O	-2.5114148598	-0.3241187421	-0.245921205	-0.260188
C	-1.3283428919	-2.3261656673	 0.3070782413	-0.21068
O	-2.5461443597	-2.8798366511	 0.7615736875	-0.165462
C	-3.5308855822	-3.0424849844	-0.1584511716	 0.1905
O	-4.6169771061	-3.4278650615	 0.1425989925	-0.269509
H	 0.4950286621	 1.7225493193	-0.3328549668	 0.299405
H	 0.6305443187	-0.6417230278	-0.4407846765	 0.11033
H	 0.1581227125	-0.0348463146	 1.1498673183	 0.123688
H	-0.9787140955	-2.8167062297	-0.6146137036	 0.139507
H	-0.5837111959	-2.524904421	 1.0826959264	 0.143725
H	-3.2013056714	-2.8155614632	-1.1879915717	 0.086375
50.0228	80.4837	98.2153	186.7348	222.2894	230.7303	296.3741	336.3968	391.2216	454.4242	639.3665	713.2903	802.2542	907.2308	1004.4328	1029.6509	1060.7628	1088.9432	1152.6796	1182.1899	1233.7337	1257.7878	1297.671	1384.4728	1429.4991	1445.4734	1473.0593	1492.5782	1844.9714	1878.5721	2941.6569	2961.7225	2979.9343	3000.9804	3099.3382	3837.1736
OCC(=O)COC=O	OCC(=O)COC=O	
InChI=1S/C4H6O4/c5-1-4(7)2-8-3-6/h3,5H,1-2H2	InChI=1S/C4H6O4/c5-1-4(7)2-8-3-6/h3,5H,1-2H2
