18
gdb 7791	3.37406	1.70575	1.19541	4.5319	68.12	-0.2567	0.0152	0.2719	1007.9655	0.154818	-384.994326	-384.986599	-384.985655	-385.026499	28.913	
C	-0.0127074349	 1.5815000082	 0.0056181837	-0.406513
C	 0.0012200058	 0.0527356222	-0.0581101868	 0.017158
C	 0.8040458866	-0.4890590571	-1.2426850582	-0.216364
C	 0.7198674223	-2.0072611107	-1.2682729402	-0.069134
O	 1.0965192163	-2.63705353	-0.0316957559	-0.226661
C	 0.8790719365	-2.0572979011	 1.1748312293	 0.398236
O	 0.9990717496	-2.7212389826	 2.1683078026	-0.323112
C	 0.5843084631	-0.5626062493	 1.2202872008	-0.328687
H	 1.0052856313	 1.9789554064	 0.0934898724	 0.11787
H	-0.4630461973	 2.0105062117	-0.8954354027	 0.116129
H	-0.5840171658	 1.9376102687	 0.8691283871	 0.120281
H	-1.0356725597	-0.2968457347	-0.1686613047	 0.081962
H	 0.4219181299	-0.1018988219	-2.1941194041	 0.106121
H	 1.8515716811	-0.1706505117	-1.1602202226	 0.107636
H	-0.3043784365	-2.3245004714	-1.5060888892	 0.11369
H	 1.3850376872	-2.4377259008	-2.0212059431	 0.122579
H	 1.5476811822	-0.0820955151	 1.4442646001	 0.134355
H	-0.0501770677	-0.3906428508	 2.0933212817	 0.134453
91.5789	119.3359	225.9254	242.7324	279.6951	395.7265	414.6716	464.3566	507.0561	587.7193	659.5606	782.3784	826.4994	886.3169	920.0172	966.9244	979.6285	1003.9116	1075.3789	1117.7718	1129.7091	1159.9498	1194.1372	1243.744	1279.0265	1283.2653	1307.6739	1340.1662	1374.7158	1397.97	1413.5146	1431.6121	1458.1287	1482.9528	1497.0987	1498.6743	1515.4296	1842.0578	2996.6209	3017.4446	3020.0251	3025.2892	3030.2877	3074.6576	3094.2735	3095.8004	3102.4448	3103.5894
CC1CCOC(=O)C1	C[C@H]1CCOC(=O)C1	
InChI=1S/C6H10O2/c1-5-2-3-8-6(7)4-5/h5H,2-4H2,1H3	InChI=1S/C6H10O2/c1-5-2-3-8-6(7)4-5/h5H,2-4H2,1H3/t5-/m0/s1
