15
gdb 133221	4.78978	1.00969	0.89081	2.4608	70.21	-0.2475	-0.0817	0.1659	1260.2932	0.112241	-458.11003	-458.102215	-458.101271	-458.143425	28.248	
C	-0.0223279722	 1.5307333686	 0.1028949848	-0.381381
C	-0.0373583624	 0.0063840509	-0.0997247212	-0.250312
C	-1.4294797827	-0.5581421061	-0.0398938505	 0.388061
N	-2.0545295046	-0.5559585818	 1.1572047297	-0.247013
C	-3.2775472481	-1.0440279582	 1.1721965757	-0.12046
C	-3.8366940408	-1.517193168	-0.01899693	 0.334288
F	-5.0637442331	-2.0104097195	-0.019376323	-0.051784
N	-3.1999188521	-1.5005857587	-1.1618808061	-0.225002
N	-1.9587316858	-1.0082555345	-1.1792953089	-0.231402
H	 1.0043586285	 1.9067806993	 0.0916424551	 0.122505
H	-0.5783009184	 2.0370543468	-0.6921626864	 0.128403
H	-0.4754339486	 1.7973885425	 1.0618703222	 0.13567
H	 0.3952527423	-0.2575306699	-1.0672059108	 0.129116
H	 0.5607028599	-0.4696765534	 0.6849632015	 0.122684
H	-3.8293174619	-1.071643108	 2.108473768	 0.146626
39.8284	92.0895	211.0888	225.9037	336.4676	391.4917	444.4711	445.4322	522.6907	590.3345	652.4111	749.8853	793.1124	838.7691	878.0481	961.8769	982.9606	1055.8624	1075.9002	1087.8896	1155.2934	1258.8621	1287.3389	1310.6921	1361.8622	1377.0153	1405.7245	1458.1158	1477.7284	1496.9828	1509.6899	1569.6201	1607.7043	3042.7187	3051.9364	3106.5971	3118.2637	3128.7943	3166.665
CCC1=NC=C(F)N=N1	CCc1ncc(F)nn1	
InChI=1S/C5H6FN3/c1-2-5-7-3-4(6)8-9-5/h3H,2H2,1H3	InChI=1S/C5H6FN3/c1-2-5-7-3-4(6)8-9-5/h3H,2H2,1H3
