21
gdb 68655	4.31154	0.88493	0.85568	2.8489	84.68	-0.2463	-0.0201	0.2262	1433.4084	0.181174	-387.061923	-387.052863	-387.051919	-387.096476	34.093	
C	 0.1506888578	 1.4880715214	 0.0582753575	-0.50861
C	 0.0528222765	-0.0130103134	 0.016237992	 0.336132
C	 0.5833841339	-0.9663748121	-1.1005144797	-0.298735
C	-0.067175676	-1.8999532702	-0.0392882509	 0.32719
C	-0.1454986943	-3.4132112885	-0.0959750872	-0.404378
C	-0.904436147	-3.9929973174	 1.0778726164	 0.161945
O	-0.4554461433	-4.7844984737	 1.8662212311	-0.239543
C	 0.6372494684	-1.0298855018	 1.0452702454	-0.283903
C	-1.2456350907	-0.8776663152	 0.0207842439	-0.292741
H	 1.1962889523	 1.8147393104	 0.0443911382	 0.119955
H	-0.3534084814	 1.9405858042	-0.8027436287	 0.118734
H	-0.3129561992	 1.8879485074	 0.9667683965	 0.119923
H	 0.0850235544	-0.9094414553	-2.0735257683	 0.085795
H	 1.67005479	-1.0350267332	-1.2113040915	 0.088575
H	-0.6765798415	-3.7070575002	-1.0134798381	 0.116856
H	 0.853756994	-3.8590949521	-0.1196429102	 0.12074
H	-1.9514575382	-3.6222495031	 1.1744562003	 0.074558
H	 1.7278101539	-1.1039686949	 1.0974484794	 0.08993
H	 0.190187828	-1.02952113	 2.044192084	 0.091427
H	-1.8405366964	-0.8579889152	 0.9391819639	 0.089537
H	-1.8825817413	-0.8116728069	-0.8671568943	 0.086613
46.7504	61.4084	152.7894	209.4458	217.5708	278.0626	357.4189	386.584	465.8642	545.0807	548.4293	608.3705	651.1885	761.5154	780.7078	839.7558	923.865	931.1448	952.2786	961.4308	995.902	1021.4718	1043.9283	1086.1009	1091.0852	1102.1299	1144.3688	1146.6833	1158.9382	1167.0792	1202.8979	1207.1893	1259.5314	1292.6748	1313.6204	1348.6473	1411.6935	1429.525	1454.8089	1490.1523	1490.5598	1496.7296	1498.5271	1560.7744	1834.0084	2861.4333	3008.3476	3026.0461	3034.2285	3036.075	3046.63	3089.5829	3093.9703	3094.2768	3097.5386	3103.3444	3105.8214
CC12CC(CC=O)(C1)C2	C[C@@]12C[C@@](CC=O)(C1)C2	
InChI=1S/C8H12O/c1-7-4-8(5-7,6-7)2-3-9/h3H,2,4-6H2,1H3	InChI=1S/C8H12O/c1-7-4-8(5-7,6-7)2-3-9/h3H,2,4-6H2,1H3/t7-,8+
