16
gdb 86026	3.45259	1.18104	1.12176	2.7179	70.6	-0.2738	-0.032	0.2418	1109.5063	0.12409	-437.89726	-437.888892	-437.887947	-437.930214	31.725	
O	-0.5627509206	 1.3912714604	-0.7317064055	-0.435214
C	 0.0120797829	 0.2705670759	-0.0730802417	 0.089038
C	-1.0262335955	-0.7820534089	 0.3781502495	-0.267068
C	-1.099564976	-1.7651622545	-0.8110880238	 0.202784
O	-2.1091644637	-1.268624664	-1.7008855764	-0.450514
C	 0.2890756652	-1.6422488222	-1.4277868115	-0.123827
C	 0.8902758104	-0.5266805413	-1.0203707561	-0.094422
C	-1.4255819288	-3.1467168143	-0.4118668968	 0.23256
N	-1.6752147474	-4.2388803022	-0.1279514838	-0.334207
H	-1.1040557665	 1.0414890351	-1.4510785961	 0.286034
H	 0.5626337808	 0.6870913167	 0.7745269404	 0.094813
H	-0.6716274706	-1.309860221	 1.2664923535	 0.130303
H	-2.00250989	-0.3437491737	 0.5896462848	 0.135759
H	-2.0809399217	-1.7831238943	-2.5165761068	 0.292333
H	 0.6589199235	-2.3602264049	-2.1505924335	 0.121181
H	 1.844992508	-0.1568802767	-1.3756216361	 0.12045
73.1763	135.7836	173.636	239.2225	324.9089	357.06	390.5103	417.2922	465.9047	525.3393	543.5693	560.5367	633.125	772.6869	800.7181	822.3338	854.7527	921.5667	975.0868	989.1621	1022.1241	1064.4184	1094.8185	1108.1321	1144.5769	1217.1992	1275.9928	1303.198	1314.0414	1345.4664	1375.2237	1444.0872	1468.0031	1671.7146	2353.5407	3075.9687	3086.9728	3142.0988	3194.714	3219.3207	3776.1333	3794.9748
OC1CC(O)(C=C1)C#N	O[C@H]1C[C@@](O)(C=C1)C#N	
InChI=1S/C6H7NO2/c7-4-6(9)2-1-5(8)3-6/h1-2,5,8-9H,3H2	InChI=1S/C6H7NO2/c7-4-6(9)2-1-5(8)3-6/h1-2,5,8-9H,3H2/t5-,6+/m1/s1
