17
gdb 43307	2.92397	1.77489	1.40639	3.6063	76.72	-0.2256	-0.0459	0.1797	942.8201	0.138122	-384.687784	-384.681092	-384.680148	-384.7188	27.283	
O	-0.0167105696	-0.0431573859	-0.019692085	-0.336725
C	-0.0368129445	 1.1662167448	-0.0048638706	 0.377304
C	-1.2462037623	 2.0380013356	-0.012420342	-0.18561
C	-0.9133072932	 3.3380600663	 0.0329225682	-0.062517
C	 0.5740851701	 3.5438271713	 0.0583395507	-0.080825
C	 1.2839971119	 3.8066221428	 1.4207422166	-0.063859
C	 0.8862988098	 2.7957361195	 2.4569814237	-0.294203
C	 1.8626211962	 2.3909301947	 1.3910897965	-0.043395
C	 1.1670079323	 2.1120897689	 0.0348719948	-0.152675
H	-2.2479505157	 1.6252961555	-0.0298631279	 0.11508
H	-1.6226621949	 4.1593428545	 0.0710727424	 0.114088
H	 0.9306219691	 4.2156615016	-0.7261197712	 0.088999
H	 1.7700735059	 4.7390341293	 1.6786480422	 0.091971
H	 1.3294969877	 2.9553526625	 3.4346444313	 0.117611
H	-0.1192707545	 2.3870259498	 2.4915843458	 0.119553
H	 2.8648625111	 2.0592304773	 1.6288836633	 0.096128
H	 1.8718057107	 1.8992118417	-0.769822439	 0.099074
109.9243	212.031	260.1385	364.7298	476.3687	491.6561	585.741	698.4111	704.4061	742.3064	773.0703	788.9733	838.052	852.8416	922.0618	932.2391	977.5415	982.9086	1004.6898	1011.6924	1042.3943	1060.888	1062.998	1091.3884	1102.7381	1168.888	1178.0325	1185.9842	1234.2379	1255.1489	1268.7598	1305.1922	1349.926	1371.3109	1490.3908	1627.1734	1810.622	3079.7661	3109.2643	3122.8711	3176.6779	3185.6799	3195.165	3208.6177	3214.8312
O=C1C=CC2C3CC3C12	O=C1C=C[C@H]2[C@H]3C[C@H]3[C@@H]12	
InChI=1S/C8H8O/c9-7-2-1-4-5-3-6(5)8(4)7/h1-2,4-6,8H,3H2	InChI=1S/C8H8O/c9-7-2-1-4-5-3-6(5)8(4)7/h1-2,4-6,8H,3H2/t4-,5+,6+,8-/m0/s1
