19
gdb 107348	3.39802	1.28276	1.07391	1.6613	75.9	-0.2411	-0.0019	0.2392	1153.8723	0.160275	-423.021087	-423.012931	-423.011987	-423.053829	31.754	
O	 0.1126698727	 1.2665742621	-0.4633288167	-0.417343
C	 0.0306452648	 0.0342486091	 0.2352605883	-0.135622
C	-1.380593753	-0.5120595815	 0.2148540421	 0.359986
C	-2.4333730034	 0.2775452059	 0.9682473447	-0.281822
C	-3.8557561945	-0.2804976243	 0.76909203	-0.268628
C	-3.9034989972	-1.7811539172	 0.8988394891	-0.083941
C	-2.8721067539	-2.5507303639	 0.5462462748	-0.037916
C	-1.6251703395	-1.951855513	 0.0083336775	-0.056814
O	-1.7698727071	-0.9997591526	-1.0800029969	-0.307174
H	-0.1856797251	 1.089019748	-1.3630401427	 0.293152
H	 0.7164037837	-0.7135643159	-0.1896323839	 0.090593
H	 0.3486247921	 0.2422455691	 1.2625779763	 0.110512
H	-2.1692065181	 0.2434047986	 2.033518429	 0.106147
H	-2.3853298917	 1.3274583165	 0.6637707152	 0.119492
H	-4.537100903	 0.1868711953	 1.4875839635	 0.102714
H	-4.2181744349	 0.0025634429	-0.2269488463	 0.132155
H	-4.8185459093	-2.2334147257	 1.2711284725	 0.096149
H	-2.9145371736	-3.6315743298	 0.6364623729	 0.090646
H	-0.771661569	-2.6159097938	-0.1166965995	 0.087713
72.0149	141.3192	196.9802	254.9908	308.1319	381.5526	390.8282	439.8458	468.7125	545.3422	645.4957	694.2183	708.9672	759.9175	827.343	878.5031	898.2719	945.6179	973.6622	984.2006	1005.2331	1049.804	1056.6426	1065.2421	1111.2978	1176.1226	1184.094	1214.7886	1242.7556	1277.4678	1314.104	1350.0585	1370.7498	1397.5883	1416.272	1424.3011	1461.5553	1476.2352	1489.7369	1492.2423	1706.007	2994.6779	3025.7681	3032.6941	3072.0564	3075.7549	3086.44	3124.525	3160.5889	3185.5716	3796.4928
OCC12CCC=CC1O2	OC[C@]12CCC=C[C@H]1O2	
InChI=1S/C7H10O2/c8-5-7-4-2-1-3-6(7)9-7/h1,3,6,8H,2,4-5H2	InChI=1S/C7H10O2/c8-5-7-4-2-1-3-6(7)9-7/h1,3,6,8H,2,4-5H2/t6-,7-/m1/s1
