16
gdb 22478	3.53248	0.71793	0.61936	0.8586	98.1	-0.2314	-0.0554	0.1759	1743.4127	0.120966	-400.659112	-400.649182	-400.648238	-400.694638	35.445	
C	-0.0272592617	 1.5457026726	 0.0381508615	-0.375573
C	-0.040160433	 0.0103755272	-0.0625389933	-0.282195
C	 0.7412928484	-0.4876499145	-1.2611972625	 0.120004
N	 2.0198641038	-0.6656766299	-1.2926825561	-0.148601
O	 2.6076342299	-0.3460316259	-0.0723481759	-0.389295
C	 0.0418065961	-0.7647470793	-2.4644931753	 0.308958
C	-0.6308772083	-0.9785500406	-3.451727325	-0.092862
C	-1.3679182303	-1.2228885345	-4.56505395	 0.283022
C	-2.0268427729	-1.4396370212	-5.5545294189	-0.569014
H	 0.995294113	 1.9151768349	 0.14610106	 0.137841
H	-0.4665909566	 2.0029780772	-0.8534475833	 0.128625
H	-0.6052526299	 1.8733509929	 0.907145767	 0.119458
H	 0.4028679626	-0.422264253	 0.8385134532	 0.133118
H	-1.0684816191	-0.3518024746	-0.1426098975	 0.116252
H	 3.5360746287	-0.5472671427	-0.2338921927	 0.315194
H	-2.6017193408	-1.6315920385	-6.4263402311	 0.195068
50.2503	79.0379	94.3491	203.8356	218.7866	238.5129	273.0167	321.6083	409.1633	448.9775	473.0778	491.8196	532.2714	536.2162	596.5429	600.9329	659.6453	731.4946	805.9121	916.1558	991.2954	1046.737	1088.7784	1104.2037	1272.0613	1306.2978	1346.3263	1405.8196	1424.4861	1479.7747	1498.2573	1507.8613	1652.8585	2176.5045	2336.4804	3045.2441	3061.7764	3104.3612	3116.6719	3133.1142	3503.8319	3813.6838
CCC(=NO)C#CC#C	CCC(=NO)C#CC#C	
InChI=1S/C7H7NO/c1-3-5-6-7(4-2)8-9/h1,9H,4H2,2H3	InChI=1S/C7H7NO/c1-3-5-6-7(4-2)8-9/h1,9H,4H2,2H3
