21
gdb 52871	2.57915	1.0061	0.81175	1.4639	88.65	-0.2278	0.0536	0.2814	1505.388	0.179567	-387.058675	-387.047856	-387.046911	-387.097494	38.794	
C	-0.1875487165	 1.4976915891	-0.1617301695	-0.503497
C	-0.0961606353	 0.0468582064	-0.0745660221	 0.148667
C	-0.0316149625	-1.1546872942	 0.0050764542	-0.057635
C	 0.0653115043	-2.5900656894	 0.0642905151	 0.180501
C	-0.3192642985	-3.2797800744	 1.3650977664	-0.303696
C	-1.2274677507	-3.3798833456	 0.1724544409	-0.303938
C	 1.2101383363	-3.1853386668	-0.780029606	 0.031877
C	 2.5819844494	-2.6885674329	-0.3282193911	-0.411574
O	 1.1607371487	-4.6071436656	-0.8059021411	-0.429541
H	 0.8037581081	 1.9556381862	-0.2537433855	 0.145488
H	-0.7789769207	 1.8129954222	-1.0288497169	 0.146139
H	-0.6615394562	 1.9194081242	 0.7318337946	 0.14687
H	 0.2367247727	-4.1680779722	 1.6461584427	 0.097442
H	-0.6127166731	-2.6492213879	 2.195500138	 0.120746
H	-2.1536262201	-2.8181868826	 0.1805604657	 0.117826
H	-1.2509935606	-4.3261231352	-0.3539683305	 0.133283
H	 1.0391645432	-2.8774285307	-1.8184852383	 0.095246
H	 2.7789452291	-2.9941063851	 0.7073907413	 0.107397
H	 3.3645706776	-3.1042413653	-0.9691086277	 0.11958
H	 2.6341184405	-1.5979984965	-0.3666134056	 0.137025
H	 1.6306196043	-4.9340373038	-0.0317333646	 0.281796
2.995	68.8016	86.0763	135.2892	233.7135	241.9285	259.996	294.3219	296.9673	307.9398	383.9966	407.0124	479.9442	528.9089	563.5512	644.7083	780.8543	814.3206	878.5828	902.8012	947.0391	970.2693	1052.0538	1053.039	1056.9854	1059.1325	1062.6959	1084.0212	1087.815	1137.6292	1197.0679	1276.1177	1298.0904	1326.4207	1363.9226	1400.3131	1415.444	1418.3373	1452.6341	1477.7474	1480.3642	1488.7854	1491.3083	1496.3075	2361.3672	3023.546	3026.062	3040.6004	3082.0361	3084.0521	3101.3684	3130.9915	3135.1129	3148.6784	3222.8989	3245.8732	3812.0315
CC#CC1(CC1)C(C)O	CC#CC1(CC1)[C@@H](C)O	
InChI=1S/C8H12O/c1-3-4-8(5-6-8)7(2)9/h7,9H,5-6H2,1-2H3	InChI=1S/C8H12O/c1-3-4-8(5-6-8)7(2)9/h7,9H,5-6H2,1-2H3/t7-/m1/s1
