19
gdb 76817	2.88792	1.56642	1.34375	2.4312	76.59	-0.23	0.0507	0.2807	1014.6577	0.15966	-422.898839	-422.891054	-422.89011	-422.930629	31.571	
O	 0.3317567992	 1.4153261637	 0.0635361933	-0.423575
C	 0.0840578832	 0.0302654276	-0.0545363199	-0.005079
C	 0.2848863903	-0.6513350525	 1.3757550277	 0.024773
O	 1.0392293071	 0.0411951222	 2.3181706977	-0.42599
C	-1.2626611672	-0.6957075795	 1.4669712167	 0.259317
C	-2.6404618976	-1.432676593	 1.4733804957	-0.311747
C	-2.7848746185	-0.1690918916	 0.516225036	-0.095486
C	-2.0628321905	 0.6439799452	 1.6096954762	-0.25311
C	-1.3818233364	-0.5662117545	-0.06569431	-0.050449
H	 0.0630821074	 1.8477717684	-0.7529411505	 0.293455
H	 0.6998302756	-0.4015440274	-0.8540583868	 0.077999
H	 0.7163479522	-1.6506817574	 1.2613888871	 0.095046
H	 0.89938124	 0.9807991727	 2.1458259918	 0.296218
H	-2.6673940688	-2.4144214903	 0.9933697626	 0.095985
H	-3.2413411901	-1.4112596711	 2.3879368388	 0.094647
H	-3.6900031317	 0.109529127	-0.0324118034	 0.067404
H	-2.5960521651	 0.7693686993	 2.555910639	 0.087184
H	-1.571495382	 1.5621658424	 1.2987022256	 0.107051
H	-1.3729327971	-1.5071612713	-0.625296968	 0.066359
141.3563	195.9523	227.1842	251.4654	284.9362	372.8279	407.65	519.9848	544.1953	600.7636	643.9384	703.7844	778.4754	792.2989	825.2688	839.7189	913.5474	928.1166	972.1364	1013.95	1014.9814	1035.8808	1090.191	1098.1034	1114.9937	1131.0839	1140.1318	1158.7164	1164.9233	1197.3608	1211.5859	1222.4158	1249.3861	1256.8792	1287.503	1327.7513	1354.0026	1404.3767	1436.9025	1497.3096	1539.2265	3009.1891	3040.7407	3048.208	3055.3782	3067.0416	3071.6856	3116.0364	3172.416	3784.0323	3826.5579
OC1C(O)C23CC(C2)C13	O[C@H]1[C@@H](O)[C@@]23C[C@@H](C2)[C@@H]13	
InChI=1S/C7H10O2/c8-5-4-3-1-7(4,2-3)6(5)9/h3-6,8-9H,1-2H2	InChI=1S/C7H10O2/c8-5-4-3-1-7(4,2-3)6(5)9/h3-6,8-9H,1-2H2/t3-,4-,5+,6+,7-/m0/s1
