15
gdb 125459	6.98845	0.86551	0.77638	5.7367	71.48	-0.2445	-0.0025	0.242	1414.7156	0.113461	-450.155326	-450.14679	-450.145846	-450.19016	29.219	
C	-0.1686768504	 1.438920618	 0.0454638336	-0.493555
C	-0.0074624145	-0.0383410253	-0.0582027546	 0.377317
N	-0.2763255987	-0.78814931	-1.1173228918	-0.362958
C	 0.047149409	-2.0304340212	-0.6904956356	 0.442966
O	-0.0880393159	-3.0741207376	-1.5336820166	-0.204688
C	-0.0681110069	-4.3373686026	-1.0103711224	 0.116345
N	-0.0219994145	-5.3101882688	-1.8063654439	-0.424406
N	 0.502068861	-2.1272683511	 0.5477535859	-0.316527
N	 0.4480121217	-0.8224161586	 0.9390070924	-0.241872
H	 0.0744608041	 1.7968447575	 1.0491787004	 0.127649
H	 0.4843291596	 1.9447787507	-0.6716639684	 0.163536
H	-1.1978492051	 1.7248878156	-0.187705692	 0.163988
H	-0.109403824	-4.3512383136	 0.0805678004	 0.135434
H	-0.0439936337	-6.1832889449	-1.2825879165	 0.236199
H	 0.7473624182	-0.5688917081	 1.8660720691	 0.280573
39.6997	56.2945	83.8366	170.6426	226.2144	315.8673	384.5509	454.9748	507.6606	532.6357	692.1264	701.1772	767.6586	825.9464	848.2732	998.7857	1012.3511	1054.8988	1059.346	1063.1037	1107.4674	1188.9558	1270.3556	1285.0674	1398.08	1407.0766	1424.6315	1457.7743	1470.1099	1506.5627	1559.732	1589.2192	1750.3593	3050.1322	3114.1844	3117.063	3129.0856	3516.6256	3665.0157
CC1=NC(OC=N)=NN1	Cc1nc(O[CH][NH])n[nH]1	
InChI=1S/C4H6N4O/c1-3-6-4(8-7-3)9-2-5/h2,5H,1H3,(H,6,7,8)	InChI=1S/C4H6N4O/c1-3-6-4(8-7-3)9-2-5/h2,5H,1H3,(H,6,7,8)
