15
gdb 124969	3.1676	1.25196	0.94618	3.8659	72.69	-0.2604	-0.0347	0.2257	1185.4327	0.110279	-416.759608	-416.750893	-416.749949	-416.794199	30.841	
C	 0.5118021048	 1.4015073576	-0.0046438166	-0.501635
C	 0.1053839249	-0.032777001	-0.035701298	 0.173658
C	-0.047816678	-0.9202484736	-1.0600511231	 0.340003
C	 0.0962312319	-0.8609337092	-2.5542545906	-0.47054
C	 1.2218112132	-0.0584995914	-3.0224981331	 0.301997
C	 2.1443170476	 0.5917253371	-3.4326497948	-0.434007
O	-0.4525185926	-2.0895310566	-0.5536728131	-0.217045
N	-0.5510596601	-1.9096512305	 0.8592618921	-0.015961
N	-0.2236206829	-0.7241249813	 1.1142589302	-0.161965
H	 1.3018497319	 1.5597588267	 0.7353204643	 0.148157
H	 0.881421677	 1.7201224791	-0.9801885801	 0.147143
H	-0.3311987193	 2.0427410842	 0.2742018617	 0.143105
H	 0.1959958286	-1.8886334192	-2.9213925838	 0.171376
H	-0.8357705649	-0.4759503587	-2.991250606	 0.165705
H	 2.9649164881	 1.1618528769	-3.793092519	 0.210009
29.0571	83.9553	120.7597	232.6304	245.0021	296.5278	323.643	389.115	444.2938	632.469	647.109	661.1353	668.8865	699.4643	706.5076	759.6035	936.89	972.5999	995.3057	1026.4716	1071.22	1187.1627	1199.5934	1255.2778	1317.6527	1402.266	1421.7882	1456.8592	1464.5372	1484.7561	1491.8053	1655.6119	2246.8684	3015.4577	3045.066	3066.5654	3101.6788	3147.7247	3503.4398
CC1=C(CC#C)ON=N1	Cc1c(CC#C)onn1	
InChI=1S/C6H6N2O/c1-3-4-6-5(2)7-8-9-6/h1H,4H2,2H3	InChI=1S/C6H6N2O/c1-3-4-6-5(2)7-8-9-6/h1H,4H2,2H3
