15
gdb 66972	2.65198	1.74369	1.31265	3.5567	68.65	-0.2453	0.0012	0.2465	956.7518	0.113179	-416.729567	-416.722373	-416.721429	-416.761081	28.119	
O	-0.1977966098	 1.345539609	 0.0512338733	-0.453417
C	 0.0227071638	-0.0048652225	 0.0133002103	 0.366024
C	-0.1418978794	-0.862832501	-1.2669216738	-0.151791
C	 0.5619086545	-2.1711011548	-0.975791343	-0.193218
N	 0.0630769001	-2.0741085339	 0.462495308	-0.176164
C	-1.0077750116	-1.0816682497	-0.0524658246	-0.086809
C	 0.8194020527	-0.8606626897	 0.998717909	-0.169222
C	 2.2776586175	-0.8905377598	 0.9473073582	 0.272147
N	 3.4323369607	-0.8821166156	 0.8860697928	-0.327604
H	 0.4953999038	 1.7908109523	-0.4501130342	 0.301611
H	-0.4114612881	-0.3878052653	-2.2020962305	 0.104635
H	 0.082754413	-3.032438015	-1.4469092643	 0.123175
H	 1.6481811748	-2.246512017	-1.0803674046	 0.132291
H	-2.0669635998	-1.1364406939	 0.1493436064	 0.120945
H	 0.4934125979	-0.6841890531	 2.0271153269	 0.137397
129.8809	146.69	276.4378	332.9356	355.7679	412.3138	435.1364	530.6036	580.5659	649.8018	716.5059	809.5077	831.2918	837.2074	881.4202	932.5618	957.6129	975.0277	987.7305	1024.0408	1075.1792	1098.6509	1117.8848	1159.8331	1189.8313	1214.6725	1261.2661	1284.5586	1319.5352	1354.3978	1460.2904	1514.2691	2349.2228	3059.142	3084.2557	3115.7227	3194.6433	3235.9514	3787.6145
OC12C3CN(C13)C2C#N	O[C@]12[C@H]3CN([C@@H]13)[C@H]2C#N	
InChI=1S/C6H6N2O/c7-1-4-6(9)3-2-8(4)5(3)6/h3-5,9H,2H2	InChI=1S/C6H6N2O/c7-1-4-6(9)3-2-8(4)5(3)6/h3-5,9H,2H2/t3-,4-,5+,6-/m0/s1
