18
gdb 7986	3.56737	1.58449	1.1776	2.8228	67.74	-0.25	-0.0269	0.2231	1026.7457	0.153445	-384.978438	-384.970437	-384.969493	-385.01072	30.348	
C	-0.086912756	 1.5313336405	-0.0141381652	-0.404599
C	 0.0772884264	 0.0132049354	-0.0017175145	 0.026739
C	 0.8566311718	-0.5492867603	-1.2168981321	-0.249146
C	 1.234502432	-1.9640564399	-0.7667942135	 0.065542
O	 2.2605623773	-2.5883150014	-1.4843637104	-0.445245
C	 1.6031508027	-1.7510475412	 0.7014732556	 0.368355
O	 2.4361943789	-2.413858076	 1.270442039	-0.331348
C	 0.8522384783	-0.5321679451	 1.2233036588	-0.336572
H	 0.8889692277	 2.0302780331	-0.0052167125	 0.118053
H	-0.6226718086	 1.8632450749	-0.9095961846	 0.119156
H	-0.6484504599	 1.8791995924	 0.8591708584	 0.117551
H	-0.9211976289	-0.4434254328	-0.005549491	 0.082379
H	 0.2741293798	-0.5299451674	-2.1408795159	 0.109676
H	 1.7758889744	 0.0261963311	-1.3850685663	 0.109775
H	 0.3161393297	-2.5844007549	-0.7702984197	 0.08908
H	 2.8210742288	-3.0140736619	-0.8178660433	 0.290575
H	 1.5997179364	 0.1878940916	 1.5801894736	 0.136727
H	 0.2244399892	-0.7823046884	 2.0835540335	 0.133302
85.4242	129.1686	236.2329	264.8081	283.2896	367.7633	399.0046	422.0286	481.1787	514.9048	586.6829	626.4127	747.0722	837.4324	888.9761	923.0897	954.345	989.3407	1031.1955	1080.2539	1114.1692	1158.1189	1166.6585	1187.1251	1218.3849	1260.1241	1273.0975	1285.8963	1343.3175	1374.5014	1376.9896	1414.8223	1420.3613	1444.9173	1495.769	1498.0735	1501.2066	1836.5079	2909.1043	3013.866	3027.7708	3036.5743	3041.3383	3091.8426	3096.642	3100.3781	3106.8773	3711.7266
CC1CC(O)C(=O)C1	C[C@H]1C[C@@H](O)C(=O)C1	
InChI=1S/C6H10O2/c1-4-2-5(7)6(8)3-4/h4-5,7H,2-3H2,1H3	InChI=1S/C6H10O2/c1-4-2-5(7)6(8)3-4/h4-5,7H,2-3H2,1H3/t4-,5+/m0/s1
