18
gdb 41379	2.50142	1.87521	1.77337	1.1362	69.54	-0.23	0.0505	0.2805	894.0238	0.149935	-439.018827	-439.011848	-439.010903	-439.049968	28.176	
C	 0.1099831733	 1.5180713251	-0.2726854063	-0.231411
N	 1.4633804355	 1.5613392337	 0.3807458302	-0.370128
C	 1.4340431009	 0.0901487751	 0.585561237	 0.208306
C	 0.7779914734	-0.341053286	 1.9199813743	-0.12999
O	-0.5412136956	-0.3896648404	 1.2901391068	-0.343376
C	 0.0230221923	-0.000935225	 0.0233157802	 0.365798
C	 0.0921486203	-1.016737577	-1.1074588391	-0.156459
O	 1.4795514581	-1.0114427312	-1.477881713	-0.262597
C	 2.2596586191	-0.8463449077	-0.2819015754	-0.170265
H	-0.6348070893	 2.1368494657	 0.2353878172	 0.116117
H	 0.1125004945	 1.753426878	-1.3430978326	 0.107054
H	 2.1996076728	 1.8585710899	-0.2501922746	 0.222786
H	 1.0678938135	-1.3243158857	 2.3091702267	 0.102274
H	 0.8243622853	 0.4120170087	 2.7114122524	 0.116596
H	-0.2255461508	-2.0018478396	-0.7348523149	 0.104206
H	-0.4782528131	-0.7659641255	-2.0052675097	 0.111287
H	 3.2364227811	-0.4570945535	-0.583522617	 0.112459
H	 2.4091588586	-1.8138331947	 0.2216908978	 0.097341
134.2843	190.204	301.6346	326.8366	358.9593	370.735	541.002	610.3477	625.5396	700.8462	748.8486	784.8024	893.006	908.9766	923.813	933.2551	959.6678	968.2282	979.2478	990.8143	1056.8395	1103.1192	1147.6889	1156.0088	1169.1469	1205.3553	1227.37	1237.7342	1243.5302	1284.7605	1318.0849	1335.6163	1343.7394	1382.7105	1395.7562	1492.7906	1496.1487	1502.7954	1508.5007	2986.6659	3001.0825	3025.9789	3031.9047	3085.5036	3092.8191	3097.7818	3100.3994	3533.1747
C1NC23COC12COC3	C1N[C@@]23CO[C@@]12COC3	
InChI=1S/C6H9NO2/c1-6-4-8-2-5(6,7-1)3-9-6/h7H,1-4H2	InChI=1S/C6H9NO2/c1-6-4-8-2-5(6,7-1)3-9-6/h7H,1-4H2/t5-,6+/m0/s1
