17
gdb 41363	2.87583	1.92829	1.72016	1.1641	66.59	-0.2472	0.0396	0.2868	856.8581	0.138179	-458.882068	-458.875767	-458.874823	-458.912412	26.349	
C	-0.009800958	 1.4804764427	-0.0552321817	-0.189861
O	 1.451193547	 1.4669269419	 0.1247031679	-0.311389
C	 1.2998537492	 0.1863069381	 0.8140476055	 0.136734
C	 1.7973009857	-1.2346569926	 0.5541876656	-0.02625
C	 0.4993255597	-1.9243589412	 1.1498718216	-0.105038
O	-0.6363534062	-1.0786943462	 0.7290219008	-0.351056
C	 0.0489701824	-0.0599770396	 0.0203739557	 0.327423
C	 0.6036018419	-0.6736617145	-1.2843546739	-0.108027
O	 1.7648521415	-1.4172386723	-0.8470899448	-0.265667
H	-0.5088597577	 1.957880632	 0.795460637	 0.120133
H	-0.3012637696	 1.9521287414	-0.9964627318	 0.12002
H	 1.1250888308	 0.3683046374	 1.8802259983	 0.091134
H	 2.7358209237	-1.6135916089	 0.9579041577	 0.094671
H	 0.38963825	-2.9188357274	 0.7101651454	 0.128017
H	 0.5019854348	-1.9995730816	 2.2426683684	 0.114759
H	-0.137474046	-1.3536418039	-1.7178717817	 0.10917
H	 0.9146843309	 0.0644876348	-2.0281252299	 0.115228
204.9275	299.6344	329.6802	352.4282	419.5739	470.7014	604.7708	621.5865	712.378	794.6068	824.5786	854.688	869.9691	878.6579	933.8385	952.3997	971.0116	982.4199	1011.7055	1057.294	1082.4121	1104.58	1133.3569	1162.4322	1191.5896	1207.2601	1220.9159	1246.3024	1263.598	1311.1134	1315.4921	1345.2865	1385.0147	1397.9877	1496.7553	1503.2621	1513.1669	3038.2963	3041.5461	3042.346	3050.4296	3097.5887	3108.1095	3114.3547	3133.4704
C1OC2C3COC12CO3	C1O[C@@H]2[C@H]3CO[C@@]12CO3	
InChI=1S/C6H8O3/c1-4-5-6(9-1,2-7-4)3-8-5/h4-5H,1-3H2	InChI=1S/C6H8O3/c1-4-5-6(9-1,2-7-4)3-8-5/h4-5H,1-3H2/t4-,5-,6+/m1/s1
