20
gdb 37805	2.48603	2.05226	1.62951	1.8858	76.67	-0.2228	0.0691	0.292	922.3231	0.17564	-403.131539	-403.124816	-403.123872	-403.162324	28.185	
C	-0.0128768693	 1.5075075201	-0.0303988602	-0.243872
C	 1.4444651224	 1.9329902284	-0.0498726437	-0.038131
C	 2.3647770237	 1.3088158341	 0.9376371152	-0.028468
C	 1.9207022346	 0.5847771675	 2.2143185242	-0.115612
O	 1.2866572725	-0.6652286508	 2.0560505105	-0.230628
C	 0.0114038936	-0.6184295273	 1.4469355778	-0.089551
C	 0.0399969645	-0.0385532946	 0.0212350048	-0.056877
C	 1.3892266341	-0.3532608207	-0.6704249409	-0.155218
N	 2.2986913923	 0.7882031949	-0.4416949564	-0.11931
H	-0.5765876063	 1.9351473642	 0.806294991	 0.100405
H	-0.5011847081	 1.8437140009	-0.9515667514	 0.104958
H	 1.6924485073	 2.8977401426	-0.4852220209	 0.082508
H	 3.3018204345	 1.8387426743	 1.1055836691	 0.091585
H	 2.8133133429	 0.3711757723	 2.8098242692	 0.116092
H	 1.2881708483	 1.2672930087	 2.8092025885	 0.091862
H	-0.3218654005	-1.6607260845	 1.4195286791	 0.107593
H	-0.6979481574	-0.0563425553	 2.0773154403	 0.086771
H	-0.8040689999	-0.465747071	-0.5291406106	 0.07654
H	 1.8420139015	-1.279662044	-0.3117782075	 0.119303
H	 1.2574634592	-0.43228587	-1.754963748	 0.100051
139.8691	265.6695	310.5218	360.9015	389.6758	434.1728	509.8491	673.4191	696.6639	722.5884	759.6636	785.2064	840.925	882.8339	914.5583	923.1988	938.6099	988.2775	1019.0733	1030.6428	1059.4691	1072.7309	1111.2631	1122.7037	1134.8935	1170.8348	1197.9121	1225.5589	1250.001	1284.0241	1290.9423	1320.8549	1336.6696	1347.5019	1355.2967	1372.0353	1390.0018	1416.3025	1438.1997	1483.6447	1489.4075	1496.9303	1504.4179	2947.9718	2966.8015	3037.2624	3043.1453	3059.2213	3073.4029	3074.2853	3079.9405	3106.8795	3113.7922	3136.3128
C1C2C3COCC1CN23	C1[C@H]2[C@H]3COC[C@@H]1CN23	
InChI=1S/C7H11NO/c1-5-2-8-6(1)7(8)4-9-3-5/h5-7H,1-4H2	InChI=1S/C7H11NO/c1-5-2-8-6(1)7(8)4-9-3-5/h5-7H,1-4H2/t5-,6-,7+,8?/m0/s1
