21
gdb 107051	3.91177	1.06573	0.95729	2.5857	78.99	-0.247	0.0701	0.3172	1299.2733	0.182457	-424.219309	-424.210242	-424.209298	-424.252945	34.504	
C	 0.0842787559	 1.5603696579	-0.0271671376	-0.398373
C	 0.0537321978	 0.043418468	 0.0731880963	 0.133139
O	 0.7006751657	-0.5019360195	-1.0794545444	-0.272002
C	 1.1422637862	-1.8188030139	-0.768381104	-0.140423
C	 1.4823201072	-1.8049238793	 0.7160143812	 0.355703
C	 1.5393912897	-3.1094064201	 1.4531715943	-0.188726
O	 2.6291298307	-3.863900904	 0.9331194703	-0.421938
C	 2.2953761931	-0.6141489712	 1.1581828769	-0.32553
C	 0.790264488	-0.5754514004	 1.2552226085	-0.13173
H	 1.113875313	 1.9284125434	-0.0092319278	 0.122083
H	-0.384992497	 1.8885187589	-0.9588988486	 0.124704
H	-0.4611837139	 2.0083759236	 0.8092853536	 0.111663
H	-0.996854062	-0.2970598653	 0.105843838	 0.061453
H	 0.3491000503	-2.5622156442	-0.9592049923	 0.082387
H	 1.9905247889	-2.0467489495	-1.4198973396	 0.11713
H	 1.6608877425	-2.9224694141	 2.5321538026	 0.083536
H	 0.5893426146	-3.6531354234	 1.3182222184	 0.08461
H	 2.6066196466	-4.7381310195	 1.333740362	 0.286985
H	 2.8509400217	-0.7125594049	 2.0843446999	 0.109695
H	 2.7815027494	-0.0131375959	 0.3965388662	 0.122412
H	 0.3104398316	-0.5710069668	 2.2278269261	 0.083221
78.3072	121.199	186.2968	212.3806	234.258	265.9887	307.0816	357.8371	375.7307	398.9848	542.611	632.0736	664.2718	737.6979	815.7992	878.1036	912.7533	941.7881	955.5125	969.8282	1015.2358	1042.0297	1057.2578	1070.7567	1074.6434	1095.4033	1123.6525	1127.3855	1158.0182	1226.0859	1232.8965	1242.293	1278.2865	1323.2895	1351.0663	1359.9096	1383.5132	1409.7576	1415.7914	1464.068	1485.1623	1489.363	1497.0164	1511.1469	1518.1522	2936.5782	2954.0442	2959.6958	2988.0683	3042.5329	3085.2553	3115.1045	3121.8124	3130.6979	3171.1139	3218.1164	3825.5
CC1OCC2(CO)CC12	C[C@H]1OC[C@@]2(CO)C[C@@H]12	
InChI=1S/C7H12O2/c1-5-6-2-7(6,3-8)4-9-5/h5-6,8H,2-4H2,1H3	InChI=1S/C7H12O2/c1-5-6-2-7(6,3-8)4-9-5/h5-6,8H,2-4H2,1H3/t5-,6+,7+/m1/s1
