20
gdb 8153	3.97466	1.62619	1.38376	1.4617	74.78	-0.2311	0.0894	0.3205	987.4731	0.177041	-349.005244	-348.997262	-348.996318	-349.037166	31.136	
C	 0.1733253921	 1.5562532228	 0.1006935717	-0.401491
C	 0.0868167182	 0.043740358	 0.0055097839	 0.167286
C	 0.7434578682	-0.5928079646	-1.2401510913	-0.321608
C	 1.2506644181	-1.9453535401	-0.7240729235	 0.330143
C	 0.8678513846	-3.2064196978	-1.4608290373	-0.484101
C	 2.5398123432	-1.8920742429	 0.07957421	-0.350665
C	 1.2044792198	-1.8170992113	 0.7743881208	 0.062446
O	 0.7692699176	-0.5325937708	 1.1321485544	-0.275908
H	 1.2173829249	 1.8827078578	 0.06448149	 0.119154
H	-0.3678550187	 2.0229104423	-0.7285639512	 0.113663
H	-0.264669493	 1.9093426546	 1.0384829808	 0.125759
H	-0.9708381262	-0.2663905464	 0.0451189095	 0.065413
H	 0.0201584016	-0.7176139286	-2.0515439806	 0.099298
H	 1.5588382481	 0.035613628	-1.617117415	 0.098484
H	 1.3415850934	-3.2502310826	-2.448700518	 0.118603
H	 1.1802218708	-4.0984112088	-0.9082592587	 0.115364
H	-0.2167416245	-3.2683430852	-1.6089869008	 0.11483
H	 3.1102571728	-2.8119817496	 0.1686219445	 0.10433
H	 3.132647405	-0.9833914304	 0.0565276223	 0.110239
H	 0.8649039539	-2.6141907743	 1.4302982785	 0.088762
88.4597	206.8241	215.9242	236.3983	267.9399	363.1192	364.534	449.166	460.2387	559.0516	632.5344	756.9479	815.431	860.3401	871.4361	906.0115	927.992	963.8806	977.1848	1018.4796	1043.7065	1056.1384	1092.726	1099.477	1139.5853	1151.4432	1160.8648	1213.5873	1274.0743	1291.4423	1303.5648	1359.619	1386.1445	1403.4735	1413.3621	1420.2752	1476.0221	1484.3687	1489.0745	1495.5436	1499.671	1502.8327	2957.0259	3019.6739	3033.9689	3039.8168	3079.0568	3086.4734	3095.7041	3112.2998	3117.6201	3118.8672	3141.4441	3211.3648
CC1CC2(C)CC2O1	C[C@H]1C[C@@]2(C)C[C@H]2O1	
InChI=1S/C7H12O/c1-5-3-7(2)4-6(7)8-5/h5-6H,3-4H2,1-2H3	InChI=1S/C7H12O/c1-5-3-7(2)4-6(7)8-5/h5-6H,3-4H2,1-2H3/t5-,6+,7-/m0/s1
