20
gdb 32522	1.93579	1.61466	0.94111	2.3592	82.91	-0.1878	0.0541	0.242	1291.4121	0.171071	-403.177695	-403.168164	-403.16722	-403.212173	35.102	
C	 0.1798872154	 1.5239985831	 0.1540228631	-0.367434
C	-0.0388073638	 0.0163465992	-0.0612933006	-0.298654
C	 0.6582134786	-0.5188485619	-1.2773765888	 0.156654
C	 0.092515415	-0.9675006502	-2.4503904279	-0.160273
N	 1.0899783871	-1.3559029417	-3.3028635097	-0.258618
C	 2.3197360075	-1.1696130857	-2.7035868893	-0.215043
C	 2.0698986017	-0.6519559989	-1.4500878559	 0.272414
O	 2.948580369	-0.2991483223	-0.4710937029	-0.265819
C	 4.310771454	-0.495965436	-0.7822566986	-0.242533
H	 1.2459473667	 1.7443665176	 0.2574443001	 0.13035
H	-0.2021228225	 2.0990721622	-0.6956363256	 0.109255
H	-0.330913491	 1.8706158485	 1.058734813	 0.100637
H	 0.3132486631	-0.5202091573	 0.8289541459	 0.10456
H	-1.1121097199	-0.1921086978	-0.1422191099	 0.091039
H	-0.9454916121	-1.0416141517	-2.7346113476	 0.114305
H	 0.9531502844	-1.7298626236	-4.2237393867	 0.258053
H	 3.2355445718	-1.4170846997	-3.2110468445	 0.114321
H	 4.5238958358	-1.5540613082	-0.9910658489	 0.11418
H	 4.6120212913	 0.1009733018	-1.6550038702	 0.114194
H	 4.886061078	-0.1769750373	 0.088870675	 0.128411
69.5005	95.7181	145.1771	178.7865	221.0284	246.7667	303.9964	310.2448	340.2154	433.9402	512.3621	602.3652	621.8065	628.488	718.7401	731.437	752.1396	789.9079	906.6786	963.6191	1051.4759	1077.1931	1081.6304	1090.8105	1150.488	1182.8844	1211.8187	1221.2799	1257.4507	1294.7689	1337.7553	1368.792	1404.2637	1422.1394	1468.981	1480.7804	1483.5258	1484.7783	1495.5473	1509.7733	1510.1865	1574.736	1632.2454	2988.9356	3020.6196	3033.6346	3040.2921	3057.1553	3100.4843	3118.9697	3127.4774	3254.7384	3281.5951	3701.3258
CCC1=CNC=C1OC	CCc1c[nH]cc1OC	
InChI=1S/C7H11NO/c1-3-6-4-8-5-7(6)9-2/h4-5,8H,3H2,1-2H3	InChI=1S/C7H11NO/c1-3-6-4-8-5-7(6)9-2/h4-5,8H,3H2,1-2H3
