18
gdb 39882	3.98542	1.50282	1.39178	1.8947	74.57	-0.2374	0.075	0.3124	962.3112	0.150375	-401.868035	-401.861635	-401.860691	-401.898566	27.143	
C	 0.0272181664	 1.5653056367	 0.0503146274	-0.332203
N	 1.249778061	 0.7167055108	 0.0446513658	-0.396839
C	-0.0703603544	 0.0967921611	 0.011717485	 0.420136
C	-0.5317324322	-0.9518818146	 1.030082134	-0.177436
C	-2.060186328	-0.9101748578	 0.8102129041	-0.212845
C	-1.9618703369	-1.4289475305	-0.6412260108	 0.065465
O	-1.4076665327	-2.7617854509	-0.4250147571	-0.29572
C	-0.2081773024	-2.0561167803	-0.0983315987	 0.113851
C	-0.5335939493	-0.8813802415	-1.054623098	-0.186929
H	-0.140521792	 2.1057277397	 0.9782442146	 0.120559
H	-0.2184576074	 2.1248373981	-0.8491568944	 0.111529
H	 1.6630969338	 0.7198810116	-0.8858516283	 0.228987
H	-0.1260678176	-0.9909188332	 2.0378676033	 0.080252
H	-2.6296811887	-1.6088268274	 1.4257285995	 0.108397
H	-2.470971094	 0.0980610664	 0.9078111851	 0.099972
H	-2.8310479521	-1.4137077558	-1.2967741813	 0.082832
H	 0.7042744949	-2.6465487263	-0.0575944155	 0.094273
H	-0.2618353784	-0.8459099961	-2.1087006547	 0.07572
155.4205	246.3949	296.2443	433.4279	470.2863	539.3108	584.0576	714.0623	739.8515	806.5191	829.6428	851.37	874.8199	902.0026	917.8681	931.6474	941.5298	962.0404	972.8092	986.8127	1012.1969	1027.6195	1051.3021	1083.5892	1124.9452	1144.6444	1151.0398	1163.5435	1203.3151	1222.5681	1231.1845	1259.1689	1261.4695	1284.9744	1314.537	1332.4543	1442.8221	1484.1234	1520.2652	3069.1223	3102.4154	3125.9783	3127.6295	3137.518	3148.4565	3157.2078	3186.1449	3480.8085
C1NC11C2CC3OC2C13	C1N[C@]21[C@H]1C[C@@H]3O[C@H]1[C@H]23	
InChI=1S/C7H9NO/c1-3-6-5(4(1)9-6)7(3)2-8-7/h3-6,8H,1-2H2	InChI=1S/C7H9NO/c1-3-6-5(4(1)9-6)7(3)2-8-7/h3-6,8H,1-2H2/t3-,4-,5+,6+,7+/m0/s1
