19
gdb 11998	3.24415	2.01679	1.77332	1.4521	75.85	-0.23	0.0162	0.2461	858.0025	0.166225	-327.913116	-327.9056	-327.904656	-327.944148	30.208	
C	-0.0561930674	 1.5694563194	 0.0463087122	-0.419191
C	-0.0032501805	 0.0325180052	 0.0075670993	 0.262547
C	-1.4266634403	-0.5544879652	-0.0274506296	-0.424929
C	 0.8130500698	-0.4785049832	-1.1751300044	-0.103008
C	 1.8088800542	-1.2913608543	-0.8179603982	-0.070325
C	 1.8787926017	-1.4045852007	 0.6681564211	-0.086786
N	 2.1724191416	-0.0895759877	 1.314866246	-0.339824
C	 0.776429281	-0.5565387267	 1.1945905154	-0.077835
H	 0.9506814296	 1.9810919736	 0.1427619422	 0.13899
H	-0.5130996662	 1.969200973	-0.8657606714	 0.104975
H	-0.6553273764	 1.9158319859	 0.8959779347	 0.10488
H	-1.9598300556	-0.2354130567	-0.9292840289	 0.112377
H	-1.4021833071	-1.6487120931	-0.0210408643	 0.115704
H	-2.0072573004	-0.2183770697	 0.8398204008	 0.108258
H	 0.5847135572	-0.1713284949	-2.1909916118	 0.090153
H	 2.5098959725	-1.773068741	-1.4891878211	 0.095732
H	 2.2186819066	-2.3106859138	 1.1582750909	 0.086149
H	 2.4813327411	-0.2604263241	 2.2709587936	 0.224702
H	 0.2342790286	-0.8144703159	 2.0996429135	 0.077433
161.5716	224.2143	230.858	259.5838	322.1884	357.531	399.5547	454.5428	591.127	605.6706	741.3814	773.5101	797.462	849.1507	855.6736	910.8247	920.5831	949.0275	951.7896	966.68	981.0677	1031.4491	1075.7566	1105.0316	1139.201	1154.7347	1190.7151	1230.9012	1245.6998	1267.3834	1326.0557	1388.6338	1390.3569	1400.794	1423.1775	1484.4607	1488.2724	1500.1795	1511.917	1665.5576	3023.1522	3029.364	3087.9329	3092.7143	3103.6952	3129.2111	3148.8481	3167.7144	3176.9658	3209.1146	3471.4181
CC1(C)C=CC2NC12	CC1(C)C=C[C@H]2N[C@@H]12	
InChI=1S/C7H11N/c1-7(2)4-3-5-6(7)8-5/h3-6,8H,1-2H3	InChI=1S/C7H11N/c1-7(2)4-3-5-6(7)8-5/h3-6,8H,1-2H3/t5-,6-/m1/s1
