23
gdb 65658	3.55079	0.88154	0.85296	1.3523	85.7	-0.2522	0.0661	0.3183	1497.0459	0.205337	-388.26516	-388.255702	-388.254758	-388.300023	36.382	
O	 0.2316942275	 1.376153585	 0.2362003	-0.472676
C	 0.0801677509	-0.0138164195	 0.0684329794	 0.428492
C	-1.3530423831	-0.5063283006	 0.1685475859	-0.279645
C	-2.2914185	 0.0949037808	-0.8720447622	 0.053988
C	-2.1742073759	-0.3221021664	-2.368562918	-0.217437
C	-3.7232221014	-0.2858257011	-2.4581822542	-0.20972
C	-3.7732706443	-0.3747355898	-0.9090753417	-0.238414
C	 1.0718227626	-0.7037923457	-0.8390873191	-0.315986
C	 1.1927600304	-0.8148593918	 0.6697859469	-0.305745
H	-0.0642255622	 1.804904887	-0.5736823197	 0.282025
H	-1.3630926634	-1.6003684034	 0.079970822	 0.085675
H	-1.7311384328	-0.2658787681	 1.1717020622	 0.101676
H	-2.2681288135	 1.1889645131	-0.7926278375	 0.063533
H	-1.6040346239	 0.3217209884	-3.0434360456	 0.088388
H	-1.7917375201	-1.3438131837	-2.4641364596	 0.097054
H	-4.08501126	 0.6815669909	-2.818797131	 0.100488
H	-4.2186396286	-1.0740329322	-3.0298371558	 0.095269
H	-3.8659692913	-1.4119617451	-0.5691832726	 0.097028
H	-4.5146672714	 0.2297952627	-0.3804984112	 0.095049
H	 0.7537151998	-1.5766195033	-1.3987654984	 0.109625
H	 1.7954317352	-0.0758006985	-1.3470273084	 0.110548
H	 1.9876775684	-0.2530737356	 1.1459526606	 0.121055
H	 0.9534224872	-1.7620135131	 1.1411102182	 0.10973
43.5661	83.0579	115.7329	175.5077	270.5674	289.5769	320.7017	356.0908	407.4778	436.172	487.7907	641.9574	730.7539	764.9022	780.4726	791.1074	865.2814	899.2739	913.3579	923.7776	931.7734	936.2362	969.2518	976.2799	989.5779	1045.847	1065.7576	1077.7414	1107.9623	1125.5962	1188.455	1197.9299	1208.2445	1254.4554	1256.0423	1264.9757	1274.4747	1287.9014	1295.5909	1312.7822	1340.4244	1362.5392	1404.6035	1452.758	1469.7482	1477.9044	1487.6501	1498.9256	1511.7273	3009.8619	3021.5203	3043.414	3047.198	3054.0518	3057.1623	3092.8795	3097.8526	3115.1674	3131.568	3138.0629	3216.3573	3232.1917	3805.0568
OC1(CC2CCC2)CC1	OC1(CC2CCC2)CC1	
InChI=1S/C8H14O/c9-8(4-5-8)6-7-2-1-3-7/h7,9H,1-6H2	InChI=1S/C8H14O/c9-8(4-5-8)6-7-2-1-3-7/h7,9H,1-6H2
