17
gdb 38705	2.84709	2.16343	1.62465	1.6197	71.64	-0.2265	0.0044	0.2309	859.5218	0.137806	-421.791841	-421.785473	-421.784528	-421.822143	27.059	
C	 0.0221166044	 1.4974324311	-0.1029842724	-0.399361
C	 1.3718887167	 0.8077302915	 0.0045596193	 0.057956
O	 2.0906697779	 0.26119149	-1.0809441134	-0.264636
C	 1.4178631704	-0.9914357179	-1.2802442433	 0.171677
C	 1.7623800042	-2.0571839474	-0.1853286206	-0.310185
C	 0.8190446564	-2.0229569036	 1.0099895932	-0.050505
C	-0.013490298	-0.9926961599	 1.1991943602	-0.167305
C	 0.0956903908	 0.0110568224	 0.1096553789	 0.32947
O	 0.059272263	-0.6560322474	-1.1651259585	-0.266807
H	-0.2318314491	 2.1494172205	 0.727920978	 0.122176
H	-0.3585180971	 1.8011442565	-1.0710053113	 0.136429
H	 1.9703710653	 1.0015611281	 0.8877350279	 0.105824
H	 1.6388174777	-1.338667833	-2.2920316217	 0.094889
H	 1.7255139036	-3.0552193065	-0.6400396327	 0.115943
H	 2.8019000197	-1.9070420883	 0.1313393282	 0.126919
H	 0.8230526745	-2.8835698697	 1.6724316143	 0.097934
H	-0.7155520005	-0.9196039063	 2.0217398041	 0.099583
184.5822	277.9975	357.1031	410.3897	459.7638	491.2375	552.5527	655.9606	700.309	716.797	787.2222	797.7456	825.396	871.3474	881.5103	913.7583	948.9746	965.4565	979.6683	1012.7147	1032.0264	1045.66	1084.2674	1107.5863	1128.1367	1156.2285	1197.3242	1198.9534	1284.9962	1318.2828	1325.1242	1357.8241	1374.6719	1414.9768	1458.6612	1461.5374	1665.3512	3027.5769	3059.9012	3104.5918	3127.8482	3168.3641	3170.9327	3199.225	3229.1672
C1C2OC3CC=CC12O3	C1[C@@H]2O[C@H]3CC=C[C@@]12O3	
InChI=1S/C7H8O2/c1-2-6-8-5-4-7(5,3-1)9-6/h1,3,5-6H,2,4H2	InChI=1S/C7H8O2/c1-2-6-8-5-4-7(5,3-1)9-6/h1,3,5-6H,2,4H2/t5-,6+,7+/m0/s1
