18
gdb 102688	2.66495	0.93422	0.83271	4.0828	69.3	-0.2724	0.0051	0.2775	1418.7827	0.146529	-476.207288	-476.197589	-476.196645	-476.242586	34.342	
O	-0.0737429226	 1.4879894584	-0.0938137018	-0.419965
C	 0.0638641263	 0.0741595776	 0.0202924655	-0.08487
C	-1.3012681163	-0.6155700837	 0.0407482807	 0.087242
C	-2.1592237078	-0.179478423	 1.2411283528	-0.088813
O	-2.5951552553	 1.1584040158	 1.1589624469	-0.420589
O	-1.8704147207	-0.2714024783	-1.2245661617	-0.269868
C	-3.2373261338	-0.5809712434	-1.386517891	-0.208063
C	-3.5999697487	-0.3538189397	-2.788582796	 0.268789
N	-3.9122867547	-0.179232055	-3.8861612101	-0.291166
H	-0.5217608651	 1.6406565387	-0.9355137856	 0.302338
H	 0.6644915676	-0.3268551753	-0.8068060571	 0.11518
H	 0.5956481204	-0.1177027591	 0.9564430175	 0.122151
H	-1.1524691038	-1.7073952522	 0.102738535	 0.077866
H	-3.0590819547	-0.8004985629	 1.3139450666	 0.110923
H	-1.571443493	-0.3772250006	 2.1533877391	 0.096663
H	-1.8102395724	 1.6857876232	 0.9493138391	 0.291294
H	-3.4480020991	-1.6335430763	-1.1410021263	 0.140046
H	-3.8671900563	 0.0540310756	-0.7497431636	 0.17084
56.1165	96.8729	112.9977	155.7436	177.3763	259.7435	268.2321	325.3531	364.8363	393.3871	421.5483	542.656	544.9021	665.7721	792.0313	803.5711	915.4161	950.03	960.8802	987.7995	1042.2282	1065.44	1089.2145	1124.415	1148.416	1221.8883	1236.4291	1261.786	1328.7307	1346.3645	1390.3811	1401.8544	1419.2258	1432.0706	1469.4157	1493.7795	1498.7879	1519.9317	2373.7119	2960.82	2972.5288	2990.2432	3023.0349	3046.7381	3061.3481	3099.9101	3717.1254	3787.7864
OCC(CO)OCC#N	OCC(CO)OCC#N	
InChI=1S/C5H9NO3/c6-1-2-9-5(3-7)4-8/h5,7-8H,2-4H2	InChI=1S/C5H9NO3/c6-1-2-9-5(3-7)4-8/h5,7-8H,2-4H2
