19
gdb 31951	3.114	1.00298	0.83087	1.9039	80.26	-0.2134	0.0126	0.2261	1434.9372	0.158965	-423.061081	-423.051765	-423.05082	-423.096319	33.552	
C	-0.0671767799	 1.3479728196	 0.4725589965	-0.371248
C	-0.1108535179	-0.0763286678	-0.1080512716	-0.29508
C	-1.4921658183	-0.6097861075	-0.2716638963	 0.358821
C	-2.232350622	-0.9917796908	-1.3476308336	-0.266435
C	-3.5046980084	-1.4173422665	-0.8425692817	-0.262215
C	-3.458551108	-1.258999425	 0.5059059311	 0.328429
C	-4.4056702966	-1.5236846099	 1.6229667381	-0.176737
O	-3.9961246801	-2.5925176329	 2.4715684767	-0.412894
O	-2.2327423501	-0.7634935714	 0.8678232383	-0.228297
H	 0.966529545	 1.6865880625	 0.58993183	 0.113941
H	-0.5871087151	 2.0529009335	-0.1831305262	 0.122637
H	-0.550658253	 1.3814295752	 1.4527315038	 0.129675
H	 0.373898155	-0.0986755753	-1.0892380285	 0.115145
H	 0.4670190306	-0.7479047983	 0.5407749524	 0.115369
H	-1.9090438946	-0.9753513152	-2.3769887663	 0.106939
H	-4.3422138309	-1.7949464954	-1.4085118036	 0.111126
H	-4.5607510206	-0.6032889092	 2.208325111	 0.100165
H	-5.3721923751	-1.8151966986	 1.2036470043	 0.123526
H	-3.10930618	-2.3810990468	 2.7817104058	 0.287134
40.1723	70.2771	121.0426	145.2122	211.8855	266.9602	309.9966	353.0137	418.9621	429.6845	605.2927	658.3011	685.0433	761.0794	784.9868	804.6292	837.2299	939.2569	953.251	986.3678	1009.9088	1034.3115	1040.4709	1077.6896	1090.2772	1185.1805	1222.8809	1234.5773	1255.5234	1293.3034	1354.9518	1367.2685	1397.7402	1409.7964	1419.0921	1474.2666	1490.215	1496.9734	1507.0509	1596.2897	1656.3295	2976.7177	3020.4783	3041.822	3079.0717	3099.7327	3113.5945	3122.0986	3248.6711	3262.1822	3816.431
CCC1=CC=C(CO)O1	CCc1ccc(CO)o1	
InChI=1S/C7H10O2/c1-2-6-3-4-7(5-8)9-6/h3-4,8H,2,5H2,1H3	InChI=1S/C7H10O2/c1-2-6-3-4-7(5-8)9-6/h3-4,8H,2,5H2,1H3
