17
gdb 125111	3.01149	1.30974	0.94746	1.8512	72.24	-0.2026	0.0199	0.2224	1212.8294	0.136813	-455.164841	-455.155877	-455.154933	-455.198713	32.74	
C	 0.0525477979	 1.4801513855	 0.0415966613	-0.513608
C	 0.0322202519	-0.008403189	-0.0329710408	 0.280743
C	 0.1236227088	-0.8646731724	-1.1127036582	 0.14104
O	 0.2620045775	-0.5088770691	-2.4184400371	-0.458544
C	 0.0468571939	-2.1733971345	-0.5778787444	 0.194214
C	 0.090389721	-3.4345655868	-1.3793918589	-0.192139
O	 0.9956623459	-3.3011055272	-2.4894665999	-0.420148
N	-0.0719660008	-2.1437677191	 0.7489424008	-0.298766
N	-0.0932211214	-0.8342021901	 1.0503703011	-0.263567
H	 0.8070786686	 1.8462229769	 0.7476575731	 0.128649
H	 0.2911703123	 1.8839164711	-0.9448632202	 0.156359
H	-0.9157683942	 1.8953346774	 0.3462917891	 0.134538
H	 0.5173698464	-1.3178685629	-2.8886384135	 0.298343
H	 0.3500825326	-4.2885898451	-0.7420706155	 0.123209
H	-0.8788903433	-3.6495475813	-1.8430845035	 0.12899
H	 1.880687402	-3.1927991873	-2.1228191489	 0.292215
H	-0.1727386889	-0.5600862064	 2.0145821656	 0.268472
79.4449	93.4	141.8738	201.8546	246.869	288.3915	333.0107	388.0382	423.552	454.6268	509.5626	608.3664	626.8317	672.1876	720.7589	735.7321	806.3981	971.625	995.8243	1022.4029	1040.8802	1062.6979	1177.9183	1202.2809	1261.7896	1297.2363	1342.4299	1361.1731	1409.0593	1418.1474	1458.2654	1485.0659	1490.8948	1498.921	1503.9561	1546.5667	1676.4466	3023.5277	3029.8613	3071.3593	3071.5752	3128.1011	3674.4069	3700.0462	3800.6331
CC1=C(O)C(CO)=NN1	Cc1c(O)c(CO)n[nH]1	
InChI=1S/C5H8N2O2/c1-3-5(9)4(2-8)7-6-3/h8-9H,2H2,1H3,(H,6,7)	InChI=1S/C5H8N2O2/c1-3-5(9)4(2-8)7-6-3/h8-9H,2H2,1H3,(H,6,7)
