18
gdb 123408	5.13796	0.94588	0.82848	3.4682	76.65	-0.2527	0.0152	0.2679	1369.2993	0.150686	-398.146645	-398.138752	-398.137808	-398.180308	29.252	
C	-0.0132346462	 1.555250452	 0.6264192059	-0.333801
C	-0.4237172124	 0.4570284326	-0.3350575151	 0.013251
C	-0.0512662198	-0.9852075758	-0.0579477352	-0.271239
C	-1.4858009875	-0.532538552	 0.0577647254	-0.280076
C	 1.3679085994	 2.0830510562	 0.3852979285	 0.375161
N	 1.8111585204	 3.299268089	 0.6621555953	-0.321144
C	 3.116536064	 3.246832607	 0.2771275421	 0.021196
N	 3.5141894561	 2.0893009138	-0.222870677	-0.217355
N	 2.3767611814	 1.3554489537	-0.1428022483	-0.229693
H	-0.7025152698	 2.403708505	 0.5699111651	 0.139968
H	-0.0789504428	 1.1788182565	 1.6565754816	 0.123904
H	-0.4157855114	 0.7549443699	-1.3802049112	 0.098356
H	 0.2202998313	-1.6231107135	-0.892120566	 0.118588
H	 0.4796648178	-1.206278768	 0.8629152262	 0.118927
H	-1.9105386656	-0.4520478781	 1.052896917	 0.119515
H	-2.1896409311	-0.8578756244	-0.6995800227	 0.120403
H	 3.790294027	 4.0862780371	 0.3639761102	 0.12316
H	 2.3605310691	 0.403283529	-0.4686788819	 0.28088
38.8327	85.7669	128.5156	274.2894	302.3101	331.9687	433.2767	582.3951	698.4659	702.3984	740.9214	785.4608	810.8411	838.6094	901.7364	911.2329	950.3078	982.2247	1002.1698	1047.3182	1057.6368	1085.2537	1127.5615	1139.1603	1149.7754	1201.5668	1208.5854	1227.4834	1249.9979	1285.2123	1307.3299	1312.0743	1410.9321	1429.9577	1466.6682	1474.4242	1498.6611	1507.7919	1585.2592	3018.3258	3081.1498	3126.8162	3137.077	3144.4005	3207.6339	3225.0742	3259.2852	3669.3187
C(C1CC1)C1=NC=NN1	C(C1CC1)c1ncn[nH]1	
InChI=1S/C6H9N3/c1-2-5(1)3-6-7-4-8-9-6/h4-5H,1-3H2,(H,7,8,9)	InChI=1S/C6H9N3/c1-2-5(1)3-6-7-4-8-9-6/h4-5H,1-3H2,(H,7,8,9)
