15
gdb 48698	2.99809	1.19816	1.00242	5.1278	71.7	-0.2686	-0.0519	0.2168	1164.2801	0.112076	-416.777825	-416.769916	-416.768972	-416.81076	28.891	
O	-0.1158231717	 0.001304441	 0.0791734978	-0.248156
C	 0.0059351157	 1.1809239112	-0.1381002415	 0.074827
C	 1.2759274315	 1.9136825266	 0.0507465837	 0.256548
C	 1.3294666514	 3.3709119857	 0.3360106074	-0.272981
N	 1.7526414667	 2.9465860324	-0.9964126363	-0.154476
C	 3.151207241	 2.3833796108	-0.8088874375	-0.102561
C	 2.6496725985	 1.2687762255	 0.160502675	-0.334407
C	 3.7170628466	 1.9109586682	-2.0645030405	 0.296233
N	 4.1863633532	 1.5213939227	-3.0455785462	-0.309133
H	-0.8357372609	 1.8082567933	-0.505259154	 0.090327
H	 0.393138257	 3.9204895057	 0.3208398023	 0.145527
H	 2.0648558475	 3.7392959225	 1.0489939602	 0.13201
H	 3.8319235525	 3.1186612852	-0.3678221174	 0.134315
H	 3.1073171056	 1.234023707	 1.1507819781	 0.127973
H	 2.6755729554	 0.2766216522	-0.2885613712	 0.163954
70.205	139.3703	178.8284	203.4851	278.3308	352.0257	437.9332	475.7549	508.3456	548.4287	691.4976	750.686	778.4696	852.1706	884.2878	945.8655	957.7906	1020.9658	1045.7763	1083.6045	1117.6388	1130.767	1155.2655	1225.961	1245.5104	1302.1747	1351.2865	1363.2631	1426.8468	1487.3031	1501.2594	1813.8739	2365.6812	2897.8011	3060.553	3087.0773	3102.8724	3156.5356	3200.3237
O=CC12CN1C(C2)C#N	O=C[C@]12CN1[C@@H](C2)C#N	
InChI=1S/C6H6N2O/c7-2-5-1-6(4-9)3-8(5)6/h4-5H,1,3H2	InChI=1S/C6H6N2O/c7-2-5-1-6(4-9)3-8(5)6/h4-5H,1,3H2/t5-,6-,8?/m0/s1
