19
gdb 81618	4.0924	0.91166	0.82195	3.9234	78.72	-0.2774	0.0091	0.2865	1424.546	0.158835	-422.997673	-422.989168	-422.988224	-423.032356	31.471	
C	-0.2130032266	 1.5598688925	-0.0000814824	-0.447786
C	-0.0064476325	 0.0543092386	-0.0535915893	 0.060306
C	 1.1776514258	-0.5892110784	-0.8607661994	-0.107581
C	 2.1366221925	-0.1412689231	 0.2817714756	-0.240622
C	 0.8754943627	-0.6970520173	 1.0072484271	-0.107581
C	 0.9647424443	-1.8642367742	-0.0072602712	 0.184227
O	-0.2175763988	-2.6184172618	-0.2420409717	-0.207182
C	-0.12468555	-3.9586744654	-0.3044587047	 0.1588
O	-1.0685300894	-4.664320099	-0.4978421848	-0.27785
H	 0.7013844822	 2.1300897372	 0.1808124593	 0.117035
H	-0.6419287202	 1.9148086568	-0.943534473	 0.122978
H	-0.9231332248	 1.8144561761	 0.7942504993	 0.122978
H	-0.9628635212	-0.4382664528	-0.236733228	 0.100102
H	 1.3576744044	-0.544685612	-1.9356146921	 0.078709
H	 3.0631800571	-0.7110652326	 0.3987502232	 0.094931
H	 2.3267401409	 0.9255857985	 0.3741119891	 0.108853
H	 0.7077918816	-0.7766286721	 2.0820659147	 0.07871
H	 1.8247866152	-2.534591028	 0.0931588437	 0.083028
H	 0.9097857867	-4.326037543	-0.1584011755	 0.077944
17.4368	135.3566	141.2095	183.5755	270.7847	318.8453	379.1922	380.5802	458.8554	597.7227	721.543	767.5184	783.3721	797.4766	893.8718	897.885	934.855	1015.465	1018.7229	1025.2537	1043.4953	1059.5893	1088.4434	1115.6501	1128.3092	1133.9468	1154.5406	1190.4255	1199.6532	1215.668	1248.0909	1251.4208	1278.5499	1399.1634	1410.3829	1429.5563	1454.5357	1496.5886	1497.5449	1534.177	1864.67	2947.6057	3035.9832	3053.5718	3064.9222	3092.9089	3093.5226	3106.7242	3111.6081	3118.2014	3161.6266
CC1C2CC1C2OC=O	C[C@H]1[C@H]2C[C@@H]1[C@H]2OC=O	
InChI=1S/C7H10O2/c1-4-5-2-6(4)7(5)9-3-8/h3-7H,2H2,1H3	InChI=1S/C7H10O2/c1-4-5-2-6(4)7(5)9-3-8/h3-7H,2H2,1H3/t4-,5+,6-,7-
