15
gdb 94132	1.95417	1.6033	1.26961	5.1456	70.1	-0.3083	-0.0471	0.2611	1068.437	0.111345	-416.800764	-416.791968	-416.791024	-416.834803	30.892	
C	-0.4097888118	 1.4121303786	 0.0209538706	-0.426318
C	 0.0618746555	-0.0253137421	-0.0886889756	-0.084442
C	 1.4052729296	-0.3234882678	-0.7875810005	-0.085533
O	 1.9020948618	-1.0474078373	 0.3712312603	-0.288185
C	 0.7530938166	-0.7045252831	 1.1578317534	 0.142426
C	 1.0961028478	 0.2097741852	 2.260022656	 0.28611
N	 1.3675432595	 0.962157086	 3.0931397639	-0.323005
C	 0.0609988588	-1.8896156913	 1.6834201474	 0.273795
N	-0.5115210869	-2.8213928445	 2.0544720608	-0.315881
H	 0.374467122	 2.0672522964	 0.4100765641	 0.149463
H	-0.7024994275	 1.7789055167	-0.967962778	 0.13598
H	-1.2799563911	 1.4946667959	 0.6787439216	 0.146413
H	-0.73957066	-0.6725005079	-0.4486279967	 0.127478
H	 1.3683215725	-0.9649466052	-1.6717656754	 0.133424
H	 2.0197376931	 0.5596634706	-0.9938219219	 0.128274
51.1947	129.9289	141.459	161.9003	220.7449	245.2452	310.1507	391.2314	499.3601	509.6272	549.2211	590.7728	602.796	747.1754	898.4253	928.0325	979.1257	997.815	1021.5163	1076.457	1129.3986	1143.5721	1158.8263	1203.9431	1284.9595	1337.8322	1376.6223	1420.2459	1492.2726	1493.1369	1525.1003	2359.9894	2363.4705	3043.0896	3045.9988	3094.1371	3108.4556	3114.0074	3127.3635
CC1COC1(C#N)C#N	C[C@H]1COC1(C#N)C#N	
InChI=1S/C6H6N2O/c1-5-2-9-6(5,3-7)4-8/h5H,2H2,1H3	InChI=1S/C6H6N2O/c1-5-2-9-6(5,3-7)4-8/h5H,2H2,1H3/t5-/m0/s1
