17
gdb 18676	3.09886	2.26476	1.50808	2.9248	68.52	-0.2323	-0.0186	0.2137	849.7006	0.144162	-363.862701	-363.855896	-363.854951	-363.893699	26.524	
O	 0.0264387869	-0.0237688972	-0.2450435777	-0.324376
C	 0.0042974773	 1.1717629659	-0.0547840754	 0.395334
C	-1.2848187505	 1.9643626303	 0.100111638	-0.31476
C	-1.1885144599	 3.2511307561	-0.7374914515	-0.211266
C	-0.0447411502	 4.1390139759	-0.2427022959	-0.149356
N	 1.2568854015	 3.4464837273	-0.1263941953	-0.090828
C	 1.5769697553	 2.8365431766	 1.1446263133	-0.240506
C	 1.2694446509	 1.9731073653	-0.043720813	-0.107739
H	-2.1127184208	 1.3210599355	-0.2065660967	 0.125904
H	-1.4386780932	 2.2187520517	 1.1575035315	 0.118101
H	-1.0203820807	 2.985356348	-1.7883204501	 0.118282
H	-2.1287617393	 3.8114867607	-0.7012973224	 0.108576
H	 0.0960467564	 4.9786646417	-0.9317022504	 0.11517
H	-0.3097546649	 4.5691825985	 0.731844484	 0.102672
H	 2.6083037616	 2.9222667065	 1.4772483016	 0.127081
H	 0.8378988938	 2.8788196573	 1.9438979559	 0.11431
H	 2.0937093856	 1.4844590699	-0.5560713958	 0.113399
91.4761	200.2698	247.815	390.2091	406.4949	456.2733	473.2172	563.3397	697.3841	717.9018	740.8436	869.0903	873.8745	912.423	917.5724	976.2847	1015.7201	1061.6654	1071.635	1100.8486	1110.9671	1148.6102	1191.0692	1214.5034	1255.0675	1282.0745	1306.0459	1337.8487	1362.0611	1377.0559	1387.5898	1466.1337	1490.6269	1500.2856	1518.2413	1803.0765	3018.2608	3024.089	3034.3713	3063.8007	3080.5386	3088.3856	3108.5799	3150.1639	3176.1203
O=C1CCCN2CC12	O=C1CCCN2C[C@@H]12	
InChI=1S/C6H9NO/c8-6-2-1-3-7-4-5(6)7/h5H,1-4H2	InChI=1S/C6H9NO/c8-6-2-1-3-7-4-5(6)7/h5H,1-4H2/t5-,7?/m0/s1
