16
gdb 71326	3.81873	1.55083	1.38865	4.0693	68.6	-0.2345	-0.0256	0.2089	943.7446	0.124359	-437.839646	-437.832571	-437.831626	-437.870915	27.801	
C	 0.0047071617	 1.4934059224	-0.1265730614	-0.491742
C	 0.0198628902	 0.0115013878	 0.1125509877	 0.421091
C	-1.2739588023	-0.7879883127	 0.4263324359	-0.227467
N	-0.4633798409	-1.7806151669	 1.2381915106	-0.19604
C	 0.7050430806	-0.8088564018	 1.2364824511	-0.098792
C	 1.3748955116	-1.6139223714	 0.1053210563	-0.046982
O	 0.8120540217	-0.7009998434	-0.8865827504	-0.336301
C	 0.2639339477	-2.6603458617	 0.332724872	 0.415938
O	-0.0283423906	-3.7320689515	-0.0951511696	-0.302361
H	 1.0220036452	 1.8928865531	-0.154163186	 0.135451
H	-0.4725705582	 1.7121816724	-1.0879700762	 0.141476
H	-0.5562881966	 2.0071090427	 0.6598929084	 0.127602
H	-1.9663443568	-0.2473737118	 1.078906841	 0.120941
H	-1.8150899458	-1.2257734657	-0.41607967	 0.136961
H	 1.129312528	-0.4772564286	 2.1799782008	 0.098931
H	 2.4238056546	-1.8480982828	-0.0781302	 0.101296
136.4353	203.6004	221.8523	272.9344	367.2076	424.7002	470.8095	576.4035	676.0961	704.3576	781.5191	799.9278	847.0642	867.0132	874.8343	926.1526	951.1926	971.4095	982.6389	1009.5605	1045.6698	1141.4457	1153.9904	1174.3784	1192.4992	1214.4792	1224.9707	1255.1689	1271.4134	1351.3822	1414.7148	1480.0071	1485.6963	1490.7691	1910.4708	3039.1682	3051.6971	3109.3835	3113.1351	3119.3226	3122.7534	3159.2813
CC12CN3C1C(O2)C3=O	C[C@]12CN3[C@H]1[C@H](O2)C3=O	
InChI=1S/C6H7NO2/c1-6-2-7-4(6)3(9-6)5(7)8/h3-4H,2H2,1H3	InChI=1S/C6H7NO2/c1-6-2-7-4(6)3(9-6)5(7)8/h3-4H,2H2,1H3/t3-,4-,6-/m0/s1
