20
gdb 22775	2.30318	1.11755	0.88247	1.3831	79.32	-0.2465	-0.0016	0.2449	1390.1762	0.168805	-440.232481	-440.222511	-440.221567	-440.267625	36.485	
C	 0.3406594354	 1.2654023858	 0.4053248837	-0.386441
C	 0.3516400842	-0.2241955137	 0.0501287394	-0.175359
C	 0.4654700496	-0.4828170651	-1.4500067126	-0.04054
C	 1.911480186	-0.3120598981	-2.0303220394	-0.33181
C	 2.0289846379	-1.8211517444	-1.9836974896	 0.343584
N	 2.953413265	-2.6695874591	-1.8103018846	-0.237402
O	 4.221609242	-2.0644981896	-1.8484998406	-0.388687
C	 0.5364295416	-2.016900407	-1.8282391479	 0.063842
O	 0.0501806559	-2.9958774313	-0.9538119006	-0.421488
H	 1.2530780005	 1.7671198991	 0.0653100517	 0.117174
H	-0.5092819438	 1.7746887401	-0.0620202969	 0.116422
H	 0.2646027451	 1.4136743647	 1.4869045849	 0.114698
H	 1.1835331252	-0.7184599465	 0.5712470207	 0.089645
H	-0.5621399171	-0.7045930729	 0.4178951505	 0.111696
H	-0.3125862511	 0.0672996542	-1.9869653443	 0.070198
H	 1.9395574877	 0.093802197	-3.0456949673	 0.122745
H	 2.6365711893	 0.2304875898	-1.4187794857	 0.129067
H	 4.8086479209	-2.8125791634	-1.6939403792	 0.307906
H	 0.0495366661	-2.1824547044	-2.797139265	 0.104443
H	 0.7450602198	-3.187332085	-0.3146589071	 0.290305
55.7067	105.8747	133.9285	168.8625	217.4128	227.891	257.6572	290.6879	337.3604	375.4068	418.2772	495.5287	558.1564	629.0292	729.059	772.0785	808.6903	812.214	899.8218	931.3938	977.0792	987.3924	1057.481	1065.4093	1100.1745	1119.3604	1157.3885	1177.084	1207.0689	1243.7478	1266.7491	1286.998	1316.2091	1333.8432	1391.2719	1402.4276	1413.8996	1426.9501	1463.4202	1487.6113	1500.3826	1507.1238	1776.708	3011.746	3031.8152	3033.1272	3056.2827	3061.373	3070.0695	3099.2034	3103.8921	3111.6011	3811.3832	3815.3363
CCC1CC(=NO)C1O	CC[C@H]1CC(=NO)[C@H]1O	
InChI=1S/C6H11NO2/c1-2-4-3-5(7-9)6(4)8/h4,6,8-9H,2-3H2,1H3	InChI=1S/C6H11NO2/c1-2-4-3-5(7-9)6(4)8/h4,6,8-9H,2-3H2,1H3/t4-,6-/m0/s1
