17
gdb 37097	2.15338	2.11536	1.32907	1.5065	72.51	-0.2354	0.0584	0.2938	980.4574	0.136364	-417.894667	-417.887262	-417.886318	-417.926402	29.248	
C	-0.0080296353	 1.5254919916	 0.07049024	-0.304134
N	 1.2060147948	 0.6881872853	-0.0529199789	-0.367183
C	-0.0998607747	 0.0555840718	 0.0343328755	 0.333202
C	-0.4415016254	-1.0026874063	 1.0707973013	-0.174023
N	-1.8974318811	-1.2574273553	 0.9259687384	-0.35092
C	-0.9383739696	-1.9216295941	 0.0016039461	-0.180965
C	-0.6340923398	-0.8755217837	-1.0601859668	 0.418979
C	-1.2040837978	-0.6329054445	-2.3799747136	-0.261133
O	 0.1399111462	-1.1368658526	-2.2162896617	-0.285378
H	-0.1014157222	 2.056988157	 1.0133615929	 0.123403
H	-0.356437139	 2.0785026684	-0.7987765961	 0.112398
H	 1.5214075085	 0.6498918644	-1.0214266529	 0.241845
H	 0.0993338601	-1.2232390572	 1.9815344881	 0.108758
H	-2.1519209548	-1.9497652515	 1.631089113	 0.235001
H	-0.8695638476	-2.9974188591	-0.0913354689	 0.109446
H	-1.9165035725	-1.3397253137	-2.8017880814	 0.123128
H	-1.2718839198	 0.3826437994	-2.7667416251	 0.117576
115.613	183.6438	211.3104	261.0569	328.3455	373.4969	518.2769	557.3503	603.7993	611.0437	823.1315	830.1188	843.2277	864.9703	890.8237	910.9967	929.5845	932.9105	973.8407	993.1686	1011.1224	1057.087	1086.6316	1097.5369	1116.9241	1127.6024	1138.2702	1163.2148	1229.3436	1267.9169	1293.1256	1304.849	1338.902	1428.465	1463.8619	1516.2516	1542.9613	3087.2341	3103.5854	3175.1331	3189.3605	3202.5414	3214.3585	3466.9476	3477.1294
C1NC11C2NC2C11CO1	C1N[C@]21[C@H]1N[C@H]1[C@]12CO1	
InChI=1S/C6H8N2O/c1-5(7-1)3-4(8-3)6(5)2-9-6/h3-4,7-8H,1-2H2	InChI=1S/C6H8N2O/c1-5(7-1)3-4(8-3)6(5)2-9-6/h3-4,7-8H,1-2H2/t3-,4+,5+,6-/m0/s1
