16
gdb 9940	3.16338	1.53152	1.42526	4.0566	66.96	-0.2274	0.02	0.2474	945.5549	0.131565	-376.076337	-376.067468	-376.066524	-376.109339	32.224	
N	 0.1881397829	 1.400620661	-0.0070453515	-0.511749
C	 0.0642255421	-0.0211456506	 0.0404630153	-0.020093
C	-0.4325987511	-0.6976260769	 1.2850787596	-0.026367
N	-0.9093435584	 0.0173103586	 2.438117259	-0.530987
C	-1.3262696005	-0.728996226	 0.0353600696	 0.072538
N	-2.4696277076	 0.14851243	 0.0573948459	-0.566389
C	-1.4504978783	-1.9721930385	-0.6812706004	 0.238785
N	-1.5600983462	-2.9577523822	-1.2807595388	-0.350151
H	 0.2040849289	 1.7314770295	-0.9665437633	 0.238681
H	-0.6028569189	 1.8406295782	 0.4504499903	 0.237164
H	 0.8370473134	-0.5404424474	-0.5169989982	 0.116323
H	 0.0383042047	-1.6472230747	 1.5246611481	 0.11877
H	-0.1703071955	 0.6001061307	 2.8203251186	 0.242122
H	-1.6752605025	 0.628603276	 2.1722963341	 0.24077
H	-2.69637708	 0.4690061638	-0.8790636878	 0.246099
H	-3.287156073	-0.3350331016	 0.4170794995	 0.254485
121.8069	131.876	154.7116	170.882	214.6593	262.4461	309.1432	347.6651	445.797	448.9813	572.5826	604.2378	624.0759	697.3315	795.8696	811.8968	853.9919	879.2059	914.7061	1024.4849	1085.5687	1117.4024	1166.2204	1203.8519	1234.3351	1276.29	1281.8462	1307.7162	1394.8749	1458.317	1649.1492	1655.0108	1664.8219	2327.8523	3142.2961	3168.5415	3492.494	3496.7411	3507.0963	3570.5334	3572.5112	3590.7326
NC1C(N)C1(N)C#N	N[C@H]1[C@@H](N)[C@]1(N)C#N	
InChI=1S/C4H8N4/c5-1-4(8)2(6)3(4)7/h2-3H,6-8H2	InChI=1S/C4H8N4/c5-1-4(8)2(6)3(4)7/h2-3H,6-8H2/t2-,3+,4-
