15
gdb 26594	2.44513	1.87204	1.06727	1.301	74.45	-0.217	-0.0424	0.1746	1059.2908	0.113292	-453.992774	-453.984909	-453.983964	-454.025246	29.46	
C	-0.0020033724	 1.5130090402	-0.0625503274	-0.476215
C	-0.022806253	 0.0169565257	-0.0693886834	 0.189349
C	-1.1489343703	-0.7229154626	 0.0846147419	 0.261574
O	-2.3791899335	-0.2048051798	 0.2615888748	-0.428883
C	-1.0840641052	-2.1761057171	 0.0660161358	 0.34081
N	-2.1432842477	-2.8659032192	 0.2110828204	-0.585873
O	 0.1623936304	-2.725352072	-0.1136034358	-0.210673
C	 1.2325710813	-1.8935781596	-0.259258545	 0.101877
N	 1.2047175525	-0.6251554133	-0.2469533725	-0.30895
H	 0.6565383305	 1.8796696248	 0.7325675522	 0.140225
H	 0.4003332675	 1.8915273337	-1.0087738951	 0.140253
H	-1.0027341237	 1.919841431	 0.0871062386	 0.145675
H	-2.9704490203	-0.9761578646	 0.3404114852	 0.310728
H	-1.973509253	-3.8684280207	 0.1806259902	 0.234595
H	 2.1454374869	-2.4626992666	-0.3919026399	 0.145509
103.1166	124.8201	175.8204	283.0837	304.8395	329.3866	500.5849	506.6924	529.3906	544.9979	587.8588	620.6665	695.0935	772.5931	812.4019	872.9371	900.487	949.9439	1012.3915	1059.6323	1086.2417	1123.4966	1257.8018	1267.5771	1349.7946	1404.0914	1414.795	1447.6423	1478.8457	1484.2559	1649.4545	1708.0039	1728.5693	3037.2789	3089.027	3150.0449	3212.7512	3529.5917	3623.4326
CC1=C(O)C(=N)OC=N1	C[C@H]1C(=C([NH])OC=N1)O	
InChI=1S/C5H6N2O2/c1-3-4(8)5(6)9-2-7-3/h2,6,8H,1H3	InChI=1S/C5H7N2O2/c1-3-4(8)5(6)9-2-7-3/h2-3,6,8H,1H3/t3-/m0/s1
