18
gdb 75111	3.36108	1.26335	0.98147	3.1877	83.9	-0.211	-0.0197	0.1912	1206.4625	0.149317	-402.008714	-402.000544	-401.9996	-402.041278	31.51	
C	-0.1247880045	 1.572961613	 0.0456581778	-0.481935
C	 0.0354546948	 0.071949338	 0.0187294097	 0.246108
C	 0.0195136622	-0.579863619	-1.1654389595	-0.083618
N	 0.0920712552	-1.9529954192	-1.3826647058	-0.314312
C	 0.7748941358	-2.94091011	-0.6890308408	 0.38615
O	 0.6836133992	-4.1061332271	-1.0101555381	-0.355625
C	 1.6381470057	-2.4220541939	 0.4547129742	-0.367416
C	 0.7926201804	-1.7619316594	 1.5096985582	-0.104858
C	 0.1267752192	-0.617332498	 1.2960582026	-0.111053
H	 0.7670687826	 2.0681933704	 0.4480509584	 0.130453
H	-0.311917103	 1.979258093	-0.9520540839	 0.120191
H	-0.9633989539	 1.861504511	 0.6912668133	 0.127423
H	-0.121243878	-0.0124006725	-2.0813117625	 0.104074
H	-0.3428723308	-2.3068002622	-2.2234225625	 0.254514
H	 2.1944947133	-3.2722082253	 0.8483093703	 0.129312
H	 2.3495273769	-1.6957934762	 0.0378454006	 0.127357
H	 0.7353027503	-2.2449762636	 2.4802997414	 0.102707
H	-0.3921213056	-0.1481325191	 2.1301251566	 0.090527
104.4803	146.079	174.7006	278.2786	317.5099	346.9435	365.4951	402.165	483.713	577.5418	600.2679	632.187	688.3053	754.5136	777.9071	851.9588	896.115	902.5633	968.3422	982.2042	996.3568	1024.3933	1067.964	1169.0793	1182.9771	1216.1734	1252.5092	1304.0473	1305.9992	1395.6927	1417.4102	1443.2368	1465.3059	1475.7296	1479.2813	1500.8158	1652.8847	1705.7414	1800.3943	3015.1729	3021.204	3069.9636	3109.5292	3136.3419	3140.5032	3161.5617	3180.133	3600.8864
CC1=CNC(=O)CC=C1	CC1=CNC(=O)CC=C1	
InChI=1S/C7H9NO/c1-6-3-2-4-7(9)8-5-6/h2-3,5H,4H2,1H3,(H,8,9)	InChI=1S/C7H9NO/c1-6-3-2-4-7(9)8-5-6/h2-3,5H,4H2,1H3,(H,8,9)
