15
gdb 27955	3.90398	1.13781	0.88155	3.4546	79.32	-0.2258	-0.0717	0.1541	1229.07	0.114572	-416.886375	-416.878787	-416.877843	-416.918484	28.835	
N	-0.0164091473	 1.3770313821	 0.158638035	-0.563879
C	-0.0146078888	 0.0022407398	 0.0617516569	 0.403225
C	-1.215365133	-0.7335218276	 0.0496392048	-0.287984
C	-1.1445054086	-2.1176570911	 0.0034939966	 0.234823
C	-2.3977491139	-2.9156738029	-0.013485452	 0.100861
O	-2.4405352408	-4.121099076	-0.0537597586	-0.256911
C	 0.1081431865	-2.7430745864	-0.0244056762	-0.226637
C	 1.2275623902	-1.9272032557	-0.0093752187	 0.009837
N	 1.1842290569	-0.5903145795	 0.0273731548	-0.33332
H	 0.8658937784	 1.8081206015	-0.0724374645	 0.259342
H	-0.8290909425	 1.8673668347	-0.1781568379	 0.253808
H	-2.1767306119	-0.2287199769	 0.0808588945	 0.096047
H	-3.3293531753	-2.306602152	 0.0140568338	 0.073293
H	 0.1786136749	-3.8223269363	-0.0604984721	 0.123271
H	 2.2241722952	-2.3615402939	-0.0329661463	 0.114225
102.9161	195.813	208.7501	240.4759	365.8762	392.5252	446.8362	450.5101	510.2846	573.5858	615.3224	683.5	767.4104	816.6355	853.8356	878.1938	955.9461	993.3068	1007.97	1040.6546	1059.9985	1135.5972	1186.9972	1317.4757	1329.0007	1351.9955	1417.1932	1467.9989	1518.1843	1604.8766	1628.9725	1654.2041	1807.8661	2878.8485	3156.6119	3166.0688	3223.4663	3584.4454	3701.2196
NC1=CC(C=O)=CC=N1	Nc1cc(C=O)ccn1	
InChI=1S/C6H6N2O/c7-6-3-5(4-9)1-2-8-6/h1-4H,(H2,7,8)	InChI=1S/C6H6N2O/c7-6-3-5(4-9)1-2-8-6/h1-4H,(H2,7,8)
