18
gdb 92155	2.64054	1.64948	1.39741	1.4618	71.49	-0.1984	0.0662	0.2646	1000.7009	0.147771	-439.015049	-439.007412	-439.006468	-439.046832	30.416	
C	 0.0085005828	 1.4632977196	-0.0291218346	-0.326125
N	-0.0138607098	 0.012414825	 0.0430474756	-0.057732
C	-1.3706757231	-0.5686090194	-0.0149439234	-0.158774
C	-1.2767342166	-1.7839397013	 0.8972344583	-0.013885
O	-0.2218320465	-2.659173373	 0.3880484462	-0.295871
C	 0.698436405	-2.0777308795	 1.3086299593	-0.016286
C	 0.5948326083	-0.544200002	 1.2396478573	-0.07485
C	-0.3618328384	-1.332069578	 2.0796322201	 0.278
O	-0.6794867193	-1.1099694037	 3.39847896	-0.45285
H	 1.0423754179	 1.821013109	-0.0007560743	 0.120486
H	-0.4270502248	 1.7859648909	-0.98041174	 0.121361
H	-0.5524839029	 1.958515883	 0.7857915159	 0.095651
H	-2.1359577583	 0.1252682717	 0.3783731426	 0.085256
H	-1.6403289987	-0.8406183464	-1.0408842847	 0.114571
H	-2.2058474683	-2.3222109897	 1.0903209679	 0.083147
H	 1.5909203919	-2.6332831035	 1.5722808258	 0.107433
H	 1.3944391728	 0.0198145257	 1.705468283	 0.100573
H	-0.9048622922	-1.9547709883	 3.806524495	 0.289895
112.6371	208.317	239.8417	309.7654	341.6985	357.6512	382.4232	412.5095	554.428	596.6621	665.5833	695.2983	776.6896	851.2056	883.4457	903.719	936.368	972.8324	990.0885	1022.2848	1027.8805	1051.7717	1076.1386	1139.959	1147.2683	1170.7249	1182.3813	1228.6328	1244.7975	1265.2284	1300.6246	1316.8123	1323.3121	1373.1171	1457.786	1484.571	1493.8351	1500.1298	1505.8874	2928.1548	2942.5224	3060.2122	3065.4278	3102.5405	3110.4803	3182.661	3195.0316	3772.6557
CN1CC2OC3C1C23O	CN1C[C@H]2O[C@H]3[C@@H]1[C@@]23O	
InChI=1S/C6H9NO2/c1-7-2-3-6(8)4(7)5(6)9-3/h3-5,8H,2H2,1H3	InChI=1S/C6H9NO2/c1-7-2-3-6(8)4(7)5(6)9-3/h3-5,8H,2H2,1H3/t3-,4-,5+,6+/m1/s1
