20
gdb 74334	3.88289	1.0431	0.97391	2.4707	81.55	-0.2334	0.0169	0.2503	1306.4044	0.171518	-403.128429	-403.119715	-403.118771	-403.162195	32.457	
C	 0.1258065259	 1.5263454213	 0.0315605809	-0.493003
C	 0.0475443256	 0.0351256496	-0.0058279136	 0.293493
C	-0.9747135147	-0.7646921691	 0.2845475567	-0.199678
C	-0.5950003946	-2.2102644355	 0.0909520386	 0.048247
O	 0.7988016995	-2.1674189902	-0.2355840662	-0.282196
C	 1.2138906417	-0.8188778688	-0.437768601	-0.157096
C	-0.824212819	-3.0918993349	 1.3102683689	 0.006862
C	 0.0653652617	-4.2426412181	 1.5833883657	-0.242086
N	 0.1047416977	-3.0396894047	 2.4423059918	-0.319674
H	 0.914189375	 1.8643052005	 0.7156172059	 0.132559
H	 0.372513322	 1.9354605943	-0.9563307108	 0.13083
H	-0.8188242265	 1.9691572684	 0.3562555587	 0.131982
H	-1.9606431721	-0.4573796648	 0.6108788229	 0.103031
H	-1.1541586191	-2.6528811163	-0.7531744761	 0.084483
H	 1.4684926002	-0.6531904023	-1.4984048797	 0.103275
H	 2.1259992914	-0.625745377	 0.1461204488	 0.106204
H	-1.8733108808	-3.160998212	 1.5945961759	 0.086441
H	-0.3288064462	-5.1351202579	 2.0610942776	 0.11136
H	 0.8920549409	-4.4050512425	 0.8992073511	 0.125137
H	 0.9074869412	-2.4810868298	 2.1562781339	 0.229829
69.4015	99.3541	159.4755	173.4149	233.2289	273.8367	305.0243	413.377	449.5139	587.6431	622.2159	749.0861	806.118	844.1398	852.8848	904.699	913.4783	957.6423	979.3293	1001.5046	1005.3455	1038.9855	1055.333	1092.1078	1097.8229	1122.2293	1149.2371	1188.8117	1198.4308	1216.6716	1267.9132	1286.1211	1305.6538	1325.0648	1358.7772	1382.0576	1414.9261	1416.6224	1480.3766	1489.2711	1502.6454	1521.9348	1734.8206	2933.8718	2960.9121	3002.1116	3021.6178	3067.7878	3114.116	3118.944	3119.8044	3208.092	3211.7511	3482.3725
CC1=CC(OC1)C1CN1	CC1=C[C@@H](OC1)[C@H]1CN1	
InChI=1S/C7H11NO/c1-5-2-7(9-4-5)6-3-8-6/h2,6-8H,3-4H2,1H3	InChI=1S/C7H11NO/c1-5-2-7(9-4-5)6-3-8-6/h2,6-8H,3-4H2,1H3/t6-,7-/m1/s1
