16
gdb 28501	3.22829	1.33755	0.95127	2.0303	75.72	-0.2221	-0.0049	0.2172	1184.2956	0.124535	-437.956375	-437.94791	-437.946966	-437.990468	31.351	
C	-0.0721160502	 1.5139483776	-0.0386058616	-0.464873
C	-0.002468562	 0.008701768	 0.0139429234	 0.329459
N	 0.0428019053	-0.6284528746	-1.1632171962	-0.334935
C	 0.1054550096	-1.961570309	-1.1510656806	-0.113694
C	 0.1262770041	-2.7222863534	 0.0072542239	 0.198491
O	 0.1900653397	-4.091844554	 0.058876195	-0.470016
C	 0.0790109821	-2.059522842	 1.2396157283	 0.355318
O	 0.0962997096	-2.749018657	 2.4025061354	-0.437216
C	 0.0137366319	-0.6727820689	 1.2337286717	-0.265467
H	 0.8001054794	 1.9189674764	-0.5617628726	 0.136569
H	-0.9569108521	 1.8362400624	-0.5968068486	 0.136625
H	-0.1124247202	 1.9528616711	 0.9612452075	 0.115661
H	 0.141452605	-2.4600123851	-2.1208933694	 0.09166
H	 0.2184232192	-4.4498009886	-0.8339747097	 0.306058
H	 0.1433721436	-3.6895755338	 2.1861074901	 0.312492
H	-0.0236022452	-0.1422282089	 2.1780283934	 0.103868
19.2693	141.9738	210.648	244.4288	294.5753	306.154	379.4215	449.9477	458.6043	485.6795	525.2072	588.0916	643.0324	753.7105	761.3972	803.091	887.4447	915.2106	962.0387	1021.6046	1058.7322	1158.0784	1183.7556	1207.6221	1304.7168	1319.9747	1348.4077	1367.4359	1409.7502	1462.3045	1476.1905	1497.6429	1542.9691	1637.2416	1656.108	3040.1246	3099.4624	3110.1968	3123.929	3198.7469	3777.7696	3831.7251
CC1=NC=C(O)C(O)=C1	Cc1ncc(O)c(O)c1	
InChI=1S/C6H7NO2/c1-4-2-5(8)6(9)3-7-4/h2-3,9H,1H3,(H,7,8)	InChI=1S/C6H7NO2/c1-4-2-5(8)6(9)3-7-4/h2-3,9H,1H3,(H,7,8)
