16
gdb 97170	2.56788	1.32645	0.88426	3.2052	78.04	-0.2475	-0.0773	0.1702	1262.8288	0.123247	-437.91392	-437.905146	-437.904202	-437.949079	30.181	
C	-0.1926422045	 1.6381032311	 0.3628206997	-0.338578
N	-0.04230075	 0.1967217167	 0.2668792274	-0.331622
C	-1.050312559	-0.5347391674	 0.0694104881	 0.395567
O	-2.3540811207	-0.1036724314	-0.0746351119	-0.263681
C	-3.2096550581	-1.2295877148	-0.2829831901	-0.138086
C	-2.3027429551	-2.4194282237	-0.2547859805	-0.181017
C	-1.0468028647	-2.0038455511	-0.048893808	 0.114727
C	 0.1712328319	-2.8370740279	 0.0508338149	 0.079249
O	 0.1616705869	-4.0426173945	-0.0478967817	-0.26305
H	 0.4300542254	 2.113161769	-0.4039921421	 0.12978
H	-1.2225551079	 1.9936383751	 0.2511366208	 0.126671
H	 0.1933535065	 1.9728536607	 1.332544979	 0.129771
H	-3.9720144834	-1.2595688652	 0.5077372091	 0.139183
H	-3.7319021259	-1.1179883106	-1.2432546684	 0.139185
H	-2.6285672214	-3.4429227461	-0.3822212816	 0.150701
H	 1.1022090299	-2.26526008	 0.2247329153	 0.111199
20.4048	112.1106	143.1834	149.3387	208.2584	250.1197	259.8065	393.3921	444.7235	557.1772	695.7818	732.5334	779.3956	838.3606	842.7683	942.5471	1031.4994	1040.734	1055.3199	1058.3122	1080.3042	1130.2736	1166.8323	1197.1878	1225.5827	1327.8456	1373.847	1428.0746	1438.1488	1491.39	1493.1858	1495.1656	1673.8167	1786.4546	1796.6523	2964.9816	3009.2272	3018.6994	3036.6881	3076.4003	3092.8431	3239.9702
CN=C1OCC=C1C=O	CN=C1OCC=C1C=O	
InChI=1S/C6H7NO2/c1-7-6-5(4-8)2-3-9-6/h2,4H,3H2,1H3	InChI=1S/C6H7NO2/c1-7-6-5(4-8)2-3-9-6/h2,4H,3H2,1H3
