14
gdb 29103	3.07864	1.4967	1.01255	4.167	69.68	-0.2309	-0.0456	0.1853	1090.5686	0.10119	-470.005144	-469.997083	-469.996138	-470.03888	29.394	
N	-0.0858577096	 1.4307650014	 0.1816356995	-0.571611
C	-0.1096937838	 0.0384708788	 0.0552020666	 0.211421
C	-1.2055664912	-0.656332727	-0.2234578891	-0.020304
O	-1.2155744117	-2.0227117306	-0.3447538385	-0.227859
C	-0.0570838304	-2.7384568601	-0.1770324936	 0.335389
N	-0.0403743091	-3.9946438996	-0.2831840054	-0.460291
C	 1.1999148303	-1.9728435043	 0.1393565274	 0.31529
N	 2.2969560571	-2.5718379706	 0.3044528057	-0.458337
O	 1.1079322447	-0.6055041895	 0.2410858687	-0.24529
H	 0.2253717266	 1.7151723128	 1.1064338012	 0.251681
H	 0.5437202723	 1.8550539597	-0.4940941853	 0.251675
H	-2.1721873943	-0.2038806584	-0.3762019914	 0.153163
H	-0.9781467386	-4.3391693212	-0.499451928	 0.233932
H	 3.0361035878	-1.8965457813	 0.5102615721	 0.231141
32.7815	89.3168	136.879	319.5435	354.6359	370.9035	430.7459	466.5052	505.6775	552.0828	570.9601	676.7096	769.4552	799.3161	821.6387	824.6226	880.0874	932.1002	961.3479	1006.719	1101.7957	1165.0714	1225.9118	1245.2522	1278.6572	1328.9269	1367.4443	1651.9514	1737.6304	1749.0404	1805.3332	3272.6305	3472.6738	3473.6223	3487.36	3551.9847
NC1=COC(=N)C(=N)O1	NC1=COC(=C([NH])O1)[NH]	
InChI=1S/C4H5N3O2/c5-2-1-8-3(6)4(7)9-2/h1,6-7H,5H2	InChI=1S/C4H5N3O2/c5-2-1-8-3(6)4(7)9-2/h1,6-7H,5H2
