19
gdb 52405	5.26564	0.57514	0.56316	3.0362	73.35	-0.256	0.0043	0.2603	1922.0366	0.158082	-460.156813	-460.147306	-460.146362	-460.193688	32.109	
O	 0.3077178394	 0.0817864061	 0.310588314	-0.271079
C	 0.3568242365	 1.2692843736	 0.4178761532	 0.171157
O	 0.7123027213	 2.0804167854	-0.5959432528	-0.173283
C	 0.7813047255	 3.4890066309	-0.3434729406	-0.089235
C	 2.2330994057	 3.9553982176	-0.2959574785	-0.22096
C	 2.3528436008	 5.4641901089	-0.1218607747	-0.02924
C	 2.0555035877	 6.0686428425	 1.2727131309	-0.076933
O	 3.3702309908	 6.6489647588	 1.3541292291	-0.266933
C	 3.7678512865	 6.0432594075	 0.107825474	-0.090348
H	 0.1123497139	 1.8253853891	 1.3452273996	 0.07557
H	 0.2401802458	 3.9760631098	-1.1608223677	 0.127623
H	 0.2589691233	 3.7264645251	 0.5932204896	 0.113996
H	 2.7496411186	 3.4423914339	 0.5255203717	 0.111662
H	 2.7289365719	 3.6441281457	-1.2230574874	 0.123273
H	 1.8163014015	 5.9813057643	-0.9232459116	 0.085232
H	 1.2665329828	 6.8284853616	 1.3220077156	 0.105925
H	 1.884135096	 5.3288658207	 2.068391461	 0.094591
H	 4.5542670773	 5.2891061316	 0.2494695626	 0.102072
H	 4.1158742047	 6.7864126168	-0.618940188	 0.106911
35.4377	53.0159	66.1238	98.3574	144.0199	190.0677	303.5891	344.2017	407.0314	440.8047	664.1125	763.3816	790.1214	879.5878	895.7026	956.7515	979.7389	1010.8215	1041.6027	1045.7105	1052.8671	1098.9869	1115.9513	1147.0126	1159.0578	1166.2367	1206.18	1256.7415	1282.9728	1308.6588	1315.1035	1336.5067	1369.7467	1401.5246	1411.0381	1434.9839	1487.1621	1508.8099	1513.4099	1538.3623	1869.4374	2936.5744	2990.882	3007.3633	3016.7588	3027.3263	3043.3054	3051.8948	3062.9207	3071.3132	3090.923
O=COCCC1COC1	O=COCCC1COC1	
InChI=1S/C6H10O3/c7-5-8-2-1-6-3-9-4-6/h5-6H,1-4H2	InChI=1S/C6H10O3/c7-5-8-2-1-6-3-9-4-6/h5-6H,1-4H2
