17
gdb 67416	2.78804	1.5213	1.2851	2.0789	80.61	-0.2262	0.0451	0.2712	1035.8472	0.135198	-384.600182	-384.592328	-384.591383	-384.632103	31.443	
O	-0.2567152359	 1.3772359741	 0.0030168589	-0.443729
C	-0.0271805989	 0.0326188693	 0.0105973777	 0.330046
C	 0.0268983431	-1.0269690311	-1.0538139544	-0.197334
C	 1.3095987258	-1.6232794979	-0.4853561664	-0.229084
C	 0.9313973766	-0.9340938582	 0.8557540206	-0.156563
C	-0.3365480677	-1.6960412441	 1.3197978159	-0.290199
C	-1.0436542532	-1.086119098	 0.1040851828	 0.20043
C	-2.4329271202	-1.046358376	-0.1822437581	 0.107543
C	-3.616565688	-1.0223759047	-0.4017831103	-0.376377
H	 0.4123855005	 1.8054236932	-0.5434549265	 0.294026
H	-0.3222932678	-0.9763861122	-2.076799748	 0.10043
H	 1.4184253233	-2.7128192905	-0.4658556636	 0.09735
H	 2.1941013017	-1.1738878085	-0.9464713217	 0.098296
H	 1.6938051948	-0.6300567563	 1.5688317631	 0.078451
H	-0.2669469669	-2.787173272	 1.384848614	 0.096058
H	-0.7499130872	-1.2927047241	 2.247068275	 0.113572
H	-4.6596168101	-0.9941346729	-0.5962660792	 0.177083
119.155	153.9773	229.5558	304.4436	323.0359	407.0481	438.7673	501.0347	538.0921	557.8243	569.4875	648.7595	668.5421	695.3187	764.3821	831.0066	910.593	923.3002	947.3028	988.1392	992.3685	1002.1269	1064.016	1112.5786	1114.197	1129.0836	1167.6382	1208.4359	1229.5209	1253.9797	1278.1988	1295.4135	1333.6085	1474.8755	1488.6338	1512.3337	2231.9216	3038.8567	3045.5933	3094.9438	3111.8118	3147.3879	3208.5977	3504.462	3784.8099
OC12C3CC1CC23C#C	O[C@@]12[C@H]3C[C@@H]1C[C@@]23C#C	
InChI=1S/C8H8O/c1-2-7-4-5-3-6(7)8(5,7)9/h1,5-6,9H,3-4H2	InChI=1S/C8H8O/c1-2-7-4-5-3-6(7)8(5,7)9/h1,5-6,9H,3-4H2/t5-,6+,7-,8-/m1/s1
