18
gdb 98882	4.13301	1.00107	0.81813	4.2921	78.07	-0.2068	0.0008	0.2076	1369.0922	0.14761	-439.111741	-439.102635	-439.10169	-439.146502	32.247	
O	-0.0308697243	 1.4265266665	 0.0102753597	-0.391541
C	-0.0025397416	 0.0232528546	 0.0031859182	-0.201847
C	-1.4494280278	-0.4848477435	 0.0110836849	 0.398929
O	-2.4114778717	 0.2557794883	 0.0223917625	-0.350842
N	-1.5949339243	-1.8473238051	 0.0044876829	-0.107209
C	-2.9365870024	-2.4648207097	 0.0124661761	-0.157905
C	-2.6584176764	-3.9941660679	 0.0044340193	-0.283918
C	-1.1476024709	-4.0763627325	-0.006973651	-0.160274
C	-0.6193467116	-2.8521842616	-0.0063728293	 0.013745
H	 0.8791484139	 1.7373771107	 0.0041064094	 0.290451
H	 0.5062947243	-0.3798745692	-0.8888376631	 0.106726
H	 0.5189059467	-0.3885459899	 0.8839201678	 0.106729
H	-3.4851041427	-2.1329901824	 0.8975152804	 0.13311
H	-3.4987569076	-2.1263565263	-0.861433028	 0.133065
H	-3.0890020258	-4.4878046674	 0.8833250097	 0.118306
H	-3.1017546435	-4.4808156235	-0.8720130814	 0.118305
H	-0.5844370682	-4.9979538362	-0.0146579519	 0.105136
H	 0.4259493239	-2.5804060549	-0.0132894663	 0.129034
54.4264	94.6665	115.2834	140.8387	171.7083	228.4745	305.8653	372.3568	463.0219	532.3028	580.7792	711.2702	722.6253	782.6939	828.8587	858.8162	916.3079	931.6847	955.9825	1027.4874	1031.9506	1065.9026	1127.3961	1154.2136	1204.2338	1231.2965	1248.7309	1248.7598	1266.3572	1312.1754	1325.952	1376.4124	1431.4777	1462.9341	1494.8799	1512.8552	1521.6263	1686.3852	1779.8471	2952.5481	2977.8561	3030.4327	3052.9905	3067.8467	3104.9545	3234.7091	3258.4403	3834.8738
OCC(=O)N1CCC=C1	OCC(=O)N1CCC=C1	
InChI=1S/C6H9NO2/c8-5-6(9)7-3-1-2-4-7/h1,3,8H,2,4-5H2	InChI=1S/C6H9NO2/c8-5-6(9)7-3-1-2-4-7/h1,3,8H,2,4-5H2
