17
gdb 15999	3.85624	1.50458	1.22855	1.7027	64.33	-0.2471	0.0496	0.2967	992.0132	0.142374	-400.938439	-400.930664	-400.92972	-400.970918	28.649	
O	-0.0488744026	 1.4320642699	-0.3716141308	-0.419149
C	 0.0935944504	 0.0531989379	-0.0969963796	-0.066103
C	-1.2535411178	-0.5533996132	 0.2634203069	 0.034951
O	-2.1891729687	-0.3492528484	-0.830272321	-0.311786
C	-2.3951948574	-1.7745384576	-1.0038147543	-0.126525
C	-1.4348505785	-2.0667963223	 0.1423197124	 0.27201
C	-0.4602317184	-3.1541276293	 0.363368006	-0.305572
N	-1.6797254798	-3.0396607256	 1.1917903121	-0.357137
H	-0.7554154931	 1.4975189991	-1.0263621731	 0.294983
H	 0.5180931872	-0.4920181649	-0.9551835643	 0.086178
H	 0.7943126002	-0.0385344374	 0.7409462047	 0.103745
H	-1.6383098523	-0.1062372976	 1.1908760652	 0.085875
H	-3.4347395412	-2.0665944981	-0.8168559506	 0.118219
H	-2.0882568853	-2.1152423467	-1.9997810312	 0.109179
H	-0.439928866	-4.0138242291	-0.3012951556	 0.12575
H	 0.50100779	-2.9022999765	 0.8051962855	 0.11989
H	-1.4562028866	-2.6488580303	 2.1045976577	 0.235492
78.9538	114.2777	149.5114	277.3797	284.6319	334.3977	463.7691	478.2657	500.2458	586.7606	813.8901	837.397	877.2753	925.6968	946.2954	969.7806	1004.0784	1036.2836	1054.2026	1060.9906	1096.2839	1119.0798	1133.5949	1151.3557	1214.3287	1256.7338	1267.5241	1288.6198	1317.1931	1340.0971	1392.6438	1432.4291	1442.7504	1498.1113	1516.0108	1521.2218	2976.8715	3010.2801	3023.9473	3065.2323	3073.7351	3103.5907	3187.572	3490.0446	3781.7518
OCC1OCC11CN1	OC[C@H]1OC[C@]21CN2	
InChI=1S/C5H9NO2/c7-1-4-5(2-6-5)3-8-4/h4,6-7H,1-3H2	InChI=1S/C5H9NO2/c7-1-4-5(2-6-5)3-8-4/h4,6-7H,1-3H2/t4-,5+/m1/s1
