18
gdb 61433	2.8246	1.20291	0.93333	7.5986	70.81	-0.2275	0.028	0.2555	1248.4773	0.147731	-472.449725	-472.440212	-472.439268	-472.484553	34.452	
C	-0.3148774231	 1.4414964124	 0.1781856104	-0.359741
N	-0.0009674321	 0.028779095	 0.0038515382	-0.060665
C	 0.0058740015	-0.7874295043	 1.2158170909	-0.311561
C	-1.3854955173	-1.30802501	 1.6350783649	 0.396148
O	-1.96429026	-2.120669907	 0.7564078052	-0.373629
O	-1.8954495041	-0.9960575363	 2.6824112042	-0.339409
C	-0.0079768686	-0.5942211049	-1.2149208513	 0.428402
N	 0.2227402482	 0.2293767181	-2.3072509077	-0.553951
N	-0.2580817728	-1.8634914265	-1.2794967759	-0.595581
H	-0.0999968824	-2.2527783509	-2.2025663199	 0.21239
H	-1.3718862275	-2.2191838035	-0.0498347392	 0.333081
H	-0.6398040806	 1.8735072665	-0.7682016588	 0.149788
H	-1.1304182077	 1.5538337187	 0.9008465873	 0.159524
H	 0.5504196514	 2.0037898314	 0.5527211809	 0.126326
H	 0.6716931321	-1.6396904237	 1.0522598992	 0.143457
H	 0.3906937997	-0.1814098226	 2.0376894559	 0.127776
H	 0.9224990399	 0.9479456061	-2.1928307971	 0.26083
H	 0.2900712134	-0.2526695085	-3.1899074873	 0.256814
67.6565	77.3894	109.5524	147.1419	221.0302	293.2693	301.8319	376.1976	395.8564	445.2172	526.5201	535.6308	580.8822	589.1593	710.3511	722.0561	750.2554	821.0795	886.5463	971.9208	986.608	1059.2499	1111.8892	1132.7574	1154.1305	1176.6887	1267.675	1299.852	1354.4007	1370.3866	1450.9917	1461.0557	1497.118	1507.1329	1535.1323	1543.5139	1630.4949	1684.3026	1848.2697	3004.4979	3015.8233	3064.6634	3074.9305	3130.1285	3150.0299	3546.0845	3574.8638	3684.3576
CN(CC([O-])=O)C(N)=[NH2+]	CN(CC(=O)O)C(=N)N	
InChI=1S/C4H9N3O2/c1-7(4(5)6)2-3(8)9/h2H2,1H3,(H3,5,6)(H,8,9)	InChI=1S/C4H9N3O2/c1-7(4(5)6)2-3(8)9/h2H2,1H3,(H3,5,6)(H,8,9)
