16
gdb 131723	5.36375	1.06612	0.92076	5.003	72.18	-0.2504	0.0129	0.2632	1235.8997	0.126474	-434.047436	-434.039627	-434.038683	-434.080786	28.029	
O	 0.3318490527	 1.1197055335	-0.540301161	-0.418992
C	 0.0529359164	-0.0616380345	 0.1809536296	-0.147763
C	-1.4193429588	-0.3560114924	 0.2021678334	 0.312813
N	-2.0495110463	-0.9137070702	 1.2418815056	-0.335006
N	-3.2969694607	-1.0083052552	 0.7212693672	 0.076621
C	-4.7459384432	-1.240338318	 0.8914873374	-0.167923
C	-4.8758101156	-0.6875527859	-0.5915209871	-0.36693
C	-3.365895536	-0.5027583804	-0.5020341762	 0.378343
N	-2.1892946759	-0.0669635617	-0.9093247685	-0.44498
H	-0.2876075713	 1.1340072126	-1.2809714629	 0.297764
H	 0.585040559	-0.92669331	-0.2506861848	 0.10322
H	 0.4161262893	 0.0645008036	 1.2049125509	 0.128067
H	-5.0128786742	-2.2882169052	 1.0422554313	 0.144098
H	-5.202768054	-0.6135457713	 1.6600367062	 0.14802
H	-5.2274440314	-1.4166832473	-1.3235915019	 0.145164
H	-5.4572690401	 0.2320060623	-0.6790920292	 0.147485
50.1065	76.3363	170.2262	234.5743	280.6681	366.0797	402.2636	515.0475	632.3476	682.078	729.4206	810.315	814.611	841.3827	911.0752	993.7953	1022.4401	1060.5555	1080.9954	1128.7496	1132.5722	1168.9492	1211.4414	1216.7329	1262.8741	1298.7691	1305.9122	1356.5268	1421.4779	1473.8929	1488.8935	1504.3149	1508.4997	1520.5604	1584.4999	2956.0932	3076.0389	3085.7275	3087.7909	3132.157	3144.8673	3774.2029
OCC1=NN2CCC2=N1	OCc1nn2CCc2n1	
InChI=1S/C5H7N3O/c9-3-4-6-5-1-2-8(5)7-4/h9H,1-3H2	InChI=1S/C5H7N3O/c9-3-4-6-5-1-2-8(5)7-4/h9H,1-3H2
