19
gdb 59704	1.91121	1.73532	1.16587	0.9578	71.9	-0.2452	-0.0213	0.2239	1122.6234	0.156819	-460.146926	-460.137393	-460.136449	-460.181492	34.278	
C	 0.1866461559	 0.869245772	 0.8855788797	-0.43838
C	-0.26084987	 0.3320976325	-0.474484633	 0.096431
O	 0.6402753611	-0.6425020274	-0.9958638143	-0.430646
C	-1.6288479225	-0.3279211803	-0.4123770443	 0.15512
O	-2.1247492426	-0.6848343533	-1.7161949739	-0.290177
C	-2.2020635836	-2.0808651553	-1.3708650497	-0.086681
C	-1.7209930442	-1.8179245093	 0.0668847033	-0.155173
C	-0.4599055998	-2.5207263483	 0.5274948098	 0.15375
O	-0.0383497079	-2.4579947871	 1.6561739811	-0.271626
H	 1.1816872456	 1.3222121529	 0.8071454132	 0.111747
H	-0.4976142068	 1.6478092257	 1.2375471181	 0.122587
H	 0.2257903034	 0.0703586513	 1.6302051773	 0.161157
H	-0.3529089519	 1.1643307698	-1.1916264	 0.087452
H	 1.5398907585	-0.3595348764	-0.8059922644	 0.290322
H	-2.3281193903	 0.3425834402	 0.1037484531	 0.081288
H	-3.2196549928	-2.4744886975	-1.4724321174	 0.105181
H	-1.5162982808	-2.6876553544	-1.9769696646	 0.11038
H	-2.4798263324	-1.953117577	 0.8400975751	 0.109971
H	 0.0362556011	-3.1507085881	-0.240577089	 0.087296
71.1	91.0017	131.2755	202.0092	222.9084	235.3152	253.4999	267.9463	345.6608	397.0308	474.4286	516.3868	656.7284	782.9592	793.0479	881.7383	901.5788	939.0611	1001.8763	1023.7017	1032.9629	1052.1176	1083.6366	1109.973	1134.0469	1163.8837	1171.4557	1205.9353	1240.7117	1284.4792	1314.2245	1339.1491	1365.8021	1390.8386	1412.4251	1419.7469	1425.185	1496.6906	1508.7067	1520.1342	1810.8542	2905.0573	2973.2941	3011.0497	3021.246	3034.183	3060.2135	3097.0964	3098.0845	3133.7515	3829.6007
CC(O)C1OCC1C=O	C[C@@H](O)[C@H]1OC[C@H]1C=O	
InChI=1S/C6H10O3/c1-4(8)6-5(2-7)3-9-6/h2,4-6,8H,3H2,1H3	InChI=1S/C6H10O3/c1-4(8)6-5(2-7)3-9-6/h2,4-6,8H,3H2,1H3/t4-,5-,6-/m1/s1
