16
gdb 126744	4.64596	1.05903	0.92634	6.3983	75.9	-0.2375	-0.0554	0.1821	1250.1158	0.125647	-434.095005	-434.086993	-434.086049	-434.128505	28.972	
C	-0.0213263692	 1.5845561044	 0.1166374039	-0.377784
C	-0.0067785603	 0.0704761706	-0.0815890062	-0.147177
N	-1.3520369482	-0.508734307	-0.0733701059	-0.00045
C	-1.978283484	-0.9664714942	-1.1875904343	 0.122883
N	-3.1730057174	-1.4532292356	-1.2398968632	-0.331974
C	-3.8958816045	-1.5123385603	-0.0383079962	 0.358148
O	-5.0287382882	-1.9401842909	 0.0348634003	-0.350428
C	-3.1687874055	-1.011173182	 1.1477934499	-0.074067
N	-1.9692296667	-0.5327636938	 1.133811942	-0.170748
H	 1.0032143129	 1.9666002815	 0.1401317943	 0.131407
H	-0.5574929213	 2.0837215841	-0.6959317873	 0.131607
H	-0.5071087055	 1.8380632856	 1.062007593	 0.152351
H	 0.4519762877	-0.1985500262	-1.0367383472	 0.129293
H	 0.5628351455	-0.4182861105	 0.7135444352	 0.141655
H	-1.3813618466	-0.9027810116	-2.0975250984	 0.138713
H	-3.6691224289	-1.0409383543	 2.1111442202	 0.146571
54.034	71.2221	158.986	219.2866	344.6632	382.7436	438.2098	461.0189	494.2145	555.2662	656.6887	761.1335	793.2713	794.2328	841.1507	952.5168	976.9361	979.1967	988.3601	1094.0201	1111.3064	1188.9024	1252.5013	1281.1204	1334.9354	1387.0631	1405.5124	1413.7147	1453.7662	1481.799	1489.9226	1506.4309	1591.9143	1652.411	1785.6388	3047.7327	3064.9514	3107.0577	3124.0283	3130.6383	3138.141	3185.844
CCN1C=NC(=O)C=N1	CCn1cnc(=O)cn1	
InChI=1S/C5H7N3O/c1-2-8-4-6-5(9)3-7-8/h3-4H,2H2,1H3	InChI=1S/C5H7N3O/c1-2-8-4-6-5(9)3-7-8/h3-4H,2H2,1H3
