23
gdb 78806	2.26532	1.63866	1.39867	0.207	88.81	-0.2399	0.0886	0.3285	1111.9188	0.205332	-351.119602	-351.110659	-351.109715	-351.152282	35.904	
C	 0.0313481448	 1.602511677	 0.0865296752	-0.427812
C	 0.1081233302	 0.080308467	 0.0381833177	-0.007829
C	 1.1409526525	-0.6376923668	-0.8282721644	-0.095848
C	 2.4117203822	-0.8222666578	 0.0126250585	-0.057855
C	 1.2522394283	-1.7792914471	 0.1504249435	-0.140793
C	 0.6926593614	-0.7538563975	 1.2316029146	 0.31303
C	-0.1720288896	-1.0761243569	 2.4228254537	-0.514841
C	 2.1584693099	-0.2261360208	 1.3981225259	-0.030326
C	 2.9544277687	-0.9149119576	 2.502063541	-0.411327
H	 1.012507736	 2.0638067487	 0.2274701861	 0.119258
H	-0.3816970525	 1.9941527855	-0.8499458046	 0.111382
H	-0.622639227	 1.9418141827	 0.8984443575	 0.11032
H	-0.8846403659	-0.3268085388	-0.1926518342	 0.062566
H	 1.181583412	-0.6929672035	-1.9096155183	 0.076751
H	 3.3688018367	-1.0127715545	-0.4584608474	 0.076407
H	 1.1675371836	-2.8485967498	 0.0208550489	 0.082436
H	 0.3325656044	-1.748290717	 3.1245107717	 0.118116
H	-0.437172641	-0.164159443	 2.9720586553	 0.116378
H	-1.1059180625	-1.5581313851	 2.1129974714	 0.114533
H	 2.2617112813	 0.861225324	 1.5031907693	 0.052686
H	 2.8683290231	-2.0050173445	 2.4336743237	 0.113679
H	 4.0179003042	-0.6613068952	 2.4307977028	 0.108877
H	 2.6085831793	-0.6078161091	 3.4950018722	 0.110212
158.0975	191.1928	199.4297	207.4557	241.6052	247.5821	275.9803	344.8617	375.3021	520.4413	561.709	621.8366	683.4153	759.3992	792.6755	794.5961	800.0212	850.7894	898.7545	917.7785	933.3644	997.5333	1014.3171	1023.7333	1032.5184	1052.8603	1078.121	1109.5745	1113.4242	1128.8291	1152.2465	1165.4474	1186.8896	1218.5104	1259.0105	1293.8893	1329.1259	1355.716	1380.0251	1394.9808	1404.7044	1408.8682	1416.3302	1487.7366	1489.8227	1492.6703	1499.3125	1500.3426	1504.765	3019.3615	3020.5851	3021.6744	3025.846	3030.9197	3082.1972	3086.1482	3089.0397	3095.1081	3096.0392	3113.9366	3177.874	3185.7189	3218.4419
CC1C2C3C2C1(C)C3C	C[C@H]1[C@H]2[C@@H]3[C@H]2[C@@]1(C)[C@H]3C	
InChI=1S/C9H14/c1-4-6-7-5(2)9(4,3)8(6)7/h4-8H,1-3H3	InChI=1S/C9H14/c1-4-6-7-5(2)9(4,3)8(6)7/h4-8H,1-3H3/t4-,5-,6-,7+,8-,9+/m0/s1
