23
gdb 77567	2.21858	1.42849	1.27687	1.1725	85.6	-0.2367	0.0737	0.3104	1186.5008	0.20334	-388.274753	-388.264745	-388.2638	-388.308455	39.148	
C	-0.4464500682	 1.5498148314	 0.383610663	-0.423063
C	-0.1040264229	 0.0730610965	 0.2204262978	-0.092791
C	 0.2763564288	-0.4615936089	-1.1759223039	 0.363302
C	-0.7008483433	-1.067186438	-2.1431636003	-0.502752
C	 1.5999576878	 0.1127057276	-1.6015581357	-0.352477
C	 1.5856572528	-1.0252866166	-0.6176835778	-0.119093
C	 1.2420190625	-0.5382514741	 0.7914726077	 0.400493
C	 2.2263762073	 0.3761459694	 1.5100602857	-0.453926
O	 0.9888770697	-1.6981762071	 1.5784521115	-0.48418
H	 0.3219085952	 2.2041919718	-0.0393938027	 0.113438
H	-1.3902044634	 1.7854189675	-0.120923631	 0.115555
H	-0.565250608	 1.8184350257	 1.439504369	 0.108642
H	-0.9120474946	-0.5412764532	 0.6313558061	 0.070692
H	-1.3600745516	-0.3051716174	-2.5774259854	 0.115737
H	-0.1824495313	-1.5612202846	-2.9719024067	 0.115537
H	-1.335182847	-1.814071569	-1.6521884541	 0.118928
H	 1.9138579475	-0.1591992622	-2.6051119868	 0.108197
H	 1.9171292963	 1.1102094304	-1.3078936804	 0.100032
H	 2.0632641849	-1.9782618725	-0.8140357847	 0.086108
H	 2.4919147554	 1.251779442	 0.9122496781	 0.115595
H	 1.8007323275	 0.7414698908	 2.4536578955	 0.102183
H	 3.1426783008	-0.1751388864	 1.7423082411	 0.123622
H	 0.677195544	-1.4045001131	 2.4416869341	 0.270222
120.6346	184.1902	200.5312	211.3513	217.9694	234.7559	255.7088	288.108	334.2446	343.8537	399.0874	455.0003	492.8372	539.8708	579.9806	687.9706	739.6853	804.823	850.1183	901.7341	933.5776	964.8291	971.8822	1010.5488	1025.2618	1050.3596	1067.8529	1091.8139	1099.5479	1121.3492	1132.3417	1167.0043	1200.2379	1236.0436	1250.9455	1284.4164	1347.9457	1390.1401	1396.5036	1402.705	1411.4383	1426.5192	1484.929	1486.4783	1488.7925	1493.196	1499.5384	1501.9933	1511.7184	3017.3825	3022.4698	3028.4342	3048.7845	3075.3916	3086.3759	3090.8699	3092.4088	3102.9925	3110.1688	3120.8347	3178.588	3191.2598	3797.4351
CC1C2(C)CC2C1(C)O	C[C@H]1[C@@]2(C)C[C@H]2[C@]1(C)O	
InChI=1S/C8H14O/c1-5-7(2)4-6(7)8(5,3)9/h5-6,9H,4H2,1-3H3	InChI=1S/C8H14O/c1-5-7(2)4-6(7)8(5,3)9/h5-6,9H,4H2,1-3H3/t5-,6+,7+,8+/m0/s1
