18
gdb 9723	2.77771	1.96453	1.63909	1.4423	72.67	-0.2513	0.046	0.2973	899.7006	0.152865	-347.781569	-347.773216	-347.772272	-347.81466	31.05	
C	-0.0332552312	 1.5576832226	-0.0164969447	-0.43179
C	 0.0427624079	 0.0314254941	-0.0530772437	 0.180875
C	 0.8268089318	-0.537558411	-1.2572171349	-0.231541
C	 1.3047108425	-1.8999678652	-0.7282516752	-0.245123
C	 1.3755942849	-1.6805031211	 0.80371191	-0.069458
O	 0.8226455311	-0.3896353447	 1.0703524863	-0.271956
C	-1.3095957564	-0.5568621894	 0.0087411663	 0.365617
C	-2.407382291	-1.0448061324	 0.0603521792	-0.51978
H	 0.9781611166	 1.9724112521	-0.0335683921	 0.120141
H	-0.5923868105	 1.9331531606	-0.8775757425	 0.124115
H	-0.5351202457	 1.8901594444	 0.8950306985	 0.135255
H	 0.2210400633	-0.6108628953	-2.1621775844	 0.110714
H	 1.6740713257	 0.1260566473	-1.4570845964	 0.103005
H	 0.5792936277	-2.6805550994	-0.9703748649	 0.117729
H	 2.2667761384	-2.197314727	-1.1511600587	 0.106324
H	 0.8118513473	-2.4522349692	 1.3430273169	 0.1033
H	 2.4010625987	-1.6775431565	 1.1871385433	 0.105593
H	-3.3784029512	-1.4718997699	 0.113402807	 0.19698
40.6365	122.4044	184.2412	205.6858	228.1817	310.2544	406.9201	473.0149	557.0414	622.6197	632.1829	657.3128	679.7896	731.3275	831.7782	863.7276	912.9074	916.8086	935.6695	1023.754	1052.2747	1063.2787	1123.9222	1179.8554	1194.725	1229.2049	1243.0056	1266.9704	1326.1122	1332.1697	1385.45	1403.2099	1477.2922	1482.4333	1492.7898	1498.7193	1527.2471	2225.7378	3019.6882	3048.2659	3056.0981	3066.4101	3070.3849	3112.1863	3124.4269	3128.9945	3132.9422	3499.923
CC1(CCCO1)C#C	C[C@]1(CCCO1)C#C	
InChI=1S/C7H10O/c1-3-7(2)5-4-6-8-7/h1H,4-6H2,2H3	InChI=1S/C7H10O/c1-3-7(2)5-4-6-8-7/h1H,4-6H2,2H3/t7-/m1/s1
