17
gdb 77246	2.45712	1.14169	0.98335	2.9753	65.9	-0.2494	-0.0084	0.241	1244.6068	0.131656	-496.089468	-496.079481	-496.078537	-496.124597	35.246	
C	-0.01032886	 1.4978185736	 0.3890789837	-0.448687
C	 0.0523925752	 0.0122454457	 0.1367016904	 0.290132
O	-1.1397492683	-0.5944441717	-0.2855431216	-0.453708
C	 1.3441229665	-0.6238370309	-0.357497912	 0.020257
O	 2.4843776455	 0.1585306593	-0.5077589746	-0.423217
C	 0.8422695199	-0.9108239691	 1.0379428078	-0.011621
O	 1.6677981588	-0.3783269893	 2.0517661839	-0.203082
C	 1.0735910467	-0.0545866149	 3.2284525806	 0.174759
O	 1.6894051442	 0.3854617972	 4.1486524965	-0.262794
H	 0.9651293103	 1.8933616297	 0.6753556133	 0.142022
H	-0.3194480985	 2.0158741803	-0.5258311055	 0.120374
H	-0.7394788129	 1.7305575153	 1.1715683467	 0.126145
H	-1.3080737793	-0.3167191198	-1.193719052	 0.287746
H	 1.2495172599	-1.4262247592	-1.0865385729	 0.108004
H	 2.9836810509	 0.1167474632	 0.3170423961	 0.307
H	 0.4224336157	-1.887303523	 1.2587546372	 0.126741
H	-0.0134253544	-0.2524683164	 3.2211448123	 0.099926
65.866	108.6587	128.0909	164.0173	188.6482	224.9455	267.4819	282.653	304.6487	363.7763	396.2178	480.0861	506.1929	585.1033	707.4369	741.1336	868.4068	892.6005	973.544	1021.3717	1048.2589	1069.1051	1107.817	1134.5674	1159.9101	1181.5241	1229.56	1300.2199	1326.6372	1332.3648	1369.9761	1412.8659	1416.6014	1446.6985	1484.3128	1503.5899	1872.9749	2983.4294	3037.6052	3097.6675	3127.6357	3145.7981	3160.2749	3783.6513	3786.2801
CC1(O)C(O)C1OC=O	C[C@@]1(O)[C@@H](O)[C@H]1OC=O	
InChI=1S/C5H8O4/c1-5(8)3(7)4(5)9-2-6/h2-4,7-8H,1H3	InChI=1S/C5H8O4/c1-5(8)3(7)4(5)9-2-6/h2-4,7-8H,1H3/t3-,4+,5+/m0/s1
