19
gdb 53659	4.70658	0.56403	0.52092	3.0834	82.76	-0.2508	-0.0284	0.2224	2102.4494	0.153992	-422.999015	-422.987738	-422.986794	-423.038547	37.064	
C	-0.0617216009	 1.5120225221	-0.0513452151	-0.498847
C	-0.0553466917	 0.0624876066	 0.0752150464	 0.137766
C	-0.0569634682	-1.1363096761	 0.1767631298	 0.006123
C	-0.033138387	-2.5849011281	 0.3138245364	-0.218327
O	-1.2945220634	-3.1257498798	-0.0549016732	-0.262471
C	-1.3296439451	-4.5386606865	-0.113924003	 0.058966
C	-1.3549008931	-5.2324670609	 1.2478293469	-0.408004
C	-2.5603061253	-4.8792751723	-0.951242295	 0.147466
O	-3.1139001951	-5.9465178199	-0.9355042042	-0.245718
H	 0.7336425931	 1.8575549993	-0.7206316568	 0.150389
H	-1.0150507361	 1.8632745164	-0.4609326403	 0.155321
H	 0.0821161033	 1.9990746301	 0.9192049243	 0.150393
H	 0.7571704319	-3.0134968107	-0.3267404636	 0.11468
H	 0.2190654061	-2.8551231335	 1.3508938666	 0.122599
H	-0.462249588	-4.9077370626	-0.695911122	 0.093614
H	-1.5771250794	-6.2923452326	 1.1028446468	 0.145636
H	-0.3973965456	-5.1427387006	 1.7667609909	 0.118942
H	-2.1374657906	-4.7958154834	 1.8749252383	 0.133776
H	-2.8926170948	-4.0406681176	-1.6004657031	 0.097695
15.8112	37.4604	64.8145	74.5727	107.2215	200.043	202.3833	218.9635	265.3986	311.5233	375.8542	391.6095	426.436	510.6338	616.1709	788.1823	845.268	912.8256	931.8713	1025.9688	1051.0962	1057.1432	1064.2251	1119.9052	1138.1748	1157.2279	1181.7065	1254.9399	1324.6837	1334.5941	1382.6056	1402.1866	1413.7816	1427.1928	1475.8473	1478.4773	1488.4489	1494.3603	1504.9367	1840.3749	2380.8371	2909.6714	2918.0149	2952.7981	2991.0651	3029.6092	3051.2207	3091.1018	3092.6946	3126.2219	3136.5415
CC#CCOC(C)C=O	CC#CCO[C@@H](C)C=O	
InChI=1S/C7H10O2/c1-3-4-5-9-7(2)6-8/h6-7H,5H2,1-2H3	InChI=1S/C7H10O2/c1-3-4-5-9-7(2)6-8/h6-7H,5H2,1-2H3/t7-/m0/s1
