23
gdb 115363	3.66192	0.95246	0.85129	1.1865	88.57	-0.2407	0.0213	0.262	1483.0414	0.205932	-388.306258	-388.296718	-388.295774	-388.340628	36.279	
C	 0.0077402025	 1.658892561	-0.211553391	-0.388613
C	 0.0076811776	 0.1350893098	-0.0569220049	-0.182102
C	-1.3963099037	-0.4862924326	 0.0747378823	-0.031449
C	-1.3339034187	-2.0112765762	-0.068471137	-0.105615
O	-2.5852207558	-2.6216510379	 0.1935850088	-0.26749
C	-3.0560254794	-2.448153579	 1.5271589847	 0.084873
C	-2.5215454886	-3.5500086429	 2.4562677437	-0.392376
C	-2.7836564424	-1.0645662275	 2.0548947921	-0.081925
C	-2.0612341866	-0.1651910111	 1.3907006871	-0.070522
H	 1.0276637826	 2.0416480556	-0.3161055077	 0.113981
H	-0.5556850407	 1.9646540944	-1.100003634	 0.116841
H	-0.4415710511	 2.1591443724	 0.6522905	 0.120013
H	 0.5037428063	-0.3102588813	-0.9294796362	 0.094959
H	 0.6093929905	-0.1502018984	 0.8158232867	 0.09789
H	-2.0168760442	-0.0923240866	-0.745083018	 0.084859
H	-1.0698835181	-2.2997890488	-1.0906362697	 0.102512
H	-0.5520790011	-2.4054459139	 0.6013762422	 0.085642
H	-4.1449876176	-2.5768162522	 1.449239141	 0.090878
H	-1.4348580639	-3.4834098299	 2.5649987059	 0.118807
H	-2.9639775695	-3.4615366666	 3.4540643794	 0.112197
H	-2.7736669809	-4.533389364	 2.0503368958	 0.122354
H	-3.2252775466	-0.82599065	 3.0194437275	 0.088626
H	-1.9221212706	 0.8304723154	 1.8041942513	 0.085661
63.9014	96.0573	188.6967	194.0907	218.7772	243.1465	260.9374	354.4068	371.954	423.1194	503.2572	529.8608	577.0761	736.2957	749.5602	786.1359	801.936	889.7302	920.267	943.7918	988.6675	997.7135	1012.8508	1048.6183	1087.6929	1090.4204	1100.6001	1129.3621	1145.4185	1169.2468	1226.3761	1272.1287	1282.3406	1305.1234	1331.2948	1358.036	1371.6072	1379.5275	1393.7329	1398.8861	1414.8386	1429.9367	1483.4581	1486.4619	1494.5238	1499.793	1501.4004	1506.838	1719.196	2968.9566	2985.2376	3003.9133	3014.4217	3033.5541	3037.9815	3048.0137	3076.1656	3100.2709	3103.629	3108.389	3121.1044	3145.0492	3168.1352
CCC1COC(C)C=C1	CC[C@H]1CO[C@@H](C)C=C1	
InChI=1S/C8H14O/c1-3-8-5-4-7(2)9-6-8/h4-5,7-8H,3,6H2,1-2H3	InChI=1S/C8H14O/c1-3-8-5-4-7(2)9-6-8/h4-5,7-8H,3,6H2,1-2H3/t7-,8+/m0/s1
