14
gdb 43902	2.95222	1.39958	1.1217	1.8724	67.11	-0.2613	-0.0604	0.2009	1047.678	0.100342	-436.669151	-436.661616	-436.660672	-436.701626	27.66	
O	 0.0126040145	 0.176303697	-0.6923003725	-0.270007
C	 0.0100396504	 1.2567167278	-0.1909316077	 0.428096
C	-1.102043628	 2.1935779436	 0.3326710922	-0.420544
C	-0.0099177288	 3.2502311752	 0.6917808852	 0.128
C	 0.6555614013	 3.0189618595	 2.0689334981	-0.112046
O	 1.564892996	 2.0376829512	 1.5226055679	-0.273764
C	 1.1203193882	 2.2727618607	 0.1751363255	-0.049816
C	-0.1983483251	 4.6001912408	 0.2270276803	 0.199174
N	-0.3491551545	 5.6857938812	-0.142116698	-0.329663
H	-1.7659855138	 2.515623745	-0.4747252814	 0.166093
H	-1.7087302273	 1.8236833715	 1.1628122275	 0.150071
H	 1.1967798448	 3.8896300635	 2.4528990046	 0.137033
H	 0.0074707596	 2.6068588079	 2.8492824405	 0.126871
H	 1.9229907228	 2.5150908851	-0.5244554422	 0.120505
72.6836	152.1038	181.6731	218.697	337.5037	424.3137	478.3149	523.9932	555.4344	570.511	629.9471	773.8507	863.0699	883.6196	912.6879	988.9287	1012.1498	1042.6982	1079.7564	1088.7399	1132.1402	1171.4327	1177.7808	1212.4773	1262.5303	1289.1477	1356.8044	1433.6632	1519.8209	1912.0136	2354.492	3039.2334	3068.2574	3095.1909	3102.8638	3126.4338
O=C1CC2(COC12)C#N	O=C1C[C@]2(CO[C@@H]12)C#N	
InChI=1S/C6H5NO2/c7-2-6-1-4(8)5(6)9-3-6/h5H,1,3H2	InChI=1S/C6H5NO2/c7-2-6-1-4(8)5(6)9-3-6/h5H,1,3H2/t5-,6+/m0/s1
