13
gdb 53869	4.23954	0.83945	0.70377	5.2301	61.14	-0.2694	-0.0662	0.2033	1464.1767	0.087694	-489.942657	-489.93355	-489.932605	-489.978348	30.689	
N	-0.04386476	 1.2642425999	 0.0076139909	-0.513804
C	 0.0644252253	-0.0838954547	 0.0001785345	 0.302969
O	 1.0871196279	-0.7275384932	-0.0126072733	-0.323882
C	-1.3380783902	-0.7346388435	 0.0103333746	 0.392915
O	-2.3718871924	-0.1123826548	 0.0235144615	-0.362387
O	-1.2544940673	-2.068464315	 0.0027227942	-0.205365
C	-2.5249162244	-2.7345066157	 0.0116084336	-0.20609
C	-2.286305127	-4.1750485252	 0.0018543018	 0.277331
N	-2.1479636085	-5.3207320869	-0.005405217	-0.281068
H	 0.7906202234	 1.8260023106	 0.0029229813	 0.277592
H	-0.9542244197	 1.6933979368	 0.018864012	 0.285019
H	-3.09408378	-2.4494229737	 0.9021131038	 0.178384
H	-3.111228737	-2.4402963146	-0.8646907678	 0.178385
24.2625	70.3064	103.6983	147.9446	233.614	300.471	320.7596	374.2982	380.0096	486.6931	491.477	580.3583	637.381	647.1321	835.0838	869.7629	982.7208	1014.0468	1033.0159	1096.52	1248.04	1251.137	1360.8155	1403.4118	1479.4717	1595.7998	1804.8779	1834.0194	2380.0162	3059.5029	3100.8628	3602.8276	3742.6628
NC(=O)C(=O)OCC#N	NC(=O)C(=O)OCC#N	
InChI=1S/C4H4N2O3/c5-1-2-9-4(8)3(6)7/h2H2,(H2,6,7)	InChI=1S/C4H4N2O3/c5-1-2-9-4(8)3(6)7/h2H2,(H2,6,7)
