19
gdb 57476	2.46974	1.42115	1.14766	1.5679	71.75	-0.2588	-0.0414	0.2174	1138.535	0.155659	-460.162871	-460.153258	-460.152314	-460.197095	35.659	
C	 0.0366468799	 1.5216067995	 0.058473872	-0.411069
C	 0.0247276464	-0.005219476	 0.0390643541	 0.323886
C	 0.7483920495	-0.5789522117	 1.2628864669	-0.442072
O	-1.3445080561	-0.4032269251	 0.0104685662	-0.460493
C	 0.6373085454	-0.521389699	-1.2811243055	 0.000186
O	 2.0757563472	-0.3940669541	-1.4257349432	-0.29733
C	 2.2810595203	-1.8077165131	-1.6420969574	-0.183145
C	 0.7856159099	-2.0378983269	-1.4023061568	 0.329471
O	 0.0567468185	-2.9759484041	-1.2617792928	-0.293177
H	 1.0612484262	 1.8965170064	-0.0141677403	 0.131752
H	-0.5442307671	 1.9151103329	-0.7803022435	 0.12301
H	-0.4093870526	 1.8892953617	 0.9869014897	 0.123342
H	 0.2895844122	-0.1924492977	 2.1764947236	 0.126715
H	 0.6793233761	-1.6720395029	 1.2890087911	 0.11702
H	 1.8060522064	-0.3013814368	 1.2538241715	 0.131661
H	-1.3745027937	-1.3676876098	-0.0376462629	 0.292275
H	 0.1007309603	-0.0643699726	-2.1232657821	 0.112569
H	 2.6302470415	-2.03731717	-2.6568951515	 0.136707
H	 2.9573012499	-2.2635084507	-0.9089943492	 0.138691
78.6017	107.1244	134.1924	199.9348	233.5781	263.505	277.3015	341.2869	393.7599	422.9226	436.5233	456.3195	510.2243	587.7426	724.1389	733.0252	842.0769	925.7435	932.0546	967.3404	991.9109	1001.5526	1021.258	1040.3162	1098.167	1134.1306	1144.1443	1206.8827	1249.0758	1250.5575	1294.4906	1308.821	1382.636	1408.3362	1418.1603	1476.4584	1480.2875	1485.5729	1501.2934	1508.9575	1903.0258	3018.5377	3027.9168	3037.411	3045.0443	3071.7756	3107.9247	3119.0386	3125.3639	3130.295	3769.6958
CC(C)(O)C1OCC1=O	CC(C)(O)[C@H]1OCC1=O	
InChI=1S/C6H10O3/c1-6(2,8)5-4(7)3-9-5/h5,8H,3H2,1-2H3	InChI=1S/C6H10O3/c1-6(2,8)5-4(7)3-9-5/h5,8H,3H2,1-2H3/t5-/m0/s1
