19
gdb 54031	2.13438	1.58857	0.97585	2.746	79.46	-0.248	-0.0134	0.2346	1225.1355	0.158585	-419.222289	-419.212961	-419.212016	-419.256754	34.144	
C	-0.5208529845	 1.4415306724	 0.0048517693	-0.506994
C	-0.3075120592	-0.065481303	-0.0144782697	 0.410995
O	-0.4653297774	-0.7299539353	 0.9851411338	-0.333785
N	 0.0896267322	-0.6610675154	-1.222815025	-0.113254
C	 0.0473963913	 0.0218352628	-2.4366151612	 0.075432
N	 0.1810191451	-0.5711081738	-3.5534830219	-0.446593
C	 0.3214589674	-2.0904765993	-1.2433606203	 0.056816
C	 1.626086472	-2.6078062692	-1.7821111897	-0.252562
C	 1.334125911	-2.6869036511	-0.3086907325	-0.263035
H	 0.3507616968	 1.9912001371	-0.3619907919	 0.143155
H	-1.3848747043	 1.7356167363	-0.5992962892	 0.147797
H	-0.7105971135	 1.7177725252	 1.0415062096	 0.152591
H	-0.1118897513	 1.0941935047	-2.3205668479	 0.108496
H	 0.1260430108	 0.1077184017	-4.3109042648	 0.22686
H	-0.5707609224	-2.6701622032	-1.4575366038	 0.109147
H	 1.5907707798	-3.5068822854	-2.3858968768	 0.119119
H	 2.3480613632	-1.8739671094	-2.1180665653	 0.12151
H	 1.8618248403	-2.012365523	 0.3536164023	 0.12466
H	 1.0895394826	-3.6440983021	 0.1369918949	 0.119644
68.9027	84.0161	136.7669	190.2202	195.8101	251.5378	256.2498	381.6693	399.3762	471.4128	527.2259	607.4589	638.3733	710.2114	776.6586	819.9729	829.3624	892.0091	958.0938	982.1713	1050.5509	1054.0113	1058.8921	1071.8059	1077.2797	1117.2135	1159.3728	1187.8563	1194.9052	1241.6676	1292.1607	1378.4233	1389.968	1404.7041	1438.6302	1467.5947	1480.0314	1490.2796	1504.4181	1707.5666	1795.6248	3047.5989	3113.7272	3118.3378	3149.0852	3150.7955	3156.6855	3161.4858	3229.1733	3243.7624	3499.8696
CC(=O)N(C=N)C1CC1	CC(=O)N(C=N)C1CC1	
InChI=1S/C6H10N2O/c1-5(9)8(4-7)6-2-3-6/h4,6-7H,2-3H2,1H3	InChI=1S/C6H10N2O/c1-5(9)8(4-7)6-2-3-6/h4,6-7H,2-3H2,1H3
