21
gdb 111502	2.81401	1.35625	1.15444	2.4962	77.2	-0.2565	0.081	0.3375	1163.9418	0.183457	-424.227724	-424.219215	-424.21827	-424.260695	33.442	
C	-0.0792316279	 1.5374931315	 0.0908896483	-0.389766
C	-0.004823011	 0.0097663974	 0.0186566276	-0.174244
C	 0.6519445934	-0.5133202974	-1.2634781939	-0.03401
C	 0.7612940049	-2.0257602312	-1.3481866537	 0.032523
O	-0.4625358477	-2.6639506044	-1.7805274271	-0.279585
C	 0.5953784623	-2.4541391307	-2.7408009018	 0.040306
C	 0.3740845999	-1.2304796555	-3.6052750272	-0.269857
C	-0.0831703016	-0.1458269734	-2.5939232028	 0.105757
O	-1.4932244559	-0.1284505294	-2.4510698367	-0.438275
H	 0.9126673312	 1.9918108759	-0.0169604102	 0.105746
H	-0.7237720617	 1.9322201594	-0.699216496	 0.137643
H	-0.4896860623	 1.8639600985	 1.0513606431	 0.110286
H	 0.5609211976	-0.3737768603	 0.8776655964	 0.08756
H	-1.0133320712	-0.4079168058	 0.0985710318	 0.106271
H	 1.6770869428	-0.1158357455	-1.3221629842	 0.07333
H	 1.3337149921	-2.5919416919	-0.6172746972	 0.095691
H	 1.0384490003	-3.3635891874	-3.1376228242	 0.097885
H	 1.3194363738	-0.9556833625	-4.0894872011	 0.103911
H	-0.3784442043	-1.3718983837	-4.3860515632	 0.117181
H	 0.1884146306	 0.8564824353	-2.9323624957	 0.084333
H	-1.7366723156	-1.023447129	-2.1777248123	 0.287314
86.7809	132.07	191.9543	222.1221	278.4529	308.2208	375.9522	409.2115	486.8948	525.3841	584.3902	666.781	733.5985	810.7423	814.5489	847.7111	866.9803	877.4488	917.0802	966.1362	975.9983	1015.6036	1038.3229	1044.3471	1084.0204	1104.0503	1140.2071	1156.6012	1202.3372	1229.6943	1251.9094	1264.5731	1298.1812	1306.4394	1325.2191	1348.7814	1361.9515	1392.0398	1408.5118	1434.295	1455.9035	1474.0746	1485.6655	1498.5146	1511.6454	2991.4431	3024.654	3031.9286	3037.2901	3077.0524	3088.2751	3097.8361	3099.3139	3118.3275	3141.9688	3157.0946	3751.7161
CCC1C2OC2CC1O	CC[C@H]1[C@H]2O[C@H]2C[C@H]1O	
InChI=1S/C7H12O2/c1-2-4-5(8)3-6-7(4)9-6/h4-8H,2-3H2,1H3	InChI=1S/C7H12O2/c1-2-4-5(8)3-6-7(4)9-6/h4-8H,2-3H2,1H3/t4-,5-,6+,7-/m1/s1
