16
gdb 128668	5.57701	1.1258	0.95886	3.2702	72.61	-0.2251	0.0157	0.2408	1203.1006	0.126253	-434.045243	-434.037536	-434.036592	-434.077941	27.754	
C	 0.1370255648	 1.3589540189	-0.1156143959	-0.231078
O	 0.0320590515	-0.0589906034	 0.0009252608	-0.238005
C	 0.5264990147	-0.5856786808	 1.118332617	 0.428333
N	 1.1233205732	 0.1388321547	 2.0746663404	-0.386011
N	 1.5226801748	-0.8799693611	 2.8950679592	 0.052189
C	 1.7024300871	-1.3150945624	 4.2983104052	-0.168098
C	 1.3460144052	-2.7655317395	 3.7681163121	-0.356086
C	 1.0770843798	-2.0538832705	 2.4514957962	 0.348587
N	 0.4383634119	-1.9490019191	 1.3056102734	-0.41894
H	 1.1843597007	 1.6751381301	-0.0879282863	 0.137228
H	-0.3114850643	 1.6117079539	-1.0768412316	 0.131521
H	-0.400483761	 1.8584139702	 0.6967894501	 0.13468
H	 2.7077047221	-1.1522503265	 4.6925229559	 0.135398
H	 0.9532035004	-0.9027650582	 4.9783380232	 0.143119
H	 2.1683940986	-3.4830226908	 3.7752104609	 0.141035
H	 0.4669199306	-3.2083984557	 4.2395246596	 0.146129
79.8276	113.9547	176.3846	215.2481	246.1085	336.6716	407.2267	547.3681	655.557	673.4908	762.7782	806.1016	819.4772	838.5374	923.2099	987.4229	1056.5953	1091.2254	1116.9148	1127.5253	1169.0797	1182.2303	1211.1271	1218.2471	1260.0923	1288.8076	1340.4128	1439.3629	1469.1497	1479.7172	1482.3197	1500.6765	1513.6013	1568.7253	1600.2778	3036.3413	3068.9743	3085.2309	3104.6628	3125.634	3142.652	3149.8818
COC1=NN2CCC2=N1	COc1nn2CCc2n1	
InChI=1S/C5H7N3O/c1-9-5-6-4-2-3-8(4)7-5/h2-3H2,1H3	InChI=1S/C5H7N3O/c1-9-5-6-4-2-3-8(4)7-5/h2-3H2,1H3
