21
gdb 114431	3.93579	1.25799	1.13129	1.4781	81.37	-0.2044	0.0825	0.2868	1160.3675	0.184838	-383.216313	-383.208576	-383.207632	-383.248459	31.012	
C	 0.0219702962	 1.5846047629	-0.2568197276	-0.38347
C	 0.0248337476	 0.0993535129	 0.1044603994	-0.121647
N	-1.3216813373	-0.4485534356	 0.1798982486	-0.049028
C	-2.1487419977	 0.0555392418	 1.2936791958	-0.200016
C	-3.1008834725	-1.0947623079	 1.5830857575	-0.031061
C	-2.8801351394	-2.1821539665	 0.6158104507	-0.050212
C	-1.4021185558	-1.9034099531	 0.2827020947	-0.039172
C	-1.1041080916	-2.4427243937	 1.7159403305	-0.17295
N	-2.5639182299	-2.4053628322	 2.0723808482	-0.157462
H	 1.0463897962	 1.9530396994	-0.3669176413	 0.112722
H	-0.5119583788	 1.7488337683	-1.1973934048	 0.124104
H	-0.4636462096	 2.1855717159	 0.5184428408	 0.119561
H	 0.5647091353	-0.459521956	-0.6694200621	 0.09798
H	 0.586926808	-0.0455011181	 1.0483765097	 0.076306
H	-1.5449248173	 0.313919964	 2.1812936238	 0.09153
H	-2.7012159903	 0.9574490693	 1.0060882462	 0.108161
H	-4.0885320349	-0.8836101059	 1.9761355932	 0.09945
H	-3.6225380258	-2.744462171	 0.0636275927	 0.093039
H	-0.9236265342	-2.3975610801	-0.5635694432	 0.075645
H	-0.7764709348	-3.4852521212	 1.7293148025	 0.108273
H	-0.4485148536	-1.8516720129	 2.3650357148	 0.098247
97.4268	136.7523	219.3949	258.4569	338.771	384.7349	422.8401	486.9217	590.8343	700.6465	744.3466	784.7207	806.9477	810.4922	845.0769	895.4193	924.4598	950.0577	975.5698	983.7202	1004.2852	1040.6548	1061.0656	1089.9703	1104.1914	1129.3962	1167.7468	1172.5946	1202.9828	1218.6371	1223.9252	1234.9239	1271.3626	1297.0362	1306.1275	1337.8829	1363.8278	1388.6353	1403.3817	1416.6073	1489.2909	1491.8471	1494.6166	1510.5676	1524.8183	2905.5215	2945.3815	3038.8434	3041.2898	3043.5859	3044.8103	3098.5503	3108.7596	3110.3213	3117.1037	3181.42	3195.1258
CCN1CC2C3C1CN23	CCN1C[C@H]2[C@H]3[C@@H]1CN23	
InChI=1S/C7H12N2/c1-2-8-3-6-7-5(8)4-9(6)7/h5-7H,2-4H2,1H3	InChI=1S/C7H12N2/c1-2-8-3-6-7-5(8)4-9(6)7/h5-7H,2-4H2,1H3/t5-,6-,7+,9?/m0/s1
