17
gdb 31495	3.11849	1.11103	0.88045	2.7075	74.26	-0.1977	0.0101	0.2077	1322.0683	0.135584	-455.17637	-455.166899	-455.165955	-455.211499	33.391	
C	-0.0971079797	 1.4996173979	 0.1243664128	-0.49944
C	 0.0001313813	 0.0131692894	 0.040631827	 0.190643
C	 0.1289320603	-0.7937490932	-1.0509480599	 0.260717
N	 0.2977417913	-0.5856952073	-2.411103371	-0.599533
O	 0.1888872972	-2.0867589332	-0.6336062607	-0.190124
C	 0.0905313691	-2.0139682313	 0.7321662291	 0.330345
C	 0.0225598155	-3.2878082876	 1.5015204556	-0.167692
O	-1.2804851747	-3.8646660868	 1.5053575118	-0.412445
N	-0.0156651539	-0.8034265623	 1.1715842097	-0.342243
H	-0.2977140214	 1.9429804618	-0.8567827244	 0.106325
H	-0.9072146103	 1.7977592933	 0.7974359982	 0.138384
H	 0.8260308287	 1.9513163163	 0.5067626974	 0.136288
H	 0.0679099553	 0.3592105268	-2.6874964365	 0.256693
H	-0.2091959465	-1.2540885141	-2.9792951202	 0.259813
H	 0.6768649115	-4.0376144174	 1.048641775	 0.127272
H	 0.3799617645	-3.0806283105	 2.5182091514	 0.118473
H	-1.8723527684	-3.2174509217	 1.9044115149	 0.286523
40.9347	89.654	111.9363	174.4743	241.8702	248.9312	264.8118	285.4032	368.8382	439.9473	489.1381	627.7377	645.377	681.3381	740.9864	753.8736	830.0154	935.5473	987.8039	1004.5682	1048.5303	1062.1505	1070.8741	1190.0107	1232.2977	1253.331	1328.6769	1370.0041	1408.7036	1426.8216	1445.7146	1472.9837	1483.9204	1497.4346	1618.106	1629.6935	1696.5593	3025.4975	3029.4274	3080.0296	3101.3107	3101.6017	3534.1288	3637.268	3806.2041
CC1=C(N)OC(CO)=N1	Cc1c(N)oc(CO)n1	
InChI=1S/C5H8N2O2/c1-3-5(6)9-4(2-8)7-3/h8H,2,6H2,1H3	InChI=1S/C5H8N2O2/c1-3-5(6)9-4(2-8)7-3/h8H,2,6H2,1H3
