16
gdb 21305	6.9962	1.15941	1.01319	3.5653	67.56	-0.2316	0.0267	0.2583	1134.5239	0.132136	-379.92877	-379.921045	-379.920101	-379.961847	27.06	
C	-0.7114772556	 1.4713159397	-0.4787377257	-0.227141
O	-0.6676405408	 0.0750302948	-0.6678755417	-0.244842
C	-0.6855843153	-0.6466840082	 0.5474375308	-0.176499
C	-0.7350053874	-2.1054646228	 0.224288922	 0.364826
C	-0.4194817897	-3.2401778218	 0.9464213627	-0.319325
C	-0.7419778744	-4.309744244	 0.0835214023	-0.001654
N	-1.2138927059	-3.8835391025	-1.0850553327	-0.232102
N	-1.2094416859	-2.5423346387	-0.9666875804	-0.22502
H	-0.7011800338	 1.9337159864	-1.4680955359	 0.133969
H	-1.6245053051	 1.7813013928	 0.0527873601	 0.1107
H	 0.1587859135	 1.8299977274	 0.0916683863	 0.112261
H	 0.2049667333	-0.4223555466	 1.1563412632	 0.111166
H	-1.5642689882	-0.3496368649	 1.1472018953	 0.109301
H	-0.0172017582	-3.2857847926	 1.9456667503	 0.098274
H	-0.6433858823	-5.3699200473	 0.2657223935	 0.108785
H	-1.4739109942	-1.9586588618	-1.7423673001	 0.2773
47.0151	82.4301	144.0435	224.2988	266.0604	355.6394	415.4154	570.1442	655.9726	702.4572	750.4847	797.8784	890.7775	940.528	987.4956	1038.0082	1040.5801	1061.9089	1130.8218	1158.8303	1184.1622	1222.1635	1243.1021	1245.0957	1301.7412	1352.5447	1393.9848	1452.8526	1480.2791	1485.6178	1499.286	1507.2747	1524.8734	1606.3857	2943.4562	2976.9998	2985.7393	3025.2591	3121.9692	3242.4445	3265.9877	3679.0178
COCC1=CC=NN1	COCc1ccn[nH]1	
InChI=1S/C5H8N2O/c1-8-4-5-2-3-6-7-5/h2-3H,4H2,1H3,(H,6,7)	InChI=1S/C5H8N2O/c1-8-4-5-2-3-6-7-5/h2-3H,4H2,1H3,(H,6,7)
