17
gdb 83942	2.41675	1.73378	1.53964	1.8375	67.21	-0.2418	-0.0376	0.2042	940.4002	0.137442	-458.95408	-458.946788	-458.945844	-458.985569	29.039	
O	 0.0592315595	 1.4063222897	 0.0611020524	-0.440354
C	-0.0087897511	 0.0147401137	 0.0041392942	 0.148789
C	-1.4250816918	-0.6844697379	-0.0632560762	-0.201221
C	-2.317720655	 0.1798152685	-0.9831686509	-0.239473
C	-1.7048799371	 0.1999917921	-2.3959171456	-0.089793
O	-0.2690025117	 0.2514938353	-2.3712191088	-0.289552
C	 0.2879111441	-0.6267791515	-1.3915880078	-0.056426
C	-0.7165983448	-1.7249195673	-0.9404961904	 0.396427
O	-0.7619522221	-2.9129722204	-1.0658214746	-0.307651
H	 0.0337698861	 1.7098210667	-0.8581440331	 0.292386
H	 0.6059057117	-0.4100190731	 0.8019825055	 0.101749
H	-1.9196877469	-1.0022949664	 0.8544785736	 0.092958
H	-3.3311422219	-0.2283500755	-1.0382188058	 0.118048
H	-2.3768000273	 1.1865871408	-0.559244681	 0.128082
H	-2.0093559542	-0.7056751261	-2.9394505442	 0.124693
H	-2.0267815282	 1.068479285	-2.9750874577	 0.11967
H	 1.3025668906	-0.8847985135	-1.6955383597	 0.101668
132.8464	190.4611	257.593	294.9454	327.1549	458.7455	502.0461	513.8457	543.5741	573.3496	666.3954	757.8894	793.2445	816.9992	840.773	897.8952	927.6803	1027.7227	1036.067	1048.2162	1081.1805	1112.7136	1128.2724	1145.0969	1195.1372	1215.9238	1232.6958	1260.4406	1298.9425	1322.9448	1335.1236	1365.0876	1400.7775	1431.6129	1481.9966	1506.8061	1892.1542	3006.9191	3055.6704	3080.9003	3098.9479	3109.5425	3117.8216	3120.5794	3725.4707
OC1C2CCOC1C2=O	O[C@H]1[C@H]2CCO[C@@H]1C2=O	
InChI=1S/C6H8O3/c7-4-3-1-2-9-6(4)5(3)8/h3-4,6-7H,1-2H2	InChI=1S/C6H8O3/c7-4-3-1-2-9-6(4)5(3)8/h3-4,6-7H,1-2H2/t3-,4+,6+/m1/s1
