16
gdb 64898	2.04709	1.72424	1.09465	5.2116	75.19	-0.2887	-0.0138	0.2749	1112.0546	0.122539	-396.934137	-396.924721	-396.923777	-396.968132	33.609	
C	-0.0519177717	 1.5330095255	-0.0960670726	-0.457284
C	-0.013914929	 0.0214054367	 0.0325916826	 0.129545
N	 1.2931383525	-0.6338396112	-0.1526973841	-0.372412
C	 0.6825929835	-0.6818410098	 1.187821195	 0.129561
C	 1.3899155782	 0.0771757885	 2.2953002562	-0.457236
C	 0.123050576	-1.9471544189	 1.6208082893	 0.259727
N	-0.2802202011	-2.9633642512	 1.996926117	-0.328139
C	-1.1755944557	-0.6359462212	-0.5330565759	 0.259715
N	-2.1015307067	-1.1244558609	-1.0237446342	-0.328139
H	 0.8771508818	 1.974160829	 0.2636489884	 0.145213
H	-0.173361902	 1.8067337577	-1.1477350266	 0.154859
H	-0.8930791899	 1.9478198313	 0.4658149106	 0.148515
H	 1.194590987	-1.5245790983	-0.635492008	 0.267534
H	 1.86445379	 0.9766936171	 1.9043366788	 0.145161
H	 0.6866527544	 0.3513651216	 3.0862288971	 0.148522
H	 2.1678310426	-0.5552662359	 2.7318179964	 0.154859
111.8576	115.5666	151.1143	163.2543	193.8877	202.7982	280.9773	334.8752	370.6171	414.9835	492.3999	572.5516	601.0599	628.3143	645.2372	698.6649	814.8152	904.1216	991.7475	1054.9094	1063.9536	1098.7997	1124.0874	1136.6976	1245.7943	1320.1613	1371.3063	1409.8217	1422.091	1474.3494	1483.4714	1489.3554	1502.9777	2353.1845	2355.1222	3056.0443	3059.4035	3125.4658	3126.5205	3153.3435	3165.1905	3507.3532
CC1(NC1(C)C#N)C#N	C[C@]1(N[C@]1(C)C#N)C#N	
InChI=1S/C6H7N3/c1-5(3-7)6(2,4-8)9-5/h9H,1-2H3	InChI=1S/C6H7N3/c1-5(3-7)6(2,4-8)9-5/h9H,1-2H3/t5-,6+
