17
gdb 67156	2.5071	1.66863	1.57237	2.0187	71.63	-0.2344	-0.0189	0.2154	945.0044	0.136258	-421.798442	-421.791096	-421.790152	-421.829969	29.316	
O	-0.0738018841	 1.4249939107	 0.0422751034	-0.474032
C	 0.0217428938	 0.0533667701	 0.0100368561	 0.410319
C	-1.2386447514	-0.8724012451	 0.0131991761	-0.077115
C	-0.7422832241	-1.5214900309	-1.3030189809	-0.232596
C	 0.6528324854	-0.8430899045	-1.1428750825	-0.250122
C	 1.4912207945	-1.5216971496	-0.0525378757	 0.428003
O	 2.490341346	-2.1838662506	-0.0859966252	-0.319981
C	 0.694951069	-0.8927750529	 1.0975364396	-0.250142
C	-0.6937230577	-1.5787705557	 1.2797809188	-0.232593
H	 0.8132426618	 1.8033327902	 0.034615249	 0.28879
H	-2.2622617339	-0.5013020828	 0.0406742623	 0.080608
H	-0.7667420118	-2.6127494984	-1.3754104897	 0.108452
H	-1.2610257241	-1.0979918503	-2.1667760984	 0.117104
H	 1.1660852855	-0.4881355141	-2.0370226573	 0.088878
H	 1.2417403791	-0.577362239	 1.9866158427	 0.088871
H	-1.1792880003	-1.1943954732	 2.1803382585	 0.117102
H	-0.7163531877	-2.6721860537	 1.3046135934	 0.108455
113.813	203.4936	260.3934	296.8134	342.9299	382.1864	460.5724	512.0539	570.8256	598.1069	725.5816	760.7682	844.9759	875.7866	883.7154	929.0102	941.1577	971.2446	982.2286	997.8782	1047.2085	1092.9131	1098.9949	1107.158	1134.8561	1141.8334	1185.0785	1205.813	1245.4986	1281.4185	1287.5822	1305.1331	1321.0534	1400.7013	1475.4921	1490.9531	1876.9047	3051.7175	3054.4035	3105.8206	3106.2052	3113.0858	3113.9568	3122.2119	3790.6416
OC12C3CC1C(=O)C2C3	O[C@@]12[C@H]3C[C@@H]1C(=O)[C@@H]2C3	
InChI=1S/C7H8O2/c8-6-4-1-3-2-5(6)7(3,4)9/h3-5,9H,1-2H2	InChI=1S/C7H8O2/c8-6-4-1-3-2-5(6)7(3,4)9/h3-5,9H,1-2H2/t3-,4+,5-,7-
