21
gdb 71938	2.59643	1.91082	1.43138	1.7241	80.63	-0.2383	0.0765	0.3148	996.4003	0.184556	-387.080422	-387.072915	-387.071971	-387.112259	30.784	
C	 0.0337584914	 1.5420629012	-0.004026577	-0.48435
C	 0.0075540742	 0.0205562053	 0.0127300918	 0.362128
C	 0.3251312385	-0.6606096092	-1.3671481539	-0.290285
C	-0.9454717301	-1.5151505015	-1.2313408262	 0.124256
O	-0.7370752903	-2.6721741869	-0.3884902567	-0.323646
C	-1.2042575586	-1.9662711051	 0.7968471701	 0.128829
C	-0.0946048374	-1.7218478238	 1.8120870772	-0.227731
C	 0.7874855277	-0.5956222822	 1.2103983513	-0.274366
C	-1.4032056629	-0.6761216697	-0.0139515867	-0.154055
H	 1.0576811013	 1.9157551446	-0.1236177854	 0.116471
H	-0.5636101512	 1.9451049564	-0.8291892821	 0.109895
H	-0.3628334213	 1.9557504271	 0.9306692831	 0.111306
H	 0.247639968	 0.0526117827	-2.1951403945	 0.092737
H	 1.2652742497	-1.2121813939	-1.4553144173	 0.100185
H	-1.5386520737	-1.7527364929	-2.1177318871	 0.071097
H	-2.0884863299	-2.4607414717	 1.2147326806	 0.067973
H	-0.5459048016	-1.3974688481	 2.7574957982	 0.096226
H	 0.4599482867	-2.6421219325	 2.017420442	 0.110359
H	 1.7560024882	-0.9791625981	 0.8766816481	 0.10427
H	 0.9994962453	 0.1689539818	 1.9646829425	 0.093359
H	-2.3123825741	-0.0819148734	 0.0575403221	 0.065342
67.686	239.1438	253.6774	295.3679	337.6828	371.0996	417.3901	546.8752	642.672	665.6694	761.4093	786.0186	817.4372	855.465	861.7362	893.2672	904.3602	932.431	959.5141	972.6375	981.5558	1006.9779	1039.9654	1048.2544	1113.8403	1126.6377	1149.2878	1178.5836	1202.0949	1220.1536	1229.0193	1255.3862	1261.257	1284.89	1296.9163	1308.9782	1336.375	1355.9564	1360.0489	1411.6714	1462.5615	1472.7314	1493.0049	1495.0888	1504.2603	3017.4922	3029.5066	3038.5845	3042.7171	3051.3782	3075.9278	3078.4409	3083.0973	3088.6237	3097.5731	3101.5525	3128.5933
CC12CC3OC(CC1)C23	C[C@@]12C[C@H]3O[C@@H](CC1)[C@@H]23	
InChI=1S/C8H12O/c1-8-3-2-5-7(8)6(4-8)9-5/h5-7H,2-4H2,1H3	InChI=1S/C8H12O/c1-8-3-2-5-7(8)6(4-8)9-5/h5-7H,2-4H2,1H3/t5-,6+,7+,8-/m0/s1
