19
gdb 39995	3.34344	1.49315	1.27542	1.7863	79.63	-0.2229	0.0119	0.2349	1044.2763	0.160474	-385.867584	-385.86025	-385.859305	-385.899451	29.661	
C	-0.3237125921	 1.2630464659	 0.3131968161	-0.333155
C	 1.1103500765	 0.927286164	-0.0815349274	-0.339233
C	 0.06667455	-0.1371188713	-0.031470884	 0.470437
O	 0.1120774155	-1.1686470309	 0.9575261611	-0.327595
C	-0.4534900301	-2.1226467947	 0.0101539225	 0.086004
C	-1.9097189683	-2.4142216238	 0.2380470885	-0.08301
C	-2.6845962082	-1.7538246475	-0.6226840195	-0.054435
C	-1.9028606168	-0.9110647529	-1.6065202889	-0.275554
C	-0.4456065574	-1.069202026	-1.1309860277	-0.185585
H	-0.5171842507	 1.4722278423	 1.359752903	 0.124385
H	-0.9343156231	 1.8283529769	-0.3838865404	 0.111741
H	 1.4715463658	 1.2559847147	-1.0510467166	 0.111178
H	 1.8569417426	 0.9220592219	 0.7054299622	 0.123216
H	 0.1861157924	-3.0081004388	-0.0643947396	 0.07798
H	-2.2575090155	-3.0709830002	 1.0269560444	 0.098654
H	-3.7688856378	-1.7973765382	-0.6412243483	 0.097259
H	-2.0370695732	-1.2693778074	-2.6354286713	 0.106886
H	-2.2343193408	 0.1349975785	-1.6015119563	 0.109859
H	 0.2657708411	-1.2299258926	-1.9418852278	 0.080968
66.911	199.4001	233.4063	285.7036	355.414	448.4042	509.1585	558.1576	689.2574	754.9743	764.1978	771.2547	837.5806	857.3469	874.0277	900.1085	935.9521	947.8808	967.6074	975.1163	981.2596	1016.5111	1040.6519	1046.4643	1052.652	1064.9276	1128.693	1168.4681	1185.8545	1214.906	1220.605	1275.233	1298.8314	1319.6278	1329.2293	1377.424	1393.6643	1446.7331	1478.8676	1498.0469	1678.2378	3019.5416	3046.5386	3052.3969	3101.7504	3123.9725	3126.6954	3180.2326	3208.0105	3209.8195	3222.3377
C1CC11OC2C=CCC12	C1CC21O[C@H]1C=CC[C@@H]21	
InChI=1S/C8H10O/c1-2-6-7(3-1)9-8(6)4-5-8/h1,3,6-7H,2,4-5H2	InChI=1S/C8H10O/c1-2-6-7(3-1)9-8(6)4-5-8/h1,3,6-7H,2,4-5H2/t6-,7+/m1/s1
