16
gdb 104562	2.41711	1.28863	1.01701	1.9021	71.84	-0.2595	0.011	0.2704	1183.8432	0.12209	-437.861896	-437.852868	-437.851923	-437.895827	33.445	
O	 0.1146110288	 1.4036830581	 0.0974089618	-0.411583
C	 0.0536835295	 0.0187038346	-0.1597338146	-0.10306
C	-1.3825006586	-0.5252658798	-0.0803671929	 0.104455
C	-1.488594306	-2.0749548476	 0.1481430374	-0.449122
C	-2.1654456923	-1.7186827552	 1.4894879072	 0.445506
O	-2.6982961921	-2.3246925819	 2.3745069287	-0.340926
N	-1.9505978864	-0.3635890466	 1.2862031127	-0.368921
C	-2.2343765587	 0.001998741	-1.1374217701	 0.327412
C	-2.9348497004	 0.4354941446	-2.0123238907	-0.458326
H	-0.0950495867	 1.5306226156	 1.0291684479	 0.287577
H	 0.4474624607	-0.1337372083	-1.1690032532	 0.125866
H	 0.6744840956	-0.5533355208	 0.5457824379	 0.094005
H	-2.1471020774	-2.593554218	-0.5481862698	 0.150076
H	-0.5356855328	-2.601966758	 0.2275148441	 0.135632
H	-2.5061483525	 0.4059425499	 1.6363716457	 0.25567
H	-3.5532550706	 0.8220329825	-2.7847635122	 0.205738
75.0789	90.4949	156.1341	181.6955	240.3409	317.2409	390.2144	407.7297	443.0197	468.9739	515.9724	565.2692	584.6882	635.2724	658.1319	682.4583	791.9639	865.7721	934.5014	956.2607	1011.6799	1062.0104	1075.386	1132.9645	1188.376	1189.3823	1234.2198	1265.5322	1349.8376	1397.6356	1413.4832	1450.3294	1488.6974	1904.4499	2236.8716	2995.2444	3089.2967	3093.4533	3157.5818	3499.4419	3587.7939	3806.3953
OCC1(CC(=O)N1)C#C	OC[C@]1(CC(=O)N1)C#C	
InChI=1S/C6H7NO2/c1-2-6(4-8)3-5(9)7-6/h1,8H,3-4H2,(H,7,9)	InChI=1S/C6H7NO2/c1-2-6(4-8)3-5(9)7-6/h1,8H,3-4H2,(H,7,9)/t6-/m1/s1
