19
gdb 37807	2.45691	2.15603	1.68071	0.732	72.91	-0.2269	0.0742	0.301	893.8466	0.163181	-423.013769	-423.007193	-423.006249	-423.044397	27.68	
C	 0.0169232425	 1.557006278	-0.063033012	-0.242243
C	 1.4817946741	 1.9451168823	 0.0572756336	-0.134158
C	 2.1662069751	 0.6684961078	 0.4949751727	 0.039146
O	 1.221773099	-0.3448468552	 0.7145819647	-0.260527
C	 0.0234909695	 0.0058622836	 0.0035302677	 0.077807
C	 0.022514409	-0.6873192988	-1.3710680506	-0.220748
C	 1.4029091739	-0.6418534231	-2.0306732028	-0.06726
O	 1.935443158	 0.6747150734	-2.0945004312	-0.260856
C	 2.4086659324	 1.2185375461	-0.8977280818	 0.066827
H	-0.5421144011	 1.9741037253	 0.7799995293	 0.105432
H	-0.4458238697	 1.9145570286	-0.9870287219	 0.112529
H	 1.7395703263	 2.9262001983	 0.4389986089	 0.086051
H	 2.9819793181	 0.6166336778	 1.207093822	 0.10048
H	-0.8146236982	-0.3660237378	 0.5998751549	 0.085385
H	-0.2632089277	-1.7394178068	-1.2521963173	 0.099856
H	-0.7291407098	-0.2175173741	-2.0155539814	 0.101864
H	 2.0925213665	-1.3021021629	-1.4911341583	 0.111181
H	 1.3402587996	-0.9862519572	-3.0671878691	 0.103521
H	 3.3875309224	 1.6724916448	-1.0383328573	 0.095713
156.5465	270.6825	284.4788	385.5003	398.5264	498.4585	587.5212	665.6026	718.9877	725.127	760.5315	789.6827	803.3543	866.7338	904.676	918.6602	941.2768	1008.9685	1022.8231	1049.9723	1069.5569	1074.4485	1103.7185	1110.3374	1120.4316	1149.7212	1195.566	1224.98	1246.1622	1283.7322	1295.7211	1311.0458	1346.2226	1354.53	1361.5736	1391.8904	1410.5484	1430.4236	1472.8196	1492.3964	1498.5936	3029.4416	3033.9487	3051.411	3067.9608	3075.3486	3092.4207	3100.4405	3123.6679	3170.394	3180.628
C1C2C3OC1CCOC23	C1[C@H]2[C@H]3O[C@@H]1CCO[C@@H]23	
InChI=1S/C7H10O2/c1-2-8-6-5-3-4(1)9-7(5)6/h4-7H,1-3H2	InChI=1S/C7H10O2/c1-2-8-6-5-3-4(1)9-7(5)6/h4-7H,1-3H2/t4-,5-,6+,7-/m1/s1
