22
gdb 119487	3.76326	0.96689	0.88637	1.8453	85.91	-0.201	0.0831	0.284	1431.274	0.19405	-367.133206	-367.124348	-367.123404	-367.167115	34.535	
C	-0.005457469	 1.6551130288	-0.0401133434	-0.380889
C	 0.0128705067	 0.1268963445	 0.0451076388	-0.161741
C	 0.6295422834	-0.5291961661	-1.2003562522	-0.319295
C	 0.6546761881	-2.0279431064	-1.1546783655	 0.360257
N	 0.7137831664	-2.8620513329	-2.383599048	-0.390758
C	-0.3884130131	-3.0465101411	-1.3976231922	-0.120389
C	 0.13601425	-3.9173897562	-0.2202306481	-0.052263
C	 1.585773607	-4.2891107373	-0.3830903809	-0.292362
C	 1.2267683786	-2.8845519506	 0.0269290724	-0.102259
H	 1.0078434573	 2.0583629626	-0.1458962775	 0.115752
H	-0.587598268	 1.9979084568	-0.9030001943	 0.113437
H	-0.4480933808	 2.0987653218	 0.8569618142	 0.112638
H	 0.572489383	-0.181765759	 0.9361934172	 0.103348
H	-1.0080314805	-0.2512176722	 0.179751374	 0.099238
H	 0.0647169347	-0.2137785059	-2.0889893649	 0.089197
H	 1.6533027833	-0.1517422798	-1.3402116558	 0.10369
H	 0.335644339	-2.2954174146	-3.1429029025	 0.221158
H	-1.4238563409	-2.9393952417	-1.6963112498	 0.087171
H	-0.517991385	-4.3865424282	 0.5029968199	 0.085535
H	 1.9835649778	-4.8988226949	 0.4227587907	 0.102361
H	 1.9966761622	-4.4897702538	-1.3637286819	 0.141093
H	 1.5364785896	-2.4535174037	 0.9701736701	 0.085083
69.2864	82.8347	120.1298	240.2189	254.536	298.2994	346.1299	420.7819	472.2415	579.6354	635.0945	717.3149	739.2863	755.4807	824.6191	836.4592	857.578	901.9865	908.9529	921.5388	926.5787	968.1987	987.4021	1018.5862	1033.498	1054.9734	1057.9678	1099.5156	1105.9351	1125.8002	1140.3981	1184.7643	1218.8874	1253.7856	1292.5476	1301.138	1310.1256	1328.7358	1348.5241	1387.9503	1412.2781	1445.5877	1463.741	1473.9064	1491.3977	1499.3246	1509.3562	2994.3408	3026.9406	3027.6646	3030.0029	3062.5028	3096.5774	3103.2646	3136.5926	3184.7685	3191.5385	3200.9766	3233.7806	3465.9158
CCCC12NC1C1CC21	CCC[C@]12N[C@H]1[C@H]1C[C@@H]21	
InChI=1S/C8H13N/c1-2-3-8-6-4-5(6)7(8)9-8/h5-7,9H,2-4H2,1H3	InChI=1S/C8H13N/c1-2-3-8-6-4-5(6)7(8)9-8/h5-7,9H,2-4H2,1H3/t5-,6+,7-,8+/m0/s1
