18
gdb 44436	3.02568	1.79979	1.60014	3.2702	75.53	-0.2383	0.0347	0.273	906.7651	0.152135	-401.973084	-401.966715	-401.965771	-402.003604	26.906	
N	-0.052792394	 1.2823077822	-0.2671362873	-0.549227
C	-0.0226388061	 0.049248362	 0.0143997574	 0.420927
O	 1.1428614471	-0.61283499	 0.3007220801	-0.253996
C	 1.029399831	-1.9940347234	 0.5987692791	 0.108507
C	 0.018946812	-2.8448455629	-0.1181927405	-0.095499
C	-1.0098198384	-2.0296955752	-0.8847484961	-0.233245
C	-1.2434207802	-0.830032209	 0.0690632355	-0.124685
C	-1.2863560466	-1.4995697661	 1.4667023897	-0.233246
C	-0.1555676364	-2.5102929497	 1.3657515098	-0.095499
H	 0.8925457997	 1.6718980233	-0.2437959716	 0.216447
H	 2.0144625469	-2.3925969372	 0.8044707666	 0.109904
H	 0.3011110886	-3.8339417355	-0.4595089578	 0.090392
H	-0.6639563108	-1.7106653195	-1.8728252396	 0.117335
H	-1.9360096041	-2.5992817882	-1.017266142	 0.106776
H	-2.121552302	-0.2327882232	-0.1688529727	 0.100606
H	-1.1518770223	-0.7753137768	 2.27606379	 0.117335
H	-2.2461272306	-2.004780528	 1.6197327503	 0.106776
H	-0.0053925438	-3.2463464428	 2.1468388992	 0.090392
132.2116	288.2925	337.1439	420.2063	483.1868	487.1777	626.2008	652.5628	751.9299	763.3504	785.8357	793.5783	841.084	897.509	909.7448	915.5936	928.1681	987.199	989.7882	1023.0508	1065.7138	1071.146	1077.6218	1097.8427	1102.9956	1172.8361	1178.1501	1208.8688	1216.8485	1290.4195	1298.4418	1303.3027	1342.1789	1347.2971	1385.0693	1431.703	1488.8887	1505.1999	1762.7467	3042.5305	3045.2934	3088.1604	3089.5746	3139.4253	3174.9213	3181.0076	3200.9049	3456.73
N=C1OC2C3CC1CC23	[NH][C]1O[C@@H]2[C@@H]3C[C@H]1C[C@H]23	
InChI=1S/C7H9NO/c8-7-3-1-4-5(2-3)6(4)9-7/h3-6,8H,1-2H2	InChI=1S/C7H9NO/c8-7-3-1-4-5(2-3)6(4)9-7/h3-6,8H,1-2H2/t3-,4+,5-,6+
