19
gdb 41014	2.99773	1.99959	1.47079	1.7861	78.85	-0.2383	0.0798	0.3181	925.1819	0.162022	-385.80066	-385.794308	-385.793363	-385.830986	27.392	
C	 0.0310265652	 1.481974846	 0.298622679	-0.161686
O	 1.4381400439	 1.5302201974	-0.1364169133	-0.36826
C	 1.1647682908	 0.3576476686	-0.9059497874	 0.537504
C	-0.0229544098	-0.0271334334	-0.0749969436	-0.070242
C	-0.772137709	-0.9195586972	-1.084776146	-0.308138
C	 0.3779474703	-1.0384732832	-2.131138732	-0.007872
C	 0.8175208142	 0.411483396	-2.440103702	-0.111001
C	 2.2499795106	-0.0707659412	-2.76963905	-0.258434
C	 1.8584196051	-0.8787008581	-1.5086509462	-0.171651
H	-0.0650939581	 1.7476662627	 1.3537966477	 0.11192
H	-0.5890942261	 2.1415504936	-0.320521345	 0.105674
H	 0.2885370058	-0.6015196175	 0.8025846622	 0.087299
H	-1.0939711647	-1.870950645	-0.6533181246	 0.100433
H	-1.6455296838	-0.4519931022	-1.5523285004	 0.106126
H	 0.2740707091	-1.7419328771	-2.9584736459	 0.073279
H	 0.2222138105	 1.1653403518	-2.9581073697	 0.068857
H	 2.3695306861	-0.6326405221	-3.7006808452	 0.087513
H	 3.0579831626	 0.6535663611	-2.6443085818	 0.105859
H	 2.4310142073	-1.6440141303	-0.9823417356	 0.072819
189.4246	296.2655	334.6858	345.7703	453.9518	547.5905	625.4312	654.4609	704.9939	759.6786	804.419	864.3309	893.336	896.281	916.8494	919.9045	941.1734	959.1657	1014.7339	1029.5526	1045.18	1065.8625	1099.8742	1110.2514	1119.4114	1142.7461	1163.391	1168.8854	1181.511	1205.7339	1216.3971	1243.2306	1248.7794	1273.9443	1288.7633	1320.6469	1352.9856	1384.1974	1489.4428	1508.2929	1519.0388	3028.6449	3047.3838	3051.2008	3057.0888	3096.2907	3096.9617	3101.8781	3109.461	3114.5703	3115.4316
C1OC23C1CC1C2CC31	C1O[C@@]23[C@@H]1C[C@H]1[C@@H]2C[C@@H]31	
InChI=1S/C8H10O/c1-4-3-9-8(4)6-2-7(8)5(1)6/h4-7H,1-3H2	InChI=1S/C8H10O/c1-4-3-9-8(4)6-2-7(8)5(1)6/h4-7H,1-3H2/t4-,5-,6-,7+,8-/m1/s1
