19
gdb 93654	2.45222	1.44866	1.15805	1.4733	70.77	-0.2427	-0.0372	0.2056	1125.2048	0.157651	-460.193357	-460.184111	-460.183167	-460.227243	35.103	
C	 0.007552562	 1.5674090729	 0.0288951288	-0.437363
C	 0.0073715732	 0.0358444334	-0.0059018367	 0.310988
O	-1.3189608994	-0.47835758	 0.0293365255	-0.473334
C	 0.7551782918	-0.5483644435	-1.2223861361	-0.263614
C	 2.1923843954	-0.8271442737	-0.7244472822	-0.252391
C	 1.9640211009	-1.3705528626	 0.6910556088	 0.062375
O	 3.0764341336	-1.3411910624	 1.5418682859	-0.442388
C	 0.812426867	-0.5101021565	 1.1919794695	 0.327092
O	 0.601440562	-0.265838662	 2.356155711	-0.354927
H	 1.0163469408	 1.9750871583	-0.0943949175	 0.124019
H	-0.6245447328	 1.9447830285	-0.7798223277	 0.129153
H	-0.381821907	 1.9245952523	 0.9875751456	 0.129282
H	-1.7096953684	-0.2041674232	 0.8683143099	 0.286923
H	 0.2618089664	-1.4831991401	-1.5059236198	 0.121658
H	 0.7292648272	 0.1167760379	-2.0881662843	 0.108778
H	 2.7362173832	-1.5224055381	-1.3664965644	 0.11553
H	 2.7784085665	 0.0966837947	-0.6598817474	 0.115778
H	 1.556517572	-2.3971399198	 0.6008603303	 0.10029
H	 2.7349776557	-1.1241817763	 2.4212797708	 0.292151
43.7546	172.6023	187.03	244.518	265.5787	278.5728	338.7311	362.2538	370.3821	380.7425	418.1632	511.4113	559.8913	582.4816	694.3604	778.8126	818.3707	902.6042	937.1811	976.8125	978.9021	1006.587	1053.6192	1079.7018	1121.7264	1155.0754	1193.4778	1216.7511	1260.4092	1268.1751	1307.7989	1329.4516	1365.7554	1380.8879	1398.598	1416.0964	1480.7067	1491.7633	1494.3702	1505.7428	1834.0238	2911.5337	3034.2993	3051.9063	3062.1813	3106.4347	3111.0191	3119.019	3120.8254	3735.425	3784.482
CC1(O)CCC(O)C1=O	C[C@@]1(O)CC[C@@H](O)C1=O	
InChI=1S/C6H10O3/c1-6(9)3-2-4(7)5(6)8/h4,7,9H,2-3H2,1H3	InChI=1S/C6H10O3/c1-6(9)3-2-4(7)5(6)8/h4,7,9H,2-3H2,1H3/t4-,6-/m1/s1
