17
gdb 97602	4.21354	0.58807	0.52941	4.459	79.23	-0.2602	0.0072	0.2675	1981.3529	0.134702	-417.974159	-417.963671	-417.962726	-418.012013	35.536	
N	-0.0435168871	 1.5367900162	 0.0137995413	-0.481712
C	 0.0199138298	 0.0726903222	-0.0481925355	-0.180375
C	-1.4103607874	-0.5069820584	 0.1080276262	-0.322039
C	-2.0122604701	-0.1735659127	 1.3966151945	 0.274746
N	-2.4900663869	 0.0591285107	 2.4221802895	-0.305757
C	 0.6374672279	-0.4543891052	-1.2731312633	 0.03044
C	 1.1213478744	-0.840127802	-2.3082094739	 0.094767
C	 1.7334178964	-1.3583584678	-3.5336758231	-0.195381
O	 1.491737991	-2.7407973824	-3.7451850043	-0.397365
H	 0.8968104085	 1.9158951623	 0.0692102722	 0.242382
H	-0.4425702336	 1.8951316699	-0.8502489181	 0.235261
H	 0.6043561778	-0.2568668431	 0.8189266161	 0.132325
H	-2.0451461396	-0.123779894	-0.6985462964	 0.15551
H	-1.3802812671	-1.5954048056	-0.0011620136	 0.161388
H	 1.3138230163	-0.8466843904	-4.4068586367	 0.144128
H	 2.8117824361	-1.1332916442	-3.523431727	 0.122308
H	 1.7990173335	-3.2127970455	-2.9640700881	 0.289374
16.2919	56.2817	71.0475	130.8905	169.2404	203.2748	248.2773	278.6623	331.5015	373.2508	396.0838	444.2971	535.1119	550.0949	584.4808	784.0708	869.2169	916.5226	944.3352	976.375	989.0005	1051.6293	1123.5293	1139.0631	1161.5742	1214.9771	1277.6327	1299.8652	1358.4519	1363.8121	1397.0789	1417.3573	1460.9933	1490.5159	1665.6472	2350.0377	2367.7863	2979.3855	3040.5114	3056.9001	3064.9262	3099.4261	3490.1512	3571.7501	3815.9105
NC(CC#N)C#CCO	N[C@@H](CC#N)C#CCO	
InChI=1S/C6H8N2O/c7-4-3-6(8)2-1-5-9/h6,9H,3,5,8H2	InChI=1S/C6H8N2O/c7-4-3-6(8)2-1-5-9/h6,9H,3,5,8H2/t6-/m1/s1
