19
gdb 98983	5.08817	0.7022	0.62615	4.6409	74.76	-0.2385	-0.0205	0.218	1787.3735	0.157373	-456.400394	-456.389501	-456.388557	-456.438744	36.555	
C	-0.1569684586	 1.4508801401	 0.2407146206	-0.372096
C	 0.0072326744	-0.0307616071	-0.086818429	-0.315787
C	 0.8077533918	-0.2589578397	-1.368514584	 0.432641
O	 1.2575984675	 0.6300819904	-2.0428364794	-0.299333
N	 0.960789415	-1.6227105183	-1.6730511678	-0.391669
C	 1.6282584954	-2.1990999925	-2.7591055852	 0.392554
O	 2.1905680482	-1.578432654	-3.6242659236	-0.306285
C	 1.5742724178	-3.7393578686	-2.7440403834	-0.278258
N	 2.2555367741	-4.3824114984	-3.8492451224	-0.484545
H	 0.8161802021	 1.9304491781	 0.368683182	 0.138572
H	-0.6729868261	 1.9726055078	-0.5685503837	 0.138566
H	-0.7328386813	 1.5778140113	 1.1614020229	 0.111497
H	 0.5112187066	-0.5597568507	 0.7335284634	 0.123602
H	-0.9710002464	-0.5177099755	-0.1997365395	 0.12361
H	 0.5343087852	-2.2691965735	-1.0248036201	 0.251822
H	 2.0017505624	-4.0928630837	-1.7956979435	 0.128079
H	 0.5202232868	-4.049329288	-2.7341920823	 0.128299
H	 1.8698418243	-4.0274116858	-4.7204469043	 0.239455
H	 3.2243247009	-4.074044752	-3.8587847209	 0.239275
30.2514	39.8169	59.7298	84.0015	116.8587	185.7873	206.71	247.1131	294.7675	329.554	397.0556	536.9719	557.0626	635.0428	637.6242	707.4212	817.1564	837.6428	922.9647	934.7414	963.9552	1006.9833	1085.5952	1096.9404	1140.8358	1160.5563	1172.2547	1178.3339	1284.9813	1358.6147	1366.7919	1397.1323	1416.4278	1461.6001	1464.1839	1492.1383	1498.5855	1503.9535	1679.443	1809.0433	1863.6122	3012.9571	3016.2497	3047.5096	3049.4526	3055.6206	3127.907	3135.1957	3492.7425	3558.0934	3602.8477
CCC(=O)NC(=O)CN	CCC(=O)NC(=O)CN	
InChI=1S/C5H10N2O2/c1-2-4(8)7-5(9)3-6/h2-3,6H2,1H3,(H,7,8,9)	InChI=1S/C5H10N2O2/c1-2-4(8)7-5(9)3-6/h2-3,6H2,1H3,(H,7,8,9)
