18
gdb 99816	1.89434	1.4933	1.22041	4.8694	73.71	-0.2534	0.0122	0.2657	1146.6494	0.145324	-439.084051	-439.074066	-439.073122	-439.118849	36.57	
C	-0.0849379667	 1.6007756592	-0.0087098836	-0.412385
C	-0.0425412413	 0.0695451191	-0.0311545565	-0.198612
C	 0.7796428081	-0.5455764565	-1.1984911694	-0.109516
N	 2.1630050068	-0.0088750186	-1.1923510771	-0.560351
H	 2.7986121044	-0.7000477642	-1.5796331423	 0.253867
H	 1.5766743653	 0.9969588799	-2.6466946241	 0.310173
H	 2.469304158	 0.1716140607	-0.2414549035	 0.247853
C	 0.7610763912	-2.0054015777	-1.1012849082	 0.333263
C	 0.8014944738	-3.2022645486	-1.0017804658	-0.437666
C	 0.0876624426	-0.0989525278	-2.5295645636	 0.445871
O	 0.7636040758	 0.8508325728	-3.1820604846	-0.376518
O	-0.9690455291	-0.5353948466	-2.8898246596	-0.341492
H	 0.910713681	 2.0411253799	 0.1005906632	 0.118269
H	-0.5301753621	 2.0055621356	-0.9221809938	 0.147054
H	-0.6914676566	 1.940221109	 0.8356260662	 0.124307
H	 0.3764888993	-0.3170413121	 0.9054176186	 0.106248
H	-1.0545032494	-0.3338763319	-0.117024058	 0.146342
H	 0.8155361787	-4.2619218422	-0.928754048	 0.203293
65.7956	101.1653	138.2536	153.073	196.9332	248.401	289.0946	308.7426	346.119	418.0509	451.7826	496.752	539.4245	616.3692	641.1313	656.9898	740.435	746.274	792.263	866.7566	888.4447	933.7344	1023.7314	1033.702	1050.9016	1151.7405	1174.4088	1212.3446	1271.4529	1326.9687	1361.0508	1421.0284	1426.3731	1479.9518	1500.3694	1503.7516	1654.3469	1875.6054	2235.5498	3040.5286	3045.1118	3099.3863	3116.4784	3122.2853	3444.4372	3500.0072	3502.0838	3580.2455
CCC([NH3+])(C#C)C([O-])=O	CC[C@@](N)(C#C)C(=O)O	
InChI=1S/C6H9NO2/c1-3-6(7,4-2)5(8)9/h1H,4,7H2,2H3,(H,8,9)	InChI=1S/C6H9NO2/c1-3-6(7,4-2)5(8)9/h1H,4,7H2,2H3,(H,8,9)/t6-/m0/s1
