18
gdb 8839	4.61502	1.2248	0.98562	1.9672	72.5	-0.2475	-0.0119	0.2356	1186.9243	0.152888	-381.163232	-381.153888	-381.152944	-381.198032	32.297	
C	 0.0142845738	 1.5513212206	 0.0390608125	-0.376951
C	-0.0392230297	 0.0251222026	 0.0225512428	-0.311706
C	-1.4689118741	-0.4976506302	 0.0154782947	 0.433378
O	-2.4287142606	 0.2474484599	 0.0230443889	-0.353143
N	-1.6172530577	-1.8882939221	 0.000027594	-0.115818
C	-0.4819986308	-2.8076443464	-0.009190264	-0.352335
C	-2.9098932446	-2.4127967469	-0.0068619401	 0.098242
N	-3.1264003021	-3.665821865	-0.0209361318	-0.477763
H	 1.0526080901	 1.8942545821	 0.04391248	 0.108878
H	-0.4874630225	 1.9689251798	-0.8367717414	 0.135138
H	-0.4894369737	 1.9499511252	 0.9225635414	 0.135161
H	 0.4882250787	-0.3730136129	-0.8534914059	 0.127382
H	 0.486388226	-0.3917803551	 0.8909458541	 0.127409
H	 0.1390832719	-2.6818565187	 0.8823454626	 0.132736
H	-0.8885395514	-3.8178736796	-0.0199714362	 0.181133
H	 0.1397873502	-2.6632035545	-0.8974162608	 0.132744
H	-3.6566869087	-1.6197727506	 0.0012542745	 0.144047
H	-4.128459495	-3.8446278782	-0.0237788853	 0.231468
37.2322	87.6825	115.696	175.3398	195.9989	211.9737	294.2189	326.6913	356.1982	421.6741	545.2626	567.0881	689.0992	796.0455	819.4701	832.465	955.618	1016.5432	1079.6804	1086.3903	1097.7342	1119.5674	1153.4057	1182.9624	1287.6506	1306.4726	1359.7909	1388.7342	1407.3197	1415.908	1454.8176	1456.0686	1491.6433	1498.6621	1505.0413	1507.4429	1711.8298	1780.9157	3028.6583	3044.157	3054.8782	3059.2988	3103.7174	3126.7338	3135.15	3147.6878	3163.7629	3509.7423
CCC(=O)N(C)C=N	CCC(=O)N(C)C=N	
InChI=1S/C5H10N2O/c1-3-5(8)7(2)4-6/h4,6H,3H2,1-2H3	InChI=1S/C5H10N2O/c1-3-5(8)7(2)4-6/h4,6H,3H2,1-2H3
