15
gdb 20161	3.74978	2.88505	2.13682	3.681	63.7	-0.2356	-0.0179	0.2177	665.7935	0.121123	-362.592821	-362.587398	-362.586453	-362.621954	22.683	
C	-0.0511507494	 1.5326238332	-0.1437247739	-0.254782
C	 1.5228239943	 1.674636218	 0.0510855245	-0.066318
C	 2.0082793913	 2.1648015269	 1.4499044296	-0.171094
N	 1.3108686294	 1.2441346879	 2.4097046554	-0.254159
C	 1.0656465471	 0.2323583185	 1.6920232104	 0.320503
O	-0.1293759279	-0.4481901948	 1.5247921233	-0.276026
C	 0.0119858424	-0.0283188737	 0.0955130456	 0.077322
C	 1.5265342771	 0.1486163927	 0.246574141	-0.130512
H	-0.6984980013	 2.0950437204	 0.5306267548	 0.133514
H	-0.3389614646	 1.7408369848	-1.1768120993	 0.1171
H	 2.0464814181	 2.1128624081	-0.7998133077	 0.074834
H	 3.103902577	 2.1384267307	 1.533088685	 0.108196
H	 1.6815077442	 3.182465246	 1.6844629202	 0.12103
H	-0.5270603381	-0.7140104739	-0.5548402371	 0.103181
H	 2.2914153103	-0.5627749348	-0.0565853117	 0.097211
271.2914	318.9813	374.5698	518.4874	622.3749	657.9431	724.2642	752.8423	784.2567	836.8019	855.7281	877.6987	904.7532	943.3494	960.889	971.1307	1005.9114	1054.479	1099.6301	1120.7264	1133.6092	1170.45	1200.4705	1218.9419	1259.2578	1269.7511	1290.6063	1308.1989	1323.2888	1457.5317	1483.6936	1696.5115	3011.3567	3075.5455	3082.5853	3102.4028	3137.045	3140.5879	3149.1049
C1C2CN=C3OC1C23	C1[C@H]2C[N][C]3O[C@@H]1[C@@H]23	
InChI=1S/C6H7NO/c1-3-2-7-6-5(3)4(1)8-6/h3-5H,1-2H2	InChI=1S/C6H7NO/c1-3-2-7-6-5(3)4(1)8-6/h3-5H,1-2H2/t3-,4-,5+/m0/s1
