19
gdb 74661	3.50198	1.37308	1.29969	1.4998	80.29	-0.2273	0.0308	0.2581	1064.6937	0.160133	-385.866164	-385.858707	-385.857762	-385.897897	29.899	
C	 0.013457563	 1.4940499193	 0.0467552412	-0.486881
C	 0.0068729624	-0.0011556592	-0.0079378137	 0.337623
C	-0.0356547165	-0.7637008151	-1.1060050351	-0.171444
C	 0.0164179994	-2.2252660276	-0.7906242528	-0.10076
C	 1.398978731	-2.9441963935	-0.804361183	 0.01661
O	 2.3159969014	-2.1489623846	-0.0499620887	-0.234633
C	 1.422067765	-3.0074117839	 0.6658413364	 0.01268
C	 0.064185415	-2.2839248017	 0.7824143467	-0.062012
C	 0.0570130706	-0.8219230447	 1.2716438047	-0.31877
H	 0.9293194246	 1.8643842004	 0.5248357781	 0.129196
H	-0.051228433	 1.9370442435	-0.9507261105	 0.121545
H	-0.8245632095	 1.8739065724	 0.645591801	 0.120433
H	-0.06832887	-0.3733224824	-2.1180279213	 0.083579
H	-0.761792368	-2.8360261601	-1.2583169147	 0.073789
H	 1.819662119	-3.6065198948	-1.5529324852	 0.099017
H	 1.8690628404	-3.7311808568	 1.3387187643	 0.097923
H	-0.7077254807	-2.911033577	 1.2312964693	 0.074893
H	 0.9545614939	-0.5802912086	 1.8559261275	 0.111
H	-0.803008548	-0.6003436355	 1.9173388558	 0.096212
116.4452	166.2415	201.0828	293.5234	312.8422	415.4621	477.4322	553.5121	634.7674	676.2973	753.3869	828.706	842.7958	848.5625	861.6196	881.2376	892.8252	923.0931	979.3519	986.2407	1015.2955	1039.5177	1055.6776	1062.4024	1079.5108	1127.2313	1186.5772	1205.0847	1228.7865	1234.043	1255.5	1278.6881	1311.5955	1318.5507	1349.4077	1389.6912	1413.0665	1477.0167	1479.7399	1487.9285	1710.5919	3011.6428	3017.2979	3042.341	3061.4493	3061.7986	3100.3059	3110.2121	3168.3771	3180.9859	3184.5434
CC1=CC2C3OC3C2C1	CC1=C[C@H]2[C@H]3O[C@H]3[C@H]2C1	
InChI=1S/C8H10O/c1-4-2-5-6(3-4)8-7(5)9-8/h2,5-8H,3H2,1H3	InChI=1S/C8H10O/c1-4-2-5-6(3-4)8-7(5)9-8/h2,5-8H,3H2,1H3/t5-,6+,7-,8+/m1/s1
