18
gdb 9507	2.99277	1.74075	1.52261	3.6691	68.22	-0.2385	-0.0237	0.2148	935.4125	0.151064	-384.934282	-384.92549	-384.924546	-384.967879	31.383	
C	-0.2988640294	 1.4771999405	-0.0505317926	-0.418846
C	 0.0523403414	-0.0036867187	-0.0603154331	-0.084441
C	 1.340748783	-0.4005822096	-0.8153075104	-0.077338
O	 2.0128679904	-0.7652276337	 0.4064110916	-0.298087
C	 0.8156723694	-0.6001648244	 1.1812041799	 0.318019
C	 1.0348081259	 0.2527308373	 2.4220990947	-0.458476
C	 0.1956910636	-1.9394605592	 1.5583332886	 0.124523
O	 0.5824629106	-3.0107188297	 1.1772038923	-0.245459
H	 0.572398888	 2.0999686897	 0.1735456942	 0.128209
H	-0.674753866	 1.7781103406	-1.0343568818	 0.125251
H	-1.0778786151	 1.7041314566	 0.6845195737	 0.122415
H	-0.8257643108	-0.590723252	-0.3449954536	 0.08674
H	 1.2403680377	-1.2546376881	-1.4948535888	 0.114093
H	 1.8548839136	 0.4177672348	-1.3334685983	 0.102339
H	 1.4026179988	 1.2452238794	 2.1559244508	 0.130971
H	 0.1090934273	 0.3648748946	 2.9961631588	 0.122264
H	 1.7816819968	-0.2233496507	 3.0657969811	 0.141023
H	-0.7054116152	-1.8414556073	 2.2120677631	 0.066799
55.5198	80.6168	189.8771	216.2857	238.8415	263.6705	288.6425	356.1221	375.8438	414.662	605.6216	707.3648	794.806	865.3395	878.4599	911.12	924.6896	983.4111	1024.7847	1044.8536	1100.377	1138.4682	1156.2986	1193.4543	1213.8913	1221.1117	1271.5916	1346.9439	1374.5783	1401.2084	1411.4753	1416.8214	1478.6071	1488.105	1497.2331	1504.864	1521.9458	1842.0424	2833.3003	3020.8286	3033.7989	3041.7732	3055.9998	3071.3715	3099.1297	3108.2998	3110.4791	3134.7673
CC1COC1(C)C=O	C[C@H]1CO[C@]1(C)C=O	
InChI=1S/C6H10O2/c1-5-3-8-6(5,2)4-7/h4-5H,3H2,1-2H3	InChI=1S/C6H10O2/c1-5-3-8-6(5,2)4-7/h4-5H,3H2,1-2H3/t5-,6+/m0/s1
