19
gdb 68090	3.20289	1.51509	1.39964	1.4082	78.79	-0.2229	-0.0067	0.2163	1011.7335	0.158817	-385.878861	-385.87095	-385.870006	-385.910383	32.874	
C	-0.0182500381	 1.5152348953	 0.0073002143	-0.499464
C	 0.0047552822	-0.0033509591	 0.0082288032	 0.230705
C	 0.7084398537	-0.7379838258	-1.1826982895	-0.243274
C	 0.3905953853	-2.1372760946	-0.5983827806	 0.336888
O	 0.8564327486	-3.2118003306	-1.3711162585	-0.505907
C	 1.0138525865	-1.943714732	 0.8048480427	-0.158636
C	 0.7822445698	-0.6830742056	 1.1616450566	-0.101933
C	-1.1412922341	-1.9772929407	-0.4475626835	-0.158675
C	-1.3661034872	-0.7163900907	-0.0873586796	-0.101923
H	 0.9965789944	 1.9262828241	 0.0105779627	 0.117634
H	-0.5350568043	 1.9025744223	-0.8768504739	 0.117619
H	-0.5366716056	 1.9026244766	 0.8917438823	 0.115309
H	 0.2234904584	-0.5608232765	-2.1465199336	 0.095897
H	 1.7815408564	-0.5365165594	-1.2408425838	 0.095902
H	 0.612152779	-4.0319791494	-0.9306261363	 0.277272
H	 1.5003915468	-2.7335585637	 1.3631889192	 0.094797
H	 1.0318662842	-0.1884168005	 2.0921189135	 0.096496
H	-1.8486777316	-2.7857458197	-0.5829732055	 0.094794
H	-2.3094893245	-0.2402390099	 0.1494526403	 0.096499
184.1973	195.8282	238.0145	269.6608	336.9337	365.4748	436.3628	480.673	519.4951	546.3064	574.0647	665.989	671.467	707.9991	755.2704	802.6874	810.9133	875.6687	891.2666	912.5411	927.7934	958.4124	1003.0472	1039.5776	1061.2437	1079.1888	1132.9623	1139.4547	1185.541	1192.7414	1250.8283	1275.0228	1288.3713	1344.2252	1369.336	1414.0798	1492.4566	1493.8397	1496.0302	1615.4136	1666.2429	3028.1911	3054.5261	3092.4837	3100.7705	3118.6152	3194.1591	3195.2678	3221.1636	3223.7542	3816.9293
CC12CC(O)(C=C1)C=C2	C[C@@]12C[C@@](O)(C=C1)C=C2	
InChI=1S/C8H10O/c1-7-2-4-8(9,6-7)5-3-7/h2-5,9H,6H2,1H3	InChI=1S/C8H10O/c1-7-2-4-8(9,6-7)5-3-7/h2-5,9H,6H2,1H3/t7-,8-
