17
gdb 19437	3.95855	1.94563	1.61774	1.3353	67.52	-0.2387	0.0725	0.3112	832.5763	0.144184	-363.827551	-363.820998	-363.820053	-363.858064	26.258	
C	 0.0203768735	 1.4586220824	 0.0013582514	-0.256722
O	 1.1990430579	 0.6440303937	-0.0569713235	-0.28437
C	-0.081541053	-0.0005534325	 0.0123203556	 0.487843
C	-0.4014510313	-0.8399847043	 1.2477806724	-0.306203
C	-0.27451692	-2.3111363106	 0.7714360697	-0.215499
C	-0.5599241304	-2.2477367492	-0.7211771415	-0.024175
N	-1.7748698966	-1.4684914466	-1.0414996515	-0.347989
C	-0.4378889406	-0.8405708976	-1.1800769294	-0.133596
H	-0.115779445	 2.0154755892	 0.9280969965	 0.111538
H	-0.2096854431	 2.0148915949	-0.9068724303	 0.109553
H	 0.273131454	-0.5941818759	 2.0703955994	 0.1109
H	-1.4261713273	-0.6361967132	 1.5678743516	 0.124506
H	 0.7452766474	-2.6824591854	 0.9222761616	 0.108182
H	-0.9569483747	-2.9805383001	 1.3032670982	 0.104622
H	-0.2862656477	-3.0787120366	-1.3631163851	 0.087576
H	-2.1051599789	-1.7326447136	-1.9665307142	 0.232973
H	-0.0610387241	-0.5623225849	-2.1580638409	 0.09086
120.9454	232.4092	309.0199	364.0366	370.9692	466.2618	554.5905	663.5379	751.5846	812.7262	826.2171	852.6409	867.7834	906.3792	910.6717	947.3302	971.5149	998.6465	1045.6067	1076.7186	1115.8419	1124.8242	1145.4574	1165.1827	1195.9909	1219.3949	1234.3401	1267.1002	1313.594	1341.982	1345.0627	1403.8126	1454.1672	1472.2083	1490.0795	1536.6001	3045.631	3072.122	3076.2686	3090.994	3124.7006	3159.9236	3163.4328	3179.0021	3502.0133
C1OC11CCC2NC12	C1O[C@]21CC[C@H]1N[C@@H]21	
InChI=1S/C6H9NO/c1-2-6(3-8-6)5-4(1)7-5/h4-5,7H,1-3H2	InChI=1S/C6H9NO/c1-2-6(3-8-6)5-4(1)7-5/h4-5,7H,1-3H2/t4-,5-,6+/m1/s1
