25
gdb 104777	2.18443	1.42781	1.05843	0.2308	91.83	-0.2484	0.0809	0.3293	1295.6825	0.228784	-352.335892	-352.326119	-352.325175	-352.370108	38.183	
C	 0.8273189453	-0.1994233303	-1.3038093762	-0.389594
C	-0.022461775	-0.0392083094	-0.0379085212	-0.240059
C	 0.6022487954	-0.6439153363	 1.2273442028	 0.360573
C	 1.9395959429	 0.0122098618	 1.6152000186	-0.228622
C	 1.879647457	 1.5210772266	 1.877400627	-0.398501
C	-0.3511503988	-0.7639673793	 2.477758339	-0.302791
C	-0.1166015235	-2.2782255539	 2.5016583411	-0.033186
C	-0.5671784163	-2.8972351152	 1.2104277917	-0.303258
C	 0.7563661252	-2.1839917547	 1.2503690278	-0.074654
H	 1.0710845967	-1.2526507367	-1.4809112202	 0.11954
H	 0.2907315213	 0.1690648836	-2.183699621	 0.109462
H	 1.7700964367	 0.3532612447	-1.2406631531	 0.115946
H	-0.2364996281	 1.0232219712	 0.134177884	 0.093289
H	-0.9982060315	-0.508451537	-0.2079751804	 0.090001
H	 2.3146090832	-0.4956465369	 2.5130650757	 0.092579
H	 2.6806342661	-0.1902122677	 0.8312095112	 0.092695
H	 2.8442649465	 1.8875155607	 2.2424012194	 0.111082
H	 1.6371518986	 2.085574201	 0.9718348123	 0.118637
H	 1.1259267097	 1.7687857318	 2.6328110454	 0.116084
H	 0.0433660056	-0.244508113	 3.3542791443	 0.097433
H	-1.3903462433	-0.449595087	 2.3292414924	 0.087116
H	 0.0404626813	-2.8729526945	 3.393333644	 0.080112
H	-0.4991683942	-3.9798018009	 1.1639246182	 0.107661
H	-1.4165746025	-2.4879897699	 0.6690091908	 0.103704
H	 1.6828072517	-2.7046584884	 1.0324703964	 0.074753
74.9252	123.5363	170.9473	179.9053	203.3577	221.4196	301.5305	333.0371	373.0588	408.9141	432.775	515.7413	633.316	738.3196	768.8184	786.3264	800.3954	839.465	872.7936	923.7542	936.4508	959.8188	972.0589	997.2234	1023.4118	1035.1467	1044.7658	1053.1403	1070.4572	1084.2923	1091.1401	1144.8338	1171.5194	1179.4213	1212.3695	1247.942	1258.2698	1285.1955	1318.6569	1320.6201	1363.2963	1367.0143	1383.6339	1405.5012	1410.3387	1479.1829	1482.8162	1491.5228	1498.4406	1501.6375	1502.9824	1504.7787	1517.0399	3017.3565	3027.8805	3033.0295	3034.8184	3038.2181	3046.5504	3055.5684	3096.6679	3099.7867	3100.0366	3102.0854	3107.4626	3110.6375	3161.0109	3179.2711	3196.9414
CCC1(CC)CC2CC12	CCC1(CC)C[C@H]2C[C@@H]12	
InChI=1S/C9H16/c1-3-9(4-2)6-7-5-8(7)9/h7-8H,3-6H2,1-2H3	InChI=1S/C9H16/c1-3-9(4-2)6-7-5-8(7)9/h7-8H,3-6H2,1-2H3/t7-,8-/m1/s1
