17
gdb 47081	3.11978	1.55541	1.08813	4.8968	77.6	-0.1976	-0.0087	0.1889	1068.6474	0.139611	-418.047865	-418.040408	-418.039464	-418.079813	28.729	
O	 0.0136620887	-0.066273092	 0.1264162141	-0.391109
C	 0.0226386894	 1.1345158562	-0.0544119549	 0.331813
N	-1.1165192316	 1.9415898246	-0.145489139	-0.333256
C	-0.8374159361	 3.3741548184	-0.0190314674	-0.190355
C	 0.6017691115	 3.4493193347	-0.5718050547	-0.066608
C	 1.656063524	 4.4075206376	 0.0251500517	-0.192996
N	 2.7701729466	 3.5111563223	 0.4243748729	-0.29307
C	 2.3798045251	 2.1911864044	 0.2933514639	-0.1275
C	 1.1353068909	 2.0805785423	-0.1984508601	 0.115164
H	-1.9931675014	 1.5483790548	 0.1622634998	 0.243732
H	-1.5567271816	 3.9666805338	-0.5925177143	 0.108249
H	-0.8698171276	 3.7122046972	 1.0295448612	 0.098945
H	 0.5434522201	 3.5556607951	-1.6636059416	 0.08876
H	 1.996127409	 5.157839313	-0.6927662935	 0.114386
H	 1.2808450409	 4.9383139331	 0.9117564653	 0.111152
H	 3.7238285689	 3.7904367768	 0.2552606959	 0.245002
H	 3.0298338733	 1.4053041477	 0.6575914308	 0.137692
105.5489	170.2654	199.3347	287.17	314.3261	373.6776	486.5939	522.7279	585.3964	640.273	678.3536	740.7696	763.1938	857.0548	904.6433	931.8971	958.0452	983.0869	1038.0461	1076.9872	1103.6367	1114.6519	1140.3726	1206.0235	1222.1603	1248.8567	1289.4709	1291.6702	1316.6488	1358.8353	1372.8468	1426.3824	1447.1693	1511.8113	1523.4065	1693.4199	1809.9977	2968.0837	2994.848	3001.3177	3070.0668	3089.4382	3216.8592	3621.0856	3625.8727
O=C1NCC2CNC=C12	O=C1NC[C@H]2CN[CH][C]12	
InChI=1S/C6H8N2O/c9-6-5-3-7-1-4(5)2-8-6/h3-4,7H,1-2H2,(H,8,9)	InChI=1S/C6H8N2O/c9-6-5-3-7-1-4(5)2-8-6/h3-4,7H,1-2H2,(H,8,9)/t4-/m1/s1
