27
gdb 113379	2.4661	0.94181	0.78772	0.1621	96.97	-0.2535	0.0823	0.3359	1659.9647	0.250695	-353.558068	-353.546712	-353.545768	-353.594543	42.36	
C	 0.8953840957	 1.9737185565	 0.1962016544	-0.375033
C	 0.4241791096	 0.5180809435	 0.0824770414	-0.204699
C	 1.0222287489	-0.1843240625	-1.1198123255	-0.028296
C	 2.3537886578	-0.8894665671	-1.0168712284	-0.33305
C	 1.0977357843	-1.6936023515	-1.289455274	 0.357107
C	 0.5414835649	-2.620535407	-0.2034028518	-0.27114
C	 1.5335460299	-3.6426380006	 0.3716791101	-0.372568
C	 0.9049220991	-2.1787090281	-2.7254871591	-0.244899
C	 1.5838227335	-3.5078742074	-3.0796604182	-0.382908
H	 1.9852090547	 2.0264971135	 0.288964068	 0.117866
H	 0.6112563635	 2.5510756108	-0.6905115277	 0.1128
H	 0.4568866879	 2.4667649702	 1.0695543208	 0.107745
H	 0.6909513123	-0.0145450224	 1.0023707201	 0.095542
H	-0.6724940522	 0.4942843804	 0.0216272599	 0.093161
H	 0.8526459805	 0.3576742948	-2.0491331904	 0.071666
H	 3.0812189656	-0.7765598397	-1.8150667354	 0.101789
H	 2.7980642987	-0.9564093171	-0.0279076907	 0.102917
H	 0.1426061884	-2.0295574103	 0.627095272	 0.09821
H	-0.3227014475	-3.1537036259	-0.6209712161	 0.093252
H	 1.947886576	-4.2950175805	-0.4010735829	 0.118907
H	 2.3748918952	-3.1446722536	 0.8641028655	 0.113077
H	 1.0426832598	-4.2769915948	 1.1174071383	 0.106422
H	-0.1723283273	-2.2616832521	-2.9276224036	 0.091073
H	 1.2793663665	-1.4035535237	-3.4057213244	 0.088693
H	 2.6565712365	-3.4767520928	-2.8611198834	 0.115747
H	 1.1531164604	-4.3472917091	-2.5256893869	 0.118903
H	 1.4655683573	-3.7273259934	-4.1458821521	 0.10772
62.0188	83.9332	96.8035	150.7976	176.7407	206.6221	233.4667	255.1987	272.1713	309.8993	322.3714	381.6885	400.0261	450.0375	606.869	670.1632	771.8085	774.5473	791.6503	818.1537	879.7808	913.1552	935.8256	951.0927	992.9907	1007.0338	1050.9283	1054.7553	1066.0248	1069.952	1090.7867	1117.8268	1122.8976	1157.1737	1197.8647	1245.6128	1275.0626	1298.7665	1322.6988	1342.3206	1350.5866	1367.7635	1392.2541	1406.9536	1407.9616	1411.7907	1432.1564	1479.9529	1483.2381	1487.0106	1493.3841	1498.4439	1499.7005	1502.6963	1507.9321	1510.2654	1513.5215	3005.5539	3013.2676	3022.9624	3030.655	3034.1106	3038.4267	3043.9501	3054.5378	3071.7797	3098.1513	3098.2169	3099.385	3103.6469	3107.9967	3112.7424	3116.2081	3121.2597	3196.5251
CCC1CC1(CC)CC	CC[C@H]1CC1(CC)CC	
InChI=1S/C9H18/c1-4-8-7-9(8,5-2)6-3/h8H,4-7H2,1-3H3	InChI=1S/C9H18/c1-4-8-7-9(8,5-2)6-3/h8H,4-7H2,1-3H3/t8-/m0/s1
