20
gdb 119438	4.44996	0.83305	0.77032	4.0564	80.67	-0.2427	0.012	0.2547	1534.1725	0.170599	-403.15323	-403.144219	-403.143275	-403.187509	33.776	
C	 0.0350646168	 1.596192341	 0.0393725628	-0.382818
C	 0.0722143384	 0.066309873	 0.0188942928	-0.164901
C	 0.6553574705	-0.4971624131	-1.2863254805	-0.281316
C	 0.6916025646	-1.9966851657	-1.3163566084	 0.399696
C	 1.7918918216	-2.8731077515	-0.8011506398	-0.319143
C	 1.3833575062	-2.9517209918	-2.2791891821	-0.307594
C	 0.0676143784	-3.7081570474	-2.3312280326	 0.436763
O	-0.3472531745	-4.7016385677	-2.8557460656	-0.344854
N	-0.5535974494	-2.7748307945	-1.4724991116	-0.398446
H	 1.0408255595	 2.0182182178	-0.0653050403	 0.115522
H	-0.5745363454	 1.9880905036	-0.7821765416	 0.119306
H	-0.3875151399	 1.9713460682	 0.9762955528	 0.115349
H	 0.6626359964	-0.303386583	 0.8667499596	 0.099256
H	-0.9434319298	-0.3266223431	 0.1555277196	 0.10154
H	 0.0619343331	-0.1401102779	-2.1372377683	 0.1109
H	 1.6754115335	-0.1176229613	-1.4255782285	 0.101011
H	 2.7531924672	-2.3960094861	-0.6285672218	 0.122734
H	 1.5758055803	-3.7054083266	-0.1373507881	 0.121027
H	 2.0719425667	-2.7496170216	-3.0873905165	 0.117783
H	-1.1359623143	-3.0627070922	-0.6929371318	 0.238183
67.3401	83.594	110.1394	194.1162	250.5418	308.6399	333.9122	365.4171	440.332	484.4913	584.8019	692.5027	737.2164	745.0675	767.7416	851.8992	873.6343	903.5948	913.7939	939.3191	971.9182	994.1483	1038.5283	1047.9929	1077.0323	1097.9065	1120.8573	1144.7666	1215.6476	1237.8071	1289.9866	1307.1998	1318.0922	1340.0221	1375.3891	1410.7515	1414.699	1473.5147	1491.6966	1493.0648	1500.824	1509.0186	1899.3064	3017.1577	3025.8389	3031.9272	3046.0557	3070.6827	3098.8267	3105.8754	3112.2851	3199.3651	3223.4319	3534.7228
CCCC12CC1C(=O)N2	CCC[C@]12C[C@H]1C(=O)N2	
InChI=1S/C7H11NO/c1-2-3-7-4-5(7)6(9)8-7/h5H,2-4H2,1H3,(H,8,9)	InChI=1S/C7H11NO/c1-2-3-7-4-5(7)6(9)8-7/h5H,2-4H2,1H3,(H,8,9)/t5-,7-/m0/s1
