13
gdb 24513	4.0304	1.7924	1.24066	1.0703	73.03	-0.2476	-0.0599	0.1877	906.3743	0.093726	-415.678905	-415.673297	-415.672352	-415.708808	22.614	
O	-0.0724417942	 1.3090543529	 0.0099571099	-0.192168
C	 1.2153079424	 1.7828524158	 9.8065*^-6	 0.015782
C	 2.146330462	 0.7984454069	-0.0144462508	-0.296654
C	 1.3956549153	-0.4276330603	-0.013731234	 0.271573
C	 0.03604428	-0.0450570419	 0.0015555545	 0.412978
N	-0.9924243523	-0.8569507909	 0.0071746064	-0.32408
C	-0.6262752419	-2.1480469876	-0.0033669643	-0.039862
C	 0.7129822458	-2.5612587489	-0.0186349378	-0.038232
N	 1.7481505287	-1.7149485012	-0.0241250195	-0.334875
H	 1.2977331894	 2.8579846707	 0.0050467862	 0.154213
H	 3.2172664606	 0.9209294659	-0.0242389498	 0.133773
H	-1.4261957721	-2.8820946905	 0.0004499227	 0.121536
H	 0.9482620761	-3.6217797309	-0.0266604299	 0.116015
242.9937	249.4837	455.7842	469.7519	564.5135	601.3226	616.9506	650.5665	777.6399	778.8615	848.476	871.5435	880.6572	882.9062	923.1314	975.5361	1050.5073	1076.7838	1163.8189	1178.0643	1265.0209	1272.3606	1358.4242	1382.8315	1401.0385	1505.0965	1568.0525	1594.9826	1633.0953	3166.4342	3185.7948	3263.8867	3284.4425
O1C=CC2=C1N=CC=N2	o1ccc2c1nccn2	
InChI=1S/C6H4N2O/c1-4-9-6-5(1)7-2-3-8-6/h1-4H	InChI=1S/C6H4N2O/c1-4-9-6-5(1)7-2-3-8-6/h1-4H
