19
gdb 68442	2.51678	1.65622	1.28363	3.0037	74.79	-0.2442	-0.0198	0.2244	1033.6951	0.159889	-423.027735	-423.019772	-423.018828	-423.060286	31.303	
O	 0.0835641164	 1.4088324406	 0.106368909	-0.492915
C	 0.1007379516	 0.0180294035	 0.0606871667	 0.401041
C	 0.9642137711	-0.8217677834	-0.9291187106	-0.28738
C	 0.5904140554	-1.962539931	 0.0600607134	-0.021215
C	 0.6681589689	-0.8965483357	 1.1899890543	-0.295725
C	-0.9331419453	-2.0926964205	-0.1548736609	-0.238455
C	-1.3161016448	-0.5850535026	-0.1727452072	-0.100198
C	-2.2913643171	-0.1404004873	 0.8935601109	 0.135058
O	-2.6375428904	-0.8115209396	 1.8350587429	-0.249622
H	 0.9767971861	 1.7205040385	 0.2837472443	 0.283406
H	 0.635894542	-0.8980780347	-1.9699134209	 0.093498
H	 2.0231029644	-0.5509695967	-0.88090742	 0.090335
H	 1.1715344141	-2.8813909718	 0.1101591347	 0.068911
H	 1.6980185734	-0.633372309	 1.4471545628	 0.088857
H	 0.0706330802	-1.0461144074	 2.0917815986	 0.119446
H	-1.1834978965	-2.5938816383	-1.0935739729	 0.098103
H	-1.432398287	-2.611260309	 0.6665489599	 0.127094
H	-1.695344559	-0.2347065038	-1.1396223737	 0.087332
H	-2.6703869937	 0.8964512482	 0.7660287289	 0.092428
65.4992	147.8594	223.5771	271.033	314.7166	375.2658	401.2478	451.8061	532.896	565.4252	667.7878	699.9584	793.0121	827.063	847.0234	899.823	916.259	946.5657	967.4092	992.2103	999.9489	1035.4234	1080.9393	1089.6258	1108.0107	1129.9092	1139.2635	1190.624	1200.2051	1232.9053	1259.363	1281.7802	1303.1038	1324.0622	1360.5277	1376.8443	1423.3993	1483.3378	1492.3395	1525.079	1816.9721	2901.2357	3043.2751	3046.3907	3061.054	3066.4066	3107.3791	3119.1729	3126.0915	3133.2438	3819.0085
OC12CC(C1)CC2C=O	O[C@@]12C[C@@H](C1)C[C@H]2C=O	
InChI=1S/C7H10O2/c8-4-6-1-5-2-7(6,9)3-5/h4-6,9H,1-3H2	InChI=1S/C7H10O2/c8-4-6-1-5-2-7(6,9)3-5/h4-6,9H,1-3H2/t5-,6-,7-/m0/s1
