15
gdb 65796	2.32156	1.62438	1.37585	6.46	72.61	-0.2407	-0.0518	0.189	994.2239	0.112413	-416.852789	-416.844426	-416.843481	-416.885647	30.743	
C	-0.0113994264	 1.5187935352	-0.00239482	-0.419613
C	-0.0363426075	-0.0178832344	-0.0275385593	-0.023149
N	 0.7409972831	-0.5931403327	-1.1234447497	-0.293852
C	 1.8520521301	-1.2057177447	-0.6238652448	 0.016599
C	 1.8918536132	-1.2620856737	 0.7330268814	-0.275817
C	 0.7351002933	-0.5629234377	 1.2549574224	 0.386212
O	 0.362119412	-0.3447656209	 2.3820502386	-0.343166
C	-1.4125302036	-0.5214809827	-0.0536136774	 0.302499
N	-2.5026879088	-0.9031320816	-0.0832820553	-0.333831
H	 1.0249073402	 1.8667265786	-0.0197584651	 0.136954
H	-0.5506518595	 1.9400000428	-0.8552076358	 0.133684
H	-0.4819720701	 1.8618478404	 0.9219931299	 0.170129
H	 0.7114292419	-0.1973584325	-2.0486025425	 0.266387
H	 2.582574001	-1.6019298581	-1.3186481458	 0.149525
H	 2.6462320311	-1.7403505181	 1.3364347733	 0.127441
86.6091	137.7243	195.1468	234.296	250.8802	266.1224	360.7106	413.7936	484.3493	524.7117	584.6119	627.5283	683.8225	735.9765	782.3531	809.6925	916.4596	958.3291	972.0016	1092.2546	1098.9803	1115.0766	1157.3587	1199.7126	1215.2708	1368.1809	1400.8511	1460.5441	1485.8844	1490.7246	1606.8911	1816.8637	2358.6098	3046.6483	3127.2381	3139.0707	3217.9945	3271.741	3648.5947
CC1(NC=CC1=O)C#N	C[C@]1(NC=CC1=O)C#N	
InChI=1S/C6H6N2O/c1-6(4-7)5(9)2-3-8-6/h2-3,8H,1H3	InChI=1S/C6H6N2O/c1-6(4-7)5(9)2-3-8-6/h2-3,8H,1H3/t6-/m0/s1
