19
gdb 26157	2.53802	1.4141	0.9537	1.0674	78.38	-0.2115	0.0168	0.2283	1237.6013	0.15842	-423.062407	-423.053191	-423.052247	-423.096619	34.327	
C	 0.2152549337	 1.1467002099	 1.2812785509	-0.397217
C	-0.1729130276	 0.509697576	-0.0546620846	 0.01443
O	 0.8385085544	-0.4078393618	-0.4901673893	-0.42068
C	-1.538225669	-0.1375547008	-0.0304639973	 0.12812
C	-2.0692786261	-0.952908609	-0.9941931344	 0.273243
C	-1.5723596192	-1.4511325281	-2.3047874115	-0.503599
O	-3.3240747919	-1.3457866378	-0.6307987665	-0.175504
C	-3.6004432232	-0.7735324135	 0.5712027855	-0.025872
C	-2.5495800149	-0.0266093618	 0.9889890923	-0.28585
H	 1.22524843	 1.5568811769	 1.2075210064	 0.122713
H	-0.4700221647	 1.9564967443	 1.5511278082	 0.118448
H	 0.2006452323	 0.4053094437	 2.088258464	 0.111678
H	-0.1544661508	 1.292366779	-0.8238588063	 0.098815
H	 0.7566620212	-1.1965431146	 0.0583030738	 0.274979
H	-0.509289354	-1.226651115	-2.3964383465	 0.158399
H	-1.7130008318	-2.5340625491	-2.39248384	 0.133064
H	-2.1075401888	-0.98577558	-3.1415729241	 0.133331
H	-4.5675462288	-1.0004284083	 0.9882460113	 0.131818
H	-2.4917777007	 0.5357772501	 1.9073552979	 0.109685
41.8288	144.9766	173.1581	193.1741	244.0056	266.8814	300.4136	322.9591	386.2676	446.7753	496.7969	613.2376	625.9191	692.6627	723.4309	744.5684	827.3662	892.5741	913.3007	968.2062	1019.0215	1052.5128	1065.9565	1087.5129	1103.346	1154.8199	1182.6572	1246.7782	1268.3428	1286.603	1355.8913	1401.7699	1405.9769	1420.1334	1435.2221	1485.3264	1490.9995	1493.2056	1494.8551	1547.2079	1640.6034	3023.506	3028.0854	3033.8415	3078.6594	3102.9992	3125.1831	3153.6898	3256.2938	3284.5998	3794.0922
CC(O)C1=C(C)OC=C1	C[C@@H](O)c1c(C)occ1	
InChI=1S/C7H10O2/c1-5(8)7-3-4-9-6(7)2/h3-5,8H,1-2H3	InChI=1S/C7H10O2/c1-5(8)7-3-4-9-6(7)2/h3-5,8H,1-2H3/t5-/m1/s1
