15
gdb 15222	2.39231	1.94776	1.306	4.8315	64.52	-0.2568	-0.0429	0.2138	951.2484	0.116607	-399.798757	-399.790532	-399.789588	-399.831827	28.535	
C	 0.5291378087	 1.4927598592	 0.3749098096	-0.42026
C	 0.0670041973	 0.1099408967	-0.0276549038	-0.016635
C	 0.646728448	-0.6602425921	-1.2162775791	-0.127728
C	 1.7496523519	-0.0766936585	-2.0422209906	 0.169725
O	 1.7578938898	-0.1548834442	-3.2440332734	-0.252464
N	 0.8866613682	-1.0574685278	 0.1546220016	-0.069171
C	 2.1074643211	-1.2002573898	 0.7867901649	 0.144446
O	 3.1024582171	-1.652895633	 0.2761741414	-0.290424
H	 1.5996547606	 1.6396863826	 0.215258655	 0.137566
H	-0.0119359539	 2.250735351	-0.1995226141	 0.145841
H	 0.3179120815	 1.6669531838	 1.4346511292	 0.140261
H	-0.9927902065	-0.0721796252	 0.148465946	 0.119782
H	-0.0251108611	-1.2972687669	-1.786626859	 0.126476
H	 2.5564168874	 0.4382274575	-1.4845843745	 0.098062
H	 2.0407382398	-0.9242777234	 1.8560926568	 0.094521
75.2128	116.5095	147.9461	210.9319	238.401	255.1323	341.7663	424.8138	478.7001	499.3882	633.3957	740.5832	902.3267	946.8711	990.1653	1020.5662	1030.5865	1075.3857	1114.1427	1130.1988	1161.1818	1188.5197	1313.7717	1384.2602	1414.432	1417.6385	1419.2497	1457.6911	1486.076	1506.2789	1793.6788	1821.9253	2938.2943	2958.8949	3046.4268	3108.193	3111.3835	3134.242	3149.4084
CC1C(C=O)N1C=O	C[C@H]1[C@@H](C=O)N1C=O	
InChI=1S/C5H7NO2/c1-4-5(2-7)6(4)3-8/h2-5H,1H3	InChI=1S/C5H7NO2/c1-4-5(2-7)6(4)3-8/h2-5H,1H3/t4-,5+,6?/m0/s1
