21
gdb 41178	2.88567	1.72759	1.56318	0.2507	88.48	-0.215	0.021	0.2359	978.4547	0.185591	-349.875363	-349.868534	-349.86759	-349.905916	30.039	
C	 0.0000755302	 1.6080636538	-0.2470712673	-0.292402
C	 1.5583208135	 1.4469546839	 0.0630173769	-0.319
C	 1.1287287623	 0.2607026837	 0.9921433186	 0.262529
C	 1.1140148159	-1.3083082289	 1.1581284172	-0.318256
C	-0.4764748301	-1.1509016262	 0.9788208887	-0.105337
C	-1.1459500614	-0.7792387629	 2.3031691574	-0.245387
C	-0.3699572764	 0.3275858782	 2.9685733052	-0.070715
C	 0.6958413548	 0.8192377459	 2.339981039	-0.082985
C	-0.0607388715	 0.0763282046	 0.0806222615	 0.064969
H	-0.4827176597	 2.2472891126	 0.4933983262	 0.116723
H	-0.2864000991	 1.9232971332	-1.2534228636	 0.09161
H	 2.1014650065	 1.1297651097	-0.8310027557	 0.103086
H	 2.0748247896	 2.2947414407	 0.5248540758	 0.09079
H	 1.550043144	-1.8475550464	 0.3139281183	 0.099832
H	 1.4727593772	-1.7232633733	 2.1042559596	 0.094065
H	-0.9983107342	-1.9733912981	 0.482569355	 0.063279
H	-2.1885632796	-0.4781966881	 2.129570085	 0.106661
H	-1.1966859786	-1.6584627805	 2.9617127313	 0.103691
H	-0.6835084417	 0.6840351968	 3.945699702	 0.083316
H	 1.3022824545	 1.6109171825	 2.7741137173	 0.079063
H	 0.3142124539	-0.3948022711	-0.8379073485	 0.074469
205.9313	251.1425	328.7279	388.851	426.5964	459.9778	521.8498	555.0395	641.4789	685.0729	729.8494	768.3198	779.1568	826.1326	866.179	878.3051	904.3608	928.5068	935.1388	981.6553	998.2749	1008.0894	1047.4587	1056.8077	1085.6766	1100.4424	1125.8792	1146.6201	1171.4521	1185.7963	1203.0049	1217.8372	1227.1784	1235.3713	1251.1165	1267.0253	1310.2247	1360.2549	1402.7711	1445.6214	1471.51	1476.8815	1485.4195	1488.9443	1702.2284	2994.6652	3000.3042	3024.3755	3043.2084	3050.981	3067.5015	3070.7025	3107.509	3119.5598	3137.7436	3142.3337	3172.0209
C1CC23CC(CC=C2)C13	C1C[C@@]23C[C@@H](CC=C2)[C@@H]13	
InChI=1S/C9H12/c1-2-7-6-9(4-1)5-3-8(7)9/h1,4,7-8H,2-3,5-6H2	InChI=1S/C9H12/c1-2-7-6-9(4-1)5-3-8(7)9/h1,4,7-8H,2-3,5-6H2/t7-,8-,9-/m1/s1
