14
gdb 24272	4.12755	1.66763	1.30064	2.7193	66.4	-0.2086	-0.0041	0.2045	911.6991	0.103788	-436.674329	-436.66835	-436.667406	-436.704651	24.102	
C	-0.0177254975	 1.4620496297	 0.1191294707	-0.317066
C	 1.2859481935	 0.7259843258	 0.0427255413	 0.089079
O	 2.0103683638	 0.4161938863	 1.2385491691	-0.260983
C	 1.1797438717	-0.4261954182	 1.9090574859	 0.33878
C	 0.0598870101	-0.7698436315	 1.2461333241	 0.229144
O	-0.6648558231	-1.5859222985	 2.0672315661	-0.189405
C	 0.1204072851	-1.6744887672	 3.1814407203	 0.042564
N	 1.2318307161	-0.9908672785	 3.1518410229	-0.346975
C	-0.0503957561	-0.0581177224	-0.0314743411	-0.232341
H	-0.3349801455	 1.8861449115	 1.0648608211	 0.134604
H	-0.2693578907	 2.0506010365	-0.7569476753	 0.125989
H	 1.9495514872	 0.8566156216	-0.8016164455	 0.119429
H	-0.2415237404	-2.3143242216	 3.9697272932	 0.153702
H	-0.4116107942	-0.5197053235	-0.9430107028	 0.11348
141.7618	279.0932	376.8455	453.8237	466.1337	614.9171	643.7924	700.8696	741.9856	763.1643	783.8687	790.4022	818.9293	929.2555	945.2003	962.1566	1034.2067	1058.7416	1075.5471	1097.2186	1129.2447	1154.2777	1180.3805	1241.4701	1304.6261	1345.1645	1405.043	1446.5374	1466.1489	1506.3378	1667.7529	3135.1718	3175.5225	3207.1383	3228.8908	3286.1878
C1C2OC3=C(OC=N3)C12	C1[C@H]2Oc3c(ocn3)[C@@H]12	
InChI=1S/C6H5NO2/c1-3-4(1)9-6-5(3)8-2-7-6/h2-4H,1H2	InChI=1S/C6H5NO2/c1-3-4(1)9-6-5(3)8-2-7-6/h2-4H,1H2/t3-,4+/m0/s1
