14
gdb 131230	2.97965	1.32458	1.05472	4.5457	67.9	-0.2338	0.0078	0.2415	1103.137	0.102074	-432.887515	-432.879476	-432.878532	-432.921276	28.613	
O	 0.1263644327	 1.3440425226	 0.1998766506	-0.429999
C	 0.0815222768	 0.0140343701	-0.0193825419	 0.459793
C	 0.0834002857	-0.7811003666	-1.1450700888	-0.3763
C	 0.0146017103	-2.094580803	-0.6238916676	 0.027051
N	-0.0273265212	-2.120722837	 0.6995294942	-0.273782
N	 0.0061752215	-0.8050643578	 1.0594783407	-0.015535
C	 0.036384537	-0.4298699081	 2.452535159	-0.283957
C	 1.3967323706	-0.1926636268	 2.962902148	 0.277272
N	 2.4582790234	 0.0050114074	 3.3714773269	-0.29716
H	 0.2069175172	 1.8017499513	-0.6427256653	 0.320014
H	 0.1217430302	-0.4637922082	-2.1740873528	 0.108274
H	-0.012405262	-3.0236800537	-1.1745697637	 0.121124
H	-0.5569864155	 0.4770183579	 2.6011731041	 0.177866
H	-0.4241942865	-1.2448986782	 3.0153397766	 0.185339
32.6388	82.7455	226.0929	256.6905	264.2326	314.1419	364.5636	447.2659	520.1235	655.8187	679.2756	699.0912	746.806	800.871	890.3087	926.0352	936.1036	947.517	1062.861	1106.5905	1187.0445	1249.8623	1290.6055	1337.3908	1373.5971	1385.3914	1441.6099	1461.3858	1581.971	1609.9686	2369.018	3072.6419	3127.5716	3243.8494	3269.087	3844.7486
OC1=CC=NN1CC#N	Oc1ccnn1CC#N	
InChI=1S/C5H5N3O/c6-2-4-8-5(9)1-3-7-8/h1,3,9H,4H2	InChI=1S/C5H5N3O/c6-2-4-8-5(9)1-3-7-8/h1,3,9H,4H2
