18
gdb 108454	2.33734	1.68471	1.22211	2.4135	71.72	-0.2394	-0.0391	0.2003	1058.8961	0.147201	-439.049685	-439.041298	-439.040353	-439.083017	31.388	
O	-0.0383617531	 1.4248756941	 0.1496050235	-0.419723
C	-0.0071149118	 0.0095594725	 0.1618661434	-0.149078
C	-1.4219382305	-0.5280397659	 0.0219356701	 0.215743
C	-2.3933820412	-0.4288051644	 1.2251503957	-0.303647
C	-2.6782230373	-1.9382728163	 1.0117187209	-0.166172
N	-1.7023790483	-2.0231939516	-0.1287358197	-0.174675
C	-2.3571716632	-1.8013085016	-1.4572594063	-0.303132
C	-2.0333049015	-0.3008040321	-1.3610846228	 0.352139
O	-2.0764924097	 0.6445285517	-2.0985984699	-0.307882
H	-0.4502319841	 1.6934848271	-0.682027186	 0.299368
H	 0.62964436	-0.4020854426	-0.6370899827	 0.096402
H	 0.4280361362	-0.2953347065	 1.1195051385	 0.113492
H	-1.8824228893	-0.1839950989	 2.1584281439	 0.125764
H	-3.2382467208	 0.2518354514	 1.1064012746	 0.122173
H	-2.3824335622	-2.5856078749	 1.8411605787	 0.117138
H	-3.705494882	-2.1914567874	 0.7288901067	 0.106563
H	-1.8419031263	-2.3094732148	-2.2796835172	 0.143266
H	-3.421982345	-2.0570829596	-1.5042792714	 0.132262
79.1479	97.4779	133.5223	201.6056	278.3167	330.7157	434.9791	471.0695	478.4097	494.8667	621.2494	695.2156	750.6263	793.3024	856.0378	890.5481	937.3782	950.9679	972.4877	1027.022	1045.2575	1052.2225	1079.1621	1142.0283	1152.7662	1186.4503	1214.6515	1219.6156	1249.2144	1257.9232	1305.0961	1311.594	1366.6682	1431.2328	1446.0511	1484.1651	1507.5994	1513.2775	1873.2028	2981.5209	3033.7533	3043.6844	3070.5491	3076.2328	3083.7894	3092.4613	3129.486	3769.1195
OCC12CCN1CC2=O	OC[C@]12CCN1CC2=O	
InChI=1S/C6H9NO2/c8-4-6-1-2-7(6)3-5(6)9/h8H,1-4H2	InChI=1S/C6H9NO2/c8-4-6-1-2-7(6)3-5(6)9/h8H,1-4H2/t6-/m0/s1
