21
gdb 64337	2.37761	1.49431	1.17819	3.172	80.06	-0.2268	0.0243	0.2511	1154.804	0.183184	-420.424754	-420.415644	-420.4147	-420.458283	35.281	
C	 0.0691699777	 1.4840066978	 0.102108615	-0.410987
C	-0.0837783156	-0.0268530538	-0.0473717162	 0.333453
C	-1.5618372138	-0.4287665032	-0.1087757969	-0.4116
C	 0.7050088962	-0.5454806463	-1.2640759006	-0.192671
N	 0.8865341099	-1.9906785841	-1.2809685693	-0.297463
C	 1.5240945831	-2.4359156051	-0.0442910791	-0.240732
C	 0.9289011247	-1.8685924101	 1.230275773	 0.363909
N	 0.9553495261	-2.5282732815	 2.310948823	-0.507356
O	 0.4710379026	-0.5836742908	 1.1819172611	-0.284528
H	 1.1244713305	 1.754583166	 0.1972165408	 0.124346
H	-0.3456668825	 1.9997116919	-0.7694537703	 0.11773
H	-0.4565728348	 1.8354579156	 0.9941497486	 0.126828
H	-2.0576073185	 0.0447756211	-0.9620993642	 0.11838
H	-1.6787758078	-1.5129701362	-0.2033164968	 0.11354
H	-2.0729156943	-0.1180274252	 0.8060471682	 0.130676
H	 0.2007541189	-0.229712394	-2.1833906196	 0.106406
H	 1.7008188502	-0.0833220398	-1.2622975822	 0.10788
H	-0.0073514622	-2.4569488885	-1.3977122717	 0.223345
H	 1.5121749797	-3.5243175261	 0.0236584494	 0.135747
H	 2.5783935041	-2.1252072219	-0.07816057	 0.130049
H	 0.5568930358	-1.968886406	 3.0693310381	 0.213047
75.0315	107.3745	206.8105	234.9837	274.0685	293.0346	324.2169	382.8786	431.5579	443.0463	465.4489	507.7403	548.8223	642.1498	746.8921	825.6599	833.4246	902.0304	917.0347	932.3272	942.6598	960.6218	999.7782	1012.5468	1075.7067	1124.1739	1159.1453	1168.4783	1204.9569	1250.5818	1272.3477	1336.908	1353.8997	1362.0354	1382.8153	1400.4457	1419.1736	1461.4556	1471.404	1477.3864	1482.5481	1491.8983	1494.7155	1506.5012	1743.6085	3010.7759	3022.8936	3037.9816	3043.9762	3079.198	3107.3734	3116.1795	3120.3032	3123.9502	3128.4208	3448.3682	3518.8353
CC1(C)CNCC(=N)O1	CC1(C)CNC[C]([NH])O1	
InChI=1S/C6H12N2O/c1-6(2)4-8-3-5(7)9-6/h7-8H,3-4H2,1-2H3	InChI=1S/C6H12N2O/c1-6(2)4-8-3-5(7)9-6/h7-8H,3-4H2,1-2H3
