23
gdb 95770	2.88442	1.12823	0.87536	1.2592	88.15	-0.2269	0.0249	0.2518	1393.4008	0.206694	-388.312051	-388.302709	-388.301764	-388.345714	36.513	
C	 0.1219651948	 1.5495497013	 0.0316284506	-0.477322
C	 0.0172138708	 0.0472727844	-0.001298308	 0.340713
C	 0.0132510599	-0.6255746758	-1.1555521168	-0.164911
C	-0.0919055087	-2.1233631676	-1.3079592608	-0.273368
C	-1.3717622239	-2.7490901078	-0.7176061543	 0.135313
O	-1.5150409611	-4.1001664192	-1.1516706233	-0.439319
C	-1.3749242395	-2.8210392638	 0.8093830597	-0.174008
C	-1.3581806552	-1.4804121896	 1.5519184431	-0.197857
C	-0.0823488304	-0.6396945173	 1.3489169614	-0.293871
H	 1.0058584776	 1.8701809425	 0.5988580222	 0.121851
H	 0.1883655097	 1.9776809513	-0.9722143811	 0.116532
H	-0.7450227297	 1.9954978589	 0.5371019716	 0.120991
H	 0.0836436335	-0.0545558899	-2.0789950535	 0.073902
H	-0.0602690417	-2.3701771409	-2.3764180151	 0.080172
H	 0.7719868961	-2.632203321	-0.8565249048	 0.108885
H	-2.2354764183	-2.1494850016	-1.0501607	 0.060294
H	-1.5208737063	-4.1036153224	-2.1140412164	 0.276926
H	-2.2638263984	-3.3893413191	 1.1049482676	 0.101647
H	-0.5092881631	-3.4233158445	 1.1172194692	 0.097045
H	-2.2328581251	-0.882031114	 1.266427729	 0.09481
H	-1.46633949	-1.6910774671	 2.6226637542	 0.093201
H	 0.7935433722	-1.2872498114	 1.5027926849	 0.105831
H	-0.0341402435	 0.1197616148	 2.1366838807	 0.092541
90.6855	119.5381	209.1557	232.7625	275.7718	291.3682	299.7998	329.4238	365.9392	403.3205	446.1271	480.8299	557.6111	639.2551	731.8929	822.3111	848.1737	867.1979	882.6929	931.0843	978.3066	1004.5356	1033.7887	1060.2163	1079.4239	1088.9931	1096.86	1106.7681	1146.1955	1191.4471	1222.2061	1256.6182	1270.2717	1304.8371	1320.1123	1351.3408	1358.9745	1372.7313	1388.669	1398.7879	1411.2883	1439.1577	1475.8265	1478.834	1483.7084	1486.274	1492.1473	1499.9567	1735.812	2958.7535	3000.2529	3004.3614	3009.8906	3019.6124	3020.3611	3044.8841	3054.2487	3058.7808	3062.2713	3071.0385	3108.4398	3141.3338	3815.1185
CC1=CCC(O)CCC1	CC1=CC[C@@H](O)CCC1	
InChI=1S/C8H14O/c1-7-3-2-4-8(9)6-5-7/h5,8-9H,2-4,6H2,1H3	InChI=1S/C8H14O/c1-7-3-2-4-8(9)6-5-7/h5,8-9H,2-4,6H2,1H3/t8-/m0/s1
