19
gdb 36651	4.42766	0.78238	0.75413	2.0551	81.34	-0.2378	0.0558	0.2936	1542.1609	0.15809	-385.806848	-385.798032	-385.797088	-385.841365	32.851	
C	-0.0532714166	-1.1930789455	-0.0285631969	-0.436373
C	-0.0014082624	 0.0047621073	-0.115696289	 0.292391
C	 0.0959092379	 1.4560155305	-0.2067467637	-0.350397
C	 1.4733599654	 1.9950516207	 0.2391135861	-0.217361
C	 1.5325480102	 3.5044563038	 0.1622165266	-0.028951
C	 2.8060567213	 4.3352307456	 0.1443369085	-0.173482
C	 3.8501098125	 3.6848463801	-0.7571260186	-0.092825
O	 2.8918645608	 3.5518132828	-1.8423261838	-0.282487
C	 1.9121773912	 4.2607420234	-1.0763612959	 0.086565
H	-0.1113004668	-2.250774587	 0.0414656624	 0.191896
H	-0.0955942205	 1.7745535715	-1.2391042084	 0.138786
H	-0.6934514199	 1.9130185144	 0.4050284045	 0.12435
H	 1.6770376176	 1.6596267967	 1.2621578149	 0.108647
H	 2.2409426979	 1.5567990468	-0.4033958526	 0.128344
H	 0.7492031515	 4.0152809571	 0.722356332	 0.088527
H	 2.9892125476	 5.1455994443	 0.8369422542	 0.098986
H	 4.6550903663	 4.3698277276	-1.0454850306	 0.111966
H	 4.2765716667	 2.7224269812	-0.4518140941	 0.108777
H	 1.3038480593	 4.9939453689	-1.5942580855	 0.102642
56.5736	61.5958	105.2847	212.1031	233.9205	313.1709	350.8697	439.4872	504.4888	605.8925	614.7838	635.5769	744.434	775.6155	787.5823	808.9113	900.9876	951.1258	967.5785	975.8449	1009.7771	1020.5812	1037.2157	1052.3481	1063.6216	1081.8269	1122.9046	1164.8092	1168.5452	1226.089	1260.6655	1283.1872	1312.9244	1323.7865	1352.6458	1380.1356	1448.9249	1471.3629	1485.7587	1518.744	2238.6276	3016.5339	3027.619	3044.0615	3054.5798	3074.9859	3103.6781	3118.3294	3173.1654	3202.5174	3507.6889
C#CCCC1C2COC12	C#CCC[C@H]1[C@H]2CO[C@@H]12	
InChI=1S/C8H10O/c1-2-3-4-6-7-5-9-8(6)7/h1,6-8H,3-5H2	InChI=1S/C8H10O/c1-2-3-4-6-7-5-9-8(6)7/h1,6-8H,3-5H2/t6-,7+,8-/m0/s1
