17
gdb 52346	7.44108	0.43049	0.41387	1.9961	93.15	-0.247	-0.032	0.2151	2461.7695	0.132262	-384.649131	-384.638956	-384.638012	-384.685878	34.953	
O	-0.0315184505	-0.1604678509	-0.1075180289	-0.232541
C	 0.0184450507	 1.0415319232	-0.0963463886	 0.156024
C	 1.2926863217	 1.8569646694	-0.1065110002	-0.274054
C	 1.3194050512	 2.8557786587	-1.2745530357	-0.186741
C	 2.565699987	 3.765716273	-1.2301378525	-0.394582
C	 2.6106527342	 4.7170797781	-2.3289523261	 0.331746
C	 2.6285497536	 5.5012208684	-3.2506746921	-0.182439
C	 2.6492909538	 6.3830336563	-4.2868960806	 0.288575
C	 2.6677532517	 7.1656255977	-5.2063444576	-0.552535
H	-0.9142287777	 1.6539605292	-0.0813715287	 0.07414
H	 1.3359216095	 2.4112805415	 0.8430073643	 0.120991
H	 2.1450038065	 1.1717340424	-0.1385070057	 0.12595
H	 1.3041808959	 2.3157621172	-2.2271310653	 0.130727
H	 0.4199460289	 3.4816240847	-1.2545290593	 0.121335
H	 2.587454509	 4.3086494865	-0.2752816749	 0.138744
H	 3.4715402302	 3.1450910276	-1.2463950186	 0.142913
H	 2.6837860643	 7.853031777	-6.0152298595	 0.191746
42.626	61.8747	80.7856	102.5677	165.4975	183.0021	255.3624	324.5883	356.1676	458.1189	515.9281	535.7787	540.2307	592.6563	598.0805	729.1679	746.7475	809.0633	903.7091	979.2866	1031.797	1090.0296	1112.0204	1179.4667	1183.2841	1250.3462	1284.653	1324.4122	1335.6089	1383.1857	1431.1786	1463.5026	1468.7732	1500.341	1838.8695	2182.8763	2365.4151	2853.0552	3008.0597	3011.861	3040.7917	3045.3566	3082.5606	3101.6933	3505.8303
O=CCCCC#CC#C	O=CCCCC#CC#C	
InChI=1S/C8H8O/c1-2-3-4-5-6-7-8-9/h1,8H,5-7H2	InChI=1S/C8H8O/c1-2-3-4-5-6-7-8-9/h1,8H,5-7H2
