21
gdb 74428	2.66819	1.44214	1.06495	1.806	85.12	-0.2273	0.0114	0.2386	1212.4472	0.182328	-387.107164	-387.09839	-387.097446	-387.140003	34.356	
C	 0.0257900112	 1.527715741	 0.0115578712	-0.478049
C	-0.0429273601	 0.0274326972	-0.0134056876	 0.29277
C	-0.0345839786	-0.6774443537	-1.1496733766	-0.1852
C	-0.0701151234	-2.1653586191	-1.1733232902	 0.384381
C	-0.2857437953	-2.8212122013	-2.5155767603	-0.480495
O	 0.9151348556	-2.8334629569	-0.3311803521	-0.303675
C	-0.4538005856	-2.8509920039	 0.073480996	-0.003145
C	-0.8286650625	-2.0230563165	 1.2806837896	-0.254092
C	-0.072580343	-0.6819850647	 1.3223767506	-0.303759
H	 0.9058683719	 1.8726519794	 0.5702647804	 0.127377
H	 0.0770349069	 1.9496635478	-0.9956992818	 0.120472
H	-0.8487217266	 1.9539872631	 0.5201414935	 0.122868
H	 0.0080548637	-0.1693892614	-2.1100992535	 0.073362
H	 0.5120685211	-2.5427050082	-3.2131850461	 0.125566
H	-0.288844554	-3.9093575616	-2.4179953161	 0.125355
H	-1.2385421018	-2.5045123376	-2.9538561275	 0.120952
H	-0.9359134893	-3.8278671744	-0.0023906774	 0.078746
H	-1.9115479981	-1.8445711253	 1.2370626161	 0.104767
H	-0.6403371471	-2.5860486774	 2.2018698249	 0.106031
H	 0.9607083847	-0.8666591527	 1.6419306808	 0.130289
H	-0.5170157296	-0.0321514938	 2.084914226	 0.095476
136.1361	156.746	193.6862	209.0499	242.1024	281.2468	367.3791	379.8858	399.1702	477.3368	514.9728	564.3659	662.018	722.3896	759.2428	825.5167	859.2923	895.1159	925.077	946.3572	989.6743	1028.0761	1040.8783	1065.8279	1071.4813	1094.5702	1117.5476	1170.5278	1226.3683	1241.5136	1270.1024	1318.0663	1351.3829	1363.3595	1397.8645	1410.9863	1413.2922	1457.9261	1472.5018	1478.3704	1483.6997	1486.4999	1490.6262	1500.42	1725.8817	3012.5649	3020.7694	3028.1576	3032.5663	3057.8908	3059.662	3068.6008	3086.7365	3093.9608	3110.9001	3124.2353	3152.3282
CC1=CC2(C)OC2CC1	CC1=C[C@@]2(C)O[C@H]2CC1	
InChI=1S/C8H12O/c1-6-3-4-7-8(2,5-6)9-7/h5,7H,3-4H2,1-2H3	InChI=1S/C8H12O/c1-6-3-4-7-8(2,5-6)9-7/h5,7H,3-4H2,1-2H3/t7-,8+/m0/s1
