17
gdb 64970	3.51382	1.01113	0.85073	6.6374	73.76	-0.2622	-0.0376	0.2246	1339.2359	0.134186	-418.013903	-418.004555	-418.003611	-418.049051	33.255	
C	-0.1032924508	 1.5030555752	-0.7477894814	-0.465054
C	-0.0676876406	 0.1987680499	 0.0188735047	 0.202594
C	 0.8606466094	-0.8864591847	-0.441767643	-0.266675
N	 1.1229654574	-0.1770408845	 0.8089901546	-0.341863
C	-1.3847201205	-0.201901736	 0.6350466984	 0.357355
O	-2.4292603193	 0.2418706525	 0.2291955761	-0.283847
C	-1.3170266173	-1.1769452355	 1.8242122063	-0.467053
C	-2.6312705086	-1.6218331976	 2.268572188	 0.287669
N	-3.6595068943	-1.9947026887	 2.6380637266	-0.29901
H	 0.8573254555	 1.6886485993	-1.2375348233	 0.112994
H	-0.8872800991	 1.4771294975	-1.5075798532	 0.156499
H	-0.3214434643	 2.3423837141	-0.0798537956	 0.136816
H	 0.5927215594	-1.9342331057	-0.3380540586	 0.130056
H	 1.4621182692	-0.6615849082	-1.3185209628	 0.132109
H	 1.8523389905	 0.5200320127	 0.6820716232	 0.243279
H	-0.6939566999	-2.0430793145	 1.5798831279	 0.174508
H	-0.7881952268	-0.6727509557	 2.6409409121	 0.189622
36.1439	64.2491	130.2388	189.8295	230.4318	267.7571	318.8651	365.3073	373.4864	419.7268	464.2973	538.4412	588.7307	774.0059	810.599	846.1961	926.5307	945.1126	946.8162	987.1691	1010.3754	1048.9273	1072.8027	1125.2062	1144.125	1204.4202	1260.5288	1315.3779	1342.6922	1378.6243	1414.1521	1416.4045	1479.2157	1499.9249	1516.1996	1813.4045	2375.0986	3043.1915	3063.2185	3094.8407	3109.6147	3111.7627	3133.514	3196.2836	3507.0107
CC1(CN1)C(=O)CC#N	C[C@]1(CN1)C(=O)CC#N	
InChI=1S/C6H8N2O/c1-6(4-8-6)5(9)2-3-7/h8H,2,4H2,1H3	InChI=1S/C6H8N2O/c1-6(4-8-6)5(9)2-3-7/h8H,2,4H2,1H3/t6-/m0/s1
