21
gdb 109997	1.87881	1.49463	1.127	3.3448	78.66	-0.2421	-0.0334	0.2087	1227.447	0.180125	-424.221781	-424.211838	-424.210894	-424.257137	35.666	
C	-0.1282158921	 1.7731685379	 0.1784389026	-0.389734
C	-0.1609833691	 0.2412003556	 0.119560322	-0.208054
C	 0.6550097248	-0.4193633564	 1.2246511641	-0.061686
C	 0.7626825235	-1.9706530756	 1.3058838774	 0.126668
C	 0.3039675682	-2.81020322	 0.1273836118	-0.40523
O	 2.2110748653	-1.8946590902	 1.3772083627	-0.285249
C	 2.2212079128	-0.4875117495	 1.1474263271	 0.033996
C	 2.827090949	-0.0897981045	-0.1844994702	 0.138592
O	 2.9713620673	-0.8291340496	-1.1230015968	-0.23852
H	 0.8878401617	 2.1618741913	 0.0482546562	 0.116375
H	-0.749494437	 2.2100942486	-0.6087392995	 0.121722
H	-0.4999601742	 2.1403063318	 1.1413722186	 0.118355
H	-1.2001372384	-0.098791915	 0.2147268683	 0.103279
H	 0.1816604554	-0.0997473956	-0.8630670709	 0.120901
H	 0.3532548727	-0.0039782966	 2.1905341371	 0.086816
H	 0.3600603751	-2.3827831843	 2.2399808046	 0.07851
H	 0.7651568854	-2.4663521156	-0.8010642104	 0.145444
H	 0.6020828372	-3.8511851136	 0.2861570214	 0.126806
H	-0.7864887743	-2.7821210555	 0.0271090566	 0.110949
H	 2.7450004711	 0.0627894044	 1.9425170852	 0.086325
H	 3.1220352758	 0.9849069924	-0.2429655978	 0.073734
60.8401	71.8472	115.4497	160.085	210.7315	224.7098	253.9937	257.0647	293.7223	403.6377	458.6307	482.2052	689.0415	756.0851	781.8303	816.5938	836.4127	891.7569	942.6671	962.2856	989.5023	1031.3738	1056.6919	1085.503	1089.4202	1122.0041	1157.71	1184.9753	1217.4085	1265.8526	1289.3007	1314.8457	1336.8241	1361.3259	1387.0464	1401.3064	1409.4507	1416.5953	1420.2145	1477.5051	1490.8109	1500.3638	1502.1163	1506.1112	1831.4153	2848.7373	3000.8682	3016.4046	3027.5378	3032.5915	3039.6764	3059.6024	3074.8695	3099.4583	3106.3766	3108.8388	3135.3121
CCC1C(C)OC1C=O	CC[C@H]1[C@@H](C)O[C@H]1C=O	
InChI=1S/C7H12O2/c1-3-6-5(2)9-7(6)4-8/h4-7H,3H2,1-2H3	InChI=1S/C7H12O2/c1-3-6-5(2)9-7(6)4-8/h4-7H,3H2,1-2H3/t5-,6+,7+/m1/s1
