17
gdb 124749	2.51469	1.52579	0.98554	2.8876	71.81	-0.2093	-0.0072	0.2021	1165.3239	0.136152	-455.132914	-455.124198	-455.123253	-455.166402	32.7	
C	 0.1038304006	 1.301094831	 1.0077978493	-0.399606
C	-0.1601739085	 0.4484415069	-0.2316006365	-0.007208
O	 0.8550762837	-0.546967247	-0.4253822958	-0.420701
C	-1.5086852658	-0.2115841818	-0.2226159633	 0.349952
C	-1.9865095108	-1.2936170088	-0.9102972766	 0.059441
N	-1.3455684541	-2.0577984904	-1.8873998388	-0.614272
C	-3.3340339992	-1.3916065486	-0.4602048884	-0.015984
N	-3.6377262281	-0.4609075513	 0.4130559686	-0.144241
O	-2.4909759059	 0.2939239826	 0.5653532933	-0.224893
H	 1.1010817408	 1.7419680648	 0.9392639046	 0.126375
H	-0.636363417	 2.1002418396	 1.0954990953	 0.143525
H	 0.0457114239	 0.6943617	 1.9180022996	 0.119991
H	-0.0702449724	 1.081224249	-1.12419103	 0.118151
H	 0.8659707944	-1.0969934428	 0.3673361936	 0.282867
H	-0.3388380311	-1.9638649478	-1.8240091096	 0.256301
H	-1.6162117502	-3.03205772	-1.879344591	 0.244696
H	-4.0872861802	-2.1122927254	-0.7479340444	 0.125606
53.0015	163.9245	177.5354	242.1842	295.6578	309.1411	317.9968	359.2867	427.2241	449.2601	503.0462	623.5787	654.0758	705.186	728.8331	788.4061	889.8021	892.347	950.8631	967.0848	1024.4165	1062.0688	1093.5683	1110.103	1218.8195	1242.0554	1267.6405	1286.2943	1350.0523	1405.6967	1414.4489	1460.0919	1488.0738	1489.3347	1515.8511	1645.7266	1688.4292	3024.7263	3042.9875	3116.1452	3136.7779	3237.0333	3531.1891	3628.0902	3785.9462
CC(O)C1=C(N)C=NO1	C[C@@H](O)c1c(N)cno1	
InChI=1S/C5H8N2O2/c1-3(8)5-4(6)2-7-9-5/h2-3,8H,6H2,1H3	InChI=1S/C5H8N2O2/c1-3(8)5-4(6)2-7-9-5/h2-3,8H,6H2,1H3/t3-/m1/s1
