19
gdb 85400	1.77776	1.6759	0.91521	3.306	78.9	-0.2424	-0.0173	0.2252	1275.1386	0.158485	-423.064839	-423.05588	-423.054936	-423.098641	33.77	
C	 0.0112457728	 1.5382469014	 0.0675099556	-0.470221
C	-0.0266239682	 0.0403010831	-0.0604217508	 0.299437
C	-0.0147127496	-0.5802762123	-1.2436286192	-0.199483
C	-0.0533195503	-2.0732945214	-1.4414935127	 0.085662
O	 0.7513820004	-2.4772885992	-2.5444646457	-0.428517
C	 0.337386589	-2.8228599631	-0.1515482477	-0.32346
C	-0.3433389342	-2.2215154011	 1.0636645887	 0.372546
O	-1.0155312522	-2.8651716896	 1.8331454831	-0.304541
C	-0.1138601386	-0.7253027017	 1.2428651449	-0.393286
H	 0.8641602974	 1.8590081409	 0.6795466158	 0.126053
H	 0.0858383544	 2.0257223813	-0.9076969959	 0.126546
H	-0.8889549534	 1.9130556715	 0.5708867205	 0.131576
H	 0.0170045361	 0.0011644093	-2.162636097	 0.091571
H	-1.066682475	-2.3795417642	-1.733469858	 0.112305
H	 1.6408122162	-2.1373281177	-2.3928454672	 0.27528
H	 0.1073216166	-3.8871351833	-0.2205155256	 0.127125
H	 1.4226611335	-2.7070483201	-0.0175105875	 0.106976
H	 0.8181257501	-0.5916928027	 1.8149594659	 0.13231
H	-0.9115331252	-0.3307342212	 1.8828006626	 0.13212
74.4039	108.7385	152.9171	206.6672	283.677	315.5889	357.299	395.5241	421.4836	431.5876	514.3531	528.9977	567.4242	635.6846	815.9712	836.0566	892.1943	904.8445	919.5173	992.7952	1026.1327	1054.0669	1062.7796	1115.0503	1130.4171	1172.5927	1211.93	1229.9416	1244.366	1297.2823	1323.7191	1350.5003	1361.1477	1412.4113	1423.5077	1445.0792	1465.2397	1477.7958	1488.6844	1733.4161	1823.6243	2992.1915	3010.0333	3017.6159	3025.4904	3061.8769	3065.1695	3116.9674	3126.503	3153.2016	3792.436
CC1=CC(O)CC(=O)C1	CC1=C[C@@H](O)CC(=O)C1	
InChI=1S/C7H10O2/c1-5-2-6(8)4-7(9)3-5/h2,6,8H,3-4H2,1H3	InChI=1S/C7H10O2/c1-5-2-6(8)4-7(9)3-5/h2,6,8H,3-4H2,1H3/t6-/m1/s1
