15
gdb 51977	5.3223	0.71312	0.64589	5.4395	69.56	-0.2689	-0.0425	0.2264	1627.5156	0.108106	-457.755233	-457.745625	-457.744681	-457.791191	32.683	
O	 0.3764553586	 0.1385149527	-0.0961040256	-0.266709
C	 0.5349275366	 1.3005133143	-0.3021596921	 0.190248
O	 0.3700081521	 2.2323947651	 0.6713766178	-0.165269
C	 0.6704247199	 3.5702952202	 0.3368262621	-0.20305
C	 2.1787129552	 3.8150545124	 0.2093217994	 0.372403
O	 2.944983213	 2.9091331043	 0.0233614537	-0.257199
C	 2.593076437	 5.2876481216	 0.3215225043	-0.484809
C	 3.9412933549	 5.5711126144	-0.1352878241	 0.318354
C	 5.053979156	 5.8079388744	-0.5172224019	-0.409546
H	 0.7914863039	 1.7416131564	-1.2821471812	 0.08588
H	 0.1999637784	 3.8698702383	-0.6129376659	 0.141143
H	 0.238408068	 4.1962756059	 1.122336116	 0.148998
H	 1.8565813694	 5.9016258808	-0.2156556088	 0.152704
H	 2.4761384619	 5.5627726039	 1.3807410317	 0.169309
H	 6.0403134951	 6.0109567553	-0.8547463655	 0.207544
40.1205	66.1211	72.6068	141.9268	184.282	268.4928	297.3176	320.4651	372.2511	405.3073	447.5391	636.4491	641.5664	656.9207	733.1958	791.8443	898.2465	948.0693	1011.5498	1030.1948	1064.8576	1077.1127	1170.904	1223.6616	1296.4631	1336.0364	1385.528	1429.1597	1436.6132	1470.5552	1842.74	1879.9272	2253.5917	2976.6443	2997.5786	3006.2252	3035.4251	3100.2324	3505.4684
O=COCC(=O)CC#C	O=COCC(=O)CC#C	
InChI=1S/C6H6O3/c1-2-3-6(8)4-9-5-7/h1,5H,3-4H2	InChI=1S/C6H6O3/c1-2-3-6(8)4-9-5-7/h1,5H,3-4H2
