15
gdb 45392	2.22625	1.78757	1.26492	3.6526	73.31	-0.2397	-0.0434	0.1963	1013.432	0.110521	-420.565116	-420.557153	-420.556209	-420.597836	29.788	
O	-0.0797241902	 0.0567217762	-0.612241345	-0.272158
C	-0.1089842459	 1.1643903912	-0.1767320669	 0.355113
C	-1.1982151844	 2.0490514148	 0.4643548338	-0.360285
C	-0.1732818251	 3.2057840326	 0.5945247215	-0.156653
C	 0.6926236307	 3.1360750497	 1.8562575451	-0.082416
O	 1.5941511408	 2.1744213173	 1.2515674183	-0.314157
C	 0.9542007493	 2.3063208336	-0.0487355277	 0.182295
C	 1.8239856045	 2.634838148	-1.1396740938	 0.229606
C	 2.5179123475	 2.8968981783	-2.0862726458	-0.398552
H	-2.001743107	 2.251335503	-0.2510981688	 0.144724
H	-1.6451604035	 1.6708451305	 1.3879344041	 0.137262
H	-0.4529062201	 4.1774414688	 0.1961411545	 0.103574
H	 1.2215715491	 4.0651357778	 2.098952161	 0.116639
H	 0.214607888	 2.7418981456	 2.7600069072	 0.112028
H	 3.1408565362	 3.1232961225	-2.9165257376	 0.202978
83.9319	112.6354	163.9749	222.9836	326.9453	368.2467	471.0844	494.6368	538.0375	610.9821	621.1251	631.9785	675.9244	807.4396	820.0595	905.0931	946.2402	979.2743	1002.0689	1042.9778	1047.4997	1053.9866	1107.5347	1150.853	1178.8701	1218.9633	1259.7135	1313.9873	1344.6725	1434.1557	1520.042	1904.0977	2231.9088	3025.5798	3058.4254	3074.1128	3111.0815	3153.3449	3498.6402
O=C1CC2COC12C#C	O=C1C[C@H]2CO[C@@]12C#C	
InChI=1S/C7H6O2/c1-2-7-5(4-9-7)3-6(7)8/h1,5H,3-4H2	InChI=1S/C7H6O2/c1-2-7-5(4-9-7)3-6(7)8/h1,5H,3-4H2/t5-,7+/m0/s1
