16
gdb 28382	3.22669	1.37265	0.96577	4.293	80.46	-0.1712	-0.0093	0.1619	1158.8317	0.127239	-434.142427	-434.134385	-434.133441	-434.174489	31.73	
N	 0.0986350842	 1.4151931872	 0.131422609	-0.587084
C	-0.0426677038	 0.0245315371	 0.0411254193	 0.391056
C	-1.217147689	-0.6671880549	 0.0056848498	-0.223662
C	-1.188576433	-2.0904199896	 0.012746396	-0.156647
C	-0.0130471735	-2.7913921689	 0.0214978846	 0.153377
N	 0.1149665236	-4.1749452669	 0.0789081254	-0.584836
C	 1.2559735627	-2.072736805	 0.0277761438	 0.409566
O	 2.3599129611	-2.6104882234	 0.0118499115	-0.424227
N	 1.1321362047	-0.6861059287	 0.0595571289	-0.411837
H	 0.736358431	 1.8024678099	-0.5561543288	 0.249435
H	-0.7924143155	 1.8888734661	 0.0653337431	 0.254368
H	-2.1583958656	-0.134439752	-0.0322969009	 0.085541
H	-2.1313580364	-2.6299758003	 0.0020445277	 0.088836
H	-0.6016109345	-4.7014441902	-0.3980389352	 0.241968
H	 1.0546253084	-4.4638723448	-0.1650025528	 0.259566
H	 2.0107766054	-0.1926295156	 0.1407943786	 0.254577
135.0204	191.025	240.0146	306.5394	324.9473	340.9894	382.3009	420.2129	464.6779	542.4123	589.7417	631.6589	643.9076	679.4644	728.8477	748.3049	777.4668	803.2686	813.3177	902.8835	1008.3151	1076.6173	1142.692	1165.7814	1245.5615	1273.7655	1303.6595	1370.312	1450.4009	1505.7606	1607.5794	1639.4395	1648.7326	1685.2451	1750.6026	3166.0164	3211.1305	3514.2655	3537.719	3602.6873	3623.7363	3654.5935
NC1=CC=C(N)C(=O)N1	Nc1ccc(N)c(=O)[nH]1	
InChI=1S/C5H7N3O/c6-3-1-2-4(7)8-5(3)9/h1-2H,6H2,(H3,7,8,9)	InChI=1S/C5H7N3O/c6-3-1-2-4(7)8-5(3)9/h1-2H,6H2,(H3,7,8,9)
