19
gdb 51740	2.88948	1.09358	0.88388	3.9091	78.01	-0.2745	0.0086	0.2832	1335.7416	0.158353	-423.02437	-423.015631	-423.014687	-423.058803	32.124	
O	-0.5809290188	 0.3842684809	-0.5615425932	-0.276306
C	-0.3135924692	 1.5065535724	-0.2542818618	 0.164559
O	 0.9524945421	 1.9456649701	-0.1216644536	-0.187736
C	 1.174558335	 3.3024675923	 0.2540477778	 0.072549
C	 2.0746145046	 3.5252862276	 1.4919375539	-0.250718
C	 2.8354145489	 4.6297593191	 0.696477606	-0.310122
C	 2.194188884	 4.0755846356	-0.5841513098	 0.338003
C	 2.926620834	 3.4983527415	-1.7594673459	-0.305174
C	 2.0202297071	 4.6946994591	-1.9367271717	-0.339407
H	-1.0643231758	 2.2951611342	-0.0492068569	 0.077531
H	 0.2102997867	 3.8209529533	 0.3316290687	 0.08587
H	 1.5811758976	 3.8099698171	 2.4231372818	 0.105438
H	 2.6976416313	 2.6454984077	 1.6659209716	 0.128155
H	 2.4923467656	 5.6387910815	 0.9441271139	 0.107425
H	 3.925922485	 4.6072148283	 0.7508693972	 0.110451
H	 3.9992443608	 3.6546266118	-1.8126947858	 0.115451
H	 2.5894557428	 2.5394499315	-2.1372955914	 0.133905
H	 1.0750168129	 4.5465701803	-2.4504975384	 0.114022
H	 2.4755600256	 5.6638090756	-2.1139090825	 0.116105
44.0702	81.0266	142.0274	187.9384	230.8451	289.8471	358.5407	388.7556	453.2874	548.2391	650.0662	748.5559	779.8167	839.5601	867.494	896.1763	923.876	933.5892	978.029	1001.0407	1045.2161	1055.2239	1070.5331	1081.9088	1126.0056	1131.4362	1188.2946	1191.0711	1195.5024	1234.9072	1244.7433	1274.2445	1284.4343	1380.3242	1386.4936	1442.4493	1465.1142	1477.6617	1499.2383	1506.4425	1865.5142	2942.675	3021.8967	3055.6242	3075.3996	3107.1565	3122.4778	3132.283	3135.7874	3202.9433	3222.9497
O=COC1CCC11CC1	O=CO[C@H]1CCC21CC2	
InChI=1S/C7H10O2/c8-5-9-6-1-2-7(6)3-4-7/h5-6H,1-4H2	InChI=1S/C7H10O2/c8-5-9-6-1-2-7(6)3-4-7/h5-6H,1-4H2/t6-/m0/s1
