20
gdb 116692	3.44104	0.76473	0.72065	4.4906	83.53	-0.2278	0.0069	0.2348	1670.7774	0.168055	-440.259224	-440.248719	-440.247775	-440.296099	36.476	
C	 0.0217740958	 1.3489341331	 0.1747413982	-0.249726
O	 0.039715846	-0.0593487109	-0.030912303	-0.19531
C	-1.1624781685	-0.6629162833	-0.0331145129	 0.124639
N	-1.2508063406	-1.9093641327	-0.1949848244	-0.232359
C	-2.5278978701	-2.5291434637	-0.1661016788	-0.031222
C	-2.8252234558	-3.6132217676	-1.208463359	-0.078872
C	-1.883317268	-3.8991479262	-2.3545660487	-0.395927
C	-2.4806136746	-3.9999613024	 0.2099206024	 0.099587
O	-1.2372976612	-4.5507286479	 0.5047153256	-0.431922
H	 1.060942002	 1.6769162558	 0.1377279115	 0.150012
H	-0.5449940605	 1.8616686132	-0.6116943656	 0.130008
H	-0.4014144017	 1.6056978648	 1.153284581	 0.130268
H	-2.0199513092	 0.0098290138	 0.1140811732	 0.082758
H	-3.3683345067	-1.9236921221	 0.1773483477	 0.073242
H	-3.881856863	-3.6836573135	-1.4566235139	 0.081841
H	-0.8501280738	-3.9632454251	-2.0105144356	 0.131032
H	-2.1383677856	-4.8549581039	-2.8242242949	 0.115186
H	-1.9384206471	-3.1205794921	-3.1228255006	 0.109631
H	-3.266494264	-4.3965344695	 0.8470563841	 0.092788
H	-0.6009508135	-3.8235631999	 0.4326404336	 0.294345
35.4908	68.5137	110.7962	117.8387	140.8719	185.9077	203.1551	263.6665	285.8962	424.5653	448.5283	459.5841	532.8941	637.1414	688.2638	740.252	801.1093	906.6225	966.8843	987.9972	1004.0823	1052.8455	1061.6958	1099.2765	1137.5952	1154.0758	1164.0055	1177.0674	1190.8441	1242.3569	1273.5622	1344.4123	1354.4568	1382.5417	1416.8431	1427.0347	1454.5356	1487.1301	1489.2432	1494.3264	1499.213	1500.5853	1770.5102	3006.8238	3020.8074	3038.1035	3075.564	3080.3627	3093.2856	3125.417	3140.4941	3146.2568	3148.4048	3707.8115
COC=NC1C(C)C1O	COC=N[C@H]1[C@@H](C)[C@H]1O	
InChI=1S/C6H11NO2/c1-4-5(6(4)8)7-3-9-2/h3-6,8H,1-2H3	InChI=1S/C6H11NO2/c1-4-5(6(4)8)7-3-9-2/h3-6,8H,1-2H3/t4-,5+,6-/m1/s1
