15
gdb 99461	2.42962	1.18818	0.92526	3.7098	73.6	-0.2513	-0.0946	0.1567	1269.0741	0.109548	-416.768502	-416.758676	-416.757732	-416.803964	33.682	
C	 0.1226470796	 1.5058908487	 0.0742211181	-0.323228
N	-0.2403289837	 0.1322795941	-0.2556715586	-0.273439
C	 0.5784253553	-0.4822417577	-1.2779624052	-0.230834
C	 2.0340203678	-0.5027902847	-1.0337678536	 0.323281
C	 3.2102072908	-0.5328784543	-0.7853960398	-0.461247
C	 0.1518959636	-1.9483309582	-1.4513504254	 0.29594
O	-0.5014165652	-2.5541518942	-0.6461085105	-0.261527
C	 0.632434913	-2.59215535	-2.6875150811	 0.250771
N	 0.9792677888	-3.0851226878	-3.6740654102	-0.295822
H	 1.1612987428	 1.6283586487	 0.417382992	 0.117453
H	-0.0195876169	 2.1420659062	-0.8065128268	 0.127579
H	-0.5498700285	 1.8660419385	 0.8565787125	 0.131769
H	-0.2484152717	-0.4595091429	 0.5677261936	 0.240374
H	 0.3975943213	 0.0294363007	-2.2353339805	 0.14262
H	 4.2528421929	-0.551476487	-0.5802351845	 0.21631
48.8728	89.7602	115.6659	139.4446	172.7833	221.4532	251.9105	284.2048	356.6292	417.8372	440.4862	573.2692	614.1481	650.1543	681.0899	705.0441	739.1531	878.0334	936.6121	1001.9828	1085.4236	1152.0846	1158.352	1219.586	1277.4847	1329.2002	1459.3949	1485.0217	1494.4332	1520.6122	1809.7774	2219.0032	2340.6278	2988.8013	3001.3955	3067.1634	3117.4208	3497.4723	3544.3653
CNC(C#C)C(=O)C#N	CN[C@@H](C#C)C(=O)C#N	
InChI=1S/C6H6N2O/c1-3-5(8-2)6(9)4-7/h1,5,8H,2H3	InChI=1S/C6H6N2O/c1-3-5(8-2)6(9)4-7/h1,5,8H,2H3/t5-/m0/s1
