17
gdb 127941	2.55288	1.635	1.00327	1.6699	84.34	-0.1881	-0.0222	0.1659	1148.4508	0.138222	-414.208738	-414.200401	-414.199457	-414.241311	31.823	
C	-0.2250346349	 1.3410740563	 0.0764407832	-0.343976
N	-0.2099437792	-0.1046331861	 0.1291019502	-0.349386
C	 0.6137708622	-0.6720994293	 0.9430742476	 0.393845
N	 1.5005109825	-0.0408596263	 1.7891428894	-0.326333
N	 2.399444105	-0.6015816566	 2.64466793	-0.233487
C	 2.4063914395	-1.9029971934	 2.6528316827	 0.020729
C	 1.5621741484	-2.7261722509	 1.8579579588	-0.240348
C	 0.6599829788	-2.1386937621	 1.0123204372	 0.326748
N	-0.2405814581	-2.7631979608	 0.2183428204	-0.57887
H	 0.7491661698	 1.7696835188	-0.2184455065	 0.104589
H	-0.9599904557	 1.6727200408	-0.6614042913	 0.122671
H	-0.5022298129	 1.8010962008	 1.041111628	 0.106217
H	 1.5229824699	 0.9655172422	 1.7969386855	 0.267065
H	 3.1228400147	-2.3528301774	 3.3324313394	 0.114451
H	 1.6359439937	-3.8053732524	 1.9345061601	 0.087857
H	-0.1558230867	-3.7441068484	 0.0196939278	 0.256452
H	-0.7191418671	-2.1569538353	-0.4346401023	 0.271777
117.1111	187.6425	208.3758	215.3591	252.7556	284.0343	342.6808	497.2203	518.6452	531.7085	558.8542	580.0793	600.24	647.6375	768.0118	779.0439	844.3301	904.7145	935.5585	1031.7316	1065.8303	1095.2498	1110.9373	1141.9863	1193.7296	1289.2945	1355.6459	1396.4405	1422.7028	1444.0774	1472.3665	1503.2501	1507.9022	1576.0163	1626.1515	1666.234	1693.572	2937.6656	2974.7248	3095.1841	3177.7563	3192.3618	3553.7296	3654.9541	3718.939
CN=C1NN=CC=C1N	C[N]C1=C(CC=NN1)N	
InChI=1S/C5H8N4/c1-7-5-4(6)2-3-8-9-5/h2-3H,1H3,(H2,6,8)(H,7,9)	InChI=1S/C5H9N4/c1-7-5-4(6)2-3-8-9-5/h3,9H,2,6H2,1H3
