19
gdb 79031	4.72774	1.36282	1.29827	2.1433	78.88	-0.2079	0.082	0.29	1029.0397	0.161628	-381.960606	-381.953846	-381.952901	-381.991334	28.551	
C	 0.0609091894	 1.4981295312	-0.2067518194	-0.326365
N	 0.0377614354	 0.0563881001	 0.017283935	-0.116898
C	-1.0538104911	-0.4983802071	 0.8836451977	-0.039257
C	-0.1434127454	-1.755521436	 1.1385655428	-0.008471
C	-0.4149641436	-2.2735686319	 2.5362121993	-0.076789
N	 0.6197945005	-1.8571528696	 3.5208389984	-0.337682
C	-0.5881643925	-1.0168936361	 3.2975493586	-0.076723
C	-0.3883314675	 0.0313957701	 2.2179617999	-0.040021
C	 0.7348975731	-0.4738668693	 1.2466128151	-0.023238
H	 1.0376671681	 1.7719851062	-0.6196340469	 0.119517
H	-0.6957104041	 1.7472389339	-0.9587127961	 0.117376
H	-0.1214604768	 2.1291065271	 0.6774021201	 0.093967
H	-2.1048715701	-0.4694794288	 0.5841077174	 0.072664
H	 0.0411194288	-2.4335083302	 0.3078266124	 0.077349
H	-1.0024303259	-3.1666570812	 2.7138168092	 0.089537
H	 0.4812331775	-2.393462045	 4.3765140785	 0.225963
H	-1.3149658216	-0.8954255512	 4.092758647	 0.0886
H	-0.4496236482	 1.0831592317	 2.486808752	 0.073843
H	 1.8145112541	-0.4158690339	 1.3786400092	 0.086629
185.0272	217.1861	256.1808	332.8787	401.3254	508.586	574.1439	668.4157	704.3834	770.7295	778.0966	798.407	838.5943	854.9173	883.9215	904.1437	908.8688	958.6303	983.6225	999.3371	1002.1833	1070.9992	1092.6567	1118.0549	1123.4767	1126.8191	1139.662	1162.3173	1170.1888	1181.6021	1207.4523	1221.6909	1240.2524	1263.5128	1285.7802	1351.5331	1358.0269	1406.7301	1447.5668	1492.5237	1500.2128	2977.4528	3059.8039	3077.3979	3093.5458	3123.7997	3144.1456	3147.0547	3172.2432	3185.045	3475.481
CN1C2C3C4NC4C2C13	CN1[C@H]2[C@@H]3[C@H]4N[C@H]4[C@H]2[C@H]13	
InChI=1S/C7H10N2/c1-9-6-2-4-5(8-4)3(6)7(2)9/h2-8H,1H3	InChI=1S/C7H10N2/c1-9-6-2-4-5(8-4)3(6)7(2)9/h2-8H,1H3/t2-,3+,4-,5+,6-,7+
