20
gdb 115977	2.58668	1.31503	0.91785	1.7683	77.76	-0.2444	0.031	0.2754	1304.2799	0.17059	-440.308749	-440.299435	-440.298491	-440.343158	33.79	
C	 0.0555081486	 1.3860142054	-0.0797409606	-0.245416
O	 0.1358576835	-0.0309335882	-0.0709925663	-0.23097
C	 0.6555571865	-0.5689152844	 1.090569766	 0.237001
C	 0.533741237	-2.078856607	 1.0561969403	-0.263809
C	 1.2847760933	-2.6641473343	 2.2554246194	-0.1694
N	 2.6204178108	-2.1075367022	 2.430566088	-0.302064
C	 2.885790405	-0.9876446109	 1.8999957489	 0.398337
C	 4.2464590915	-0.3623982636	 1.9916646789	-0.450271
O	 2.0399834751	-0.1813640898	 1.1889041962	-0.283322
H	 1.0493991184	 1.8454752691	-0.052750801	 0.131536
H	-0.4491791971	 1.6666297076	-1.0061483084	 0.131555
H	-0.53100501	 1.7551286451	 0.7745848395	 0.108564
H	 0.1487800187	-0.1437076897	 1.9749363072	 0.068983
H	-0.5225554509	-2.3616294421	 1.0586633003	 0.109747
H	 0.9748443884	-2.4289209592	 0.1170932354	 0.122427
H	 0.7151827412	-2.5056839056	 3.1822791568	 0.108635
H	 1.379850608	-3.7495725747	 2.1452978254	 0.112939
H	 4.916301025	-1.0242688313	 2.5388590616	 0.144007
H	 4.6447857212	-0.1781918754	 0.9887024682	 0.13761
H	 4.1873537457	 0.6062903712	 2.4984553043	 0.133912
80.7401	101.5529	141.4788	165.5245	169.2957	242.2119	279.3966	340.6374	412.7124	487.4785	511.6944	564.0391	606.5369	664.3662	854.0331	883.2895	897.5147	939.9785	1009.1404	1029.3076	1059.0895	1073.1483	1120.8792	1130.5601	1174.4346	1180.5196	1213.9034	1224.7029	1261.4761	1268.3305	1337.2466	1367.4762	1391.4693	1408.0738	1422.2689	1474.8772	1477.3621	1478.5216	1484.1031	1486.5134	1496.5095	1511.8011	1754.1544	2947.0063	2997.7093	3008.566	3046.8652	3052.1546	3064.887	3075.5269	3103.5645	3106.8417	3131.7343	3166.9463
COC1CCN=C(C)O1	CO[C@H]1CCN=C(C)O1	
InChI=1S/C6H11NO2/c1-5-7-4-3-6(8-2)9-5/h6H,3-4H2,1-2H3	InChI=1S/C6H11NO2/c1-5-7-4-3-6(8-2)9-5/h6H,3-4H2,1-2H3/t6-/m1/s1
