23
gdb 114813	2.52321	1.26895	1.1204	1.6501	85.55	-0.2351	0.0772	0.3123	1268.0951	0.205076	-388.272381	-388.262939	-388.261995	-388.306658	35.962	
C	 0.3030744813	 1.4849249131	 0.1399964441	-0.380969
C	 0.0682485247	-0.0282897018	 0.0651718661	-0.20058
C	 0.5401492972	-0.6100457426	-1.2552228112	 0.124225
O	 1.9757163971	-0.4860288737	-1.4517765858	-0.321649
C	 2.0966776291	-1.8712177629	-1.8304183786	 0.086834
C	 2.5282303048	-2.7731333419	-0.6545862934	-0.228001
C	 1.0261784219	-3.0105736939	-0.3026934974	-0.291009
C	 0.5908347125	-2.1381218646	-1.5210076571	 0.270622
C	-0.4199580072	-2.7199145984	-2.4832184764	-0.501388
H	 1.3644038837	 1.7114498347	 0.0045033497	 0.13791
H	-0.2548498919	 2.0120639481	-0.6418267226	 0.112243
H	-0.0126461881	 1.8878259638	 1.1069133373	 0.108987
H	 0.5924061602	-0.5200573826	 0.8916234856	 0.100387
H	-1.0004146768	-0.2537587511	 0.1821442115	 0.093282
H	 0.0144596434	-0.0976149584	-2.0781618146	 0.062043
H	 2.5745710155	-1.9968616139	-2.8070252393	 0.067705
H	 3.0524770455	-3.6820103097	-0.9626146113	 0.09789
H	 3.1294161464	-2.2525922918	 0.0939010439	 0.108245
H	 0.7188988176	-4.0540081346	-0.4122118788	 0.099698
H	 0.6965356007	-2.6687886339	 0.6807627489	 0.101019
H	-1.4160879651	-2.7664460643	-2.0253354871	 0.118906
H	-0.5004581462	-2.1158278325	-3.3936187285	 0.11828
H	-0.1492492464	-3.7395557968	-2.7786209652	 0.11532
65.4405	91.6362	169.89	198.5826	211.0253	233.5062	301.2959	319.4174	391.2814	447.9827	494.7546	627.3632	660.2232	734.7544	774.1285	831.2867	870.0283	872.6983	919.4629	941.8058	950.6705	978.5693	996.9241	1029.9507	1062.1977	1105.3587	1118.9724	1142.1344	1170.8197	1184.9074	1219.9172	1224.1793	1254.421	1264.7042	1277.2358	1289.235	1312.7528	1343.8044	1362.2838	1404.9467	1413.9478	1420.9401	1464.2128	1474.1714	1490.0944	1493.6927	1495.5652	1498.139	1508.2546	2957.0825	3018.2984	3021.9218	3035.671	3051.7926	3059.6442	3067.707	3071.6264	3080.2776	3093.0465	3102.8757	3105.6653	3118.6094	3124.0872
CCC1OC2CCC12C	CC[C@H]1O[C@H]2CC[C@@]12C	
InChI=1S/C8H14O/c1-3-6-8(2)5-4-7(8)9-6/h6-7H,3-5H2,1-2H3	InChI=1S/C8H14O/c1-3-6-8(2)5-4-7(8)9-6/h6-7H,3-5H2,1-2H3/t6-,7+,8+/m1/s1
