17
gdb 86846	2.8495	1.26842	1.07273	3.6005	75.25	-0.2381	0.0276	0.2657	1168.0422	0.136534	-418.020097	-418.011333	-418.010389	-418.053737	32.075	
C	-0.0467838162	 1.3676193513	 0.1109838946	-0.34045
N	-0.0495505212	-0.0746359264	 0.1287724058	-0.097283
C	-1.2190160578	-0.854489561	-0.2109075459	-0.173595
C	-0.6895874821	-2.3121378783	-0.0817487914	-0.175084
N	 0.7330895469	-2.1097694907	-0.362326268	-0.347445
C	 1.1130013679	-0.8018613144	-0.0415451721	 0.453495
O	 2.2479850799	-0.3892939236	 0.0489232422	-0.418466
C	-0.9427019141	-2.9004463626	 1.2362837666	 0.350471
C	-1.1373921322	-3.4052377268	 2.3094436877	-0.476472
H	 0.9794063319	 1.6958265538	 0.2849686456	 0.166505
H	-0.3896694104	 1.7671659644	-0.8548339273	 0.115759
H	-0.6936193182	 1.7683149024	 0.8992482763	 0.123996
H	-2.0543403339	-0.6645149736	 0.4681855463	 0.127373
H	-1.5545170513	-0.6608485839	-1.2417344179	 0.10715
H	-1.1455504273	-2.9474348941	-0.8480606762	 0.120288
H	 1.3855653414	-2.8285313464	-0.0860290894	 0.256236
H	-1.3078435832	-3.8457706702	 3.2609694629	 0.207522
74.7661	116.3243	156.5227	184.3096	229.4571	269.0962	297.3858	433.1853	482.0973	553.0158	592.8241	639.8548	662.2761	683.0405	751.4387	784.758	811.4804	851.3509	993.8444	1026.7469	1071.5302	1110.5529	1157.2069	1166.1354	1227.6143	1278.2681	1301.7933	1314.7873	1363.5301	1400.2612	1433.3152	1455.001	1491.4947	1511.0077	1538.2578	1836.6794	2234.4839	2980.2591	2996.7115	3050.234	3063.9352	3085.3995	3143.0996	3501.3861	3624.6901
CN1CC(NC1=O)C#C	CN1C[C@@H](NC1=O)C#C	
InChI=1S/C6H8N2O/c1-3-5-4-8(2)6(9)7-5/h1,5H,4H2,2H3,(H,7,9)	InChI=1S/C6H8N2O/c1-3-5-4-8(2)6(9)7-5/h1,5H,4H2,2H3,(H,7,9)/t5-/m0/s1
