18
gdb 35798	3.69742	1.16539	0.98719	3.7374	75.34	-0.2473	0.0303	0.2777	1189.8061	0.149898	-401.948979	-401.941258	-401.940314	-401.981342	29.903	
N	 0.0303798727	-1.172311587	 0.0553815961	-0.320403
C	 0.0071050287	-0.0168381501	 0.0276388123	 0.263082
C	-0.014788035	 1.4426973261	 0.0165740575	-0.160039
C	-0.7619482397	 1.9895550277	 1.2528894249	-0.091907
O	-0.9480649687	 3.3834749446	 1.1450794002	-0.248692
C	 0.1992582695	 4.1425511277	 0.8800385513	 0.128387
C	 1.4657693386	 4.0187797476	 1.6756139646	-0.328139
C	 1.4163977394	 3.5294645695	 0.2326339135	-0.085281
C	 1.418400847	 2.0299222576	-0.0504022517	-0.237065
H	-0.5793013599	 1.7692334154	-0.865281647	 0.134689
H	-1.7622377214	 1.556794507	 1.3218017573	 0.134439
H	-0.2133826719	 1.71788184	 2.1674401462	 0.111864
H	-0.1097276445	 5.1333776692	 0.5665436792	 0.108661
H	 2.0158694835	 4.9253075136	 1.9019309185	 0.118912
H	 1.5229509515	 3.2604478269	 2.4497347094	 0.121346
H	 1.9302291732	 4.1377176104	-0.5040451091	 0.098162
H	 2.0530432818	 1.4974384911	 0.6658416365	 0.126243
H	 1.8363513451	 1.8334826625	-1.0409992396	 0.125744
84.5278	151.4113	190.5353	290.3066	337.7343	372.7957	439.3373	501.3874	529.6979	548.0399	664.8214	756.7854	801.4468	840.4723	862.0114	914.3089	962.9194	1006.2943	1022.6151	1028.9486	1051.1738	1076.2804	1128.1525	1128.9775	1147.9825	1189.8563	1227.1643	1247.8327	1279.4985	1311.805	1327.5189	1354.9688	1369.2321	1400.052	1424.3117	1480.5554	1495.7866	1512.1983	2355.9806	2996.0571	3040.9523	3052.1211	3096.9517	3107.839	3134.015	3158.5372	3175.7181	3219.7409
N#CC1COC2CC2C1	N#C[C@H]1CO[C@H]2C[C@H]2C1	
InChI=1S/C7H9NO/c8-3-5-1-6-2-7(6)9-4-5/h5-7H,1-2,4H2	InChI=1S/C7H9NO/c8-3-5-1-6-2-7(6)9-4-5/h5-7H,1-2,4H2/t5-,6+,7-/m0/s1
