15
gdb 61344	3.19135	0.8911	0.77638	2.6291	74.22	-0.2748	-0.0602	0.2146	1426.6568	0.111829	-413.013014	-413.003423	-413.002479	-413.04849	32.98	
C	 0.0221821969	 1.6110861481	 0.0492978616	-0.393548
C	 0.038924134	 0.0723009483	-0.0126778199	-0.09821
N	 0.6390936467	-0.447451552	-1.2351346816	-0.326151
C	-0.1063575297	-0.6019331203	-2.369425687	 0.316097
N	-1.3585202927	-0.3428431079	-2.4068393347	-0.527625
C	 0.6519884108	-1.094554016	-3.5087023099	 0.231466
N	 1.2214735625	-1.4758196388	-4.4396404905	-0.309418
C	 0.7423929498	-0.5014558762	 1.1430777289	 0.26967
N	 1.3109791073	-0.9281764184	 2.0533247321	-0.304438
H	 1.038319354	 2.0122117918	 0.0161003896	 0.135859
H	-0.5461917247	 1.990311606	-0.8020764706	 0.155927
H	-0.4557718847	 1.9470425872	 0.9730327852	 0.146214
H	-0.9950432341	-0.2887805633	-0.0022096849	 0.175893
H	 1.6395283383	-0.5463513842	-1.2862169135	 0.279365
H	-1.7584458445	-0.5554768243	-3.3162331947	 0.248899
48.6304	57.2119	115.9904	187.1059	211.0023	238.9551	283.3105	309.7202	339.2865	404.3613	482.6149	544.0943	569.8517	627.8866	724.2171	819.044	828.5015	913.8697	955.9244	1084.1217	1093.5881	1143.9171	1167.7359	1284.4755	1337.3019	1375.6008	1402.4691	1486.9064	1493.7408	1546.9058	1682.1281	2352.1938	2366.1008	3053.9289	3069.8432	3133.7481	3146.956	3545.3319	3658.6895
CC(NC(=N)C#N)C#N	C[C@@H](NC(=N)C#N)C#N	
InChI=1S/C5H6N4/c1-4(2-6)9-5(8)3-7/h4H,1H3,(H2,8,9)	InChI=1S/C5H6N4/c1-4(2-6)9-5(8)3-7/h4H,1H3,(H2,8,9)/t4-/m1/s1
