15
gdb 10846	4.91773	1.51547	1.21005	4.4922	57.63	-0.2542	0.0469	0.3011	937.8883	0.120544	-436.976984	-436.969554	-436.96861	-437.008932	27.096	
O	-0.0596277922	 1.4392102771	-0.02179449	-0.42029
C	 0.0123402514	 0.0267295873	 0.0020869805	 0.074149
C	-1.4192739491	-0.4947392392	-0.0010519213	-0.151013
N	-1.4198207094	-1.8999978302	-0.3728506815	-0.374013
C	-0.3862994748	-2.6404903899	-0.8842234176	 0.469022
O	-0.4397122808	-3.833005146	-1.0477042203	-0.392348
O	 0.7514161301	-1.9572101628	-1.1989715066	-0.240194
C	 0.7114894214	-0.530958904	-1.2358087552	-0.096787
H	 0.8183158702	 1.792434067	 0.1525607938	 0.294001
H	 0.5372146047	-0.3391978927	 0.8968256447	 0.093052
H	-1.8751491732	-0.3681995494	 0.9863735808	 0.122515
H	-1.9963667564	 0.1113259901	-0.7131693493	 0.124497
H	-2.2302006186	-2.4578981463	-0.1593161705	 0.261687
H	 0.1933824648	-0.1819286953	-2.1390854569	 0.121085
H	 1.754179472	-0.2053004258	-1.2901969706	 0.114638
89.7147	112.5729	225.6689	267.6832	321.6174	427.8339	434.7416	474.305	519.8618	586.1681	743.6141	761.6543	824.2601	917.9603	944.4205	1051.4549	1097.4162	1118.1573	1134.2814	1151.0709	1223.8275	1242.8935	1279.9003	1302.4174	1348.1008	1402.2318	1407.9969	1446.6984	1484.6222	1512.4287	1531.3686	1849.4383	2996.617	3011.4547	3026.158	3069.0697	3093.1096	3653.7653	3826.1076
OC1CNC(=O)OC1	O[C@H]1CNC(=O)OC1	
InChI=1S/C4H7NO3/c6-3-1-5-4(7)8-2-3/h3,6H,1-2H2,(H,5,7)	InChI=1S/C4H7NO3/c6-3-1-5-4(7)8-2-3/h3,6H,1-2H2,(H,5,7)/t3-/m0/s1
