19
gdb 120242	3.0884	1.01656	0.8432	2.7583	77.32	-0.241	-0.0118	0.2292	1400.8727	0.158084	-423.001443	-422.992498	-422.991554	-423.035997	32.392	
C	-0.3507765728	 1.4255524535	-0.5850637409	-0.227118
O	-0.2827656837	 0.0241711407	-0.7037146525	-0.235015
C	 1.005282059	-0.4878630274	-0.4326179938	-0.078729
C	 0.9571058892	-1.994690606	-0.5853905345	-0.137804
C	 0.8989068473	-2.6500786146	-1.9773232514	-0.050166
C	 2.1567075691	-2.4019511852	-2.72749474	-0.28431
C	 2.1587748981	-3.5017391904	-1.6690731106	-0.174266
C	 2.2216122156	-2.8650461575	-0.3136339228	 0.391232
O	 2.8765183528	-3.0553915155	 0.6718062201	-0.3206
H	-0.0953974338	 1.7625979041	 0.4320300707	 0.106514
H	 0.3273834785	 1.929379631	-1.2922414079	 0.103913
H	-1.3779919927	 1.7236418465	-0.8083893399	 0.128053
H	 1.7466053607	-0.0390691222	-1.1149384975	 0.085274
H	 1.3193130401	-0.2368158961	 0.5943678311	 0.104219
H	 0.1597927679	-2.3830713263	 0.0598865865	 0.1146
H	-0.0071428392	-2.9987469401	-2.4535509753	 0.108283
H	 2.1937176082	-2.7789910195	-3.7443090961	 0.128735
H	 2.7358278159	-1.4961013016	-2.5754606431	 0.124995
H	 2.4041521697	-4.5256295535	-1.9209310423	 0.11219
55.3788	96.5563	121.6318	146.4761	225.7322	272.659	273.6857	365.5326	500.0712	548.5074	601.0445	699.6439	754.3092	814.5783	862.3339	909.9831	927.63	958.0093	996.7697	1009.6253	1044.937	1071.2112	1093.2541	1117.5396	1139.9454	1152.8648	1167.3591	1185.2216	1195.7067	1231.4916	1252.2856	1285.3903	1333.4872	1349.9263	1419.5484	1479.998	1485.6337	1495.4078	1504.4723	1525.358	1879.5957	2956.5591	2972.2631	2986.0019	3013.9204	3050.6375	3114.7822	3124.7145	3198.3609	3205.5833	3217.3908
COCC1C2CC2C1=O	COC[C@H]1[C@H]2C[C@H]2C1=O	
InChI=1S/C7H10O2/c1-9-3-6-4-2-5(4)7(6)8/h4-6H,2-3H2,1H3	InChI=1S/C7H10O2/c1-9-3-6-4-2-5(4)7(6)8/h4-6H,2-3H2,1H3/t4-,5+,6-/m0/s1
