16
gdb 33401	2.35518	1.36193	1.02174	4.1837	73.51	-0.2623	-0.0193	0.2431	1175.5783	0.124629	-396.913621	-396.90502	-396.904076	-396.947584	30.332	
N	-0.1144562898	-1.1793549697	-0.1321464676	-0.301589
C	-0.0629497781	-0.0288618651	-0.0599459364	 0.322813
C	-0.0121527749	 1.4424949624	 0.0207586359	-0.259717
C	 1.3890573503	 1.8892985221	 0.266378572	 0.284571
N	 2.452956721	 2.3194624748	 0.4002563395	-0.31477
N	-0.6219414597	 2.031789974	-1.1513790862	-0.068299
C	 0.040737153	 1.9438855666	-2.4770818452	-0.177185
C	-0.4986548365	 3.3627542183	-2.7842899581	-0.226869
C	-0.7222683804	 3.5077248908	-1.2589763998	-0.179745
H	-0.6022137247	 1.7446748056	 0.8966539908	 0.180014
H	 1.1375897789	 1.922492299	-2.4110062031	 0.12244
H	-0.3027125803	 1.1091948969	-3.0927031262	 0.129355
H	 0.1966768821	 4.0625803132	-3.2455930208	 0.123491
H	-1.4329306699	 3.3455758963	-3.346556024	 0.126396
H	-1.6730367881	 3.9178459282	-0.9066895116	 0.119007
H	 0.1078737371	 4.0360012067	-0.7686335892	 0.120086
72.1221	102.5679	131.6736	149.0114	189.6896	328.2732	336.0482	375.9259	490.2294	554.964	577.3857	723.6399	785.5933	848.7072	878.2521	922.7709	942.9252	987.3586	1005.5688	1084.0497	1140.6226	1155.8033	1193.9372	1218.4282	1225.3393	1270.1648	1288.4439	1302.3197	1337.3051	1355.2717	1487.9371	1504.6592	1529.3889	2350.1171	2376.3416	3004.4248	3012.2208	3031.5464	3082.1213	3094.377	3101.3468	3156.905
N#CC(C#N)N1CCC1	N#CC(C#N)N1CCC1	
InChI=1S/C6H7N3/c7-4-6(5-8)9-2-1-3-9/h6H,1-3H2	InChI=1S/C6H7N3/c7-4-6(5-8)9-2-1-3-9/h6H,1-3H2
