15
gdb 66705	2.92536	1.67449	1.29433	3.373	74.54	-0.2381	0.0008	0.2389	971.6231	0.112242	-379.569778	-379.562475	-379.561531	-379.601483	27.994	
C	-0.0254581454	 1.4830745032	 0.0298730513	-0.518441
C	-0.0124151878	-0.0006925281	-0.0361583495	 0.319107
C	-0.0970654509	-1.0051662355	-1.146090847	-0.21653
C	 0.7999514947	-1.9371183355	-0.3003761844	-0.047769
C	-0.1844987575	-1.9461912624	 0.8094584536	-0.130069
N	 0.9018896178	-0.9085050336	 0.7953515508	-0.198842
C	-1.1429570709	-1.0308858267	 0.0066726709	 0.241915
C	-2.54368633	-0.8717514464	-0.0586120856	 0.117779
N	-3.6939823858	-0.7344448203	-0.103532309	-0.358395
H	 0.9409340831	 1.889922077	-0.2853824872	 0.142026
H	-0.8027661782	 1.8856989059	-0.6270006106	 0.144069
H	-0.2261913258	 1.8226885923	 1.0508223782	 0.146395
H	-0.2978130082	-0.8961522753	-2.2024384348	 0.123191
H	 1.6136682567	-2.6057526326	-0.5496280945	 0.116048
H	-0.3472110318	-2.6176005619	 1.6426646377	 0.119516
115.8731	158.2497	202.7776	263.1049	289.0795	495.9208	521.7971	538.2494	622.1401	699.0763	737.5356	770.9341	796.4329	854.2991	875.5465	895.0436	923.7786	954.9359	987.0141	1014.292	1056.135	1094.5008	1123.3406	1170.0564	1186.437	1242.9053	1306.3966	1327.5019	1402.4617	1461.2791	1470.5956	1493.8207	2332.3955	3036.3891	3106.8856	3115.2726	3193.5049	3206.8643	3225.9124
CC12C3C4C(N14)C23C#N	C[C@@]12[C@H]3[C@@H]4[C@@H](N14)[C@@]23C#N	
InChI=1S/C7H6N2/c1-6-4-3-5(9(3)6)7(4,6)2-8/h3-5H,1H3	InChI=1S/C7H6N2/c1-6-4-3-5(9(3)6)7(4,6)2-8/h3-5H,1H3/t3-,4-,5-,6+,7+,9?/m1/s1
