19
gdb 90232	2.5391	1.66336	1.5152	2.6764	73.36	-0.2339	0.0533	0.2872	982.7241	0.159092	-422.942418	-422.934568	-422.933624	-422.974475	31.324	
O	 0.527573143	 0.8958407665	-0.720386971	-0.419463
C	 0.0608282541	-0.2310423883	-0.0288079451	 0.070673
C	 0.1717592928	-0.2581749397	 1.5498057051	-0.353781
C	-1.332782433	-0.635213973	 1.6363546371	 0.197988
C	-2.4171236114	 0.4651934417	 1.839977907	-0.29408
C	-2.5286948556	 0.6269159764	 0.2736893789	-0.312869
C	-1.4692452377	-0.4908403859	 0.1326807685	 0.359315
O	-1.9257607786	-1.846005998	-0.0555683565	-0.334659
C	-1.7868387109	-2.0867821965	 1.3847293735	-0.149795
H	 0.1658756186	 1.6839164711	-0.3015915756	 0.280684
H	 0.5344838262	-1.0960979993	-0.4997082652	 0.108344
H	 0.8911141068	-0.9674740281	 1.9674919782	 0.109315
H	 0.3878990075	 0.730608794	 1.968673713	 0.099271
H	-3.3317696758	 0.1220166082	 2.3305338627	 0.109349
H	-2.0637185962	 1.3550334164	 2.3676232681	 0.102954
H	-3.4959795115	 0.3625729287	-0.1570687322	 0.123067
H	-2.2325096081	 1.6041515576	-0.1206371532	 0.095021
H	-1.0420696095	-2.8656386236	 1.5912866332	 0.104296
H	-2.7432529608	-2.3774149281	 1.8362928136	 0.10437
88.8398	195.9274	241.6259	278.9427	303.7981	335.7885	377.0184	449.953	563.6911	635.979	694.7003	711.6531	717.923	806.3506	865.0712	889.7915	895.9078	911.335	929.4793	952.7049	1009.2728	1047.3213	1112.5335	1119.8353	1145.3963	1160.2185	1190.0174	1216.7368	1225.9941	1241.9587	1253.7015	1270.0953	1274.7621	1280.4672	1314.7059	1341.8551	1425.299	1458.9508	1459.4974	1478.5949	1513.771	3010.0348	3043.2156	3051.0522	3056.8034	3058.7482	3083.1847	3103.6742	3105.5169	3125.2736	3808.2247
OC1CC23CCC12OC3	O[C@H]1C[C@@]23CC[C@@]12OC3	
InChI=1S/C7H10O2/c8-5-3-6-1-2-7(5,6)9-4-6/h5,8H,1-4H2	InChI=1S/C7H10O2/c8-5-3-6-1-2-7(5,6)9-4-6/h5,8H,1-4H2/t5-,6+,7+/m0/s1
