22
gdb 111499	2.77029	1.33854	1.1288	1.5518	81.05	-0.2203	0.0631	0.2834	1194.3304	0.195348	-404.331597	-404.322695	-404.32175	-404.364861	34.722	
C	-0.0657129518	 1.5325943278	 0.1149053588	-0.385726
C	-0.0503334014	 0.0041111034	 0.0165227515	-0.17989
C	 0.6108129838	-0.5251183903	-1.2623561385	 0.020843
C	 0.735986445	-2.0434536871	-1.3407181226	-0.046896
C	-0.4493597886	-2.8355252421	-1.7616402429	-0.25092
N	 0.6076079296	-2.5048288384	-2.7368540548	-0.108554
C	 0.315359169	-1.3033920439	-3.5393005128	-0.1778
C	-0.0843687953	-0.1452040665	-2.5944281508	 0.051516
O	-1.4941839548	-0.0598661102	-2.3777563366	-0.420549
H	 0.9455063421	 1.9492541355	 0.0394254706	 0.106072
H	-0.6737891915	 1.9675385424	-0.6834571941	 0.126033
H	-0.4870257952	 1.8597887498	 1.0706022517	 0.109297
H	 0.4900519254	-0.4128762225	 0.8758328407	 0.089413
H	-1.0732035278	-0.3784752409	 0.0746700302	 0.11495
H	 1.6299938529	-0.1161405115	-1.3139374553	 0.074589
H	 1.5146829077	-2.5149400486	-0.7464265014	 0.083628
H	-0.5013402703	-3.8913870463	-1.5104508432	 0.107926
H	-1.4041312138	-2.3266107499	-1.8390522253	 0.131971
H	 1.2309379546	-1.040793176	-4.0828125775	 0.104766
H	-0.4631784706	-1.5120625044	-4.2823738826	 0.094404
H	 0.2846337203	 0.8180020644	-2.971860548	 0.070653
H	-1.9102422492	 0.1376725054	-3.2225403771	 0.284275
95.7425	121.8069	186.4042	219.8333	272.4946	289.8988	299.9458	363.2802	406.7952	457.5335	526.6996	656.7265	727.8832	754.5309	797.5457	827.7461	861.9806	877.0795	947.6319	965.0676	986.2655	1023.2127	1028.689	1052.9978	1076.1158	1108.9933	1123.2571	1152.3659	1159.5746	1188.6582	1208.7681	1244.3442	1266.9531	1288.5218	1311.911	1327.9802	1341.2213	1353.6734	1388.7816	1394.8114	1408.2698	1427.5372	1479.9417	1485.4037	1498.295	1502.7268	1511.2308	2995.9166	3009.3451	3028.6462	3030.0386	3032.0442	3070.3892	3082.6671	3100.684	3114.6771	3114.8847	3136.4188	3212.7539	3822.4868
CCC1C2CN2CC1O	CC[C@H]1[C@H]2CN2C[C@H]1O	
InChI=1S/C7H13NO/c1-2-5-6-3-8(6)4-7(5)9/h5-7,9H,2-4H2,1H3	InChI=1S/C7H13NO/c1-2-5-6-3-8(6)4-7(5)9/h5-7,9H,2-4H2,1H3/t5-,6+,7+,8?/m0/s1
