15
gdb 31911	6.20114	0.88611	0.78215	1.2334	80.	-0.2306	-0.0312	0.1994	1394.8948	0.113003	-416.803646	-416.795188	-416.794243	-416.837332	30.495	
N	 0.5008044864	 0.9216069149	-0.6604459582	-0.484788
C	-0.1590605136	 0.2982729543	 0.4755727252	-0.290838
C	-1.5323063229	-0.245749036	 0.193447684	 0.380757
N	-2.1862210418	-0.2242694695	-0.9285222432	-0.306218
C	-3.3857817906	-0.8501718979	-0.6446083501	-0.203109
C	-3.4056033297	-1.2308599779	 0.663677991	 0.182789
O	-2.1991727742	-0.8379571038	 1.2110610976	-0.204635
C	-4.3415956662	-1.8870581622	 1.475901567	 0.234193
C	-5.1564392831	-2.451754789	 2.1598635749	-0.403601
H	 0.5563233596	 0.2495489354	-1.4210454468	 0.24025
H	-0.0890145186	 1.6686376288	-1.0172595067	 0.240238
H	 0.4680594818	-0.5171228078	 0.8577942089	 0.140284
H	-0.2321953128	 1.0231116776	 1.2962405839	 0.140281
H	-4.1541325162	-0.9882434801	-1.3879669169	 0.134778
H	-5.8743892382	-2.9495734769	 2.7634513392	 0.199618
48.0065	126.9167	133.531	211.4876	220.1872	294.4848	396.5267	457.2478	543.9106	550.5385	614.2551	680.0139	685.9677	692.146	718.3	871.8891	913.2308	933.1718	979.6549	1009.0421	1141.2507	1165.1729	1188.9589	1198.4712	1245.9374	1309.5884	1391.7732	1395.5816	1470.1039	1569.2898	1611.1407	1679.5709	2234.1362	3029.3205	3059.4495	3273.0382	3494.4564	3503.0282	3561.8618
NCC1=NC=C(O1)C#C	NCc1ncc(o1)C#C	
InChI=1S/C6H6N2O/c1-2-5-4-8-6(3-7)9-5/h1,4H,3,7H2	InChI=1S/C6H6N2O/c1-2-5-4-8-6(3-7)9-5/h1,4H,3,7H2
