23
gdb 102568	1.81024	1.21797	0.85374	1.7135	82.38	-0.25	0.0786	0.3286	1462.1237	0.204018	-425.399282	-425.388514	-425.38757	-425.435428	39.511	
C	-0.220286179	 1.7694149764	 0.3378059069	-0.393037
C	-0.0762716958	 0.2509595274	 0.1744142719	-0.202936
C	-1.4132368903	-0.4910290118	-0.0219173517	 0.030103
C	-1.9966279093	-0.2031679867	-1.4107444393	-0.08761
O	-3.3205187163	-0.7229530338	-1.463070696	-0.422813
C	-1.3574768192	-2.0070382206	 0.1770887857	-0.027208
C	-0.0751546162	-2.8230030476	 0.1583176412	-0.342202
C	-0.8832346679	-2.6847546131	 1.4269060328	 0.082803
O	-0.4122984438	-1.8789471177	 2.4734745566	-0.413688
H	 0.7555374801	 2.2329904952	 0.514780168	 0.108212
H	-0.6523829709	 2.2506271807	-0.5452059723	 0.112988
H	-0.8611914782	 2.0105065216	 1.1929514845	 0.119663
H	 0.5893340001	 0.0325697829	-0.6720016098	 0.085951
H	 0.4088986513	-0.1480990004	 1.067380993	 0.117577
H	-2.1329757937	-0.0921258048	 0.7067266384	 0.08786
H	-2.0020873172	 0.8793178394	-1.6011549565	 0.083819
H	-1.3563425566	-0.6728526465	-2.1756496802	 0.083646
H	-3.6524246126	-0.6097864914	-2.3580379203	 0.285331
H	-2.2146761273	-2.4920584779	-0.2788838629	 0.104909
H	-0.0609954037	-3.7753047891	-0.3615946463	 0.103788
H	 0.8632603373	-2.2802915147	 0.1298991433	 0.112411
H	-1.4507727664	-3.5535600923	 1.7614521226	 0.083812
H	 0.3075849555	-2.3491463552	 2.9068843203	 0.286619
50.8087	76.7274	118.432	173.8543	193.6954	222.9352	239.0285	256.2827	297.485	311.3109	349.4665	413.2708	481.6882	530.6882	603.4122	739.5367	780.1755	813.3566	860.3287	899.651	959.8289	978.8825	999.6431	1020.5226	1050.475	1057.3121	1080.3236	1119.8311	1130.4133	1144.0391	1175.1331	1196.0764	1244.4391	1250.6031	1266.1969	1289.6283	1302.8119	1333.2091	1345.2302	1393.3886	1394.2171	1413.5359	1426.1987	1453.1038	1492.5702	1497.9001	1502.2889	1509.4386	1518.5382	2965.7217	3004.8736	3014.5389	3024.1276	3035.06	3091.2136	3093.7681	3099.0136	3117.1872	3131.3598	3160.7418	3219.8256	3803.5513	3834.683
CCC(CO)C1CC1O	CC[C@@H](CO)[C@H]1C[C@H]1O	
InChI=1S/C7H14O2/c1-2-5(4-8)6-3-7(6)9/h5-9H,2-4H2,1H3	InChI=1S/C7H14O2/c1-2-5(4-8)6-3-7(6)9/h5-9H,2-4H2,1H3/t5-,6+,7+/m0/s1
