23
gdb 74282	2.39288	1.31953	1.04956	1.4848	88.91	-0.2356	0.0189	0.2545	1287.7491	0.205116	-388.324371	-388.314596	-388.313652	-388.358223	38.013	
C	-0.0153186912	 1.5417445247	 0.0614191235	-0.473703
C	 0.0239399882	 0.0399341501	-0.0173928053	 0.299669
C	-0.0132766961	-0.6138662233	-1.182080751	-0.196371
C	 0.0001760843	-2.1190419477	-1.3376168573	 0.353089
C	-0.9812822048	-2.5533330188	-2.434255476	-0.423752
O	 1.3249640247	-2.5703260146	-1.6978438837	-0.471758
C	-0.3162680241	-2.8110048585	-0.0049146256	-0.207425
C	 0.4672710436	-2.1716961892	 1.1428547466	-0.220913
C	 0.0866307138	-0.6953351611	 1.3021927942	-0.282657
H	 0.8869013672	 1.9350258298	 0.5473002258	 0.123636
H	-0.099961922	 2.0005977556	-0.9272962851	 0.118254
H	-0.865044145	 1.8801874462	 0.6686894157	 0.123367
H	-0.0621720449	-0.0432231734	-2.1105248399	 0.066331
H	-0.7131483476	-2.0939462238	-3.3925669349	 0.100102
H	-0.9480821822	-3.6397755201	-2.5590030137	 0.11752
H	-2.0072045461	-2.2562301699	-2.193005491	 0.111987
H	 1.6916125562	-1.9319990849	-2.3183145153	 0.271839
H	-1.3938853243	-2.7402024222	 0.1881272624	 0.08786
H	-0.0694769032	-3.8731447298	-0.1034826572	 0.100126
H	 0.2919735289	-2.7103169667	 2.079934026	 0.085396
H	 1.5356436482	-2.2518945706	 0.9161067687	 0.11445
H	 0.7957880197	-0.1858836544	 1.9678594642	 0.098825
H	-0.8916485834	-0.6052339574	 1.8005116587	 0.10413
101.6497	133.4787	188.2749	199.2926	245.4523	250.0347	276.0262	335.4889	354.5926	410.7516	423.1828	491.9459	498.2058	519.3076	597.3156	747.5812	814.5219	860.6287	883.5021	894.7817	923.2701	956.5903	982.8853	1016.4453	1034.1113	1052.8704	1069.7731	1119.7055	1137.7417	1165.4844	1194.8292	1212.4898	1237.8443	1288.5532	1336.5119	1368.3524	1376.8223	1388.9099	1397.4013	1407.8012	1413.6872	1468.3958	1477.6597	1479.4429	1488.7257	1490.4858	1491.8149	1494.4624	1731.1656	2987.0489	3014.5957	3025.4117	3030.0428	3031.2636	3045.9892	3061.123	3078.9556	3089.1381	3095.0227	3108.0588	3112.0887	3113.384	3813.2446
CC1=CC(C)(O)CCC1	CC1=C[C@@](C)(O)CCC1	
InChI=1S/C8H14O/c1-7-4-3-5-8(2,9)6-7/h6,9H,3-5H2,1-2H3	InChI=1S/C8H14O/c1-7-4-3-5-8(2,9)6-7/h6,9H,3-5H2,1-2H3/t8-/m0/s1
