25
gdb 95799	2.12271	1.44438	1.02967	1.4217	88.	-0.2579	0.0729	0.3307	1294.8608	0.230112	-389.520595	-389.510849	-389.509905	-389.554207	38.623	
C	-0.0460369608	 1.5490242344	-0.0412733489	-0.4142
C	 0.0648404996	 0.0207693055	-0.0075501667	 0.032668
C	 0.6717268759	-0.5358083838	-1.3086299662	-0.183317
C	 0.7209336192	-2.0700629332	-1.3079590695	-0.215158
C	 1.4396028338	-2.6067402608	-0.0614652735	-0.22173
C	 0.8117587625	-2.043393127	 1.2190904114	 0.125041
O	 1.4757759295	-2.5018762912	 2.3922137016	-0.446207
C	 0.8177131162	-0.5030642043	 1.2438730682	 0.030148
C	 2.2312175177	 0.0748880787	 1.4247500489	-0.407788
H	 0.9291329953	 2.022693132	-0.1944732292	 0.116727
H	-0.698987043	 1.8723570685	-0.8589724408	 0.107676
H	-0.4632894066	 1.9392702559	 0.8935805316	 0.108902
H	-0.9591600589	-0.3776269005	 0.0605923056	 0.064959
H	 0.0861976626	-0.180354006	-2.1649573737	 0.08748
H	 1.6844047368	-0.134058245	-1.4451347223	 0.094782
H	-0.3051056056	-2.4627590422	-1.3296471771	 0.092709
H	 1.2110444244	-2.4386386058	-2.2158390139	 0.09172
H	 1.3918498334	-3.704015895	-0.0399701122	 0.076704
H	 2.5028790891	-2.3401325964	-0.0885085693	 0.103831
H	-0.2445257091	-2.365483519	 1.2458660864	 0.055223
H	 1.5240823045	-3.4619548915	 2.3482147253	 0.277008
H	 0.236506705	-0.2068599603	 2.1273131779	 0.069901
H	 2.863892061	-0.0707117099	 0.5437137802	 0.109066
H	 2.1910108314	 1.1489275546	 1.6255108073	 0.108725
H	 2.7221184662	-0.4110808077	 2.2700757088	 0.135131
126.2256	150.9634	203.256	237.0311	247.4556	261.7133	284.4778	300.8864	321.7	376.2049	417.7377	424.7522	538.8584	555.4536	599.4171	757.5439	815.9649	848.9642	882.326	900.7311	951.5895	983.3932	993.4376	1022.2048	1036.0755	1048.9901	1066.005	1098.1669	1131.4081	1158.9674	1174.0934	1181.9368	1239.7717	1264.8265	1270.3939	1307.3833	1333.1796	1345.282	1355.4015	1374.9828	1378.4272	1392.8793	1400.161	1409.9432	1413.2858	1438.3893	1483.3284	1486.0303	1495.0161	1496.2147	1506.2898	1509.8366	1514.76	2933.9342	2979.9576	3009.3722	3012.9112	3016.8174	3019.4931	3029.0769	3049.5068	3056.9252	3058.0671	3070.8742	3093.881	3099.2554	3110.8546	3134.7851	3818.0679
CC1CCCC(O)C1C	C[C@H]1CCC[C@@H](O)[C@H]1C	
InChI=1S/C8H16O/c1-6-4-3-5-8(9)7(6)2/h6-9H,3-5H2,1-2H3	InChI=1S/C8H16O/c1-6-4-3-5-8(9)7(6)2/h6-9H,3-5H2,1-2H3/t6-,7-,8+/m0/s1
