21
gdb 97680	2.56726	0.85848	0.70191	1.9433	89.15	-0.2438	0.0348	0.2786	1704.8102	0.179799	-387.053422	-387.042796	-387.041852	-387.090626	37.542	
C	 0.263072423	 1.3002076435	 0.4984813674	-0.365385
C	-0.0792770968	 0.2309454233	-0.5550440273	-0.321877
C	-1.4068599552	-0.3472872725	-0.3771841265	 0.142838
C	-2.50072104	-0.8267953906	-0.2143971252	 0.010361
C	-3.8282457473	-1.3642412134	-0.018392754	 0.212268
C	-4.8768874525	-0.3945767316	 0.5030367139	-0.260651
C	-4.5521634264	 0.1274666703	 1.9060349879	-0.379718
C	-4.2408790361	-2.5510176185	-0.7963026125	-0.219353
O	-3.884383229	-2.6817302135	 0.5752838222	-0.266166
H	 1.2660946776	 1.700170846	 0.3229524688	 0.115775
H	-0.4498578864	 2.1282323748	 0.4578807181	 0.127747
H	 0.2314921808	 0.8764522383	 1.5057428453	 0.131772
H	-0.0049214377	 0.6671212556	-1.5596919724	 0.130486
H	 0.6682624219	-0.571877347	-0.5204185408	 0.13453
H	-4.9611477282	 0.440355797	-0.2028206631	 0.10544
H	-5.8414933205	-0.9132949909	 0.5101324084	 0.103857
H	-5.3304817692	 0.8117907304	 2.2558955577	 0.111214
H	-4.480703506	-0.7014299074	 2.6164285217	 0.131941
H	-3.5983660273	 0.6632498065	 1.9137125056	 0.126879
H	-5.2971629176	-2.6909221732	-1.0263213239	 0.111029
H	-3.5435141269	-2.9908958269	-1.5071248515	 0.117014
24.9573	62.8095	96.5462	114.2898	177.122	216.7528	232.8835	244.7775	342.1439	344.8682	410.7207	503.0428	530.0418	567.6802	622.0485	761.3954	785.326	819.9373	854.656	923.9307	961.8561	997.1649	1049.3819	1078.7594	1099.3738	1104.2971	1107.6436	1136.6372	1167.7369	1265.1936	1286.6268	1294.9735	1343.8103	1357.8985	1395.0953	1407.7445	1410.0845	1471.2414	1472.9277	1495.2623	1496.3228	1505.4041	1508.5656	1519.9132	2359.9714	3020.566	3035.189	3042.5583	3045.1616	3048.3924	3076.4559	3078.1213	3114.1741	3118.5148	3119.3872	3124.8009	3169.455
CCC#CC1(CC)CO1	CCC#C[C@@]1(CC)CO1	
InChI=1S/C8H12O/c1-3-5-6-8(4-2)7-9-8/h3-4,7H2,1-2H3	InChI=1S/C8H12O/c1-3-5-6-8(4-2)7-9-8/h3-4,7H2,1-2H3/t8-/m0/s1
