23
gdb 115362	3.41295	0.9487	0.84907	1.8582	88.04	-0.2465	0.0125	0.259	1474.4177	0.206655	-388.312477	-388.302966	-388.302022	-388.346855	36.455	
C	 0.0376206983	 1.594328859	 0.1399703337	-0.392732
C	-0.0080273645	 0.0693066685	 0.0039237232	-0.18117
C	 0.6530544618	-0.4854971259	-1.2753884182	-0.002578
C	 0.846137275	-2.0081007292	-1.1914004987	-0.224256
C	 1.2993294669	-2.5880614461	-2.5340435708	-0.233377
C	 0.2543963626	-2.3379789362	-3.6317607933	 0.107248
O	-0.8153096094	-3.2925966391	-3.5889621051	-0.440204
C	-0.2906369372	-0.9342380479	-3.5675269567	-0.122773
C	-0.1156701749	-0.1205119712	-2.5241690335	-0.037791
H	 1.0702389494	 1.9606914611	 0.1249809452	 0.115542
H	-0.5030796744	 2.0985147314	-0.6672019844	 0.119905
H	-0.4144964223	 1.9152618455	 1.0835438894	 0.11465
H	 0.4977505335	-0.3790975541	 0.8684596258	 0.094928
H	-1.0490968857	-0.2771747878	 0.0463436936	 0.094087
H	 1.6512035411	-0.020778267	-1.3479706595	 0.080393
H	 1.5649588537	-2.25023251	-0.4010854846	 0.092322
H	-0.1048720934	-2.4737820363	-0.894942825	 0.085754
H	 2.2464353609	-2.1193707536	-2.8325789356	 0.09264
H	 1.475962435	-3.6655198368	-2.4621887306	 0.100918
H	 0.7187348429	-2.5067824394	-4.6106833312	 0.083676
H	-1.4112189285	-3.0195550487	-2.8835539533	 0.275826
H	-0.884786727	-0.6110919983	-4.4190602898	 0.089795
H	-0.5479615338	 0.8772409122	-2.5583784508	 0.0872
61.2715	92.9235	178.5979	202.8304	236.2529	254.8687	283.7879	349.8579	385.4432	420.64	470.535	553.9775	591.6671	718.7006	750.037	770.5351	826.3532	848.2423	924.383	941.4316	955.8271	1006.8363	1012.5805	1023.3416	1052.1586	1075.3407	1095.8162	1129.4382	1140.7188	1173.135	1218.8342	1254.7183	1266.6175	1278.7807	1307.3235	1343.1731	1362.463	1366.7465	1379.6471	1386.2924	1410.4783	1414.4604	1432.5595	1475.6804	1483.9505	1494.1477	1500.555	1506.6788	1708.9342	2956.6587	3005.4242	3017.0932	3020.6892	3033.2649	3038.9958	3049.6107	3064.8078	3084.5963	3099.192	3104.111	3140.6133	3164.7239	3811.5648
CCC1CCC(O)C=C1	CC[C@H]1CC[C@@H](O)C=C1	
InChI=1S/C8H14O/c1-2-7-3-5-8(9)6-4-7/h3,5,7-9H,2,4,6H2,1H3	InChI=1S/C8H14O/c1-2-7-3-5-8(9)6-4-7/h3,5,7-9H,2,4,6H2,1H3/t7-,8+/m1/s1
