20
gdb 100706	2.90109	1.02462	0.79294	6.9721	71.64	-0.2503	0.0284	0.2787	1428.3928	0.170519	-477.459009	-477.449072	-477.448128	-477.494206	36.586	
C	-0.3016421729	 1.4690926844	 0.1163400163	-0.40231
C	-0.0443596101	-0.0323390065	-0.0470474891	-0.153971
C	 0.6935811358	-0.3801057868	-1.3502069512	 0.12326
O	 0.7221062693	-1.8009048882	-1.4766372622	-0.451268
C	 0.0444790352	 0.1836878547	-2.6226492174	-0.190186
N	 0.7001329798	-0.4513513166	-3.7774335882	-0.529412
H	 0.108381285	-0.4114930225	-4.5989448009	 0.245969
H	 1.5626523812	 0.0308137477	-4.0106778215	 0.241601
H	 0.9274855097	-1.963630774	-2.4142073467	 0.295377
C	 0.6784122915	-0.5817226399	 1.2060864609	 0.417629
O	 0.7306199103	 0.0274008148	 2.242596097	-0.331015
O	 1.2245376396	-1.8015780434	 1.0934521343	-0.38011
H	 0.6260162905	 2.0420865587	 0.0129841301	 0.121251
H	-1.0184680719	 1.8363116563	-0.6227134167	 0.108445
H	-0.6915740381	 1.6647544075	 1.1153498527	 0.150536
H	-1.0061870776	-0.564473701	-0.0892624339	 0.111797
H	 1.7268366942	 0.00640698	-1.2882695383	 0.077483
H	 1.1193583354	-2.1274856155	 0.1762091366	 0.318228
H	-1.0124762544	-0.1043431365	-2.6338061199	 0.118139
H	 0.0973302876	 1.2792311768	-2.6309184619	 0.10856
59.8574	75.335	132.4072	177.943	213.5368	263.7445	296.87	315.7056	343.1884	392.6469	399.8619	532.9964	537.0991	623.1515	631.7945	726.1839	781.1052	832.4405	841.9849	896.9201	949.4996	980.8898	1044.594	1076.8633	1079.0735	1123.601	1139.1789	1191.3783	1235.8259	1283.0821	1320.891	1325.7356	1332.3225	1376.3209	1400.4497	1411.3664	1440.0746	1453.3332	1490.8813	1496.7811	1502.1242	1656.6892	1850.4691	2941.463	3010.7599	3023.9126	3046.7757	3081.2618	3111.2591	3151.4589	3509.204	3511.2155	3593.7222	3632.0464
CC(C(O)C[NH3+])C([O-])=O	C[C@@H]([C@@H](O)CN)C(=O)O	
InChI=1S/C5H11NO3/c1-3(5(8)9)4(7)2-6/h3-4,7H,2,6H2,1H3,(H,8,9)	InChI=1S/C5H11NO3/c1-3(5(8)9)4(7)2-6/h3-4,7H,2,6H2,1H3,(H,8,9)/t3-,4-/m0/s1
