23
gdb 101242	2.57453	0.95839	0.82887	1.0547	82.63	-0.2476	0.0757	0.3234	1503.0893	0.202625	-425.4111	-425.40013	-425.399186	-425.44685	40.768	
C	-0.6367556165	 1.1178789849	-1.0434550913	-0.389431
C	 0.3163090034	-0.080758319	-1.157055844	 0.000165
C	 1.4309860058	 0.1908365963	-2.1705938693	-0.075253
O	 0.8371626732	 0.4246318761	-3.4404854809	-0.42525
C	 0.9094486534	-0.4384126536	 0.1928080943	-0.021805
C	 0.1320775993	-1.2488910491	 1.2168817133	-0.369874
C	 1.3851570666	-1.8098957632	 0.5835267187	 0.388468
C	 1.3128560665	-3.0056792134	-0.3393363064	-0.452529
O	 2.5582018804	-1.7757955014	 1.3632660074	-0.469298
H	-0.1108504046	 1.9948122777	-0.6467029935	 0.105776
H	-1.0410128756	 1.3805469024	-2.0233016219	 0.129727
H	-1.4673739054	 0.8942990546	-0.3672322397	 0.109632
H	-0.2578772071	-0.9347122992	-1.5387477128	 0.076166
H	 2.0193108574	 1.0631216349	-1.8394482363	 0.082976
H	 2.1151411647	-0.670650702	-2.2063930309	 0.089595
H	 1.5346976604	 0.6510522515	-4.0618753959	 0.285943
H	 1.5200185898	 0.3502324464	 0.6281460016	 0.090722
H	 0.1885867283	-0.9419476706	 2.2553441647	 0.108385
H	-0.8246930866	-1.6637653293	 0.9129743798	 0.105605
H	 1.2883313837	-3.934915977	 0.2441245358	 0.105494
H	 0.4168329879	-2.9905558089	-0.9646108321	 0.123202
H	 2.1917774722	-3.0442481523	-0.99086576	 0.124668
H	 2.5267464128	-2.5236761658	 1.9708336095	 0.276916
67.7631	97.7334	114.6593	180.1028	226.9266	238.6266	242.139	263.3936	294.8898	322.5973	343.5015	369.1676	424.5251	444.9641	515.3278	528.0444	717.4857	809.7609	873.2965	907.8552	926.3253	927.8015	956.9175	982.0265	1038.7583	1043.2827	1069.9449	1087.3744	1100.8817	1123.2254	1165.7843	1191.7564	1230.8814	1255.7075	1267.3742	1290.8282	1310.6014	1354.5353	1370.0308	1398.9711	1417.8915	1427.6545	1455.9904	1480.8638	1489.0105	1493.4472	1503.8596	1511.3555	1520.419	2961.1293	2998.1651	3023.0481	3028.0983	3033.6434	3085.5433	3097.2179	3120.0092	3123.3238	3130.3807	3130.8621	3214.1106	3785.9589	3834.2385
CC(CO)C1CC1(C)O	C[C@@H](CO)[C@H]1C[C@]1(C)O	
InChI=1S/C7H14O2/c1-5(4-8)6-3-7(6,2)9/h5-6,8-9H,3-4H2,1-2H3	InChI=1S/C7H14O2/c1-5(4-8)6-3-7(6,2)9/h5-6,8-9H,3-4H2,1-2H3/t5-,6+,7-/m0/s1
