23
gdb 77559	2.25703	1.42956	1.29943	1.2226	85.75	-0.2411	0.0708	0.3119	1177.589	0.203517	-388.274646	-388.264586	-388.263642	-388.308472	39.028	
C	 0.0029380416	 1.5466872244	 0.0189095309	-0.507982
C	 0.045895942	 0.0448466721	-0.0104358942	 0.37943
C	-0.8833289369	-0.8225751121	 0.7945427264	-0.349998
C	 0.5978941045	-0.9656495193	 1.0066541608	-0.131984
C	 1.2551753713	-1.7996148021	-0.1091806524	 0.295292
C	 2.7799498066	-1.6838081847	-0.0660351919	-0.444425
C	 0.8228257323	-3.2573331358	-0.2451750564	-0.446312
C	 0.6341353869	-0.7790421499	-1.1524641149	-0.011603
O	-0.3400564782	-1.2435602114	-2.0658859175	-0.430652
H	 0.9724055075	 1.9835074455	-0.247939171	 0.111456
H	-0.7414999744	 1.9344119285	-0.6867674268	 0.126036
H	-0.2651460445	 1.9139385983	 1.0151236856	 0.115023
H	-1.4113177697	-0.2990594768	 1.5861681085	 0.104132
H	-1.4655191711	-1.6034329766	 0.31644447	 0.119435
H	 1.0618053574	-0.7585109524	 1.9656775993	 0.075052
H	 3.1932519778	-2.2379195014	 0.7845915222	 0.111573
H	 3.2331733027	-2.0886619238	-0.9786874753	 0.104461
H	 3.0971492886	-0.6400571661	 0.03391663	 0.112029
H	-0.260701401	-3.3579830339	-0.333553207	 0.124239
H	 1.2711108802	-3.7182661396	-1.1343948567	 0.097824
H	 1.150632174	-3.839242654	 0.6236800709	 0.110929
H	 1.4301232471	-0.2333693897	-1.6798972958	 0.054699
H	 0.1050369652	-1.7644757693	-2.7419644047	 0.281342
112.121	169.5358	192.9393	206.3967	231.2475	241.7922	252.9528	288.2423	312.7719	342.5663	352.8151	459.3941	494.1689	566.8961	579.3703	704.9505	780.8399	825.9464	851.6906	936.7294	948.0889	952.7329	980.4583	982.5946	1013.0798	1021.7019	1065.7484	1084.375	1107.2153	1120.3739	1170.6758	1201.5421	1222.1975	1236.9687	1260.2741	1311.1435	1324.5629	1380.7198	1399.0552	1414.9008	1423.7156	1436.8286	1481.8273	1483.388	1485.9764	1499.1941	1500.187	1505.226	1507.5458	2989.1848	3017.6927	3020.	3024.8759	3078.2388	3078.5974	3085.7883	3091.0978	3093.6113	3122.2336	3126.0117	3160.5624	3204.9693	3815.2057
CC12CC1C(C)(C)C2O	C[C@]12C[C@H]1C(C)(C)[C@H]2O	
InChI=1S/C8H14O/c1-7(2)5-4-8(5,3)6(7)9/h5-6,9H,4H2,1-3H3	InChI=1S/C8H14O/c1-7(2)5-4-8(5,3)6(7)9/h5-6,9H,4H2,1-3H3/t5-,6+,8-/m0/s1
