19
gdb 99406	1.78323	1.48725	0.90534	3.0213	76.83	-0.2525	-0.0269	0.2256	1313.2374	0.157416	-456.351427	-456.341	-456.340055	-456.387394	36.17	
C	-1.3844377662	-1.5034972296	 2.5132464579	-0.332155
N	-0.8564553563	-1.7010138296	 1.1767333827	-0.254621
C	-1.2070454779	-0.9824065195	 0.189011394	 0.306688
C	-0.4128223959	-1.1643377848	-1.0987544409	-0.13235
O	 0.6401386684	-0.2109597241	-1.206546395	-0.403683
N	-2.2521430614	-0.0183772135	 0.1720632521	-0.125094
C	-3.55810157	-0.2977968491	 0.7777753151	-0.346943
C	-2.1364834337	 1.1548726645	-0.5533196329	 0.12228
O	-3.0340519546	 1.9606993437	-0.6590572683	-0.325916
H	-2.2093200315	-2.1978927513	 2.7135882978	 0.133198
H	-0.5919100971	-1.7436936209	 3.2285121557	 0.131635
H	-1.7351160784	-0.4832476935	 2.7110571123	 0.120321
H	-0.0251147559	-2.1886863783	-1.0960057137	 0.125584
H	-1.0421047885	-1.0200289129	-1.9808417332	 0.122015
H	 1.2181727191	-0.3469161661	-0.4468027885	 0.291786
H	-3.6893756757	 0.2128385292	 1.7358049074	 0.140269
H	-4.3301006353	 0.0627931963	 0.0959447122	 0.159746
H	-3.6647509164	-1.3726018366	 0.9224184367	 0.136109
H	-1.1383050129	 1.2836206859	-0.9985874912	 0.13113
65.9817	81.1424	86.6848	150.5515	185.8773	198.3522	251.1409	279.8952	331.4253	348.4129	364.3583	388.0944	440.348	556.9665	603.1087	770.8917	830.8515	923.6249	1013.7826	1024.9807	1070.4055	1080.6272	1111.2537	1125.6816	1148.3764	1178.1989	1216.5644	1303.1651	1329.8434	1369.8048	1419.022	1434.2077	1449.6925	1452.2459	1478.982	1488.7077	1495.1695	1504.9059	1521.3001	1723.5718	1795.3272	3011.8646	3033.3787	3045.2827	3054.5869	3076.3689	3091.73	3107.8201	3124.1339	3159.955	3799.1209
CN=C(CO)N(C)C=O	CN=C(CO)N(C)C=O	
InChI=1S/C5H10N2O2/c1-6-5(3-8)7(2)4-9/h4,8H,3H2,1-2H3	InChI=1S/C5H10N2O2/c1-6-5(3-8)7(2)4-9/h4,8H,3H2,1-2H3
