14
gdb 130950	6.53301	0.69694	0.66369	1.5578	64.77	-0.269	-0.0791	0.1899	1568.6513	0.099029	-469.957729	-469.949526	-469.948582	-469.992624	27.552	
O	-0.4891303831	 0.5154977738	 0.6582690517	-0.223658
C	 0.0839738134	 0.9839550834	-0.2882567245	 0.159253
C	 1.3552425053	 1.8044014392	-0.2083586044	-0.282223
C	 1.2258114477	 3.128324519	-0.991291272	-0.316495
C	 2.5232599795	 3.8525342045	-1.0890162501	 0.420771
N	 2.7770581318	 5.0259239154	-0.5845749075	-0.14394
O	 4.066468423	 5.2715949164	-0.9158799946	-0.135221
N	 4.559610604	 4.1886092242	-1.6368617959	 0.052798
N	 3.6373190039	 3.3422877799	-1.7386420466	-0.20288
H	-0.2960263114	 0.830573274	-1.3262022757	 0.078978
H	 1.6010712413	 1.979277015	 0.841883169	 0.141424
H	 2.1612295634	 1.2070232272	-0.6562097065	 0.152086
H	 0.868478927	 2.9186583182	-2.0068830421	 0.14428
H	 0.4972178542	 3.78924737	-0.5154988608	 0.154828
43.5258	66.5921	74.0378	122.8805	280.1555	322.2335	373.1177	518.2972	673.6684	697.1926	712.755	748.8533	802.0973	854.7978	957.5125	999.3538	1058.7637	1064.1612	1078.6824	1111.2746	1191.4394	1269.5984	1289.7175	1331.1861	1368.6304	1428.784	1462.3941	1477.5012	1490.2275	1601.0534	1843.9174	2853.9371	3029.8717	3043.3057	3106.0613	3121.0555
O=CCCC1=NON=N1	O=CCCc1nonn1	
InChI=1S/C4H5N3O2/c8-3-1-2-4-5-7-9-6-4/h3H,1-2H2	InChI=1S/C4H5N3O2/c8-3-1-2-4-5-7-9-6-4/h3H,1-2H2
