18
gdb 108692	2.35482	1.28985	0.84838	5.98	82.27	-0.2124	-0.0352	0.1772	1329.3071	0.146966	-439.098424	-439.088996	-439.088051	-439.133483	32.567	
C	-0.0928797896	 1.4867646464	-0.0437954443	-0.335798
N	 0.1513109492	 0.0566869543	 0.0203573972	-0.369864
C	 0.6156025786	-0.6777222569	-1.0189049347	 0.26835
C	 0.6621483351	-2.0301129012	-1.1836541332	 0.086002
C	 1.3524909399	-2.3395743739	-2.4859778997	-0.155782
O	 1.601007178	-1.0656997802	-3.0972124347	-0.267173
C	 1.2562971625	-0.0193121679	-2.2193342486	-0.139573
C	 0.1595105235	-3.0462019315	-0.3017111719	 0.045306
O	 0.2439483095	-4.2458317222	-0.5022899408	-0.301233
H	 0.7689975424	 2.0014510175	-0.4766850468	 0.150977
H	-0.9839438001	 1.7455341545	-0.6326653459	 0.134995
H	-0.2297606299	 1.867416047	 0.9706151892	 0.141608
H	-0.3277472553	-0.4441142318	 0.7517778084	 0.257099
H	 2.3022652466	-2.8752061222	-2.3417499976	 0.112768
H	 0.7351613779	-2.9472477844	-3.1599783989	 0.119215
H	 0.5701217684	 0.6826037903	-2.7186949383	 0.114961
H	 2.1476753849	 0.5597870077	-1.9202326294	 0.113388
H	-0.3449116414	-2.6717189655	 0.62362839	 0.024755
73.7723	86.9046	129.6995	142.3401	153.9332	194.1993	233.6648	325.1977	389.0768	475.7874	561.8416	581.9224	632.1808	709.4445	848.1041	946.8083	999.9189	1015.9897	1028.3444	1064.7497	1072.7863	1126.1904	1145.5077	1171.5742	1202.9455	1226.8795	1284.7547	1334.6607	1388.496	1421.2981	1452.5644	1475.5558	1488.1992	1494.2467	1512.8533	1522.3549	1534.892	1689.3619	1751.2511	2802.4495	2949.3139	2986.8816	2995.5272	3006.081	3032.3383	3090.3414	3130.6091	3626.632
CNC1=C(COC1)C=O	CNC1=C(COC1)C=O	
InChI=1S/C6H9NO2/c1-7-6-4-9-3-5(6)2-8/h2,7H,3-4H2,1H3	InChI=1S/C6H9NO2/c1-7-6-4-9-3-5(6)2-8/h2,7H,3-4H2,1H3
