16
gdb 105442	2.41225	1.49294	1.18559	2.4657	69.43	-0.2457	0.0059	0.2516	1065.6077	0.125705	-434.080843	-434.072561	-434.071616	-434.113902	30.511	
O	-0.0034026227	 1.4215217795	 0.1714522967	-0.4206
C	-0.0260851479	 0.0109856416	 0.10538101	-0.108126
C	-1.4697098387	-0.5333585767	-0.0227635916	 0.092198
C	-1.5411381008	-2.081230394	 0.2359809546	-0.210839
N	-2.0054467386	-2.2265174381	 1.6208831606	-0.237474
C	-2.384868124	-1.068710813	 1.9958774913	 0.065596
N	-2.3089545295	-0.0318530906	 1.0736237615	-0.309989
C	-2.0060398661	-0.1316987778	-1.3298737122	 0.254171
N	-2.3634668129	 0.2064347845	-2.3760271458	-0.340506
H	-0.2101279752	 1.768803152	-0.7043850375	 0.304003
H	 0.5892448175	-0.3811658638	-0.716007678	 0.117554
H	 0.386137871	-0.3536526491	 1.0512641421	 0.133959
H	-2.246394084	-2.565090862	-0.4475073562	 0.13915
H	-0.5644073044	-2.5554322294	 0.0948564397	 0.125101
H	-2.8011433296	-0.8630075226	 2.9775584874	 0.138138
H	-2.0889014241	 0.9036558496	 1.3923372475	 0.257664
96.6317	110.1107	176.3207	182.7893	249.6053	362.054	394.2534	436.4729	504.2083	524.463	564.9308	622.4217	709.2459	817.8818	880.4793	912.1582	932.0799	960.3659	982.2932	1073.7269	1093.8956	1120.7932	1127.5365	1131.3659	1233.1888	1273.6034	1322.8246	1341.6755	1379.9833	1408.3519	1414.1755	1492.8496	1494.708	1695.5105	2351.3548	3014.1787	3046.2781	3083.995	3094.6466	3192.2852	3576.6717	3795.5361
OCC1(CN=CN1)C#N	OC[C@]1(C[N][CH]N1)C#N	
InChI=1S/C5H7N3O/c6-1-5(3-9)2-7-4-8-5/h4,9H,2-3H2,(H,7,8)	InChI=1S/C5H7N3O/c6-1-5(3-9)2-7-4-8-5/h4,9H,2-3H2,(H,7,8)/t5-/m1/s1
