16
gdb 105778	2.33258	1.52425	1.23998	4.8631	64.49	-0.2848	0.0166	0.3014	1060.4889	0.123715	-475.020695	-475.011932	-475.010987	-475.055038	30.846	
O	 0.0974013511	 1.3667245748	-0.0828423003	-0.405406
C	 0.0409245901	-0.0315922442	 0.0334261488	-0.108877
C	-1.4044490353	-0.5378244021	 0.0374727824	 0.265155
O	-2.0011686724	-0.1907150655	-1.1879816736	-0.266553
C	-3.0516258008	-1.1386315818	-1.3829334033	-0.128411
C	-2.5105822966	-2.4115691009	-0.69841858	-0.103433
O	-1.4317530939	-1.9394783169	 0.1208104744	-0.273141
C	-2.1947251729	 0.0525034518	 1.16522549	 0.282589
N	-2.8259069808	 0.4769435994	 2.0344215743	-0.337491
H	-0.3480988524	 1.6072152241	-0.9034108583	 0.300103
H	 0.5476249375	-0.5571612951	-0.7880587781	 0.110344
H	 0.5218663137	-0.3048736439	 0.9757513966	 0.140084
H	-3.9759990032	-0.7865797791	-0.9094450773	 0.133197
H	-3.211793864	-1.2482635346	-2.456337962	 0.134109
H	-3.2671752097	-2.9029111746	-0.0792827644	 0.130242
H	-2.1025301403	-3.1345109815	-1.4106493291	 0.127488
48.3404	90.7511	126.1349	168.5954	212.6257	236.838	394.8921	407.3323	433.6475	525.4275	589.3629	689.2783	708.2873	799.1158	868.7456	890.5119	953.6677	1021.0329	1054.9287	1061.0984	1097.4731	1122.8641	1159.729	1222.9557	1227.9829	1246.779	1255.8366	1372.4813	1376.5846	1381.0747	1424.9445	1489.4981	1514.6454	1530.2949	2354.0087	3015.3974	3037.0791	3052.3381	3096.6624	3113.164	3129.1139	3803.0628
OCC1(OCCO1)C#N	OCC1(OCCO1)C#N	
InChI=1S/C5H7NO3/c6-3-5(4-7)8-1-2-9-5/h7H,1-2,4H2	InChI=1S/C5H7NO3/c6-3-5(4-7)8-1-2-9-5/h7H,1-2,4H2
