16
gdb 112385	2.84294	1.33871	1.03111	2.6994	67.42	-0.2707	-0.0199	0.2507	1150.4056	0.123858	-475.064521	-475.056158	-475.055213	-475.09822	30.065	
C	-0.2560507241	 1.2495385092	 0.0382188181	-0.246539
O	 0.1385310483	-0.1147366078	 0.0222629751	-0.251527
C	 0.803000474	-0.5151070587	-1.1597317431	 0.032207
C	 1.3335079882	-1.9276967332	-0.9360364493	-0.385119
C	 0.266368877	-2.8283246642	-1.5344711313	 0.432973
O	 0.0983025335	-3.9990078401	-1.4153662347	-0.302453
O	-0.5544443001	-2.0559572804	-2.3486594173	-0.218416
C	-0.2006837446	-0.7206062292	-2.2911076353	 0.406043
N	-0.6788849036	 0.1757886195	-3.0319427457	-0.513089
H	 0.6169698565	 1.9121193872	-0.0554146498	 0.111429
H	-0.9599571257	 1.482201626	-0.7682462741	 0.144204
H	-0.7339943242	 1.4199016664	 1.0049610356	 0.133133
H	 1.5665828755	 0.2163373586	-1.4502276862	 0.10178
H	 2.2691580395	-2.1055757847	-1.4753674074	 0.153863
H	 1.4915308698	-2.1533370236	 0.1185444995	 0.162553
H	-1.3701090802	-0.208253445	-3.679715344	 0.238958
54.1898	122.0414	141.2769	179.9447	254.0591	308.6034	378.9579	396.8293	541.4176	556.8245	629.1939	707.391	719.2079	826.3758	861.313	917.1638	925.3164	1016.7817	1034.577	1082.664	1122.8541	1134.4483	1182.0649	1189.1825	1226.5772	1269.809	1313.2411	1334.2157	1375.1641	1443.1454	1478.2951	1485.068	1513.2855	1783.7869	1925.9469	2997.8062	3039.1058	3075.4101	3076.3721	3132.1382	3147.4679	3467.9515
COC1CC(=O)OC1=N	CO[C@H]1CC(=O)O[C]1[NH]	
InChI=1S/C5H7NO3/c1-8-3-2-4(7)9-5(3)6/h3,6H,2H2,1H3	InChI=1S/C5H7NO3/c1-8-3-2-4(7)9-5(3)6/h3,6H,2H2,1H3/t3-/m0/s1
