23
gdb 121729	6.48399	0.52074	0.49147	3.2589	84.98	-0.2416	-0.0074	0.2342	2332.0345	0.201604	-425.443467	-425.431837	-425.430893	-425.482487	39.43	
C	 0.0560768747	 1.6053274732	-0.0732255773	-0.38683
C	-0.0793903009	 0.0812422504	-0.0574525143	-0.1597
C	 0.7670819729	-0.5994025905	-1.1340858027	-0.289769
C	 0.7023738512	-2.1217934824	-1.0908988361	 0.345371
O	 0.2421543305	-2.7318687278	-0.1585863777	-0.27969
C	 1.2688178747	-2.8213353018	-2.3252021484	-0.150663
O	 1.3217207803	-4.1995235845	-2.1292224247	-0.222151
C	 1.8076925072	-4.9067203101	-3.2540625428	-0.027116
C	 1.8158989093	-6.3886990302	-2.9218972915	-0.384432
H	 1.0930209335	 1.9154375762	 0.0992725504	 0.11303
H	-0.2572727427	 2.0263117204	-1.035421166	 0.111687
H	-0.5608753306	 2.0638584949	 0.7055534101	 0.116595
H	 0.2093899985	-0.3177216059	 0.9197939305	 0.120174
H	-1.1286404212	-0.204045425	-0.1949273193	 0.107641
H	 0.4846713475	-0.2558188287	-2.13915498	 0.110444
H	 1.8252211966	-0.3169505286	-1.0235835502	 0.123783
H	 0.6266460883	-2.5523567614	-3.1861138986	 0.104157
H	 2.2648568593	-2.395332464	-2.5490431197	 0.099823
H	 1.1690058746	-4.7081771292	-4.1319030265	 0.085716
H	 2.8233271475	-4.5602591328	-3.5118405599	 0.085156
H	 2.4598426482	-6.5838189409	-2.0600004758	 0.13092
H	 0.8064171255	-6.731277898	-2.6788556093	 0.132229
H	 2.1864240051	-6.9675714031	-3.7731382402	 0.113625
33.8303	39.6894	75.1692	79.1184	103.0582	138.3726	186.5088	244.8419	246.1767	287.0388	320.2412	361.5616	477.5628	486.6477	693.6119	723.8019	819.2059	826.9367	866.8028	902.5077	922.6823	965.2706	1022.4182	1052.1036	1074.1128	1125.4392	1141.8081	1155.3443	1188.5246	1195.3286	1239.4094	1269.9901	1297.2426	1311.3476	1329.5974	1379.1557	1394.7604	1405.2275	1414.7292	1437.6018	1452.8592	1482.8759	1487.2309	1488.3807	1499.8694	1500.4952	1508.2721	1532.0579	1828.6711	2923.6466	2944.2685	2952.1837	2974.8238	3002.754	3027.1373	3033.5755	3046.5481	3046.8944	3076.6402	3100.6402	3103.2297	3120.8772	3125.3423
CCCC(=O)COCC	CCCC(=O)COCC	
InChI=1S/C7H14O2/c1-3-5-7(8)6-9-4-2/h3-6H2,1-2H3	InChI=1S/C7H14O2/c1-3-5-7(8)6-9-4-2/h3-6H2,1-2H3
