16
gdb 7757	3.42716	1.93364	1.35605	3.2921	67.47	-0.2115	0.0134	0.2249	905.1202	0.132604	-379.982595	-379.975029	-379.974084	-380.014951	28.284	
C	 0.0309524026	 1.5871062376	-0.015195751	-0.375737
C	-0.043301606	 0.0494196207	 0.0346423991	-0.008543
N	 0.4903177225	-0.5547500143	-1.1902220935	-0.359535
C	 1.6617990556	-1.2453275046	-1.3545844352	 0.457064
O	 2.0929205568	-1.594561949	-2.4377452038	-0.410801
N	 2.3209827659	-1.5424348383	-0.1684037549	-0.368841
C	 1.794644709	-1.2402692442	 1.0803746747	 0.016508
C	 0.685999792	-0.5141389333	 1.2245295012	-0.122322
H	 1.0714144298	 1.9181967987	-0.0797003014	 0.127582
H	-0.5135934071	 1.9756911618	-0.8831615015	 0.110376
H	-0.4173321872	 2.0205162124	 0.8849973539	 0.116475
H	-1.1072219504	-0.2263005581	 0.104179267	 0.092228
H	 0.057652607	-0.3076702567	-2.0666187898	 0.249584
H	 3.126188469	-2.1359204707	-0.2698500163	 0.261068
H	 2.350010429	-1.6370852316	 1.9221497046	 0.11784
H	 0.3032351115	-0.2877449904	 2.2108485967	 0.097053
44.538	110.8401	252.1072	279.786	381.6889	423.1181	465.5138	515.2532	551.2713	560.6516	612.8473	734.3731	758.3632	778.0242	893.4614	946.763	957.6335	983.0073	1059.6296	1087.0356	1098.9008	1179.6619	1206.6534	1304.1462	1361.2895	1386.1761	1400.665	1445.9804	1462.6237	1472.3248	1490.9138	1500.3905	1741.0959	1814.4052	2966.8463	3028.6415	3098.5853	3118.4933	3197.505	3223.4817	3635.3739	3676.445
CC1NC(=O)NC=C1	C[C@H]1NC(=O)NC=C1	
InChI=1S/C5H8N2O/c1-4-2-3-6-5(8)7-4/h2-4H,1H3,(H2,6,7,8)	InChI=1S/C5H8N2O/c1-4-2-3-6-5(8)7-4/h2-4H,1H3,(H2,6,7,8)/t4-/m1/s1
