21
gdb 101769	3.7909	0.67255	0.6077	2.7445	76.73	-0.2442	0.0566	0.3008	1833.5057	0.1814	-457.582285	-457.571226	-457.570281	-457.619922	39.238	
C	-0.2880183077	 1.5191032438	-0.1136165352	-0.395658
C	 0.1079173309	 0.0482756569	 0.0585117748	 0.040643
C	 0.7771825512	-0.4973600228	-1.2031714902	-0.076946
O	-0.1381321096	-0.378885499	-2.2826775982	-0.423739
C	 1.0321477688	-0.1727386456	 1.2672938193	-0.172389
N	 0.419876452	 0.1929030334	 2.5332956659	-0.343645
C	 0.2624876976	-0.7288858967	 3.5433247482	 0.450247
N	-0.2058823361	-0.1771465055	 4.7344985523	-0.565894
O	 0.5280074215	-1.9114224465	 3.4313404734	-0.389256
H	 0.600464339	 2.1515983037	-0.2397891012	 0.102681
H	-0.9170773416	 1.6450988905	-0.9969665723	 0.139509
H	-0.8435097774	 1.8840891411	 0.75607964	 0.098923
H	-0.8017526026	-0.5429694291	 0.2244215322	 0.092128
H	 1.7029999277	 0.0685797781	-1.4051434305	 0.080313
H	 1.0641573649	-1.5485927295	-1.0418003976	 0.091202
H	 0.2925831489	-0.7014388992	-3.0792449489	 0.287115
H	 1.2978466953	-1.2288143879	 1.3577884705	 0.145926
H	 1.9638994112	 0.3949725558	 1.1284280381	 0.094833
H	 0.4033748571	 1.1677323017	 2.783033643	 0.240528
H	-0.8374844527	 0.6071981974	 4.6623468812	 0.244093
H	-0.5220204284	-0.8880207504	 5.3771529652	 0.259387
24.9379	55.8186	80.3396	112.9631	215.9379	231.9719	245.6496	258.1437	304.4969	337.0004	361.9184	413.1189	441.1606	514.8064	542.3058	574.9223	659.8184	778.6825	835.871	878.5685	927.9091	948.6144	977.2807	1070.5725	1094.4089	1106.036	1145.8319	1170.9265	1179.6185	1235.9683	1265.2984	1292.1657	1314.3933	1332.271	1383.279	1396.3799	1413.5218	1461.1481	1484.5642	1495.469	1507.4305	1521.3361	1544.7788	1628.7302	1803.4949	2951.7198	2988.0538	2997.4908	3021.9323	3037.8538	3090.2751	3109.5849	3131.1998	3568.9813	3642.9851	3681.6413	3833.9096
CC(CO)CNC(N)=O	C[C@@H](CO)CNC(=O)N	
InChI=1S/C5H12N2O2/c1-4(3-8)2-7-5(6)9/h4,8H,2-3H2,1H3,(H3,6,7,9)	InChI=1S/C5H12N2O2/c1-4(3-8)2-7-5(6)9/h4,8H,2-3H2,1H3,(H3,6,7,9)/t4-/m1/s1
