15
gdb 75699	2.24436	2.10768	1.1849	1.7297	68.08	-0.2639	-0.0381	0.2258	993.9122	0.113483	-453.967231	-453.959584	-453.958639	-453.999436	28.327	
C	-0.0193837324	 1.4535369023	-0.1100740342	-0.369833
N	-0.0153311245	 0.0089504306	-0.0100736388	-0.148985
C	-1.1750581427	-0.7772057631	 0.0376201943	 0.398035
N	-2.3895773932	-0.4220634231	 0.111619221	-0.540394
C	-0.7175281503	-2.2068567122	 0.0058612535	-0.027551
O	 0.0428183498	-2.5017769994	-1.1743620854	-0.237896
C	 0.7498186348	-2.1895494442	 0.0339107719	-0.107121
C	 1.1652561218	-0.7322353062	 0.0645631485	 0.441201
O	 2.2776469644	-0.2734740204	 0.1450247735	-0.362508
H	 1.0207419279	 1.7806472188	-0.1283597182	 0.175162
H	-0.522790031	 1.7796696011	-1.0260757008	 0.146404
H	-0.5210192407	 1.9044071283	 0.7529764394	 0.141396
H	-2.4953519897	 0.5936764643	 0.1225555294	 0.224166
H	-1.3480379376	-2.9939944008	 0.400421868	 0.134044
H	 1.3919363634	-2.9556339059	 0.4520134779	 0.133878
123.6744	153.4218	173.6059	217.8374	292.9557	359.2088	379.3952	510.3597	600.0227	655.4301	696.0961	745.227	794.5229	858.2873	881.6505	890.9472	939.1748	988.6018	1064.3713	1091.9402	1144.8022	1156.0864	1228.0589	1242.5341	1289.5053	1310.5693	1391.2224	1413.4639	1457.6944	1493.7726	1513.0696	1752.1602	1845.3023	3034.0946	3093.6312	3154.8782	3196.7425	3209.3887	3469.6955
CN1C(=N)C2OC2C1=O	CN1[C]([NH])[C@H]2O[C@H]2C1=O	
InChI=1S/C5H6N2O2/c1-7-4(6)2-3(9-2)5(7)8/h2-3,6H,1H3	InChI=1S/C5H6N2O2/c1-7-4(6)2-3(9-2)5(7)8/h2-3,6H,1H3/t2-,3+/m0/s1
