12
gdb 21020	6.77366	1.3948	1.16515	7.2668	63.49	-0.2813	-0.0417	0.2396	950.4502	0.086018	-373.738124	-373.731296	-373.730352	-373.769613	23.522	
C	 0.034863261	 1.4052792042	 0.0811057722	-0.32428
N	-0.004011298	-0.0421923498	-0.0045147188	 0.05866
C	-0.2024083901	-0.8346838339	-1.0819710923	 0.005504
N	-0.1643612897	-2.1055065952	-0.7374128011	-0.29779
C	 0.0674222647	-2.0321935739	 0.603990531	 0.249907
N	 0.1720820556	-0.7981922834	 1.093277951	-0.283867
C	 0.1917139071	-3.1822474506	 1.4386282244	 0.270123
N	 0.2914636227	-4.1180592225	 2.1097007787	-0.32853
H	 1.008307837	 1.729093228	 0.4552065379	 0.169245
H	-0.1300434915	 1.8175634145	-0.9152951624	 0.153223
H	-0.7462014284	 1.7582784815	 0.7576583051	 0.169261
H	-0.3666580705	-0.4450696789	-2.0753263657	 0.158545
89.2267	142.6319	161.8282	251.7725	356.9851	516.3013	562.1771	584.3691	654.6816	729.0239	770.2775	862.7158	1027.6239	1061.6994	1076.4254	1153.8798	1229.0923	1320.6059	1341.6155	1439.4244	1448.3083	1467.5741	1473.7818	1516.7141	1528.7955	2369.4434	3062.7414	3139.3618	3156.989	3261.4234
CN1C=NC(=N1)C#N	Cn1cnc(n1)C#N	
InChI=1S/C4H4N4/c1-8-3-6-4(2-5)7-8/h3H,1H3	InChI=1S/C4H4N4/c1-8-3-6-4(2-5)7-8/h3H,1H3
