20
gdb 41976	2.45297	2.08684	1.64948	1.3319	76.68	-0.2231	0.0814	0.3044	919.1792	0.175494	-403.133193	-403.126432	-403.125488	-403.164064	28.177	
C	 0.0046506925	 1.57380581	 0.044914322	-0.203054
C	 1.4676402365	 2.0110662611	-0.1919332365	-0.163848
N	 2.1190982373	 0.9106491551	-0.944519452	-0.111876
C	 2.5791588602	-0.2584489202	-0.1779114208	-0.021163
C	 2.6624144501	-0.3393779466	 1.3344185241	-0.118655
O	 1.4852611262	 0.0383503642	 2.0266555023	-0.244826
C	 0.3079580568	-0.5222368717	 1.4694836756	-0.089331
C	 0.0580147143	 0.0248314571	 0.0608393953	-0.041214
C	 1.2535387917	-0.2791748755	-0.8509308787	-0.070924
H	-0.4188316087	 1.9914084434	 0.9629874386	 0.102194
H	-0.6189386577	 1.9082182919	-0.7904093139	 0.101291
H	 1.5282653146	 2.9172116179	-0.8019829602	 0.101073
H	 1.9848656278	 2.2112125827	 0.7504302947	 0.114854
H	 3.4169248012	-0.7656383483	-0.6560514809	 0.088984
H	 2.9335586025	-1.3793875824	 1.5883030018	 0.095441
H	 3.4575876999	 0.3091663029	 1.7194978433	 0.115401
H	 0.3739495889	-1.6232666847	 1.4482685902	 0.085029
H	-0.5036756627	-0.243992347	 2.1492797879	 0.10541
H	-0.8605665069	-0.4191951833	-0.3341060134	 0.071597
H	 1.0910270153	-0.8447651666	-1.7646479294	 0.083619
137.8465	234.6961	257.4647	375.3069	417.0906	465.285	525.2813	665.9229	714.2081	736.0252	762.9634	794.7263	833.01	859.3774	900.3172	934.2648	943.7081	990.8442	1001.061	1024.0501	1056.6918	1082.497	1100.7686	1114.5871	1140.5413	1156.2703	1208.2192	1216.9546	1249.3314	1289.8062	1293.0288	1314.303	1327.3678	1337.2022	1347.2458	1355.2258	1383.566	1414.5658	1438.449	1482.9142	1491.2004	1501.1074	1514.1546	2952.8001	2964.2674	3044.6182	3053.2741	3057.857	3066.1105	3076.2814	3084.1593	3103.3548	3105.2504	3135.5343
C1CN2C3COCC1C23	C1CN2[C@H]3COC[C@@H]1[C@@H]23	
InChI=1S/C7H11NO/c1-2-8-6-4-9-3-5(1)7(6)8/h5-7H,1-4H2	InChI=1S/C7H11NO/c1-2-8-6-4-9-3-5(1)7(6)8/h5-7H,1-4H2/t5-,6+,7-,8?/m1/s1
