16
gdb 128423	4.76249	0.86626	0.76988	3.2756	69.63	-0.2469	-0.0146	0.2322	1467.3523	0.124086	-471.177808	-471.169245	-471.1683	-471.212226	30.19	
C	-0.2989462731	 1.3933455625	 0.4653536436	-0.312867
N	-0.2992489666	-0.0650095687	 0.4399784311	-0.28414
C	-1.115705865	-0.6123944619	-0.6346725992	-0.254839
C	-1.1985742543	-2.0961682856	-0.5283140726	 0.42609
N	-0.7036039221	-2.9306359917	-1.3638850052	-0.176488
O	-1.0398908158	-4.2045008714	-0.828622369	-0.241717
C	-1.7372179535	-4.0175714382	 0.3326233808	 0.504314
N	-2.2235129347	-4.8594387279	 1.1212853618	-0.576361
O	-1.8374624079	-2.6602814059	 0.5244149001	-0.193581
H	 0.3714664828	 1.7381646898	 1.2566778613	 0.131176
H	 0.0130910891	 1.8638772369	-0.4833535166	 0.102565
H	-1.3066183801	 1.7528462042	 0.701186386	 0.131766
H	 0.651059425	-0.4078473581	 0.343870455	 0.230499
H	-2.12991409	-0.205759313	-0.5349011148	 0.14191
H	-0.7644055999	-0.3753647541	-1.6526594999	 0.125736
H	-2.0416025438	-5.8070329969	 0.8006465776	 0.245938
54.0451	76.4457	100.2963	200.8298	234.8485	299.9901	327.5981	386.4522	492.1668	644.7792	719.7217	738.9765	779.0272	784.3523	804.2625	901.5136	925.6578	976.474	985.6373	1009.6806	1051.4827	1136.5662	1158.8695	1182.9738	1252.6824	1275.2583	1357.5856	1415.3584	1459.414	1486.0239	1488.1044	1496.4296	1518.1299	1698.1049	1817.0664	2954.5045	2973.2803	3053.8592	3063.9194	3115.932	3521.9531	3547.3147
CNCC1=NOC(=N)O1	CNCC1=NO[C@H]([NH])O1	
InChI=1S/C4H7N3O2/c1-6-2-3-7-9-4(5)8-3/h5-6H,2H2,1H3	InChI=1S/C4H8N3O2/c1-6-2-3-7-9-4(5)8-3/h4-6H,2H2,1H3/t4-/m1/s1
