17
gdb 74696	3.01667	1.35125	1.33678	2.6376	74.47	-0.2337	-0.0191	0.2147	1052.2383	0.13602	-421.830524	-421.82292	-421.821976	-421.862513	29.515	
C	-0.0536613631	 1.4758420034	 0.0417174963	-0.479191
C	-0.0095603038	-0.0206698643	-0.0281506872	 0.306623
C	-0.0561728885	-0.7211547097	-1.1684346051	-0.158851
C	 0.0582265783	-2.2270134816	-1.0673516303	-0.081717
O	 1.076419494	-2.5590076244	-0.0737306679	-0.291514
C	 0.1268945206	-2.2907895078	 0.9982862666	-0.042364
C	 0.1041816134	-0.7821511285	 1.2853319023	-0.308032
C	-0.9774656835	-2.6708576532	-0.0136539736	 0.429349
O	-2.0520803301	-3.1824511096	 0.0166845767	-0.307552
H	 0.8495955223	 1.8714692205	 0.5240629139	 0.131487
H	-0.1355528377	 1.9247857939	-0.9513032756	 0.127766
H	-0.9035637068	 1.8184009048	 0.6456752542	 0.130906
H	-0.176912265	-0.2490530433	-2.1377289534	 0.098168
H	 0.1846423528	-2.7604994781	-2.0096990428	 0.100364
H	 0.288354159	-2.9164717306	 1.8792039394	 0.102025
H	 1.0084724312	-0.4798550312	 1.8310112093	 0.119645
H	-0.7468060832	-0.5435100604	 1.9382244472	 0.122889
105.5328	181.6168	187.9582	275.8633	322.6536	418.6109	447.2938	483.8158	510.4378	569.5503	691.2186	755.1386	805.5094	841.6567	876.2463	896.4399	944.8702	969.7395	989.6768	1041.2416	1052.0298	1069.8431	1071.3145	1148.381	1181.4709	1204.3096	1251.5129	1279.3317	1314.7608	1321.7481	1378.8647	1413.4508	1468.3003	1476.4676	1485.7483	1706.0549	1919.8855	3009.0623	3018.0694	3041.0105	3064.4237	3094.2623	3116.5022	3120.1666	3183.9176
CC1=CC2OC(C1)C2=O	CC1=C[C@H]2O[C@@H](C1)C2=O	
InChI=1S/C7H8O2/c1-4-2-5-7(8)6(3-4)9-5/h2,5-6H,3H2,1H3	InChI=1S/C7H8O2/c1-4-2-5-7(8)6(3-4)9-5/h2,5-6H,3H2,1H3/t5-,6+/m1/s1
