15
gdb 29607	3.14188	1.13882	0.86183	3.0944	69.19	-0.2371	-0.007	0.2301	1268.5777	0.111569	-457.807882	-457.799522	-457.798577	-457.841775	29.421	
C	-0.0930778612	 1.4578809264	 0.2151711629	-0.500128
C	 0.0053676024	-0.0267298614	 0.0694998995	 0.128604
C	-0.1118864888	-0.7866302389	-1.0517574102	-0.076562
O	 0.0395713945	-2.1110546127	-0.77613712	-0.140994
C	 0.268971215	-2.2201633914	 0.5574151231	-0.106473
C	 0.2523067346	-0.9791966601	 1.1151698973	 0.208875
O	 0.4656441546	-0.63255651	 2.428181994	-0.216016
C	-0.2928004254	-1.2470780968	 3.381028571	 0.153581
O	-0.1153529308	-1.0661851713	 4.5435230622	-0.255109
H	 0.835430786	 1.8808568647	 0.6126677145	 0.145152
H	-0.2973014599	 1.9324204332	-0.7477976357	 0.129982
H	-0.8937553961	 1.7390813968	 0.907630007	 0.138151
H	-0.2975159488	-0.5422424954	-2.0848307701	 0.144767
H	 0.4407065667	-3.2099995881	 0.9442697644	 0.151131
H	-1.0601771229	-1.904346595	 2.9341205	 0.095041
60.053	107.9431	136.003	167.4669	238.2204	255.7433	398.8226	477.6538	484.5455	618.1706	666.55	674.7624	746.551	775.8766	836.4482	903.2276	1014.2893	1046.8392	1067.6006	1079.2628	1118.5118	1196.9431	1201.0163	1251.9587	1323.8204	1400.3493	1410.9383	1423.3368	1480.6011	1496.0203	1585.298	1655.239	1877.3654	2984.4973	3038.0364	3091.5721	3121.11	3275.2594	3285.0792
CC1=COC=C1OC=O	Cc1cocc1OC=O	
InChI=1S/C6H6O3/c1-5-2-8-3-6(5)9-4-7/h2-4H,1H3	InChI=1S/C6H6O3/c1-5-2-8-3-6(5)9-4-7/h2-4H,1H3
