14
gdb 15276	4.81324	1.20487	1.04393	4.1657	69.25	-0.2555	0.0027	0.2582	1075.5724	0.105807	-341.523783	-341.515885	-341.51494	-341.556554	28.271	
C	-0.1535209384	-1.2334159834	 0.2634386161	-0.457524
C	-0.0852280284	-0.034417263	 0.1926521661	 0.335471
C	-0.0234761439	 1.3956803734	 0.0676820081	-0.178251
C	 0.7254753292	 2.2081758717	 1.0832026106	-0.236864
N	 1.2370815388	 2.0912111968	-0.2736602044	-0.084686
C	 2.4238069365	 1.2586690425	-0.4594720711	-0.290605
C	 3.6362242581	 2.0463362869	-0.219126119	 0.283596
N	 4.599474168	 2.6505933839	-0.0176051841	-0.298924
H	-0.2193759755	-2.2911534803	 0.3375320046	 0.21062
H	-0.8892902382	 1.8466608118	-0.4105235743	 0.131595
H	 0.3575797719	 3.1899603829	 1.3648189168	 0.137833
H	 1.2281874737	 1.6546663016	 1.8735181592	 0.13395
H	 2.4481609918	 0.3721400294	 0.192790529	 0.150237
H	 2.4364299063	 0.8967672356	-1.4933317875	 0.163552
57.8161	106.3565	172.86	209.5909	329.9874	359.0341	388.5009	502.7766	533.1791	609.9988	623.283	677.8403	761.966	834.4992	901.6099	950.3364	999.782	1037.0818	1053.3568	1118.8001	1132.8238	1155.6982	1271.1432	1313.0351	1371.8611	1373.5883	1473.5072	1504.3947	2233.2649	2369.3885	2994.6692	3073.5736	3107.3558	3139.693	3201.7921	3499.532
C#CC1CN1CC#N	C#C[C@H]1CN1CC#N	
InChI=1S/C6H6N2/c1-2-6-5-8(6)4-3-7/h1,6H,4-5H2	InChI=1S/C6H6N2/c1-2-6-5-8(6)4-3-7/h1,6H,4-5H2/t6-,8?/m0/s1
