16
gdb 97378	2.85175	0.87446	0.74626	5.3078	76.46	-0.2528	-0.0482	0.2046	1526.1547	0.121753	-434.074766	-434.064855	-434.063911	-434.111117	33.348	
C	 0.3609074176	 1.5038637879	-0.0170865214	-0.315782
N	 0.2399216309	 0.0622694333	-0.0558550316	-0.20852
C	 0.3356717577	-0.5826262763	 1.0279266147	 0.103194
N	 0.2750735286	-1.9636679133	 1.0769555005	-0.325762
C	-0.1588531841	-2.7158279924	-0.0861599558	-0.211847
C	 0.9053520038	-3.7575616084	-0.470111141	 0.16308
O	 0.6781372842	-4.8893430855	-0.7869993058	-0.217424
C	-1.4896405786	-3.3078700679	 0.0860868856	 0.292572
N	-2.5354199151	-3.7633031008	 0.2660844954	-0.309606
H	 1.1913497276	 1.8244646133	-0.6566432564	 0.130341
H	-0.5483022657	 1.9625106051	-0.4218769497	 0.133896
H	 0.5296344192	 1.9050214444	 0.9947735006	 0.101382
H	 0.5091468387	-0.1283882905	 2.0120663772	 0.101855
H	 0.114208367	-2.3848864623	 1.9779203782	 0.265534
H	-0.1940003719	-1.9810637591	-0.9062524519	 0.1892
H	 1.9300757601	-3.3325171275	-0.4167939284	 0.107888
28.9418	69.3599	134.646	137.3733	166.9112	200.1861	229.9564	300.281	350.0546	380.0944	452.515	475.0933	559.1128	680.5788	724.3373	808.4747	983.4051	1002.7573	1025.6278	1068.6105	1113.6432	1142.9472	1152.5758	1222.9616	1279.8156	1312.2748	1395.2028	1402.953	1451.0942	1479.7357	1504.7857	1506.5717	1764.4672	1850.1414	2365.7482	2918.9123	2977.3371	3002.2842	3039.0977	3061.4522	3078.6647	3642.19
CN=CNC(C=O)C#N	CN=CN[C@@H](C=O)C#N	
InChI=1S/C5H7N3O/c1-7-4-8-5(2-6)3-9/h3-5H,1H3,(H,7,8)	InChI=1S/C5H7N3O/c1-7-4-8-5(2-6)3-9/h3-5H,1H3,(H,7,8)/t5-/m1/s1
