21
gdb 79399	2.38534	1.5271	1.42662	1.4204	82.92	-0.2464	0.0732	0.3196	1084.7464	0.181216	-387.02853	-387.019698	-387.018754	-387.061171	34.934	
C	-0.1707409415	 1.5839652698	-0.0254549303	-0.429772
C	-0.0393230109	 0.0684864943	 0.0136856345	-0.049291
C	 1.1766828242	-0.6121488319	-0.6538708899	-0.088201
C	 2.1245339924	-0.3158052072	 0.5598832539	-0.097815
C	 2.5832016089	-1.78703519	 0.6620286146	-0.343372
C	 1.0909376053	-1.8490171915	 0.28384898	 0.368592
O	 0.3004202033	-2.9478521658	-0.0035675192	-0.478669
C	 0.7124494207	-0.6065140658	 1.1916728286	 0.286613
C	 0.3515423417	-0.6238381423	 2.6524912431	-0.535668
H	 0.7773345587	 2.0822989849	 0.2030434471	 0.11022
H	-0.4940711847	 1.924726361	-1.0154763749	 0.114319
H	-0.914623096	 1.9352083612	 0.6988376967	 0.111953
H	-0.995791681	-0.411799053	-0.225775926	 0.068926
H	 1.4759152833	-0.6317494524	-1.7033240996	 0.066407
H	 2.7218679225	 0.5808951504	 0.7059240292	 0.077104
H	 3.2951368889	-2.132535884	-0.0943562943	 0.093993
H	 2.869336105	-2.149496382	 1.6557105396	 0.084615
H	 0.2512560569	-3.5017750164	 0.7831778743	 0.28228
H	 1.0948402567	-1.1705841229	 3.24447154	 0.11635
H	 0.2881857352	 0.3914260732	 3.0599829089	 0.123781
H	-0.6220833195	-1.1028087895	 2.8109692538	 0.117635
176.7115	180.7749	201.305	209.2904	217.3425	265.5262	284.2506	343.8047	401.4573	500.1145	542.6607	636.4934	660.9072	715.2915	749.0799	837.6803	853.6594	876.7885	921.2869	936.9688	997.8515	1003.1371	1024.7326	1052.0128	1078.5074	1089.5437	1115.1562	1141.5369	1152.4012	1166.6348	1192.9638	1209.2309	1226.8098	1274.679	1295.0299	1322.4731	1370.5046	1402.5945	1406.6468	1416.4431	1487.4475	1494.7472	1496.1808	1501.01	1512.9056	3019.1158	3025.3771	3032.6366	3034.8394	3082.5033	3085.1217	3086.6808	3091.6126	3096.6233	3099.5253	3144.7382	3803.3985
CC1C2C3CC2(O)C13C	C[C@H]1[C@H]2[C@@H]3C[C@@]2(O)[C@]13C	
InChI=1S/C8H12O/c1-4-6-5-3-8(6,9)7(4,5)2/h4-6,9H,3H2,1-2H3	InChI=1S/C8H12O/c1-4-6-5-3-8(6,9)7(4,5)2/h4-6,9H,3H2,1-2H3/t4-,5-,6-,7+,8-/m0/s1
