21
gdb 116786	3.0557	0.84682	0.75408	1.8106	82.86	-0.2291	0.0208	0.2499	1596.2909	0.180564	-420.35771	-420.347303	-420.346359	-420.394271	36.246	
C	-0.0454585708	 1.0560906594	-0.5413483204	-0.251881
O	-0.4624197649	 0.1037897362	 0.4285978711	-0.196465
C	-1.2039973255	-0.9197260801	-0.0467168338	 0.132136
N	-1.6142806649	-1.812785195	 0.7386505813	-0.240609
C	-2.4126784062	-2.9184820464	 0.23217698	-0.158544
C	-2.557090524	-3.0554673961	-1.2723893397	-0.004294
C	-3.7300017104	-3.7481167721	-1.8751245556	-0.268321
N	-3.5367325134	-2.3172787799	-2.0830416047	-0.082412
C	-4.4914847654	-1.4253774101	-1.437503499	-0.313016
H	 0.5360955725	 1.8068455707	-0.004949403	 0.144972
H	 0.586302744	 0.5972839049	-1.3119476384	 0.126556
H	-0.9021149421	 1.5437917949	-1.0228745615	 0.126314
H	-1.3920107021	-0.8733585608	-1.127648805	 0.097104
H	-1.9589593126	-3.8444522594	 0.6113573828	 0.116821
H	-3.3970335936	-2.8678342283	 0.712560252	 0.110925
H	-1.6018642606	-3.1656384376	-1.7865033254	 0.091605
H	-3.6135692932	-4.3844864861	-2.7486590343	 0.113847
H	-4.5238627338	-4.0567786743	-1.1942635544	 0.105949
H	-4.8902289381	-1.7911556578	-0.4789219815	 0.105756
H	-4.0255511588	-0.4503733265	-1.2636758586	 0.118545
H	-5.3384180662	-1.2786907152	-2.1154465515	 0.125013
44.7785	65.5184	102.0731	121.7693	159.049	188.4587	236.269	279.0756	319.6089	344.5055	409.598	453.9073	516.6699	631.3205	747.0318	791.7546	906.0862	966.7611	1013.4467	1026.0323	1038.6228	1065.315	1086.395	1117.2466	1130.8418	1162.3332	1176.7678	1178.6589	1181.1717	1206.7659	1269.3085	1279.4254	1332.5236	1342.0017	1419.4497	1425.3194	1450.2928	1473.2751	1487.1878	1488.0872	1494.5866	1501.2682	1506.4777	1515.7248	1773.8498	2982.7597	3009.7848	3017.4365	3034.2112	3049.8382	3068.8455	3073.7852	3081.7642	3098.5852	3102.2249	3143.1294	3169.5869
COC=NCC1CN1C	COC=NC[C@H]1CN1C	
InChI=1S/C6H12N2O/c1-8-4-6(8)3-7-5-9-2/h5-6H,3-4H2,1-2H3	InChI=1S/C6H12N2O/c1-8-4-6(8)3-7-5-9-2/h5-6H,3-4H2,1-2H3/t6-,8?/m0/s1
