18
gdb 6730	5.46107	0.80677	0.72272	2.2758	77.92	-0.239	-0.0111	0.2279	1595.3131	0.14998	-347.80625	-347.796026	-347.795082	-347.846095	33.781	
C	-0.7162334764	 1.0093098161	-0.2991151131	-0.362695
C	 0.6713453768	 0.5067468021	 0.1404744403	-0.315825
C	 1.3464279449	-0.269709503	-0.8938677901	 0.133497
C	 1.8732794138	-0.9096598701	-1.7662842348	 0.045666
C	 2.5083439195	-1.6883512143	-2.8149577713	-0.485868
C	 1.5395265705	-2.494964499	-3.7006271596	 0.391234
C	 2.2085260504	-3.3215939454	-4.7861671597	-0.477592
O	 0.3453565287	-2.4737018859	-3.5471027403	-0.268352
H	-0.6340791847	 1.6569569308	-1.1760887749	 0.127272
H	-1.3656887825	 0.1702939301	-0.5615758551	 0.136646
H	-1.1893634662	 1.5772900426	 0.5076150551	 0.110863
H	 1.2988623493	 1.3615474654	 0.4245218457	 0.125345
H	 0.5692374342	-0.1048639256	 1.0462179356	 0.12752
H	 3.1004515948	-1.0443689966	-3.4817214804	 0.14452
H	 3.2358832143	-2.3975202455	-2.3937802214	 0.144542
H	 2.8955678988	-4.0510859706	-4.3425192952	 0.139572
H	 1.4497823636	-3.8426479121	-5.3704931364	 0.14509
H	 2.8061406902	-2.6813689789	-5.4447077543	 0.138565
6.3342	8.6819	64.0188	98.0285	155.5746	191.9866	262.1494	326.8954	344.2803	395.2816	467.7439	513.6015	594.7685	761.5042	786.1445	800.3435	827.7336	950.0041	979.5815	1051.7941	1080.3663	1105.3661	1167.0278	1172.1703	1227.1747	1285.4469	1336.0722	1351.9426	1381.7923	1408.8895	1438.5388	1465.1416	1476.0105	1477.0365	1493.7848	1505.5738	1831.2127	2376.66	3002.4659	3017.4658	3026.225	3036.8047	3044.01	3044.5923	3096.7075	3117.3958	3126.5654	3154.7685	6.347	8.6787	64.0192	98.0266	155.575	191.9871	262.1497	326.8953	344.2801	395.2806	467.7438	513.6014	594.7684	761.5042	786.1446	800.3435	827.7335	950.0041	979.5815	1051.7941	1080.3662	1105.3658	1167.0277	1172.1703	1227.1744	1285.4464	1336.0721	1351.9425	1381.7925	1408.8894	1438.5386	1465.1419	1476.01	1477.0369	1493.7844	1505.5735	1831.2126	2376.6597	3002.4659	3017.4658	3026.2251	3036.8048	3044.0101	3044.5924	3096.7075	3117.3958	3126.5655	3154.7684
CCC#CCC(C)=O	CCC#CCC(=O)C	
InChI=1S/C7H10O/c1-3-4-5-6-7(2)8/h3,6H2,1-2H3	InChI=1S/C7H10O/c1-3-4-5-6-7(2)8/h3,6H2,1-2H3
