20
gdb 85884	1.82877	1.66723	1.07928	5.0547	80.78	-0.2372	0.0168	0.254	1209.1888	0.169963	-399.314731	-399.304972	-399.304028	-399.348936	36.313	
C	 0.0416165781	 1.5009709411	-0.0295582854	-0.333052
N	-0.0142123681	 0.0644174154	 0.1339411892	-0.071759
C	-1.279538748	-0.5762986867	 0.5370682543	-0.214654
C	-0.4502743499	-1.6246754595	 1.3540221492	 0.279729
C	-0.953385932	-1.9855385823	 2.7409124337	-0.440349
N	-0.0635404851	-2.829217358	 0.6414898976	-0.538356
C	 0.6880106552	-0.54188808	 1.2771396378	-0.161475
C	 2.0667600134	-0.9568694147	 1.0260712236	 0.315494
N	 3.1618641746	-1.2660270748	 0.8245971612	-0.334894
H	 1.0705032725	 1.8083737916	-0.2410941163	 0.139019
H	-0.5802914498	 1.7962469389	-0.8802695249	 0.129585
H	-0.310086046	 2.0512294646	 0.863120281	 0.095799
H	-1.9042377258	 0.0630421391	 1.1831983065	 0.085411
H	-1.8869879505	-0.9549947523	-0.2918622455	 0.101032
H	-1.8591868184	-2.5992296868	 2.6702923631	 0.118769
H	-0.1975997468	-2.5639728514	 3.2794762521	 0.142515
H	-1.201087149	-1.0935035533	 3.3224966464	 0.117213
H	-0.8598923305	-3.4540987783	 0.5557556577	 0.227587
H	 0.2438006714	-2.6016301083	-0.2998969274	 0.243681
H	 0.6738299846	 0.0911429557	 2.1806986862	 0.098706
77.5863	124.5864	156.9565	209.8253	232.0402	271.432	295.3654	310.7722	330.6593	364.8689	399.041	420.6537	558.8103	568.3443	600.903	798.2143	830.3493	865.0989	907.893	956.4497	994.9614	999.1658	1048.1574	1060.5287	1119.1431	1152.9231	1167.2041	1189.2209	1211.4218	1261.8907	1293.1571	1307.7544	1354.7754	1385.1875	1414.9302	1452.0213	1487.5544	1488.9727	1494.5568	1497.7286	1513.4143	1656.5729	2357.8396	2935.7316	2954.8357	2965.0803	3034.4287	3062.0671	3067.6428	3100.7013	3110.2952	3124.8425	3488.8554	3571.7679
CN1CC(C)(N)C1C#N	CN1C[C@@](C)(N)[C@H]1C#N	
InChI=1S/C6H11N3/c1-6(8)4-9(2)5(6)3-7/h5H,4,8H2,1-2H3	InChI=1S/C6H11N3/c1-6(8)4-9(2)5(6)3-7/h5H,4,8H2,1-2H3/t5-,6-/m1/s1
