17
gdb 19472	4.76735	1.57947	1.53131	2.0064	69.32	-0.2155	0.0057	0.2212	896.9975	0.143403	-363.792857	-363.785903	-363.784959	-363.82411	26.798	
C	-0.0568142817	 1.347932834	-0.1840716538	-0.245094
O	-0.0688300446	 0.0335761761	 0.3307725485	-0.243257
C	-1.2848845251	-0.6112375649	 0.175682285	 0.21735
C	-1.5429752418	-1.4292875122	-1.1723423755	-0.108474
N	-0.5871691807	-2.4316306389	-0.5963809058	-0.287774
C	-1.2858298192	-2.0955833335	 0.6885949705	-0.099619
C	-2.758059632	-2.4402053225	 0.4163394299	-0.098835
C	-2.9275874686	-1.9910550602	-0.8349968022	-0.094192
H	 0.9172125255	 1.7796606633	 0.0559382999	 0.131026
H	-0.1913252728	 1.3626063841	-1.2754761317	 0.109967
H	-0.8449264599	 1.9686462518	 0.2702810486	 0.104981
H	-2.1217939719	 0.0187993302	 0.5043645957	 0.064394
H	-1.3401939242	-1.0332636995	-2.1672865801	 0.06771
H	-0.8144966728	-3.3785946683	-0.9053914948	 0.199147
H	-0.8156614577	-2.3866334741	 1.6273459159	 0.072729
H	-3.4681187041	-2.8655576523	 1.1111331685	 0.105652
H	-3.8187865084	-1.9424915932	-1.4448567087	 0.10429
86.3578	167.5442	194.7704	321.4976	397.9206	478.9165	548.6242	583.1993	708.5917	746.6195	829.6804	857.9124	900.4999	914.646	927.3587	943.9936	967.0007	1013.3584	1027.544	1096.8277	1112.675	1146.5675	1174.3727	1181.6086	1209.6141	1224.1066	1232.1512	1249.0637	1288.9832	1305.2531	1335.4087	1396.457	1482.8617	1489.9816	1507.2626	1601.2213	2977.3698	3023.6895	3028.8739	3119.9716	3121.5654	3128.1604	3220.1101	3247.0213	3429.3298
COC1C2NC1C=C2	CO[C@H]1[C@H]2N[C@@H]1C=C2	
InChI=1S/C6H9NO/c1-8-6-4-2-3-5(6)7-4/h2-7H,1H3	InChI=1S/C6H9NO/c1-8-6-4-2-3-5(6)7-4/h2-7H,1H3/t4-,5+,6-
