17
gdb 34041	3.01991	1.39987	1.20126	4.9059	73.25	-0.2382	0.0173	0.2555	1064.5876	0.137545	-417.985602	-417.977784	-417.97684	-418.018157	29.962	
N	-0.0075915709	-1.062232289	 0.1152475725	-0.345368
C	-0.0269191327	 0.0915722735	 0.0416362276	 0.264807
C	-0.0128250168	 1.5323844909	-0.0739935073	 0.261911
C	 0.5686970628	 2.1243464846	-1.3491251474	-0.33191
C	 1.3474122338	 2.2189437804	-0.0554650551	-0.062168
N	 1.4102493974	 3.485830803	 0.6309284373	-0.312599
C	 0.4367230919	 3.5952149702	 1.7171999778	-0.178278
C	-0.9489971048	 3.3966517155	 1.1239293145	-0.061633
O	-1.1171324058	 2.0883342022	 0.573901395	-0.301583
H	 0.8951600203	 1.4379066847	-2.1215287397	 0.135819
H	 0.1095859493	 3.0435655337	-1.6947819262	 0.134173
H	 2.2079938405	 1.5642146435	 0.0552627339	 0.116882
H	 2.3505889411	 3.666244674	 0.9549594499	 0.234337
H	 0.591089353	 2.8622620161	 2.5275131062	 0.102613
H	 0.501672226	 4.5989633751	 2.1485483902	 0.11316
H	-1.7252164344	 3.4888386451	 1.8875130292	 0.121163
H	-1.1240693906	 4.1568989267	 0.3495205019	 0.108672
67.4313	139.995	176.7299	295.6088	343.762	413.5447	442.2403	477.4322	522.049	568.828	598.4028	679.8459	758.6222	796.5883	868.4669	896.9376	923.7021	971.0896	1007.4854	1040.1071	1052.0787	1099.6007	1114.3692	1139.9771	1173.1243	1241.9505	1260.1443	1269.0826	1292.5257	1356.4139	1408.1664	1427.6238	1462.2627	1488.0863	1498.7912	1504.0162	2355.6702	2959.0157	3009.0734	3079.942	3102.3216	3135.6725	3142.0119	3240.7326	3573.8359
N#CC12CC1NCCO2	N#C[C@]12C[C@H]1NCCO2	
InChI=1S/C6H8N2O/c7-4-6-3-5(6)8-1-2-9-6/h5,8H,1-3H2	InChI=1S/C6H8N2O/c7-4-6-3-5(6)8-1-2-9-6/h5,8H,1-3H2/t5-,6-/m1/s1
