17
gdb 20822	3.25676	1.78883	1.25869	1.7545	70.59	-0.1983	0.0365	0.2348	979.7626	0.14419	-360.070495	-360.062351	-360.061407	-360.103066	30.105	
C	-0.0328226542	 1.5618562248	 0.1293038827	-0.36555
C	-0.0570189787	 0.0286021286	-0.0094345731	-0.318143
C	 0.6577475768	-0.4825099637	-1.224498717	 0.176726
C	 0.1309299605	-0.8796947768	-2.4372422106	-0.118645
N	 1.1659815837	-1.2673190227	-3.2158628962	-0.195515
N	 2.3663298291	-1.1433597756	-2.5964070267	-0.307364
C	 2.0584426017	-0.6748736786	-1.3911629059	 0.285115
N	 3.0444263418	-0.4974704894	-0.4152589098	-0.592188
H	 0.9925241448	 1.9457009858	 0.1754668912	 0.10846
H	-0.5185974884	 2.0388932874	-0.7276247724	 0.118498
H	-0.5497273358	 1.8839325005	 1.0392818248	 0.110636
H	 0.3920529745	-0.4198537988	 0.8859965474	 0.110957
H	-1.0990629192	-0.3104126539	-0.0289798077	 0.101005
H	-0.8901617717	-0.922512331	-2.7849240441	 0.124574
H	 1.1378115072	-1.6279351607	-4.1524505819	 0.269533
H	 3.9705068447	-0.5670979371	-0.8188388054	 0.24789
H	 2.9525553431	 0.3738805112	 0.0903880147	 0.24401
65.0398	146.6867	186.0304	248.4748	270.6277	296.5825	373.9186	433.3466	451.893	622.6809	655.9903	714.2063	734.727	781.2488	789.4186	808.4945	942.7982	966.0853	1049.5365	1076.0976	1087.5538	1103.7449	1212.2704	1243.7084	1285.7346	1331.9198	1365.1613	1409.1299	1435.3165	1480.8189	1491.0402	1494.3474	1503.6629	1537.7187	1620.4467	1650.7988	3022.844	3029.7533	3058.8136	3096.2088	3107.1918	3249.509	3535.8821	3629.2811	3695.5214
CCC1=CNN=C1N	CCc1c[nH]nc1N	
InChI=1S/C5H9N3/c1-2-4-3-7-8-5(4)6/h3H,2H2,1H3,(H3,6,7,8)	InChI=1S/C5H9N3/c1-2-4-3-7-8-5(4)6/h3H,2H2,1H3,(H3,6,7,8)
