19
gdb 82185	2.89122	1.62788	1.28724	3.13	74.07	-0.2562	0.0643	0.3206	1046.6656	0.158355	-423.00079	-422.992629	-422.991685	-423.033046	31.865	
C	 0.1609508238	 1.5886987788	 0.0098015118	-0.394468
C	 0.0075553837	 0.0636875412	-0.003294068	-0.052064
C	 0.6553913593	-0.6104474637	-1.2177998105	 0.023206
O	 2.0664055792	-0.4128839082	-1.3393217317	-0.23582
C	 1.6072294176	-1.6402108186	-0.7723783515	-0.043414
C	 1.6053308256	-1.6681304949	 0.7558108068	 0.403988
C	 1.9397922126	-2.9389044109	 1.4839190599	-0.503306
O	 2.0667307829	-0.4379267459	 1.3270052073	-0.27853
C	 0.6529331214	-0.6323553592	 1.1984348901	-0.045371
H	 1.2213977145	 1.8499480752	 0.0144139089	 0.152418
H	-0.304369116	 2.0394663185	-0.8723769625	 0.113421
H	-0.3083434222	 2.0241253936	 0.8974996876	 0.113637
H	-1.0582071975	-0.2036527841	-0.0070207322	 0.077141
H	 0.1146131386	-0.6591563547	-2.1613418697	 0.094146
H	 1.839247629	-2.5427741511	-1.3320056951	 0.093691
H	 2.9882441068	-3.2130752599	 1.3234055721	 0.134709
H	 1.7787441526	-2.8203228361	 2.5580763439	 0.133404
H	 1.3175549979	-3.7672649487	 1.1277526325	 0.123469
H	 0.1110527701	-0.6878269915	 2.1418403603	 0.089743
136.2994	186.548	191.6294	219.5915	245.9622	297.6008	355.6361	451.3233	528.657	567.7617	595.1812	700.3673	753.9595	831.5302	851.48	870.3376	882.1906	911.0559	947.5345	999.2272	1021.3608	1041.9038	1067.8962	1084.4092	1111.3655	1134.9738	1144.5489	1221.9462	1263.5188	1284.597	1312.6537	1333.3125	1338.4845	1399.2199	1411.9065	1427.2422	1459.6646	1485.3049	1495.4146	1495.992	1504.1932	3019.2952	3034.2923	3041.2296	3095.9809	3104.4941	3117.0998	3124.2829	3125.3449	3135.2446	3148.9736
CC1C2OC2C2(C)OC12	C[C@H]1[C@H]2O[C@H]2[C@@]2(C)O[C@@H]12	
InChI=1S/C7H10O2/c1-3-4-6(8-4)7(2)5(3)9-7/h3-6H,1-2H3	InChI=1S/C7H10O2/c1-3-4-6(8-4)7(2)5(3)9-7/h3-6H,1-2H3/t3-,4+,5-,6+,7-/m0/s1
