20
gdb 115831	3.3242	1.1049	1.03694	3.3777	74.63	-0.2442	0.0672	0.3114	1236.4909	0.172138	-440.255278	-440.246657	-440.245713	-440.289131	32.611	
O	 0.4597800882	 0.5923502622	 0.8955485051	-0.424018
C	-0.0052914846	-0.5760784868	 0.2565848607	-0.061053
C	-1.4131377077	-0.3633936159	-0.3047302186	 0.106689
C	-2.0917243012	-1.6501295222	-0.7973079447	-0.340105
C	-2.8083246784	-2.131345313	 0.4547092982	 0.310885
C	-3.5724559951	-3.3912423119	 0.5467592352	-0.308671
N	-2.2902754784	-3.2441969388	 1.2688610596	-0.343091
C	-3.1774187526	-0.8551034441	 1.1900765903	-0.114224
O	-2.2464650323	 0.1415164789	 0.7565239231	-0.295492
H	-0.2711351963	 0.8813864243	 1.4572632152	 0.289066
H	 0.6930492948	-0.8033427012	-0.5573804118	 0.100435
H	-0.0141775841	-1.437666865	 0.9459292754	 0.088182
H	-1.3721496827	 0.4144462949	-1.0752945107	 0.084262
H	-2.8128803712	-1.422757021	-1.5895182759	 0.11598
H	-1.3810324043	-2.3839493425	-1.190079701	 0.105194
H	-4.4500699091	-3.4540154162	 1.1853137154	 0.122309
H	-3.6095244527	-4.0328058247	-0.3304185548	 0.114622
H	-1.5564148656	-3.7366374629	 0.7641349737	 0.228477
H	-4.1945370012	-0.5244263537	 0.9358671761	 0.099515
H	-3.1093871853	-0.9886393306	 2.2740639895	 0.121038
58.9787	83.0216	134.5565	224.4069	277.9855	362.3989	381.3185	386.4254	478.5174	486.169	551.6541	728.5326	769.9601	816.9321	847.6986	877.8002	919.9819	949.2867	966.9101	1003.4153	1015.6068	1040.3301	1073.1367	1079.9801	1098.5837	1121.6633	1147.0321	1196.968	1222.7192	1233.2956	1261.2326	1285.4143	1300.9788	1338.982	1347.0633	1363.5232	1400.8077	1427.3138	1445.1596	1481.1065	1503.2875	1516.991	1519.3319	2963.2515	3001.6439	3039.2936	3048.9037	3065.1825	3078.8069	3091.0868	3101.829	3184.5382	3488.3146	3770.3822
OCC1CC2(CN2)CO1	OC[C@H]1C[C@]2(CN2)CO1	
InChI=1S/C6H11NO2/c8-2-5-1-6(3-7-6)4-9-5/h5,7-8H,1-4H2	InChI=1S/C6H11NO2/c8-2-5-1-6(3-7-6)4-9-5/h5,7-8H,1-4H2/t5-,6+/m1/s1
