18
gdb 71758	3.38509	1.90097	1.59357	0.4792	73.94	-0.2205	0.0662	0.2866	875.499	0.150239	-401.872637	-401.866312	-401.865368	-401.902816	27.376	
O	-0.0843236124	 1.421572552	-0.0467592037	-0.482813
C	-0.0106992605	 0.0365213012	-0.0731229142	 0.403917
C	 0.4746411474	-0.811793414	-1.2640750343	-0.309956
C	-0.2921770393	-1.9250523611	-0.5268542481	-0.007986
C	-1.2869596689	-0.850066127	 0.086979695	-0.104948
C	-1.0376561742	-1.0886177419	 1.6074355323	-0.062906
C	-0.5631287568	-2.5392925798	 1.7173510682	-0.185829
N	 0.5085234988	-2.1941056697	 0.7075416058	-0.140047
C	 0.4266867425	-0.7352131367	 1.2108899029	-0.085149
H	 0.8087347732	 1.7736421865	 0.0429118284	 0.281457
H	-0.0236261481	-0.5096519998	-2.1890690618	 0.104833
H	 1.5457699909	-0.9619509733	-1.4267933638	 0.097383
H	-0.6321299637	-2.8292017994	-1.0288035162	 0.073491
H	-2.2467608866	-0.6367721404	-0.376876179	 0.073614
H	-1.6414165837	-0.5624598528	 2.3453905225	 0.072412
H	-0.0996231859	-2.7723294853	 2.6802019516	 0.105572
H	-1.2301070693	-3.3557155868	 1.4186614422	 0.097414
H	 1.2272640368	-0.4298049816	 1.8841915421	 0.069544
237.533	276.2223	322.7509	380.9186	469.3772	486.3545	575.1768	703.8858	714.5352	785.3573	819.524	836.7679	851.9549	866.7614	902.4597	924.339	930.677	957.1969	979.7514	1011.6582	1026.3141	1037.8062	1093.5657	1093.9184	1132.1448	1143.1158	1154.0488	1195.2337	1205.5266	1213.5104	1229.9804	1235.1755	1263.057	1272.1234	1305.1715	1314.732	1382.0737	1485.5938	1507.3349	3038.708	3053.9375	3099.6157	3114.1445	3118.0325	3127.2012	3129.1339	3152.1644	3790.6088
OC12CC3C1C1CN3C21	O[C@]12C[C@@H]3[C@H]1[C@H]1CN3[C@@H]21	
InChI=1S/C7H9NO/c9-7-1-4-5(7)3-2-8(4)6(3)7/h3-6,9H,1-2H2	InChI=1S/C7H9NO/c9-7-1-4-5(7)3-2-8(4)6(3)7/h3-6,9H,1-2H2/t3-,4-,5-,6-,7-/m1/s1
