19
gdb 59926	2.25612	0.98959	0.81861	4.6267	80.44	-0.3324	-0.0084	0.3239	1477.2154	0.157714	-382.102821	-382.092619	-382.091675	-382.138685	35.996	
C	-0.0467654002	 1.5628549091	 0.0265634406	-0.397245
C	 0.0224161871	 0.0356772189	 0.16827728	 0.013911
C	 0.7878746237	-0.3606660755	 1.4386893884	-0.395533
C	-1.4026431825	-0.5419495521	 0.1325721301	-0.1832
C	-1.4692700278	-2.098103819	 0.129008083	-0.312803
C	-2.864064772	-2.5587217594	 0.1621014151	 0.299276
N	-3.9693026072	-2.8879219559	 0.2148193834	-0.301104
C	-0.7633884859	-2.6720254606	-1.0261565361	 0.309671
N	-0.1809894872	-3.0968711638	-1.9280282081	-0.310851
H	 0.9577664638	 1.9957779938	 0.0065523642	 0.122757
H	-0.557763875	 1.8569261246	-0.8956727674	 0.12158
H	-0.5863581964	 2.0132486222	 0.8680029604	 0.119067
H	 0.567409926	-0.3592021505	-0.6991065113	 0.108433
H	 0.2585288558	-0.025578117	 2.3388053542	 0.119413
H	 0.9405869716	-1.4419499755	 1.5187224812	 0.11821
H	 1.7796654745	 0.1009231572	 1.4470207929	 0.127865
H	-1.970392731	-0.2005442744	 1.0053887054	 0.127915
H	-1.9312691733	-0.1813644632	-0.7550395483	 0.134742
H	-0.9798087138	-2.4800000789	 1.0331657023	 0.177895
42.5456	90.2184	118.9255	134.2351	207.0749	228.2394	257.8734	263.9426	342.0753	386.2249	410.7735	427.2714	508.1156	582.9758	592.9791	802.8392	830.5986	922.5228	933.2958	959.8758	971.2682	1011.6029	1035.9142	1123.9906	1159.1119	1193.1445	1229.6804	1283.3074	1331.3177	1338.0616	1373.1288	1388.2224	1405.3446	1426.9727	1479.621	1488.3148	1496.2568	1506.0501	1513.211	2367.2395	2373.2272	3024.6841	3027.9346	3032.0383	3047.0786	3051.4872	3093.8197	3095.5223	3101.1672	3106.3441	3110.6224
CC(C)CC(C#N)C#N	CC(C)CC(C#N)C#N	
InChI=1S/C7H10N2/c1-6(2)3-7(4-8)5-9/h6-7H,3H2,1-2H3	InChI=1S/C7H10N2/c1-6(2)3-7(4-8)5-9/h6-7H,3H2,1-2H3
