17
gdb 20149	4.11518	2.42395	2.08159	1.4965	69.15	-0.2227	0.0754	0.2981	723.2651	0.144249	-326.670987	-326.66504	-326.664095	-326.700618	24.899	
C	 0.0425174567	 1.5419790591	 0.0283382722	-0.390921
C	 0.010483933	 0.0188938461	-0.018827916	 0.042898
C	 0.7850982605	-0.6032999443	-1.1716012344	-0.082501
C	 2.2237727152	-0.7893289661	-0.7411222319	-0.09228
C	 1.2723563652	-1.969563199	-0.75650997	-0.104719
C	 1.1966143801	-1.9087505351	 0.7988702888	-0.066375
C	 2.1316022405	-0.7517000764	 0.811740155	-0.06763
N	 0.7054365363	-0.5667411458	 1.1427765813	-0.118406
H	 1.0744390128	 1.9070027411	 0.0128533585	 0.11835
H	-0.4823246038	 1.9684220041	-0.8323642516	 0.110195
H	-0.4368867374	 1.9084727185	 0.9401781242	 0.124256
H	-1.0265508488	-0.3377890454	-0.0043196769	 0.078757
H	 0.5506590897	-0.4012138015	-2.2098251544	 0.087702
H	 3.0926634273	-0.5912308737	-1.3512280932	 0.088667
H	 1.2732074445	-2.8525487383	-1.3787107316	 0.089534
H	 1.0490499537	-2.73212453	 1.4856909005	 0.091597
H	 2.8948365046	-0.4416929535	 1.5133977696	 0.090875
194.3065	225.1	291.162	531.8464	582.1921	704.9819	725.0365	737.713	771.9974	799.1353	805.7367	854.0512	888.7176	894.3022	932.3693	940.0472	977.7093	990.2622	1004.9503	1026.8273	1032.9913	1055.1582	1092.5605	1125.8738	1139.4553	1197.5664	1210.7286	1251.4719	1255.6828	1294.6883	1301.3847	1361.612	1389.0936	1408.9119	1491.3699	1497.3533	3038.4624	3038.9535	3108.5872	3117.8519	3189.1575	3191.8519	3201.8168	3217.6013	3229.3758
CC1C2C3C2C2C3N12	C[C@H]1[C@H]2[C@@H]3[C@H]2[C@H]2[C@@H]3N12	
InChI=1S/C7H9N/c1-2-3-4-5(3)7-6(4)8(2)7/h2-7H,1H3	InChI=1S/C7H9N/c1-2-3-4-5(3)7-6(4)8(2)7/h2-7H,1H3/t2-,3-,4+,5-,6+,7-,8?/m0/s1
