17
gdb 34631	2.38013	1.69024	1.08208	3.6236	81.86	-0.2447	-0.0469	0.1977	1101.2166	0.137739	-380.879211	-380.871272	-380.870327	-380.91223	29.82	
N	 0.1461391793	-1.1228784916	-0.062872132	-0.348382
C	 0.0399611431	 0.029356734	 0.0002213293	 0.199095
C	-0.0158885811	 1.4483507949	 0.0669197552	 0.166182
C	-1.1276387891	 2.19749671	 0.100943081	-0.174585
C	-0.8159692749	 3.6696749263	 0.1180709668	-0.268633
C	 0.7282547471	 3.7292513747	 0.2695949733	-0.297162
C	 1.2212170985	 2.294108326	 0.0459691249	 0.25243
C	 2.5454333019	 1.7797770542	 0.4736788966	-0.299756
N	 2.2799855255	 2.0481195927	-0.9498946225	-0.353349
H	-2.1360364248	 1.8016859396	 0.092309703	 0.1253
H	-1.1683060513	 4.1404287609	-0.8092687482	 0.129404
H	-1.3365202848	 4.1842182383	 0.9333740133	 0.123985
H	 1.20060435	 4.4074294618	-0.4430847953	 0.129668
H	 0.9955031711	 4.0640809173	 1.2761237472	 0.117212
H	 3.2501731785	 2.4613594834	 0.9433431484	 0.122993
H	 2.6143928896	 0.7477265848	 0.8080598481	 0.133288
H	 2.1110397415	 1.1728093625	-1.442796879	 0.242312
51.8476	133.1623	152.6979	255.5257	312.9879	350.9225	447.2685	473.243	561.538	624.4217	662.2626	725.1404	781.5917	838.4999	887.1011	903.7411	920.5751	939.0579	986.7853	1017.5087	1049.8002	1060.6539	1112.8485	1167.75	1174.9605	1234.998	1259.5943	1266.4615	1297.7574	1325.0241	1347.724	1393.3173	1472.02	1493.2858	1507.9749	1670.6441	2335.0818	3024.6212	3056.3729	3068.8667	3104.1528	3121.9855	3192.0577	3213.3186	3483.2135
N#CC1=CCCC11CN1	N#CC1=CCC[C@]21CN2	
InChI=1S/C7H8N2/c8-4-6-2-1-3-7(6)5-9-7/h2,9H,1,3,5H2	InChI=1S/C7H8N2/c8-4-6-2-1-3-7(6)5-9-7/h2,9H,1,3,5H2/t7-/m1/s1
