13
gdb 131304	4.86903	0.91256	0.80927	1.1827	61.58	-0.266	-0.0515	0.2144	1313.9502	0.088882	-486.050593	-486.042702	-486.041758	-486.084674	27.087	
O	 0.2033185023	 1.257658942	-0.3223794131	-0.392606
C	 0.092552331	-0.0549525069	-0.1342237809	 0.488556
N	 0.2126286401	-0.9305351386	-1.1225176395	-0.319712
N	 0.0228543904	-2.0743273022	-0.4538373945	 0.137241
C	 0.095994599	-3.3663515863	-1.0940086052	-0.229612
C	 1.5030759609	-3.6805622123	-1.6097562234	 0.15607
O	 1.715970757	-4.5833021728	-2.3686674854	-0.215707
N	-0.1879342298	-1.9200799716	 0.841963534	-0.119337
N	-0.1513923076	-0.627748257	 1.0670660769	-0.29764
H	 0.0764330297	 1.6833072957	 0.5353123038	 0.323354
H	-0.185036576	-4.1093715711	-0.3426177555	 0.183053
H	-0.6119127442	-3.4163284234	-1.9249281149	 0.174235
H	 2.3043217371	-3.0213929557	-1.2139299522	 0.112105
41.5278	70.7674	98.5633	263.8812	320.411	405.7167	412.302	428.2985	480.8455	686.8569	706.8615	742.6392	775.7274	855.0407	1019.3393	1032.6415	1055.4816	1112.2297	1183.3015	1198.4408	1270.733	1323.5856	1358.9952	1409.5142	1420.7775	1438.3716	1483.5969	1635.6075	1850.1239	2918.7964	3077.745	3134.5134	3801.3014
OC1=NN(CC=O)N=N1	Oc1nn(CC=O)nn1	
InChI=1S/C3H4N4O2/c8-2-1-7-5-3(9)4-6-7/h2H,1H2,(H,5,9)	InChI=1S/C3H4N4O2/c8-2-1-7-5-3(9)4-6-7/h2H,1H2,(H,5,9)
