15
gdb 98115	5.19851	0.81451	0.71032	1.77	69.32	-0.2558	-0.0772	0.1786	1520.1214	0.108129	-457.76366	-457.753709	-457.752765	-457.800118	33.401	
C	-0.0051402208	 1.4213150342	-0.0141535729	-0.246283
O	 0.0151643002	-0.0151927309	-0.0292708544	-0.209171
C	 0.6194386868	-0.5648797292	-1.0782587176	 0.381558
O	 1.135127955	 0.0371727531	-1.9886500783	-0.350868
C	 0.5913783397	-2.1105601907	-1.0074389642	 0.265029
O	 0.074994948	-2.6926755604	-0.0954820381	-0.24783
C	 1.2793864388	-2.7699629092	-2.2020474765	-0.483235
C	 1.2680169619	-4.2204603609	-2.1623360781	 0.313513
C	 1.2602645185	-5.4203701691	-2.1325063946	-0.40979
H	 1.0137965428	 1.8159632344	-0.0087799834	 0.147926
H	-0.5285231473	 1.8035368481	-0.8939016708	 0.147966
H	-0.5310338484	 1.6980718214	 0.898441867	 0.146911
H	 0.7996959331	-2.3862962049	-3.1123265091	 0.17171
H	 2.302598063	-2.3745704752	-2.2531756332	 0.17172
H	 1.2529451887	-6.4818634608	-2.1055057257	 0.200843
36.6423	44.9704	109.6401	112.949	152.4634	199.8325	301.1715	322.5382	346.4811	405.9351	424.5423	506.0567	631.5083	654.45	702.1618	765.422	850.6863	919.9971	945.6765	1006.9	1081.6081	1177.0572	1195.8797	1208.9753	1295.8425	1349.3901	1418.7826	1472.9767	1482.6995	1492.4628	1803.3183	1841.1867	2252.3258	3031.0648	3053.6128	3055.6916	3132.0122	3171.2588	3506.9289
COC(=O)C(=O)CC#C	COC(=O)C(=O)CC#C	
InChI=1S/C6H6O3/c1-3-4-5(7)6(8)9-2/h1H,4H2,2H3	InChI=1S/C6H6O3/c1-3-4-5(7)6(8)9-2/h1H,4H2,2H3
