21
gdb 114043	2.83769	1.19526	1.03066	1.698	78.83	-0.2289	0.0709	0.2999	1282.1936	0.180994	-424.191782	-424.182329	-424.181385	-424.225737	35.881	
C	 0.1090168772	 1.1385933965	 0.6758557855	-0.383892
C	-0.0813864394	 0.3812159777	-0.6431540027	-0.219822
C	-1.4037362471	-0.3670342809	-0.670424269	 0.140215
O	-1.6975891478	-1.0479469987	-1.9365674429	-0.361529
C	-2.1139566193	-2.2334445404	-1.2235501192	 0.385553
C	-3.3652196997	-2.9065829736	-1.6824089612	-0.494688
C	-0.9001608574	-2.8183535684	-0.5937816046	 0.08367
O	 0.3552415561	-2.743147265	-1.1960379296	-0.435865
C	-1.6075007257	-1.6632402377	 0.1077172036	-0.255372
H	 1.0562497659	 1.684903878	 0.6794608146	 0.119312
H	-0.6950083316	 1.8646978981	 0.8407708376	 0.114576
H	 0.1191513562	 0.4513450429	 1.5284607915	 0.12447
H	-0.0711577261	 1.0859651978	-1.4843838059	 0.103076
H	 0.7411596671	-0.3226186685	-0.790708832	 0.117284
H	-2.2275705111	 0.3327053872	-0.4704067344	 0.08222
H	-3.2484620118	-3.2759200265	-2.7077170763	 0.134051
H	-3.5954428311	-3.7614073409	-1.0398782448	 0.12595
H	-4.2151243386	-2.2168626481	-1.6651264822	 0.128499
H	-1.0474993077	-3.7719487983	-0.0931986702	 0.105256
H	 0.2364831736	-2.1759174179	-1.9705283156	 0.29268
H	-2.0163955316	-1.7444569332	 1.1068859679	 0.094357
81.6682	134.5818	167.5292	198.608	231.3069	238.3373	267.2853	302.2692	372.6903	430.8613	476.6254	593.7611	600.03	685.181	732.3693	794.659	835.5468	895.5226	901.1384	936.0694	971.8327	976.5363	985.6264	1042.5829	1068.8113	1098.7626	1117.3161	1138.8748	1168.4497	1206.6348	1255.0966	1279.2399	1306.6553	1313.6272	1346.744	1378.2768	1406.9701	1413.7922	1418.1193	1474.9942	1483.8778	1490.1194	1502.3618	1504.1748	1508.1483	2999.6753	3031.3591	3032.2943	3034.1016	3089.9387	3095.3384	3110.7922	3114.707	3115.2884	3150.5863	3191.0529	3748.2835
CCC1OC2(C)C(O)C12	CC[C@H]1O[C@@]2(C)[C@@H](O)[C@@H]12	
InChI=1S/C7H12O2/c1-3-4-5-6(8)7(5,2)9-4/h4-6,8H,3H2,1-2H3	InChI=1S/C7H12O2/c1-3-4-5-6(8)7(5,2)9-4/h4-6,8H,3H2,1-2H3/t4-,5-,6+,7-/m1/s1
