14
gdb 133527	2.16058	1.49872	1.32461	1.5467	56.01	-0.2846	0.021	0.3056	1007.9551	0.093747	-568.158808	-568.149535	-568.148591	-568.192655	33.893	
C	-0.0063808203	 1.5506077649	 0.0715219844	-0.419648
C	-0.0277673544	 0.0196204361	 0.0295406125	 0.020281
O	 0.683257636	-0.4375365575	 1.1677530456	-0.438843
C	-1.4018037074	-0.5003603643	 0.0084454791	 0.320971
C	-2.5209217346	-0.9352243123	 0.0287583422	-0.465137
C	 0.7136555466	-0.4870058928	-1.2334662242	 0.272048
F	 1.9521690283	 0.0071090827	-1.2950722819	-0.068326
F	 0.8103811868	-1.8263088514	-1.206056727	-0.086799
F	 0.073200636	-0.1401129315	-2.3546153846	-0.069148
H	 1.0281903934	 1.8954075593	 0.1163641404	 0.145037
H	-0.4920859607	 1.9634620615	-0.8143278651	 0.142162
H	-0.5374313633	 1.887956863	 0.9626586527	 0.143688
H	 0.6165987234	-1.3996190613	 1.1903545139	 0.294353
H	-3.5107051498	-1.3216629164	 0.0379491218	 0.209364
72.7198	133.0197	180.9911	206.1408	235.7008	270.587	327.8782	353.9587	396.1844	422.496	435.8888	538.5673	564.0219	605.0166	638.9293	659.5723	681.8114	751.5391	896.4028	961.2337	1072.3468	1137.0682	1194.109	1212.8055	1225.4887	1301.2437	1376.047	1405.1144	1484.7279	1491.6258	2239.8964	3067.7688	3154.5341	3155.4724	3498.6122	3800.5832
CC(O)(C#C)C(F)(F)F	C[C@@](O)(C#C)C(F)(F)F	
InChI=1S/C5H5F3O/c1-3-4(2,9)5(6,7)8/h1,9H,2H3	InChI=1S/C5H5F3O/c1-3-4(2,9)5(6,7)8/h1,9H,2H3/t4-/m1/s1
