17
gdb 76245	1.93465	1.66921	1.19885	1.3187	74.66	-0.2428	-0.0362	0.2066	1097.5034	0.132699	-421.796033	-421.786593	-421.785649	-421.830605	34.43	
C	 0.763530163	 1.5350136238	 0.0025381667	-0.398409
C	 0.0861844098	 0.1612537362	 0.0026541471	-0.165347
C	 0.4840519631	-0.7934835635	-1.1828188502	 0.124532
O	 1.1499983606	-0.2469971355	-2.2792692849	-0.422825
C	 1.3195197282	-1.705706683	-0.1912902938	-0.365609
C	 2.7494877076	-1.5699157588	-0.3428708604	 0.298888
C	 3.9254345299	-1.376166191	-0.517936684	-0.427594
C	 0.7133606134	-0.8452610299	 0.9716658926	 0.411053
O	 0.7172972635	-0.9797888048	 2.1568818001	-0.284844
H	 1.8515513959	 1.4484208351	-0.067994317	 0.123877
H	 0.4173815032	 2.1226392089	-0.8514255605	 0.137776
H	 0.527233853	 2.0728285585	 0.9243052783	 0.135143
H	-0.9933731786	 0.2750642336	 0.1460434834	 0.103399
H	-0.3827055357	-1.3374769622	-1.5666461876	 0.102375
H	 2.0923463445	-0.1980579169	-2.0683508023	 0.287943
H	 1.0176562762	-2.7569136058	-0.1565126338	 0.12953
H	 4.9727152724	-1.2449187647	-0.6393729338	 0.210108
38.9915	119.5778	152.1712	190.2307	197.6711	231.914	310.7823	347.136	392.0061	460.1066	508.4153	586.261	617.2174	618.8873	665.1425	735.5756	789.6518	827.8439	861.1437	949.6956	1027.4065	1043.0659	1084.4854	1121.0362	1127.972	1159.9658	1221.8686	1246.6935	1274.6137	1307.9725	1343.2836	1406.0454	1435.587	1491.0675	1498.7594	1897.9364	2218.3474	3048.0269	3056.578	3065.843	3082.3724	3120.6082	3129.2948	3499.096	3739.7699
CC1C(O)C(C#C)C1=O	C[C@H]1[C@@H](O)[C@@H](C#C)C1=O	
InChI=1S/C7H8O2/c1-3-5-6(8)4(2)7(5)9/h1,4-6,8H,2H3	InChI=1S/C7H8O2/c1-3-5-6(8)4(2)7(5)9/h1,4-6,8H,2H3/t4-,5+,6+/m0/s1
