22
gdb 62639	2.76483	1.68833	1.23067	1.5351	87.11	-0.2208	0.0945	0.3153	1104.9591	0.192544	-367.128036	-367.118939	-367.117994	-367.161359	35.559	
C	-0.0387468493	 1.4334851361	-0.8288285757	-0.45221
C	 0.0124063367	-0.0934123178	-0.8407482987	 0.358594
C	-1.4028796653	-0.6291638305	-1.0401263014	-0.464545
C	 1.204917797	-0.7704221133	-1.5368723844	-0.1613
C	 2.1203341249	-0.3259935838	-0.3590172195	-0.004687
C	 2.6868408437	-1.7129111605	-0.1117590094	-0.301131
C	 1.2125568452	-1.9322008163	-0.4735798966	 0.369612
C	 0.5326240691	-3.272797262	-0.4039668328	-0.523447
N	 0.7865680333	-0.6727381818	 0.3671915493	-0.232264
H	 0.9341558738	 1.8961164982	-0.6538541903	 0.113765
H	-0.4193434038	 1.8075217653	-1.7855773266	 0.11295
H	-0.719378331	 1.7795870185	-0.0430619992	 0.12243
H	-1.8971772449	-0.0889768688	-1.8547872543	 0.112561
H	-1.4402959297	-1.6890311465	-1.2864398472	 0.11528
H	-1.9934106845	-0.4687498654	-0.1311092718	 0.125227
H	 1.4639852293	-0.8337627082	-2.6016278648	 0.052929
H	 2.5966512175	 0.6415529957	-0.2098198478	 0.081365
H	 3.4292377951	-2.0809968379	-0.825483784	 0.091974
H	 2.9645816844	-1.9472736595	 0.9203977541	 0.100889
H	 0.6656477836	-3.6917072228	 0.5994813809	 0.130799
H	-0.5364273018	-3.2481382457	-0.6155556607	 0.128812
H	 1.0040089968	-3.959255703	-1.1165738392	 0.122396
77.9085	133.1596	165.2754	190.0718	273.757	309.218	322.4601	346.332	396.5976	477.9305	519.6085	611.861	656.0573	697.6283	804.2577	820.9045	831.6619	865.7902	898.4925	942.2509	963.6957	978.5581	997.2133	1008.6465	1028.3357	1059.7693	1111.1817	1139.7807	1147.8605	1154.7921	1182.047	1202.584	1225.9824	1246.6339	1296.3434	1316.1748	1326.3129	1398.8894	1409.1837	1417.9899	1474.5435	1477.6122	1487.5254	1492.2052	1495.5699	1503.6963	1514.5509	3016.8889	3034.0593	3036.329	3041.5108	3046.7412	3091.3986	3094.6262	3097.7836	3109.6628	3118.6071	3133.7612	3135.0551	3161.6936
CC1(C)C2C3CC2(C)N13	CC1(C)[C@H]2[C@@H]3C[C@@]2(C)N13	
InChI=1S/C8H13N/c1-7(2)6-5-4-8(6,3)9(5)7/h5-6H,4H2,1-3H3	InChI=1S/C8H13N/c1-7(2)6-5-4-8(6,3)9(5)7/h5-6H,4H2,1-3H3/t5-,6+,8+/m0/s1
