16
gdb 53245	8.1426	0.65038	0.63477	5.1569	80.71	-0.2637	-0.0128	0.2509	1728.4675	0.122699	-400.71337	-400.703968	-400.703024	-400.749858	31.738	
C	 0.3888856132	 1.5444937071	-0.4260005079	-0.498766
C	 0.0941276299	 0.1401935215	-0.1878951634	 0.070454
C	-0.1574878954	-1.0215515945	 0.0066430183	 0.092364
C	-0.4510506608	-2.4192033014	 0.2408999509	-0.038228
C	 0.1775727399	-3.092545818	 1.4923141736	-0.308231
C	-1.2886502427	-3.3586972184	 1.9137066834	 0.005544
O	-1.7974470636	-2.653742933	 0.7682203177	-0.280113
C	-1.7000054042	-4.7666850581	 1.9405508008	 0.273274
N	-2.0102153213	-5.8795591337	 1.9701808945	-0.316362
H	 1.2253322348	 1.8857883647	 0.1933712495	 0.153803
H	 0.6508684458	 1.7245369618	-1.473986183	 0.155937
H	-0.4783860349	 2.1693015533	-0.186654219	 0.159836
H	-0.3107158891	-3.000764326	-0.6781284901	 0.119954
H	 0.7842755034	-3.9755350051	 1.2977826969	 0.140836
H	 0.7070176244	-2.4065933399	 2.1514129889	 0.136282
H	-1.6013434794	-2.8847459005	 2.8509988489	 0.133415
29.1311	31.2218	77.5046	132.5437	189.9472	232.5308	308.8793	329.9168	441.6849	498.1151	543.2137	596.2344	696.5542	772.5151	865.2251	944.3959	948.1156	1006.3489	1022.0551	1049.4239	1053.8211	1070.3128	1149.2328	1192.479	1247.2766	1256.643	1284.7542	1352.6914	1383.3844	1413.125	1474.2602	1476.6456	1486.0326	2355.2275	2368.3516	3031.3899	3032.3071	3046.3743	3094.3395	3095.8874	3106.5762	3171.9843
CC#CC1CC(O1)C#N	CC#C[C@H]1C[C@@H](O1)C#N	
InChI=1S/C7H7NO/c1-2-3-6-4-7(5-8)9-6/h6-7H,4H2,1H3	InChI=1S/C7H7NO/c1-2-3-6-4-7(5-8)9-6/h6-7H,4H2,1H3/t6-,7+/m0/s1
