20
gdb 116672	2.24563	0.95375	0.69884	2.5686	81.67	-0.2432	-0.0243	0.2189	1649.7759	0.166686	-440.287975	-440.276981	-440.276037	-440.325703	36.886	
C	-0.0230837147	 1.393715817	 0.5829710493	-0.3833
C	-0.1267340227	-0.0671495569	 0.1436819513	-0.190129
C	 0.5033816005	-0.3133079353	-1.236700409	-0.061027
C	 0.5625299414	-1.8128938836	-1.5474647812	 0.160109
O	 0.4284393041	-2.2959892603	-2.6398060563	-0.243784
N	-0.2027824072	 0.424458981	-2.2582970756	-0.221826
C	 0.3549781831	 0.5534582259	-3.381193769	 0.149685
O	-0.2786363649	 1.1887301083	-4.3808514889	-0.191008
C	 0.4089992425	 1.2166294074	-5.6272037331	-0.251759
H	 1.0240578904	 1.7035684459	 0.6796566371	 0.107085
H	-0.5019968493	 2.0460973628	-0.151807087	 0.142527
H	-0.508672324	 1.5489946538	 1.5509652986	 0.112169
H	 0.3622247043	-0.7177530547	 0.8796716035	 0.091968
H	-1.1801112161	-0.3673291829	 0.0960835904	 0.115412
H	 1.5714491698	-0.020331173	-1.1725805773	 0.091889
H	 0.781254042	-2.4479425556	-0.6584324399	 0.079195
H	 1.3634370302	 0.1977386229	-3.6359407471	 0.082535
H	 1.4037270797	 1.6678494673	-5.5278286549	 0.125689
H	 0.50713688	 0.209643535	-6.0487688092	 0.137749
H	-0.1952388792	 1.8293012649	-6.2969749917	 0.146821
34.8187	67.8884	90.4818	122.4377	127.741	149.5569	201.1045	207.1585	254.6294	322.9887	375.4238	404.6319	465.7992	562.7688	678.4901	788.9833	842.4544	938.1879	975.0159	1000.3252	1007.0492	1060.8676	1084.1934	1146.1378	1154.842	1176.6064	1187.6803	1261.1807	1273.744	1299.9474	1339.6859	1373.9321	1406.4533	1408.8136	1428.3413	1478.7496	1485.1255	1493.6221	1495.499	1501.2673	1509.7298	1764.2653	1833.5408	2869.0645	2897.974	3010.2854	3023.2946	3026.961	3033.1809	3068.454	3083.4844	3100.6978	3124.3025	3146.9764
CCC(C=O)N=COC	CC[C@@H](C=O)N=COC	
InChI=1S/C6H11NO2/c1-3-6(4-8)7-5-9-2/h4-6H,3H2,1-2H3	InChI=1S/C6H11NO2/c1-3-6(4-8)7-5-9-2/h4-6H,3H2,1-2H3/t6-/m0/s1
