18
gdb 99938	3.65103	0.72721	0.70188	5.9211	87.23	-0.2722	-0.0421	0.23	1658.5573	0.144161	-401.926859	-401.916354	-401.91541	-401.963091	36.756	
C	 0.1147495685	 1.3761993449	 0.007961621	-0.244914
O	-0.0210437182	-0.0316823845	 0.0023700383	-0.274433
C	-1.3496760575	-0.5618843259	 0.0120492449	 0.131555
C	-2.1175005924	-0.1755813767	 1.2943165305	-0.418426
C	-2.1416388224	-0.1618913673	-1.2511898657	-0.41847
C	-1.1550616654	-2.019713694	 0.0023733241	 0.149139
C	-1.0396949585	-3.2215963936	-0.0052367505	 0.03888
C	-0.9059047	-4.5806446721	-0.0139052624	 0.196855
N	-0.7971093473	-5.7371765514	-0.0213349968	-0.335266
H	 1.189609837	 1.570152915	-0.0004615327	 0.140192
H	-0.3288017927	 1.8483727484	-0.8784102732	 0.113791
H	-0.3132648918	 1.8398070189	 0.9064120718	 0.113771
H	-2.3458772596	 0.8933879384	 1.2976146778	 0.125578
H	-3.0620761304	-0.7223181865	 1.3482101392	 0.136533
H	-1.5207306739	-0.4165538949	 2.1768797759	 0.141541
H	-1.5617030082	-0.3931559482	-2.1474694386	 0.141542
H	-3.0870418873	-0.7082471962	-1.2930872006	 0.136545
H	-2.37007322	 0.9069956057	-1.2385797331	 0.125585
41.5649	76.8924	90.0792	173.3695	216.2444	221.3792	256.9096	263.0568	309.3082	340.5165	391.1757	401.1301	520.6067	536.3488	592.526	592.8286	653.3465	801.6782	919.4436	929.76	1013.3547	1061.0908	1109.4168	1166.7821	1178.5674	1183.8479	1210.8933	1295.7857	1389.6121	1409.6922	1471.9939	1474.1884	1478.461	1497.2767	1499.656	1504.025	1514.1502	2266.3422	2404.3924	3003.6571	3048.6778	3054.4382	3060.3305	3121.1908	3125.362	3130.8431	3137.6558	3139.3027
COC(C)(C)C#CC#N	COC(C)(C)C#CC#N	
InChI=1S/C7H9NO/c1-7(2,9-3)5-4-6-8/h1-3H3	InChI=1S/C7H9NO/c1-7(2,9-3)5-4-6-8/h1-3H3
