19
gdb 95181	2.5977	1.74483	1.16809	4.1319	76.09	-0.2281	0.0045	0.2325	1072.7142	0.161072	-419.206917	-419.198836	-419.197892	-419.239396	31.287	
C	-0.369547537	 1.4701427114	 0.0153688825	-0.407893
C	-0.0248535803	-0.010753862	 0.0235254648	-0.060745
N	 0.7771073879	-0.3822020537	-1.158431957	-0.314708
C	 0.840118965	-1.8254585108	-1.3365114629	-0.194255
C	 1.3692163194	-2.4740477529	-0.0682351275	 0.002359
C	 2.6283535339	-2.0419212328	 0.6128239786	-0.242662
N	 1.3177053038	-1.7193456224	 1.1800465953	-0.112506
C	 0.894010621	-0.376284973	 1.1919550237	 0.407519
O	 1.2706698795	 0.4035895268	 2.0307705671	-0.328918
H	 0.5389425639	 2.0715270705	-0.0659980289	 0.139036
H	-1.0312088041	 1.7071561218	-0.8247287943	 0.103162
H	-0.8740637132	 1.7475909608	 0.9428396224	 0.138353
H	-0.9523672084	-0.611428413	 0.0904919391	 0.074386
H	 0.4076408144	 0.0657085426	-1.9892408924	 0.226861
H	-0.1513219021	-2.2697077716	-1.5467975524	 0.089449
H	 1.4882981349	-2.0616133419	-2.1882315739	 0.113714
H	 1.0804821838	-3.5168009546	 0.0497876653	 0.10068
H	 3.2225685051	-2.7642555545	 1.1652873795	 0.124959
H	 3.1819761327	-1.2155390407	 0.1762070709	 0.14121
81.3144	194.0235	197.0276	258.9276	284.867	323.4591	369.8954	427.989	467.2315	550.5605	649.3426	699.3736	758.6491	780.2445	830.1642	911.5515	932.7233	964.0852	972.9035	1038.8503	1074.804	1095.684	1116.2663	1125.1601	1132.0346	1159.1097	1172.7167	1185.9352	1271.4837	1290.978	1346.9826	1355.3287	1394.6382	1411.3745	1421.1148	1473.4017	1490.4953	1494.7685	1501.4237	1506.2234	1820.75	2912.0304	2919.3332	3044.2189	3054.3215	3113.127	3118.5315	3123.7019	3141.8002	3206.0051	3535.5526
CC1NCC2CN2C1=O	C[C@H]1NC[C@H]2CN2C1=O	
InChI=1S/C6H10N2O/c1-4-6(9)8-3-5(8)2-7-4/h4-5,7H,2-3H2,1H3	InChI=1S/C6H10N2O/c1-4-6(9)8-3-5(8)2-7-4/h4-5,7H,2-3H2,1H3/t4-,5+,8?/m1/s1
