21
gdb 92830	2.25067	1.62837	1.46378	1.3496	84.31	-0.2316	0.0096	0.2412	1062.6364	0.182563	-387.074698	-387.066065	-387.06512	-387.107396	34.326	
C	-0.1277864236	 1.5151210692	-0.0756733407	-0.401751
C	 0.0104531542	-0.0073421502	-0.0172573796	-0.035904
C	 0.9692009511	-0.5343603268	-1.1445426308	-0.264074
C	 2.3217224691	-0.6719533529	-0.4495029227	-0.234881
C	 2.1340854745	-0.7307027644	 0.8641309274	 0.261145
C	 2.673043832	-0.3294987092	 2.2213685012	-0.345491
C	 1.2487546323	 0.3022849538	 2.4778736679	-0.294824
C	 0.6936973134	-0.5390401892	 1.2655284386	 0.391841
O	-0.0198805367	-1.7026609032	 1.6765285181	-0.498335
H	 0.8515103271	 2.0056945483	-0.0342902509	 0.113921
H	-0.6102680248	 1.8217598364	-1.0093553883	 0.111649
H	-0.7319905615	 1.8952364576	 0.754309439	 0.115209
H	-0.9809875765	-0.4612565609	-0.0996124074	 0.081223
H	 0.6209241189	-1.4875584843	-1.5628614146	 0.110765
H	 1.0222313501	 0.1706746418	-1.9825530175	 0.096551
H	 3.265582239	-0.6327276419	-0.9831767873	 0.092304
H	 2.8771357577	-1.168886781	 2.8957031549	 0.104986
H	 3.5380488124	 0.3376555323	 2.2389148917	 0.113982
H	 0.7818826445	 0.0850926627	 3.4422158201	 0.098471
H	 1.242479641	 1.3799051337	 2.3045103496	 0.109969
H	 0.555333166	-2.2310499217	 2.2403354911	 0.273242
85.4282	199.3779	220.7261	238.5929	263.1099	278.633	319.4463	370.3694	449.7648	500.4095	583.1701	649.4416	695.6136	745.4565	784.275	814.4711	860.8457	897.9456	910.0871	914.6081	967.5727	991.1043	1003.4016	1046.8252	1076.7058	1086.1433	1123.3179	1130.2874	1162.396	1206.6892	1217.7789	1220.9695	1244.7296	1249.9515	1299.5811	1330.9212	1352.9492	1374.3683	1407.7904	1466.6947	1479.7569	1487.5347	1498.0882	1503.5333	1732.344	3020.1683	3027.7839	3039.1634	3055.2604	3064.5184	3068.8706	3096.904	3099.3051	3101.4342	3132.4871	3183.903	3802.8122
CC1CC=C2CCC12O	C[C@H]1C[CH][C]2CC[C@@]12O	
InChI=1S/C8H12O/c1-6-2-3-7-4-5-8(6,7)9/h3,6,9H,2,4-5H2,1H3	InChI=1S/C8H12O/c1-6-2-3-7-4-5-8(6,7)9/h3,6,9H,2,4-5H2,1H3/t6-,8+/m0/s1
