19
gdb 80656	2.53371	1.79967	1.31347	4.2917	74.43	-0.2582	0.0098	0.268	1016.5001	0.161063	-423.062022	-423.054489	-423.053545	-423.093851	30.142	
C	-0.3958673087	 1.4280019574	 0.0122461015	-0.407469
C	 0.0663424122	-0.0344025691	-0.0288683925	-0.123413
C	 0.8958749088	-0.3951711955	-1.2685563501	-0.025787
C	 1.4167610095	-1.8519004539	-1.1019152483	-0.25781
C	 2.5175122452	-1.2223814597	-0.2206488765	 0.126361
C	 2.3667718005	 0.0711669273	-1.050691855	-0.251677
O	 2.0281417024	-1.0110691843	 1.1185097967	-0.239258
C	 0.828578118	-0.3870342449	 1.2612418509	 0.417804
O	 0.4115258264	-0.1465639264	 2.3607589058	-0.339447
H	 0.4516189984	 2.1178843504	-0.0551714111	 0.12158
H	-1.0690784674	 1.637122645	-0.8245500366	 0.114529
H	-0.9217354461	 1.6280017929	 0.9477340441	 0.148212
H	-0.8295718674	-0.6700006897	-0.0076067373	 0.11128
H	 0.3856006042	-0.1182760164	-2.1937163486	 0.070948
H	 0.7626570598	-2.5921431273	-0.63336051	 0.109119
H	 1.8307623061	-2.2545565662	-2.0292700626	 0.109784
H	 3.4868335024	-1.705574431	-0.1031001251	 0.091663
H	 2.9534058107	 0.0258609059	-1.9709420109	 0.111117
H	 2.5544707851	 1.0181088653	-0.5384504044	 0.112464
93.5343	212.6697	227.2529	273.696	383.5557	395.356	442.0055	477.1368	518.284	595.8631	682.8579	766.5986	817.4271	840.6993	891.9371	896.975	921.1052	962.5986	977.5816	1029.267	1058.4136	1074.4912	1096.3593	1112.5403	1124.0972	1151.0447	1168.9439	1209.2897	1246.1409	1269.3845	1282.8176	1306.4344	1335.1075	1362.4542	1389.7123	1405.8511	1470.1416	1495.5994	1498.5514	1504.0631	1846.7104	3017.4545	3042.1822	3060.4325	3065.4068	3083.7654	3107.8348	3119.8385	3122.2219	3126.7542	3137.9456
CC1C2CC(C2)OC1=O	C[C@H]1[C@@H]2C[C@@H](C2)OC1=O	
InChI=1S/C7H10O2/c1-4-5-2-6(3-5)9-7(4)8/h4-6H,2-3H2,1H3	InChI=1S/C7H10O2/c1-4-5-2-6(3-5)9-7(4)8/h4-6H,2-3H2,1H3/t4-,5-,6+/m0/s1
