14
gdb 128448	4.82094	1.05704	0.87171	1.8166	65.56	-0.2819	-0.0405	0.2413	1247.8998	0.102661	-470.036322	-470.028397	-470.027453	-470.069756	27.248	
C	-0.0394220311	 1.3416836628	-0.0352950027	-0.242271
O	 0.0206988248	-0.0891646524	 0.0243853046	-0.224062
C	 0.6570985651	-0.5863022952	 1.0941679679	 0.386283
O	 1.1579656084	 0.0825271527	 1.9673589103	-0.375076
C	 0.686508152	-2.0615723907	 1.1012140239	 0.19468
N	 0.1465458375	-2.8458621154	 0.1595442396	-0.265253
N	 0.4234468662	-4.058349902	 0.5952644773	-0.061145
N	 1.0976017426	-4.1537957371	 1.7397669526	-0.195115
C	 1.2768453961	-2.8814753378	 2.0820101057	-0.095101
H	 0.9663027765	 1.7681482377	-0.0695913819	 0.1431
H	-0.5857883007	 1.5747936591	-0.9487528742	 0.137856
H	-0.5610279669	 1.7419572861	 0.837695001	 0.143305
H	 0.1371692965	-4.879014426	 0.0841457309	 0.300901
H	 1.799999143	-2.6003027219	 2.9805048949	 0.151897
68.3783	111.013	132.5897	151.0551	255.5547	313.9341	395.0292	503.4913	576.9087	676.1856	728.9535	806.5819	820.6755	919.671	979.8087	994.6895	1036.0771	1138.0369	1178.8199	1184.1335	1215.2835	1239.3692	1266.317	1379.9616	1399.5465	1463.2814	1482.0523	1492.9422	1502.7206	1557.6532	1800.8832	3052.7503	3127.1557	3163.5727	3290.8767	3656.8061
COC(=O)C1=NNN=C1	COC(=O)c1n[nH]nc1	
InChI=1S/C4H5N3O2/c1-9-4(8)3-2-5-7-6-3/h2H,1H3,(H,5,6,7)	InChI=1S/C4H5N3O2/c1-9-4(8)3-2-5-7-6-3/h2H,1H3,(H,5,6,7)
