15
gdb 45332	2.56301	1.94803	1.21325	4.8441	66.49	-0.2698	-0.0048	0.265	972.3337	0.114795	-453.977803	-453.970733	-453.969788	-454.009845	26.435	
N	-0.2749699215	 1.105151833	-0.5833532428	-0.507441
C	-0.1665574852	-0.022908257	-0.0533367612	 0.365012
C	-1.1377621123	-0.9830115469	 0.631018831	-0.341784
C	 0.054385361	-1.9820202023	 0.7008326332	-0.00092
C	 0.1750071699	-3.1473790121	-0.2995148077	-0.109687
O	 1.3065216478	-2.806053359	-1.1244060037	-0.232881
C	 1.6024190685	-1.4766301798	-1.0255166782	 0.453823
O	 2.3022056767	-0.8829994583	-1.7885749151	-0.35362
N	 0.9301155892	-0.9558902131	 0.0974841196	-0.184394
H	 0.611087384	 1.418516132	-0.9848150733	 0.250923
H	-1.5247467207	-0.6418356445	 1.5927350779	 0.144779
H	-1.9716098056	-1.2927504709	-0.0032641609	 0.142903
H	 0.3620632052	-2.266505622	 1.709108433	 0.10875
H	 0.3837530153	-4.1054028479	 0.178887549	 0.137233
H	-0.7072517623	-3.2521745613	-0.9414292708	 0.127304
85.936	125.8346	162.0043	313.7021	428.806	475.3163	512.8625	608.8104	682.5	726.8633	762.4783	792.0494	848.5566	893.8879	919.0464	976.8019	1025.6733	1043.772	1067.7699	1069.7689	1117.9387	1165.3718	1195.193	1226.2118	1234.7905	1247.7239	1289.9327	1368.9905	1393.305	1461.1723	1520.6645	1806.3999	1898.5344	3042.6378	3079.8187	3084.2664	3122.1996	3137.1981	3474.1746
N=C1CC2COC(=O)N12	[NH][C]1C[C@H]2COC(=O)N12	
InChI=1S/C5H6N2O2/c6-4-1-3-2-9-5(8)7(3)4/h3,6H,1-2H2	InChI=1S/C5H6N2O2/c6-4-1-3-2-9-5(8)7(3)4/h3,6H,1-2H2/t3-/m0/s1
