14
gdb 51147	3.29114	1.21314	0.97679	3.7673	64.41	-0.2746	-0.0186	0.256	1157.8014	0.099446	-473.797626	-473.78971	-473.788766	-473.831361	28.172	
N	-0.1770110384	 1.3492020927	-0.131340552	-0.428154
C	-0.0963237973	 0.0962412599	-0.1606018531	 0.11673
O	-1.1769933469	-0.6437714325	 0.2332623023	-0.214774
C	-1.037595412	-2.0066711725	 0.1412547745	 0.223175
C	-1.2019454978	-2.8001319911	-1.1683232767	-0.349565
C	-2.0823242315	-3.0743752529	 0.0000355757	 0.015137
O	-1.3673521543	-3.938408441	 0.9296357763	-0.259261
C	-0.4422547833	-2.9314475326	 1.1880474402	 0.411549
O	 0.4247205784	-2.9190656893	 1.9945783225	-0.316388
H	 0.6986357354	 1.7665332987	-0.4397925636	 0.241237
H	 0.7573662158	-0.5184208149	-0.4669334601	 0.110467
H	-1.6436814223	-2.2018225561	-1.9603836544	 0.149418
H	-0.4675683189	-3.5365628992	-1.4777440133	 0.146347
H	-3.1590888969	-3.0390667792	 0.0710043719	 0.154082
41.2542	89.0402	145.3168	197.7247	286.2682	387.4506	458.8883	464.0001	565.5646	669.7135	768.2424	795.0228	825.5935	853.6302	914.524	928.8335	983.3494	1022.4957	1033.5185	1042.25	1053.3309	1076.585	1086.9776	1235.3354	1263.3027	1276.2683	1401.6394	1414.4774	1481.055	1755.652	1955.5459	3063.2702	3125.1971	3222.8194	3243.4226	3524.2335
N=COC12CC1OC2=O	[NH][CH]O[C@]12C[C@H]1OC2=O	
InChI=1S/C5H5NO3/c6-2-8-5-1-3(5)9-4(5)7/h2-3,6H,1H2	InChI=1S/C5H5NO3/c6-2-8-5-1-3(5)9-4(5)7/h2-3,6H,1H2/t3-,5-/m1/s1
