20
gdb 126589	5.4358	0.67435	0.64339	2.2786	81.28	-0.2547	0.0132	0.2679	1790.6005	0.172852	-399.369952	-399.360841	-399.359897	-399.40524	32.624	
C	-0.1245744799	 1.5505927543	 0.0128364907	-0.381835
C	 0.0270198502	 0.0271031799	 0.0042273851	-0.162613
C	 0.7449179502	-0.5099381688	 1.2459834345	-0.157117
C	 0.8997159079	-2.0409572549	 1.2339021126	-0.30245
C	 1.5510414472	-2.5663827451	 2.4718907503	 0.346257
N	 2.7434800774	-3.1468357775	 2.4656859565	-0.268766
N	 2.9303091689	-3.4393055074	 3.7769476858	-0.179047
C	 1.8695814486	-3.0332117598	 4.500505573	 0.014494
N	 0.9746242632	-2.4752426474	 3.7121935522	-0.300242
H	 0.8523069378	 2.0453647726	 0.0518602229	 0.113285
H	-0.6419182929	 1.9063338551	-0.8837800517	 0.109878
H	-0.6983655112	 1.8858483815	 0.8839389582	 0.115003
H	-0.9641347753	-0.4399793579	-0.0702472063	 0.09491
H	 0.5756920104	-0.2821266819	-0.8954825125	 0.093834
H	 1.7384267066	-0.0495058878	 1.3254296566	 0.096703
H	 0.1961717321	-0.2178991073	 2.1493131737	 0.114921
H	-0.0917540169	-2.5000904797	 1.1353293944	 0.114129
H	 1.4935781218	-2.3571556476	 0.370830674	 0.115441
H	 3.7733353807	-3.9020822508	 4.0735863187	 0.280191
H	 1.7961315534	-3.1643921996	 5.5699085214	 0.143024
39.0169	83.2006	92.1803	125.3848	244.6108	249.8432	323.444	345.4538	442.76	531.4144	681.0942	720.0799	738.6096	785.363	806.5384	856.1137	910.3932	935.5086	992.4906	1000.4786	1019.2173	1063.7144	1091.0212	1108.9444	1123.9884	1171.6706	1237.5188	1277.5727	1293.1142	1310.1096	1331.6251	1356.4927	1361.9654	1396.4687	1413.0488	1469.4572	1471.5881	1485.7764	1491.0527	1499.7185	1500.3051	1512.6332	1561.8625	3011.27	3021.2065	3029.608	3035.7527	3039.0343	3066.0688	3093.9994	3098.5492	3100.7792	3255.7173	3668.335
CCCCC1=NNC=N1	CCCCc1n[nH]cn1	
InChI=1S/C6H11N3/c1-2-3-4-6-7-5-8-9-6/h5H,2-4H2,1H3,(H,7,8,9)	InChI=1S/C6H11N3/c1-2-3-4-6-7-5-8-9-6/h5H,2-4H2,1H3,(H,7,8,9)
