19
gdb 115743	2.92964	1.15476	0.96213	3.7891	70.9	-0.2465	0.0633	0.3099	1256.0731	0.158988	-460.106768	-460.097958	-460.097014	-460.141066	32.018	
O	 0.1143549738	 1.3362850744	-0.3959006534	-0.425066
C	 0.0677060592	 0.0716405352	 0.2386596158	-0.084556
C	-1.3287264351	-0.5154870089	 0.0883981333	 0.105525
O	-1.6612553652	-0.6225405233	-1.3215123701	-0.304144
C	-1.7493298594	-2.062168347	-1.2451725862	-0.096602
C	-1.5455840476	-2.0432299434	 0.2847743266	-0.100466
C	-0.4415167224	-2.8782055239	 0.8788922454	 0.063873
C	-0.1307353306	-4.2290824599	 0.3930748363	-0.187773
O	 0.7174499331	-3.1225879762	 0.077488626	-0.222984
H	-0.2072865584	 1.186752487	-1.2939226448	 0.29236
H	 0.8144167369	-0.6189310895	-0.1773439988	 0.115393
H	 0.3051678414	 0.2333821411	 1.2964252564	 0.102635
H	-2.0536130871	 0.128682246	 0.6010939093	 0.083803
H	-2.7171991396	-2.4289694629	-1.6029956641	 0.105049
H	-0.9398674643	-2.5488363632	-1.8009135577	 0.119211
H	-2.4666571963	-2.2483803166	 0.838243217	 0.092218
H	-0.2119203807	-2.6601657243	 1.9236611815	 0.100306
H	 0.2949260978	-4.9655708216	 1.0723147277	 0.122948
H	-0.6896672753	-4.640736833	-0.4465266004	 0.11827
69.6332	94.7448	113.5898	141.9067	227.3788	249.792	336.9281	451.3218	467.5615	526.4974	586.7257	714.8504	809.7722	845.2151	886.0647	917.2462	931.9428	972.5926	1020.284	1038.8904	1062.2759	1082.3962	1102.9052	1124.2215	1134.468	1165.3356	1172.589	1180.5034	1214.7132	1246.3973	1276.3352	1298.103	1339.0817	1348.2345	1387.4651	1404.6451	1431.5168	1439.142	1505.0455	1517.6443	1530.2925	3012.1788	3027.7311	3031.8351	3063.4924	3071.85	3081.4473	3085.3504	3094.6206	3172.894	3780.0215
OCC1OCC1C1CO1	OC[C@H]1OC[C@H]1[C@H]1CO1	
InChI=1S/C6H10O3/c7-1-5-4(2-8-5)6-3-9-6/h4-7H,1-3H2	InChI=1S/C6H10O3/c7-1-5-4(2-8-5)6-3-9-6/h4-7H,1-3H2/t4-,5-,6-/m1/s1
