19
gdb 95672	2.73168	1.28389	0.98539	2.1267	79.28	-0.2456	-0.0581	0.1875	1215.1672	0.160564	-423.052105	-423.043623	-423.042679	-423.085721	32.266	
O	 0.3961743609	 0.8156995147	 0.9397840437	-0.430118
C	 0.012360471	-0.2722199058	 0.0874597185	 0.082997
C	-1.5067717759	-0.4450870094	 0.0400327746	-0.213635
C	-2.2737546098	 0.6160449943	-0.7538100337	-0.226125
C	-2.2597391815	 0.3865996892	-2.2683100797	-0.296967
C	-0.9511218133	 0.6002385201	-3.0151912798	 0.356769
O	-0.9746551056	 1.0527498203	-4.1452637609	-0.319873
C	 0.3756236919	 0.2472344123	-2.4417642596	-0.142921
C	 0.762548278	-0.1200881197	-1.2121198297	-0.082455
H	 0.255723461	 1.6336785913	 0.4505319901	 0.284412
H	 0.422746521	-1.1544712919	 0.5943585727	 0.097981
H	-1.7382044175	-1.4394090917	-0.3641083584	 0.097823
H	-1.8413526279	-0.4426031986	 1.082659971	 0.11168
H	-3.3190670113	 0.6103758439	-0.4275009139	 0.110707
H	-1.8972814775	 1.619422733	-0.5141249521	 0.092471
H	-2.563932941	-0.6518255637	-2.4690734481	 0.124992
H	-2.9936265456	 1.0221210131	-2.7711732734	 0.124867
H	 1.1497495451	 0.3664182268	-3.1965371589	 0.111604
H	 1.8342766682	-0.255935898	-1.0722929825	 0.11579
42.5671	108.6401	221.955	255.6307	303.4679	333.764	339.7771	409.0508	449.2313	490.1671	592.8096	634.2905	677.2834	778.95	818.6947	842.9149	886.8877	898.1107	931.7692	998.9615	1049.3096	1055.0833	1082.1431	1124.9694	1168.7665	1208.9073	1231.0606	1258.5962	1292.4518	1305.6681	1363.1194	1379.2721	1384.3643	1408.799	1411.4802	1428.9783	1457.4173	1477.842	1494.0322	1694.7097	1751.0419	3007.0116	3019.2879	3025.944	3035.6587	3068.8638	3077.8924	3095.3147	3134.1657	3163.4927	3808.8932
OC1CCCC(=O)C=C1	O[C@H]1CCCC(=O)C=C1	
InChI=1S/C7H10O2/c8-6-2-1-3-7(9)5-4-6/h4-6,8H,1-3H2	InChI=1S/C7H10O2/c8-6-2-1-3-7(9)5-4-6/h4-6,8H,1-3H2/t6-/m0/s1
