23
gdb 42020	3.02028	1.38382	1.01933	1.5367	85.06	-0.2387	0.0873	0.3259	1226.6885	0.210101	-388.323488	-388.31562	-388.314676	-388.355849	31.851	
C	-0.041437193	 1.4220755962	 0.0330878205	-0.074362
C	 1.421833779	 1.9439517524	-0.0067066778	-0.298129
C	 2.208557385	 0.7096569426	 0.4481788884	 0.063
C	 3.675800966	 0.5198711961	 0.0762022954	-0.236932
C	 4.1325267265	-0.8691488696	 0.5705004274	-0.188702
C	 3.2163513319	-2.0108237414	 0.0846586492	-0.193472
C	 1.7254358366	-1.7666400731	 0.4027344092	-0.238005
C	 1.3480153802	-0.4038192907	-0.149119937	 0.174914
O	 0.0148000122	-0.0085984589	 0.1303790868	-0.286261
H	-0.5909799896	 1.7946826616	 0.9048870198	 0.102344
H	-0.599062038	 1.7153810109	-0.8662734806	 0.094447
H	 1.7063667884	 2.2253666272	-1.0268736644	 0.101026
H	 1.5684199966	 2.8189454952	 0.6315167879	 0.100637
H	 2.1152666863	 0.6268659968	 1.5412320135	 0.071297
H	 3.7954593437	 0.5896285862	-1.0139735989	 0.092066
H	 4.3060506441	 1.3032527029	 0.5123173381	 0.091892
H	 5.1628848057	-1.0635839796	 0.2526164028	 0.091417
H	 4.1439542091	-0.8630521306	 1.6689333801	 0.095416
H	 3.331622633	-2.1232406835	-1.0020189204	 0.09677
H	 3.5414173193	-2.9587020303	 0.5265976088	 0.094908
H	 1.1043056094	-2.5563992844	-0.0328568777	 0.098018
H	 1.5533443481	-1.7782242391	 1.4863756324	 0.097777
H	 1.5077307696	-0.4183407866	-1.2456091536	 0.049934
84.3593	166.0063	198.1151	316.87	327.5672	345.3479	422.9345	475.3921	515.1357	592.4082	685.4643	792.3424	822.9723	842.0763	865.3844	875.8028	930.8901	935.8901	947.439	1003.3899	1005.8483	1059.7315	1065.6939	1090.8274	1103.352	1122.6688	1159.5358	1168.8095	1210.2021	1215.7769	1243.8837	1267.3665	1269.4425	1298.3866	1320.8358	1340.1985	1348.6169	1367.5379	1372.557	1375.9958	1390.888	1402.9014	1416.6211	1485.8436	1487.1246	1493.3318	1498.7164	1504.8785	1527.2437	2900.0546	2994.7656	3010.0766	3013.1974	3015.6199	3019.7333	3031.2536	3043.9345	3054.7239	3061.4317	3066.4357	3070.8968	3079.7445	3101.0514
C1CC2CCCCC2O1	C1C[C@@H]2CCCC[C@H]2O1	
InChI=1S/C8H14O/c1-2-4-8-7(3-1)5-6-9-8/h7-8H,1-6H2	InChI=1S/C8H14O/c1-2-4-8-7(3-1)5-6-9-8/h7-8H,1-6H2/t7-,8+/m0/s1
