18
gdb 107370	2.98625	1.31001	1.03948	1.8715	73.04	-0.2539	0.0203	0.2742	1166.263	0.148168	-439.087468	-439.079236	-439.078291	-439.120627	31.448	
O	 0.150260373	 1.3791324972	 0.3609826485	-0.411873
C	 0.1218209438	-0.0055957449	 0.0657950422	-0.14807
C	-1.275198379	-0.5359439897	-0.0780646267	 0.403904
C	-2.1722678957	-0.904064816	 1.0669125881	-0.34044
C	-1.7271944473	-1.9619261022	 0.0692576602	-0.126132
C	-2.6429659541	-2.2295955039	-1.1085312578	-0.313554
C	-2.791964057	-0.8734639479	-1.7842423466	 0.385524
N	-3.5747765367	-0.6100074827	-2.7361134697	-0.53123
O	-1.941445575	 0.0357130842	-1.2012366141	-0.283329
H	-0.3215873125	 1.8277735277	-0.3492013973	 0.293068
H	 0.6882253443	-0.231961329	-0.8512973945	 0.096986
H	 0.6170143479	-0.5136646617	 0.8990884553	 0.112825
H	-1.7295348274	-0.936827564	 2.0562902054	 0.127308
H	-3.2014312627	-0.5600184386	 1.0390939893	 0.127712
H	-1.0434627727	-2.7358558389	 0.3968135455	 0.102672
H	-2.1934393793	-2.936207605	-1.8135055125	 0.139216
H	-3.6256918561	-2.6236364775	-0.8375925799	 0.142269
H	-3.4930820835	 0.369588203	-3.0127864956	 0.223144
76.825	97.2398	147.1258	253.0706	348.316	367.0051	417.1395	432.3575	456.5937	530.2934	640.2232	695.6441	744.8845	834.5233	857.043	890.7242	906.2923	935.0887	957.5788	989.4712	1028.2226	1057.7032	1066.4535	1077.0096	1089.4384	1100.9614	1174.9352	1196.7931	1252.3708	1264.1784	1306.4723	1335.3315	1383.202	1399.0986	1440.233	1471.8669	1487.6211	1492.714	1779.6329	2984.1398	3061.6984	3084.3314	3103.8625	3130.0507	3182.9981	3221.5227	3476.6693	3811.4098
OCC12CC1CC(=N)O2	OC[C@]12C[C@H]1C[C]([NH])O2	
InChI=1S/C6H9NO2/c7-5-1-4-2-6(4,3-8)9-5/h4,7-8H,1-3H2	InChI=1S/C6H9NO2/c7-5-1-4-2-6(4,3-8)9-5/h4,7-8H,1-3H2/t4-,6-/m1/s1
