15
gdb 45914	3.03838	1.464	1.00236	2.3202	71.82	-0.2503	-0.0488	0.2015	1105.1139	0.116084	-450.183943	-450.176248	-450.175303	-450.216678	28.727	
N	-0.1551253277	 1.2928008607	-0.4189832302	-0.52357
C	-0.0096922217	 0.1032321356	 0.0089717329	 0.393514
C	-1.2296068847	-0.7957616242	 0.0415304717	-0.219167
N	-1.1094421262	-1.9012117489	 0.9787759292	-0.353566
C	 0.0527521776	-2.487776587	 1.3623562856	 0.374924
O	 0.1161693743	-3.5306073125	 1.9838266695	-0.364321
C	 1.3238040359	-1.7311267376	 1.0063266394	 0.278628
N	 2.4796645523	-2.1708188302	 1.2892849297	-0.495743
N	 1.1760858368	-0.4954925171	 0.391947765	-0.385497
H	 0.7322047367	 1.7972744133	-0.458160642	 0.2139
H	-2.0875530694	-0.1754917448	 0.305399334	 0.159982
H	-1.3969404342	-1.1659027616	-0.9805813363	 0.148029
H	-1.9415495139	-2.4333084745	 1.1920893983	 0.26273
H	 2.3638114041	-3.0720255469	 1.7590006552	 0.25039
H	 2.0356456702	 0.0283569159	 0.284927748	 0.259767
71.6947	109.6746	146.3671	345.5495	395.8667	414.3708	435.8856	504.5476	548.5779	608.1649	616.0526	652.9545	682.7726	795.6824	814.1655	866.6042	910.4363	938.0692	1017.6028	1066.0197	1134.6751	1180.3553	1252.5259	1303.2316	1361.9802	1415.756	1426.1556	1450.0256	1477.4935	1514.7746	1730.3147	1739.2198	1800.6961	3001.7424	3117.1895	3460.6083	3463.7857	3579.5709	3603.9637
N=C1CNC(=O)C(=N)N1	[NH][C]1CNC(=O)[C]([NH])N1	
InChI=1S/C4H6N4O/c5-2-1-7-4(9)3(6)8-2/h1H2,(H,7,9)(H3,5,6,8)	InChI=1S/C4H6N4O/c5-2-1-7-4(9)3(6)8-2/h1H2,(H,7,9)(H3,5,6,8)
