16
gdb 72684	2.35858	1.51191	1.46463	4.8697	69.66	-0.2666	-0.0067	0.2599	998.7961	0.123643	-437.860465	-437.852377	-437.851433	-437.893236	30.413	
O	 0.1509120741	 1.4024602872	-0.0900363456	-0.448326
C	 0.0461149939	 0.0299614102	-0.0182331832	 0.298208
C	 0.6486691085	-0.8676749758	-1.1280897337	-0.298638
C	-0.6502256469	-1.731963862	-1.1641618183	-0.27489
C	-1.2854348697	-0.8481057109	-0.0591315272	 0.236107
O	-1.0127049184	-1.3433521746	 1.2615415816	-0.317553
C	 0.1684426303	-0.5141179954	 1.4098294064	-0.110767
C	-2.6232592868	-0.329032188	-0.2391215687	 0.230814
N	-3.6714606712	 0.1231260747	-0.42531892	-0.338431
H	 0.0799149975	 1.6839943965	-1.0086929415	 0.293385
H	 0.8084367288	-0.3136378609	-2.0581255595	 0.109074
H	 1.5800378647	-1.3770968446	-0.8701201477	 0.119391
H	-1.1787146355	-1.6904077568	-2.1181643335	 0.127863
H	-0.5495848583	-2.7714150241	-0.8499498347	 0.131701
H	 1.0618845657	-1.1023579103	 1.6443687298	 0.112413
H	 0.018761473	 0.2630853949	 2.1667765957	 0.129651
76.4863	115.2593	186.5437	264.4268	330.0273	356.6265	383.1453	397.0754	535.6006	550.3533	604.1819	660.3863	696.5461	744.7302	900.8658	913.3992	940.9869	960.0297	1002.3902	1044.1949	1078.9417	1102.2448	1124.1546	1156.1674	1202.7439	1229.4737	1243.5241	1277.6255	1307.0922	1339.2762	1409.9683	1463.0647	1481.6938	1515.2413	2346.6755	3036.152	3055.5829	3083.2898	3092.1849	3109.1728	3146.1652	3809.1271
OC12CCC1(OC2)C#N	O[C@]12CC[C@]1(OC2)C#N	
InChI=1S/C6H7NO2/c7-3-6-2-1-5(6,8)4-9-6/h8H,1-2,4H2	InChI=1S/C6H7NO2/c7-3-6-2-1-5(6,8)4-9-6/h8H,1-2,4H2/t5-,6-/m0/s1
