15
gdb 23090	2.19987	1.54219	0.96455	4.355	76.96	-0.2411	-0.0481	0.193	1165.0799	0.113131	-416.794287	-416.786188	-416.785244	-416.827717	29.631	
O	-0.0889652282	 1.3453339963	-0.0454871976	-0.385618
N	 0.0145861789	-0.0482325243	-0.09073494	-0.219123
C	-1.1302753833	-0.6078513573	-0.0210106853	 0.37476
C	-2.4695934106	-0.0433176859	 0.0974947072	-0.141005
C	-3.3911397773	-1.0145852737	 0.1003020096	-0.070016
C	-2.7987277531	-2.3927478461	-0.0375422427	-0.288058
C	-1.2549428833	-2.1379733837	-0.0230907922	-0.232191
C	-0.5589923575	-2.7779353568	-1.1361071558	 0.291405
N	-0.0309835591	-3.3057161286	-2.0179264447	-0.328964
H	 0.8303025048	 1.6215977671	-0.1261000931	 0.314072
H	-2.6472815944	 1.0199829207	 0.1649204474	 0.133903
H	-4.461200158	-0.8592032897	 0.1757480518	 0.12028
H	-3.1019006427	-3.0609144708	 0.7752411916	 0.132206
H	-3.1170459764	-2.8722492733	-0.9697671305	 0.147598
H	-0.8227794399	-2.527436084	 0.9048398544	 0.150753
43.8849	119.7286	192.7096	241.7658	292.5607	313.5583	414.1585	444.7752	498.3004	578.2401	589.4162	726.7134	763.0374	796.3252	833.6345	915.6056	962.5576	984.8535	993.6056	1034.3318	1049.1843	1124.0209	1176.1518	1230.8816	1239.2032	1305.5963	1338.3562	1366.4372	1405.4941	1482.6962	1651.3902	1729.3842	2363.7565	3046.1886	3054.3218	3080.5418	3203.7977	3253.493	3818.1288
ON=C1C=CCC1C#N	ON=C1C=CC[C@H]1C#N	
InChI=1S/C6H6N2O/c7-4-5-2-1-3-6(5)8-9/h1,3,5,9H,2H2	InChI=1S/C6H6N2O/c7-4-5-2-1-3-6(5)8-9/h1,3,5,9H,2H2/t5-/m0/s1
