13
gdb 19631	6.06198	1.77584	1.70563	2.1066	68.75	-0.2258	0.0107	0.2365	763.6568	0.094698	-324.162452	-324.156433	-324.155488	-324.192315	24.063	
C	 0.0204828407	-1.1381404384	-0.0200673362	-0.363574
C	 0.012347661	 0.065903764	-0.0013772059	 0.038849
C	 0.0038936037	 1.4755356845	 0.0205636179	 0.366819
C	 0.0869681335	 2.4860446217	 1.1552472677	-0.168693
C	-0.8222544937	 3.4100459223	 0.3105946403	-0.05412
C	 0.1837099712	 3.4333279568	-0.7820800359	-0.054109
C	 1.1200810603	 2.5097115256	 0.0328162209	-0.168696
N	-0.9133493326	 2.4010699791	-0.8044239635	-0.214978
H	 0.025201576	-2.1996782894	-0.0388511703	 0.185222
H	 0.2196126208	 2.3184302601	 2.2139328284	 0.111431
H	-1.6440933799	 4.0702775855	 0.5572232918	 0.10521
H	 0.3474322721	 4.1163961702	-1.6059502201	 0.105209
H	 2.1894058269	 2.3635381382	 0.0738171849	 0.11143
160.0818	161.2772	467.2331	478.8634	523.8285	566.6285	668.4775	684.9891	769.6243	776.9998	790.8149	847.1924	851.8863	861.1892	905.9139	916.1493	959.9746	976.3292	1005.4137	1029.7394	1070.2422	1161.7092	1166.9888	1213.0287	1268.3026	1318.4066	1393.6042	2227.5772	3184.7179	3198.5912	3224.3691	3234.7053	3502.8912
C#CC12C3C4C(C13)N24	C#C[C@@]12[C@@H]3[C@H]4[C@@H]([C@H]13)N24	
InChI=1S/C7H5N/c1-2-7-3-4(7)6-5(3)8(6)7/h1,3-6H	InChI=1S/C7H5N/c1-2-7-3-4(7)6-5(3)8(6)7/h1,3-6H/t3-,4+,5-,6+,7+,8?
