16
gdb 7617	3.42758	1.63073	1.34901	5.3207	61.34	-0.2456	0.0237	0.2693	935.0908	0.131897	-417.075445	-417.067558	-417.066613	-417.107426	30.03	
N	-0.3060879167	 1.4725353423	-0.0582918336	-0.602434
C	-0.1478979536	 0.0428575952	 0.0654885367	 0.139756
C	-0.5339743492	-0.7012683273	 1.3308990745	-0.31993
C	-1.4162290404	-0.8224441048	 0.1314469354	-0.027266
N	-2.6675271702	-0.1139485063	 0.1257998648	-0.518699
H	-1.3012519545	 1.6858819355	-0.1104934801	 0.247686
H	-3.1392850144	-0.2221818043	-0.7655419621	 0.243601
H	-3.2906795518	-0.4673857134	 0.8439330736	 0.244268
C	 0.969457029	-0.5348596024	-0.7618756642	 0.420218
O	 1.5537578999	 0.364702635	-1.565919612	-0.381189
O	 1.2917145237	-1.6966426094	-0.7283777452	-0.365916
H	 0.0659885819	 1.9572053271	 0.7523479447	 0.241906
H	 1.070737767	 1.2023138838	-1.3968963352	 0.302149
H	 0.0708777001	-1.5592713575	 1.5981246843	 0.147648
H	-0.8872912968	-0.084713153	 2.1510500807	 0.113002
H	-1.3395552841	-1.7588581005	-0.4174257423	 0.115199
95.3168	169.1813	225.84	271.982	296.8149	364.527	383.0905	420.9471	483.1456	524.1329	618.4517	728.0225	754.5946	822.082	844.3992	855.2244	897.1203	927.3725	944.6846	1003.8897	1070.7277	1114.6659	1167.3476	1193.3699	1245.3148	1268.4646	1281.2853	1336.8336	1405.1283	1432.2133	1466.6733	1656.2999	1662.9353	1850.3628	3128.01	3136.8122	3238.3725	3461.1653	3503.9823	3508.9372	3550.8898	3585.4733
NC1(CC1[NH3+])C([O-])=O	N[C@]1(C[C@H]1N)C(=O)O	
InChI=1S/C4H8N2O2/c5-2-1-4(2,6)3(7)8/h2H,1,5-6H2,(H,7,8)	InChI=1S/C4H8N2O2/c5-2-1-4(2,6)3(7)8/h2H,1,5-6H2,(H,7,8)/t2-,4+/m1/s1
