19
gdb 56683	2.50089	1.24549	1.12829	2.6428	76.28	-0.2469	0.0235	0.2704	1182.9335	0.156434	-422.962605	-422.952838	-422.951894	-422.997161	35.884	
C	-0.0568586681	 1.6518051612	 0.1589833511	-0.493327
C	 0.0378706426	 0.1372335825	 0.0478502215	 0.288172
C	 1.1334254046	-0.4569844954	-0.870891675	-0.116509
O	 1.6245844944	-1.2988575483	 0.1916114588	-0.278032
C	 0.8085644169	-0.6099846227	 1.1628745936	-0.123504
C	-1.3335092722	-0.5317887179	-0.2020730051	-0.094579
O	-2.2273044581	-0.3203915301	 0.8879473981	-0.429572
C	-1.9230241601	-0.1187994929	-1.4790129296	 0.285632
C	-2.4142745137	 0.2560389614	-2.5107239316	-0.441351
H	 0.9301266717	 2.0909967213	 0.3308555258	 0.122502
H	-0.4713366	 2.0917582581	-0.7537595897	 0.131464
H	-0.6960129763	 1.9417200485	 1.0001601312	 0.117651
H	 0.7950660693	-1.0351436446	-1.7387985143	 0.108595
H	 1.8855462851	 0.2732961158	-1.1995281381	 0.09465
H	 1.4081265575	 0.0459468003	 1.8086631746	 0.091026
H	 0.2278753751	-1.2967601438	 1.7878013158	 0.11683
H	-1.1686844622	-1.6162365056	-0.2265872047	 0.127222
H	-2.6359836417	 0.5435867749	 0.7706348327	 0.289784
H	-2.8532093246	 0.5678159871	-3.4265907551	 0.203345
76.343	87.9886	135.3839	204.6763	215.2234	239.4068	275.6856	309.408	335.65	367.8502	469.9089	507.6669	587.595	633.1626	677.7149	730.8299	821.1275	884.6419	898.9563	970.6755	985.4542	1001.111	1014.0851	1028.7062	1074.6512	1153.4941	1162.033	1186.688	1192.0644	1268.4247	1288.3402	1304.3998	1344.1102	1384.9152	1412.0197	1418.838	1494.302	1503.155	1514.6891	1539.1848	2229.2438	2999.906	3010.4354	3033.263	3035.725	3058.0197	3069.7271	3099.8149	3110.0043	3500.1831	3819.8821
CC1(COC1)C(O)C#C	CC1(COC1)[C@@H](O)C#C	
InChI=1S/C7H10O2/c1-3-6(8)7(2)4-9-5-7/h1,6,8H,4-5H2,2H3	InChI=1S/C7H10O2/c1-3-6(8)7(2)4-9-5-7/h1,6,8H,4-5H2,2H3/t6-/m0/s1
