23
gdb 120572	3.65373	0.73131	0.6917	0.9575	94.36	-0.2351	0.058	0.2931	1766.0507	0.202931	-351.122249	-351.111425	-351.110481	-351.158259	40.042	
C	 0.0285183126	 1.5588732164	-0.1207871273	-0.38237
C	 0.1832786554	 0.036801028	-0.073725762	-0.155401
C	 0.5055672682	-0.4905509497	 1.3324053798	-0.207058
C	 0.6437232258	-1.9984291524	 1.3634294737	-0.021423
C	 1.9488257604	-2.6860754289	 1.071349686	-0.316564
C	 1.3681829374	-2.7521191064	 2.4809242467	 0.116779
C	 2.0715149214	-2.0053243477	 3.606601168	-0.459809
C	 0.7789462154	-4.0024336919	 2.8864050207	 0.280353
C	 0.2877929544	-5.0409636798	 3.2453769387	-0.466397
H	 0.9481830406	 2.061507865	 0.199440129	 0.113057
H	-0.2039360772	 1.9053651494	-1.1325810768	 0.112328
H	-0.7778578022	 1.8961621224	 0.5400340359	 0.114516
H	-0.7389182862	-0.4378927465	-0.4335761182	 0.09676
H	 0.9753449994	-0.2780682279	-0.7648366174	 0.099841
H	 1.4267981436	-0.0141271113	 1.6878138519	 0.093506
H	-0.2876961915	-0.1784792293	 2.0255888812	 0.099075
H	-0.2368613832	-2.5208141905	 0.9980702166	 0.094152
H	 1.9484593387	-3.5918745262	 0.4767198576	 0.120513
H	 2.8303319373	-2.063765141	 0.9474945277	 0.110143
H	 2.5464583182	-1.0900263906	 3.2463192752	 0.115503
H	 1.3670690894	-1.736146848	 4.4000515627	 0.126395
H	 2.8490415586	-2.6353034444	 4.0493814664	 0.127589
H	-0.1464048365	-5.9582022386	 3.5566526142	 0.188513
64.6577	80.8243	101.5543	152.7705	178.2276	201.5539	245.024	260.139	302.0479	352.1533	393.6227	453.7746	542.4214	559.9012	584.4833	639.1838	675.3208	747.1725	828.6457	858.8033	872.7331	903.8748	942.5038	952.6084	993.0106	1047.3282	1063.3926	1085.9101	1108.919	1120.1886	1138.3022	1195.3654	1256.6823	1282.0886	1295.4533	1309.5303	1331.798	1384.4623	1411.7166	1415.9704	1422.29	1478.8321	1486.1217	1489.5583	1494.4232	1499.5953	1502.8362	1510.6085	2230.2541	3011.7117	3020.8819	3028.9751	3039.627	3044.1509	3064.394	3095.5302	3101.6669	3104.113	3123.2125	3128.1361	3140.362	3220.4921	3504.4651
CCCC1CC1(C)C#C	CCC[C@H]1C[C@]1(C)C#C	
InChI=1S/C9H14/c1-4-6-8-7-9(8,3)5-2/h2,8H,4,6-7H2,1,3H3	InChI=1S/C9H14/c1-4-6-8-7-9(8,3)5-2/h2,8H,4,6-7H2,1,3H3/t8-,9-/m0/s1
