19
gdb 71631	2.78522	1.59254	1.55195	1.9914	74.41	-0.2307	0.075	0.3057	981.0046	0.160284	-422.972817	-422.965392	-422.964448	-423.004331	29.897	
C	 0.0410358191	 1.4663203825	-0.0804537121	-0.527656
C	-0.0069068296	-0.0245623978	 0.015994741	 0.387988
O	 0.6407374464	-0.8351836449	-1.0433133527	-0.341259
C	 0.097063566	-1.8311340244	-0.1089667146	-0.019299
C	 0.6073141465	-0.976610041	 1.0866801946	-0.056822
C	-0.1343007699	-1.0848682042	 2.4180508986	-0.268312
C	-1.533944825	-1.6502613844	 2.1597481773	-0.068207
O	-2.1224457042	-1.0946327397	 0.9877478046	-0.269274
C	-1.2227336439	-1.0002241219	-0.0793482371	 0.083109
H	 1.0722788843	 1.8301803975	-0.0364877836	 0.131341
H	-0.40789773	 1.8034973179	-1.0197989843	 0.135655
H	-0.520796789	 1.9122453401	 0.7466831982	 0.131556
H	 0.2701894632	-2.8809209063	-0.3470148123	 0.08954
H	 1.695467751	-0.9118197332	 1.1605401801	 0.076695
H	 0.3989981472	-1.7412296577	 3.1145714944	 0.106075
H	-0.1906762863	-0.0962083008	 2.8901608821	 0.108061
H	-1.465408253	-2.7433159339	 2.0434898859	 0.097272
H	-2.2240645457	-1.4435399882	 2.9814933907	 0.110472
H	-1.7767594172	-0.9575845097	-1.0184701008	 0.093064
167.7911	177.3697	200.7877	256.202	349.9787	443.679	451.3164	496.1621	577.9105	651.8391	697.2624	741.7404	809.4362	857.0186	876.8418	888.2832	921.1708	965.2688	976.9402	1024.6863	1057.2099	1083.2348	1095.3315	1110.9602	1145.5356	1182.1036	1199.2325	1224.1207	1241.8342	1256.3953	1275.9645	1307.6924	1331.8419	1355.6164	1397.6822	1415.0434	1429.4714	1476.0428	1485.5963	1489.5896	1509.876	2980.7856	3029.2495	3037.1143	3071.2062	3089.6318	3095.6155	3108.5086	3110.7136	3112.1745	3119.2938
CC12OC3C1CCOC23	C[C@@]12O[C@H]3[C@@H]1CCO[C@@H]23	
InChI=1S/C7H10O2/c1-7-4-2-3-8-6(7)5(4)9-7/h4-6H,2-3H2,1H3	InChI=1S/C7H10O2/c1-7-4-2-3-8-6(7)5(4)9-7/h4-6H,2-3H2,1H3/t4-,5-,6+,7+/m0/s1
