18
gdb 53685	6.36984	0.51621	0.48188	2.2327	78.17	-0.2483	0.0545	0.3028	2214.2487	0.14532	-439.111139	-439.100261	-439.099317	-439.150436	36.209	
C	 0.0724822312	 1.4487037123	 0.0178794972	-0.496808
C	 0.0321571989	-0.0054178498	-0.043318876	 0.085895
C	 0.0091898589	-1.2078320641	-0.0952384836	 0.031348
C	-0.056490478	-2.6632338788	-0.151778663	-0.357701
C	-1.4842617946	-3.1739194343	 0.051317373	-0.044095
O	-1.4243799331	-4.6048573325	-0.0264608089	-0.259292
C	-2.6116706448	-5.2398706271	 0.1433845976	 0.492704
N	-2.4227965426	-6.5934695235	 0.1025963838	-0.563733
O	-3.6677709047	-4.6849196278	 0.3330171686	-0.394251
H	 0.7303569911	 1.7959850117	 0.8222154695	 0.147862
H	 0.4412238423	 1.8775185426	-0.9204799058	 0.147612
H	-0.9237271543	 1.8654771551	 0.2026978211	 0.149715
H	 0.3156383297	-3.0265438691	-1.1178317637	 0.132838
H	 0.590452797	-3.1066268305	 0.6152996624	 0.134803
H	-1.8797801577	-2.8712498634	 1.024653961	 0.131367
H	-2.1576729372	-2.7873973051	-0.7186458062	 0.129576
H	-1.5639833822	-6.9517495928	-0.2789442147	 0.263485
H	-3.25249493	-7.1525985028	 0.0043926278	 0.268674
13.853	39.3627	48.0582	64.1335	160.478	178.0892	227.6217	284.0947	324.5098	344.0411	392.1682	448.2409	501.0546	541.4393	672.8649	772.2637	778.4646	790.904	936.9214	1051.01	1051.5298	1061.302	1087.1788	1100.9321	1121.3109	1169.6712	1231.6606	1295.3769	1309.0029	1350.7225	1415.4693	1423.4265	1478.4944	1479.0933	1479.991	1519.2727	1612.0945	1836.637	2377.5692	3024.5687	3026.7378	3055.8184	3063.0933	3087.1229	3087.8773	3113.3359	3614.7713	3744.3498
CC#CCCOC(N)=O	CC#CCCOC(=O)N	
InChI=1S/C6H9NO2/c1-2-3-4-5-9-6(7)8/h4-5H2,1H3,(H2,7,8)	InChI=1S/C6H9NO2/c1-2-3-4-5-9-6(7)8/h4-5H2,1H3,(H2,7,8)
