17
gdb 9527	2.86786	1.82726	1.53646	1.2683	64.97	-0.2671	0.0176	0.2847	913.5902	0.141004	-400.998321	-400.989814	-400.98887	-401.031225	30.831	
C	 0.1229888816	 1.5954095062	-0.0220656065	-0.405865
C	 0.0729497881	 0.064668999	-0.0103372347	-0.225654
C	 0.7003183051	-0.564436449	-1.2556197967	 0.270542
O	 2.0584875156	-0.207405449	-1.4166483823	-0.477224
C	 0.469999188	-2.0825035066	-1.4376558337	-0.117893
O	-0.35740783	-1.8209924213	-2.6215126985	-0.255148
C	-0.1177642427	-0.4714257158	-2.5406590052	 0.391308
N	-0.4300356008	 0.4781155238	-3.2988130948	-0.556537
H	 1.1587288152	 1.9481043057	-0.0391875828	 0.118437
H	-0.392563234	 1.998687963	-0.8985209365	 0.149022
H	-0.3507984057	 2.0048471909	 0.8743982308	 0.11649
H	 0.6107496969	-0.3246638595	 0.8630765433	 0.107258
H	-0.9654155711	-0.2789737073	 0.0726752856	 0.104158
H	 2.0809211227	 0.6278798991	-1.8972846806	 0.298885
H	 1.3690751795	-2.6410482404	-1.7024586101	 0.131675
H	-0.1073734193	-2.5925968375	-0.6639167327	 0.119414
H	-0.9540016993	 0.1593606387	-4.1158225444	 0.231133
94.0578	115.4341	154.8964	198.6157	246.2523	272.2132	311.1116	375.7126	426.1092	533.7133	690.9866	697.8886	763.3607	799.926	865.9536	917.7933	939.2032	970.9732	1003.9844	1021.0163	1050.9424	1113.214	1152.7323	1205.5915	1223.5571	1240.3768	1308.7985	1338.8993	1379.0657	1385.3236	1410.2481	1475.9627	1500.7345	1504.4371	1514.3091	1820.6331	3025.6353	3043.7285	3064.8499	3074.1097	3112.793	3122.3786	3143.8259	3473.1725	3809.1586
CCC1(O)COC1=N	CC[C@@]1(O)CO[C]1[NH]	
InChI=1S/C5H9NO2/c1-2-5(7)3-8-4(5)6/h6-7H,2-3H2,1H3	InChI=1S/C5H9NO2/c1-2-5(7)3-8-4(5)6/h6-7H,2-3H2,1H3/t5-/m1/s1
