17
gdb 18873	3.28717	2.58308	2.19048	0.8497	66.6	-0.1945	0.0922	0.2867	721.9413	0.144016	-363.804419	-363.798159	-363.797215	-363.834391	25.413	
C	-0.1951493159	 1.5246381804	-0.0153527114	-0.335744
N	 0.0767438048	 0.0928185243	-0.0341951592	-0.078874
C	 0.7016991879	-0.4881468589	-1.2163963558	-0.059009
C	 2.2176594447	-0.3137990683	-1.1800138668	 0.098813
O	 2.7549868834	 0.7146712406	-0.3740953697	-0.267692
C	 2.346999824	 0.443452025	 0.974436016	-0.089173
C	 1.1550321107	-0.4990847795	 0.8235914241	-0.034369
C	 1.5790686609	-1.3935344427	-0.3695810823	-0.161409
H	 0.6696636793	 2.1579681436	-0.2593393707	 0.121559
H	-0.9855719287	 1.732145932	-0.7449732813	 0.118471
H	-0.5792665711	 1.8085717431	 0.9705162376	 0.114825
H	 0.1336366581	-0.6975704502	-2.1182719579	 0.088762
H	 2.8103310848	-0.5312371038	-2.0610719285	 0.103591
H	 3.1626362897	-0.0316451033	 1.542043888	 0.094789
H	 2.0956164287	 1.3947710771	 1.4540033997	 0.110155
H	 0.8006484317	-0.9536964171	 1.7512798536	 0.077903
H	 1.7625168869	-2.4578804123	-0.3860033355	 0.097403
195.096	217.2293	300.3999	315.9977	459.8495	583.8263	643.3629	713.9382	760.3887	777.784	802.4362	844.9818	895.5504	925.2427	973.7741	993.4042	996.0809	1032.856	1052.7588	1064.7113	1099.22	1120.5411	1160.8856	1188.474	1209.2248	1222.0719	1233.8352	1265.1793	1275.351	1313.9073	1362.453	1401.8403	1443.2845	1482.9611	1505.0442	1523.1422	2982.3591	2999.4556	3067.2437	3075.4295	3088.0326	3092.6991	3148.6965	3185.1153	3219.5208
CN1C2C3OCC1C23	CN1[C@H]2[C@H]3OC[C@@H]1[C@@H]23	
InChI=1S/C6H9NO/c1-7-3-2-8-6-4(3)5(6)7/h3-6H,2H2,1H3	InChI=1S/C6H9NO/c1-7-3-2-8-6-4(3)5(6)7/h3-6H,2H2,1H3/t3-,4+,5-,6+/m1/s1
