16
gdb 8164	2.84573	2.69879	1.77852	4.2258	63.86	-0.2602	0.0146	0.2748	776.6582	0.131618	-383.765782	-383.759124	-383.75818	-383.796333	26.118	
C	-0.0172070737	 1.5615890845	 0.0298056391	-0.495573
C	 0.054430308	 0.0578221814	 0.0338400175	 0.138312
C	 0.9531794895	-0.8098814965	-0.9274435625	-0.270066
C	 0.5760233167	-1.8986906655	 0.0979450942	 0.099305
C	 0.6615711871	-0.8180753998	 1.1952688377	-0.270062
O	-0.8663023676	-2.0278463806	-0.1006787844	-0.24898
C	-1.2544167304	-0.7106154029	-0.148940191	 0.451835
O	-2.3785789986	-0.3381852705	-0.3018599755	-0.357695
H	 0.9726525133	 2.0064956731	 0.1676164149	 0.116477
H	-0.4307747452	 1.9254590952	-0.9158108125	 0.137029
H	-0.6710016287	 1.9187003334	 0.8314625542	 0.137034
H	 0.6226797606	-0.9543458007	-1.9584668143	 0.11944
H	 2.0043672841	-0.5167244613	-0.8873587033	 0.112013
H	 1.0216858171	-2.8882274546	 0.1553490581	 0.099476
H	 1.6843229766	-0.5257182577	 1.4423513232	 0.112013
H	 0.0654434313	-0.9700046475	 2.0978529946	 0.119442
156.7992	192.3468	239.7263	310.4734	469.3574	470.8484	524.6765	607.243	677.092	754.9996	781.0109	844.0593	868.6872	897.7401	928.4685	964.3407	989.8327	1030.7919	1047.574	1073.0356	1102.9487	1119.6888	1199.6958	1234.2572	1236.9829	1245.3407	1317.0944	1360.5588	1418.2393	1478.0001	1487.5583	1488.2441	1513.6801	1906.1754	3040.5592	3066.4663	3071.9813	3111.3433	3112.9255	3133.6858	3137.9618	3161.0633
CC12CC(C1)OC2=O	C[C@@]12C[C@@H](C1)OC2=O	
InChI=1S/C6H8O2/c1-6-2-4(3-6)8-5(6)7/h4H,2-3H2,1H3	InChI=1S/C6H8O2/c1-6-2-4(3-6)8-5(6)7/h4H,2-3H2,1H3/t4-,6+
