14
gdb 133552	3.01706	1.33289	1.32606	2.9179	54.46	-0.2575	0.0676	0.325	979.6806	0.097007	-568.120229	-568.112866	-568.111922	-568.152935	27.539	
F	-0.0060506697	 0.0796935244	 0.0028626509	-0.076393
C	-0.0549442172	 1.4193289225	 0.0760270038	 0.188422
F	 1.1983105635	 1.8819244088	 0.0567183557	-0.064626
F	-0.6831768845	 1.8716786998	-1.0128756814	-0.064616
C	-0.7734841024	 1.8264488918	 1.3360755133	 0.254449
C	-2.2536552643	 1.6042674592	 1.7225966604	-0.261326
C	-1.5769545463	 2.5546391003	 2.7423082152	 0.035251
C	-0.3463784628	 1.6152354448	 2.8066687903	-0.261329
O	-0.933172225	 3.2658776902	 1.6024386946	-0.337871
H	-2.9746929407	 2.0759648638	 1.0558463617	 0.126089
H	-2.552260155	 0.6097829266	 2.059807881	 0.111385
H	-2.0240753639	 3.1670949573	 3.5227609709	 0.113087
H	-0.4746894252	 0.6217308518	 3.2406767462	 0.111387
H	 0.5912654234	 2.0964703886	 3.0826850574	 0.12609
46.1176	159.8551	162.1667	348.8062	378.5527	388.3895	515.0765	551.6232	575.4208	617.0968	739.5248	746.781	809.2284	908.3117	936.4477	959.999	972.9529	985.9982	1093.725	1109.0475	1127.4007	1154.2308	1158.8751	1195.5137	1213.5808	1221.0678	1236.8709	1246.5555	1405.7406	1468.1032	1515.0505	3074.5576	3082.0947	3143.7093	3164.2636	3168.239
FC(F)(F)C12CC(C1)O2	FC(F)(F)[C@@]12C[C@@H](C1)O2	
InChI=1S/C5H5F3O/c6-5(7,8)4-1-3(2-4)9-4/h3H,1-2H2	InChI=1S/C5H5F3O/c6-5(7,8)4-1-3(2-4)9-4/h3H,1-2H2/t3-,4+
