21
gdb 94628	3.78174	0.77732	0.69175	4.3026	83.95	-0.239	0.024	0.263	1644.3671	0.182883	-383.26353	-383.253914	-383.25297	-383.298781	35.106	
C	-0.0715900117	 1.5787971176	-0.0582101596	-0.40879
C	 0.0083949047	 0.053288347	-0.0600277359	-0.014443
C	 1.2240170547	-0.5163371975	-0.8518662302	-0.224752
C	 1.9958641124	-0.6921635574	 0.4841814239	-0.248766
C	 0.6229395279	-0.5812776512	 1.2249217816	 0.080024
N	 0.4670638016	 0.1376313935	 2.4730474	-0.30759
C	 1.0864906457	-0.5372850672	 3.6080834489	-0.266857
C	 0.8990351318	 0.2287368122	 4.8439521881	 0.25437
N	 0.7730320656	 0.842770716	 5.8140489132	-0.299112
H	 0.8995771104	 2.0432781941	 0.1515482547	 0.109743
H	-0.3949262403	 1.9423029152	-1.0389016259	 0.120279
H	-0.7878168226	 1.9385723676	 0.6870069315	 0.131202
H	-0.9680110929	-0.3549661146	-0.3362887989	 0.073249
H	 0.9983431324	-1.4749178817	-1.3261721284	 0.103631
H	 1.6700521773	 0.1430386025	-1.6005295201	 0.100115
H	 2.5817182794	-1.6048449968	 0.617977242	 0.097159
H	 2.638956199	 0.1672682956	 0.7017147791	 0.097797
H	 0.2052013893	-1.5844093081	 1.3729703046	 0.082142
H	 0.8433356056	 1.0765688682	 2.3922733099	 0.229364
H	 0.6108790905	-1.5179839805	 3.7354212003	 0.155505
H	 2.168379509	-0.7286869247	 3.4923038411	 0.135731
52.597	90.1442	101.453	138.8888	220.5301	250.9483	272.9284	357.7764	389.6368	412.7276	453.9861	582.1138	680.195	752.8577	788.6494	820.2323	882.2756	909.1308	940.2316	956.6291	968.5031	994.9023	1024.2509	1066.7339	1087.9718	1140.5274	1171.5311	1188.7816	1216.7234	1238.2433	1259.9945	1266.1861	1282.0652	1285.9551	1345.7094	1368.0525	1399.9322	1411.4885	1480.6536	1490.7575	1495.0872	1499.3225	1503.0714	1511.5247	2367.6762	2946.5782	3025.3774	3030.9676	3046.2394	3047.8549	3054.9315	3064.9126	3091.702	3098.428	3106.3784	3116.3487	3527.2788
CC1CCC1NCC#N	C[C@H]1CC[C@H]1NCC#N	
InChI=1S/C7H12N2/c1-6-2-3-7(6)9-5-4-8/h6-7,9H,2-3,5H2,1H3	InChI=1S/C7H12N2/c1-6-2-3-7(6)9-5-4-8/h6-7,9H,2-3,5H2,1H3/t6-,7+/m0/s1
