18
gdb 76041	2.64528	1.17768	1.04198	2.876	81.35	-0.2359	-0.0326	0.2032	1223.4467	0.143332	-401.895864	-401.885843	-401.884899	-401.930629	36.027	
C	-0.2870680126	 1.4535462253	 0.0028256277	-0.320248
N	 0.0329642327	 0.0332271322	 0.0910363622	-0.135531
C	 1.36710778	-0.4349032672	-0.2739611274	-0.264792
C	 2.4195531861	 0.4599309265	-0.663140534	 0.346414
C	 3.298330492	 1.197584556	-1.0258991419	-0.433054
C	 0.8877414398	-0.4491773655	 1.1804216521	 0.18522
C	 1.5083232237	 0.4492398526	 2.225286365	-0.486499
C	 0.4497232913	-1.8026673018	 1.6632247826	 0.145279
O	 0.7300606135	-2.2688120655	 2.737671195	-0.259369
H	 0.5536542835	 2.1280805817	 0.2047603554	 0.124595
H	-0.6539600877	 1.6573105019	-1.0071606742	 0.135587
H	-1.0939172716	 1.6700025659	 0.7085431306	 0.131759
H	 1.3624226724	-1.3770171323	-0.8206798006	 0.1206
H	 4.0792241789	 1.8427690491	-1.3457896357	 0.206296
H	 2.1405519061	 1.2213301792	 1.7863008651	 0.137135
H	 0.732687114	 0.9277259671	 2.8319977423	 0.129924
H	 2.1137728459	-0.1645683456	 2.8960521505	 0.151688
H	-0.1697406477	-2.3513636596	 0.9200535854	 0.084996
82.9652	115.4431	142.3885	151.2084	164.4851	211.4084	263.9847	281.4471	355.5808	368.9275	422.2171	516.8624	602.506	606.6019	623.568	667.0563	695.2674	767.4949	864.6606	945.9349	1008.2922	1060.7832	1071.9037	1102.9071	1130.1771	1151.1654	1172.5029	1299.0411	1331.7521	1368.6637	1402.3773	1420.723	1454.984	1484.724	1486.2963	1498.4692	1502.6656	1824.0645	2229.1815	2897.1285	3023.9158	3052.5478	3094.1432	3109.2135	3116.7946	3120.4437	3150.4819	3500.1249
CN1C(C#C)C1(C)C=O	CN1[C@@H](C#C)[C@]1(C)C=O	
InChI=1S/C7H9NO/c1-4-6-7(2,5-9)8(6)3/h1,5-6H,2-3H3	InChI=1S/C7H9NO/c1-4-6-7(2,5-9)8(6)3/h1,5-6H,2-3H3/t6-,7-,8?/m0/s1
