12
gdb 23971	6.59683	0.90244	0.79384	3.8197	80.61	-0.245	-0.0498	0.1952	1308.7852	0.077727	-398.360359	-398.352933	-398.351988	-398.392494	27.31	
C	 0.1485266807	-1.1814852936	-0.0058510583	-0.386862
C	 0.033111089	 0.0166494756	 0.0023392232	 0.246164
C	-0.1155396874	 1.4130853818	 0.0120560379	 0.255556
C	-1.2116985855	 2.2262562655	 0.0318580986	-0.416737
C	-0.7149184389	 3.5715132966	 0.0322712365	 0.165593
C	 0.6512038458	 3.4688254379	 0.0125225088	-0.097091
O	 1.0275575217	 2.1819398216	 0.0001996951	-0.163191
C	-1.4695363366	 4.7707142476	 0.0494299595	 0.196903
N	-2.0922125435	 5.7464390014	 0.0635107511	-0.33104
H	 0.2492423592	-2.2389673863	-0.013072712	 0.206815
H	-2.2427455338	 1.9149619321	 0.0446094251	 0.150635
H	 1.4370755794	 4.2056795798	 0.0055175345	 0.173254
107.302	117.6985	200.5321	215.3028	437.2646	478.0029	514.7561	521.5617	574.5886	585.7098	649.797	665.9964	691.3607	701.2793	797.5019	852.5336	950.3965	999.5089	1157.7478	1200.3658	1209.6306	1302.813	1365.4529	1541.0586	1615.2357	2238.5037	2355.1663	3283.7245	3286.8162	3500.4246
C#CC1=CC(=CO1)C#N	C#Cc1cc(co1)C#N	
InChI=1S/C7H3NO/c1-2-7-3-6(4-8)5-9-7/h1,3,5H	InChI=1S/C7H3NO/c1-2-7-3-6(4-8)5-9-7/h1,3,5H
