20
gdb 94117	3.1973	0.93504	0.86438	4.7609	76.8	-0.2456	0.0364	0.2821	1406.0475	0.171849	-440.323871	-440.314579	-440.313634	-440.359793	33.744	
O	-0.9045830803	 1.0079294737	 1.0247683116	-0.434522
C	-0.1206506016	 0.2166418931	 0.1360726414	 0.122761
C	 0.979225048	-0.5790288031	 0.8834835219	-0.234352
C	 0.3403493385	-1.9397126239	 1.2693377482	-0.217717
C	-1.1183923091	-1.8809283376	 0.7464514818	 0.062248
C	-1.0548630311	-0.8638884377	-0.4077676719	-0.229533
N	-1.6631099143	-3.1721876255	 0.3717458348	-0.29288
C	-2.7141494517	-3.7657237579	 0.9993708604	 0.149465
O	-3.3315899645	-3.3031288764	 1.9347600312	-0.321846
H	-0.316809866	 1.6185812416	 1.4802237748	 0.281895
H	 0.300674024	 0.8453079118	-0.6609336579	 0.061385
H	 1.846610336	-0.724662929	 0.2317331758	 0.099978
H	 1.3306414741	-0.0165836753	 1.7542134528	 0.094257
H	 0.8700915793	-2.7645523473	 0.77967579	 0.090205
H	 0.3712807671	-2.1398878332	 2.342663902	 0.115837
H	-1.7793087298	-1.4977177977	 1.5247207078	 0.140979
H	-2.0321858947	-0.462564185	-0.6836856958	 0.120193
H	-0.6062123056	-1.3265261431	-1.2968730777	 0.084226
H	-1.2270344874	-3.6744695253	-0.3868391947	 0.239195
H	-2.9536696409	-4.7493258322	 0.5463779636	 0.068225
24.6048	45.2616	100.1452	180.5558	220.5961	309.4505	354.7022	379.0549	428.4596	438.6251	535.8695	564.6888	746.5928	770.6391	781.3564	853.9153	882.2027	933.4758	945.5423	988.8794	1028.6913	1031.7193	1062.4727	1070.8816	1089.6551	1191.2394	1195.277	1205.0677	1234.1973	1273.9231	1278.0936	1303.5649	1331.1425	1350.6304	1362.6314	1381.5518	1420.735	1433.5161	1474.309	1480.2369	1504.9545	1534.5301	1807.7113	2924.5021	2996.3296	3028.2701	3039.0222	3051.3165	3081.8435	3103.5345	3112.7351	3128.8841	3614.3563	3821.0346
OC1CCC(C1)NC=O	O[C@H]1CC[C@@H](C1)NC=O	
InChI=1S/C6H11NO2/c8-4-7-5-1-2-6(9)3-5/h4-6,9H,1-3H2,(H,7,8)	InChI=1S/C6H11NO2/c8-4-7-5-1-2-6(9)3-5/h4-6,9H,1-3H2,(H,7,8)/t5-,6-/m0/s1
