20
gdb 16002	3.62763	1.84259	1.47613	0.1188	79.71	-0.2354	0.0335	0.2689	929.2897	0.179409	-311.87799	-311.870814	-311.869869	-311.909019	29.187	
C	 0.0047847123	 1.5226148673	 0.0118364088	-0.296904
C	 1.3207364023	 0.7770468814	-0.0167495705	-0.334295
C	 0.0257719948	 0.0121503886	 0.0057883465	 0.401414
C	-0.3968649143	-0.7085519603	 1.2737417655	-0.283002
C	-1.9268432939	-0.8519598146	 1.3319192299	-0.244212
C	-2.4957606976	-1.3033013959	 0.0111193488	-0.047051
C	-1.8204293535	-1.2518703684	-1.1365081158	-0.046422
C	-0.4149327746	-0.7171996006	-1.2545732236	-0.32472
H	-0.273946659	 2.0279419999	 0.9313112032	 0.105257
H	-0.3105177499	 2.038672301	-0.8890143355	 0.107136
H	 1.8917939013	 0.7892284856	-0.9399942402	 0.105544
H	 1.9312460143	 0.7823574106	 0.8807297375	 0.105818
H	 0.059052275	-1.7077844261	 1.2908125997	 0.096305
H	-0.0285506071	-0.1775819813	 2.1585827035	 0.08756
H	-2.21035298	-1.5592627116	 2.1216170906	 0.097369
H	-2.3829941277	 0.1072053392	 1.6187517671	 0.107393
H	-3.5134649902	-1.6871411873	 0.0185654696	 0.080114
H	-2.2833752046	-1.6123079964	-2.0524165616	 0.080073
H	-0.3415097023	-0.0497342875	-2.1233059276	 0.098038
H	 0.2741642348	-1.5496744537	-1.4695002358	 0.104583
114.9175	177.0958	284.1729	351.0274	359.7089	397.8187	469.4096	513.7255	668.2035	675.209	773.5448	782.1701	859.601	877.7371	897.7589	923.8715	953.5052	990.2914	999.6401	1004.1716	1008.2621	1049.8453	1054.3565	1067.7875	1080.8416	1162.2216	1184.4691	1199.7117	1210.3808	1249.3784	1311.0645	1327.1259	1357.642	1368.2942	1402.5926	1418.2981	1466.3405	1472.6596	1477.5132	1491.0648	1509.0047	1725.3411	2979.438	2999.1888	3013.4172	3029.9179	3040.2794	3064.2528	3120.4998	3125.6583	3138.1305	3162.2951	3197.8194	3212.7609
C1CC11CCC=CC1	C1CC21CCC=CC2	
InChI=1S/C8H12/c1-2-4-8(5-3-1)6-7-8/h1-2H,3-7H2	InChI=1S/C8H12/c1-2-4-8(5-3-1)6-7-8/h1-2H,3-7H2
