18
gdb 11065	3.37888	2.25519	1.90563	2.5879	65.87	-0.2466	0.0757	0.3223	786.0981	0.156072	-384.953299	-384.946665	-384.945721	-384.983647	26.793	
C	-0.0365734051	 1.4817189861	-0.0119054716	-0.491546
C	 0.0128713729	-0.0333376322	 0.0155427199	 0.228577
C	 0.7684262827	-0.7019310735	-1.1550633399	-0.092526
O	 0.9820964532	-2.0547425921	-0.7066403742	-0.269442
C	 0.3919375795	-2.1125699208	 0.5820216848	 0.208063
C	 0.7209726746	-0.749580655	 1.1921801988	-0.282849
O	-1.0223325466	-2.0988387356	 0.4727657343	-0.269445
C	-1.3547379035	-0.7486276098	 0.0942455895	-0.092527
H	 0.9713511185	 1.9090596132	-0.0287635923	 0.122285
H	-0.5663219321	 1.8471244026	-0.8992262281	 0.121166
H	-0.5547763675	 1.8755218038	 0.8685500184	 0.122282
H	 0.186803049	-0.7067840423	-2.0850350622	 0.101965
H	 1.7363796944	-0.2203561612	-1.3489741415	 0.095118
H	 0.7012714673	-3.0331614365	 1.0733234163	 0.090565
H	 1.7928913915	-0.5480924477	 1.2498221015	 0.105616
H	 0.2447789439	-0.5821536709	 2.1607553995	 0.105617
H	-2.00943842	-0.3027566777	 0.8551781059	 0.095117
H	-1.8851314728	-0.7523393302	-0.8658708692	 0.101965
192.9987	221.1203	273.3399	305.0932	406.4913	482.2806	504.0734	593.6246	602.2285	791.4154	821.1386	902.7696	903.1977	927.624	945.3374	960.6989	961.4945	983.251	1046.2996	1057.2807	1071.7261	1111.9198	1176.4864	1186.4081	1216.2827	1257.833	1271.4095	1281.5896	1310.89	1321.2419	1374.5739	1403.9705	1418.043	1486.8396	1494.7259	1498.9393	1516.8944	1535.207	3004.4142	3007.6741	3029.0293	3048.1345	3054.0435	3071.188	3091.5186	3101.7137	3131.3303	3151.8286
CC12COC(C1)OC2	C[C@@]12CO[C@@H](C1)OC2	
InChI=1S/C6H10O2/c1-6-2-5(7-3-6)8-4-6/h5H,2-4H2,1H3	InChI=1S/C6H10O2/c1-6-2-5(7-3-6)8-4-6/h5H,2-4H2,1H3/t5-,6+
