21
gdb 83663	2.23038	1.6235	1.26605	0.6982	87.2	-0.2501	0.0474	0.2975	1113.5786	0.182312	-349.898306	-349.889495	-349.888551	-349.93219	34.359	
C	 0.2802703303	 1.6390607679	-0.1878760804	-0.416605
C	 0.1435423896	 0.1341429624	-0.0199537748	 0.02007
C	 0.5534170871	-0.8228491216	-1.1756652259	-0.031163
C	 1.7959682628	-0.4304784108	-2.0231479504	-0.229827
C	 2.7155174128	-1.2525602624	-1.0691756631	-0.231271
C	 1.4882932756	-1.6239690735	-0.2027669031	-0.02429
C	 1.1329439689	-0.6268833191	 0.9579771606	-0.217223
C	 2.2131187733	 0.1234141646	 1.5638669538	 0.357328
C	 3.1119713398	 0.7557375633	 2.0556305549	-0.486789
H	 1.30773033	 1.9369449256	-0.4131159679	 0.128
H	-0.364991604	 1.996975731	-0.9979431596	 0.110514
H	-0.0119776354	 2.159452297	 0.7300847929	 0.118472
H	-0.8817473703	-0.0938276836	 0.2881525852	 0.07579
H	-0.270998602	-1.2847601592	-1.7213961462	 0.060111
H	 1.7602270782	-0.8253709462	-3.0413859649	 0.098952
H	 2.0097261651	 0.6389714283	-2.0897316941	 0.100292
H	 3.1738664454	-2.1189620611	-1.5522471946	 0.096671
H	 3.4976283153	-0.6943484461	-0.5494742898	 0.113272
H	 1.3460940048	-2.6772843763	 0.0412876971	 0.064599
H	 0.5737453769	-1.1350200593	 1.7497214963	 0.099758
H	 3.9012738957	 1.3082037392	 2.5017696939	 0.193338
30.207	137.7988	166.3227	202.477	264.3508	318.4628	345.5485	460.6368	509.9009	568.0885	607.6694	624.7643	628.2847	713.3466	752.148	771.5478	841.8305	856.635	877.9872	947.0855	966.336	987.679	1004.187	1048.0303	1072.58	1110.5942	1126.3417	1142.3542	1159.8758	1206.0265	1217.2918	1235.3784	1263.1488	1273.6694	1285.6141	1301.6669	1327.5179	1336.9897	1363.6157	1410.7653	1475.4533	1487.9463	1490.5978	1506.5468	2222.7017	3033.2869	3039.1256	3055.3657	3059.7238	3065.1842	3084.5819	3097.1167	3099.9573	3102.5134	3115.4399	3121.9616	3503.296
CC1C2CCC2C1C#C	C[C@H]1[C@H]2CC[C@H]2[C@H]1C#C	
InChI=1S/C9H12/c1-3-7-6(2)8-4-5-9(7)8/h1,6-9H,4-5H2,2H3	InChI=1S/C9H12/c1-3-7-6(2)8-4-5-9(7)8/h1,6-9H,4-5H2,2H3/t6-,7+,8-,9+/m1/s1
