17
gdb 34293	3.41929	1.49898	1.3386	2.6347	73.58	-0.2513	0.0367	0.288	992.6942	0.136753	-421.792739	-421.785505	-421.78456	-421.824166	29.175	
C	 0.0519333533	-1.1378048923	-0.05814724	-0.336165
C	 0.0184740221	 0.0608426087	-0.0260201818	 0.208122
C	-0.0410771096	 1.5082995906	 0.0499500859	 0.368877
C	-0.6912805778	 2.1746829411	 1.2772134015	-0.27912
C	-0.4016388718	 3.5670547914	 0.6861068902	-0.136232
C	 1.1139542786	 3.4361846928	 0.4566820412	-0.075746
O	 1.2723157075	 2.064270913	 0.0352033107	-0.305358
C	-1.0760268218	 3.4061109775	-0.6872403306	-0.075744
O	-0.7909812654	 2.0359383005	-1.0425519615	-0.305347
H	 0.0869510587	-2.1986962253	-0.0967546055	 0.191096
H	-1.7513196621	 1.9352388801	 1.372466385	 0.117881
H	-0.1589438517	 1.9571046903	 2.2042337999	 0.117881
H	-0.7128302054	 4.4400283869	 1.2589166958	 0.085584
H	 1.4867076732	 4.1034505924	-0.3287346544	 0.108607
H	 1.6948748953	 3.6064233725	 1.3717111701	 0.103529
H	-2.1623364876	 3.5534520674	-0.6430781236	 0.103529
H	-0.6587499655	 4.0739893726	-1.4493994631	 0.108607
141.0686	153.3777	203.9971	378.4595	444.036	445.7706	538.1727	541.4009	565.2965	595.5572	652.1051	676.5697	796.6854	836.9113	863.0788	897.7783	938.4206	951.0191	961.7639	975.3597	987.7142	1072.2066	1081.9582	1111.8569	1146.3982	1161.9355	1194.4387	1221.0711	1285.5492	1313.6208	1320.568	1357.4896	1385.3741	1488.9757	1515.3336	1533.4838	2262.1046	3018.733	3020.6659	3061.2111	3066.7979	3085.3718	3127.0008	3148.1108	3502.7413
C#CC12CC(CO1)CO2	C#C[C@@]12C[C@@H](CO1)CO2	
InChI=1S/C7H8O2/c1-2-7-3-6(4-8-7)5-9-7/h1,6H,3-5H2	InChI=1S/C7H8O2/c1-2-7-3-6(4-8-7)5-9-7/h1,6H,3-5H2/t6-,7+
