20
gdb 8037	3.21863	1.97721	1.54329	1.5145	74.54	-0.2336	0.0833	0.3169	924.7188	0.176493	-348.987775	-348.979719	-348.978775	-349.019897	31.196	
C	 0.2731842062	 1.5609843627	-0.1475072939	-0.410649
C	 0.0357345756	 0.0822576143	 0.080945885	 0.156772
O	 0.7805922447	-0.7605611104	-0.8394057473	-0.351742
C	 1.2622419818	-1.6043016971	 0.2386793671	 0.471541
C	 0.9484761545	-3.0609824728	 0.0185550596	-0.476183
C	 2.6819370617	-1.1724601421	 0.6927456231	-0.267138
C	 2.0425098751	-0.2327739821	 1.7625636214	-0.230632
C	 0.6225761314	-0.6565010963	 1.303215699	-0.155221
H	 1.3318761394	 1.8194002043	-0.0611926384	 0.121367
H	-0.0589440076	 1.8388779303	-1.1529524676	 0.126581
H	-0.294658863	 2.1578194353	 0.574824708	 0.114065
H	-1.0397077555	-0.1297372565	-0.0191551569	 0.070062
H	 1.481179691	-3.4309039817	-0.8652375666	 0.126909
H	 1.2585386442	-3.6635248493	 0.8785542881	 0.113122
H	-0.1230100341	-3.210538182	-0.1460321442	 0.12033
H	 3.2848482192	-1.9800333758	 1.1177757542	 0.095127
H	 3.2508836631	-0.6832398423	-0.1006600692	 0.106165
H	 2.2565650583	-0.5469829227	 2.7866732824	 0.101841
H	 2.2818144171	 0.830117657	 1.6836288196	 0.100773
H	-0.0824426232	-0.9782220329	 2.0700580766	 0.066908
69.3524	204.0408	213.8927	232.3697	264.5875	310.4706	383.9657	420.5682	495.0064	631.7733	640.5001	729.4045	785.8589	840.3311	883.9188	907.8699	924.5114	941.7643	969.1149	978.6994	1039.9697	1083.0149	1111.9387	1134.9173	1155.4213	1180.3718	1200.1656	1218.1548	1237.5004	1270.9734	1308.0411	1323.6769	1336.4621	1390.631	1407.4588	1409.8666	1464.1532	1480.4459	1482.809	1484.2183	1488.7225	1505.1005	2977.5773	3029.0167	3036.2811	3056.1711	3067.5509	3096.771	3100.7361	3104.1408	3108.0047	3109.2527	3118.8568	3125.28
CC1OC2(C)CCC12	C[C@H]1O[C@@]2(C)CC[C@@H]12	
InChI=1S/C7H12O/c1-5-6-3-4-7(6,2)8-5/h5-6H,3-4H2,1-2H3	InChI=1S/C7H12O/c1-5-6-3-4-7(6,2)8-5/h5-6H,3-4H2,1-2H3/t5-,6+,7+/m1/s1
