17
gdb 7295	3.73738	1.30869	1.09499	3.3925	71.91	-0.2432	0.0256	0.2688	1110.3775	0.139334	-363.855986	-363.846488	-363.845544	-363.890959	32.932	
C	-0.3850349768	 1.3328845019	 0.1230478388	-0.342489
N	-0.1199853908	-0.0817859917	-0.0586900359	-0.081592
C	-0.0609629006	-0.8882641995	 1.158803259	-0.316864
C	-1.3328148487	-0.9304179369	 1.8796183722	 0.31371
C	-2.3745565862	-0.9511759108	 2.4784732046	-0.461658
C	 0.1393702503	-0.7041402706	-1.2587207856	 0.413737
C	 0.0942821094	 0.1533882787	-2.5155167948	-0.501803
O	 0.3954945755	-1.895183557	-1.3232855913	-0.372905
H	-0.5332980109	 1.8281391263	-0.8339352483	 0.139489
H	-1.2905582099	 1.4691272659	 0.7243124338	 0.144779
H	 0.4463910035	 1.8285770683	 0.6439474993	 0.123675
H	 0.2384260083	-1.8919940334	 0.847556419	 0.180738
H	 0.7210671401	-0.4936278886	 1.8236692535	 0.128887
H	-3.2954326737	-0.9886962452	 3.0061634956	 0.202025
H	 0.8187991447	 0.9726553857	-2.4793263407	 0.137798
H	 0.3341436781	-0.4971722072	-3.3555278213	 0.150631
H	-0.8972432222	 0.5886541741	-2.6744788079	 0.141841
39.6686	77.8918	101.2242	137.0015	202.2094	260.9865	304.7546	334.2965	379.4261	414.2567	564.7982	590.2991	602.7414	612.9109	666.1984	765.0949	923.3866	965.3903	999.7571	1036.9342	1050.0891	1155.8806	1163.1	1234.0371	1289.8124	1369.5985	1386.2019	1430.8288	1461.5333	1470.0175	1478.2556	1489.6646	1498.5177	1529.0205	1756.9996	2237.461	3000.3034	3006.7911	3046.4727	3071.3947	3105.4203	3110.3637	3162.8009	3171.8588	3504.7561
CN(CC#C)C(C)=O	CN(CC#C)C(=O)C	
InChI=1S/C6H9NO/c1-4-5-7(3)6(2)8/h1H,5H2,2-3H3	InChI=1S/C6H9NO/c1-4-5-7(3)6(2)8/h1H,5H2,2-3H3
