15
gdb 30079	3.41786	1.19069	0.892	4.3486	70.02	-0.2257	-0.0132	0.2125	1226.9464	0.112796	-454.000817	-453.992344	-453.9914	-454.035361	28.966	
C	 0.0106300782	 1.4199113333	 0.1147487337	-0.355216
N	-0.0141882728	-0.0283381886	 0.0198390845	-0.078565
C	 0.0684783529	-0.7974537261	-1.1325256189	-0.127385
C	 0.0102288996	-2.0970159001	-0.7191075636	-0.09455
N	-0.115766499	-2.1673293765	 0.6560086439	-0.361383
C	-0.1200800076	-0.9200373197	 1.039223526	 0.480776
O	-0.2334770142	-0.4425180337	 2.3087018566	-0.236996
C	 0.067512455	-1.2944450288	 3.3471505303	 0.161893
O	-0.067217271	-0.9425944243	 4.4751447878	-0.255434
H	 0.9482798788	 1.81515101	-0.2865711049	 0.147806
H	-0.8258918836	 1.8555312855	-0.4391959891	 0.148858
H	-0.0740531181	 1.7021180046	 1.1637543743	 0.172854
H	 0.1496224392	-0.3414008313	-2.1049173141	 0.13295
H	 0.0416764724	-2.9915968266	-1.320872273	 0.118934
H	 0.4214302701	-2.2704042077	 2.9900218464	 0.14546
49.6127	64.4197	120.2571	159.0525	189.6814	296.2286	344.0293	486.5288	522.2093	633.1356	693.2465	696.1966	737.133	841.8437	865.2774	949.131	1045.2028	1057.1188	1089.8683	1109.1542	1154.5869	1186.0201	1238.6098	1303.2988	1381.1821	1397.892	1449.1605	1492.1663	1498.9604	1520.1585	1561.5232	1571.6158	1875.1032	3047.4617	3073.1745	3108.7382	3163.5989	3256.3519	3282.9864
CN1C=CN=C1OC=O	Cn1ccnc1OC=O	
InChI=1S/C5H6N2O2/c1-7-3-2-6-5(7)9-4-8/h2-4H,1H3	InChI=1S/C5H6N2O2/c1-7-3-2-6-5(7)9-4-8/h2-4H,1H3
