18
gdb 81846	2.00747	1.70005	1.09698	2.8156	73.63	-0.2186	-0.0356	0.1829	1130.4216	0.145236	-439.028534	-439.019608	-439.018664	-439.062225	33.277	
C	-0.5485622302	 1.4397211737	 0.3714429776	-0.336939
N	-0.1027782164	 0.073428347	 0.1473808634	-0.086394
C	 0.2756590717	-0.3456077606	-1.1988860361	-0.097149
C	 1.596853068	 0.2465049149	-1.6533856667	-0.337634
C	 1.5986508458	-0.8932925187	-0.6794778874	 0.365349
O	 2.3039121265	-2.0382357373	-0.9557125844	-0.450958
C	 1.1717007127	-0.4371693897	 0.7369385313	-0.132901
C	 2.1204132158	 0.5039658624	 1.4389060412	 0.152422
O	 2.7008147343	 0.2195371609	 2.4572609002	-0.253063
H	 0.1074584189	 2.2199708894	-0.0482969597	 0.102856
H	-1.5377898458	 1.5615781132	-0.0821584731	 0.128822
H	-0.651067912	 1.6188104224	 1.4464953299	 0.131581
H	-0.4577727936	-0.7554549007	-1.8845255703	 0.104121
H	 1.9011408752	-0.0629763704	-2.6487012791	 0.129963
H	 1.8980268855	 1.2548839929	-1.3872679575	 0.114688
H	 1.853447812	-2.7851574852	-0.5442160107	 0.292673
H	 0.9834623859	-1.2822197442	 1.4110872109	 0.09389
H	 2.2872503258	 1.4838747199	 0.9422387205	 0.078673
61.432	125.6811	206.4628	221.3829	231.7885	243.2411	355.1045	367.523	439.2309	448.3013	501.4825	515.2762	611.0949	689.6459	835.2439	850.2715	914.012	961.4881	995.587	1025.7432	1028.4157	1058.79	1085.8071	1109.8139	1151.8019	1185.8997	1190.9557	1205.2527	1253.6653	1293.462	1298.3873	1320.7425	1416.5017	1439.5411	1452.5385	1485.3794	1500.1201	1511.4131	1812.7947	2894.5809	2966.2292	3030.566	3061.108	3102.9576	3123.8515	3172.3475	3210.2034	3787.9372
CN1C2CC2(O)C1C=O	CN1[C@H]2C[C@@]2(O)[C@H]1C=O	
InChI=1S/C6H9NO2/c1-7-4-2-6(4,9)5(7)3-8/h3-5,9H,2H2,1H3	InChI=1S/C6H9NO2/c1-7-4-2-6(4,9)5(7)3-8/h3-5,9H,2H2,1H3/t4-,5+,6-/m0/s1
