17
gdb 34100	3.41886	1.5106	1.30833	3.2844	75.71	-0.2582	0.0244	0.2827	986.0014	0.138808	-380.851866	-380.844982	-380.844038	-380.883017	27.647	
N	-0.0153949155	-1.1286226532	-0.0151211939	-0.342591
C	-0.0224400918	 0.0277412975	 0.0056963084	 0.183466
C	-0.0190110165	 1.4731376509	 0.0325637902	 0.176407
C	-0.408466213	 2.2093795873	-1.300994022	-0.292992
C	 0.8165386484	 3.1108309246	-1.1042811405	-0.040262
C	 1.3555938413	 2.235062595	-0.0218787582	-0.092523
N	 0.9552064906	 3.59174344	 0.2790026687	-0.092528
C	-0.2730888891	 3.5999510331	 1.1049640222	-0.17737
C	-0.7490400851	 2.1287165775	 1.2188978638	-0.26668
H	-0.284718267	 1.5597431849	-2.169151015	 0.134079
H	-1.4014209606	 2.6689824667	-1.3282275923	 0.109181
H	 1.333297825	 3.6644935804	-1.8792908671	 0.106325
H	 2.3392947057	 1.8466066609	 0.2094526247	 0.111379
H	-0.030156389	 4.0230185973	 2.0828292779	 0.122126
H	-1.0220630237	 4.2480035259	 0.6412039851	 0.117145
H	-1.8340503614	 2.0209028794	 1.1391296349	 0.121194
H	-0.4298974684	 1.6747689416	 2.161760943	 0.123645
151.1434	153.3728	240.6301	367.494	417.3313	497.3677	536.5149	558.0672	639.2208	716.5451	750.8538	800.3211	850.4486	866.0572	927.2503	936.3449	947.7709	970.0007	1003.4807	1018.4806	1051.8841	1105.0697	1108.9513	1158.5887	1185.6533	1212.6218	1217.3769	1243.6793	1259.5087	1269.9181	1322.9434	1333.0226	1368.1743	1488.2866	1490.9081	1515.6697	2352.7605	3053.8943	3057.0456	3065.1388	3097.8387	3115.9385	3125.222	3181.2425	3199.7646
N#CC12CC3C1N3CC2	N#C[C@]12C[C@@H]3[C@H]1N3CC2	
InChI=1S/C7H8N2/c8-4-7-1-2-9-5(3-7)6(7)9/h5-6H,1-3H2	InChI=1S/C7H8N2/c8-4-7-1-2-9-5(3-7)6(7)9/h5-6H,1-3H2/t5-,6-,7+,9?/m1/s1
