20
gdb 65212	3.45027	1.2444	1.20013	3.4765	78.91	-0.222	0.0694	0.2914	1131.3124	0.171745	-403.085225	-403.077285	-403.076341	-403.117542	32.274	
O	 0.140166076	 1.339655079	 0.4029846132	-0.483467
C	 0.0702730491	-0.0250928623	 0.1011390336	 0.448555
C	 1.017067713	-0.5577170792	-0.9543939898	-0.32826
C	 1.2715185496	-0.8169788534	 0.5203718416	-0.315215
C	-1.3116808168	-0.6283675043	 0.2040778046	-0.076236
C	-2.230845867	-0.1931806937	 1.4108779844	-0.255076
C	-3.2508595514	 0.3284201965	 0.3939882267	-0.041205
N	-2.5537747528	 1.3588435893	-0.4210553629	-0.345966
C	-2.3964352812	-0.0849426601	-0.7497493878	-0.057886
H	-0.6726331708	 1.7390736068	 0.046549649	 0.289272
H	 0.7068321358	-1.3887118252	-1.5805164795	 0.097679
H	 1.6486624197	 0.173999339	-1.4445488187	 0.115085
H	 2.0704005288	-0.2563950865	 0.9924227262	 0.120176
H	 1.1322404341	-1.8225866639	 0.9034791595	 0.102786
H	-1.2511618105	-1.7171718764	 0.1319434133	 0.076321
H	-2.5958326496	-1.0472685934	 1.9843422108	 0.104603
H	-1.8112621946	 0.5575892293	 2.0823364	 0.123141
H	-4.3297392555	 0.354846424	 0.4817361314	 0.096787
H	-3.2303925009	 1.7507011055	-1.073478403	 0.234794
H	-2.6612340249	-0.4481376013	-1.7353726025	 0.094114
78.4432	179.1879	191.4122	286.6922	331.1489	348.8327	441.7573	492.849	549.2207	622.8495	690.6115	751.7054	773.4202	804.7386	830.8257	872.6874	879.8805	916.0359	941.3633	958.6502	976.2863	989.0711	1002.4871	1016.7491	1046.1952	1055.9786	1071.5251	1098.5944	1109.9381	1162.0727	1190.251	1201.4123	1234.6343	1248.7308	1294.7665	1319.3996	1320.2949	1353.4026	1376.0736	1449.6309	1459.5643	1474.3683	1522.5563	3074.1052	3081.2311	3124.8304	3131.1963	3138.4168	3183.3573	3198.822	3213.312	3227.6814	3489.0373	3609.2481
OC1(CC1)C1CC2NC12	OC1(CC1)[C@H]1C[C@H]2N[C@@H]12	
InChI=1S/C7H11NO/c9-7(1-2-7)4-3-5-6(4)8-5/h4-6,8-9H,1-3H2	InChI=1S/C7H11NO/c9-7(1-2-7)4-3-5-6(4)8-5/h4-6,8-9H,1-3H2/t4-,5+,6-/m0/s1
