20
gdb 73164	2.39915	1.40642	1.27905	4.1755	82.75	-0.2822	0.0274	0.3096	1120.9538	0.171606	-366.013194	-366.004666	-366.003722	-366.04639	32.78	
C	-0.3040559476	 1.3752467188	-0.1386873102	-0.501433
C	 0.0215059262	-0.0901265286	 0.0376081589	 0.364908
C	-1.1569731065	-1.0457489812	 0.4052904022	-0.296544
C	-0.4159284312	-1.4726220927	 1.708257106	-0.22099
C	 0.8349908221	-0.6927680488	 1.2479575897	-0.063789
C	 1.7398036691	-1.4618332782	 0.2463818842	-0.25281
C	 1.06496307	-0.7115063183	-0.9519542928	-0.192737
C	 0.5730258962	-1.4995922607	-2.068997762	 0.274306
N	 0.1585827659	-2.1416616945	-2.9377851924	-0.341219
H	 0.6034140568	 1.9854975253	-0.2107568709	 0.115208
H	-0.8914089021	 1.5380860211	-1.0506286114	 0.13067
H	-0.8935694761	 1.7498802336	 0.7052062497	 0.12126
H	-2.1049835738	-0.5277763813	 0.5678186936	 0.106864
H	-1.3319964304	-1.8461472188	-0.3177636545	 0.126817
H	-0.8705189739	-1.0454036637	 2.6057613984	 0.104541
H	-0.2815449891	-2.5456369837	 1.8717012391	 0.102723
H	 1.3537972707	-0.0680322671	 1.9767414078	 0.068632
H	 2.8104417273	-1.2694483135	 0.330557563	 0.116598
H	 1.5820755465	-2.5427621864	 0.238784758	 0.120652
H	 1.7256337299	 0.0691908686	-1.3411418165	 0.116342
63.7569	137.2968	171.2713	227.0769	253.3998	330.3136	361.2224	375.6211	521.5451	531.8481	600.6096	652.1587	744.7255	758.6145	828.961	864.9892	889.6384	926.0431	958.3779	962.7309	1011.0394	1030.4127	1054.3849	1073.0405	1131.7775	1155.5065	1176.3054	1191.4263	1214.3017	1238.4556	1258.3611	1272.4768	1284.6411	1307.709	1313.6847	1357.1157	1412.2619	1478.3844	1484.6147	1489.702	1491.6862	1500.2434	2345.813	3019.3792	3054.117	3062.2974	3066.2622	3071.9072	3084.7904	3091.1488	3092.3609	3100.7158	3120.0774	3129.8114
CC12CCC1CC2C#N	C[C@]12CC[C@H]1C[C@H]2C#N	
InChI=1S/C8H11N/c1-8-3-2-6(8)4-7(8)5-9/h6-7H,2-4H2,1H3	InChI=1S/C8H11N/c1-8-3-2-6(8)4-7(8)5-9/h6-7H,2-4H2,1H3/t6-,7-,8-/m0/s1
