14
gdb 25002	5.04745	1.39467	1.10031	2.973	68.86	-0.2218	-0.0134	0.2084	1015.8275	0.104385	-432.909017	-432.902516	-432.901572	-432.940132	24.995	
N	-0.0460447918	 1.2213573782	 0.0075438521	-0.516065
C	-0.0246981338	-0.0311300396	 0.0005788611	 0.385789
C	-1.2601187059	-0.9414111779	 0.0026004039	-0.269539
N	-0.6252982501	-2.2374541522	-0.0080033877	-0.051302
C	-0.8903657215	-3.600426808	-0.0141255876	-0.154733
C	 0.348503427	-4.1858185344	-0.0241846391	-0.088813
N	 1.3744937389	-3.2403594303	-0.0249863924	-0.383113
C	 0.7217077803	-2.1229276687	-0.015085155	 0.486323
O	 1.1229957193	-0.816970623	-0.0102472397	-0.240455
H	 0.8952703344	 1.61526726	 0.0043523945	 0.246183
H	-1.8672208025	-0.7658130584	 0.8959184325	 0.164378
H	-1.8772170968	-0.756187562	-0.8818817642	 0.164379
H	-1.8895222518	-3.9998900443	-0.010667119	 0.137966
H	 0.5766935743	-5.2400937196	-0.0311662694	 0.119003
104.8926	153.8526	309.3755	349.4781	539.0327	539.0969	579.6061	619.0626	691.3537	731.8843	756.7822	825.1244	837.5435	862.1005	894.4871	952.0361	1021.8947	1032.6166	1089.8819	1139.9626	1174.9514	1190.0579	1258.1998	1296.4118	1303.3714	1413.2783	1475.6014	1503.5608	1531.1664	1625.2741	1818.2467	3054.901	3094.8479	3260.0175	3293.5703	3496.1914
N=C1CN2C=CN=C2O1	[NH][C]1Cn2ccnc2O1	
InChI=1S/C5H5N3O/c6-4-3-8-2-1-7-5(8)9-4/h1-2,6H,3H2	InChI=1S/C5H5N3O/c6-4-3-8-2-1-7-5(8)9-4/h1-2,6H,3H2
