19
gdb 92514	2.30819	1.70615	1.39178	3.7345	73.97	-0.2306	-0.0327	0.1979	1025.5613	0.160392	-423.03393	-423.025866	-423.024921	-423.066674	30.63	
C	 0.1126945152	 1.5390333332	-0.0767783586	-0.406773
C	-0.031926183	 0.0046890533	-0.0454884358	-0.09036
C	 0.5689009774	-0.734792902	-1.2667200566	-0.257032
C	 1.9818925171	-1.2273184644	-0.8685558659	-0.078398
C	 3.1073453567	-0.1757424497	-0.8863817999	-0.076736
O	 3.0225046338	 0.0049564214	 0.5482957685	-0.293862
C	 2.0816992118	-1.0962808414	 0.6681410444	 0.023925
C	 0.7269391078	-0.5708721339	 1.1589732761	 0.400827
O	 0.3324074254	-0.6101511898	 2.2952294006	-0.31654
H	 1.1615192668	 1.8433511146	-0.1192585395	 0.141452
H	-0.4077856383	 1.9536137789	-0.9458681259	 0.116114
H	-0.3236051609	 1.9759624755	 0.82593545	 0.136357
H	-1.0919369764	-0.2342732341	 0.0798739116	 0.100074
H	-0.0546889486	-1.6004914211	-1.5119077626	 0.109359
H	 0.6003792803	-0.1041800665	-2.1613238931	 0.104991
H	 2.2325841489	-2.1889550841	-1.3159267443	 0.08449
H	 4.0936017028	-0.5571202791	-1.1780355827	 0.107871
H	 2.9041646579	 0.7514283911	-1.4350773188	 0.104748
H	 2.4721359455	-1.915574172	 1.2782689924	 0.089494
81.5612	123.6953	197.741	229.6924	261.3348	320.1022	358.5508	450.9954	559.27	650.8435	701.9321	763.1816	815.9142	870.1671	879.3	885.9261	911.5304	967.8916	999.2167	1021.2204	1039.2138	1074.5136	1106.1541	1141.1872	1164.5124	1179.5699	1192.6664	1243.9155	1258.9464	1272.0868	1290.2449	1327.3097	1335.5595	1348.0369	1367.6439	1406.9057	1487.3327	1494.701	1505.6801	1528.1699	1844.92	3018.0569	3041.104	3043.0054	3064.0353	3066.3638	3074.4523	3083.3569	3112.1376	3112.6727	3129.6052
CC1CC2COC2C1=O	C[C@H]1C[C@H]2CO[C@H]2C1=O	
InChI=1S/C7H10O2/c1-4-2-5-3-9-7(5)6(4)8/h4-5,7H,2-3H2,1H3	InChI=1S/C7H10O2/c1-4-2-5-3-9-7(5)6(4)8/h4-5,7H,2-3H2,1H3/t4-,5-,7+/m0/s1
