15
gdb 67158	2.51815	1.7401	1.59621	3.4693	64.72	-0.2334	-0.0334	0.2	902.6326	0.112328	-457.714151	-457.707129	-457.706185	-457.745457	27.623	
O	-0.1167038682	 1.4315174711	-0.017076668	-0.462689
C	 0.011458911	 0.0685466662	-0.0002959757	 0.356822
C	 0.6844843821	-0.8915149853	 1.0467699291	 0.014016
C	-0.6872960103	-1.5474140272	 1.3088705002	-0.241609
C	-1.255585611	-0.8752538666	 0.0191892295	-0.223101
C	-0.7013001945	-1.5317661447	-1.2571443029	 0.442696
O	-1.199667635	-2.16699309	-2.1393823391	-0.306126
C	 0.6913987811	-0.8825679193	-1.0598231806	-0.118386
O	 1.4010177415	-1.5750319143	-0.0072048626	-0.29168
H	 0.7588909496	 1.8298101433	-0.0858452651	 0.296747
H	 1.336968046	-0.6351912387	 1.8834341383	 0.089242
H	-0.7072068371	-2.6376115632	 1.3734450431	 0.123407
H	-1.1632218863	-1.1167108542	 2.1954825087	 0.119517
H	-2.2897890669	-0.5346661296	 0.0104599516	 0.104513
H	 1.3210172478	-0.6272728974	-1.9148826664	 0.096631
113.2384	227.2729	281.8117	314.6509	359.8273	410.9789	450.0264	532.5442	602.8101	664.1438	768.9127	774.5546	850.7272	885.4288	922.505	946.1394	989.7684	992.9641	1014.9483	1070.3928	1100.5239	1117.3052	1134.5082	1140.647	1175.2399	1225.845	1257.4417	1279.3242	1312.6195	1322.9367	1409.3161	1471.861	1888.2434	3054.3442	3095.6004	3100.5333	3118.8172	3134.6774	3792.7618
OC12C3CC1C(=O)C2O3	O[C@@]12[C@H]3C[C@@H]1C(=O)[C@@H]2O3	
InChI=1S/C6H6O3/c7-4-2-1-3-6(2,8)5(4)9-3/h2-3,5,8H,1H2	InChI=1S/C6H6O3/c7-4-2-1-3-6(2,8)5(4)9-3/h2-3,5,8H,1H2/t2-,3-,5+,6-/m1/s1
