21
gdb 37731	3.24199	1.84143	1.42652	0.3271	85.81	-0.2647	0.0903	0.355	973.999	0.186307	-349.89745	-349.890889	-349.889945	-349.927874	28.661	
C	-0.0795556565	 1.6019463753	 0.0012764572	-0.345921
C	 1.4346355472	 1.2617881793	 0.0124952323	-0.073633
C	 1.2133376337	 0.0154597104	 0.9233936273	-0.047431
C	 1.9091399061	-0.9835726764	-0.021088518	-0.043621
C	 1.2506593225	-2.3751898097	-0.0211180827	-0.222835
C	-0.2069583266	-2.3301035043	-0.5430299927	-0.193945
C	-1.0021572009	-1.0888704986	-0.0605486443	-0.345159
C	-0.0286386904	 0.0608443021	-0.033367751	 0.372572
C	 1.2470573052	 0.0557645634	-0.960460634	-0.077845
H	-0.4862439507	 2.0643127762	 0.9077043063	 0.087745
H	-0.4676045474	 2.1064335921	-0.8908132253	 0.086835
H	 2.2853311327	 1.944572412	 0.0405482604	 0.064706
H	 1.1630412938	 0.0070094791	 2.0155830449	 0.057622
H	 3.0036381025	-1.0249981393	 0.0054356437	 0.051784
H	 1.8242384733	-3.0741661604	-0.6407625986	 0.092447
H	 1.2809814254	-2.7790465077	 1.0002650269	 0.093165
H	-0.1703823803	-2.2926515399	-1.6381348607	 0.102076
H	-0.7337645788	-3.2542080864	-0.2844265823	 0.089837
H	-1.8452003396	-0.9019790598	-0.7363007443	 0.095533
H	-1.4269005069	-1.249839533	 0.9386792146	 0.095064
H	 1.2415951959	 0.1044880556	-2.0519958596	 0.061003
204.2241	232.7898	350.6706	377.831	423.2255	468.9176	572.8972	673.6563	732.191	756.2238	831.3978	840.7386	854.6368	873.6386	890.098	903.4064	912.6877	926.5356	987.0848	995.7966	1027.66	1039.5523	1053.0718	1073.9593	1104.2468	1112.0389	1146.8274	1154.2225	1178.2817	1182.3363	1203.3007	1211.3979	1225.9652	1248.7865	1274.7729	1294.6155	1325.816	1343.6818	1362.7384	1371.9329	1389.7357	1484.7506	1489.085	1502.0519	1511.0462	3011.7771	3018.754	3026.4943	3029.185	3040.9952	3055.7665	3058.4132	3073.3222	3078.7868	3081.2758	3082.3123	3101.7308
C1C2C3C4CCCC13C24	C1[C@H]2[C@@H]3[C@H]4CCC[C@@]13[C@@H]24	
InChI=1S/C9H12/c1-2-5-7-6-4-9(7,3-1)8(5)6/h5-8H,1-4H2	InChI=1S/C9H12/c1-2-5-7-6-4-9(7,3-1)8(5)6/h5-8H,1-4H2/t5-,6+,7+,8-,9-
