23
gdb 100185	2.00182	1.34773	1.06247	2.7673	81.63	-0.2484	-0.0248	0.2236	1302.5809	0.201094	-425.444599	-425.43308	-425.432136	-425.480988	41.698	
C	-0.1693923082	 1.6646246553	 0.0106990904	-0.398907
C	-0.0765507036	 0.1347242276	-0.020276429	-0.226944
C	 0.6406506225	-0.4253805865	-1.2689002162	 0.262918
O	 0.0422761356	 0.052058007	-2.4738636394	-0.475122
C	 2.063871165	 0.138158224	-1.3034276022	 0.156948
O	 2.859649709	-0.0084128161	-0.4120378853	-0.27583
C	 0.7368330698	-1.9841140286	-1.2556305764	 0.028609
C	-0.6395792507	-2.6640103807	-1.2140964947	-0.427585
C	 1.541247861	-2.4996265633	-2.4603729415	-0.412716
H	 0.8203470578	 2.1248173257	 0.0910498658	 0.131056
H	-0.6444262592	 2.0464822179	-0.8969892888	 0.122639
H	-0.7577797285	 1.995969995	 0.8710874522	 0.114266
H	 0.4595288069	-0.2287827795	 0.8627120228	 0.121095
H	-1.0862680398	-0.2892205147	 0.0234604024	 0.092114
H	-0.8877587537	-0.195075876	-2.4652731162	 0.284546
H	 2.3057110337	 0.7031832922	-2.2298638208	 0.095757
H	 1.2817782985	-2.2397617126	-0.3389092168	 0.095165
H	-0.5181765327	-3.7513976759	-1.2341148643	 0.12237
H	-1.210250679	-2.416066634	-0.3157767963	 0.121158
H	-1.2441887261	-2.398188805	-2.0902168556	 0.10568
H	 2.5724698946	-2.1339211522	-2.4493365618	 0.126227
H	 1.5810297302	-3.5930163593	-2.4546712715	 0.111019
H	 1.078978637	-2.1776560205	-3.3980959567	 0.125536
55.9035	90.1179	102.8797	170.0839	206.6847	214.1142	235.7082	245.3739	264.6522	278.2529	301.9838	336.1814	353.966	441.0027	446.8679	543.432	641.6337	711.3497	787.9797	857.9663	923.9134	930.8892	959.7149	979.1928	985.3456	1034.6009	1071.5378	1100.3142	1130.6467	1152.7608	1194.6268	1200.4825	1282.7456	1326.5563	1346.664	1362.0214	1366.7719	1397.2272	1408.2864	1410.919	1424.7051	1476.6092	1489.4708	1494.2248	1500.2263	1509.184	1509.6137	1513.5822	1831.2814	2900.5087	3028.4313	3037.7612	3040.462	3041.3215	3044.1723	3082.2876	3093.5929	3107.1372	3111.2909	3116.756	3117.3884	3121.8673	3826.7567
CCC(O)(C=O)C(C)C	CC[C@@](O)(C=O)C(C)C	
InChI=1S/C7H14O2/c1-4-7(9,5-8)6(2)3/h5-6,9H,4H2,1-3H3	InChI=1S/C7H14O2/c1-4-7(9,5-8)6(2)3/h5-6,9H,4H2,1-3H3/t7-/m1/s1
