19
gdb 68928	2.3368	1.81873	1.28702	1.681	71.15	-0.2439	0.0679	0.3118	1031.4349	0.15864	-460.145001	-460.136511	-460.135567	-460.177503	33.165	
C	-0.08783111	 1.5009907374	 0.0062993476	-0.442653
C	 0.0326542175	-0.0005897079	 0.0201511939	 0.371835
C	 1.3705273059	-0.6820743735	-0.2047773946	-0.391462
C	 0.7109224405	-0.7313609729	 1.1552079761	 0.285464
O	 1.2349836656	 0.0648988857	 2.183472221	-0.461763
C	 0.0644015198	-2.0141164727	 1.6534589438	-0.15165
O	-0.8248501924	-2.5641670327	 0.6932472622	-0.23131
C	-1.7098726244	-1.5783207312	 0.2296202412	 0.000877
O	-1.0741579753	-0.6338292359	-0.5893954844	-0.285549
H	 0.7754905979	 1.9631406348	 0.4876139366	 0.128795
H	-0.1589683805	 1.8610983819	-1.0248808354	 0.124318
H	-0.9892363116	 1.8185634746	 0.5403859584	 0.120926
H	 1.3556447026	-1.5841907732	-0.8064528	 0.127715
H	 2.2491280152	-0.0536757268	-0.3075510833	 0.109377
H	 2.1168780353	-0.2625781088	 2.3922147739	 0.28732
H	 0.8096379511	-2.7874087378	 1.8690886452	 0.105801
H	-0.4709839955	-1.7779022852	 2.5869148588	 0.103133
H	-2.4567846461	-2.0759019143	-0.3919153383	 0.117157
H	-2.1947907455	-1.0816951813	 1.0899030175	 0.081668
128.2244	173.6105	194.1919	240.7542	276.9672	328.0229	383.0527	399.5425	421.4572	452.308	521.1868	527.9413	650.0023	695.5356	758.3659	884.016	925.2506	931.524	949.737	974.1382	1029.9982	1054.3176	1073.4259	1122.1801	1123.928	1169.6219	1191.71	1218.0284	1258.7892	1283.4121	1313.8063	1330.2546	1376.4883	1406.0948	1416.2749	1443.0773	1471.9899	1482.1528	1495.295	1506.0035	1513.2073	2935.9106	2983.3071	3041.7117	3066.1882	3103.61	3114.7707	3129.12	3141.9806	3227.6278	3794.8057
CC12CC1(O)COCO2	C[C@@]12C[C@]1(O)COCO2	
InChI=1S/C6H10O3/c1-5-2-6(5,7)3-8-4-9-5/h7H,2-4H2,1H3	InChI=1S/C6H10O3/c1-5-2-6(5,7)3-8-4-9-5/h7H,2-4H2,1H3/t5-,6+/m1/s1
