16
gdb 10493	2.98638	1.76309	1.31946	4.252	64.67	-0.2646	0.0191	0.2838	940.3727	0.13059	-379.90271	-379.894518	-379.893574	-379.935609	29.593	
O	 0.365237386	 1.0577904102	 0.6389788876	-0.414102
C	 0.0784817618	-0.0453392011	-0.1998128607	-0.167354
C	-1.3719056418	-0.5082597515	-0.0971265894	 0.314167
C	-2.3756748954	 0.2026752192	-1.0069609736	-0.391701
C	-2.2597425778	 1.6589397209	-0.9149867971	 0.268784
N	-2.1067170606	 2.8022993256	-0.8321393553	-0.321413
C	-1.6508088961	-1.9138457789	 0.2996584885	-0.286863
N	-1.8884356919	-0.8086742492	 1.2395991075	-0.32565
H	-0.1154943502	 1.8282859292	 0.3130023119	 0.30439
H	 0.3308418791	 0.1639828133	-1.2511814528	 0.099962
H	 0.7398197059	-0.8499341194	 0.1376470993	 0.11166
H	-2.2174277502	-0.0880971815	-2.0523787897	 0.153738
H	-3.3908396322	-0.0916948685	-0.7264630824	 0.165728
H	-2.5491071963	-2.41471858	-0.0526603988	 0.120359
H	-0.8006065866	-2.5728379577	 0.455142904	 0.121307
H	-1.1364910338	-0.7242599206	 1.919921441	 0.246987
71.9569	101.6297	134.0335	253.1053	320.1039	339.3447	377.5626	391.4879	431.9995	532.9686	548.5424	769.1111	863.0239	893.1273	919.3288	938.1623	956.3688	993.9425	1020.9609	1076.2074	1085.784	1148.7874	1201.7568	1223.7846	1257.7224	1305.9509	1333.2489	1392.2954	1396.1095	1434.0556	1451.9263	1494.7971	1517.7244	2351.5473	2984.8086	3045.6932	3074.4548	3102.356	3105.4028	3188.918	3504.2299	3787.9321
OCC1(CC#N)CN1	OC[C@@]1(CC#N)CN1	
InChI=1S/C5H8N2O/c6-2-1-5(4-8)3-7-5/h7-8H,1,3-4H2	InChI=1S/C5H8N2O/c6-2-1-5(4-8)3-7-5/h7-8H,1,3-4H2/t5-/m1/s1
