18
gdb 79641	2.59987	1.60838	1.23634	2.5751	70.23	-0.2257	0.0547	0.2804	1037.5222	0.14815	-439.02259	-439.014744	-439.0138	-439.054544	31.261	
O	-0.0811482938	 1.3806744354	-0.0561922959	-0.439151
C	 0.0100753389	-0.0137483206	-0.0324731106	 0.088255
C	-0.3872117696	-0.7229259512	 1.2436045198	-0.104658
C	-1.316286176	-0.7119224489	 0.0483635112	-0.033737
N	-1.5380224592	-2.0756740679	-0.4363445075	-0.103702
C	-0.4062827479	-2.7759543289	-1.0582302376	-0.251665
C	-0.7041160321	-2.972672144	 0.384598617	-0.060981
C	 0.0968353813	-2.1616591601	 1.4200620189	 0.057993
O	 1.5111419626	-2.2155127727	 1.2455466456	-0.429006
H	 0.6754520624	 1.7328618385	 0.4250453398	 0.287903
H	 0.8221331982	-0.4314261282	-0.6209503466	 0.102126
H	-0.5822314699	-0.1169030033	 2.1206678805	 0.091954
H	-2.1971570638	-0.0807577814	 0.0235583657	 0.108066
H	-0.6940596272	-3.5401474089	-1.7753326861	 0.115222
H	 0.4884485926	-2.2268253981	-1.3289337835	 0.129235
H	-1.1764598682	-3.8923308124	 0.7228159959	 0.08609
H	-0.1676169933	-2.5130713504	 2.427663716	 0.072321
H	 1.7789761148	-3.1391806469	 1.2908647275	 0.283736
146.2627	171.4008	241.4218	273.1724	298.7698	318.7613	403.1285	431.3904	511.8335	549.7731	657.4301	734.1669	759.0313	828.7313	856.1604	896.3045	924.4082	951.6866	978.7299	1023.4688	1043.9496	1051.4951	1076.0393	1103.0281	1108.9641	1122.8869	1155.5918	1161.0621	1181.3007	1222.8332	1277.1009	1278.4083	1309.0269	1313.6011	1343.6034	1384.9648	1411.2342	1456.7745	1512.2583	2996.7102	3116.5501	3127.9942	3137.0567	3175.5575	3183.5521	3208.0633	3801.3471	3813.3799
OC1C2C1N1CC1C2O	O[C@H]1[C@H]2[C@@H]1N1C[C@H]1[C@H]2O	
InChI=1S/C6H9NO2/c8-5-2-1-7(2)4-3(5)6(4)9/h2-6,8-9H,1H2	InChI=1S/C6H9NO2/c8-5-2-1-7(2)4-3(5)6(4)9/h2-6,8-9H,1H2/t2-,3-,4-,5+,6-,7?/m0/s1
