23
gdb 90942	2.76449	1.63137	1.46827	0.0517	87.1	-0.2532	0.0799	0.3331	1045.6191	0.210508	-351.182188	-351.174795	-351.17385	-351.213572	31.463	
C	-0.6190269471	 1.3969795926	 0.125241858	-0.417505
C	 0.0514300264	 0.0294342085	-0.0387104642	 0.058596
C	 0.819953826	-0.0854262151	-1.387962632	-0.242294
C	 2.1916375214	-0.7285783581	-1.2347570239	-0.028436
C	 2.4825750989	-1.7167556795	-0.1266918613	-0.051579
C	 1.4346301248	-1.8052620837	 0.9723893821	-0.233476
C	 0.9943618289	-0.3317434042	 1.133341266	-0.027424
C	 2.3327150928	 0.4395218582	 1.0259341594	-0.22793
C	 3.0676900029	-0.3169099711	-0.073709209	-0.048914
H	 0.1173916282	 2.2079720497	 0.1478017982	 0.115261
H	-1.3011747537	 1.5995417631	-0.7076708958	 0.110406
H	-1.2004881382	 1.4464058764	 1.0526453152	 0.106805
H	-0.7476522375	-0.7230583961	-0.0338275781	 0.065605
H	 0.223021506	-0.6473796719	-2.1154488347	 0.095111
H	 0.9543146207	 0.914634609	-1.8216896244	 0.093631
H	 2.7119189752	-0.9142525822	-2.1703353635	 0.073307
H	 3.1042223964	-2.5784766713	-0.3430112081	 0.072128
H	 0.591897884	-2.4627156057	 0.7292365536	 0.087402
H	 1.89223873	-2.1839021639	 1.8947938589	 0.088911
H	 0.4847963948	-0.1520233579	 2.0849016997	 0.055365
H	 2.1910728182	 1.5026427597	 0.8021665384	 0.091935
H	 2.8912029723	 0.3794882428	 1.9677751422	 0.09202
H	 4.1240654586	-0.1349573295	-0.2370155666	 0.071078
105.7003	248.5559	271.3567	326.9508	356.3179	414.2135	443.0886	527.0512	607.5931	641.5148	744.6297	766.4824	787.6608	827.006	878.5505	901.7972	911.8301	916.481	957.2305	976.2924	1005.6782	1023.4202	1036.8587	1058.2787	1075.7774	1081.2733	1097.8766	1125.2649	1139.4151	1173.9801	1180.5027	1193.79	1244.7809	1264.8563	1295.8229	1314.3334	1331.698	1336.7694	1341.5938	1353.7194	1379.7442	1388.5636	1409.143	1441.117	1489.6685	1496.0206	1499.7906	1500.7984	1512.6939	3005.3913	3012.1778	3021.9694	3024.8923	3030.1584	3051.6871	3060.5525	3061.8192	3067.3531	3091.9031	3095.1693	3139.5434	3162.2394	3174.0292
CC1CC2C3CC1CC23	C[C@H]1C[C@@H]2[C@@H]3C[C@H]1C[C@H]23	
InChI=1S/C9H14/c1-5-2-7-8-3-6(5)4-9(7)8/h5-9H,2-4H2,1H3	InChI=1S/C9H14/c1-5-2-7-8-3-6(5)4-9(7)8/h5-9H,2-4H2,1H3/t5-,6-,7+,8-,9+/m0/s1
