21
gdb 84366	2.24046	1.54874	1.22979	2.3769	79.17	-0.251	0.0043	0.2552	1125.1977	0.180946	-424.236249	-424.226582	-424.225638	-424.269866	37.53	
C	-0.8171982926	 1.1192505962	-0.0722477343	-0.412559
C	 0.0240635204	-0.1527132195	-0.0842997278	-0.031565
C	 1.0828723695	-0.2264671145	-1.2204904417	 0.074603
O	 1.6446278928	 1.0346875999	-1.5987628919	-0.432878
C	 2.1273453632	-1.1516482337	-0.6398875053	-0.128775
C	 1.9873309536	-1.2795169255	 0.6778027101	-0.107311
C	 0.7943560106	-0.5090957634	 1.220837792	 0.338695
C	 1.2421266051	 0.6899036411	 2.0677758946	-0.437704
O	-0.0755457053	-1.3395388801	 1.9985404192	-0.475387
H	-0.1986514654	 2.0172070581	-0.0025356091	 0.115725
H	-1.3977872336	 1.2005148723	-0.9966544133	 0.114468
H	-1.5213271133	 1.1097234454	 0.7654299461	 0.11796
H	-0.641055611	-1.010796919	-0.232599934	 0.095358
H	 0.6367859581	-0.605227626	-2.1460471843	 0.085249
H	 2.2876819427	 1.2790911189	-0.9248165817	 0.276601
H	 2.9174995359	-1.5852106824	-1.2433372588	 0.100077
H	 2.6385151764	-1.8500189781	 1.3340810439	 0.09109
H	 1.8404301927	 1.398384978	 1.4870054004	 0.109138
H	 0.3737259069	 1.2185495002	 2.4703176401	 0.130738
H	 1.8607411506	 0.3543108139	 2.9095442671	 0.103509
H	 0.3410307727	-1.4915802916	 2.8538164586	 0.272969
81.6355	171.8871	227.1475	243.46	250.4691	264.0683	276.4552	306.6603	322.0269	365.9322	391.1432	466.6407	522.9098	590.8104	651.3005	721.7023	747.9429	810.0516	847.9851	928.9998	949.1573	978.673	993.0541	995.6735	1025.9488	1073.5621	1109.3408	1135.5365	1149.3134	1175.1712	1199.9625	1244.6125	1297.8654	1331.866	1348.8002	1363.1214	1383.8323	1402.755	1411.0924	1428.2182	1482.2827	1484.9142	1501.3666	1504.7742	1680.5737	3024.9472	3041.729	3043.6241	3058.9464	3091.3365	3104.4782	3119.4491	3123.5554	3166.9442	3198.7553	3801.4422	3810.3853
CC1C(O)C=CC1(C)O	C[C@H]1[C@@H](O)C=C[C@]1(C)O	
InChI=1S/C7H12O2/c1-5-6(8)3-4-7(5,2)9/h3-6,8-9H,1-2H3	InChI=1S/C7H12O2/c1-5-6(8)3-4-7(5,2)9/h3-6,8-9H,1-2H3/t5-,6-,7-/m0/s1
