19
gdb 99883	2.31008	1.29343	1.04177	2.4856	76.9	-0.2631	0.0376	0.3007	1220.6306	0.156267	-422.962019	-422.952178	-422.951234	-422.996504	36.566	
C	-0.1999264278	 1.5788618473	-0.0497801057	-0.442409
C	-0.1126638036	 0.0396519877	-0.0426397296	 0.021186
C	 0.7990377567	-0.4220509565	 1.1364839164	-0.077153
O	 0.2960568773	-0.0481286554	 2.3988856286	-0.421921
C	-1.4386538663	-0.5538843478	 0.1558711279	 0.318258
C	-2.5109916985	-1.0593684114	 0.3623658653	-0.491327
C	 0.4849500196	-0.5317639988	-1.3319554098	 0.068032
C	 0.4721564692	 0.1558670876	-2.6262599991	-0.18288
O	 1.6629464986	 0.0981269696	-1.8317592822	-0.241654
H	 0.7548720371	 1.9959053811	-0.3810286284	 0.137215
H	-0.994949586	 1.9336982931	-0.7094821759	 0.120037
H	-0.4071650501	 1.9287431085	 0.9629258214	 0.140513
H	 0.9475083873	-1.5103354496	 1.066182085	 0.091829
H	 1.7739917086	 0.061973483	 1.029007837	 0.129052
H	-0.5749984036	-0.4540690778	 2.4887978669	 0.286366
H	-3.467255901	-1.4945528784	 0.5197425786	 0.202895
H	 0.5271450365	-1.6221498049	-1.3435788489	 0.101278
H	 0.4958617839	-0.4320316171	-3.5422369608	 0.119784
H	 0.0227548021	 1.1415184996	-2.7172846168	 0.120898
73.6699	118.0595	144.9585	166.339	212.5787	246.3932	283.2003	318.561	375.7094	406.8278	444.7195	493.9671	531.0067	613.5479	636.003	653.053	713.7189	854.4389	873.3053	921.2661	941.3588	969.0329	1020.8035	1082.8954	1104.5234	1142.2921	1161.2032	1168.1926	1179.879	1204.3708	1271.5122	1311.3475	1381.007	1392.9982	1421.1918	1435.16	1496.2492	1499.9469	1507.0548	1529.2922	2223.475	2988.1288	3053.1904	3093.2724	3094.8538	3100.5923	3129.952	3143.0677	3187.2824	3498.5057	3779.2087
CC(CO)(C#C)C1CO1	C[C@@](CO)(C#C)[C@H]1CO1	
InChI=1S/C7H10O2/c1-3-7(2,5-8)6-4-9-6/h1,6,8H,4-5H2,2H3	InChI=1S/C7H10O2/c1-3-7(2,5-8)6-4-9-6/h1,6,8H,4-5H2,2H3/t6-,7+/m1/s1
