21
gdb 119197	1.89788	1.21642	0.84118	1.6851	86.18	-0.2566	0.0288	0.2854	1473.4245	0.178669	-387.048371	-387.037764	-387.03682	-387.084265	38.494	
C	-0.2071357589	 1.5928336454	-0.0732817622	-0.384621
C	-0.2576376991	 0.0762121949	-0.2703470997	-0.161479
C	 1.0046677916	-0.4724725132	-0.9507285043	-0.275788
C	 0.9520320362	-1.9780073863	-1.1502969297	 0.165728
O	 0.030460808	-2.4484327513	-2.1600859067	-0.287177
C	 1.4244128913	-2.659227522	-2.3842349447	 0.037788
C	 2.0636125996	-1.9795927631	-3.5672242583	-0.429201
C	 0.9511461123	-2.7535358749	 0.0736444688	 0.3212
C	 0.9695702111	-3.3786199645	 1.1006537077	-0.444628
H	 0.6423472917	 1.8847197455	 0.5545884595	 0.113405
H	-0.1048720823	 2.1163070033	-1.0306679691	 0.113232
H	-1.1182193563	 1.9596078954	 0.4092889167	 0.114229
H	-0.3900866111	-0.4210927382	 0.6973172159	 0.111179
H	-1.1276980087	-0.1939652125	-0.8799124656	 0.113642
H	 1.1352036359	 0.0168514901	-1.919902862	 0.102306
H	 1.8891667013	-0.2337555477	-0.3466374053	 0.10554
H	 1.7282060201	-3.6994681516	-2.2503536338	 0.094236
H	 1.7278423176	-0.9482392277	-3.6838506748	 0.131708
H	 3.1542167724	-1.9884756922	-3.4675622301	 0.127521
H	 1.8078043241	-2.522039543	-4.4835910838	 0.133552
H	 0.9781549731	-3.9379087265	 2.0034859216	 0.197627
67.3578	82.1606	122.868	139.5551	163.7228	171.9259	245.1974	274.5532	319.3701	363.545	403.3449	493.7371	548.3238	578.906	618.7668	659.0516	710.0988	744.2276	795.4727	874.4842	890.2933	928.1151	993.238	996.9862	1052.2289	1087.7793	1113.5934	1138.8004	1176.6105	1231.5047	1275.3354	1298.6257	1329.2287	1346.4945	1391.5443	1406.6829	1412.4025	1450.6053	1469.0542	1486.511	1493.734	1499.6497	1501.8647	1510.3382	2233.4081	3027.3506	3030.6687	3040.1319	3041.7973	3066.5414	3088.4087	3089.6452	3101.5269	3102.3211	3103.0299	3142.2994	3501.3877
CCCC1(OC1C)C#C	CCC[C@]1(O[C@H]1C)C#C	
InChI=1S/C8H12O/c1-4-6-8(5-2)7(3)9-8/h2,7H,4,6H2,1,3H3	InChI=1S/C8H12O/c1-4-6-8(5-2)7(3)9-8/h2,7H,4,6H2,1,3H3/t7-,8+/m0/s1
