20
gdb 111956	3.22193	1.18455	0.92387	3.5305	83.02	-0.2235	-0.0023	0.2212	1318.6603	0.171582	-399.36115	-399.351716	-399.350771	-399.395768	33.963	
C	 0.0112771682	 1.5684611064	 0.0186009344	-0.386935
C	 0.0188919496	 0.0394897441	 0.0271374701	-0.162793
C	-1.3922781586	-0.5641760545	-0.0163828318	-0.047547
N	-2.0898154814	-0.2684647978	-1.2834183418	-0.266497
C	-2.4136761879	-1.3989816375	-1.7739123358	 0.054406
N	-2.0596792306	-2.5242707159	-1.0360088146	-0.085135
C	-2.2872831938	-3.9041971593	-1.3875197969	-0.35623
C	-1.387988535	-2.0876908915	 0.1076855729	 0.353237
N	-0.8690419584	-2.7628573661	 1.0519645443	-0.560152
H	 1.0316282813	 1.9637676487	 0.0253003766	 0.108585
H	-0.5006545446	 1.9490539406	-0.8690614605	 0.13819
H	-0.5058588335	 1.964894611	 0.8996851518	 0.111982
H	 0.5851307217	-0.3403944955	-0.8319321539	 0.095358
H	 0.510127623	-0.3478490143	 0.9260804126	 0.123398
H	-1.9788948723	-0.1387834845	 0.8086932195	 0.114694
H	-2.9410720637	-1.5356601182	-2.7141282609	 0.128582
H	-2.8321388733	-3.9502509137	-2.3325962232	 0.143335
H	-1.3407455496	-4.445628163	-1.5062316572	 0.1421
H	-2.8823270717	-4.4142836187	-0.6206355363	 0.142898
H	-0.9838321895	-3.7683982805	 0.9172024909	 0.208524
72.1128	107.48	111.676	143.608	188.5147	231.2954	284.8995	304.3272	339.841	494.6899	575.7394	612.5132	701.4066	732.0085	774.4423	844.5648	872.5694	921.837	945.1822	950.852	1001.9659	1059.5278	1078.8918	1122.1722	1140.1243	1153.4888	1242.4797	1253.9332	1268.5746	1305.5579	1319.5773	1326.8625	1372.4063	1410.2247	1416.9596	1463.9447	1477.7443	1484.3244	1495.6947	1509.3956	1521.9114	1683.4569	1741.9034	3017.8703	3021.802	3034.9694	3037.8603	3069.0903	3080.1038	3101.25	3123.5142	3129.784	3177.18	3461.4674
CCC1N=CN(C)C1=N	CC[C@H]1N=CN(C)[C]1[NH]	
InChI=1S/C6H11N3/c1-3-5-6(7)9(2)4-8-5/h4-5,7H,3H2,1-2H3	InChI=1S/C6H11N3/c1-3-5-6(7)9(2)4-8-5/h4-5,7H,3H2,1-2H3/t5-/m1/s1
