19
gdb 113643	3.05145	1.04898	0.84204	3.267	79.93	-0.2473	-0.0734	0.1739	1385.4656	0.157938	-419.192115	-419.182668	-419.181724	-419.226812	34.023	
C	-0.2285172159	 1.4844905913	-0.3782811372	-0.386349
C	-0.105053966	-0.0334670628	-0.2059678772	-0.192177
C	 0.829737326	-0.6732565658	-1.2110818213	 0.023561
C	 0.7892525075	-2.1490754316	-1.4854389357	-0.28007
N	 0.3874450904	-1.1816986901	-2.4993366152	-0.08428
C	-0.8791750741	-1.104423778	-3.048883156	 0.237054
N	-1.6173148936	-0.0654943871	-3.017130032	-0.482407
C	-1.2658180525	-2.3480152088	-3.830293415	 0.11879
O	-2.3200281894	-2.4419109138	-4.4033729739	-0.239679
H	 0.7510482198	 1.9702273234	-0.3047193057	 0.107347
H	-0.6648962031	 1.7191232863	-1.3512831097	 0.160909
H	-0.8679458618	 1.909535594	 0.4012369395	 0.110592
H	 0.2875469919	-0.2646317666	 0.7932104639	 0.101973
H	-1.0929994932	-0.4995630173	-0.2731355365	 0.109986
H	 1.8110831714	-0.2024985812	-1.2710211571	 0.103222
H	 1.7029520654	-2.7019152063	-1.6863150869	 0.127625
H	 0.005002701	-2.7175061536	-0.9885336849	 0.127355
H	-2.4476692357	-0.252237565	-3.5867268348	 0.239211
H	-0.5123132381	-3.1621564171	-3.8457512044	 0.097337
61.0396	114.7594	131.4389	155.4894	195.7856	241.5222	261.5213	310.4512	380.5864	437.1616	508.2005	574.7935	619.7128	768.6415	801.5343	847.4616	892.4206	918.696	967.746	986.6828	1035.8387	1041.6285	1067.536	1104.0891	1123.0323	1141.3834	1168.8703	1198.0597	1293.5732	1304.5387	1343.2854	1384.9739	1409.4606	1421.8397	1456.4302	1474.5009	1497.2139	1512.6101	1516.4862	1689.8773	1825.4158	2925.9267	3023.7498	3036.8502	3078.5631	3096.8207	3101.3337	3111.9965	3139.4469	3187.4483	3438.5163
CCC1CN1C(=N)C=O	CC[C@H]1CN1[C]([NH])C=O	
InChI=1S/C6H10N2O/c1-2-5-3-8(5)6(7)4-9/h4-5,7H,2-3H2,1H3	InChI=1S/C6H10N2O/c1-2-5-3-8(5)6(7)4-9/h4-5,7H,2-3H2,1H3/t5-,8?/m0/s1
