19
gdb 92322	2.26917	1.73054	1.07815	1.1491	79.25	-0.228	0.005	0.233	1132.0158	0.15907	-422.998982	-422.990515	-422.989571	-423.031947	32.296	
C	-0.2126566191	 1.4039372587	-0.0875061878	-0.502196
C	-0.0998478044	-0.0715527699	 0.124259464	 0.138919
C	-1.0439399226	-0.9772850459	 0.3733993372	 0.063253
C	-2.4400786989	-1.3490042518	-0.091538029	 0.06994
O	-3.1805115097	-0.4420921854	-0.8597635499	-0.422994
C	-1.7356801043	-2.5909812075	-0.7767453958	-0.301084
C	-0.5123245509	-2.3609700437	 0.1786622124	 0.096575
O	 0.817398	-2.215952219	-0.2910576677	-0.279318
C	 1.2005605694	-0.8464120356	-0.0808148039	-0.14708
H	 0.2410230466	 1.7100280111	-1.0389570695	 0.123275
H	-1.2582678563	 1.7216755262	-0.0783235454	 0.139349
H	 0.3125557545	 1.9604261556	 0.6993457713	 0.135458
H	-3.1045464859	-1.6736814233	 0.7144841345	 0.105565
H	-2.6103358167	-0.1327661397	-1.5725241622	 0.280562
H	-2.2559164377	-3.5503898327	-0.7264444094	 0.104713
H	-1.4666254692	-2.356237573	-1.8098983443	 0.107346
H	-0.5394658275	-3.039253648	 1.0418915397	 0.078644
H	 1.739522572	-0.4868140449	-0.9687674097	 0.106489
H	 1.8946343805	-0.7740374913	 0.7728746157	 0.102584
118.0494	123.1058	171.8887	178.4999	288.1088	313.0336	375.0079	402.7889	438.3975	501.486	630.6369	671.8217	679.3121	753.5803	819.8069	913.1388	934.5676	966.8305	983.3692	1009.2033	1027.2021	1081.1552	1096.2633	1112.064	1120.8379	1156.1219	1172.0529	1195.6873	1229.759	1250.9498	1269.5984	1311.2054	1348.3268	1377.5239	1410.3282	1436.6169	1461.1194	1482.9691	1489.284	1517.8853	1754.7814	2966.0372	3010.3157	3014.7392	3017.9641	3060.0272	3060.6025	3071.1779	3117.951	3130.1397	3800.3488
CC1=C2C(O)CC2OC1	C[C]1[C]2[C@@H](O)C[C@H]2OC1	
InChI=1S/C7H10O2/c1-4-3-9-6-2-5(8)7(4)6/h5-6,8H,2-3H2,1H3	InChI=1S/C7H10O2/c1-4-3-9-6-2-5(8)7(4)6/h5-6,8H,2-3H2,1H3/t5-,6+/m0/s1
