19
gdb 92766	3.37174	1.13701	0.98829	2.3755	76.97	-0.2131	0.0204	0.2334	1255.8158	0.160087	-419.200703	-419.192134	-419.19119	-419.234389	31.92	
C	 0.8802684018	 1.4816759922	-0.1928561522	-0.394974
C	 0.1879063134	 0.1607645834	 0.1537201389	 0.024031
C	 0.1191508949	-0.8365898193	-1.0453564474	-0.173107
N	 1.2003620141	-1.8167673357	-0.8350469978	-0.330098
C	 1.6091794795	-1.6244674412	 0.3634241349	 0.365914
N	 0.9622336223	-0.6534371705	 1.0996518077	-0.339204
C	 2.7193384333	-2.3967742884	 0.9774783243	-0.008052
C	 3.9367562126	-1.7200823534	 1.4603151447	-0.174423
O	 2.9450514593	-2.1822253884	 2.3743076239	-0.235375
H	 1.86137921	 1.2960995211	-0.6430371211	 0.125299
H	 0.2790662954	 2.0518307945	-0.9090348418	 0.121127
H	 1.0207615548	 2.1054853345	 0.6968097282	 0.110653
H	-0.807201667	 0.3643619009	 0.5620552981	 0.082456
H	-0.8441806671	-1.3620964548	-1.0717664188	 0.108362
H	 0.2378966462	-0.3287969173	-2.0085316137	 0.104161
H	 1.4071773143	-0.2535309404	 1.9113558713	 0.245114
H	 2.8013679333	-3.426029613	 0.6370075138	 0.122687
H	 4.8785808237	-2.2656779288	 1.4697983424	 0.128462
H	 4.0217552751	-0.6386343855	 1.3659598743	 0.116967
68.521	85.9742	167.7608	185.3592	260.3022	311.8806	362.587	422.0409	458.7894	496.1651	649.7325	709.0224	745.2704	830.2904	866.2406	887.3935	932.8032	944.954	974.9518	997.4711	1024.8844	1058.3416	1090.1418	1123.0055	1132.3674	1151.5852	1167.1937	1227.0846	1250.443	1274.4916	1295.8735	1326.4217	1381.5107	1401.0499	1405.4251	1476.5323	1492.2691	1495.1142	1500.3479	1523.8073	1702.4433	3018.0265	3027.3259	3048.5484	3065.0896	3088.5165	3097.8259	3106.2978	3151.0692	3179.7595	3629.7479
CC1CN=C(N1)C1CO1	C[C@H]1C[N][C](N1)[C@H]1CO1	
InChI=1S/C6H10N2O/c1-4-2-7-6(8-4)5-3-9-5/h4-5H,2-3H2,1H3,(H,7,8)	InChI=1S/C6H10N2O/c1-4-2-7-6(8-4)5-3-9-5/h4-5H,2-3H2,1H3,(H,7,8)/t4-,5+/m0/s1
