18
gdb 114409	3.26488	1.1588	1.12649	4.12	72.52	-0.2418	0.0275	0.2693	1169.2973	0.148008	-439.078009	-439.069734	-439.06879	-439.111351	30.785	
C	-0.2248619055	 1.2525133335	 0.0518425676	-0.239009
O	 0.3492984717	-0.0243196234	-0.1325974007	-0.247641
C	 0.8037442585	-0.6116330256	 1.0534615599	 0.147673
C	-0.2423050587	-1.2060452191	 2.0539001671	-0.282818
C	 0.4191726395	-2.6126495882	 1.8903014078	-0.195246
C	 1.4064921674	-2.0203751331	 0.8272280159	-0.037937
N	 0.7201143223	-2.8315803042	-0.1754130283	-0.306029
C	-0.2193311599	-3.3567246122	 0.7000132647	 0.419134
O	-1.1798205588	-4.0564493243	 0.5316128023	-0.35597
H	 0.4981281871	 1.9619132355	 0.4833250108	 0.10787
H	-0.5329356679	 1.6139002923	-0.9317633423	 0.132286
H	-1.1066208147	 1.2147579526	 0.7076519388	 0.114642
H	 1.5148409332	 0.051708121	 1.5702441388	 0.069175
H	-0.168848423	-0.7958659435	 3.0626529979	 0.110982
H	-1.2838272103	-1.1598414513	 1.7280612086	 0.124925
H	 0.7165587497	-3.1676595637	 2.7763446726	 0.098666
H	 2.4908910757	-2.1317155751	 0.845807973	 0.085558
H	 0.5954288336	-2.6240456813	-1.1573519743	 0.253739
63.5196	110.8426	184.0573	194.9861	229.6484	323.1648	433.9541	449.2288	492.3775	547.603	673.9125	736.5178	785.3517	808.8873	861.1104	894.5816	931.2987	992.4916	1025.0182	1054.3801	1062.6316	1112.7484	1136.2981	1148.2275	1174.2259	1183.8817	1216.7687	1225.6099	1243.0873	1275.8851	1293.9208	1345.0095	1359.9709	1383.4521	1478.2955	1483.756	1487.5792	1508.1269	1892.2326	2975.9298	2983.6009	3032.8529	3072.3183	3106.6303	3120.5343	3126.6954	3154.5115	3590.1808
COC1CC2C1NC2=O	CO[C@H]1C[C@@H]2[C@H]1NC2=O	
InChI=1S/C6H9NO2/c1-9-4-2-3-5(4)7-6(3)8/h3-5H,2H2,1H3,(H,7,8)	InChI=1S/C6H9NO2/c1-9-4-2-3-5(4)7-6(3)8/h3-5H,2H2,1H3,(H,7,8)/t3-,4+,5-/m1/s1
