17
gdb 125863	3.30588	1.65597	1.17223	2.7345	81.27	-0.2176	-0.0149	0.2026	1033.2742	0.139141	-380.90203	-380.89497	-380.894026	-380.933429	27.874	
C	-0.0882378058	 1.5847094332	-0.0187580059	-0.385299
C	 0.0074563875	 0.0484869559	 0.0100425884	-0.209609
C	 0.8667674575	-0.5330046285	-1.1125728566	-0.124134
C	 1.8650312463	-1.2654429157	-0.604648465	-0.031395
N	 1.7668923928	-1.2496656467	 0.79580983	 0.046167
N	 2.4975932619	-1.7987222281	 1.7781236611	-0.299828
C	 1.8709230459	-1.3798637223	 2.8821402304	 0.013698
C	 0.7433538176	-0.564345362	 2.6012677324	-0.397315
C	 0.7098200874	-0.5044461584	 1.223927041	 0.424107
H	 0.9060320518	 2.0350663768	 0.0436532823	 0.131326
H	-0.5639202596	 1.923897855	-0.9440256966	 0.118939
H	-0.6837136085	 1.9491973985	 0.8234279585	 0.12541
H	-1.0099047867	-0.3617486468	-0.0603885223	 0.113601
H	 0.6797408233	-0.3569203312	-2.1615848917	 0.11355
H	 2.6611099547	-1.8183782484	-1.0787786579	 0.144812
H	 2.2475794771	-1.6776273263	 3.8500111696	 0.111473
H	 0.0713123468	-0.1050576851	 3.3075320922	 0.104498
133.096	151.9884	247.476	281.8213	361.4021	476.4967	551.0931	651.2347	668.2181	694.6538	708.0498	759.5023	794.2814	823.1846	880.108	911.1405	915.5625	950.8465	1014.125	1048.2321	1078.1211	1080.2811	1096.9036	1175.5481	1201.8877	1253.4422	1289.8438	1320.478	1338.3144	1402.6895	1406.5645	1417.8366	1455.8488	1495.797	1496.229	1580.9986	1648.6991	3010.2936	3040.3311	3111.9117	3122.5037	3242.8101	3243.0204	3271.0117	3272.1553
CC1C=CN2N=CC=C12	C[C@H]1C=Cn2nccc12	
InChI=1S/C7H8N2/c1-6-3-5-9-7(6)2-4-8-9/h2-6H,1H3	InChI=1S/C7H8N2/c1-6-3-5-9-7(6)2-4-8-9/h2-6H,1H3/t6-/m0/s1
