18
gdb 114505	2.36588	1.84897	1.30041	3.2539	71.85	-0.2452	-0.012	0.2332	1007.0317	0.14878	-439.073958	-439.066174	-439.06523	-439.10631	30.174	
O	 0.4680777659	 1.1640495398	 0.0541642247	-0.422272
C	 0.1258405094	-0.2031694646	 0.1295591438	-0.099264
C	-1.3727122015	-0.4693966877	 0.0565036795	 0.023629
C	-2.3544707948	 0.4379867199	 0.8626851631	-0.274922
C	-3.1934039132	 0.5891195541	-0.4374469405	 0.027734
C	-3.0450814395	 1.8528295422	-1.3152673055	-0.380855
C	-1.7855541105	 1.1436361335	-1.8614636899	 0.401063
O	-0.8239800638	 1.476165592	-2.5055054323	-0.360591
N	-2.0886818839	-0.0737200597	-1.2148280433	-0.151262
H	 0.4263802393	 1.4216306386	-0.8766202289	 0.305458
H	 0.6323182533	-0.7945308823	-0.6470612037	 0.111741
H	 0.4816969759	-0.5690493561	 1.1008688014	 0.113832
H	-1.5475005817	-1.5364650537	 0.2319909422	 0.093415
H	-2.8568064181	-0.0221262067	 1.7150522318	 0.109919
H	-1.8741462708	 1.3686602958	 1.1733670267	 0.132454
H	-4.1594628926	 0.0813606845	-0.449490437	 0.089208
H	-3.8466819289	 2.0166423314	-2.0395776657	 0.137378
H	-2.8203923146	 2.792294829	-0.8061320863	 0.143335
81.4364	156.0285	192.76	254.975	314.7887	346.8873	463.7293	509.1621	591.887	620.2998	628.0624	716.6298	763.4229	824.6198	865.0301	881.424	938.1572	987.5903	997.2802	1035.6656	1051.0553	1078.5811	1109.3643	1122.3567	1165.3473	1182.3656	1215.4175	1232.8402	1247.4125	1256.9314	1310.734	1333.2493	1364.4587	1410.5451	1433.9537	1440.8029	1477.6365	1484.0446	1845.8523	3001.9975	3049.3421	3057.9303	3074.7638	3075.4615	3094.079	3134.359	3138.5824	3747.6951
OCC1CC2CC(=O)N12	OC[C@H]1C[C@H]2CC(=O)N12	
InChI=1S/C6H9NO2/c8-3-5-1-4-2-6(9)7(4)5/h4-5,8H,1-3H2	InChI=1S/C6H9NO2/c8-3-5-1-4-2-6(9)7(4)5/h4-5,8H,1-3H2/t4-,5+/m0/s1
