16
gdb 12406	3.10192	2.07472	1.33866	2.307	60.89	-0.2486	-0.0364	0.2122	889.2237	0.131121	-420.894324	-420.887111	-420.886166	-420.925755	27.346	
O	 0.0102748107	 1.4165780638	 0.0808388875	-0.441448
C	-0.010840117	 0.0218393974	-0.0099226802	 0.051861
C	-1.4400930958	-0.5459897333	 0.0071313767	-0.22874
C	-1.4031685841	-2.0504314645	-0.2590419377	-0.087334
O	-0.8021714004	-2.3352003583	-1.5157190684	-0.240892
C	 0.5555124316	-1.939195978	-1.5835351347	-0.176752
C	 0.7144377723	-0.4578920157	-1.2609470129	 0.35862
O	 1.3612257372	 0.3131266754	-1.9346148497	-0.323447
H	 0.6160222793	 1.7115742272	-0.6177303675	 0.29357
H	 0.5398353967	-0.4311535927	 0.8385597098	 0.090997
H	-1.9125794626	-0.3305776383	 0.9710669673	 0.114759
H	-2.0267719174	-0.0479937021	-0.7720594616	 0.12341
H	-0.8614863677	-2.5741921121	 0.5474583456	 0.093235
H	-2.4126976374	-2.4657451676	-0.3092825014	 0.121983
H	 1.175480197	-2.5239831573	-0.8795128478	 0.109875
H	 0.9083259676	-2.1294895838	-2.598897015	 0.140303
102.9717	157.7585	290.7169	326.9314	352.0331	392.0568	439.8673	442.7221	529.3533	615.8936	691.2837	747.3357	874.3191	914.3616	955.8051	994.5608	1040.9392	1107.8531	1142.5883	1158.174	1176.7797	1193.0086	1258.1518	1287.9061	1302.2156	1337.425	1357.5683	1378.9632	1406.8645	1436.1644	1471.5781	1485.4999	1499.3773	1811.6911	2909.4056	2945.7804	2963.0867	3048.8668	3096.5725	3100.9988	3119.4067	3690.8432
OC1CCOCC1=O	O[C@H]1CCOCC1=O	
InChI=1S/C5H8O3/c6-4-1-2-8-3-5(4)7/h4,6H,1-3H2	InChI=1S/C5H8O3/c6-4-1-2-8-3-5(4)7/h4,6H,1-3H2/t4-/m0/s1
