23
gdb 75601	2.24978	1.49475	1.05026	1.0424	88.39	-0.225	0.0246	0.2496	1244.6239	0.207446	-388.300428	-388.291501	-388.290557	-388.33355	35.145	
C	 0.1306407335	 1.5380920943	-0.015267629	-0.477199
C	 0.0712190563	 0.0328057542	 0.0217855849	 0.335757
C	 0.0356301012	-0.6955634207	-1.1001882169	-0.154311
C	-0.0423410841	-2.2016213312	-1.1825994316	-0.261194
C	-1.4244234739	-2.8092012571	-0.8646053594	-0.06378
O	-1.7968285382	-2.7357799948	 0.4985855792	-0.24951
C	-2.3602278789	-1.5085334383	 0.9401827526	-0.055868
C	-1.4393802342	-0.7701925375	 1.9171484955	-0.19864
C	 0.0040093531	-0.5998587768	 1.3930286567	-0.288763
H	 1.0375718296	 1.9073966406	 0.4813365729	 0.121781
H	 0.1234004134	 1.9217965179	-1.0390736708	 0.117251
H	-0.7162731161	 1.9868972598	 0.5202489804	 0.12071
H	 0.0452231898	-0.1674749949	-2.0523268887	 0.072865
H	 0.2264421752	-2.5214307239	-2.1966499877	 0.093367
H	 0.6847188483	-2.671035465	-0.5083375732	 0.113504
H	-2.1934936336	-2.3418420075	-1.4988302759	 0.088732
H	-1.4024091493	-3.8784150456	-1.105501771	 0.10002
H	-2.58944166	-0.8674720462	 0.0801738491	 0.094747
H	-3.3097194456	-1.7378859964	 1.4429536868	 0.092383
H	-1.8929971758	 0.2054782824	 2.1362543157	 0.093114
H	-1.4000410008	-1.3179193021	 2.865735321	 0.102661
H	 0.4662165107	-1.590942781	 1.3719395726	 0.11285
H	 0.5702221594	 0.0021923999	 2.1135018468	 0.089522
119.6498	159.0304	171.3481	202.8537	247.5323	287.5458	344.0436	376.7173	412.233	482.8191	502.5098	544.6038	615.3192	724.9108	782.2467	847.8881	855.3178	862.0311	927.6104	942.8945	981.9064	1034.5816	1047.7558	1054.2543	1073.8902	1096.3863	1110.0775	1145.1286	1174.082	1218.6183	1260.2031	1271.5331	1306.2956	1315.9023	1343.019	1351.2538	1368.7078	1396.1417	1404.887	1413.8587	1425.8719	1470.1517	1475.9095	1481.9683	1488.0768	1491.0066	1502.2341	1507.0172	1727.3226	2983.368	3004.4855	3011.5115	3021.0517	3024.1001	3037.1782	3047.2598	3055.9821	3059.3468	3062.5847	3069.8745	3091.4329	3108.4355	3134.5876
CC1=CCCOCCC1	CC1=CCCOCCC1	
InChI=1S/C8H14O/c1-8-4-2-6-9-7-3-5-8/h4H,2-3,5-7H2,1H3/b8-4-	InChI=1S/C8H14O/c1-8-4-2-6-9-7-3-5-8/h4H,2-3,5-7H2,1H3/b8-4-
