17
gdb 40448	4.08991	1.231	1.10711	1.2744	67.53	-0.2322	0.0777	0.3099	1103.3685	0.135802	-458.906817	-458.899225	-458.89828	-458.939256	28.8	
C	 0.526834662	 1.4767714829	 0.1998857211	-0.170924
O	 1.1974662337	 0.2908584203	-0.2406190479	-0.234553
C	-0.2030041191	 0.2154534063	 0.0185691312	-0.025161
C	-0.595889036	-0.6449916457	 1.1695874815	 0.405067
C	 0.3426715285	-1.0022750886	 2.3052470457	-0.40643
C	-0.2032772003	-2.0733433748	 1.3768344036	 0.030581
O	-1.3667731359	-2.7659423519	 1.7513151519	-0.255797
C	-2.3204023675	-1.784262088	 2.1108787238	 0.005278
O	-1.9759379126	-0.5763673095	 1.4515311593	-0.303469
H	 0.7781615531	 1.8042278838	 1.2068527395	 0.119809
H	 0.4371440391	 2.2635177091	-0.5467473358	 0.121522
H	-0.8325966967	 0.0988802429	-0.8640575683	 0.103937
H	 1.383083861	-0.7403001371	 2.1464263185	 0.139224
H	-0.0048962526	-0.9423375442	 3.3304229349	 0.123221
H	 0.4387936268	-2.6487411267	 0.7230192463	 0.125801
H	-3.3150780482	-2.1054014389	 1.7859802816	 0.124263
H	-2.3152344454	-1.6296970099	 3.2018999331	 0.097633
71.9183	155.0886	186.2255	231.3548	315.714	370.4872	449.3565	491.2427	648.5836	733.7088	749.9071	834.4843	859.9049	874.7548	910.8649	954.5776	969.3548	998.8465	1020.5184	1057.176	1069.2664	1091.8117	1103.5722	1151.8465	1156.9137	1161.3317	1171.8161	1217.4207	1222.8466	1270.7038	1290.4179	1380.7053	1431.631	1443.4291	1476.9998	1524.2818	1552.7168	2969.1687	3075.4708	3091.983	3109.6413	3138.3762	3184.1643	3206.2366	3233.3249
C1OC1C12CC1OCO2	C1O[C@H]1[C@]12C[C@H]1OCO2	
InChI=1S/C6H8O3/c1-4-6(1,5-2-7-5)9-3-8-4/h4-5H,1-3H2	InChI=1S/C6H8O3/c1-4-6(1,5-2-7-5)9-3-8-4/h4-5H,1-3H2/t4-,5-,6+/m1/s1
