19
gdb 40503	4.27638	1.19949	1.14706	1.6689	79.27	-0.2431	0.0883	0.3313	1127.2404	0.160389	-385.813253	-385.805964	-385.80502	-385.845271	29.096	
C	 0.0946549837	 1.4526156779	-0.0497683585	-0.183844
O	 1.1952884759	 0.5430422278	-0.0908280795	-0.239467
C	-0.1266046913	 0.0039129594	 0.0627557188	-0.06665
C	-0.4358314589	-0.655154082	 1.3490789411	 0.393477
C	 0.0167705713	-0.2378377593	 2.7479569381	-0.298598
C	-0.4319437332	-1.6541798724	 3.1994667835	-0.070185
C	-1.9755985057	-1.6333185871	 3.0169283383	-0.233053
C	-1.689093701	-1.540385059	 1.5198773963	-0.119552
C	-0.3101156729	-2.1271542953	 1.6924250375	-0.127407
H	 0.0358227304	 2.0736971849	 0.8429938038	 0.11244
H	-0.1290805146	 1.9646042066	-0.9851826182	 0.11191
H	-0.4907439847	-0.5188394307	-0.8240514842	 0.085304
H	 1.1025578291	-0.1190438864	 2.7762946337	 0.113786
H	-0.4660085906	 0.6199565595	 3.2324657436	 0.083685
H	 0.0240701645	-2.1344430409	 4.0622523965	 0.072582
H	-2.427099958	-2.596796628	 3.2695831028	 0.10067
H	-2.531821526	-0.825013311	 3.5063446411	 0.088066
H	-2.3745628933	-1.6885973006	 0.6943488989	 0.08359
H	 0.2071840252	-2.9354522233	 1.1963403966	 0.093245
72.7289	157.0281	170.0617	354.4495	379.2048	428.5675	515.9804	620.5051	729.7835	747.6482	801.3636	826.1833	835.7664	861.8819	917.0889	922.559	933.1331	958.6588	989.0532	991.7046	1004.8166	1033.309	1076.3368	1093.4332	1106.5424	1133.9701	1150.1103	1155.4414	1169.9328	1181.0809	1194.817	1231.5812	1257.0157	1277.9763	1283.1765	1326.6553	1372.7244	1464.8767	1494.9635	1510.429	1530.78	3022.4884	3031.7105	3079.2548	3088.2623	3094.2762	3106.0351	3139.9417	3165.7911	3187.9451	3223.452
C1OC1C12CC3CC1C23	C1O[C@H]1[C@@]12C[C@H]3C[C@@H]1[C@@H]23	
InChI=1S/C8H10O/c1-4-2-8(6-3-9-6)5(1)7(4)8/h4-7H,1-3H2	InChI=1S/C8H10O/c1-4-2-8(6-3-9-6)5(1)7(4)8/h4-7H,1-3H2/t4-,5-,6-,7+,8-/m1/s1
