21
gdb 39403	2.36903	2.07754	1.67874	1.2565	80.66	-0.242	0.075	0.317	934.4012	0.186677	-387.058017	-387.051247	-387.050303	-387.088689	29.019	
C	-0.0521399019	 1.5556748743	 0.0811469031	-0.231497
C	 1.5001695206	 1.4685227158	-0.0474364885	-0.051707
C	 2.1868124763	 1.6104406253	 1.319931489	-0.086029
O	 1.3455174623	 1.2843038086	 2.4137644378	-0.248294
C	 0.8709148621	-0.0492450672	 2.5255296136	-0.086092
C	 0.542176588	-0.7907662739	 1.2268295818	-0.041916
C	 1.778107145	-1.1241130594	 0.3329288678	-0.247376
C	 1.3449456878	 0.0051088865	-0.607853744	-0.012567
C	-0.08592603	 0.0163536633	 0.0196956107	-0.025304
H	-0.4570151069	 2.0654255889	 0.9565583851	 0.108878
H	-0.503959748	 1.9751161971	-0.8231587414	 0.090885
H	 1.968531615	 2.1650943547	-0.7478030472	 0.066966
H	 3.1302589283	 1.0417730076	 1.3510078061	 0.089292
H	 2.4396148118	 2.6629566281	 1.4847187508	 0.105972
H	 1.6018485389	-0.6616167413	 3.0816627425	 0.088129
H	-0.0261797779	 0.0292903888	 3.150663979	 0.10458
H	-0.0434021066	-1.6701771402	 1.5109278383	 0.073803
H	 2.7691088301	-1.0803990064	 0.795869066	 0.091882
H	 1.670763862	-2.1015413883	-0.1471486027	 0.09474
H	 1.5173399816	-0.0861967706	-1.6817367039	 0.057378
H	-0.9411786283	-0.4787811717	-0.4439925737	 0.058278
175.6427	268.7611	308.3498	346.4159	375.2817	429.4376	531.3341	640.4304	698.6028	729.8285	753.3026	809.9433	828.526	862.1458	888.7378	923.7762	938.5641	977.3518	994.7075	1015.5262	1034.4752	1068.8358	1080.0274	1095.19	1120.2514	1133.7538	1144.6781	1184.2425	1201.6839	1226.5669	1239.2743	1266.472	1278.8877	1289.3363	1306.2534	1313.5418	1324.399	1334.7365	1351.1569	1395.0346	1420.9467	1481.2539	1486.4532	1499.167	1510.9258	2953.0276	2975.7534	3042.1834	3048.5413	3052.0397	3060.5459	3061.19	3074.0486	3082.9105	3088.9646	3097.2722	3120.869
C1C2COCC3CC2C13	C1[C@H]2COC[C@@H]3C[C@H]2[C@H]13	
InChI=1S/C8H12O/c1-5-3-9-4-6-2-8(5)7(1)6/h5-8H,1-4H2	InChI=1S/C8H12O/c1-5-3-9-4-6-2-8(5)7(1)6/h5-8H,1-4H2/t5-,6-,7+,8+/m0/s1
