21
gdb 114704	3.6419	1.11315	1.03717	2.518	78.94	-0.2406	0.0845	0.3251	1271.3173	0.181555	-424.219037	-424.209979	-424.209035	-424.252661	34.306	
C	 0.4778911171	 0.7861437424	-0.5043013328	-0.235682
O	-0.1000318443	-0.3754973498	 0.03808189	-0.235192
C	-1.5059396697	-0.3031737528	 0.195863768	 0.127259
C	-2.2823474103	-0.5213969705	-1.1366287188	-0.271054
C	-2.6676383303	-1.9850586337	-1.124508391	-0.003927
O	-1.5662471706	-2.8607940827	-0.8491965336	-0.291179
C	-2.4784113037	-2.5515610427	 0.2196076752	 0.416582
C	-3.2551254281	-3.7072847205	 0.7882059278	-0.486884
C	-1.9425877129	-1.4564840002	 1.1289047387	-0.300557
H	 1.559588402	 0.6312865972	-0.51874587	 0.12787
H	 0.1434782641	 0.9888841863	-1.5332506379	 0.102386
H	 0.2536065016	 1.6758516826	 0.1069968568	 0.098675
H	-1.7601417699	 0.6742455512	 0.6334353032	 0.060875
H	-3.1870143521	 0.0979645611	-1.1703975663	 0.098155
H	-1.6700331233	-0.2581066893	-2.0039759893	 0.115533
H	-3.4065152363	-2.3699065879	-1.8250993982	 0.084029
H	-3.5928076852	-4.3730464986	-0.0099409257	 0.128699
H	-2.6330393537	-4.2907713564	 1.4759883981	 0.128074
H	-4.1294670937	-3.3549007146	 1.3460999206	 0.117867
H	-1.0938521362	-1.7878307404	 1.7333422245	 0.121619
H	-2.7356430445	-1.1261803407	 1.8098677207	 0.096852
81.5138	122.603	168.6293	199.3724	229.4164	283.2928	308.9412	370.0205	384.8874	442.2916	469.8787	608.578	696.8624	772.7079	805.3679	852.5352	878.8005	915.7612	950.5914	964.886	1001.7442	1023.5769	1055.9383	1095.9828	1117.495	1149.353	1183.3137	1195.5436	1213.47	1229.0373	1252.0804	1268.3632	1313.7542	1332.8682	1352.9037	1395.5588	1412.7831	1455.3121	1462.9547	1474.0742	1479.7159	1489.0284	1491.5328	1502.6244	1511.1413	2965.1873	2977.467	3012.7553	3033.0491	3038.5751	3045.854	3093.0852	3094.2548	3102.6913	3112.1288	3121.6651	3129.6139
COC1CC2OC2(C)C1	CO[C@H]1C[C@H]2O[C@@]2(C)C1	
InChI=1S/C7H12O2/c1-7-4-5(8-2)3-6(7)9-7/h5-6H,3-4H2,1-2H3	InChI=1S/C7H12O2/c1-7-4-5(8-2)3-6(7)9-7/h5-6H,3-4H2,1-2H3/t5-,6+,7-/m0/s1
