18
gdb 55384	2.30818	1.6133	1.05716	4.9866	74.01	-0.2321	0.0034	0.2354	1139.671	0.148655	-439.134365	-439.125885	-439.124941	-439.167979	31.391	
C	-0.337292795	 1.4923620459	 0.0993092936	-0.489917
C	-0.1124833304	 0.0186711566	 0.0038850969	 0.340774
C	 0.0462898755	-0.7293025773	-1.0871932023	-0.180154
C	 0.2043643117	-2.1871532404	-0.7657406617	-0.210502
N	 0.2593146159	-2.2084543768	 0.7161748251	-0.340497
H	-0.350056107	-2.9154779564	 1.1047672116	 0.238195
H	 1.8163547919	-1.9762593702	 1.7020988758	 0.302251
C	-0.0561547479	-0.8634335195	 1.2404996054	-0.229417
C	 1.0373337605	-0.3963408706	 2.2315444426	 0.424823
O	 2.0664518027	-1.2411572476	 2.3136691019	-0.363006
O	 0.9613272824	 0.6333846987	 2.8499865522	-0.348507
H	 0.3950551941	 1.9587797485	 0.7644308277	 0.164694
H	-0.2847181619	 1.9632892218	-0.8853867992	 0.120368
H	-1.3227200283	 1.7073449137	 0.5313621169	 0.131127
H	 0.0511643959	-0.3571722349	-2.1046188791	 0.102634
H	-0.6362550107	-2.7835904202	-1.151350872	 0.110149
H	 1.1181976251	-2.6199146868	-1.1952463601	 0.119174
H	-1.0056300245	-0.8243063345	 1.7935038446	 0.10781
54.8704	121.1031	165.1872	190.642	239.1356	318.5688	333.1974	430.1634	497.3787	601.9139	610.3583	699.0902	731.3934	809.8792	835.089	897.1177	934.3145	944.301	956.2685	976.598	1040.2577	1042.4187	1076.5435	1107.5903	1187.842	1206.7974	1220.5323	1262.4077	1294.152	1311.0493	1368.1221	1420.7166	1429.3978	1448.5326	1473.4485	1488.0496	1519.4388	1730.1073	1860.0572	2987.6972	3003.3571	3016.9781	3030.884	3091.8075	3128.0587	3207.8566	3375.5911	3575.9155
CC1=CC[NH2+]C1C([O-])=O	CC1=CCN[C@H]1C(=O)O	
InChI=1S/C6H9NO2/c1-4-2-3-7-5(4)6(8)9/h2,5,7H,3H2,1H3,(H,8,9)	InChI=1S/C6H9NO2/c1-4-2-3-7-5(4)6(8)9/h2,5,7H,3H2,1H3,(H,8,9)/t5-/m1/s1
