19
gdb 33139	3.35318	1.07786	0.85237	1.2867	80.36	-0.1728	0.0523	0.2251	1365.0407	0.160252	-419.22375	-419.214434	-419.21349	-419.257873	34.528	
C	 0.0415987992	 1.3962895616	-0.884579209	-0.220586
O	-0.0656467893	 0.0017978856	-1.0438530591	-0.237425
C	 0.927613976	-0.709927374	-0.3039382807	-0.213704
C	 0.7989284759	-2.1679160004	-0.5751926443	 0.245437
C	 0.6702342128	-3.187250386	 0.3436126609	-0.182271
N	 0.6411501199	-4.3700075327	-0.3343302613	-0.245961
C	 0.7314146533	-4.1334687521	-1.6951504842	-0.162623
C	 0.8350856567	-2.771785704	-1.8721992823	 0.170213
N	 1.0094850606	-2.0467090568	-3.0648415696	-0.619208
H	-0.0992751948	 1.6977905221	 0.1657017227	 0.102725
H	 1.0211667899	 1.7746246331	-1.2185084213	 0.103637
H	-0.741760077	 1.8584561598	-1.4906613779	 0.123319
H	 1.922072496	-0.3357420384	-0.6047406516	 0.094963
H	 0.81622822	-0.5035323872	 0.7729148278	 0.088024
H	 0.6056206478	-3.1530632401	 1.4197818068	 0.113197
H	 0.5484430547	-5.2764009159	 0.0859572252	 0.257906
H	 0.7116538785	-4.9426696962	-2.4067760823	 0.102776
H	 0.7087636536	-2.5614650496	-3.8825264328	 0.231254
H	 0.508423056	-1.1666913688	-3.0152476669	 0.248328
75.8822	106.6698	127.353	227.8825	248.9239	276.9175	311.9624	330.6791	361.9159	416.7181	439.1639	621.8485	625.4212	665.5095	712.7929	740.5837	782.1735	827.0987	905.4055	965.8031	1010.4675	1077.9768	1098.4046	1132.4158	1153.9648	1183.3567	1216.7367	1239.2035	1253.0992	1289.8209	1351.5622	1415.0101	1442.9857	1477.7114	1482.3723	1484.7797	1500.9299	1518.9162	1572.3342	1639.6408	1659.3051	2942.8232	2967.9048	2984.9383	3010.6815	3110.1963	3255.679	3262.9282	3520.057	3614.2714	3701.2589
COCC1=CNC=C1N	COCc1c[nH]cc1N	
InChI=1S/C6H10N2O/c1-9-4-5-2-8-3-6(5)7/h2-3,8H,4,7H2,1H3	InChI=1S/C6H10N2O/c1-9-4-5-2-8-3-6(5)7/h2-3,8H,4,7H2,1H3
