19
gdb 110244	2.27902	1.31747	0.95291	3.1112	76.72	-0.2395	0.0108	0.2502	1259.4616	0.158286	-422.972106	-422.963022	-422.962078	-423.006892	33.423	
C	-0.1049604758	 1.5597985716	 0.1665789283	-0.448815
C	-0.0184125393	 0.036120624	 0.1705938194	 0.045387
C	 0.9892208741	-0.7332695752	-0.7632500274	-0.224462
C	 2.1361405759	-0.5036927144	 0.2994595099	 0.014547
C	 2.9583767898	 0.7849875011	 0.4572982282	-0.132108
O	 4.1662907557	 0.5181292343	 1.1569492359	-0.412551
C	 0.8627060194	-0.8090017825	 1.1770525603	-0.226378
C	 0.6453190129	-1.9266690406	 0.1439215583	 0.45257
O	 0.3659264412	-3.0830611935	 0.0810551402	-0.325257
H	 0.8308612082	 2.0649850994	-0.0665307089	 0.130951
H	-0.8320160225	 1.8699597901	-0.591253822	 0.125709
H	-0.4654083053	 1.9325740439	 1.1315443556	 0.124517
H	-1.0399568044	-0.3546070361	 0.1061539428	 0.092738
H	 1.0654598313	-0.6905603397	-1.84833545	 0.090971
H	 2.8754617697	-1.3121041686	 0.2966501087	 0.102269
H	 3.2680138682	 1.154057244	-0.5263202923	 0.120297
H	 2.4022909858	 1.5837799871	 0.9561162645	 0.100381
H	 3.9390143754	 0.2934665856	 2.0650360194	 0.283987
H	 0.7858334297	-0.8522925906	 2.2626284893	 0.085246
30.1163	101.8622	136.0701	201.2005	244.2467	265.1698	319.5759	351.7981	393.9302	505.9439	545.8696	687.1305	714.002	729.5057	757.535	825.1685	873.239	964.1986	1005.8453	1028.834	1051.3023	1059.8344	1076.6081	1085.6692	1100.7627	1106.335	1136.8655	1181.5306	1187.789	1220.0938	1252.1475	1269.1029	1356.3779	1408.3426	1413.1784	1419.9719	1448.8127	1493.8223	1500.6815	1513.718	1918.4475	3036.2936	3040.1651	3045.5898	3050.0239	3088.3871	3095.3401	3129.0378	3138.1943	3158.8244	3814.9331
CC1C2C(CO)C1C2=O	C[C@H]1[C@H]2[C@@H](CO)[C@@H]1C2=O	
InChI=1S/C7H10O2/c1-3-5-4(2-8)6(3)7(5)9/h3-6,8H,2H2,1H3	InChI=1S/C7H10O2/c1-3-5-4(2-8)6(3)7(5)9/h3-6,8H,2H2,1H3/t3-,4+,5-,6+
