16
gdb 15501	3.6428	1.89129	1.29028	5.0653	67.04	-0.2473	-0.0221	0.2252	916.7054	0.132909	-379.971871	-379.964704	-379.96376	-380.003433	26.482	
N	-0.1418194933	 1.2890527806	-0.182397833	-0.532611
C	-0.0682050583	 0.0359283756	-0.0389886692	 0.391074
C	-1.2529409044	-0.8939786171	 0.1444929232	-0.282213
C	-0.6467966467	-2.1576113862	 0.7749830871	-0.226244
C	 0.7636225666	-2.2063249617	 0.1666064119	-0.177502
N	 1.0964681201	-0.787566025	-0.0151125783	-0.104208
C	 2.383912071	-0.344379312	-0.1611239492	 0.153708
O	 2.7196238364	 0.8076501971	-0.3354216806	-0.314656
H	 0.788045161	 1.691391099	-0.3066402223	 0.251514
H	-2.0304433117	-0.4168029301	 0.7413336642	 0.138644
H	-1.6819698377	-1.1154553225	-0.8405172271	 0.129923
H	-0.5758554808	-2.0408728106	 1.8609179066	 0.122783
H	-1.2151276135	-3.0662431797	 0.5688598754	 0.115306
H	 1.4970347001	-2.6965585793	 0.8120206947	 0.126009
H	 0.759025822	-2.7264586041	-0.8002015072	 0.121962
H	 3.1148861593	-1.1739660839	-0.0950892761	 0.086513
94.944	159.1104	241.9259	250.2042	263.042	455.0161	484.7565	533.3686	628.3595	705.8611	762.5407	857.7051	896.1848	936.7771	962.9951	1011.7374	1028.497	1049.587	1097.0394	1174.6138	1177.5559	1223.7051	1250.5773	1300.5664	1322.0618	1334.2743	1354.8556	1411.0464	1446.5168	1474.7641	1496.8115	1521.7999	1731.7136	1807.5409	2939.7144	3018.7044	3041.9131	3060.8124	3091.7026	3120.4165	3133.9326	3485.0165
N=C1CCCN1C=O	[NH][C]1CCCN1C=O	
InChI=1S/C5H8N2O/c6-5-2-1-3-7(5)4-8/h4,6H,1-3H2	InChI=1S/C5H8N2O/c6-5-2-1-3-7(5)4-8/h4,6H,1-3H2
