17
gdb 41364	2.91403	1.90197	1.7165	2.6377	66.21	-0.2548	0.052	0.3068	856.8353	0.138947	-458.895329	-458.88911	-458.888166	-458.925652	25.918	
C	 0.0397598462	 1.4968298111	-0.1112254014	-0.191608
O	 1.4838746274	 1.4611520988	 0.1324600598	-0.307242
C	 1.2742596124	 0.2260793526	 0.8675395861	 0.130892
C	 1.7550265282	-1.2095970626	 0.6633628423	 0.131535
O	 0.6207425919	-1.8645351593	 1.2813075066	-0.299918
C	-0.607819948	-1.1207867421	 0.9320972044	-0.162654
C	 0.0042773304	-0.0367940101	 0.0630913906	 0.162545
C	 0.5951820402	-0.7405196345	-1.1915869496	-0.092688
O	 1.763854806	-1.4375604701	-0.7111187175	-0.244896
H	-0.4784342864	 2.0574619173	 0.6762822444	 0.113551
H	-0.2001658527	 1.9105608743	-1.0938966144	 0.119189
H	 1.1255451489	 0.4404385154	 1.9314124772	 0.095697
H	 2.6604946446	-1.602495029	 1.1203821888	 0.100133
H	-1.2892966619	-1.8100092093	 0.4241546509	 0.111433
H	-1.0763104024	-0.7484978541	 1.8491548903	 0.111109
H	-0.113327788	-1.4630825764	-1.6127560801	 0.105129
H	 0.8992867332	-0.0379653421	-1.9713711285	 0.117791
197.0176	285.6755	334.042	372.9298	432.9842	494.7811	617.3474	637.2481	727.2697	820.2019	844.9563	862.6615	879.1346	893.3211	947.9318	968.053	990.2732	994.6119	1017.7497	1028.7344	1081.1484	1112.4487	1141.9887	1160.2016	1199.1815	1208.6212	1256.3312	1266.9257	1280.8828	1316.4393	1328.7805	1354.6368	1376.3071	1398.8793	1509.8813	1516.7658	1531.2886	3028.7429	3034.5582	3038.6957	3053.1251	3087.6523	3094.1661	3103.9496	3161.9898
C1OC2C3OCC12CO3	C1O[C@@H]2[C@H]3OC[C@@]12CO3	
InChI=1S/C6H8O3/c1-6-2-8-5(9-3-6)4(6)7-1/h4-5H,1-3H2	InChI=1S/C6H8O3/c1-6-2-8-5(9-3-6)4(6)7-1/h4-5H,1-3H2/t4-,5-,6+/m1/s1
