18
gdb 75246	3.81896	1.22644	1.07177	2.5058	73.81	-0.2436	0.0284	0.272	1163.2553	0.147704	-439.083605	-439.075357	-439.074413	-439.116548	30.927	
C	 0.0461856816	 1.4729943736	 0.0684806658	-0.45194
C	-0.0426449444	-0.018264037	-0.0682711579	 0.40677
N	-0.0899744254	-0.5874006079	-1.2001065024	-0.311718
C	-0.1079521578	-2.0437030912	-1.2743972095	-0.22327
C	 0.2570012977	-2.7174367727	 0.0297492115	 0.359603
C	 0.6376716561	-4.1291598223	 0.1116390814	-0.241653
O	 1.6312745029	-3.1055768977	 0.1882335291	-0.268251
C	-0.3431355955	-2.0056379467	 1.2126515022	-0.136061
O	-0.0515143676	-0.6044776106	 1.1662858368	-0.259355
H	 0.9406826152	 1.7438572704	 0.6382873707	 0.141969
H	 0.0862337455	 1.9285813988	-0.9197633631	 0.144899
H	-0.8173364591	 1.8571467713	 0.6208782685	 0.13545
H	-1.1066071719	-2.3672027444	-1.6006036385	 0.112793
H	 0.5953630169	-2.3622994002	-2.0511814519	 0.123698
H	 0.4662037564	-4.6886702411	 1.0314302428	 0.11235
H	 0.6506992314	-4.731527899	-0.7964141626	 0.117554
H	-1.4336867934	-2.1401877697	 1.2264288114	 0.1118
H	 0.0748472914	-2.3764003637	 2.1506860056	 0.125362
78.9747	135.318	155.4986	247.6341	275.6759	335.2722	360.0477	407.9253	468.1556	553.888	610.5412	674.8877	771.0488	817.3936	883.7963	919.4773	946.3818	961.8369	984.9832	1055.5079	1074.856	1085.6856	1123.0545	1127.8998	1175.6423	1228.3246	1242.0772	1279.7902	1308.4759	1338.0502	1380.4835	1408.6423	1452.5683	1468.7531	1476.5013	1477.2423	1493.3822	1534.2905	1756.049	3006.3518	3015.3787	3048.7158	3066.7052	3074.864	3106.0989	3112.6986	3158.6149	3169.0221
CC1=NCC2(CO2)CO1	CC1=NC[C@]2(CO2)CO1	
InChI=1S/C6H9NO2/c1-5-7-2-6(3-8-5)4-9-6/h2-4H2,1H3	InChI=1S/C6H9NO2/c1-5-7-2-6(3-8-5)4-9-6/h2-4H2,1H3/t6-/m1/s1
