16
gdb 133568	3.02982	1.26236	1.26073	2.3635	60.95	-0.2725	0.079	0.3515	1044.2491	0.121892	-532.229037	-532.221451	-532.220506	-532.262126	28.871	
F	 0.5683442287	 0.2037729761	-0.0453934892	-0.079431
C	-0.0222175234	 1.409675269	-0.0137722461	 0.266986
F	 0.9188784437	 2.3155651588	-0.3351066874	-0.078456
F	-0.9340249737	 1.4256414856	-1.002667375	-0.078462
C	-0.662561222	 1.7558567383	 1.3022195768	-0.157445
C	-1.451266817	 0.8484043187	 2.2026964702	-0.080255
C	-0.8443606534	-0.5560338472	 2.3418172099	-0.230098
C	 0.4967230362	 0.0849036768	 2.826455243	-0.230013
C	-0.130727255	 1.4795031934	 2.6796282303	-0.080285
H	-1.1056926361	 2.7455232911	 1.2195503819	 0.118267
H	-2.4680932878	 1.1121367514	 2.4685929219	 0.094514
H	-1.3317286222	-1.12376317	 3.1368607134	 0.105986
H	-0.81132436	-1.1709884194	 1.4413798196	 0.114103
H	 0.7027843986	-0.1510477452	 3.8723095657	 0.105968
H	 1.3926377296	-0.1179332145	 2.2380629329	 0.114106
H	 0.022207674	 2.3023050471	 3.367961262	 0.094517
30.8521	173.7531	201.6646	293.3132	294.8526	424.6107	443.2122	530.2029	577.7175	703.2502	749.4035	762.2706	795.6949	806.38	847.1022	950.9967	962.1167	966.6513	1023.3165	1031.9248	1083.2871	1113.8693	1126.8644	1141.7862	1179.2395	1184.7978	1227.0558	1249.5264	1268.5909	1306.5784	1307.3757	1361.4481	1470.0149	1483.9045	1508.6979	3074.3153	3081.6537	3120.3468	3136.4505	3147.0456	3175.4269	3186.9447
FC(F)(F)C1C2CCC12	FC(F)(F)[C@H]1[C@H]2CC[C@@H]12	
InChI=1S/C6H7F3/c7-6(8,9)5-3-1-2-4(3)5/h3-5H,1-2H2	InChI=1S/C6H7F3/c7-6(8,9)5-3-1-2-4(3)5/h3-5H,1-2H2/t3-,4+,5-
