27
gdb 100760	2.67935	0.86488	0.79039	1.328	92.38	-0.2597	0.0713	0.331	1676.6855	0.24935	-390.705709	-390.69367	-390.692726	-390.742776	44.623	
C	-0.8534170747	 1.4522574421	 0.4836401142	-0.377997
C	-0.4108587247	 0.0062492702	 0.2425153559	-0.198913
C	 0.4990635133	-0.5369797483	 1.3546677593	 0.123492
O	-0.128184035	-0.3796462855	 2.6302775377	-0.427601
C	 0.9504640167	-2.001287258	 1.1362181182	 0.016301
C	 1.6231437113	-2.2013093589	-0.2325592855	-0.414149
C	 1.8177978683	-2.5125890912	 2.3212181114	 0.047428
C	 1.8568393079	-4.0465918955	 2.3786371343	-0.404674
C	 3.2424557824	-1.9368280737	 2.3341397704	-0.395209
H	 0.0092975878	 2.1276820513	 0.4999898292	 0.113156
H	-1.5296975511	 1.7943147682	-0.3057036012	 0.106265
H	-1.3639193072	 1.5491861949	 1.444729563	 0.125083
H	-1.2928236018	-0.6473258428	 0.1601520899	 0.081389
H	 0.1081747749	-0.0603055876	-0.71913539	 0.10189
H	 1.3882313196	 0.1046108866	 1.4156051135	 0.085156
H	-0.9268320942	-0.92016654	 2.6262954254	 0.273785
H	 0.0288871596	-2.6068613152	 1.1425437636	 0.050516
H	 2.425519962	-1.4737746492	-0.3971483855	 0.117237
H	 2.0630280159	-3.1993700641	-0.3137580446	 0.115
H	 0.9093257088	-2.0970350153	-1.0534489101	 0.115781
H	 1.3152620137	-2.1624888696	 3.2290189397	 0.087092
H	 2.3695958787	-4.4786516958	 1.5116286198	 0.111411
H	 2.3919746466	-4.3866264889	 3.2716986188	 0.109259
H	 0.8476080368	-4.4717079489	 2.4136920131	 0.103814
H	 3.7699111185	-2.2495902265	 3.241251052	 0.109984
H	 3.8296277051	-2.287594577	 1.4783894578	 0.110203
H	 3.2453481808	-0.8426022414	 2.3172872194	 0.1143
48.8296	73.0255	109.2671	158.1409	208.9509	222.9234	234.0016	253.0852	269.3944	277.8477	300.0439	309.92	321.8714	417.4363	429.4303	462.7505	541.7453	571.8067	773.3472	787.7822	853.0885	910.8644	930.3104	946.4431	965.9661	986.798	1012.4549	1021.1928	1062.3588	1090.5455	1099.4008	1142.439	1153.8489	1180.9041	1207.6276	1249.0978	1274.2065	1319.3654	1337.1533	1352.0357	1376.8827	1385.7687	1389.7091	1401.9264	1404.578	1414.7159	1416.6398	1426.7055	1483.3524	1485.8238	1491.5615	1494.7617	1502.0825	1508.0413	1509.6977	1512.4518	1516.1028	2961.3219	2996.187	3023.8254	3027.0703	3032.9878	3037.3621	3041.7424	3050.0344	3073.826	3088.8661	3092.3478	3099.1569	3100.0072	3102.8597	3105.9735	3116.0017	3125.747	3788.1203
CCC(O)C(C)C(C)C	CC[C@@H](O)[C@@H](C)C(C)C	
InChI=1S/C8H18O/c1-5-8(9)7(4)6(2)3/h6-9H,5H2,1-4H3	InChI=1S/C8H18O/c1-5-8(9)7(4)6(2)3/h6-9H,5H2,1-4H3/t7-,8+/m0/s1
