20
gdb 83792	2.34028	1.76791	1.49844	1.283	78.01	-0.2095	0.071	0.2804	1004.0759	0.17271	-403.082702	-403.074803	-403.073858	-403.114881	31.227	
C	-0.0392265917	 1.5982650539	-0.1052024099	-0.431368
C	 0.071393758	 0.0896607984	-0.0134328641	-0.061242
C	 1.3109736991	-0.7464327823	-0.2330078501	 0.097771
O	 2.6021510443	-0.2195302457	-0.3400896102	-0.260051
C	 3.0791227546	 0.6524558541	 0.6869733495	-0.114111
C	 2.6990679646	 0.2109154972	 2.0888617194	-0.03058
C	 1.5794021155	 0.8907746507	 2.8134005314	-0.256119
N	 1.4058616203	-0.4460937692	 2.2728774023	-0.082095
C	 0.6275256989	-0.7953848983	 1.1149497506	-0.063718
H	 0.8561731882	 2.1319334235	 0.2074455642	 0.123149
H	-0.2325345896	 1.8876383762	-1.1440912829	 0.122889
H	-0.8762830445	 1.9661510549	 0.4989576684	 0.121709
H	-0.8099214438	-0.3887520672	-0.4392628493	 0.090154
H	 1.2457749034	-1.6052246753	-0.8931615394	 0.09997
H	 4.1669422418	 0.638561291	 0.5799164279	 0.116937
H	 2.7508194765	 1.6802188957	 0.4884754569	 0.103584
H	 3.5024202222	-0.2412970206	 2.6666106289	 0.094691
H	 1.5877262478	 0.9444187814	 3.8993926672	 0.115037
H	 1.1044739809	 1.7359171075	 2.3245695768	 0.11606
H	 0.0134580735	-1.667118526	 1.3240432624	 0.097334
119.1611	142.1648	193.0511	220.7459	286.9763	390.3863	441.1895	517.7414	536.8372	608.3208	668.426	724.7481	768.3805	799.0739	837.7496	867.2452	933.7329	960.1582	967.7001	1008.788	1034.0937	1083.5924	1088.8785	1116.7684	1130.429	1137.4975	1147.3106	1155.0277	1170.6619	1198.0439	1273.7682	1277.1956	1353.5669	1367.4059	1378.9729	1407.2799	1409.4773	1415.6769	1441.6719	1491.5656	1496.8588	1514.0428	1526.0591	3018.6494	3034.9072	3084.1899	3085.5608	3102.8094	3108.7448	3121.6732	3127.8984	3158.5705	3161.4936	3197.8815
CC1C2OCC3CN3C12	C[C@H]1[C@H]2OC[C@H]3CN3[C@@H]12	
InChI=1S/C7H11NO/c1-4-6-7(4)9-3-5-2-8(5)6/h4-7H,2-3H2,1H3	InChI=1S/C7H11NO/c1-4-6-7(4)9-3-5-2-8(5)6/h4-7H,2-3H2,1H3/t4-,5-,6+,7-,8?/m1/s1
