17
gdb 36058	2.18848	1.4089	1.03488	1.1827	79.06	-0.2559	0.0321	0.288	1187.6708	0.132963	-384.593857	-384.584645	-384.583701	-384.628075	33.898	
C	-0.147746514	-1.1471702782	-0.3655290089	-0.440117
C	-0.0615125554	 0.0263970746	-0.1224280741	 0.314096
C	 0.0597214337	 1.4518869916	 0.1511504715	-0.424231
C	 1.5226514974	 1.9604129468	 0.1203237835	 0.070997
C	 2.1118244452	 1.9775499334	-1.3209517556	-0.106634
O	 1.8474457495	 3.3881550494	-1.4498951978	-0.271015
C	 1.5883219789	 3.5086900002	-0.0410666721	-0.11958
C	 2.3340336787	 1.3743489539	 1.1686820089	 0.284171
C	 3.0127325626	 0.9087477584	 2.0448598673	-0.438703
H	-0.2292711709	-2.1859562297	-0.5699186613	 0.199596
H	-0.5086004487	 2.0194263919	-0.5962499647	 0.143154
H	-0.3764762657	 1.6864239391	 1.1294019711	 0.139771
H	 3.1839616837	 1.7522795228	-1.3591929489	 0.110887
H	 1.5785677622	 1.3783968634	-2.0658245386	 0.121126
H	 0.6645615376	 4.0596114087	 0.1701545547	 0.108782
H	 2.4247577303	 3.9683691716	 0.4988480264	 0.109563
H	 3.611017945	 0.4877514921	 2.8147168286	 0.198136
69.6746	103.339	116.8408	172.0193	190.4968	314.5085	341.3305	361.1884	449.8202	523.2351	532.0446	625.5343	634.7797	637.5194	647.3768	671.1987	830.4061	899.2608	903.2966	966.5855	986.9313	996.7739	1032.7936	1059.9193	1146.5633	1154.592	1167.3737	1225.5966	1296.2177	1302.9077	1338.0352	1371.7729	1467.6378	1508.5781	1533.2274	2236.8367	2241.3752	3016.9948	3026.3581	3031.046	3065.8683	3071.4473	3086.8537	3501.5237	3506.4161
C#CCC1(COC1)C#C	C#CCC1(COC1)C#C	
InChI=1S/C8H8O/c1-3-5-8(4-2)6-9-7-8/h1-2H,5-7H2	InChI=1S/C8H8O/c1-3-5-8(4-2)6-9-7-8/h1-2H,5-7H2
