21
gdb 126208	2.00089	1.39384	0.91402	2.6228	85.56	-0.2225	0.0272	0.2497	1363.1527	0.183744	-383.308938	-383.299269	-383.298325	-383.344991	34.883	
C	-0.0171733985	 1.6834163558	 0.4588457525	-0.366773
C	 0.0205230179	 0.2038822178	 0.0336708232	-0.30378
C	-1.3364180419	-0.4178374427	-0.0927418087	 0.281241
C	-2.1123005721	-0.741312164	-1.1964667588	 0.11685
C	-1.7613044037	-0.611729657	-2.650854265	-0.308676
C	-1.3187763434	-1.9381404011	-3.2934781027	-0.361797
C	-3.3071367791	-1.2603342031	-0.6402083058	-0.076784
N	-3.292075222	-1.2639780378	 0.6879835214	-0.233423
N	-2.0860685217	-0.7477852509	 0.9949902472	-0.250662
H	 0.9951814112	 2.0916696394	 0.5371597901	 0.116252
H	-0.5743483788	 2.2827128862	-0.2670709843	 0.128844
H	-0.5054304265	 1.8050408276	 1.4310190879	 0.115835
H	 0.534761905	 0.113674005	-0.9279651127	 0.118957
H	 0.6232774692	-0.3663430193	 0.7525847534	 0.109252
H	-2.6263596088	-0.2203765701	-3.2002189194	 0.106223
H	-0.9669337612	 0.1330920016	-2.7771498405	 0.096553
H	-1.0873644038	-1.804017623	-4.3553227107	 0.107809
H	-0.4276673818	-2.335576366	-2.7971562687	 0.115408
H	-2.1057684185	-2.6941784771	-3.2103103389	 0.121048
H	-4.1779588103	-1.6288619573	-1.1647694685	 0.1024
H	-1.8333830112	-0.648442074	 1.9637765591	 0.265221
29.1493	39.7026	148.6968	161.3917	189.4618	223.5303	285.4817	338.7027	378.8416	464.2426	509.5234	623.5586	668.0626	700.7514	744.0705	778.5054	790.3434	886.1459	948.9453	960.6261	984.592	1052.3441	1058.5413	1078.0596	1088.2117	1143.1462	1182.8851	1236.4469	1263.7427	1292.1416	1328.6722	1350.4792	1358.5402	1388.3132	1409.2723	1411.4574	1450.6297	1476.4508	1490.5083	1496.1706	1496.9298	1502.2351	1509.0848	1516.6933	1623.215	3023.9041	3026.9044	3033.2782	3038.0231	3057.5528	3078.1287	3104.0622	3108.8579	3109.6449	3116.3173	3231.5184	3667.6233
CCC1=C(CC)C=NN1	CCc1c(CC)cn[nH]1	
InChI=1S/C7H12N2/c1-3-6-5-8-9-7(6)4-2/h5H,3-4H2,1-2H3,(H,8,9)	InChI=1S/C7H12N2/c1-3-6-5-8-9-7(6)4-2/h5H,3-4H2,1-2H3,(H,8,9)
