18
gdb 52772	3.61072	1.04085	0.89417	3.1659	82.24	-0.2324	0.0347	0.2671	1341.1282	0.14672	-401.84731	-401.838338	-401.837393	-401.882346	33.036	
C	 0.0809466045	 1.5309680806	-0.0677899205	-0.50554
C	 0.0264327115	 0.0766447504	-0.0481614098	 0.131399
C	-0.0327141872	-1.1275265578	-0.0328156339	-0.055596
C	-0.0410884658	-2.582390277	-0.0298116656	 0.288554
O	 0.7610248993	-3.0970237352	-1.0756269149	-0.483817
C	 0.0146472892	-3.3648441822	 1.342648628	-0.09256
C	-1.436945643	-2.9081950421	 1.6123781143	-0.216179
C	-1.3698875325	-3.387229578	 0.1432233181	-0.067966
N	-0.5807553576	-4.5814626919	 0.6583056371	-0.353484
H	 0.7206431747	 1.9180537773	 0.7329391686	 0.151241
H	 0.47832132	 1.8995718714	-1.0197792982	 0.152691
H	-0.9163373154	 1.9646791209	 0.0645064348	 0.15443
H	 1.5647474059	-2.5687873471	-1.1140123192	 0.285718
H	 0.8522781573	-3.4369270232	 2.0389141638	 0.079905
H	-1.9980650856	-3.5705466527	 2.2699073179	 0.111402
H	-1.6158825389	-1.8499953944	 1.7975271344	 0.110057
H	-2.1754463845	-3.4897659445	-0.5853244523	 0.085517
H	 0.061968888	-4.8838344844	-0.0778895328	 0.224229
20.0342	95.1123	100.016	255.8443	264.7046	290.0837	352.509	365.7211	456.5095	502.064	512.3699	582.949	688.2745	781.2389	815.3748	873.5012	907.7956	919.5297	936.3823	1026.9778	1047.7169	1052.0755	1054.1525	1081.9768	1087.2783	1149.0867	1166.4528	1191.887	1205.4289	1225.6421	1250.8472	1315.127	1315.9599	1365.4531	1413.9019	1476.3211	1477.3338	1489.0946	2356.1382	3027.8434	3089.3967	3090.5224	3092.038	3099.6907	3111.4265	3175.3429	3425.3182	3822.3498
CC#CC1(O)C2CC1N2	CC#C[C@@]1(O)[C@H]2C[C@@H]1N2	
InChI=1S/C7H9NO/c1-2-3-7(9)5-4-6(7)8-5/h5-6,8-9H,4H2,1H3	InChI=1S/C7H9NO/c1-2-3-7(9)5-4-6(7)8-5/h5-6,8-9H,4H2,1H3/t5-,6+,7-
