18
gdb 69609	3.4907	1.19857	1.1522	1.4305	84.69	-0.205	0.0265	0.2316	1152.9028	0.146013	-364.698601	-364.690308	-364.689364	-364.730944	33.112	
C	-0.058473866	 1.5343855683	 0.0267633268	-0.494611
C	 0.0100728954	 0.0361708279	 0.0109602709	 0.351267
C	-0.8883547797	-0.8822002997	 0.7979027069	-0.341556
C	 0.5999608753	-0.9279004542	 1.0326112403	-0.163083
C	 1.3605559433	-1.6681802735	-0.1132092061	 0.209371
N	 0.3559124551	-2.1574632898	-1.1125960057	-0.377131
C	 0.7604614758	-0.7411792583	-1.1158401907	-0.185272
C	 2.6668334475	-2.2093512724	-0.0287074532	 0.166106
C	 3.7766151732	-2.6670425343	 0.0702974053	-0.398835
H	 0.9180180888	 1.9834665445	-0.1908041038	 0.118775
H	-0.7705952278	 1.9107990601	-0.7181001413	 0.121563
H	-0.3807411604	 1.8992638192	 1.0071499082	 0.121404
H	-1.4418846523	-0.3855367468	 1.5896943998	 0.10673
H	-1.3997472919	-1.7112464792	 0.326215239	 0.142771
H	 1.0679559984	-0.7059080314	 1.9825205672	 0.093247
H	 0.8858557259	-2.6284386675	-1.8459652732	 0.237861
H	 1.2273764479	-0.2844948468	-1.9797494889	 0.104202
H	 4.7557700816	-3.0690927061	 0.1519847985	 0.187192
110.4977	148.0342	213.463	247.194	289.7296	385.2734	427.3606	469.1592	505.0269	533.3475	556.3817	583.6009	644.031	664.3854	781.7543	792.7029	848.6929	868.6709	904.3371	927.3832	958.6776	971.8393	1007.0549	1034.0739	1063.8609	1095.6454	1107.7511	1139.5329	1206.3835	1216.9474	1253.8591	1331.0001	1362.6233	1405.6014	1422.1227	1473.1202	1485.6421	1500.1422	2228.0609	3017.3869	3072.908	3097.7335	3133.6165	3193.9886	3201.8025	3230.469	3476.2703	3503.2269
CC12CC1C1(NC21)C#C	C[C@]12C[C@H]1[C@]1(N[C@@H]21)C#C	
InChI=1S/C8H9N/c1-3-8-5-4-7(5,2)6(8)9-8/h1,5-6,9H,4H2,2H3	InChI=1S/C8H9N/c1-3-8-5-4-7(5,2)6(8)9-8/h1,5-6,9H,4H2,2H3/t5-,6+,7+,8-/m1/s1
