19
gdb 111445	2.97308	1.44054	1.16817	1.8469	73.04	-0.2552	0.0658	0.321	1087.7791	0.160528	-422.992783	-422.984957	-422.984013	-423.025265	30.782	
O	 0.0797650249	 1.4257023565	 0.0279857028	-0.42637
C	 0.0444274538	 0.0057882393	-0.019146884	-0.075392
C	-1.3862941045	-0.5478312318	-0.0240081615	-0.043553
C	-1.4767868842	-2.0791364145	-0.1270477671	-0.07274
C	-0.9233604828	-2.960070902	 0.9678330466	-0.289351
C	-2.3881401263	-2.5973525236	 0.9725708395	-0.066764
C	-2.7759718142	-1.3966810529	 1.8066819227	 0.032353
O	-1.6760755634	-0.730314688	 2.4489677627	-0.264137
C	-2.1901345134	-0.1808865901	 1.2219722541	 0.006353
H	-0.1274537014	 1.6929004766	 0.928619272	 0.28906
H	 0.5509968712	-0.279588011	-0.946943016	 0.108737
H	 0.6074255333	-0.435979983	 0.813429114	 0.10414
H	-1.908614618	-0.1081268289	-0.8834733664	 0.084064
H	-1.5248630104	-2.5046144085	-1.123434747	 0.088692
H	-0.6658269702	-3.976025497	 0.6885034427	 0.108546
H	-0.3049982012	-2.5264810563	 1.7428801605	 0.136596
H	-3.1407581739	-3.3552894779	 0.7921136044	 0.086546
H	-3.704302615	-1.4000867303	 2.370989273	 0.096461
H	-2.6367257343	 0.8068573334	 1.3145802871	 0.09676
76.2645	150.8194	173.4001	301.0861	307.3371	337.7791	431.5433	536.7861	557.7989	684.5369	702.3933	759.3792	795.8288	834.7772	853.447	888.617	920.8232	938.9327	991.8949	1007.7521	1038.7706	1070.4323	1074.6531	1084.0094	1096.552	1104.1519	1112.424	1122.4002	1196.9962	1204.3577	1259.2648	1283.3729	1306.4771	1340.1671	1352.6886	1385.0015	1394.197	1413.7877	1419.7565	1478.3232	1499.3862	3019.4311	3032.5094	3079.7368	3132.6434	3142.3546	3154.745	3164.6479	3186.6121	3237.6207	3824.9296
OCC1C2CC2C2OC12	OC[C@H]1[C@H]2C[C@H]2[C@H]2O[C@@H]12	
InChI=1S/C7H10O2/c8-2-5-3-1-4(3)6-7(5)9-6/h3-8H,1-2H2	InChI=1S/C7H10O2/c8-2-5-3-1-4(3)6-7(5)9-6/h3-8H,1-2H2/t3-,4+,5-,6+,7-/m0/s1
