21
gdb 108063	2.53838	1.58518	1.22801	1.3575	82.22	-0.2263	0.0752	0.3015	1114.703	0.182455	-387.043668	-387.035118	-387.034174	-387.076595	33.959	
C	 0.1992033436	 1.448407017	 0.209602508	-0.37887
C	-0.0471258363	-0.0297070924	-0.1245634782	-0.296809
C	 0.681624177	-0.4762665701	-1.3599748594	 0.328768
C	 0.4337983424	-0.0465861978	-2.8090004066	-0.281179
C	 1.3388954068	-1.2430871783	-3.2068474958	-0.068845
C	 2.749470035	-0.8343070329	-2.6868649285	-0.292622
C	 2.1341138166	-0.9731312406	-1.2991470915	 0.352442
O	 2.7796575447	-0.9532049228	-0.0785769164	-0.464537
C	 1.0356708907	-1.8935932386	-1.7973147984	-0.240278
H	 1.2611705064	 1.629196834	 0.4011233333	 0.130322
H	-0.1099621921	 2.0992543539	-0.6153973155	 0.11282
H	-0.3628954808	 1.74943972	 1.0991692154	 0.106372
H	 0.2722559855	-0.6509910625	 0.7194084893	 0.105771
H	-1.1232045404	-0.2052525232	-0.2556686379	 0.089925
H	-0.6110539948	-0.2111012934	-3.091418086	 0.093234
H	 0.7484858704	 0.9529150684	-3.1335207929	 0.0851
H	 1.2326285348	-1.7392546498	-4.1685593217	 0.070927
H	 3.4903131213	-1.6192083681	-2.8749784705	 0.086033
H	 3.1489263428	 0.1370090658	-3.0022948585	 0.088936
H	 3.3741415734	-1.7102540534	-0.0376352866	 0.285089
H	 0.6752005031	-2.8594687751	-1.4731803416	 0.087402
68.4667	142.7327	199.0222	256.3654	283.751	328.3686	403.1882	421.683	430.4578	453.1737	636.2251	640.3162	708.5178	769.8763	790.4216	810.0188	864.6068	879.4813	924.8126	967.509	976.4619	988.5139	1013.4625	1054.5551	1074.8599	1093.3603	1101.7651	1114.3197	1155.744	1178.4331	1213.7056	1245.0475	1254.2648	1272.7681	1286.5386	1319.1864	1347.9541	1386.303	1407.8259	1441.6034	1479.9373	1493.353	1498.9505	1507.5921	1511.6284	3017.3243	3019.7059	3026.2505	3034.5999	3066.0736	3078.1643	3081.5556	3101.4601	3112.8685	3141.0703	3218.0281	3794.1308
CCC12CC3CC1(O)C23	CC[C@@]12C[C@H]3C[C@]1(O)[C@@H]23	
InChI=1S/C8H12O/c1-2-7-3-5-4-8(7,9)6(5)7/h5-6,9H,2-4H2,1H3	InChI=1S/C8H12O/c1-2-7-3-5-4-8(7,9)6(5)7/h5-6,9H,2-4H2,1H3/t5-,6+,7-,8-/m0/s1
