17
gdb 79439	2.87628	1.81309	1.38077	4.464	71.85	-0.2181	-0.0123	0.2059	953.8556	0.137396	-417.932361	-417.925406	-417.924461	-417.963469	28.089	
C	-0.2280367696	 1.4369837904	 0.1105437089	-0.327222
N	-0.0006645005	-0.0022601784	 0.0469884788	-0.114794
C	 0.761960561	-0.4222332446	-1.1578082811	-0.011339
C	 2.1486111041	-0.2481669024	-0.483989068	-0.031218
N	 2.6311044748	-1.6023964021	-0.8842545922	-0.33943
C	 1.1506815881	-1.9411180814	-0.9317571679	-0.180537
C	 0.9600723044	-1.9609280578	 0.5947761962	 0.541659
O	 0.6891725873	-2.8373247822	 1.3576510902	-0.331486
C	 1.2349515729	-0.4618828325	 0.7961892401	-0.150428
H	 0.6649521228	 2.0498309413	-0.1036048297	 0.098236
H	-1.0063359426	 1.7053370875	-0.6114734505	 0.125949
H	-0.5900793843	 1.7008579285	 1.1085660133	 0.130665
H	 0.4510188635	-0.0708298536	-2.1426320695	 0.08332
H	 2.8319224942	 0.59673583	-0.5464235566	 0.090605
H	 2.972903721	-1.5375235616	-1.8426831481	 0.226027
H	 0.8161536915	-2.7841200975	-1.5299274083	 0.095283
H	 1.4243561213	-0.0687609935	 1.7913717843	 0.094709
155.3143	208.7343	241.1267	283.8962	400.8865	440.9826	507.1906	582.358	716.5836	738.6963	781.0284	803.0299	816.7441	836.5587	862.678	893.9641	939.0918	941.8845	993.127	1029.9154	1096.2499	1109.855	1121.1371	1145.4592	1153.7241	1166.5545	1174.3388	1198.1565	1225.3476	1256.6573	1294.5363	1326.7393	1344.1584	1452.3805	1492.2691	1498.6628	1916.5948	2953.6819	3065.4466	3106.7194	3108.577	3133.2638	3165.1958	3167.7467	3462.8054
CN1C2C3NC2C(=O)C13	CN1[C@H]2[C@@H]3N[C@H]2C(=O)[C@H]13	
InChI=1S/C6H8N2O/c1-8-4-2-5(8)6(9)3(4)7-2/h2-5,7H,1H3	InChI=1S/C6H8N2O/c1-8-4-2-5(8)6(9)3(4)7-2/h2-5,7H,1H3/t2-,3+,4-,5+/m0/s1
