18
gdb 14938	4.35538	1.37917	1.12095	2.7118	73.88	-0.2441	-0.02	0.2241	1055.7953	0.154783	-347.833813	-347.826195	-347.825251	-347.866302	28.322	
O	-0.1519425285	-0.004855899	-0.0265994122	-0.249641
C	-0.0290439252	 1.1919938557	 0.0089657001	 0.150221
C	 1.2836885705	 1.9417567095	 0.0015071808	-0.061368
C	 1.3807265919	 2.8234771824	-1.2617606076	-0.216892
C	 2.7278502238	 3.5570055817	-1.3181749138	-0.260864
C	 3.1005347328	 4.163354056	 0.0088802689	-0.038106
C	 2.5010850476	 3.8434429038	 1.1542322601	-0.058852
C	 1.4070987276	 2.8138109754	 1.2686472454	-0.264436
H	-0.926001505	 1.8584894434	 0.045219771	 0.065989
H	 2.0859319834	 1.1961364828	-0.0130162829	 0.094854
H	 1.2426651971	 2.213561217	-2.1607146315	 0.108318
H	 0.5659374276	 3.5591120819	-1.2461142215	 0.104694
H	 3.5194461811	 2.8663864355	-1.6441764216	 0.114413
H	 2.6896304285	 4.3392041038	-2.0865978241	 0.107779
H	 3.901027611	 4.8990758296	 0.0070482066	 0.087596
H	 2.8017584719	 4.3316129875	 2.0781610044	 0.088712
H	 0.4476866806	 3.3153703933	 1.4732237695	 0.109236
H	 1.5900523133	 2.1713980994	 2.1388286485	 0.118347
56.2803	106.5796	182.6561	292.0977	345.526	377.0236	407.798	499.5001	559.0281	669.8707	750.7684	834.6489	873.5622	902.2489	922.1148	955.2683	1004.8513	1011.3001	1055.8227	1072.7757	1104.7125	1112.8294	1164.8351	1208.4011	1227.8693	1279.0804	1290.0324	1326.9909	1365.0354	1368.8291	1385.2052	1415.8804	1428.132	1473.656	1477.8696	1494.7579	1728.9843	1835.1183	2829.5699	2984.1658	3002.8023	3021.4079	3041.2493	3044.6949	3059.6761	3077.1718	3144.9634	3168.3125
O=CC1CCC=CC1	O=C[C@H]1CCC=CC1	
InChI=1S/C7H10O/c8-6-7-4-2-1-3-5-7/h1-2,6-7H,3-5H2	InChI=1S/C7H10O/c8-6-7-4-2-1-3-5-7/h1-2,6-7H,3-5H2/t7-/m1/s1
