19
gdb 78637	3.17212	1.52882	1.18529	1.9727	82.63	-0.2162	-0.0352	0.181	1071.4467	0.158764	-385.792178	-385.78438	-385.783435	-385.823803	31.882	
C	 0.1076492733	 1.4787061349	-0.0660357599	-0.487666
C	-0.1566821124	-0.0061393675	 0.0451072501	 0.325159
C	-0.8953104576	-0.7130447482	-1.1121211413	-0.310127
C	-1.0106901644	-2.1101146132	-0.5300765952	-0.090405
C	-0.7588959943	-2.0871325319	 0.7976629947	-0.035671
C	-0.6499008079	-0.6358170175	 1.3033487502	-0.168941
C	 0.819917708	-0.8032826259	 1.0010148576	-0.139481
C	 0.7248787768	-2.3801984853	 1.1265234557	 0.10202
O	 1.1204556435	-2.8327838965	 2.38918034	-0.420538
H	 0.8198833305	 1.6957218743	-0.8701468332	 0.122425
H	-0.8194976663	 2.018372634	-0.291753892	 0.119715
H	 0.5154982675	 1.8911655377	 0.8615394358	 0.11947
H	-1.8322811806	-0.1800244392	-1.3321013699	 0.107673
H	-0.3293054701	-0.75621919	-2.051737821	 0.107524
H	-0.7839285539	-2.9783482184	-1.1434799578	 0.099814
H	-1.1463669526	-0.169934465	 2.1452049114	 0.084895
H	 1.6422239167	-0.2565904703	 1.4585606615	 0.090736
H	 1.2657562518	-2.9990917603	 0.4062584696	 0.092338
H	 0.6148163022	-2.3457359718	 3.0507827537	 0.28106
175.71	204.376	242.3241	244.4106	331.0328	364.2331	405.5144	431.3661	467.3926	575.7899	683.8727	725.7006	771.173	807.3892	821.7654	843.9447	864.1897	899.0508	920.7155	945.9382	978.7264	1014.1654	1048.355	1067.1471	1086.8234	1099.7672	1141.9822	1174.3044	1202.9408	1210.8924	1231.867	1260.6272	1287.8663	1304.5827	1369.8762	1414.1858	1431.602	1474.7891	1489.2745	1498.1935	1571.998	2993.5502	3026.0904	3041.588	3084.3111	3086.7283	3103.3712	3130.4325	3160.3382	3187.9568	3788.9556
CC12CC=C3C1C2C3O	C[C@]12C[CH][C]3[C@H]1[C@H]2[C@H]3O	
InChI=1S/C8H10O/c1-8-3-2-4-5(8)6(8)7(4)9/h2,5-7,9H,3H2,1H3	InChI=1S/C8H10O/c1-8-3-2-4-5(8)6(8)7(4)9/h2,5-7,9H,3H2,1H3/t5-,6-,7-,8-/m0/s1
