17
gdb 16816	3.52025	1.96845	1.44761	3.941	68.29	-0.2359	0.0298	0.2657	883.6757	0.144116	-363.902606	-363.895476	-363.894531	-363.933761	27.777	
C	-0.172808615	 1.5995135364	 0.0419712161	-0.392004
C	 0.0597605018	 0.0891516502	 0.0031217585	 0.02908
N	 0.9123567228	-0.3296454005	-1.1046304262	-0.326494
C	 1.8262423512	-1.3174036332	-0.8078774882	 0.413105
O	 2.4547826038	-1.9680301664	-1.6132491657	-0.386051
C	 1.8808743269	-1.4069419462	 0.6955118351	-0.154509
C	 2.2429320134	-0.1088468841	 1.3903635955	-0.287099
C	 0.8006432094	-0.4838785042	 1.2151369128	-0.04204
H	 0.7723128367	 2.1402399728	 0.1406987572	 0.125974
H	-0.6710124387	 1.9435045474	-0.8706381391	 0.115522
H	-0.8138198645	 1.8615386541	 0.8896256402	 0.121555
H	-0.9195259222	-0.4097905556	-0.0673004738	 0.083597
H	 0.6761070622	-0.1471674663	-2.067281543	 0.246753
H	 2.1423942088	-2.3582701207	 1.1382614144	 0.109072
H	 2.6555577909	-0.1928899407	 2.389547056	 0.120934
H	 2.667331098	 0.6908090559	 0.7926583871	 0.127224
H	 0.2121588046	-0.734114449	 2.089116013	 0.095381
109.1451	202.2942	237.4384	262.6035	361.5242	470.5676	474.1132	525.8816	599.414	690.6367	762.8803	786.0578	812.295	852.3912	935.3454	946.9634	978.321	1015.5971	1055.8969	1065.8916	1079.7758	1102.9577	1123.0487	1162.0114	1200.3832	1254.6396	1311.0471	1337.4464	1373.996	1393.3377	1411.5648	1428.6082	1484.504	1493.251	1498.4105	1829.6189	2972.15	3037.4329	3103.635	3121.7341	3134.1301	3187.0014	3211.5047	3223.0033	3639.1222
CC1NC(=O)C2CC12	C[C@H]1NC(=O)[C@H]2C[C@@H]12	
InChI=1S/C6H9NO/c1-3-4-2-5(4)6(8)7-3/h3-5H,2H2,1H3,(H,7,8)	InChI=1S/C6H9NO/c1-3-4-2-5(4)6(8)7-3/h3-5H,2H2,1H3,(H,7,8)/t3-,4+,5+/m1/s1
