18
gdb 9781	3.03554	1.62862	1.40431	1.0128	73.33	-0.2516	0.0449	0.2964	979.1464	0.151102	-347.757941	-347.749089	-347.748145	-347.790829	33.627	
C	 0.0931543299	 1.4095678411	-0.3325904353	-0.388351
C	 0.0408542381	-0.089024717	 0.0256862362	-0.213291
C	 0.6616033795	-0.3447394535	 1.3281059001	 0.302148
C	 1.1150417288	-0.540764773	 2.4251918705	-0.462443
C	-1.3997853001	-0.6098905077	 0.0466786601	 0.449136
O	-2.2069735286	 0.0005363271	 1.0144462357	-0.473576
C	-2.0956074907	-0.9289585572	-1.2372838306	-0.316571
C	-1.6817115994	-2.0491345103	-0.2964694323	-0.324979
H	 1.1195981026	 1.7831117673	-0.3024424492	 0.119753
H	-0.3093603277	 1.5674906419	-1.337255819	 0.117841
H	-0.5107117904	 1.9827595976	 0.3741648759	 0.138385
H	 0.5911964468	-0.6551492278	-0.7369030228	 0.102093
H	 1.5462320573	-0.7208326642	 3.3789032912	 0.197882
H	-1.8157039244	-0.2023818612	 1.8741194953	 0.285097
H	-3.1498577528	-0.6836453773	-1.2890802753	 0.125865
H	-1.5521907958	-0.8081243663	-2.1684146074	 0.112004
H	-0.8578528852	-2.692679987	-0.5864382829	 0.112051
H	-2.4692083878	-2.5372076422	 0.2660591797	 0.116957
77.6497	130.3869	200.7903	220.9856	233.1854	317.8521	334.8981	380.5439	411.6876	492.6264	537.8351	569.7597	628.6594	648.4054	743.9064	771.5629	845.1942	906.9651	922.5361	948.6291	986.7791	1016.7986	1049.4091	1077.1289	1095.0114	1115.0173	1187.0996	1237.8955	1293.8515	1310.3454	1320.8481	1402.2669	1411.9241	1452.9138	1490.1659	1499.8644	1505.883	2226.8393	3024.3453	3049.5874	3122.8174	3132.7069	3136.4995	3138.0955	3218.8275	3232.4055	3503.0905	3763.5138
CC(C#C)C1(O)CC1	C[C@@H](C#C)C1(O)CC1	
InChI=1S/C7H10O/c1-3-6(2)7(8)4-5-7/h1,6,8H,4-5H2,2H3	InChI=1S/C7H10O/c1-3-6(2)7(8)4-5-7/h1,6,8H,4-5H2,2H3/t6-/m0/s1
