18
gdb 90343	4.06791	1.28874	1.05108	3.6349	82.03	-0.2284	-0.0221	0.2064	1156.55	0.149817	-401.980735	-401.973226	-401.972282	-402.012893	29.172	
C	-0.0640308222	 1.5298816592	 0.0607838705	-0.379048
C	 0.0628313506	 0.0080082704	 0.0189162998	 0.053135
C	 0.7927281947	-0.5168137414	-1.2890032541	-0.4071
C	 1.9189321882	-1.3094993549	-0.7067118204	 0.309983
C	 2.9825926194	-2.0737783962	-0.9491103444	-0.313642
C	 3.585809939	-2.4604805295	 0.3875472555	-0.13087
O	 2.7536883819	-1.8370987132	 1.391229199	-0.259729
C	 1.7807209877	-1.1691274974	 0.7385714045	 0.40674
N	 0.8169922197	-0.4819094533	 1.1992902155	-0.341337
H	 0.9240901113	 1.9998758862	 0.0058973083	 0.114045
H	-0.6669436145	 1.8945486812	-0.7779071421	 0.107348
H	-0.5369703845	 1.8472035684	 0.993715404	 0.129773
H	-0.944827676	-0.4235311153	 0.0704332878	 0.084495
H	 0.1291478797	-1.1192283844	-1.9164767666	 0.124664
H	 1.1488886883	 0.3157718766	-1.9048663062	 0.124034
H	 3.4031202565	-2.3996097777	-1.8912114104	 0.11719
H	 3.5872908742	-3.5442062236	 0.562949881	 0.130152
H	 4.6142854259	-2.0982721651	 0.5150835384	 0.130168
65.4645	196.6801	237.7746	256.3697	318.7281	377.225	448.0989	504.2761	634.1309	689.4042	715.1598	770.4414	805.8162	828.3428	853.0831	899.5188	913.3704	943.6701	1024.5509	1036.7522	1067.5755	1102.6341	1114.7418	1131.4029	1193.6772	1200.7744	1216.0852	1269.2041	1306.2097	1341.2781	1355.5911	1404.8826	1415.9013	1469.875	1487.0727	1498.7025	1504.9804	1728.2646	1739.7646	3016.7632	3018.2598	3031.6177	3047.1904	3049.124	3088.0331	3100.194	3120.8307	3222.7255
CC1CC2=CCOC2=N1	C[C@H]1CC2=CCOC2=N1	
InChI=1S/C7H9NO/c1-5-4-6-2-3-9-7(6)8-5/h2,5H,3-4H2,1H3	InChI=1S/C7H9NO/c1-5-4-6-2-3-9-7(6)8-5/h2,5H,3-4H2,1H3/t5-/m0/s1
