14
gdb 32322	2.7969	1.5027	0.98342	1.2401	68.63	-0.2483	-0.0741	0.1742	1110.1941	0.100698	-473.85454	-473.846714	-473.84577	-473.887388	28.294	
O	 0.0236506128	 1.4388176173	 0.0068536115	-0.399984
C	-0.0163438566	 0.0355166593	 0.0020437732	-0.150612
C	-1.4433673733	-0.4431387062	 0.0127496965	 0.154134
N	-2.4388627451	 0.3775707863	 0.0238252296	-0.260438
C	-3.7120232125	-0.1528093859	 0.0331125253	-0.089372
C	-3.9264247023	-1.479931865	 0.0308746646	 0.053055
O	-2.9038560424	-2.3627865288	 0.0193616103	-0.197455
C	-1.5943590444	-1.9132473437	 0.0094463812	 0.399177
O	-0.6973861327	-2.7133002406	-0.0009654323	-0.32921
H	 0.948062427	 1.7030371596	-0.002879979	 0.294794
H	 0.4766935653	-0.4038532099	-0.8819018217	 0.123162
H	 0.4919938617	-0.4102842789	 0.8740388048	 0.123163
H	-4.5387830823	 0.5460274201	 0.0423585542	 0.128748
H	-4.8935965853	-1.9665340138	 0.0377092618	 0.150839
74.7554	125.566	196.1914	230.9038	259.1398	346.0817	416.9088	510.3506	557.1607	559.8617	600.6687	766.75	779.8978	832.9562	897.6184	926.1734	989.6379	1015.0783	1067.4493	1134.1555	1186.8679	1243.6536	1244.2943	1261.3655	1289.27	1425.094	1468.1718	1486.4926	1596.9696	1668.1312	1827.9598	2962.7072	2977.549	3207.6885	3229.0011	3838.7891
OCC1=NC=COC1=O	OCc1nccoc1=O	
InChI=1S/C5H5NO3/c7-3-4-5(8)9-2-1-6-4/h1-2,7H,3H2	InChI=1S/C5H5NO3/c7-3-4-5(8)9-2-1-6-4/h1-2,7H,3H2
