23
gdb 81032	2.38162	1.69252	1.26333	1.4348	84.81	-0.2438	0.084	0.3278	1115.2721	0.206956	-388.289418	-388.280794	-388.279849	-388.32183	34.704	
C	-0.1204117689	 1.5182063953	-0.077353322	-0.43728
C	 0.030960325	 0.0023970875	-0.0005371146	 0.0148
C	 1.207573296	-0.59339928	-0.8261859688	-0.043613
C	 2.1064357489	-0.4330256638	 0.4314373923	-0.270562
C	 0.785129234	-0.5763815104	 1.2457170443	 0.298303
C	 0.6399451974	 0.0803082257	 2.6070375973	-0.489583
C	 0.451275466	-2.0809728329	 1.3032405627	-0.09952
O	 0.9507997796	-2.7985698403	 0.183351186	-0.263893
C	 0.9471053928	-2.0865487478	-1.0475846273	-0.076622
H	 0.8266918831	 2.0423214845	 0.086947772	 0.115892
H	-0.4900231503	 1.8134181994	-1.0656511037	 0.113485
H	-0.8361052058	 1.8861817333	 0.6657180586	 0.115425
H	-0.9448035696	-0.4636837429	-0.1926562503	 0.054583
H	 1.4901386126	-0.0945359596	-1.7575044826	 0.058919
H	 2.8857260553	-1.1807773231	 0.5971684975	 0.101713
H	 2.5357567476	 0.5674856633	 0.515413414	 0.093839
H	 0.8209457223	 1.1579343674	 2.5544258553	 0.116165
H	-0.3667843737	-0.0676935651	 3.0171083007	 0.113807
H	 1.3535773442	-0.342189386	 3.3237619915	 0.116115
H	 0.9182180274	-2.5463588042	 2.1796548387	 0.098153
H	-0.6410586425	-2.208831647	 1.3974071478	 0.083477
H	-0.0094774659	-2.2259452062	-1.5793729873	 0.084406
H	 1.7375471843	-2.5433217372	-1.6542999322	 0.101991
164.8698	197.1094	221.1353	230.1785	244.5876	276.3716	312.9188	380.9244	418.1745	454.7802	506.808	626.8659	670.3646	797.5858	832.4683	847.1545	874.0596	905.9828	929.0188	967.622	989.4433	1005.4407	1034.1364	1045.3555	1075.2647	1091.439	1126.0312	1153.9614	1165.3816	1207.2547	1216.3297	1237.3051	1267.2548	1271.1512	1285.2091	1301.4524	1315.725	1379.207	1384.9684	1407.0578	1411.791	1420.2095	1488.099	1490.5155	1494.312	1500.6589	1504.3918	1505.9286	1514.1464	2951.3773	2960.327	3004.6954	3021.0145	3028.512	3046.7304	3051.8515	3063.5016	3073.0466	3081.4214	3090.9561	3098.4537	3101.4486	3121.4436
CC1C2CC1(C)COC2	C[C@H]1[C@H]2C[C@]1(C)COC2	
InChI=1S/C8H14O/c1-6-7-3-8(6,2)5-9-4-7/h6-7H,3-5H2,1-2H3	InChI=1S/C8H14O/c1-6-7-3-8(6,2)5-9-4-7/h6-7H,3-5H2,1-2H3/t6-,7-,8+/m0/s1
