16
gdb 51498	3.29068	1.07605	0.85804	5.4278	72.69	-0.2411	-0.0232	0.2179	1286.7425	0.124381	-434.095858	-434.087407	-434.086463	-434.130059	30.038	
N	-0.1530224323	 1.2602767302	 0.0741897945	-0.544826
C	 0.012276479	 0.004323212	 0.0103256407	 0.385514
N	 1.1695254238	-0.764465558	-0.120020004	-0.3466
C	 0.8186373694	-2.1090532733	-0.0936291519	 0.06391
N	-0.4274427018	-2.3593539902	 0.0069785902	-0.240245
C	-1.0981461045	-1.048007751	 0.0746468916	-0.072371
C	-1.9657360719	-0.9123362636	 1.3302928695	-0.273223
C	-3.1567313609	-1.8469635334	 1.3129315874	 0.176416
O	-3.5721031167	-2.4422517948	 2.2711587575	-0.240517
H	 0.726485013	 1.7749858076	 0.0145890673	 0.212448
H	 2.108166537	-0.4025847443	-0.1423113166	 0.261828
H	 1.5942544558	-2.8650740265	-0.1629281154	 0.141942
H	-1.7406814248	-0.9415372725	-0.8098811684	 0.124999
H	-1.3865631678	-1.0875758636	 2.2405163127	 0.126389
H	-2.3410616371	 0.1201313045	 1.3597602113	 0.151985
H	-3.6604981601	-1.929065633	 0.3208592135	 0.072353
56.3405	87.3294	108.4059	153.9896	271.4532	291.1594	398.8218	462.3601	496.8049	608.9566	641.3596	695.7762	747.5496	853.0984	868.3364	904.3262	932.0073	948.2383	1051.4318	1074.8158	1081.4338	1098.2865	1113.8767	1205.6519	1238.6441	1276.4403	1305.2306	1349.5079	1354.1354	1413.5098	1431.0466	1448.7218	1682.206	1764.9876	1842.463	2853.9143	3022.3149	3030.9382	3110.4473	3195.4371	3464.4356	3660.7642
N=C1NC=NC1CC=O	[NH][C]1NC=N[C@H]1CC=O	
InChI=1S/C5H7N3O/c6-5-4(1-2-9)7-3-8-5/h2-4H,1H2,(H2,6,7,8)	InChI=1S/C5H7N3O/c6-5-4(1-2-9)7-3-8-5/h2-4H,1H2,(H2,6,7,8)/t4-/m0/s1
