21
gdb 41884	2.863	1.4943	1.07722	1.5768	82.94	-0.2377	0.0206	0.2583	1152.1809	0.185554	-387.085229	-387.077448	-387.076504	-387.117655	30.893	
C	 0.1920421371	 1.6384969494	 0.1978509143	-0.096205
O	 1.4774660185	 1.495739626	-0.4409462485	-0.297392
C	 1.2689064188	 0.0785679764	-0.6514217831	 0.156933
C	 2.4099428622	-0.7762277076	-0.1315917619	-0.231019
C	 2.1047059336	-2.2780827267	-0.22846422	-0.256751
C	 0.9791780859	-2.7962947135	 0.6327110062	-0.02503
C	 0.0830942186	-2.123570544	 1.3585542046	-0.070819
C	-0.0641742758	-0.6215073575	 1.4915053029	-0.279155
C	-0.0573747634	 0.1155929759	 0.1517766063	-0.03975
H	 0.2771326883	 2.0846493359	 1.1973150094	 0.096916
H	-0.4983308452	 2.2456607633	-0.4021537923	 0.095201
H	 1.1131065363	-0.1307068613	-1.7208780522	 0.066976
H	 3.3092765889	-0.5474530454	-0.7154467232	 0.101718
H	 2.6350625675	-0.5007484112	 0.9038091215	 0.104769
H	 1.8973260767	-2.5431563947	-1.2773948935	 0.108132
H	 3.0123880494	-2.8425682427	 0.0242601687	 0.107828
H	 0.9119330729	-3.8836229205	 0.6524668641	 0.083563
H	-0.6351558155	-2.7133570447	 1.9240721042	 0.084577
H	-1.0046095586	-0.3988658853	 2.0085803748	 0.099032
H	 0.7251511971	-0.2153034273	 2.1378941648	 0.115275
H	-0.9296691732	-0.1824626347	-0.4345927571	 0.075201
66.5765	169.2189	218.0806	285.7575	321.6674	367.3214	416.4424	435.1636	570.9396	663.0298	712.8547	771.7006	821.6057	841.1824	868.646	907.0282	939.7478	980.7814	989.627	1010.9922	1021.7718	1044.7864	1061.863	1071.876	1110.6261	1156.686	1166.3871	1191.9753	1227.3795	1231.6346	1258.3334	1281.2454	1298.0779	1338.7053	1342.2154	1371.2839	1385.2324	1387.3208	1408.2872	1425.4024	1473.3465	1484.5362	1509.8878	1524.7214	1726.7625	2978.0018	2987.3729	3003.7232	3018.0266	3023.6919	3042.1754	3043.4291	3052.5455	3080.6491	3085.9739	3122.7816	3151.695
C1OC2CCC=CCC12	C1O[C@H]2CCC=CC[C@@H]12	
InChI=1S/C8H12O/c1-2-4-7-6-9-8(7)5-3-1/h1-2,7-8H,3-6H2	InChI=1S/C8H12O/c1-2-4-7-6-9-8(7)5-3-1/h1-2,7-8H,3-6H2/t7-,8-/m0/s1
