20
gdb 71342	3.15797	1.5523	1.21735	1.9052	84.53	-0.2224	0.0842	0.3066	1083.22	0.17076	-365.897508	-365.889725	-365.888781	-365.92933	31.584	
C	 0.0051631294	 1.5282538764	-0.0374402803	-0.5269
C	 0.0282222988	 0.0219490492	-0.0580950855	 0.336355
C	 0.5280679286	-0.9473806585	-1.1267768843	-0.234643
N	 0.0526826669	-1.9407742081	-0.0728319538	-0.158257
C	 0.5498992762	-0.9716719164	 1.0408012958	-0.171452
C	-0.7904715547	-1.0437295137	 1.7443186103	 0.460122
C	-1.2970611685	-1.8856805662	 2.8632344705	-0.348542
C	-1.3510382762	-0.3654356046	 2.9508788219	-0.35572
C	-1.1305235481	-0.9868187454	 0.2685660249	-0.171463
H	 1.0175244007	 1.9373986269	-0.1291057893	 0.120549
H	-0.5898206051	 1.9229240747	-0.8686485555	 0.120548
H	-0.4276689787	 1.9023126063	 0.8959719828	 0.126947
H	-0.0283788857	-1.0108867459	-2.068817913	 0.094721
H	 1.6061612017	-0.9961657655	-1.3176743297	 0.094722
H	 1.5633135115	-1.059633215	 1.4385313223	 0.076813
H	-2.2317648688	-2.419427236	 2.7255564033	 0.116452
H	-0.575985188	-2.4045106389	 3.4864329853	 0.116452
H	-0.667001111	 0.1280984204	 3.6341477397	 0.11324
H	-2.3222693823	 0.1131695988	 2.8735055955	 0.11324
H	-2.0909076668	-1.0925760283	-0.240758841	 0.076815
130.92	197.6202	206.7501	248.3411	287.2641	334.0143	456.3485	501.0759	548.4697	665.8295	710.5089	770.9934	820.923	838.2238	843.2812	881.5865	897.0672	917.734	923.3789	961.6184	996.8267	1014.9916	1046.2319	1066.2312	1074.5908	1077.7942	1103.7868	1132.8618	1158.1487	1182.5124	1184.3369	1185.7643	1241.1886	1243.2721	1261.5453	1336.2228	1405.5099	1434.9108	1462.5434	1487.9651	1491.3075	1521.3589	1522.765	3024.8393	3028.1561	3082.3274	3089.8052	3091.4509	3095.561	3102.3491	3122.2142	3128.1898	3200.0554	3215.4447
CC12CN3C1C1(CC1)C23	C[C@@]12CN3[C@@H]1C1(CC1)[C@@H]23	
InChI=1S/C8H11N/c1-7-4-9-5(7)8(2-3-8)6(7)9/h5-6H,2-4H2,1H3	InChI=1S/C8H11N/c1-7-4-9-5(7)8(2-3-8)6(7)9/h5-6H,2-4H2,1H3/t5-,6+,7+
