18
gdb 87606	2.7008	1.51357	1.14198	3.0238	79.16	-0.2059	-0.0017	0.2042	1107.2023	0.1483	-401.99167	-401.983386	-401.982442	-402.024328	31.889	
C	-0.0870295462	 1.5198038992	-0.0711931157	-0.410655
C	 0.0308103562	 0.0166481064	 0.0176692931	-0.02052
C	 1.3251260744	-0.680821339	-0.2165626594	-0.321511
C	 0.7503661736	-0.642948445	 1.1976208833	 0.198958
C	 1.3488818448	 0.0436646748	 2.364739915	-0.270231
C	 1.1273335311	-0.722608332	 3.4429456615	-0.032229
N	 0.4209181361	-1.8836881384	 3.0941119209	-0.356684
C	 0.1531069721	-1.9173005825	 1.7361643763	 0.379514
O	-0.4388087904	-2.7897137163	 1.13406792	-0.39758
H	 0.8410871925	 2.0154476649	 0.2293017681	 0.115702
H	-0.3058339455	 1.8251792739	-1.1001542449	 0.124318
H	-0.8914462095	 1.8964480717	 0.5688465304	 0.125725
H	-0.8512165127	-0.5423985398	-0.2849855968	 0.113656
H	 1.3116357319	-1.6520881945	-0.6994374236	 0.137444
H	 2.2115213098	-0.0797204454	-0.3917650711	 0.115828
H	 1.8722662413	 0.9865516478	 2.350124582	 0.108651
H	 1.4121252964	-0.5603406575	 4.4719807264	 0.129793
H	 0.1357296541	-2.6134158484	 3.7247914343	 0.259819
108.0953	143.1173	192.7848	199.7082	257.9046	317.5903	401.6292	450.8504	501.3884	568.378	606.6068	695.5876	724.3424	727.6138	822.6671	836.6823	869.5284	896.9694	918.4922	944.3701	1029.8568	1049.4941	1074.0902	1078.911	1129.2354	1136.8393	1174.0958	1195.8052	1266.5928	1308.8467	1375.849	1400.2411	1416.2581	1432.2797	1475.725	1490.9787	1503.5634	1645.5853	1818.1246	3033.787	3096.8675	3104.7151	3128.595	3147.3809	3223.5542	3239.5908	3262.8531	3672.2241
CC1CC11C=CNC1=O	C[C@H]1C[C@]21C=CNC2=O	
InChI=1S/C7H9NO/c1-5-4-7(5)2-3-8-6(7)9/h2-3,5H,4H2,1H3,(H,8,9)	InChI=1S/C7H9NO/c1-5-4-7(5)2-3-8-6(7)9/h2-3,5H,4H2,1H3,(H,8,9)/t5-,7-/m0/s1
