21
gdb 75290	2.53623	1.71347	1.17044	0.2958	88.75	-0.2253	0.031	0.2564	1115.9116	0.184831	-349.991779	-349.983822	-349.982878	-350.024343	31.577	
C	 0.3902078344	 1.3620385305	-0.0400130745	-0.493468
C	 0.0831896787	-0.1039936415	-0.0540722399	 0.335973
C	-0.123102991	-0.8606876598	-1.1333992428	-0.162034
C	-0.4796826046	-2.2868970346	-0.811697984	-0.273871
C	-0.2931480074	-2.3686969488	 0.7323857608	-0.054748
C	 0.970965151	-3.0672613635	 1.168065677	-0.066098
C	 1.765801976	-2.2979177063	 1.9076587222	-0.059211
C	 1.1874385968	-0.9261200464	 2.144527196	-0.273585
C	-0.0768403279	-0.8963706347	 1.2309117036	-0.110415
H	 1.3387447576	 1.5770233269	 0.4672547203	 0.124606
H	 0.452994839	 1.7678562967	-1.0534286226	 0.121085
H	-0.3833141168	 1.9217076966	 0.5025041363	 0.121252
H	-0.0726882211	-0.4930961578	-2.1540429276	 0.079066
H	-1.5122573196	-2.5146036474	-1.1097382697	 0.098253
H	 0.154949077	-3.009866955	-1.3406005789	 0.098344
H	-1.1683425556	-2.8406604403	 1.1941062366	 0.071489
H	 1.1803032458	-4.0950837648	 0.8886337734	 0.086802
H	 2.7194333765	-2.6047151934	 2.3245178227	 0.08737
H	 0.9265944586	-0.7848313989	 3.2020815896	 0.100579
H	 1.8988899017	-0.1273104919	 1.9020528829	 0.100404
H	-0.9364173688	-0.5158187358	 1.7965240886	 0.068208
61.3176	161.8557	220.6089	238.0528	274.2017	345.7935	449.0587	511.0549	556.3916	678.1561	703.6246	750.106	808.5413	816.0834	825.8936	862.1047	929.3335	953.2716	962.9922	977.4188	1003.6997	1009.9491	1033.6906	1056.7917	1062.9065	1072.1979	1131.7413	1172.3264	1178.4563	1189.0983	1234.4083	1261.931	1293.1984	1305.545	1325.5224	1328.5725	1352.3346	1377.54	1414.0723	1477.5934	1486.7085	1489.3433	1490.7746	1691.4663	1724.9732	3005.5426	3008.8381	3015.24	3021.1959	3031.2237	3039.3594	3045.962	3062.2685	3107.9557	3171.2514	3173.8905	3197.8933
CC1=CCC2C=CCC12	CC1=CC[C@H]2C=CC[C@@H]12	
InChI=1S/C9H12/c1-7-5-6-8-3-2-4-9(7)8/h2-3,5,8-9H,4,6H2,1H3	InChI=1S/C9H12/c1-7-5-6-8-3-2-4-9(7)8/h2-3,5,8-9H,4,6H2,1H3/t8-,9+/m1/s1
