14
gdb 51062	5.48832	1.08176	1.064	2.4623	65.16	-0.2326	-0.0112	0.2215	1101.4312	0.09961	-436.564318	-436.557364	-436.556419	-436.596393	25.944	
O	 0.0955838246	-0.0081514004	 0.1371766835	-0.25377
C	 0.1095839299	 1.1741099198	 0.2661100095	 0.15143
O	 1.0403751073	 1.9570770789	-0.3567597239	-0.230539
C	 0.9249850412	 3.3194041079	-0.1882667755	 0.403856
C	 2.0554887663	 4.3077332152	 0.0723007685	-0.181205
C	 1.2507034368	 5.3824403062	-0.6993979731	-0.041164
C	 0.1477315798	 4.4210641356	-0.9658845239	-0.139192
N	 0.1006193722	 5.2820596063	 0.2703082089	-0.165322
C	 0.8815845283	 4.2108341255	 1.0292299874	-0.102281
H	-0.5867132424	 1.7659816584	 0.8860051131	 0.10037
H	 3.1062107474	 4.1047107542	 0.2175793085	 0.117966
H	 1.5271331475	 6.3116757158	-1.1828234387	 0.108865
H	-0.6525961972	 4.408595553	-1.695866852	 0.113406
H	 0.8193256383	 4.0322922735	 2.0949024879	 0.11758
68.8879	137.9059	147.5646	352.2042	383.6706	458.545	660.2399	720.9426	767.5531	777.3161	807.6401	861.7985	871.501	882.3137	911.7626	955.5102	976.9621	996.2565	1020.0958	1036.0126	1047.8044	1111.4676	1122.1117	1131.5916	1188.9438	1237.1979	1277.4118	1307.2602	1398.5604	1427.485	1881.379	2990.427	3180.8027	3194.4685	3198.7135	3233.4599
O=COC12C3C4C1N4C23	O=CO[C@@]12[C@H]3[C@H]4[C@@H]1N4[C@@H]23	
InChI=1S/C6H5NO2/c8-1-9-6-2-3-5(6)7(3)4(2)6/h1-5H	InChI=1S/C6H5NO2/c8-1-9-6-2-3-5(6)7(3)4(2)6/h1-5H/t2-,3-,4+,5-,6+,7?/m0/s1
