17
gdb 29556	2.35891	1.75947	1.02036	3.0041	78.09	-0.2344	-0.031	0.2034	1142.0384	0.135974	-421.890042	-421.881533	-421.880589	-421.923125	31.389	
C	-0.0183757338	 1.5099385642	 0.0078437016	-0.472733
C	-0.0052642008	 0.01071496	-0.0155231245	 0.091809
C	-0.0313102891	-0.6947147571	-1.1615833109	-0.010102
O	-0.0208026299	-2.0459500293	-1.2260714871	-0.190999
C	 0.0185103144	-2.7382526466	-0.0644876021	-0.010101
C	 0.0479805168	-2.1717433986	 1.156152861	 0.091805
C	 0.0912825501	-2.9800642901	 2.4183497027	-0.472733
C	 0.0376919843	-0.705579272	 1.2679556958	 0.262119
O	 0.0630582848	-0.1249130323	 2.3483907605	-0.372105
H	 0.8691373978	 1.8904600127	 0.523469484	 0.146315
H	-0.0518088744	 1.932220951	-0.9999358192	 0.113322
H	-0.8809677935	 1.8743086488	 0.5748483413	 0.14635
H	-0.0635156322	-0.2595738754	-2.1534021687	 0.135534
H	 0.0230632027	-3.8058794011	-0.2495339461	 0.135534
H	 0.0950938977	-4.0539338845	 2.2137824712	 0.113322
H	 0.9815409761	-2.7262836517	 3.0026225054	 0.146328
H	-0.7686128911	-2.7419885278	 3.0525661552	 0.146337
102.7938	136.301	139.8418	254.3476	261.468	279.2618	294.4169	460.8605	466.9066	500.6545	501.537	583.8232	657.8172	799.3633	844.4013	896.9594	906.8534	938.8275	1008.0096	1052.5905	1063.8633	1067.224	1099.4736	1191.0124	1261.5858	1355.0866	1386.9755	1414.631	1416.361	1428.0876	1466.7343	1467.7192	1484.5172	1487.3673	1646.1503	1697.8959	1723.8803	3040.3256	3040.7994	3099.2991	3099.4449	3121.4666	3121.6804	3206.3855	3210.5987
CC1=COC=C(C)C1=O	Cc1cocc(C)c1=O	
InChI=1S/C7H8O2/c1-5-3-9-4-6(2)7(5)8/h3-4H,1-2H3	InChI=1S/C7H8O2/c1-5-3-9-4-6(2)7(5)8/h3-4H,1-2H3
