18
gdb 46416	4.07888	0.74661	0.66501	2.6425	79.74	-0.2463	-0.0295	0.2168	1645.9446	0.145671	-401.906643	-401.897309	-401.896365	-401.941793	33.67	
O	-0.0563479846	 0.0020505517	-0.1789293141	-0.283054
C	-0.0650612969	 1.1846361485	-0.0199187217	 0.381454
C	-1.1397441057	 2.2471341969	 0.2594766418	-0.284164
N	-0.044092089	 3.2244565137	 0.5064316645	-0.32513
C	 1.0162796051	 2.2816106745	 0.0374984107	-0.108214
C	 2.1785711313	 2.0689235781	 1.0003488886	-0.168903
C	 3.0401185006	 3.3387961312	 1.1499352385	-0.358661
C	 4.1502694581	 3.1641019611	 2.0773016925	 0.289993
C	 5.0583274485	 2.992467535	 2.845829615	-0.431765
H	-1.7681808687	 2.4425995596	-0.6202395223	 0.126079
H	-1.7916680161	 2.0639569899	 1.1204944523	 0.138073
H	-0.120792661	 4.0642807403	-0.0542954822	 0.2268
H	 1.3953660339	 2.5051057131	-0.9726458106	 0.094002
H	 1.7875494605	 1.7832126297	 1.9819170158	 0.117863
H	 2.7927643142	 1.2375357584	 0.6385136276	 0.124138
H	 3.4283007222	 3.6373008857	 0.1664949627	 0.123852
H	 2.3973733605	 4.1593424466	 1.4925120943	 0.142985
H	 5.8634897673	 2.8520381858	 3.5233975666	 0.194651
60.9696	83.7211	89.2225	122.2311	196.0585	255.9144	344.7849	386.548	456.1769	522.8809	557.3468	617.3175	637.5348	656.7772	742.4556	787.8501	819.7502	914.08	950.2708	987.1797	1004.778	1038.9525	1057.8885	1088.9496	1101.4731	1130.1169	1201.0735	1216.1831	1259.4869	1305.3285	1309.5221	1353.5562	1369.4425	1384.8678	1472.4657	1474.3634	1486.5008	1914.3955	2239.9179	2979.9247	3013.6583	3015.4526	3050.4817	3053.3759	3071.6779	3100.7025	3507.0675	3551.7098
O=C1CNC1CCC#C	O=C1CN[C@H]1CCC#C	
InChI=1S/C7H9NO/c1-2-3-4-6-7(9)5-8-6/h1,6,8H,3-5H2	InChI=1S/C7H9NO/c1-2-3-4-6-7(9)5-8-6/h1,6,8H,3-5H2/t6-/m0/s1
