18
gdb 91878	2.40484	1.6857	1.08221	4.9562	72.27	-0.2497	-0.0002	0.2495	1116.0109	0.148871	-439.103307	-439.095323	-439.094379	-439.136004	30.523	
C	-0.0039552569	 1.5227332411	 0.0702822204	-0.398484
C	-0.01887484	 0.010443266	-0.075087157	 0.130166
C	 0.8127411604	-0.5005478695	-1.2511080444	-0.214653
C	 0.9194269764	-2.0176363601	-1.2146474936	-0.060288
N	 2.0989085429	-2.5371718903	-0.5156733783	-0.319963
C	 0.7604807512	-2.6783988518	 0.1096036333	-0.178986
C	 0.5891941741	-1.8546672295	 1.3555803464	 0.456961
O	 0.6049105892	-2.3300411443	 2.4578199425	-0.334059
O	 0.4603350441	-0.5166502924	 1.188505071	-0.245852
H	 1.0191736933	 1.8812840286	 0.2172167393	 0.133897
H	-0.4133762781	 1.9935922432	-0.8284922857	 0.118752
H	-0.6033582229	 1.8306133812	 0.9303813672	 0.135206
H	-1.0549275368	-0.336439081	-0.1958755039	 0.088801
H	 0.3418413188	-0.168718393	-2.182119657	 0.107701
H	 1.8167261875	-0.0662990059	-1.2099289882	 0.125838
H	 0.5632628874	-2.5628054874	-2.0846786078	 0.096242
H	 2.3781074078	-3.4377079457	-0.8969783445	 0.242152
H	 0.3316961816	-3.6718741291	 0.18411646	 0.116571
80.0285	129.9269	223.6774	228.2149	280.7106	399.3696	428.7137	444.7886	460.3314	540.9301	658.5423	749.8722	794.9273	822.8233	877.7115	891.5752	919.8422	942.1594	987.0666	996.3371	1047.4419	1101.396	1134.7607	1152.8623	1169.4051	1189.5367	1250.5097	1256.7275	1270.4575	1323.3017	1385.5514	1387.9461	1400.9646	1413.6615	1438.9867	1468.7455	1484.0331	1499.	1848.4582	3004.4138	3044.5502	3050.1186	3096.4252	3120.1124	3129.3426	3142.1315	3174.9994	3503.3737
CC1CC2NC2C(=O)O1	C[C@H]1C[C@H]2N[C@H]2C(=O)O1	
InChI=1S/C6H9NO2/c1-3-2-4-5(7-4)6(8)9-3/h3-5,7H,2H2,1H3	InChI=1S/C6H9NO2/c1-3-2-4-5(7-4)6(8)9-3/h3-5,7H,2H2,1H3/t3-,4+,5+/m0/s1
