15
gdb 102347	1.84423	1.50595	1.25411	4.2225	66.29	-0.3052	-0.029	0.2761	1104.5119	0.109192	-453.931589	-453.921403	-453.920459	-453.966989	34.104	
C	-0.0482971703	 1.376011927	 0.0619396936	-0.27437
O	 0.024306498	-0.0476119729	-0.0337786668	-0.256515
C	 0.6709643328	-0.5590541006	-1.1678092101	 0.073699
C	 0.6089508017	-2.0970843503	-1.0221361198	-0.111096
O	 1.249493284	-2.6453858473	-2.1444077148	-0.402862
C	-0.0154351838	-0.1453671985	-2.4199022516	 0.307385
N	-0.6024415718	 0.1947921204	-3.3539491187	-0.328677
C	 2.0890966194	-0.117736148	-1.2322971493	 0.307379
N	 3.1851034692	 0.2445486849	-1.2165900581	-0.328677
H	 0.9525043938	 1.8212152886	 0.1016599775	 0.147875
H	-0.6073372313	 1.8009426343	-0.7796655082	 0.147876
H	-0.577039844	 1.5813072321	 0.9929795789	 0.149958
H	 1.1031357658	-2.3483205553	-0.0744825258	 0.129716
H	-0.4525195735	-2.3687476917	-0.9523955525	 0.129718
H	 1.2266869801	-3.6044917128	-2.0820590643	 0.308592
99.3073	104.0133	119.8777	121.4642	152.3217	178.1856	205.2766	221.4312	278.2948	380.2894	424.0332	485.6154	529.3432	577.9615	670.2261	684.2266	922.0992	991.2704	1078.9171	1122.4999	1152.4518	1153.2732	1184.0901	1220.1083	1260.0134	1262.1619	1445.5926	1479.0495	1489.6464	1505.574	1518.3025	2361.4098	2365.3014	3010.9222	3024.2403	3059.5511	3094.3281	3152.0539	3845.0472
COC(CO)(C#N)C#N	COC(CO)(C#N)C#N	
InChI=1S/C5H6N2O2/c1-9-5(2-6,3-7)4-8/h8H,4H2,1H3	InChI=1S/C5H6N2O2/c1-9-5(2-6,3-7)4-8/h8H,4H2,1H3
