17
gdb 84318	3.20662	1.42104	1.09411	3.4079	74.96	-0.2394	-0.0512	0.1883	1082.779	0.136937	-421.842048	-421.834293	-421.833348	-421.874302	30.125	
O	-0.2324177416	 1.4849475102	 0.4072490389	-0.428738
C	-0.0033612264	 0.1241299642	 0.0388912682	 0.037797
C	 0.9287843936	-0.5563766536	 1.0140667088	-0.070315
C	 0.7813867462	-1.8073266711	 1.4585695563	-0.181535
C	-0.3524327904	-2.6692518005	 1.0414019208	 0.40987
O	-0.3264233037	-3.8748512094	 1.1991854983	-0.349118
C	-1.5169085417	-1.9755632624	 0.4196646416	-0.161304
C	-2.1482552542	-0.8111736606	 1.1732476415	-0.282656
C	-1.3563993848	-0.5446366802	-0.065592334	-0.031484
H	 0.5957109869	 1.9667262249	 0.3092116668	 0.284773
H	 0.4762205602	 0.0883485046	-0.9547666467	 0.087908
H	 1.7891987447	 0.0351005458	 1.3245010903	 0.101053
H	 1.5099172239	-2.2732779623	 2.1146299182	 0.113656
H	-2.1828778575	-2.6381216279	-0.1203016734	 0.10803
H	-3.2268500602	-0.7233167188	 1.1208723998	 0.126
H	-1.713811752	-0.5347343533	 2.1266773898	 0.134499
H	-1.9159046131	-0.2729209996	-0.954015405	 0.101564
77.5728	179.8626	250.6007	263.2522	288.7925	378.1512	425.7521	444.1583	523.1326	590.1076	705.141	724.7105	771.9471	806.7032	839.1755	886.9927	932.5416	970.0172	999.4327	1020.0886	1034.0091	1067.0667	1078.4017	1125.8347	1129.2126	1171.4892	1209.4878	1241.5776	1265.3047	1344.4594	1362.8127	1394.1446	1407.5013	1433.9696	1486.3752	1689.7607	1771.7632	2944.4084	3135.8631	3147.127	3166.2916	3186.8865	3188.7448	3236.7983	3811.033
OC1C=CC(=O)C2CC12	O[C@H]1C=CC(=O)[C@H]2C[C@@H]12	
InChI=1S/C7H8O2/c8-6-1-2-7(9)5-3-4(5)6/h1-2,4-6,8H,3H2	InChI=1S/C7H8O2/c8-6-1-2-7(9)5-3-4(5)6/h1-2,4-6,8H,3H2/t4-,5+,6+/m1/s1
