16
gdb 87311	1.95268	1.41195	0.97174	6.7963	74.55	-0.2741	0.0126	0.2867	1220.2796	0.124491	-396.937539	-396.928544	-396.9276	-396.971779	32.514	
N	-0.200103727	 1.4152628246	 0.1889543318	-0.508582
C	-0.0930053051	-0.0130640645	 0.1441646701	-0.057554
C	-0.7830869302	-0.7939114282	 1.2156300756	-0.309095
C	-1.3708135326	-0.8133781912	-0.1881415931	 0.161523
C	-2.6662591893	-0.0462494185	-0.4509887738	-0.429136
C	-3.8243413471	-0.6312675944	 0.2235277632	 0.278118
N	-4.7335047174	-1.0864232154	 0.7720897385	-0.303151
C	-1.1862971807	-2.0084208577	-0.9685438731	 0.250893
N	-1.0240831885	-2.9567850113	-1.6111324668	-0.334181
H	 0.3123586825	 1.7904294557	 0.9799722839	 0.24931
H	 0.1751936098	 1.8404785659	-0.6519905201	 0.246707
H	 0.8151211121	-0.4567045459	-0.2627361099	 0.116125
H	-0.3214339892	-1.701230204	 1.5841373698	 0.150314
H	-1.3538858522	-0.234633401	 1.949179975	 0.14577
H	-2.5223498611	 0.980566339	-0.0993732117	 0.17959
H	-2.8664456439	 0.000475917	-1.5262998493	 0.163349
47.7916	122.0588	149.5464	172.3901	245.7445	288.4668	316.282	390.6627	413.1604	461.6245	516.5335	573.972	589.1378	712.7292	806.0563	839.2856	895.8344	936.2977	948.918	952.9043	996.5754	1085.7469	1116.195	1166.2047	1202.6444	1268.3184	1285.5074	1313.2174	1338.293	1424.5501	1465.8838	1481.7367	1659.95	2350.6369	2365.1096	3052.8812	3098.2441	3106.6891	3147.0258	3242.464	3509.857	3587.9433
NC1CC1(CC#N)C#N	N[C@H]1C[C@]1(CC#N)C#N	
InChI=1S/C6H7N3/c7-2-1-6(4-8)3-5(6)9/h5H,1,3,9H2	InChI=1S/C6H7N3/c7-2-1-6(4-8)3-5(6)9/h5H,1,3,9H2/t5-,6+/m0/s1
