18
gdb 80710	2.3906	1.94297	1.51641	2.0563	75.22	-0.2148	-0.0226	0.1923	945.4994	0.149948	-401.959029	-401.951711	-401.950767	-401.990555	29.321	
C	-0.2099637054	 1.5659131374	 0.0323155238	-0.410306
C	 0.0368311652	 0.0617200491	-0.0297607326	-0.095138
C	 0.9019832852	-0.5211137536	-1.1974714981	-0.079724
N	 1.2679785248	-1.8741506967	-0.6950800741	-0.292189
C	 1.9315310852	-1.3908881782	 0.5404735491	-0.168832
C	 2.8904417281	-0.3687664873	-0.056852907	-0.065089
C	 2.27182091	 0.1485132087	-1.1197764849	-0.048871
C	 0.8370309643	-0.4886883626	 1.1763374823	 0.419687
O	 0.643131903	-0.2629661086	 2.3413671871	-0.336282
H	 0.7297229011	 2.1226894238	-0.0314587985	 0.121007
H	-0.8625807369	 1.8968501399	-0.7818999027	 0.112872
H	-0.687101462	 1.8255481818	 0.9818579279	 0.139566
H	-0.9318015039	-0.4577900337	-0.0298927141	 0.094782
H	 0.4166695852	-0.537041359	-2.173715826	 0.075285
H	 0.4225436054	-2.3944535916	-0.4564094464	 0.215881
H	 2.342258695	-2.1596911346	 1.1916687239	 0.088281
H	 3.8362598534	-0.087487424	 0.3835590869	 0.118001
H	 2.6102628123	 0.9443022991	-1.7684899765	 0.111068
118.1721	195.8011	224.6388	230.5032	399.8084	462.3713	495.7134	523.0411	635.5111	669.8409	716.754	767.4372	773.8334	832.1231	891.9126	898.545	911.0691	942.9398	952.0719	1012.2433	1038.2866	1051.4716	1059.464	1101.4265	1124.9608	1151.8088	1188.6943	1213.1104	1224.1685	1304.3171	1306.7277	1317.8657	1340.9888	1404.7195	1411.1427	1494.1045	1501.5313	1640.1106	1846.7236	3009.499	3037.6139	3107.4365	3110.2976	3115.4047	3145.9905	3222.8339	3248.4006	3446.1605
CC1C2NC(C=C2)C1=O	C[C@H]1[C@@H]2N[C@@H](C=C2)C1=O	
InChI=1S/C7H9NO/c1-4-5-2-3-6(8-5)7(4)9/h2-6,8H,1H3	InChI=1S/C7H9NO/c1-4-5-2-3-6(8-5)7(4)9/h2-6,8H,1H3/t4-,5+,6-/m0/s1
