18
gdb 31033	2.39641	1.34187	0.91089	2.6556	76.42	-0.1957	0.0352	0.231	1294.1488	0.148473	-435.310384	-435.30111	-435.300165	-435.344428	34.366	
C	-0.3793863686	 1.5339461454	 0.126254888	-0.36782
C	 0.1073720991	 0.0871676584	-0.0534934968	-0.29403
C	 0.8415173044	-0.4280564881	 1.1402060792	 0.272102
C	 2.1274316848	-0.8376746469	 1.2256513164	 0.15546
N	 3.1610665049	-0.9383801532	 0.304476873	-0.599226
O	 2.3467484701	-1.223674635	 2.5686462998	-0.210935
C	 1.1595512332	-1.004993825	 3.1603924599	 0.441126
N	 1.0910846023	-1.2292115167	 4.5150631526	-0.589029
N	 0.2226954511	-0.5443653088	 2.3905364369	-0.395486
H	 0.4657137515	 2.2175740734	 0.2562641281	 0.11246
H	-0.9526849382	 1.8634011766	-0.7458762384	 0.10523
H	-1.017038303	 1.6164265348	 1.0105618292	 0.134674
H	-0.7589508012	-0.5595154354	-0.243661556	 0.107141
H	 0.7655280958	 0.0098184963	-0.9243715049	 0.1128
H	 3.9667052263	-0.3697468263	 0.5449471406	 0.244918
H	 3.4761918464	-1.8920235806	 0.1569290668	 0.243384
H	 1.6911944878	-1.9685957491	 4.8505275557	 0.259859
H	 0.1402751232	-1.3037448799	 4.8461299701	 0.26737
62.6987	134.0266	188.9369	209.8912	220.469	281.0846	285.4165	312.1491	342.9838	422.3803	535.7578	595.8358	626.8757	663.1612	695.1813	755.2925	769.3115	796.6156	831.5078	962.82	1001.1305	1036.9821	1071.5802	1092.1924	1142.8112	1213.0665	1234.5417	1306.8647	1324.8525	1380.5825	1404.551	1446.4614	1478.3611	1494.8728	1509.2905	1600.8567	1656.35	1673.273	1738.8376	3024.6627	3038.0883	3083.2928	3105.9788	3122.2919	3491.1111	3555.0348	3571.8103	3680.1141
CCC1=C(N)OC(N)=N1	CCc1c(N)oc(N)n1	
InChI=1S/C5H9N3O/c1-2-3-4(6)9-5(7)8-3/h2,6H2,1H3,(H2,7,8)	InChI=1S/C5H9N3O/c1-2-3-4(6)9-5(7)8-3/h2,6H2,1H3,(H2,7,8)
