19
gdb 102727	2.65169	1.08528	0.84962	4.2748	76.03	-0.2384	0.0285	0.2668	1368.5154	0.158634	-419.180735	-419.171136	-419.170192	-419.215925	34.116	
C	 0.6375810467	 1.4873960828	-0.4592478621	-0.329297
N	 0.4591187574	 0.0978721646	-0.0564597436	-0.289522
C	 0.6943730543	-0.866413854	-1.1225653889	-0.123122
C	 0.6931015325	-2.3080316485	-0.5701156758	-0.255553
C	 1.8740571809	-2.6913760345	 0.2984880952	 0.075363
C	 3.2220323525	-2.1163868897	 0.2055427973	-0.182295
O	 2.3430882099	-1.7567115407	 1.2804812296	-0.226826
C	-0.3607708505	-0.746745449	-2.1490453484	 0.308569
N	-1.1714689224	-0.6642902113	-2.9680239662	-0.32908
H	 1.627654048	 1.7051414504	-0.8988168189	 0.094099
H	-0.1226053247	 1.7604827757	-1.198330231	 0.145321
H	 0.501820493	 2.1310615528	 0.4134726878	 0.128224
H	 1.0809731881	-0.13929416	 0.7100004594	 0.247988
H	 1.6466387078	-0.6913213585	-1.6619487863	 0.096841
H	-0.2291117383	-2.4435987546	 0.0053649113	 0.143183
H	 0.6532982841	-3.0137863889	-1.4071857856	 0.132798
H	 1.8049379161	-3.7111204198	 0.6805720749	 0.109116
H	 4.0818854603	-2.717708775	 0.4949382142	 0.127883
H	 3.4374100842	-1.3209440119	-0.5043272228	 0.126311
44.3293	109.7869	136.1147	141.9592	188.6868	228.7035	250.5671	306.9881	359.359	399.4956	535.685	565.8947	594.1618	766.7578	801.4118	843.1801	873.8936	924.079	982.0213	1006.3562	1032.978	1090.9266	1102.6485	1146.1585	1159.3831	1164.0581	1174.873	1210.2247	1262.3433	1296.4601	1322.1657	1353.9535	1393.0395	1438.4806	1461.8588	1467.1227	1489.2626	1503.9014	1524.4363	1540.4523	2359.6863	2899.0588	2944.6277	3047.576	3070.3114	3090.6319	3096.211	3102.5563	3118.3699	3183.4593	3525.5384
CNC(CC1CO1)C#N	CN[C@@H](C[C@H]1CO1)C#N	
InChI=1S/C6H10N2O/c1-8-5(3-7)2-6-4-9-6/h5-6,8H,2,4H2,1H3	InChI=1S/C6H10N2O/c1-8-5(3-7)2-6-4-9-6/h5-6,8H,2,4H2,1H3/t5-,6-/m0/s1
