20
gdb 115232	3.92	0.96484	0.81221	4.1998	77.2	-0.252	0.0241	0.2761	1403.4342	0.17233	-440.30135	-440.292427	-440.291483	-440.335274	33.297	
O	-0.1095599422	 1.4712054534	 0.00484926	-0.423907
C	 0.0101655441	 0.058461424	-0.0749857167	-0.097683
C	-1.3881878034	-0.5431940347	 0.0074548381	 0.00938
C	-1.3735353543	-2.069384382	-0.1203923636	-0.235295
C	-2.8069596222	-2.603093895	-0.0194181261	-0.274828
C	-3.5657426173	-2.060986375	 1.1708853394	 0.379486
N	-4.4251725815	-2.7652749887	 1.7783571878	-0.502042
O	-3.3679416284	-0.7457475653	 1.4880594406	-0.256282
C	-2.0629587956	-0.1700125597	 1.3263480253	-0.073046
H	 0.7722224128	 1.8537803596	-0.0155306229	 0.291038
H	 0.4815739076	-0.2513492045	-1.0209922356	 0.091685
H	 0.6326205352	-0.3360198147	 0.7456930491	 0.088302
H	-1.982575751	-0.1209954648	-0.8139957835	 0.092187
H	-0.9229189438	-2.3807704571	-1.0690230206	 0.10121
H	-0.7564635177	-2.4981904944	 0.6810289082	 0.104018
H	-3.3615032364	-2.2986405347	-0.9175884014	 0.125907
H	-2.8442765676	-3.6923931425	 0.0261002061	 0.130383
H	-4.8576366785	-2.2117829423	 2.5219804166	 0.215966
H	-1.4304099501	-0.4933481152	 2.1676118475	 0.097584
H	-2.2057843297	 0.9077565137	 1.4051380717	 0.135935
70.0941	110.3837	164.128	184.6669	222.1355	266.1499	352.6309	412.2676	422.7743	484.0117	491.799	568.222	698.811	776.6804	829.8007	893.2099	926.8897	938.3914	966.0301	998.6285	1038.7922	1076.8936	1088.4871	1117.6632	1135.4694	1152.3757	1192.5264	1227.9995	1246.2938	1266.9554	1298.0912	1311.9543	1329.5746	1351.1995	1382.3413	1388.85	1429.1779	1458.634	1473.7059	1496.1028	1512.1594	1522.1282	1746.9781	2959.489	2988.0364	2991.4047	3014.5718	3024.1526	3031.7858	3069.748	3122.9645	3131.314	3454.0666	3834.6701
OCC1CCC(=N)OC1	OC[C@H]1CC[C]([NH])OC1	
InChI=1S/C6H11NO2/c7-6-2-1-5(3-8)4-9-6/h5,7-8H,1-4H2	InChI=1S/C6H11NO2/c7-6-2-1-5(3-8)4-9-6/h5,7-8H,1-4H2/t5-/m1/s1
