15
gdb 127194	3.42465	1.30046	0.94822	2.1708	74.11	-0.2112	-0.0744	0.1368	1158.6062	0.112873	-450.139564	-450.130978	-450.130034	-450.17313	30.253	
C	 0.0259974792	 1.436993607	 0.0146841785	-0.357044
N	-0.0011498772	-0.012580518	 0.0216702887	-0.136112
C	-0.0105836356	-0.7708516183	-1.1496804093	 0.441029
N	 0.002953816	-0.2921631971	-2.3321639977	-0.613813
N	-0.0366109599	-2.0649174814	-0.6374825542	-0.29164
N	-0.0429854027	-2.1297812458	 0.7177501809	-0.218162
C	-0.0213422081	-0.8814492808	 1.099662078	 0.272796
C	-0.01881056	-0.4537370516	 2.5095849788	 0.090151
O	-0.0367171055	-1.2092609026	 3.4497086978	-0.241772
H	 0.9237637012	 1.820123495	 0.5092196646	 0.142721
H	 0.0355905811	 1.7422433515	-1.0328026577	 0.187979
H	-0.8604426073	 1.8534983922	 0.502618261	 0.142723
H	-0.0078025593	-1.0183642027	-3.0416809447	 0.214907
H	-0.0500039203	-2.9160547407	-1.1719888469	 0.281697
H	 0.0013810583	 0.6479469933	 2.6483863623	 0.08454
97.8552	105.1903	132.4096	191.5103	209.4468	288.1983	302.7277	411.0811	412.3258	534.688	665.7008	675.2996	684.1873	727.3524	797.3536	828.7857	984.937	1020.2145	1056.684	1119.5425	1157.624	1207.4374	1247.1995	1363.3128	1394.4958	1407.1366	1453.4907	1491.9992	1500.8026	1508.3049	1577.4347	1754.5245	1807.5519	2907.2346	3039.3434	3102.1609	3149.2455	3544.3544	3686.1648
CN1C(=N)NN=C1C=O	CN1[C@H]([NH])NN=C1C=O	
InChI=1S/C4H6N4O/c1-8-3(2-9)6-7-4(8)5/h2H,1H3,(H2,5,7)	InChI=1S/C4H7N4O/c1-8-3(2-9)6-7-4(8)5/h2,4-5,7H,1H3/t4-/m1/s1
