22
gdb 119703	3.44356	0.92387	0.83804	1.7228	82.12	-0.2231	0.0789	0.302	1469.2624	0.193756	-404.300827	-404.291123	-404.290179	-404.335756	36.123	
C	-0.0988238062	 1.3989434963	-0.3194256246	-0.429112
C	 0.053398833	-0.0246020394	 0.1661652939	-0.024705
N	 1.2662695623	-0.8590274681	-0.018191982	-0.194228
C	 2.4542626019	 0.0356385721	 0.2159881412	-0.147177
C	 2.0022977406	 0.390568945	 1.6525282356	-0.319101
C	 0.7660815004	-0.4786395199	 1.3835459252	 0.33396
C	 0.1984275578	-1.4912988279	 2.3430774307	-0.324893
C	 1.2135041629	-2.5369253948	 2.8211373986	-0.061301
O	 0.6407289585	-3.4784764854	 3.7156086212	-0.418558
H	 0.700909794	 2.0627669635	 0.0145872212	 0.122845
H	-0.1274563253	 1.4297613067	-1.4142801096	 0.127702
H	-1.0438911353	 1.8124270504	 0.048081597	 0.122986
H	-0.8214112952	-0.6320110298	-0.0629657177	 0.088265
H	 3.3663733576	-0.5632407728	 0.181159114	 0.109757
H	 2.5497910023	 0.8552850659	-0.5027082106	 0.102816
H	 2.6640248116	-0.021018139	 2.4162216704	 0.112935
H	 1.8157422777	 1.4416908569	 1.8940561234	 0.101091
H	-0.2229322688	-0.9780777747	 3.2176938379	 0.109089
H	-0.6346446682	-2.0139498924	 1.8546360217	 0.090967
H	 1.6669839651	-3.0283146556	 1.9477957166	 0.10738
H	 2.022136466	-2.0593040518	 3.3839747509	 0.108399
H	-0.0145498427	-3.985533335	 3.225800145	 0.280885
60.8621	84.0696	119.0259	156.7981	256.0901	270.3379	291.4898	306.8625	336.2767	358.9076	490.555	569.7354	659.4846	719.5572	763.8082	784.6228	801.0506	858.0746	933.8005	958.1222	972.4362	1012.7151	1056.7375	1067.7778	1084.4466	1110.7287	1115.1909	1136.8385	1156.283	1190.3867	1219.6218	1239.4785	1279.178	1287.7232	1305.5228	1330.5387	1357.9701	1398.503	1412.0745	1420.4437	1455.3727	1470.8494	1481.7808	1503.2494	1504.2033	1515.0362	1518.8314	2999.7447	3013.7378	3038.2906	3049.5315	3050.2384	3058.1275	3079.172	3095.0675	3103.0015	3108.8585	3121.7102	3133.1057	3815.1227
CC1N2CCC12CCO	C[C@H]1N2CC[C@@]12CCO	
InChI=1S/C7H13NO/c1-6-7(3-5-9)2-4-8(6)7/h6,9H,2-5H2,1H3	InChI=1S/C7H13NO/c1-6-7(3-5-9)2-4-8(6)7/h6,9H,2-5H2,1H3/t6-,7-,8?/m1/s1
