18
gdb 37350	3.14866	1.86282	1.58171	2.9419	74.64	-0.2351	0.0143	0.2495	895.6822	0.151485	-401.929308	-401.922993	-401.922049	-401.959585	27.047	
C	-0.0189909602	 1.5277018107	 0.0165373506	-0.269451
C	 1.3858923935	 2.0918090441	-0.0412867084	-0.053179
C	 2.4593516531	 1.3078213082	-0.1461171465	-0.062443
C	 2.2482304026	-0.1928793917	-0.1995026607	 0.024073
O	 1.0197584838	-0.4598681689	-0.8823586194	-0.254133
C	 0.0116170672	-0.0158875009	 0.028424658	 0.072292
C	 0.505583751	-0.5411784349	 1.3742545943	-0.050803
N	 1.1132574312	-1.8882998453	 1.2684684737	-0.341359
C	 1.9693956596	-0.6890417947	 1.2238410774	-0.046503
H	-0.5449113195	 1.9062890654	 0.9037662521	 0.102609
H	-0.5934994382	 1.8849616261	-0.8485372916	 0.114534
H	 1.485464056	 3.1741831324	-0.0235258838	 0.091419
H	 3.466488723	 1.7111709662	-0.1829580146	 0.087845
H	 3.0407728585	-0.7246160859	-0.7310780149	 0.087392
H	-0.9361716989	-0.4505173085	-0.2995861899	 0.086074
H	 0.0391360635	-0.2194638427	 2.2989490962	 0.08939
H	 1.1704837772	-2.2898626937	 2.2022782189	 0.2296
H	 2.6645243864	-0.468532206	 2.0261207486	 0.092643
207.6043	255.7887	340.5697	417.7167	484.3246	492.9364	553.6253	683.9714	717.5415	774.6866	810.249	856.058	865.0745	873.6182	885.2287	911.3651	941.7239	971.2995	982.8173	1012.8255	1024.4259	1032.1562	1065.5863	1083.2518	1136.768	1152.435	1181.5039	1197.8409	1235.5073	1263.0476	1299.6015	1318.6494	1340.7849	1363.2975	1367.6223	1397.3033	1422.2386	1468.7891	1702.5625	3012.2229	3039.2539	3081.1	3089.9075	3153.0549	3170.3018	3180.7555	3183.428	3491.6312
C1C=CC2OC1C1NC21	C1C=C[C@@H]2O[C@H]1[C@H]1N[C@@H]21	
InChI=1S/C7H9NO/c1-2-4-6-7(8-6)5(3-1)9-4/h1-2,4-8H,3H2	InChI=1S/C7H9NO/c1-2-4-6-7(8-6)5(3-1)9-4/h1-2,4-8H,3H2/t4-,5+,6-,7+/m0/s1
