21
gdb 79234	2.05171	1.68491	1.59156	1.8497	82.19	-0.2357	0.0702	0.3059	1046.6399	0.181751	-387.050037	-387.041184	-387.04024	-387.082739	34.908	
C	-0.0807996019	 1.5744988	-0.1243374176	-0.527166
C	-0.0186860621	 0.0871270623	 0.0035276438	 0.279548
C	 0.291214988	-0.9999303381	-0.9947951383	-0.119175
C	 1.3567317387	-1.6251070082	-0.0974646975	-0.282433
C	 0.6405021575	-0.9086150663	 1.0793881649	 0.2373
C	 1.3529505532	-0.534828307	 2.3500129154	-0.505575
C	-0.7423296351	-1.6362448655	 1.1437826348	 0.120125
O	-1.5965044527	-1.1815636888	 2.1743911846	-0.446505
C	-1.0334249342	-1.0224131606	-0.2188554454	-0.165823
H	 0.9203884724	 2.016485271	-0.1929719317	 0.123255
H	-0.6291988419	 1.8612881825	-1.0287158914	 0.124773
H	-0.5868116421	 2.042501971	 0.7289134901	 0.113492
H	 0.288735729	-0.9159796065	-2.075106645	 0.082639
H	 1.4344496735	-2.7183737668	-0.0440690128	 0.086435
H	 2.3462883836	-1.2007938483	-0.2943240937	 0.094497
H	 2.1673150245	 0.1738067168	 2.1645705039	 0.111988
H	 0.6599348301	-0.087407017	 3.0697453584	 0.119391
H	 1.7868276468	-1.4238287172	 2.82352751	 0.120284
H	-0.7162716658	-2.7275389996	 1.2438664743	 0.07324
H	-1.800920358	-0.2567688705	 1.9933908671	 0.277249
H	-1.9882590634	-0.9672384831	-0.7289919639	 0.08246
145.7578	175.3443	192.0513	196.8661	234.8867	275.908	325.3979	370.5882	416.6454	443.2841	530.1024	601.821	644.5477	720.8092	785.8453	842.3482	856.0638	874.8632	897.04	958.3256	994.06	998.2479	1010.4918	1013.6078	1079.0908	1105.7716	1127.0223	1133.8088	1165.9236	1190.1099	1225.2559	1236.8373	1249.5273	1286.9834	1293.6601	1336.2191	1407.9295	1410.2781	1429.3306	1449.2716	1482.2591	1486.846	1492.4483	1498.0677	1504.8574	3014.384	3019.7928	3024.9271	3044.0903	3069.7291	3080.5121	3084.9996	3086.7714	3100.7905	3177.3001	3187.5725	3792.1614
CC12C3CC1(C)C(O)C23	C[C@@]12[C@H]3C[C@]1(C)[C@@H](O)[C@@H]23	
InChI=1S/C8H12O/c1-7-3-4-5(6(7)9)8(4,7)2/h4-6,9H,3H2,1-2H3	InChI=1S/C8H12O/c1-7-3-4-5(6(7)9)8(4,7)2/h4-6,9H,3H2,1-2H3/t4-,5-,6-,7+,8-/m0/s1
