17
gdb 75757	2.6414	1.26474	1.1315	3.1465	75.78	-0.2547	0.0104	0.2651	1145.5632	0.13572	-414.1897	-414.180333	-414.179389	-414.223681	34.363	
C	 0.2413463325	 1.3816474769	-0.2696726696	-0.420879
C	-0.0643678778	-0.097312776	-0.0534317117	 0.143691
N	 0.6776383903	-1.032262689	-0.923204694	-0.346943
C	 1.5853359726	-1.4041634259	 0.0602543143	 0.374873
N	 2.7167766323	-1.9604621565	 0.1269899889	-0.551493
C	 0.740931083	-0.7688559917	 1.1649377652	-0.096944
N	 1.4342582682	 0.0854866886	 2.0831934252	-0.516016
C	-1.5089715409	-0.3487239319	-0.0476721841	 0.254368
N	-2.6486785698	-0.5405334118	-0.0200830939	-0.338212
H	 1.3187376146	 1.5480175758	-0.2087164626	 0.13434
H	-0.1248652264	 1.7136440311	-1.2458355033	 0.127431
H	-0.2373383658	 1.9849191609	 0.5052939987	 0.148552
H	 0.8624105851	-0.8977952214	-1.9079346094	 0.247121
H	 3.0808548842	-2.22445847	-0.7893670736	 0.218453
H	 0.0979523131	-1.5059783432	 1.6546300801	 0.119277
H	 1.140687348	-0.063125191	 3.0393014795	 0.245744
H	 2.4326248968	-0.0839488049	 2.0264734802	 0.256637
74.1118	139.9518	150.9442	189.7111	202.6224	249.6939	258.9085	370.7315	408.7949	443.2403	469.8108	534.8237	600.7672	649.9624	682.2356	743.8106	826.1643	836.871	883.8451	908.4518	947.4129	1047.6064	1117.1372	1134.8713	1138.197	1190.6389	1225.7397	1278.5201	1323.1541	1344.1916	1408.0022	1420.2554	1474.9702	1485.3216	1664.3926	1805.1981	2351.2762	3050.0506	3066.1956	3126.3582	3141.5174	3472.4645	3528.5995	3590.4999	3616.212
CC1(NC(=N)C1N)C#N	C[C@]1(N[C]([NH])[C@H]1N)C#N	
InChI=1S/C5H8N4/c1-5(2-6)3(7)4(8)9-5/h3H,7H2,1H3,(H2,8,9)	InChI=1S/C5H8N4/c1-5(2-6)3(7)4(8)9-5/h3H,7H2,1H3,(H2,8,9)/t3-,5+/m1/s1
