20
gdb 80944	2.36797	1.34402	1.24078	4.1421	84.38	-0.2983	0.027	0.3252	1157.8299	0.170929	-365.990889	-365.982096	-365.981151	-366.023963	33.769	
C	-0.1251001486	 1.6172243224	-0.0084780106	-0.451202
C	 0.0280313072	 0.1045146514	 0.0092367372	 0.00648
C	 1.1881422987	-0.6177153245	-0.747965334	-0.065132
C	 2.1584442862	-0.1535258101	 0.3731478349	-0.28767
C	 0.8699673595	-0.6266362061	 1.1193380947	 0.322847
C	 0.6109275973	-0.664286384	 2.6003681461	-0.519803
C	 0.9122012166	-1.8687825448	 0.1494968635	-0.172697
C	-0.2969101399	-2.6512216359	-0.0513394165	 0.264911
N	-1.2469944331	-3.2950848409	-0.1968305998	-0.345178
H	 0.8113976931	 2.160372186	 0.1398534124	 0.119427
H	-0.5465766092	 1.9422744004	-0.9657445003	 0.125888
H	-0.8205387969	 1.9360959797	 0.7756397415	 0.124545
H	-0.950028106	-0.3582842063	-0.1585037755	 0.093976
H	 1.3722924871	-0.6401774871	-1.8220304476	 0.086678
H	 3.0566302282	-0.7590629787	 0.5249186944	 0.095164
H	 2.3979245045	 0.9079584533	 0.418726231	 0.103156
H	 0.6154941504	 0.3474551619	 3.0199135529	 0.126973
H	-0.3636970169	-1.1149645382	 2.8151823622	 0.137542
H	 1.3769208822	-1.2472355615	 3.1227491348	 0.124676
H	 1.7663519196	-2.5365706969	 0.2916694788	 0.109419
125.0627	143.2891	173.2251	195.4227	199.1481	297.8533	342.5386	358.821	457.9994	509.5151	540.2616	627.6528	636.3769	768.7808	773.4372	798.1515	881.7087	906.1358	936.9332	1003.4101	1019.5282	1021.5983	1062.9734	1089.854	1108.7279	1116.129	1131.7928	1175.4486	1199.6925	1215.4467	1225.4383	1247.1725	1312.5355	1374.9851	1409.9289	1412.6077	1434.2205	1487.4592	1489.0793	1496.3115	1500.2089	1536.6377	2346.7181	3030.5055	3037.604	3053.7648	3063.094	3076.4588	3094.2628	3099.2703	3102.5797	3117.2771	3118.1297	3145.7842
CC1C2CC1(C)C2C#N	C[C@H]1[C@H]2C[C@]1(C)[C@H]2C#N	
InChI=1S/C8H11N/c1-5-6-3-8(5,2)7(6)4-9/h5-7H,3H2,1-2H3	InChI=1S/C8H11N/c1-5-6-3-8(5,2)7(6)4-9/h5-7H,3H2,1-2H3/t5-,6+,7-,8-/m0/s1
