18
gdb 55003	2.43782	1.16239	1.1175	3.9096	73.85	-0.2427	-0.0377	0.205	1227.0922	0.144401	-439.09535	-439.08555	-439.084606	-439.131079	34.477	
C	-0.9309340754	 1.5453279999	-0.9891643835	-0.487517
C	-0.3990401745	 0.6327618517	 0.0983148105	 0.403749
O	 0.5524587055	 0.9266082777	 0.7834191584	-0.295338
C	-1.1618715199	-0.6593821928	 0.2655012448	-0.127687
N	-0.5704522825	-1.7296365948	 1.0656353945	-0.312423
C	-1.7705630803	-1.0920057608	 1.5843622404	-0.119434
C	-1.7028439886	-0.2698063942	 2.8571476035	 0.377706
C	-0.3965642171	-0.2227942431	 3.6073880839	-0.489153
O	-2.7152973229	 0.2783781066	 3.23237254	-0.306948
H	-0.3678707159	 2.4786143159	-0.9971288518	 0.149002
H	-0.8485746757	 1.0570607993	-1.9674862025	 0.142482
H	-1.9947622705	 1.7522118384	-0.825032952	 0.150656
H	-1.7583203824	-0.9359134816	-0.6026295552	 0.098136
H	-0.7761189855	-2.6377587855	 0.6587745267	 0.246051
H	-2.7344583381	-1.5880655867	 1.4800271465	 0.113012
H	 0.3946951017	 0.1560210373	 2.9554571799	 0.188604
H	-0.5103649779	 0.3999659476	 4.4953553033	 0.130247
H	-0.10336214	-1.2392882247	 3.8934402628	 0.138855
41.5316	56.6057	139.0162	153.6536	157.6646	199.3776	276.9807	284.9843	380.6686	475.6795	503.315	563.3093	610.8907	643.0988	721.5701	794.1626	851.0222	930.9224	948.5299	967.206	989.4668	1045.138	1053.8894	1091.4909	1159.6364	1182.1587	1187.5475	1221.2375	1275.3453	1380.2671	1388.4951	1399.1648	1452.4909	1460.3585	1469.2637	1470.6908	1475.9663	1801.8896	1814.4541	3033.6321	3044.8322	3093.3735	3116.0283	3116.4045	3128.2657	3158.3382	3161.3621	3513.2081
CC(=O)C1NC1C(C)=O	CC(=O)[C@H]1N[C@H]1C(=O)C	
InChI=1S/C6H9NO2/c1-3(8)5-6(7-5)4(2)9/h5-7H,1-2H3	InChI=1S/C6H9NO2/c1-3(8)5-6(7-5)4(2)9/h5-7H,1-2H3/t5-,6+
