13
gdb 5032	3.57443	2.35831	1.42086	4.784	65.47	-0.2031	-0.014	0.1891	798.7985	0.099037	-394.82476	-394.81853	-394.817586	-394.854934	24.341	
O	 0.0705755189	 1.3390135149	 0.0072046804	-0.426389
C	-0.0077764013	 0.003387145	 0.0006972539	 0.326066
C	-1.1655098483	-0.6891416687	 0.0038858813	-0.126192
N	-1.089574874	-2.0804895219	-0.0038202794	-0.291616
C	 0.1117731639	-2.7029916353	-0.0141258771	 0.092718
N	 1.2600236787	-2.1049627257	-0.0177512285	-0.332249
C	 1.274787485	-0.7149643785	-0.0105881011	 0.282377
N	 2.3219522823	 0.0331031029	-0.0128262782	-0.591119
H	 1.0412527604	 1.5005948486	 0.002338839	 0.306827
H	-2.1480762992	-0.2407014052	 0.0119978771	 0.136721
H	-1.9349863421	-2.6265582227	-0.0017038885	 0.271231
H	 0.0723816343	-3.7899376198	-0.0195650651	 0.129929
H	 3.1740957815	-0.5243553435	-0.0207353439	 0.221696
149.1921	308.2824	323.71	406.3958	446.0195	488.0659	557.573	593.426	593.5488	704.396	775.957	797.5603	822.9487	849.7625	938.7852	946.5843	1040.4141	1078.3937	1200.323	1259.0085	1313.3318	1361.1168	1426.0159	1481.4725	1545.1126	1635.8201	1667.1625	1728.0848	3160.8291	3241.8597	3467.6206	3508.3919	3655.1864
OC1=CNC=NC1=N	OC1=CNCN=C1[NH]	
InChI=1S/C4H5N3O/c5-4-3(8)1-6-2-7-4/h1-2,8H,(H2,5,6,7)	InChI=1S/C4H6N3O/c5-4-3(8)1-6-2-7-4/h1,5-6,8H,2H2
