17
gdb 37657	2.86352	2.69819	2.28454	0.0926	71.45	-0.2126	0.0783	0.291	727.0209	0.141748	-380.840776	-380.83586	-380.834916	-380.869706	22.698	
C	-0.0134100342	 1.5572460827	 0.0067407189	-0.205381
C	 1.526887608	 1.6796795571	-0.0013501573	-0.041141
C	 1.8907650105	 0.8213504341	 1.2133467132	-0.044397
C	 2.2823546454	-0.5246152452	 0.7283490454	-0.059771
C	 2.3124064052	-0.4693769469	-0.7735010349	-0.059772
C	 0.9231189913	-0.2321948935	-1.2359028812	-0.044396
C	 0.0454003655	 0.0132346002	-0.005455757	-0.041141
N	 0.8979618745	-0.2910488713	 1.1972526559	-0.123622
N	 1.9117816243	 0.8838843713	-1.2197615539	-0.123622
H	-0.4786649471	 1.9629753696	 0.9088942155	 0.109264
H	-0.4835429654	 1.9830603414	-0.8835496	 0.109264
H	 1.9560640567	 2.6801929519	-0.0335371335	 0.077788
H	 2.166176944	 1.247199972	 2.1740146622	 0.09109
H	 2.8907802113	-1.2286981532	 1.2857963509	 0.09348
H	 3.0748939701	-0.9839965578	-1.3483410867	 0.09348
H	 0.5188586812	-0.5435082908	-2.1949337116	 0.09109
H	-0.8974490112	-0.5306332715	 0.0332496241	 0.077787
435.4522	518.9001	603.7143	620.2434	688.406	754.9196	769.4518	775.7222	788.2482	829.0262	838.7883	870.9178	898.6162	929.4384	936.1817	950.6652	968.9504	970.002	986.2546	1012.9579	1053.7232	1070.6487	1079.2859	1087.8265	1135.9477	1190.1792	1209.6299	1211.9251	1263.8391	1270.6149	1271.6034	1293.1952	1310.8301	1325.5159	1340.085	1393.3094	1485.8815	3065.173	3123.8856	3125.5639	3127.711	3145.2575	3148.2866	3165.0781	3178.2492
C1C2C3C4C5C(C1N34)N25	C1[C@H]2[C@@H]3[C@@H]4[C@H]5[C@@H]([C@H]1N34)N25	
InChI=1S/C7H8N2/c1-2-4-6-7-5(8(2)7)3(1)9(4)6/h2-7H,1H2	InChI=1S/C7H8N2/c1-2-4-6-7-5(8(2)7)3(1)9(4)6/h2-7H,1H2/t2-,3-,4+,5+,6+,7+,8?,9?/m0/s1
