19
gdb 37483	2.84105	1.72966	1.41441	1.6864	73.38	-0.2332	0.0833	0.3166	975.1331	0.161825	-422.988405	-422.981354	-422.98041	-423.019814	28.563	
C	 0.0159135001	 1.5029479502	 0.0723889544	-0.20412
C	 1.451932335	 2.013353226	-0.0246354781	-0.071363
O	 2.0164618616	 1.7278703195	-1.304881796	-0.266416
C	 1.970849323	 0.3854305982	-1.6927606671	 0.109178
C	 3.0045550623	-0.632375565	-1.1868640389	-0.015893
O	 2.7346023008	-0.9381801932	 0.190018028	-0.242077
C	 1.9279828121	-1.568430342	-0.8102998382	 0.012216
C	 0.815761662	-0.5658000417	-1.1647954016	-0.090075
C	-0.0180164812	-0.0336006787	 0.0137821572	-0.223393
H	-0.4364994874	 1.8536063221	 1.0067385558	 0.096565
H	-0.5624106392	 1.9375689605	-0.7525338892	 0.100391
H	 1.4897257508	 3.1026940928	 0.0653507669	 0.101547
H	 2.0676852435	 1.5787123854	 0.7745101151	 0.111096
H	 1.9838249065	 0.3801408089	-2.7881607094	 0.088206
H	 4.0140664046	-0.8151945058	-1.5380122117	 0.103379
H	 1.9117436277	-2.6517415241	-0.8250871641	 0.104904
H	 0.1867665021	-0.8972025919	-1.9941048835	 0.077584
H	 0.4049362567	-0.4194216716	 0.9468858672	 0.115724
H	-1.0499279611	-0.3938088395	-0.0478205967	 0.092546
120.397	147.3848	279.5734	315.5163	412.4067	440.8145	513.4255	589.9446	648.0454	735.4926	772.6027	839.3321	857.9444	865.9577	883.6609	912.9291	920.5462	949.8866	1008.3204	1017.3491	1052.91	1054.3725	1092.0437	1123.6189	1148.9455	1191.3575	1214.2187	1237.3595	1249.9318	1260.2745	1281.9265	1309.1552	1341.7195	1361.4877	1374.0614	1387.653	1391.0824	1420.792	1476.5513	1487.0105	1504.7575	3016.0738	3027.9796	3041.8057	3049.5108	3070.1383	3079.4803	3087.9603	3094.5814	3177.3338	3195.167
C1COC2C3OC3C2C1	C1CO[C@H]2[C@H]3O[C@H]3[C@H]2C1	
InChI=1S/C7H10O2/c1-2-4-5(8-3-1)7-6(4)9-7/h4-7H,1-3H2	InChI=1S/C7H10O2/c1-2-4-5(8-3-1)7-6(4)9-7/h4-7H,1-3H2/t4-,5+,6-,7+/m0/s1
