22
gdb 107667	3.04522	1.26922	1.06762	0.4326	81.95	-0.2177	0.0854	0.3031	1233.3894	0.195593	-404.325411	-404.31672	-404.315776	-404.358678	33.766	
C	-0.3845084063	 1.4795319965	 0.0252074804	-0.385839
C	 0.1830138015	 0.0544459661	 0.0632241307	-0.250137
C	 0.756565436	-0.4115253837	-1.2630857616	 0.309752
C	-0.1286635876	-1.0215559342	-2.2897694962	-0.281064
N	 0.7378864796	-1.8732157387	-1.4669294124	-0.139816
C	 1.8731976453	-2.516065286	-2.1515332191	-0.156934
C	 3.0807651208	-1.595515256	-2.3296134481	-0.084135
O	 2.6744753879	-0.3137424706	-2.7798847549	-0.238892
C	 1.974916272	 0.3621615091	-1.7538238352	-0.159893
H	 0.3902448964	 2.2236251959	-0.1870768392	 0.118157
H	-1.1575084276	 1.5760783868	-0.7447490063	 0.118905
H	-0.8350684739	 1.7432681763	 0.9866597833	 0.116316
H	 0.9637712103	-0.0128132242	 0.8331451003	 0.0938
H	-0.5983141873	-0.6540099789	 0.3559387141	 0.109171
H	-1.1963638683	-1.1253097168	-2.1075441459	 0.104081
H	 0.1496204552	-0.8811048932	-3.3324325387	 0.114808
H	 2.1723973175	-3.3964732136	-1.5690250524	 0.102873
H	 1.5361006695	-2.8768332419	-3.1298694339	 0.107312
H	 3.6317635131	-1.4947668035	-1.3796772353	 0.090163
H	 3.7697088613	-1.9977071373	-3.0780789763	 0.109029
H	 1.6804238893	 1.3330955439	-2.1637396587	 0.115182
H	 2.6514255455	 0.5482447339	-0.9003213547	 0.087161
80.0927	123.3729	161.9766	221.0224	268.6872	342.8349	364.9197	404.7238	420.4319	487.2056	542.0291	612.8683	744.6361	756.9326	792.3237	872.3791	886.426	908.7081	948.8035	986.4711	1002.7364	1043.5178	1058.069	1094.8657	1104.7822	1118.7869	1144.4467	1156.7183	1178.1713	1248.042	1265.2179	1274.735	1295.5638	1323.3084	1358.0303	1375.9042	1385.9568	1402.5603	1412.26	1432.2982	1483.8232	1490.0246	1495.3697	1500.6588	1504.2638	1508.4831	1511.8999	2945.9735	2968.7809	3018.5185	3021.2449	3034.4523	3060.5128	3072.2311	3075.7204	3086.7753	3088.8557	3103.143	3106.9364	3174.7119
CCC12CN1CCOC2	CC[C@]12CN1CCOC2	
InChI=1S/C7H13NO/c1-2-7-5-8(7)3-4-9-6-7/h2-6H2,1H3	InChI=1S/C7H13NO/c1-2-7-5-8(7)3-4-9-6-7/h2-6H2,1H3/t7-,8?/m1/s1
