19
gdb 120003	2.48158	1.04134	0.79826	3.3197	71.5	-0.2695	0.0085	0.278	1435.6523	0.158039	-460.190345	-460.180729	-460.179785	-460.225543	34.191	
C	 0.1408690214	 1.4997753971	-0.3023208556	-0.402377
C	-0.0667122784	 0.0533204442	 0.0865858494	 0.118954
O	 0.6456578855	-0.8628455027	-0.8247801738	-0.255597
C	 1.3825109816	-1.3942171792	 0.1993015883	 0.45999
O	 2.2407399512	-2.2168229644	 0.129698367	-0.33117
C	 0.7135380403	-0.5493426445	 1.2861215739	-0.218684
C	 1.6298061686	 0.3111558559	 2.1542989687	-0.228601
C	 2.3893799807	-0.5328561014	 3.1866606186	-0.072913
O	 3.2191326488	 0.2580486285	 4.0201427631	-0.417533
H	 1.2025770259	 1.7550601911	-0.3473297929	 0.131834
H	-0.2981790244	 1.6905711214	-1.28564489	 0.138095
H	-0.3467988597	 2.1599466361	 0.422247327	 0.12977
H	-1.1290328293	-0.2064127057	 0.0835136367	 0.100219
H	 0.0718269217	-1.1708843806	 1.9198938193	 0.113153
H	 2.3553468078	 0.84568263	 1.5288385972	 0.099189
H	 1.0426966816	 1.0714779496	 2.6820272503	 0.114622
H	 1.6747337385	-1.0246904968	 3.8566987062	 0.111878
H	 2.9549110654	-1.324941697	 2.6765335382	 0.124507
H	 3.9733818628	 0.5480391485	 3.4977530986	 0.284667
78.801	90.2791	95.6112	131.5086	214.3472	230.1799	277.591	290.0019	370.0028	399.0025	477.4958	545.2686	698.1342	746.4201	782.2955	847.7145	866.4368	886.5755	1003.8732	1046.2928	1048.658	1069.4292	1080.0556	1124.6879	1143.4991	1160.0785	1176.967	1230.9266	1290.4878	1312.1526	1325.2237	1366.9344	1386.4389	1406.7195	1414.5504	1421.3801	1481.3238	1491.4576	1497.2183	1515.3946	1923.4576	3013.1339	3028.9572	3045.852	3054.7213	3059.5245	3073.2931	3084.3019	3116.3475	3129.1373	3821.0945
CC1OC(=O)C1CCO	C[C@H]1OC(=O)[C@H]1CCO	
InChI=1S/C6H10O3/c1-4-5(2-3-7)6(8)9-4/h4-5,7H,2-3H2,1H3	InChI=1S/C6H10O3/c1-4-5(2-3-7)6(8)9-4/h4-5,7H,2-3H2,1H3/t4-,5+/m1/s1
