22
gdb 104912	2.07237	1.46266	1.00339	1.1767	89.91	-0.232	0.0384	0.2704	1297.4925	0.190835	-367.170625	-367.159888	-367.158943	-367.20573	40.221	
C	-0.409209468	 1.4766988602	 0.2126128769	-0.380713
C	 0.2499988594	 0.1319622299	-0.1111394825	-0.24957
C	 0.9148658893	-0.5004696311	 1.1093358912	 0.088608
N	-0.0186283323	-1.1005947544	 2.1051268496	-0.402247
C	 0.9016924541	-1.9905553625	 1.379224963	 0.270752
C	 0.2375557628	-2.9491031206	 0.4073787466	-0.44071
C	 2.0556483214	-2.6177248479	 2.1382762696	-0.471059
C	 2.0282503329	 0.2683941803	 1.6146590391	 0.311031
C	 2.9384312369	 0.9519063013	 2.0073636618	-0.460037
H	 0.3262526354	 2.2004457999	 0.5759534175	 0.125451
H	-0.889546586	 1.8972804225	-0.6758934028	 0.10858
H	-1.1724465507	 1.3489798928	 0.9861756496	 0.129047
H	-0.5031862405	-0.5545130292	-0.5027023498	 0.103809
H	 1.0071398797	 0.2598972134	-0.8938758963	 0.101866
H	 0.3290589885	-0.9238863874	 3.0454020466	 0.230557
H	-0.6932000377	-2.5471887817	 0.0073152704	 0.132495
H	 0.907236734	-3.1915053618	-0.424864949	 0.11812
H	-0.004497719	-3.885009636	 0.9235902633	 0.118121
H	 1.6880905077	-3.4440330898	 2.7577179678	 0.11845
H	 2.7986524112	-3.0297715765	 1.4466116552	 0.123688
H	 2.5618867962	-1.8959081032	 2.7821458128	 0.129572
H	 3.7449524149	 1.5459501618	 2.3598113695	 0.194191
79.2233	118.4243	146.8975	151.565	183.5993	217.2728	221.638	280.338	325.472	376.1788	389.8441	399.8292	481.1572	558.3012	581.811	597.3773	647.2207	658.1437	729.0016	788.3153	847.2629	940.0582	957.8493	964.673	1001.4374	1047.7864	1071.9615	1080.6834	1105.512	1146.8506	1169.4582	1257.4743	1306.6678	1328.24	1358.9167	1393.4473	1405.8228	1412.1393	1420.8995	1472.9696	1480.7856	1487.2949	1497.8612	1501.4998	1507.0775	1511.5876	2221.7306	3030.1263	3036.2943	3041.1025	3042.9139	3088.5516	3093.7969	3102.3623	3112.0641	3123.1875	3129.708	3146.0674	3490.2971	3501.0283
CCC1(NC1(C)C)C#C	CC[C@]1(NC1(C)C)C#C	
InChI=1S/C8H13N/c1-5-8(6-2)7(3,4)9-8/h1,9H,6H2,2-4H3	InChI=1S/C8H13N/c1-5-8(6-2)7(3,4)9-8/h1,9H,6H2,2-4H3/t8-/m1/s1
