15
gdb 25590	4.36529	0.90594	0.83957	2.0844	68.35	-0.2336	-0.0055	0.2281	1338.3112	0.113832	-454.000419	-453.992375	-453.991431	-454.0351	28.033	
O	 0.3735777725	 0.2255651307	-0.710426581	-0.266533
C	 0.3781139607	 1.4034549634	-0.5257505295	 0.175529
O	 0.8891635756	 1.9576194281	 0.5968906184	-0.189739
C	 0.9378433921	 3.3932089009	 0.6614329334	-0.210492
C	 2.2719595118	 3.8976768358	 0.2154636927	 0.331081
N	 2.5005863046	 5.0498896361	-0.3735263493	-0.300332
C	 3.8649890153	 5.1054362433	-0.5472334424	-0.089093
C	 4.4588601147	 3.9695124603	-0.0640518469	-0.10313
N	 3.4265589823	 3.2045252827	 0.4300965143	-0.262044
H	-0.0355754937	 2.1552839858	-1.2244710169	 0.094442
H	 0.1575013029	 3.8532713144	 0.046607937	 0.148072
H	 0.7352464876	 3.6396151337	 1.7083016175	 0.144916
H	 4.3372633199	 5.95431909	-1.0170319819	 0.113327
H	 5.4818485612	 3.6337870312	-0.0355792027	 0.134359
H	 3.4895279627	 2.2805052138	 0.8253665872	 0.279637
31.8394	43.7218	133.9331	201.3323	261.6267	362.6919	409.9159	572.9512	651.4629	668.4763	689.5429	744.4398	752.4778	861.0721	930.5753	985.7948	993.7051	1040.5731	1054.3642	1102.9287	1135.3053	1139.4607	1179.8772	1279.7085	1292.1833	1374.9546	1403.6007	1425.8704	1470.4833	1493.9675	1509.2097	1590.7854	1871.3193	2962.8854	3050.3052	3095.3589	3253.0887	3283.7096	3660.9837
O=COCC1=NC=CN1	O=COCc1ncc[nH]1	
InChI=1S/C5H6N2O2/c8-4-9-3-5-6-1-2-7-5/h1-2,4H,3H2,(H,6,7)	InChI=1S/C5H6N2O2/c8-4-9-3-5-6-1-2-7-5/h1-2,4H,3H2,(H,6,7)
