19
gdb 112418	2.03603	1.47716	0.98288	4.4736	71.36	-0.2593	0.0181	0.2775	1228.9238	0.159147	-460.210973	-460.202004	-460.20106	-460.244803	33.305	
C	-0.4767063801	 1.5106115605	-0.0213124765	-0.410724
C	 0.1558072353	 0.1296866689	-0.0330386081	 0.116869
O	 1.2333892791	 0.1228127167	-0.9984137792	-0.234317
C	 2.2087732123	-0.7581553788	-0.6344690491	 0.422594
O	 3.1646359947	-0.9718199946	-1.3212148268	-0.337764
C	 1.848152378	-1.3615155886	 0.7175030202	-0.365544
C	 0.787946628	-0.4017991201	 1.2743447264	-0.027667
C	 1.4255923446	 0.6815318233	 2.1458123747	-0.093558
O	 2.0314472821	 0.0255486239	 3.2491185425	-0.41956
H	 0.2494380074	 2.2833580407	 0.2432698709	 0.132696
H	-0.8741345366	 1.7467473522	-1.0117049861	 0.136232
H	-1.3030448307	 1.5431344575	 0.695667006	 0.123733
H	-0.5893961415	-0.600409491	-0.3780756227	 0.091472
H	 1.4441856826	-2.3653272679	 0.5441121789	 0.133468
H	 2.727398091	-1.4628582757	 1.3531889951	 0.152863
H	 0.0381539852	-0.9208668755	 1.8777205286	 0.090287
H	 2.1681905873	 1.2476554037	 1.5609298744	 0.102895
H	 0.6580828463	 1.3928219343	 2.4839921076	 0.094123
H	 2.506727765	 0.6807665403	 3.7680516133	 0.291903
81.5677	127.4706	145.8529	202.2476	252.2593	264.9647	289.8347	336.8582	429.2824	504.5562	526.1725	561.475	660.196	696.045	822.4144	852.7127	885.2158	949.0302	973.2949	1003.3082	1069.3172	1084.8761	1094.7573	1120.7027	1146.9999	1179.1793	1208.43	1231.9025	1265.9304	1289.7739	1318.2427	1362.0319	1377.0094	1394.1404	1418.1117	1459.28	1468.9822	1484.9707	1506.25	1526.62	1883.9559	2974.351	3005.468	3010.9791	3047.9714	3056.4399	3077.9896	3120.1427	3129.6184	3143.9337	3834.503
CC1OC(=O)CC1CO	C[C@H]1OC(=O)C[C@H]1CO	
InChI=1S/C6H10O3/c1-4-5(3-7)2-6(8)9-4/h4-5,7H,2-3H2,1H3	InChI=1S/C6H10O3/c1-4-5(3-7)2-6(8)9-4/h4-5,7H,2-3H2,1H3/t4-,5+/m1/s1
