17
gdb 49459	2.67721	1.28686	1.13754	3.9924	73.01	-0.2518	-0.0314	0.2204	1120.9774	0.135806	-421.853909	-421.846091	-421.845147	-421.886733	29.606	
O	 0.3197179952	-0.1812273046	-0.4668559275	-0.269218
C	 0.1851913957	 0.934978004	-0.0257875096	 0.147767
C	 1.2936035456	 1.913949595	 0.0634216703	-0.117034
C	 1.1059921351	 3.4147698943	-0.1650265882	-0.073468
C	-0.2920029769	 4.0033631347	-0.1551465864	-0.337534
C	-0.8698345152	 3.6819291082	 1.2353805602	 0.382281
O	-2.0176798072	 3.8166271245	 1.5632393743	-0.30192
C	 0.2646435813	 3.164114881	 2.1384877051	-0.337534
C	 1.4409527077	 2.9097527398	 1.215164329	-0.073468
H	-0.8075736687	 1.27653882	 0.3401307101	 0.087068
H	 2.2271302536	 1.5074044944	-0.3118947538	 0.112905
H	 1.8607990622	 3.8915249039	-0.7788560337	 0.10732
H	-0.2441582915	 5.0949577625	-0.2564654765	 0.139987
H	-0.9660837983	 3.6449105615	-0.937930482	 0.142771
H	 0.5115293609	 3.955617722	 2.8573090915	 0.139987
H	-0.0776969639	 2.3055025625	 2.7226210253	 0.142771
H	 2.4419914646	 3.0152669663	 1.6159182918	 0.10732
77.6996	98.6017	189.6454	227.3983	377.1282	395.0858	460.0015	468.6349	524.0587	628.985	652.8042	745.8678	771.7057	823.5512	841.7495	921.7602	948.3864	980.1151	1032.1209	1048.6698	1057.7983	1107.8102	1114.8641	1142.3388	1162.7573	1210.3793	1217.6525	1278.9076	1281.4062	1342.7774	1347.4717	1391.9309	1453.5786	1461.0932	1465.6514	1809.3435	1850.9345	2891.5712	3040.1525	3043.0708	3095.8295	3096.3184	3169.3608	3176.8526	3188.0413
O=CC1C2CC(=O)CC12	O=C[C@H]1[C@H]2CC(=O)C[C@@H]12	
InChI=1S/C7H8O2/c8-3-7-5-1-4(9)2-6(5)7/h3,5-7H,1-2H2	InChI=1S/C7H8O2/c8-3-7-5-1-4(9)2-6(5)7/h3,5-7H,1-2H2/t5-,6+,7-
