23
gdb 87678	3.3079	1.01388	0.93349	1.2673	86.75	-0.2454	0.0748	0.3202	1394.3496	0.203591	-388.276175	-388.266289	-388.265344	-388.310478	38.447	
C	 0.3492186452	 1.4341575361	-0.4652223151	-0.404099
C	 0.2537318417	-0.0429806277	-0.1533935556	-0.066727
C	 1.4834938576	-0.8264437887	 0.2571139352	-0.352324
C	 0.3904463413	-0.544856623	 1.2526771718	 0.390637
C	 0.5478252621	 0.2614265488	 2.5496339846	-0.341614
C	 0.0349445759	-0.9770761904	 3.3337277837	 0.428634
C	 1.139315704	-1.7794672578	 4.0126154265	-0.448148
O	-0.9767443224	-0.613745553	 4.2555173632	-0.479859
C	-0.4502368744	-1.6005030705	 1.9810153287	-0.367683
H	 1.0778880254	 1.92917175	 0.1850590994	 0.115565
H	 0.6622560879	 1.6025483369	-1.5017183534	 0.11472
H	-0.6145805319	 1.9362633827	-0.322760308	 0.116223
H	-0.4579827387	-0.5873243011	-0.771406788	 0.07826
H	 1.5992665989	-1.8411383931	-0.1121521909	 0.104354
H	 2.4175401986	-0.2803622151	 0.3597081871	 0.1045
H	 1.5446508764	 0.6283430663	 2.8103165706	 0.092797
H	-0.1705461678	 1.0825871682	 2.6290878012	 0.108999
H	 1.5632634088	-1.2123974184	 4.8474297824	 0.121384
H	 0.7478505949	-2.7279770619	 4.4028538558	 0.102254
H	 1.9428296857	-2.0192020839	 3.3094953358	 0.124298
H	-1.253631777	-1.4087225444	 4.7242934663	 0.27133
H	-1.5259693131	-1.4458185872	 1.8526911952	 0.098871
H	-0.2089414289	-2.6528262829	 1.8002909538	 0.087628
56.6271	141.2872	176.2219	196.8322	263.9293	269.4964	294.2293	322.9136	356.3894	375.5355	419.7756	444.2479	477.368	541.5138	702.8429	766.3886	846.0739	856.3163	873.8887	894.8663	912.4911	950.8492	954.6628	970.6966	999.3822	1039.8331	1077.172	1085.0238	1122.6996	1128.9553	1160.6868	1177.8537	1186.5921	1218.8707	1231.7404	1257.2137	1290.6626	1336.2002	1375.5419	1404.9522	1411.0179	1429.6303	1466.4688	1485.4588	1490.0286	1491.6929	1491.9791	1498.3456	1507.0209	3018.2576	3024.9588	3038.4057	3049.1936	3085.2047	3086.5245	3094.2215	3095.4023	3103.2161	3110.8759	3112.4539	3123.3252	3195.2427	3798.2517
CC1CC11CC(C)(O)C1	C[C@H]1C[C@]21C[C@@](C)(O)C2	
InChI=1S/C8H14O/c1-6-3-8(6)4-7(2,9)5-8/h6,9H,3-5H2,1-2H3	InChI=1S/C8H14O/c1-6-3-8(6)4-7(2,9)5-8/h6,9H,3-5H2,1-2H3/t6-,7-,8+/m0/s1
