15
gdb 50605	2.4058	1.48875	1.03425	3.0499	77.28	-0.2331	-0.0455	0.1876	1128.2264	0.110312	-420.599299	-420.590883	-420.589939	-420.632997	30.205	
O	 0.2784953533	-0.128614587	-0.1335170458	-0.232765
C	 0.0826289529	 1.0526367782	-0.0561585776	 0.148921
C	 1.1930293417	 2.1011246121	 0.0740029056	-0.093757
O	 2.4548222158	 1.5189899566	 0.2927361815	-0.247549
C	 3.2553321504	 1.6213167579	-0.8833612958	-0.112827
C	 2.5146345802	 2.5718057842	-1.7750499257	-0.220932
C	 1.3296967093	 2.8799852619	-1.2358987464	 0.162852
C	 0.318054572	 3.7308873698	-1.7294793598	 0.249047
C	-0.5725489543	 4.4519013556	-2.1020062474	-0.424943
H	-0.9415117814	 1.4896052799	-0.0887799417	 0.085487
H	 0.9327765378	 2.7634476206	 0.9149574095	 0.111978
H	 4.2532900512	 1.9871765303	-0.6043950796	 0.120941
H	 3.3844654985	 0.6333535417	-1.3526117454	 0.127879
H	 2.8979094769	 2.9381889879	-2.717775923	 0.1229
H	-1.3496770544	 5.0885726904	-2.4467389685	 0.202766
68.3728	89.0967	142.9961	172.3659	254.1241	289.7469	376.3369	499.0027	534.3978	584.2214	615.0576	650.9657	723.9424	780.7445	790.9432	838.8369	928.7819	947.9246	1019.2748	1025.3815	1047.3514	1138.7258	1184.1852	1199.9172	1251.3457	1272.7901	1340.9982	1377.6159	1413.2754	1511.6208	1679.328	1847.0507	2225.6584	2874.6094	2983.0401	2987.0404	3020.4798	3232.9915	3500.8142
O=CC1OCC=C1C#C	O=C[C@H]1OCC=C1C#C	
InChI=1S/C7H6O2/c1-2-6-3-4-9-7(6)5-8/h1,3,5,7H,4H2	InChI=1S/C7H6O2/c1-2-6-3-4-9-7(6)5-8/h1,3,5,7H,4H2/t7-/m1/s1
