19
gdb 20071	4.61131	1.44697	1.24954	2.2624	71.56	-0.2378	0.0825	0.3203	1011.8155	0.166986	-365.030801	-365.023206	-365.022262	-365.063848	28.107	
C	-0.2128981336	 1.0722826772	-0.3661667665	-0.223444
C	 1.2048460143	 0.6487242524	-0.1960857705	-0.223521
N	 0.111054437	-0.239293721	 0.1824321947	-0.064994
C	-0.1148187699	-0.4210246369	 1.6161473729	 0.012715
C	-1.5391306949	-0.9496724534	 1.861493789	-0.229248
C	-1.3295361834	-2.4621347481	 1.7647084154	-0.065678
O	-0.0820916176	-2.6908323381	 2.4073772615	-0.256258
C	 0.7683461776	-1.5767730468	 2.1510074749	-0.069667
H	-0.587622049	 1.8341314482	 0.316167117	 0.109918
H	-0.6750706074	 1.0759156896	-1.3490820272	 0.117824
H	 1.7973811719	 0.337717224	-1.0515001029	 0.11881
H	 1.7714572854	 1.1303701001	 0.5998546038	 0.109616
H	 0.0755316767	 0.5132724091	 2.1699807891	 0.055101
H	-1.8724896274	-0.6805671286	 2.8685183767	 0.102507
H	-2.255103865	-0.5563269804	 1.1363905478	 0.104941
H	-2.0880704153	-3.0524714905	 2.2861848361	 0.102768
H	-1.2959543693	-2.779595472	 0.7114858784	 0.100202
H	 1.5323801986	-1.8342435109	 1.4053821876	 0.101285
H	 1.2714977013	-1.3141410137	 3.0883724821	 0.09712
30.1525	96.5339	185.0713	235.0112	308.0854	357.881	483.0687	630.5915	736.2246	738.8805	829.578	873.7696	909.2912	920.0528	930.7031	941.0182	1004.6077	1018.0935	1023.8817	1094.1569	1109.1597	1115.5801	1118.8233	1120.3705	1173.3328	1188.7356	1200.8232	1236.2552	1252.1718	1292.3491	1319.9095	1328.8092	1362.9401	1374.2845	1410.0884	1476.1657	1489.7561	1506.6755	1517.2699	1521.8883	2952.5711	2991.6911	3013.0029	3057.0524	3060.5704	3089.4143	3091.7218	3096.2517	3117.7192	3176.2323	3190.2817
C1CN1C1CCOC1	C1CN1[C@H]1CCOC1	
InChI=1S/C6H11NO/c1-4-8-5-6(1)7-2-3-7/h6H,1-5H2	InChI=1S/C6H11NO/c1-4-8-5-6(1)7-2-3-7/h6H,1-5H2/t6-/m0/s1
