17
gdb 26509	3.71719	1.17526	1.02081	0.765	73.92	-0.2223	0.0161	0.2384	1174.5412	0.136204	-421.832136	-421.824233	-421.823289	-421.865213	30.54	
O	 0.2689294063	 1.3072541849	 0.4186205155	-0.458468
C	 0.0574715173	-0.0470245247	 0.0948302887	 0.296049
C	-0.737347813	-0.8741774775	 1.0779576346	-0.334214
C	-1.3842699663	-0.3608692423	-0.191895343	-0.287968
C	 1.1469077932	-0.6507631474	-0.710581595	 0.180614
C	 1.756533978	-1.8583358858	-0.5552617218	-0.1095
O	 2.7200701978	-2.0411249511	-1.4967676724	-0.148397
C	 2.7366064396	-0.9179863202	-2.2640307008	 0.008604
C	 1.8027929842	-0.0336711431	-1.8354831991	-0.293723
H	 1.0711609339	 1.353919323	 0.9513679813	 0.280756
H	-0.5382161892	-1.936590912	 1.1638966898	 0.11193
H	-1.006333605	-0.382157205	 2.0054068776	 0.117139
H	-2.0791654057	 0.4661294898	-0.1008294965	 0.124734
H	-1.6034037503	-1.0689954693	-0.9822244785	 0.119565
H	 1.6267485986	-2.6677253483	 0.1436347486	 0.135348
H	 3.4624618069	-0.9077286265	-3.0603593459	 0.136522
H	 1.5902092937	 0.9408161954	-2.245113683	 0.121011
37.3601	143.4755	183.4457	308.3604	333.7179	362.6097	428.786	520.7139	530.6285	620.5373	680.3461	738.2344	773.8909	790.9872	843.4955	857.487	892.4094	912.288	926.4546	969.101	992.8948	1045.7426	1056.301	1078.4122	1095.8915	1177.419	1190.2826	1197.6017	1248.1565	1263.4989	1329.3734	1380.1377	1402.2981	1448.4232	1492.8389	1543.0778	1633.345	3137.3532	3141.9561	3223.4329	3238.6196	3261.1985	3277.9015	3286.3899	3789.8299
OC1(CC1)C1=COC=C1	OC1(CC1)c1cocc1	
InChI=1S/C7H8O2/c8-7(2-3-7)6-1-4-9-5-6/h1,4-5,8H,2-3H2	InChI=1S/C7H8O2/c8-7(2-3-7)6-1-4-9-5-6/h1,4-5,8H,2-3H2
