17
gdb 62399	3.23555	1.5084	1.30302	1.5772	74.05	-0.2529	0.0288	0.2818	1005.5834	0.135083	-421.766323	-421.758252	-421.757308	-421.798595	31.546	
O	 0.0102123153	 1.4403671348	-0.0425153502	-0.490675
C	 0.0130380723	 0.0330879434	-0.0009669316	 0.245639
C	 0.9308048113	-0.5413956436	-0.9700149688	 0.276162
C	 1.7298209473	-0.9274368289	-1.7813500533	-0.428783
C	 0.0427430102	-0.6810296741	 1.3971414389	 0.016914
C	-0.9862904589	 0.1168380759	 2.2158841546	-0.229794
C	-2.126105233	 0.1368838855	 1.146420124	-0.232115
C	-1.3868479081	-0.6510212294	 0.0498104342	 0.030615
O	-0.7636997978	-1.7354905283	 0.7976950378	-0.297574
H	 0.8302650173	 1.7313079622	-0.4525515699	 0.29081
H	 2.4233789569	-1.2933344594	-2.4978927025	 0.198776
H	 0.9634328706	-1.0307909786	 1.86246985	 0.085169
H	-1.2620406932	-0.4195382396	 3.1256319075	 0.106536
H	-0.6280818782	 1.1143379371	 2.4762535096	 0.113473
H	-3.0221416534	-0.3974233047	 1.4675189877	 0.10745
H	-2.3987665842	 1.144187785	 0.8274779863	 0.118974
H	-1.9163345544	-0.9683073574	-0.8473529443	 0.088424
115.3774	148.1149	166.1609	267.4056	269.0827	360.6631	437.3037	503.4159	518.7686	572.2961	620.2551	669.6097	674.4092	751.6242	832.4342	857.52	872.4672	903.7942	922.6037	946.2743	992.4691	1022.6663	1042.0788	1068.5636	1121.2665	1185.8796	1190.3666	1229.1572	1241.915	1251.2758	1295.8898	1298.087	1324.5291	1391.5537	1467.7946	1489.8697	2234.2805	3077.0895	3084.5368	3126.4819	3134.0406	3139.8078	3141.7452	3499.5994	3834.1695
OC1(C#C)C2CCC1O2	O[C@@]1(C#C)[C@H]2CC[C@@H]1O2	
InChI=1S/C7H8O2/c1-2-7(8)5-3-4-6(7)9-5/h1,5-6,8H,3-4H2	InChI=1S/C7H8O2/c1-2-7(8)5-3-4-6(7)9-5/h1,5-6,8H,3-4H2/t5-,6+,7+
