17
gdb 84863	2.6391	1.71243	1.10295	1.2441	77.22	-0.2495	-0.0436	0.2059	1076.4022	0.137608	-418.043067	-418.034919	-418.033975	-418.076076	30.008	
C	-0.1118822968	 1.4854029081	 0.0133094217	-0.33588
N	 0.1408226963	 0.0406824365	 0.0014338184	-0.136229
C	 0.2847352981	-0.5753845452	-1.2532256629	 0.094797
N	 0.873961659	-1.6478197871	-1.5760418321	-0.23621
C	 1.6203673758	-2.3794094432	-0.5526057543	-0.230139
C	 0.7431412835	-2.8773243129	 0.5634870215	-0.076755
C	-0.026434927	-2.0776726996	 1.3045089846	-0.113435
C	-0.1161302218	-0.6054444431	 1.2190085589	 0.376715
O	-0.4555008028	 0.0578500514	 2.1838063592	-0.371048
H	 0.0411651918	 1.8776450437	-0.9928377799	 0.127295
H	-1.1277132401	 1.70409877	 0.3527790057	 0.149098
H	 0.5817454109	 1.9772458339	 0.6980786942	 0.153524
H	-0.184412904	 0.0038050907	-2.0503828407	 0.121414
H	 2.1233116258	-3.2170805647	-1.0406597546	 0.117044
H	 2.4049828019	-1.727251412	-0.1362141956	 0.123147
H	 0.7450553361	-3.9442178934	 0.7716615393	 0.113806
H	-0.6065398966	-2.4737989432	 2.1311077366	 0.122855
79.5114	120.6737	129.0116	235.176	312.2504	333.8433	394.658	410.9222	521.07	543.5341	654.0074	692.7381	738.9649	801.2067	852.7047	929.3869	970.627	986.8533	1015.1033	1037.4101	1063.0617	1121.7119	1151.4906	1222.4449	1247.0247	1288.8341	1328.1972	1370.2332	1407.3177	1430.8489	1470.8559	1478.0317	1492.9483	1509.6667	1695.0076	1740.9657	1751.4596	2977.7969	3055.4955	3092.5624	3112.0186	3125.7032	3150.1027	3161.582	3197.7297
CN1C=NCC=CC1=O	CN1C=NCC=CC1=O	
InChI=1S/C6H8N2O/c1-8-5-7-4-2-3-6(8)9/h2-3,5H,4H2,1H3	InChI=1S/C6H8N2O/c1-8-5-7-4-2-3-6(8)9/h2-3,5H,4H2,1H3
