17
gdb 80541	2.70686	1.56098	1.32354	2.9434	67.52	-0.2386	-0.0195	0.2191	993.4509	0.137087	-458.957511	-458.949963	-458.949019	-458.989174	30.219	
O	 0.1074375103	 1.5229580034	 0.1505707137	-0.440957
C	 0.0453602595	 0.1106915717	 0.0664233576	 0.114905
C	 0.1531910529	-0.6361398508	 1.4262320679	-0.17744
C	-0.9989970405	 0.005241826	 2.2405320285	-0.269205
C	-2.1243762556	 0.0651096849	 1.1413032478	 0.154947
O	-2.61252559	 1.3558268046	 0.8712988838	-0.445889
C	-1.3588528293	-0.5894669427	-0.0477407065	-0.240758
C	-0.6437220035	-1.7325684142	 0.6919263887	 0.428933
O	-0.6465137	-2.9265450266	 0.6549490594	-0.3185
H	 0.1465567248	 1.8750124208	-0.7445537734	 0.298665
H	 0.7613236776	-0.270381912	-0.6689234474	 0.097681
H	 1.105572237	-0.8189026316	 1.918694841	 0.090008
H	-1.2797570452	-0.599525492	 3.1058343289	 0.11684
H	-0.7492574367	 1.0109726136	 2.5854197675	 0.123213
H	-2.9961170142	-0.5320967446	 1.418889449	 0.100205
H	-1.8351340241	 1.8944430603	 0.6720897798	 0.281738
H	-1.894042913	-0.722213531	-0.9850363362	 0.085615
145.3143	198.9079	236.3817	299.8937	308.1104	352.6188	458.2253	518.6573	543.2264	584.9766	664.9349	701.9649	755.7668	783.8259	812.4905	841.4155	924.8867	945.7233	989.2269	1039.7448	1044.6504	1076.6802	1112.855	1113.2366	1151.4694	1154.3201	1172.933	1225.9831	1241.7901	1278.5214	1311.9966	1319.3417	1339.6542	1436.7444	1472.0751	1492.8872	1906.3132	3055.6801	3071.0716	3084.4162	3124.5713	3149.3831	3153.9165	3753.8257	3823.6236
OC1C2CC(O)C1C2=O	O[C@H]1[C@H]2C[C@@H](O)[C@@H]1C2=O	
InChI=1S/C6H8O3/c7-3-1-2-5(8)4(3)6(2)9/h2-5,7-8H,1H2	InChI=1S/C6H8O3/c7-3-1-2-5(8)4(3)6(2)9/h2-5,7-8H,1H2/t2-,3-,4+,5+/m1/s1
