18
gdb 37672	3.05295	2.36813	2.04715	1.7437	75.36	-0.2124	0.0811	0.2936	777.7564	0.152762	-364.770127	-364.764832	-364.763887	-364.799346	24.36	
C	-0.0365361879	 1.4561879583	 0.0561806163	-0.161921
C	 1.4249267083	 1.888657813	 0.0161407706	-0.056184
C	 2.1957766717	 1.5719544719	 1.2980919839	-0.083195
C	 2.0736115499	 0.072118745	 1.5346507555	-0.059522
C	 3.1119204884	 0.6099969894	 0.5774309533	-0.085128
C	 2.2236852288	 0.7260251076	-0.7028415541	-0.084141
C	 1.2205354814	-0.4374954448	-0.6785980014	-0.057943
C	 1.0086930671	-0.6983589726	 0.7742633656	-0.049181
N	-0.0348247222	-0.0135032799	-0.0224275542	-0.127276
H	-0.5479917491	 1.7863166713	 0.9674826453	 0.102748
H	-0.60314993	 1.827562312	-0.8054833377	 0.100174
H	 1.614956988	 2.8867657725	-0.3807480142	 0.071563
H	 2.4095916151	 2.261016776	 2.107096056	 0.081388
H	 2.383887844	-0.2920187123	 2.5063628976	 0.083828
H	 4.1817101653	 0.4643571627	 0.6519831955	 0.086079
H	 2.6932955029	 0.9450030479	-1.6592449381	 0.067489
H	 1.1596597194	-1.1783961425	-1.4690867697	 0.084674
H	 0.6993448189	-1.6627158957	 1.1656256699	 0.086547
317.8571	434.2442	531.079	628.5725	646.2146	710.752	721.5528	742.0766	782.3757	794.9837	808.9145	852.5711	872.6871	897.2595	907.4826	924.7557	973.1362	985.5558	1000.1206	1027.963	1037.601	1057.9695	1062.6098	1082.4931	1083.1984	1097.8996	1144.4003	1209.3951	1228.2467	1232.5195	1244.4486	1277.1712	1291.8333	1302.8132	1319.9367	1346.4255	1367.9404	1401.5992	1491.2605	3030.7964	3074.2364	3100.8188	3138.2676	3148.1161	3162.0898	3170.8984	3188.6349	3200.8962
C1C2C3C4C3C2C2C4N12	C1[C@H]2[C@H]3[C@@H]4[C@H]3[C@H]2[C@H]2[C@@H]4N12	
InChI=1S/C8H9N/c1-2-3-5-4(2)7-8(6(3)5)9(1)7/h2-8H,1H2	InChI=1S/C8H9N/c1-2-3-5-4(2)7-8(6(3)5)9(1)7/h2-8H,1H2/t2-,3+,4-,5+,6+,7-,8+,9?/m0/s1
