12
gdb 132331	1.963	1.84968	0.95233	2.9498	61.61	-0.2311	-0.0393	0.1919	1075.508	0.078093	-518.10249	-518.095678	-518.094734	-518.134013	25.893	
F	 0.0549981821	 0.0705882921	 0.002556068	-0.052771
C	-0.0241107885	 1.3891942215	 0.0104989894	 0.346919
C	-1.226939511	 2.0042366753	 0.030583232	-0.305239
C	-1.2895302771	 3.4496556844	 0.0389273772	 0.398053
N	-2.3747259777	 4.1218044178	 0.0576317513	-0.546851
N	 0.0163074587	 4.0281670837	 0.0236269475	-0.432334
C	 1.1360245074	 3.2782494813	 0.0040562156	 0.426073
F	 2.2444240408	 3.98994455	-0.0078994982	-0.046567
N	 1.1975800744	 2.0018913872	-0.0034657252	-0.402358
H	-2.1529488441	 1.4489378328	 0.0407174285	 0.137944
H	-2.2114194125	 5.1285304409	 0.0605539089	 0.204272
H	 0.1094586076	 5.034157083	 0.0275256951	 0.272858
156.7703	201.0698	220.3497	351.5315	361.3781	503.2029	539.5409	573.8501	613.6978	635.279	677.0444	686.0598	749.7058	795.6153	861.991	949.7064	1001.6913	1084.1823	1123.3115	1229.638	1290.2765	1305.3088	1428.6308	1510.9158	1650.3543	1689.0499	1747.4695	3251.5949	3477.8395	3612.0068
FC1=CC(=N)NC(F)=N1	F[C@H]1C=C([NH])NC(=N1)F	
InChI=1S/C4H3F2N3/c5-2-1-3(7)9-4(6)8-2/h1H,(H2,7,8,9)	InChI=1S/C4H4F2N3/c5-2-1-3(7)9-4(6)8-2/h1-2,7H,(H,8,9)/t2-/m1/s1
