19
gdb 37946	3.1442	1.65823	1.27921	2.0922	79.92	-0.2332	0.0064	0.2396	1011.595	0.162071	-385.824961	-385.818128	-385.817184	-385.855963	28.381	
C	 0.0209161613	 1.4470355463	 0.2993236182	-0.259494
C	 1.4141098461	 2.0340887527	 0.0250884751	-0.249059
C	 1.9268186328	 1.9422813642	-1.4158764182	 0.031701
C	 1.0715768192	 1.4914045094	-2.6366182719	-0.010681
O	 2.3331061238	 1.2923238376	-3.383587114	-0.306272
C	 2.5530774923	 0.6717345203	-2.0593193366	 0.013943
C	 1.1551444278	-0.0098185054	-2.2015778042	-0.007715
C	 0.4088220684	-0.6325921512	-1.0654431992	-0.077669
C	-0.0953115471	-0.0260821226	 0.0086411915	-0.079191
H	-0.2382034761	 1.6337310101	 1.3469325019	 0.101261
H	-0.724749471	 2.0001196408	-0.2909107915	 0.113842
H	 1.3941009692	 3.0935646273	 0.3051728605	 0.100775
H	 2.1431107183	 1.5596427152	 0.6943863023	 0.10541
H	 2.5278050358	 2.8175487159	-1.6758355909	 0.083846
H	 0.2641267202	 2.0090503378	-3.1574574125	 0.090255
H	 3.5239275352	 0.2086091106	-1.8728736259	 0.088969
H	 1.1445064755	-0.6583897462	-3.0807224992	 0.083188
H	 0.2622907639	-1.706175584	-1.162409401	 0.087387
H	-0.6375165456	-0.6277972289	 0.7341721657	 0.089503
153.5991	174.6889	323.457	354.0855	367.2921	498.7572	548.1968	621.5446	686.8119	704.1094	734.3537	811.5141	857.0232	872.9346	895.4668	898.8052	930.3729	958.4991	999.8748	1003.4719	1016.2551	1064.7333	1066.0014	1123.634	1135.3023	1171.2072	1185.7083	1208.2973	1239.3806	1247.0149	1254.005	1269.3892	1298.3805	1346.361	1369.8599	1387.3286	1421.1304	1431.2479	1480.5787	1488.1557	1727.8713	3000.19	3023.5048	3058.4081	3063.7985	3079.3857	3083.0175	3097.6312	3106.1797	3138.9036	3163.1374
C1CC2C3OC2C3C=C1	C1C[C@@H]2[C@H]3O[C@@H]2[C@H]3C=C1	
InChI=1S/C8H10O/c1-2-4-6-7-5(3-1)8(6)9-7/h1,3,5-8H,2,4H2	InChI=1S/C8H10O/c1-2-4-6-7-5(3-1)8(6)9-7/h1,3,5-8H,2,4H2/t5-,6+,7-,8+
