16
gdb 53029	4.18122	1.0127	0.90435	0.811	80.36	-0.2361	0.0153	0.2515	1314.7275	0.122898	-400.602677	-400.594615	-400.59367	-400.637421	29.523	
C	 0.0104790994	 1.4113423814	 0.0575752786	-0.518744
C	 0.0049252861	-0.0418955666	 0.0440082258	 0.374413
C	 0.002031946	-1.2466034377	 0.036472207	-0.382417
C	-0.0071565497	-2.6692272969	 0.0156614676	 0.47911
O	 0.5349037523	-3.4460925797	 1.1382323535	-0.358613
C	 0.0887539225	-4.4713478943	 0.2122315473	 0.030557
C	-1.1746703708	-3.6852337861	-0.2653553634	-0.130169
N	-0.8463323581	-3.7439720383	-1.7250276792	-0.34185
C	 0.5004831711	-3.6842359349	-1.0735549146	-0.13017
H	 0.5874901222	 1.8141145664	-0.7818925285	 0.155386
H	-1.0063995585	 1.8129712378	-0.0096735958	 0.155381
H	 0.4584767561	 1.7897407213	 0.9828130871	 0.15834
H	 0.219979368	-5.5188030844	 0.4829316812	 0.097509
H	-2.1881189449	-3.6760022329	 0.1360229782	 0.098568
H	-1.0194329283	-4.6857635655	-2.0849764593	 0.214132
H	 1.4453773566	-3.6738377299	-1.6170021055	 0.098569
13.0413	87.5238	107.8588	282.2193	299.3442	410.901	476.4398	485.3046	547.6515	563.8076	749.6271	770.4907	812.2824	847.3384	871.2964	890.8573	903.0107	988.1716	1028.1271	1047.3959	1051.9171	1055.211	1095.0109	1115.2046	1130.5742	1150.4169	1205.0976	1246.3597	1290.0698	1298.5125	1393.0023	1414.6077	1472.8613	1475.7091	2367.2782	3029.3503	3092.3256	3093.7489	3116.7475	3121.1775	3135.4638	3412.7581
CC#CC12OC3C1NC23	CC#C[C@@]12O[C@H]3[C@@H]1N[C@@H]23	
InChI=1S/C7H7NO/c1-2-3-7-5-4(9-7)6(7)8-5/h4-6,8H,1H3	InChI=1S/C7H7NO/c1-2-3-7-5-4(9-7)6(7)8-5/h4-6,8H,1H3/t4-,5-,6+,7+
