19
gdb 113144	2.14044	1.02034	0.7549	2.5428	81.74	-0.2485	0.0288	0.2773	1554.7546	0.155524	-422.982784	-422.972078	-422.971133	-423.020242	37.067	
C	 0.1298365241	 1.4761918259	 0.1251020967	-0.504969
C	 0.0284875318	 0.0271073808	 0.0386954963	 0.139788
C	-0.0695515749	-1.1720678564	-0.0235294189	 0.008692
C	-0.1069764631	-2.6134737626	-0.1223225195	 0.192822
C	 1.1703390827	-3.2560795971	-0.6270994781	-0.474016
O	-0.7304171998	-3.3068243098	 0.9845232579	-0.294093
C	-1.3957225069	-3.3256396578	-0.2853678711	-0.007318
C	-2.7394812251	-2.641235555	-0.3064160519	-0.103316
O	-3.6930849613	-3.3866851798	 0.4337357941	-0.417781
H	 1.1454782542	 1.816943715	-0.1032407667	 0.152653
H	-0.5529096524	 1.9663134877	-0.5775171021	 0.152636
H	-0.1202074367	 1.8277579928	 1.1320280976	 0.1561
H	 2.0046068608	-3.0057658355	 0.0345416861	 0.136542
H	 1.0606295067	-4.342745483	-0.6567884486	 0.12928
H	 1.4113713894	-2.8923195992	-1.630397674	 0.131091
H	-1.3655899297	-4.297114482	-0.7827918786	 0.094575
H	-2.6360533103	-1.6164492688	 0.0737331381	 0.103825
H	-3.1173663329	-2.5886589936	-1.3332088761	 0.110401
H	-3.3435546165	-3.4648844214	 1.3288660788	 0.293088
23.0977	60.7176	81.9881	121.5216	168.8532	198.7001	230.2734	291.5648	332.8458	354.1331	388.2824	420.3344	510.8016	552.247	599.9517	621.7068	760.0554	886.3118	915.5824	1021.4474	1045.0371	1051.6291	1055.0678	1072.061	1078.9947	1114.705	1121.9466	1222.4387	1271.2986	1335.0413	1366.1764	1407.998	1413.1976	1420.0014	1459.2222	1475.8986	1477.0909	1481.0404	1493.9612	1496.2219	2366.7281	3021.0826	3029.5251	3044.8051	3076.2212	3091.4838	3092.8986	3097.5449	3116.6011	3130.7898	3799.9916
CC#CC1(C)OC1CO	CC#C[C@@]1(C)O[C@H]1CO	
InChI=1S/C7H10O2/c1-3-4-7(2)6(5-8)9-7/h6,8H,5H2,1-2H3	InChI=1S/C7H10O2/c1-3-4-7(2)6(5-8)9-7/h6,8H,5H2,1-2H3/t6-,7+/m0/s1
