20
gdb 101296	2.18862	1.2409	0.90782	4.1722	77.02	-0.244	0.0078	0.2518	1333.0071	0.169184	-440.274242	-440.264284	-440.26334	-440.309531	35.697	
C	-0.0550483941	 1.7412457391	-0.263420452	-0.398924
C	 0.0917186268	 0.2157040619	-0.139222638	-0.035824
C	-1.2881448642	-0.4196822397	 0.1032727227	-0.068186
O	-1.2519302917	-1.8140325332	 0.3618683642	-0.412342
C	 0.7675743451	-0.3348589174	-1.3843969895	 0.012964
C	 2.2662782512	-0.2793711945	-1.525049232	-0.255489
N	 1.5796991307	-1.5368782623	-1.3830085766	-0.064472
C	 1.7900212849	-2.4516320284	-0.368106929	 0.118812
O	 2.8668680798	-2.6888082476	 0.1280664658	-0.300625
H	 0.9175391883	 2.2210165932	-0.4007533201	 0.127174
H	-0.6827076223	 2.0065938902	-1.1219559377	 0.123009
H	-0.520191061	 2.1658545971	 0.6316142718	 0.120185
H	 0.7305159063	-0.0078443081	 0.7277278078	 0.07984
H	-1.7949223439	 0.1179531452	 0.9181946276	 0.093281
H	-1.9069222013	-0.2981462853	-0.793973638	 0.114389
H	-0.9176997985	-1.9435907699	 1.2551307742	 0.288046
H	 0.17873653	-0.2081541149	-2.2942373459	 0.099743
H	 2.716714015	-0.0810958132	-2.4938732443	 0.125873
H	 2.8444559732	 0.0609542092	-0.6684518498	 0.132048
H	 0.8617297058	-2.9896469913	-0.1161608412	 0.100499
57.6906	86.505	131.4138	185.949	199.7664	212.4107	241.121	297.064	330.5654	358.9821	428.2446	451.5169	534.4634	653.0015	776.6532	850.2522	909.3435	933.3429	955.2293	992.6069	1045.5035	1057.2136	1084.1457	1099.1824	1113.0375	1117.5339	1136.7523	1160.6423	1196.4583	1225.8119	1309.7014	1332.5938	1386.8099	1397.6607	1405.468	1410.6955	1419.2162	1443.0944	1493.7471	1498.457	1504.2675	1515.2224	1786.3924	2994.3089	3004.2647	3013.3669	3034.7103	3062.4431	3094.8817	3101.2807	3104.1234	3117.0273	3191.061	3819.7769
CC(CO)C1CN1C=O	C[C@@H](CO)[C@H]1CN1C=O	
InChI=1S/C6H11NO2/c1-5(3-8)6-2-7(6)4-9/h4-6,8H,2-3H2,1H3	InChI=1S/C6H11NO2/c1-5(3-8)6-2-7(6)4-9/h4-6,8H,2-3H2,1H3/t5-,6+,7?/m0/s1
