21
gdb 113550	3.06491	1.01909	0.90925	1.9152	79.88	-0.25	0.0603	0.3103	1400.9126	0.180679	-424.200981	-424.191308	-424.190364	-424.235695	35.845	
C	 0.3764925638	 1.4844013915	 0.2141845036	-0.374179
C	-0.2700622696	 0.1504155444	-0.1792974773	-0.211409
C	 0.3808202347	-0.45692637	-1.3964121041	-0.019661
O	 1.6837235203	-1.0521994364	-1.2027922634	-0.307389
C	 0.6067777581	-1.8943447524	-1.562042594	 0.416513
C	 0.0519347162	-3.0767720841	-0.7611388987	-0.325634
C	-0.4544325791	-3.6611060141	-2.1140560806	-0.261854
C	 0.509834888	-2.6864638717	-2.8619948413	 0.046795
O	 0.0391891807	-1.9558296877	-3.9671392425	-0.430181
H	 1.4393493148	 1.3444283989	 0.4321624618	 0.133745
H	 0.2937464252	 2.2183611097	-0.5947462983	 0.116037
H	-0.1019625972	 1.9087476835	 1.1017838271	 0.111487
H	-0.2040688404	-0.5558030312	 0.6552444666	 0.10208
H	-1.3370793336	 0.29839233	-0.3923268446	 0.100163
H	 0.3125999543	 0.1339277936	-2.3110993545	 0.103137
H	 0.8528453241	-3.674573988	-0.3169213702	 0.114646
H	-0.6951052932	-2.8632956356	 0.0056697666	 0.110318
H	-0.3204206811	-4.730980362	-2.283230024	 0.097965
H	-1.4927176554	-3.3858439254	-2.3137395855	 0.112738
H	 1.4713939627	-3.1742424245	-3.0779636153	 0.077379
H	 0.1859534969	-2.4724083284	-4.7649165715	 0.287305
71.307	104.8788	138.8858	143.0933	211.5534	225.0311	256.1847	296.6881	405.1019	456.3489	499.8446	544.5685	569.003	718.8316	762.8719	798.4961	845.4343	875.2734	921.001	943.7718	958.8708	1020.2814	1052.2056	1084.5859	1090.7429	1111.1931	1151.7645	1163.2463	1174.5766	1205.0957	1212.1404	1246.0946	1264.753	1292.2374	1298.584	1337.9557	1371.3607	1408.6105	1434.4358	1473.1246	1476.6123	1487.6797	1498.1438	1506.6122	1526.4859	3000.524	3024.4057	3036.7156	3064.0675	3070.522	3071.9345	3102.9371	3109.6145	3114.8718	3116.5123	3133.4325	3827.7343
CCC1OC11CCC1O	CC[C@H]1O[C@]21CC[C@H]2O	
InChI=1S/C7H12O2/c1-2-6-7(9-6)4-3-5(7)8/h5-6,8H,2-4H2,1H3	InChI=1S/C7H12O2/c1-2-6-7(9-6)4-3-5(7)8/h5-6,8H,2-4H2,1H3/t5-,6-,7-/m1/s1
