23
gdb 96003	2.38948	1.37571	1.00434	1.6115	84.75	-0.2369	0.081	0.3179	1275.8174	0.20676	-388.283527	-388.274315	-388.273371	-388.317883	34.788	
C	-0.6785093081	 1.245153346	 0.159349742	-0.413624
C	 0.0342230822	-0.1004260946	 0.0493130383	-0.001266
C	 1.1313156779	-0.1434441353	-1.0349162926	-0.06999
O	 2.1293773485	-1.0631358514	-0.5937300716	-0.266628
C	 1.7163463743	-1.6460998468	 0.6388141766	-0.079683
C	 0.7977393521	-0.6093503807	 1.3019597936	-0.047742
C	 1.5914746237	 0.4558323575	 2.0351898586	 0.04764
C	 0.977613454	 1.2485803402	 3.161300848	-0.276697
C	 2.0369940481	 0.2158663538	 3.4567576239	-0.28139
H	 0.0178932729	 2.04694682	 0.4208508237	 0.122658
H	-1.1537376212	 1.5096586325	-0.7916824367	 0.112504
H	-1.4622268191	 1.2206164955	 0.9230111528	 0.11419
H	-0.7121105695	-0.8667182115	-0.1969014213	 0.075089
H	 0.7332237799	-0.4612230197	-2.0077326286	 0.093745
H	 1.5983721108	 0.8422824748	-1.1730654493	 0.092285
H	 1.1756658848	-2.5900896084	 0.4599025495	 0.079763
H	 2.6124260825	-1.8696512251	 1.2255361744	 0.105243
H	 0.1094963226	-1.0885533964	 2.0079903791	 0.06211
H	 2.3021946357	 0.9908712089	 1.410647311	 0.09164
H	 1.2351010112	 2.2974751125	 3.2602655997	 0.110725
H	-0.0441558742	 1.0171264282	 3.4447477935	 0.109213
H	 1.7240920869	-0.7058445167	 3.9375470352	 0.108676
H	 3.021787944	 0.5573462367	 3.7554988699	 0.111539
75.8229	87.5253	111.8151	166.667	234.9443	265.1818	292.5891	323.9761	413.3005	511.2747	617.5428	713.4787	768.3953	819.9973	838.2234	852.9453	917.9054	923.941	935.5727	946.7978	961.2318	996.7379	1049.1858	1059.9106	1065.4037	1079.3326	1085.4409	1139.4722	1144.6705	1174.7416	1196.0809	1199.7373	1212.8564	1226.486	1247.5427	1265.4292	1305.7334	1334.7459	1357.9371	1372.6671	1407.8169	1415.5202	1432.57	1470.6465	1495.5156	1498.1389	1506.4762	1517.1718	1532.5308	2963.544	2995.3818	3009.5319	3033.1167	3034.4102	3043.6411	3078.3056	3096.6431	3112.278	3126.122	3130.7363	3141.1868	3203.6298	3218.8891
CC1COCC1C1CC1	C[C@H]1COC[C@H]1C1CC1	
InChI=1S/C8H14O/c1-6-4-9-5-8(6)7-2-3-7/h6-8H,2-5H2,1H3	InChI=1S/C8H14O/c1-6-4-9-5-8(6)7-2-3-7/h6-8H,2-5H2,1H3/t6-,8+/m0/s1
