21
gdb 120540	5.97583	0.59525	0.57347	2.9521	80.5	-0.2456	-0.0192	0.2264	1904.611	0.180799	-424.219028	-424.208995	-424.20805	-424.255338	35.497	
O	-0.1472000812	 1.5298125773	 0.078833749	-0.418988
C	-0.0031815393	 0.1188156509	 0.0358710961	-0.072258
C	-1.3956697585	-0.4899628977	-0.0784577017	-0.199838
C	-1.384019307	-2.0116842159	-0.1155019092	 0.046073
C	-1.0173418597	-2.79190086	 1.1802077298	-0.254269
C	-2.2056875043	-3.7761962844	 0.9187139692	-0.086792
C	-2.748850645	-2.7530196415	-0.1341766772	-0.269714
C	-1.7612688567	-5.0693447311	 0.2949491818	 0.172646
O	-2.0692543614	-6.1682915896	 0.6801454071	-0.257922
H	 0.7273477847	 1.9202210128	 0.1643578964	 0.286361
H	 0.6100136683	-0.1946690912	-0.8255139848	 0.08444
H	 0.4966465124	-0.2583509438	 0.9432479938	 0.088298
H	-1.9987688651	-0.1424609932	 0.7701963445	 0.102254
H	-1.8739480026	-0.0966197293	-0.9842873552	 0.107903
H	-0.7591880154	-2.3541462807	-0.9491568614	 0.074425
H	-0.0174574523	-3.2298556365	 1.2445068679	 0.107025
H	-1.1934039091	-2.2004714105	 2.0832534144	 0.112592
H	-2.853849111	-4.002669352	 1.7665769122	 0.090921
H	-3.5549340574	-2.1478992215	 0.2894872251	 0.11337
H	-3.0885749622	-3.1585730827	-1.0911653222	 0.108323
H	-1.0936425372	-4.9445634597	-0.5928108458	 0.06515
45.3278	60.4917	97.5822	106.5436	156.3291	256.261	266.6551	293.8665	349.9707	382.8225	443.5343	477.3242	713.8524	789.7373	812.8844	871.6526	885.7817	894.801	957.4158	976.0495	1001.1301	1011.8924	1059.6827	1088.5677	1109.8072	1119.2053	1176.7098	1208.2893	1212.5704	1239.3089	1253.7747	1260.7119	1277.8493	1287.4094	1309.9316	1321.7066	1333.5389	1388.1592	1436.5322	1462.8802	1472.9442	1488.2337	1497.6482	1527.5705	1830.3357	2830.6546	2957.3504	2982.2326	3021.6251	3029.4067	3052.568	3056.8254	3067.155	3099.1347	3106.0801	3112.5925	3830.4833
OCCC1CC(C1)C=O	OCC[C@H]1C[C@@H](C1)C=O	
InChI=1S/C7H12O2/c8-2-1-6-3-7(4-6)5-9/h5-8H,1-4H2	InChI=1S/C7H12O2/c8-2-1-6-3-7(4-6)5-9/h5-8H,1-4H2/t6-,7-
