15
gdb 131063	4.0638	1.03364	0.88212	1.6729	67.24	-0.2629	-0.0138	0.249	1250.2923	0.113764	-453.96267	-453.954723	-453.953779	-453.996478	28.113	
O	 0.8507300822	 0.8178282839	 1.4353010493	-0.327645
C	 0.4424225654	 1.4015314665	 0.4516927276	 0.162154
N	 1.1474782769	 1.5646352126	-0.6979071775	-0.264416
C	 2.515822333	 1.0790441741	-0.8364858528	-0.288754
C	 3.5417611742	 2.0358228998	-0.2966760135	 0.381437
N	 4.3771176715	 2.6296529114	-1.1163746757	-0.199637
O	 5.1794692765	 3.4362556126	-0.3180162695	-0.162816
C	 4.7928816295	 3.2995067137	 0.9608294851	 0.080662
C	 3.7594987157	 2.4281346981	 1.056983313	-0.325564
H	-0.5671746888	 1.8517515475	 0.3893957042	 0.086453
H	 0.7733492952	 2.1662872901	-1.4144027247	 0.258515
H	 2.5759425571	 0.1318138295	-0.294489279	 0.155653
H	 2.7208299439	 0.8943884271	-1.8928084318	 0.138276
H	 5.3481425615	 3.8800168137	 1.6812782657	 0.15339
H	 3.2183585763	 2.0981370795	 1.9271606398	 0.152292
50.5657	69.7575	133.3991	227.5467	268.5274	335.6856	429.0461	508.5838	617.1164	659.3933	739.6222	790.1667	826.8396	889.9866	909.6355	939.7287	964.6243	1003.006	1031.7879	1033.4094	1077.3379	1153.8228	1205.4748	1282.9763	1296.4036	1386.2627	1425.719	1453.5877	1459.6035	1481.4496	1523.1279	1610.1449	1795.5953	2949.7771	3075.4666	3131.0747	3264.8796	3297.4358	3638.0056
O=CNCC1=NOC=C1	O=CNCc1nocc1	
InChI=1S/C5H6N2O2/c8-4-6-3-5-1-2-9-7-5/h1-2,4H,3H2,(H,6,8)	InChI=1S/C5H6N2O2/c8-4-6-3-5-1-2-9-7-5/h1-2,4H,3H2,(H,6,8)
