17
gdb 34382	2.65708	1.61648	1.31031	2.144	79.73	-0.2441	-0.003	0.2411	1021.9515	0.135964	-384.64506	-384.637359	-384.636414	-384.677256	30.059	
C	-0.0526984152	-1.1773017803	-0.2066766962	-0.427934
C	-0.0323551287	 0.0202045861	-0.1005075609	 0.259035
C	-0.0014436082	 1.4630919238	 0.0509576599	 0.253844
O	-0.3592381675	 2.1580066061	-1.182548676	-0.318874
C	 0.8274269347	 2.9785753016	-1.1112532374	-0.088721
C	 1.3671920033	 2.2208435884	 0.1192642241	-0.131346
C	 1.4057017092	 2.9693318791	 1.461330102	-0.284492
C	 0.0008197306	 2.7986364709	 1.9947854902	-0.065394
C	-0.7503749217	 1.9827172591	 1.2563739254	-0.133222
H	-0.0730373985	-2.2342847816	-0.3082305695	 0.196376
H	 1.4242383025	 2.8981284807	-2.0263483057	 0.108564
H	 0.5868906303	 4.0344971311	-0.9305644844	 0.099397
H	 2.2496750414	 1.6149779767	-0.0794710288	 0.09334
H	 2.1471367068	 2.5443071321	 2.1499929429	 0.115369
H	 1.6746243739	 4.0261838733	 1.3365573623	 0.111182
H	-0.3359879986	 3.2974832876	 2.8975365319	 0.103478
H	-1.7787552942	 1.7041172153	 1.4503389301	 0.109399
90.11	147.1466	162.1241	267.9229	347.8064	466.0103	494.4411	511.7242	567.4527	620.5533	658.5964	675.5103	747.2169	762.9786	829.5235	886.4069	923.397	942.789	979.4116	992.6566	1013.48	1057.0441	1078.5446	1096.7904	1133.4888	1159.0094	1170.7649	1201.0223	1243.6899	1316.1012	1321.0433	1347.3372	1380.6048	1483.6005	1519.3098	1675.2458	2233.1635	3012.3927	3020.724	3046.6262	3063.9416	3126.7982	3185.9116	3220.156	3500.7691
C#CC12OCC1CC=C2	C#C[C@]12OC[C@H]1CC=C2	
InChI=1S/C8H8O/c1-2-8-5-3-4-7(8)6-9-8/h1,3,5,7H,4,6H2	InChI=1S/C8H8O/c1-2-8-5-3-4-7(8)6-9-8/h1,3,5,7H,4,6H2/t7-,8-/m1/s1
