25
gdb 122355	3.11936	0.7116	0.66261	0.9891	90.61	-0.2492	0.0801	0.3292	1862.576	0.226839	-389.472684	-389.461299	-389.460355	-389.510109	40.378	
C	 3.9732018728	-0.1710951606	 1.4855736035	-0.226791
O	 2.9723821418	-1.0928341268	 1.1330305621	-0.231099
C	 3.0903740154	-1.5512854368	-0.1967272287	-0.043049
C	 1.959719708	-2.5365065112	-0.4742561217	-0.227437
C	 1.9830510532	-3.0430216701	-1.9025648988	-0.028574
C	 2.8134425201	-4.2338700442	-2.3520223275	-0.014942
C	 3.6981675271	-5.030761439	-1.4159248908	-0.407128
C	 1.300356006	-4.3268284741	-2.3337568096	-0.042679
C	 0.536474215	-5.2168281771	-1.3749342019	-0.403365
H	 4.9817779361	-0.607874525	 1.4027931187	 0.100421
H	 3.9414500964	 0.7312649404	 0.8534069374	 0.100563
H	 3.8009625859	 0.1214121615	 2.5245444557	 0.124221
H	 3.0403857453	-0.7017999798	-0.9011835591	 0.079837
H	 4.0694251467	-2.0365075708	-0.3519228987	 0.087058
H	 2.0325208542	-3.3530988602	 0.2492657681	 0.103165
H	 1.006738534	-2.031836881	-0.2717859043	 0.104322
H	 1.9231127098	-2.2346136038	-2.6293384675	 0.075144
H	 3.2461969618	-4.1307092158	-3.3446522528	 0.076882
H	 3.2821454656	-5.120981048	-0.4098967277	 0.118123
H	 3.8512439267	-6.047031159	-1.7966125102	 0.115139
H	 4.6856284987	-4.565119861	-1.3196598979	 0.115037
H	 0.8335770777	-4.27747313	-3.3150707949	 0.077823
H	 1.0016576183	-5.2795926946	-0.3886605456	 0.116807
H	-0.484864709	-4.847069193	-1.2298648232	 0.116526
H	 0.4639530126	-6.2376146099	-1.766963545	 0.113995
45.4428	79.5761	93.9159	113.9853	153.4459	162.4633	208.9973	220.4208	236.322	275.5204	334.7588	409.4348	461.9147	534.183	547.5873	739.7417	771.244	805.2925	858.3265	936.3426	946.7465	995.9172	1026.4982	1043.4161	1056.9021	1078.6868	1116.095	1139.0584	1161.1141	1162.9614	1175.5688	1190.4386	1193.7832	1227.7319	1243.163	1272.541	1304.0379	1311.2766	1378.7805	1395.876	1417.1453	1421.7548	1425.9037	1455.8135	1481.0928	1483.3703	1485.5831	1493.3012	1497.7768	1502.9599	1505.4874	1515.7074	1531.5886	2941.6857	2965.2499	2971.173	3005.2731	3028.9332	3031.9483	3036.1825	3081.7998	3084.5092	3088.5671	3106.0121	3109.4587	3110.8824	3119.9825	3123.788	3138.5684
COCCC1C(C)C1C	COCC[C@H]1[C@@H](C)[C@H]1C	
InChI=1S/C8H16O/c1-6-7(2)8(6)4-5-9-3/h6-8H,4-5H2,1-3H3	InChI=1S/C8H16O/c1-6-7(2)8(6)4-5-9-3/h6-8H,4-5H2,1-3H3/t6-,7+,8-
