19
gdb 88010	2.91472	1.31472	1.09976	3.267	76.27	-0.2549	0.0493	0.3042	1176.1154	0.157043	-422.974937	-422.966177	-422.965233	-423.009164	32.736	
C	 0.0047269898	 1.4749214139	-0.188625418	-0.417603
C	 0.0239660048	-0.0162643609	 0.0211546962	-0.026954
O	 1.308069587	-0.6616905623	 0.0056832162	-0.284014
C	 0.5898643207	-0.6443864568	 1.2222161547	 0.378717
C	 1.0864810361	-0.0113612885	 2.5317716533	-0.33306
C	 0.4837483023	-1.2244034303	 3.3144812927	-0.325145
C	 0.1444260091	-1.892859055	 1.9730582106	 0.365077
C	-0.8154356555	-2.9416371888	 1.6256497098	-0.269021
O	 0.595143281	-3.1919637842	 1.6334252674	-0.258697
H	 0.7811958993	 1.9646405475	 0.4043906134	 0.129244
H	 0.176289884	 1.7161418974	-1.2428023287	 0.132883
H	-0.9686591153	 1.8894570213	 0.0960382434	 0.121558
H	-0.7455396984	-0.5727298009	-0.5180049857	 0.088085
H	 2.1766200837	 0.038223852	 2.5799754769	 0.124972
H	 0.6753336577	 0.9708555954	 2.7754815364	 0.108234
H	 1.19477792	-1.791424609	 3.918133953	 0.12427
H	-0.3881920497	-0.9779330252	 3.9249650481	 0.110823
H	-1.3843700474	-3.4322950316	 2.4151681949	 0.114953
H	-1.2843033391	-2.949544704	 0.6421308857	 0.115678
27.3738	131.4737	169.7364	187.2487	243.4335	280.7658	341.3243	421.4694	470.4363	507.1391	584.7287	628.1583	748.0608	799.2263	841.7239	871.259	881.5716	927.0772	958.2832	968.3024	1028.522	1076.4661	1099.5609	1113.4747	1126.6617	1141.5376	1161.8817	1169.9295	1188.0926	1223.2406	1240.7128	1253.448	1349.0888	1408.448	1426.8113	1465.0975	1468.1531	1485.5976	1491.3705	1514.4292	1538.0659	3036.4513	3067.2725	3072.8336	3075.2538	3086.0445	3100.0776	3116.1409	3126.2452	3133.2892	3161.1339
CC1OC11CCC11CO1	C[C@H]1O[C@]21CC[C@]12CO1	
InChI=1S/C7H10O2/c1-5-7(9-5)3-2-6(7)4-8-6/h5H,2-4H2,1H3	InChI=1S/C7H10O2/c1-5-7(9-5)3-2-6(7)4-8-6/h5H,2-4H2,1H3/t5-,6-,7+/m1/s1
