19
gdb 22606	2.92607	1.22683	1.04744	2.2341	80.71	-0.2259	0.0099	0.2358	1215.742	0.157594	-419.125577	-419.116342	-419.115398	-419.159143	34.923	
C	-0.0686503378	 1.6032647601	 0.04544463	-0.414712
C	 0.0308296499	 0.0843715436	-0.0178863179	-0.127758
C	 1.0992667036	-0.5715395099	-0.9053219692	 0.489649
N	 1.3248137889	-0.6804114026	-2.1461725091	-0.276521
O	 0.4150486629	 0.0995544031	-2.8918638055	-0.395251
C	 1.7249726758	-1.2703980532	 0.2487277271	-0.234356
N	 2.0772507072	-0.1875929056	 1.2342534954	-0.365628
C	 0.6899890575	-0.6813823161	 1.166731557	 0.333108
C	-0.018744116	-1.267365632	 2.34698391	-0.50812
H	 0.8919531591	 2.0334612631	 0.3373236702	 0.13987
H	-0.349948274	 2.0048340364	-0.9312491008	 0.135578
H	-0.8247649815	 1.9138073261	 0.7748730768	 0.107369
H	-0.9406542535	-0.3624914026	-0.2632751205	 0.095626
H	 0.698882157	-0.0711837624	-3.7960333943	 0.305932
H	 2.2350460864	-2.2247768498	 0.2687927021	 0.10456
H	 2.5268312541	-0.6620913233	 2.0192324844	 0.226882
H	-0.3436299198	-0.4832523033	 3.0409972402	 0.133663
H	-0.9074239778	-1.8261113807	 2.035317979	 0.130052
H	 0.6342757578	-1.9518672509	 2.8995482752	 0.120059
86.7282	164.8484	196.8573	201.5101	216.217	243.8612	284.5988	340.8007	364.6521	430.0013	504.125	551.0649	625.6531	646.1943	702.9753	779.1434	816.9264	855.0255	943.1427	961.6633	991.8792	1003.5227	1054.0822	1089.5593	1102.9974	1119.1356	1138.1111	1170.1014	1203.1012	1293.6669	1311.141	1345.7845	1399.3899	1405.4987	1415.0047	1438.8471	1481.5924	1491.8788	1497.2937	1506.2282	1791.278	3024.0146	3037.2667	3041.6869	3086.5369	3098.1976	3111.2177	3135.9557	3204.1111	3449.2814	3821.3812
CC1C(=NO)C2NC12C	C[C@H]1C(=NO)[C@H]2N[C@@]12C	
InChI=1S/C6H10N2O/c1-3-4(8-9)5-6(3,2)7-5/h3,5,7,9H,1-2H3	InChI=1S/C6H10N2O/c1-3-4(8-9)5-6(3,2)7-5/h3,5,7,9H,1-2H3/t3-,5+,6-/m0/s1
