17
gdb 112222	2.09111	1.44123	0.94909	4.3312	74.64	-0.285	-0.0015	0.2835	1245.3689	0.135501	-418.024653	-418.015757	-418.014813	-418.058888	31.869	
C	 0.250344079	 1.525982478	 0.0388050082	-0.393737
C	 0.096739497	 0.0020069382	 0.0235076615	-0.198902
C	 0.4770182099	-0.5966209991	-1.3127335446	 0.131178
O	 1.9020746328	-0.4083793882	-1.6277440206	-0.258241
C	 2.1364514226	-1.7599118111	-1.6816952091	 0.448907
N	 3.1731408801	-2.4238825331	-1.8886495329	-0.525586
C	 0.6774837072	-2.1414335396	-1.4253602234	-0.331715
C	 0.390710642	-2.9578321305	-0.2598288463	 0.307746
N	 0.1451754757	-3.5922835239	 0.6740864466	-0.325181
H	 1.2824724241	 1.8132221984	-0.1802953966	 0.140559
H	-0.3977193973	 1.9994706452	-0.7065971576	 0.120048
H	-0.0151338777	 1.9304939157	 1.0189482153	 0.127248
H	 0.7122422728	-0.4525260063	 0.8075951258	 0.128946
H	-0.9410986393	-0.282596091	 0.2366573628	 0.122309
H	-0.1256318058	-0.1862070347	-2.1284145568	 0.107477
H	 3.9873174364	-1.8262285396	-2.0377589535	 0.240348
H	 0.2056325804	-2.5793135684	-2.3084464586	 0.158596
79.4761	95.4418	115.9475	148.7757	212.2747	254.0148	365.3699	392.847	457.8026	471.7464	565.175	655.8379	743.7145	795.8127	811.1133	866.9636	904.7487	923.0406	975.4069	1018.3977	1045.9822	1097.7424	1101.1887	1149.9003	1188.6771	1217.6619	1284.7321	1301.4001	1329.5546	1357.6911	1408.5575	1415.017	1473.0204	1498.7343	1508.0292	1834.6614	2364.8218	3037.799	3041.7804	3064.8883	3083.0047	3093.2934	3112.3769	3124.9343	3488.6948
CCC1OC(=N)C1C#N	CC[C@H]1O[C]([NH])[C@H]1C#N	
InChI=1S/C6H8N2O/c1-2-5-4(3-7)6(8)9-5/h4-5,8H,2H2,1H3	InChI=1S/C6H8N2O/c1-2-5-4(3-7)6(8)9-5/h4-5,8H,2H2,1H3/t4-,5+/m0/s1
