17
gdb 128170	2.49409	1.36717	0.92661	3.0467	73.1	-0.197	0.0098	0.2069	1260.4765	0.135513	-455.111838	-455.102634	-455.10169	-455.147325	31.811	
C	 0.2873441768	 1.1599117367	 0.3822244967	-0.326042
N	-0.4157466071	 0.1526651111	-0.4162762927	-0.402164
C	 0.3848994874	-0.6040347065	-1.2912447339	-0.003805
C	 0.6632315342	-1.9448333368	-1.2656864276	 0.478989
O	 0.2684613754	-2.8630983711	-0.3835666263	-0.276312
C	 0.6427640784	-4.2198865598	-0.6452462481	-0.25141
O	 1.406185718	-2.309937548	-2.3176150797	-0.22946
N	 1.6816704776	-1.1606888243	-3.0908640903	-0.175463
C	 1.0580318519	-0.1865451759	-2.4696312627	 0.023728
H	 1.0854106663	 0.7473725874	 1.0194720465	 0.108115
H	 0.738520703	 1.9027018254	-0.2822964111	 0.130784
H	-0.4367324701	 1.6789707131	 1.0162691564	 0.122487
H	-0.9490837028	-0.4658277198	 0.1825630726	 0.234885
H	 0.230294143	-4.5611775663	-1.5993419628	 0.146225
H	 1.7312364913	-4.3272079092	-0.6649643847	 0.146395
H	 0.2236355614	-4.8028437839	 0.1746489775	 0.142082
H	 1.1104235953	 0.8101148281	-2.8865243499	 0.130967
32.666	54.9904	156.0899	166.7601	170.9885	220.0377	282.252	318.0823	425.8881	551.1987	613.6005	635.8907	702.4494	714.2897	788.7645	895.7843	914.9871	937.6546	1028.1716	1059.4895	1140.1963	1155.5335	1176.7061	1203.2341	1214.3918	1230.202	1324.501	1418.4437	1458.7641	1471.3857	1485.787	1489.2831	1496.6236	1501.1776	1518.655	1549.7441	1702.8577	2978.8543	3041.8584	3076.5881	3114.1407	3115.6274	3157.9905	3236.6494	3554.2691
CNC1=C(OC)ON=C1	CNc1c(OC)onc1	
InChI=1S/C5H8N2O2/c1-6-4-3-7-9-5(4)8-2/h3,6H,1-2H3	InChI=1S/C5H8N2O2/c1-6-4-3-7-9-5(4)8-2/h3,6H,1-2H3
