17
gdb 40111	3.01866	1.63554	1.21214	2.4339	73.91	-0.2435	-0.0034	0.2401	1017.4934	0.136429	-421.762453	-421.75526	-421.754316	-421.794113	28.244	
C	-0.0583075264	 1.4917619339	-0.0112467292	-0.236349
O	 1.173961462	 0.7575833048	 0.0550647464	-0.284374
C	-0.040435258	 0.0275286252	 0.0201782921	 0.402989
C	-0.4709718888	-0.8137608712	 1.250605253	-0.340866
C	-1.6360274415	-1.618713162	 0.6827576788	-0.204331
C	-1.5163309717	-1.6736701198	-0.6405439185	 0.189002
C	-2.2520482624	-1.4673539229	-1.9403522199	-0.152063
O	-1.3144788996	-0.3839795423	-2.2446505911	-0.308319
C	-0.4058502245	-0.8373047804	-1.1826600264	 0.012607
H	-0.3194628614	 2.0462049468	 0.889154869	 0.114073
H	-0.2486061007	 2.0026522095	-0.9529803791	 0.132377
H	 0.3673030526	-1.4312405317	 1.5990349189	 0.125464
H	-0.7749291906	-0.1873243279	 2.0953480671	 0.115835
H	-2.4788422332	-1.9452294505	 1.280234696	 0.105879
H	-2.1691655456	-2.2718147387	-2.6821339145	 0.11252
H	-3.2904468824	-1.1258770044	-1.8791796464	 0.122938
H	 0.4747198822	-1.3204629584	-1.6251528563	 0.092618
92.3838	202.2841	258.8446	285.5471	333.1643	396.8223	489.1492	505.6604	644.536	747.7228	782.1443	832.5373	889.5984	890.4246	906.1173	922.0047	952.0889	954.6574	999.0646	1016.1163	1034.0544	1108.7985	1128.3838	1137.4082	1156.6221	1160.253	1208.9105	1231.3614	1277.984	1296.0886	1333.8706	1335.9342	1419.9683	1483.5619	1510.1307	1531.2861	1737.8317	3017.606	3023.4776	3026.6256	3076.3512	3078.6703	3087.0994	3179.6495	3202.6633
C1OC11CC=C2COC12	C1O[C@]21C[CH][C]1CO[C@@H]21	
InChI=1S/C7H8O2/c1-2-7(4-9-7)6-5(1)3-8-6/h1,6H,2-4H2	InChI=1S/C7H8O2/c1-2-7(4-9-7)6-5(1)3-8-6/h1,6H,2-4H2/t6-,7+/m1/s1
