23
gdb 73563	2.29635	1.81153	1.41272	0.184	87.59	-0.2386	0.0846	0.3232	1064.9343	0.208411	-351.144172	-351.136365	-351.135421	-351.175751	33.077	
C	-0.0243356879	 1.4767217274	 0.0094235866	-0.470365
C	-0.0063950621	-0.0463305237	-0.0426008259	 0.374662
C	-1.34992919	-0.6528448939	-0.5107709652	-0.285508
C	-2.0135968208	-1.1532407527	 0.7933121599	-0.1915
C	-0.8458432729	-1.6906681612	 1.6553719558	-0.242855
C	 0.3188721604	-0.7354280017	 1.3327656785	-0.033928
C	 1.650272538	-1.2467094531	 0.7466299845	-0.063199
C	 1.433559061	-2.0896417858	-0.4780916568	-0.305571
C	 1.3280147099	-0.5977133707	-0.6029057452	-0.101219
H	 0.8942022446	 1.8671572682	 0.4615295446	 0.111647
H	-0.1088982753	 1.9056218289	-0.9964251489	 0.110395
H	-0.8719117114	 1.8421578716	 0.6006433674	 0.109498
H	-1.9766894181	 0.0686861624	-1.0444420019	 0.087576
H	-1.1823396331	-1.4937932067	-1.1918137674	 0.096819
H	-2.4898060403	-0.3095780277	 1.3088541033	 0.096047
H	-2.7954142128	-1.8989400861	 0.6177895077	 0.090132
H	-1.0945493684	-1.7202297253	 2.7202667004	 0.090373
H	-0.6002220092	-2.7159817262	 1.3578427427	 0.09827
H	 0.4823845366	-0.0041684788	 2.1289307286	 0.062041
H	 2.5928766743	-1.2651796601	 1.2807429585	 0.079111
H	 2.3370503815	-2.5185998391	-0.900662945	 0.108432
H	 0.564043912	-2.7334500952	-0.5787796903	 0.103532
H	 1.9844284342	-0.0366337606	-1.2592661219	 0.075611
168.7612	189.9857	248.9721	278.8426	295.9757	368.7063	439.8006	491.0528	552.6211	575.2373	633.7599	739.2972	792.8668	807.5081	841.6022	874.5821	902.482	921.6594	929.9563	948.169	964.1291	993.5128	1000.0646	1011.7084	1046.2631	1064.254	1069.0551	1092.7973	1108.0543	1154.9618	1172.2041	1180.0002	1220.4471	1227.7576	1243.5825	1262.1525	1308.2614	1316.3317	1324.4693	1336.5446	1354.1215	1365.7898	1407.1816	1482.8915	1489.0127	1495.5735	1497.8881	1500.1977	1517.4653	3016.0079	3026.7074	3045.6796	3046.2138	3061.4124	3075.7453	3080.9309	3085.4456	3090.074	3094.8073	3116.397	3162.0487	3175.4926	3196.5997
CC12CCCC1C1CC21	C[C@]12CCC[C@H]1[C@H]1C[C@@H]21	
InChI=1S/C9H14/c1-9-4-2-3-7(9)6-5-8(6)9/h6-8H,2-5H2,1H3	InChI=1S/C9H14/c1-9-4-2-3-7(9)6-5-8(6)9/h6-8H,2-5H2,1H3/t6-,7+,8-,9+/m1/s1
