17
gdb 29971	4.64195	0.84361	0.7793	5.2769	76.97	-0.2209	-0.0119	0.209	1464.7251	0.135904	-418.055987	-418.047079	-418.046135	-418.091405	30.775	
C	-0.1650132928	 1.4541929988	 0.1629836332	-0.339145
N	-0.0185481715	 0.0169359946	 0.0492539535	 0.02471
C	 0.1006359483	-0.7032818642	-1.1011736219	-0.001415
N	 0.2333714233	-1.99014244	-0.8728457103	-0.320868
C	 0.2011724575	-2.1217747957	 0.49860541	 0.248212
C	 0.2856923221	-3.4665273877	 1.1527444126	-0.378852
C	-1.0168159629	-4.2400011329	 0.999033654	 0.159809
O	-1.583075279	-4.8071604685	 1.896830923	-0.241624
C	 0.0407231428	-0.8903460021	 1.0848140486	-0.206648
H	 0.6774009152	 1.891989334	 0.7071364457	 0.147767
H	-0.1955903715	 1.8868856521	-0.8386449863	 0.148375
H	-1.0930042822	 1.7112151627	 0.6824047086	 0.148772
H	 0.0873565611	-0.2276834914	-2.071322506	 0.128799
H	 1.0703887443	-4.0550861008	 0.6581154639	 0.137426
H	 0.5244794409	-3.3949195453	 2.216488438	 0.119701
H	-1.419571055	-4.2378840265	-0.0375298794	 0.093628
H	-0.0306520405	-0.580382597	 2.1146427331	 0.131352
32.6678	67.2181	85.5545	130.4958	207.237	266.0511	356.2494	410.7025	451.8248	622.2123	641.1447	709.8895	729.2635	752.4344	821.9167	824.3911	986.4731	1027.8225	1055.1809	1061.7861	1082.6162	1152.2015	1169.8893	1202.0441	1262.9422	1288.0849	1323.946	1391.4497	1415.4224	1417.862	1448.9911	1457.6139	1483.0063	1518.4564	1541.2217	1593.6083	1832.5922	2898.4581	3025.07	3042.193	3104.3153	3112.6697	3139.1277	3242.6305	3267.8293
CN1C=NC(CC=O)=C1	Cn1cnc(CC=O)c1	
InChI=1S/C6H8N2O/c1-8-4-6(2-3-9)7-5-8/h3-5H,2H2,1H3	InChI=1S/C6H8N2O/c1-8-4-6(2-3-9)7-5-8/h3-5H,2H2,1H3
