16
gdb 22436	2.16483	1.26036	0.88386	2.3896	77.24	-0.2467	-0.0538	0.193	1294.4714	0.119655	-437.81627	-437.806219	-437.805275	-437.852373	35.116	
C	-0.0092644878	 1.4304671328	 1.1126437081	-0.409222
C	-0.2503440328	 0.4127309806	-0.0135889132	-0.138789
C	 0.7974694512	-0.697080649	 0.1042503619	 0.164959
O	 1.6930633242	-0.8794681415	-0.674382324	-0.238569
C	-1.6345680192	-0.2106569094	 0.0164235231	 0.122899
N	-2.347525173	-0.0472701502	 1.0746542557	-0.161782
O	-3.5732679776	-0.6851148451	 0.9976991513	-0.377773
C	-2.0405586622	-0.9668957931	-1.1206425646	 0.352185
C	-2.3228500171	-1.5912113713	-2.1103565046	-0.436133
H	 0.9750481106	 1.8905776886	 0.9910282861	 0.127091
H	-0.7717836476	 2.2121325714	 1.088705479	 0.137189
H	-0.0568526621	 0.9549974538	 2.0955789568	 0.137018
H	-0.0993237071	 0.8803599376	-0.9914072575	 0.111218
H	 0.6768093243	-1.3249272164	 1.0173004305	 0.084842
H	-3.9811617484	-0.4573098815	 1.8411393154	 0.313182
H	-2.5846693255	-2.1481906473	-2.976447634	 0.211685
29.4903	57.0144	132.854	162.0796	209.5379	219.816	275.351	310.6251	357.8908	385.8876	437.4768	463.3989	504.9886	638.2467	652.6866	672.3394	714.5147	800.4766	892.2202	953.3924	1016.0733	1071.0953	1107.7184	1142.4878	1207.3361	1269.5141	1346.4563	1398.9602	1403.986	1419.0995	1489.4431	1493.8447	1671.4707	1838.6748	2221.3089	2868.3603	3051.5556	3070.8774	3127.7577	3131.9237	3498.6388	3805.4781
CC(C=O)C(=NO)C#C	C[C@@H](C=O)C(=NO)C#C	
InChI=1S/C6H7NO2/c1-3-6(7-9)5(2)4-8/h1,4-5,9H,2H3	InChI=1S/C6H7NO2/c1-3-6(7-9)5(2)4-8/h1,4-5,9H,2H3/t5-/m0/s1
