21
gdb 90771	3.09784	1.40336	1.21656	2.0055	77.44	-0.2448	0.0793	0.3241	1124.6923	0.183193	-424.225614	-424.217191	-424.216247	-424.258414	32.772	
C	 0.4052536745	 1.5399148047	-0.1093389975	-0.414633
C	 0.062216431	 0.0755213883	 0.0748169642	 0.156104
O	 0.7398938478	-0.7756534288	-0.8858026586	-0.314446
C	 1.288605638	-1.6080517885	 0.1520213865	 0.122335
C	 0.6662899395	-0.7238393014	 1.2621930907	-0.13289
C	 1.8781737206	-0.126395364	 1.9757578088	-0.10432
O	 2.9629865977	-0.2276969343	 1.0576479343	-0.262946
C	 2.8033436018	-1.4437472113	 0.3131457857	 0.092956
C	 3.4629994289	-2.629319509	 1.0194408565	-0.408508
H	 1.4839379399	 1.6979668463	-0.0356759079	 0.143275
H	 0.0748494305	 1.8729991716	-1.0982922873	 0.125201
H	-0.1032806936	 2.1556865141	 0.6410272937	 0.111108
H	-1.0243742753	-0.0696380923	-0.0024414243	 0.073196
H	 0.970171357	-2.651285603	 0.0546537112	 0.074463
H	-0.0583987555	-1.1744582708	 1.9401205008	 0.077794
H	 1.7665062558	 0.9296397454	 2.2375792546	 0.11189
H	 2.0866199471	-0.6841345072	 2.9018839396	 0.092378
H	 3.270193682	-1.2730456279	-0.6618964227	 0.094939
H	 2.9646179213	-2.8658955976	 1.9658152074	 0.11534
H	 3.4254639807	-3.523005971	 0.3880044996	 0.117974
H	 4.5097763004	-2.4005698632	 1.2350931847	 0.128789
86.1479	152.5023	210.6776	237.9096	254.6039	283.0427	349.0916	381.5675	481.4824	497.6642	635.4376	722.9851	771.2079	835.4617	854.9302	865.088	894.8539	920.6064	984.2645	992.165	1021.6395	1037.6128	1062.8438	1095.1139	1105.0319	1116.4615	1139.383	1162.3873	1207.5762	1241.2417	1256.2166	1296.7572	1307.1012	1335.0174	1339.2967	1369.5941	1378.2585	1400.2239	1404.8577	1411.4006	1482.9107	1487.6564	1495.8188	1500.4209	1516.6073	2983.5355	2999.6312	3035.5763	3035.773	3052.454	3066.9667	3084.3875	3102.8983	3104.2927	3113.438	3121.8111	3128.7353
CC1OC2C1COC2C	C[C@H]1O[C@@H]2[C@H]1CO[C@H]2C	
InChI=1S/C7H12O2/c1-4-6-3-8-5(2)7(6)9-4/h4-7H,3H2,1-2H3	InChI=1S/C7H12O2/c1-4-6-3-8-5(2)7(6)9-4/h4-7H,3H2,1-2H3/t4-,5+,6+,7+/m1/s1
