20
gdb 117633	2.02841	1.41676	1.23624	3.6176	70.63	-0.2494	0.019	0.2684	1158.6473	0.171036	-477.460939	-477.45126	-477.450316	-477.495378	36.338	
C	 0.7784059816	 1.4842128136	-0.1689319632	-0.416125
C	-0.2198170942	 0.3600461496	 0.1298933171	 0.22334
O	 0.0404139911	-0.0866811353	 1.4639103714	-0.485744
C	-1.6751437245	 0.8435357713	-0.0679624011	-0.239073
C	-2.7036879254	 0.1041372397	 0.7999017756	-0.175182
N	-2.3915411679	-1.3347655221	 0.8701027151	-0.529672
H	-3.0704169778	-1.8224282483	 1.4452545726	 0.241481
H	-2.4301032806	-1.751375042	-0.0563914422	 0.25476
H	-0.6563329416	-0.7560401177	 1.6245287245	 0.294478
C	 0.0946257006	-0.8086228816	-0.8420637352	 0.404097
O	 1.0065173556	-1.6662307755	-0.357124665	-0.376093
O	-0.3864738433	-0.9338881798	-1.938534706	-0.354812
H	 1.8075512683	 1.1220125399	-0.0943101256	 0.126146
H	 0.6185893876	 1.8755774736	-1.1768289706	 0.138023
H	 0.6417255255	 2.2912800351	 0.5559075673	 0.127662
H	 1.1607052631	-1.3889079393	 0.5658897013	 0.306549
H	-1.7411072853	 1.9124240176	 0.1582846294	 0.101835
H	-1.9104046136	 0.7201482642	-1.1289547543	 0.137813
H	-2.6603459803	 0.4894362179	 1.8243680067	 0.119084
H	-3.7136945591	 0.3169228687	 0.420466922	 0.101435
64.0006	93.0571	161.2415	221.5927	237.3761	254.7044	295.1322	324.8325	376.204	385.5439	421.1798	502.9462	553.5018	633.4142	712.6031	753.5148	768.1663	817.3191	878.0292	895.8807	935.9985	956.1619	983.3177	1036.9824	1067.7738	1106.7846	1119.1179	1184.2636	1212.8396	1245.6859	1285.4339	1330.6879	1374.2647	1390.1002	1407.7189	1423.374	1445.9237	1482.6133	1488.0356	1498.9154	1520.858	1654.1327	1854.6135	2995.6353	3045.8782	3056.3998	3062.1087	3105.4827	3122.3235	3132.128	3493.1969	3516.4408	3576.693	3613.8375
CC(O)(CC[NH3+])C([O-])=O	C[C@@](O)(CCN)C(=O)O	
InChI=1S/C5H11NO3/c1-5(9,2-3-6)4(7)8/h9H,2-3,6H2,1H3,(H,7,8)	InChI=1S/C5H11NO3/c1-5(9,2-3-6)4(7)8/h9H,2-3,6H2,1H3,(H,7,8)/t5-/m1/s1
