16
gdb 85637	3.39457	1.0799	0.91083	3.9831	73.7	-0.2719	-0.053	0.2188	1243.6806	0.124817	-437.907918	-437.899481	-437.898537	-437.941372	31.096	
O	-0.1930887297	 1.3038105532	 0.8183648191	-0.431921
C	 0.0004002539	 0.0883967653	 0.1108781916	 0.056723
C	 0.8242597598	-0.8509766766	 1.0121067556	-0.316482
C	-0.2171017016	-1.7899014226	 1.5959587229	 0.204118
C	-1.4047053907	-1.6737245305	 0.9898978703	-0.212968
C	-1.3791659885	-0.6335196328	-0.1020062974	 0.091172
O	-2.4746246471	 0.2617292599	-0.0734093276	-0.433253
C	 0.0895413852	-2.6976567179	 2.6469898179	 0.204935
N	 0.3709739236	-3.425491957	 3.503043578	-0.329247
H	-0.6956360561	 1.888041753	 0.2389314581	 0.290059
H	 0.5023157315	 0.2786996946	-0.8453190294	 0.077626
H	 1.5702549935	-1.4106557614	 0.4373344552	 0.130404
H	 1.3594931821	-0.2829185177	 1.7778007776	 0.144725
H	-2.2922760177	-2.2478623547	 1.2263500943	 0.129964
H	-1.4215625692	-1.1090376319	-1.0893818248	 0.109385
H	-2.4476387589	 0.6898543671	 0.7918364685	 0.28476
74.9959	111.5332	156.2593	176.631	296.1639	309.4451	395.6925	444.7693	513.896	568.2409	575.0803	584.3548	602.2448	777.3096	827.4057	888.4726	902.8472	912.1531	989.6395	1035.4329	1075.2896	1096.9948	1165.3456	1201.2056	1241.5111	1261.2087	1280.8452	1287.2863	1322.6333	1351.9645	1420.1855	1434.131	1475.2222	1678.5548	2339.1567	3023.527	3042.9267	3054.2566	3101.2171	3215.8712	3776.2164	3800.3793
OC1CC(=CC1O)C#N	O[C@H]1CC(=C[C@H]1O)C#N	
InChI=1S/C6H7NO2/c7-3-4-1-5(8)6(9)2-4/h1,5-6,8-9H,2H2	InChI=1S/C6H7NO2/c7-3-4-1-5(8)6(9)2-4/h1,5-6,8-9H,2H2/t5-,6+/m1/s1
