18
gdb 32479	5.02089	0.84579	0.76503	2.9171	86.25	-0.2238	-0.0426	0.1812	1495.6332	0.148574	-402.015762	-402.007059	-402.006115	-402.049959	31.748	
C	 0.0546538718	 1.5654618921	 0.1319624256	-0.362877
C	-0.0995797192	 0.0464010009	-0.055646879	-0.297439
C	 0.6551255095	-0.4874159203	-1.2405586274	 0.283791
C	 0.1055346989	-0.8999074781	-2.4494968513	-0.151658
N	 1.10725395	-1.2918858073	-3.2764265385	-0.289047
C	 2.3169094949	-1.1495239607	-2.6381337366	 0.241586
C	 3.543414748	-1.5095665324	-3.3095749635	 0.074513
O	 3.5890294629	-1.9454991759	-4.4467935228	-0.322199
C	 2.0550896976	-0.6485251724	-1.3683348359	-0.324907
H	 1.105376479	 1.8398796602	 0.2689849522	 0.119557
H	-0.3164934168	 2.1071173509	-0.7436872959	 0.118679
H	-0.5019907265	 1.9107469057	 1.009040589	 0.111502
H	 0.2381375682	-0.4629327845	 0.8553615403	 0.107844
H	-1.1622735479	-0.1992108221	-0.1643855942	 0.10054
H	-0.9275034536	-0.9389292499	-2.7606078639	 0.129544
H	 1.0338636136	-1.6493738585	-4.2152864898	 0.278042
H	 4.4634449494	-1.359119726	-2.707012821	 0.074952
H	 2.8016411601	-0.4300075219	-0.6182284771	 0.107577
43.114	91.8395	158.4136	188.4417	223.0187	302.9752	333.3772	400.6294	486.8975	592.352	643.8585	671.24	685.7734	781.6247	784.8316	797.4149	842.5938	948.2531	995.5982	1013.2838	1026.0075	1064.5446	1087.0708	1132.6515	1173.3073	1252.9261	1299.1194	1345.413	1371.6317	1392.0587	1408.9726	1428.0314	1467.8959	1485.527	1496.2315	1506.0482	1523.9906	1611.4212	1755.4731	2913.0925	3026.4841	3035.2207	3061.0498	3106.6517	3110.3516	3238.2068	3250.9138	3660.5208
CCC1=CNC(C=O)=C1	CCc1c[nH]c(C=O)c1	
InChI=1S/C7H9NO/c1-2-6-3-7(5-9)8-4-6/h3-5,8H,2H2,1H3	InChI=1S/C7H9NO/c1-2-6-3-7(5-9)8-4-6/h3-5,8H,2H2,1H3
