23
gdb 108832	3.16956	1.10314	0.93229	0.2652	92.28	-0.2169	0.0272	0.244	1389.5188	0.206359	-351.166474	-351.157259	-351.156315	-351.200398	35.699	
C	 0.0313523392	 1.5713864482	 0.2343774629	-0.372567
C	-0.012154751	 0.0603034351	-0.0554500806	-0.291574
C	-1.403285393	-0.5036048095	-0.0598328433	 0.33511
C	-2.0563906786	-1.0358752377	-1.0995084516	-0.207086
C	-3.466624107	-1.4833130084	-0.7617486294	-0.024526
C	-3.808969719	-2.9093842246	-1.2185590897	-0.388826
C	-3.5326694853	-1.2577332119	 0.7538437577	-0.043044
C	-2.5565874075	-1.9868114779	 1.6434979544	-0.284823
C	-2.2465115602	-0.5761833381	 1.1789247381	-0.137957
H	 1.0624523239	 1.9381845116	 0.2319797945	 0.111657
H	-0.5309793678	 2.1291510382	-0.5209233319	 0.119966
H	-0.4016952429	 1.8047961685	 1.212269954	 0.118461
H	 0.4614900119	-0.1370347822	-1.0236106014	 0.09909
H	 0.5897798318	-0.4608893106	 0.7020484174	 0.10288
H	-1.6336796554	-1.1678190357	-2.0910514251	 0.078826
H	-4.1849972637	-0.8047386968	-1.2478197355	 0.075392
H	-3.1430214617	-3.6442508172	-0.7557621171	 0.114923
H	-4.8381117178	-3.1698218528	-0.9501829412	 0.111096
H	-3.7128972336	-3.0070849755	-2.3052992902	 0.109066
H	-4.4821538266	-0.9693451707	 1.1902036614	 0.078878
H	-2.8518041822	-2.1229667606	 2.679085828	 0.104798
H	-1.9580481611	-2.7941725798	 1.2342860994	 0.109626
H	-2.2238436724	 0.2247342585	 1.9100951692	 0.080634
63.2166	121.5877	180.4445	197.2006	225.8041	241.9868	275.2575	367.6473	412.12	521.4697	572.2914	613.3467	694.4777	760.7506	794.8276	807.5688	844.1278	859.0454	896.3726	927.9765	963.9074	970.7185	1026.0768	1044.037	1062.8514	1065.1442	1071.8295	1096.4101	1101.4839	1113.9952	1132.0794	1187.6703	1205.5891	1258.7146	1296.0141	1309.7723	1338.5907	1354.5602	1376.5109	1383.0501	1407.1961	1408.9859	1476.8986	1480.0411	1497.0097	1498.6483	1498.8534	1507.0356	1699.6915	2974.5802	3009.5	3030.7699	3035.9136	3060.68	3096.3703	3105.5079	3105.8348	3109.8496	3122.4231	3161.2984	3171.7639	3175.3448	3210.2691
CCC1=CC(C)C2CC12	CCC1=C[C@@H](C)[C@H]2C[C@@H]12	
InChI=1S/C9H14/c1-3-7-4-6(2)8-5-9(7)8/h4,6,8-9H,3,5H2,1-2H3	InChI=1S/C9H14/c1-3-7-4-6(2)8-5-9(7)8/h4,6,8-9H,3,5H2,1-2H3/t6-,8-,9+/m1/s1
