19
gdb 48439	2.4546	1.41271	1.1036	1.7693	75.4	-0.2551	-0.0296	0.2254	1152.4416	0.158021	-422.998795	-422.990025	-422.989081	-423.032928	32.092	
O	 0.016947483	-0.192350635	 0.1475639358	-0.245732
C	 0.0010602216	 1.0057700143	 0.0268144801	 0.106089
C	 1.2202160375	 1.9034305898	-0.0161159542	 0.224949
C	 1.3851178717	 2.622569761	 1.3704671349	-0.284136
C	 2.4710041917	 1.5777728234	 1.7404040222	-0.211966
C	 2.5521744574	 1.1497733628	 0.250354164	-0.273043
C	 1.1530651686	 2.7845800239	-1.2443256921	-0.013311
C	 0.4459661494	 4.0727605763	-1.2712240994	-0.184263
O	 1.8729319204	 4.016741312	-1.207236664	-0.233672
H	-0.963850303	 1.5616090649	-0.035967297	 0.076576
H	 1.7944819848	 3.6241843328	 1.222790215	 0.130771
H	 0.4989956524	 2.6831587378	 2.0088003086	 0.101549
H	 3.3836290292	 1.9679875925	 2.1942371765	 0.105553
H	 2.0775693281	 0.7792264931	 2.373398042	 0.117722
H	 2.5329357431	 0.0798652953	 0.0389842098	 0.122615
H	 3.3865442783	 1.6183520199	-0.2764492867	 0.113201
H	 1.2600883603	 2.2483996866	-2.1895629042	 0.105446
H	 0.0335313919	 4.4454063383	-2.2070920803	 0.123654
H	-0.0432679463	 4.4369172301	-0.3690498708	 0.117998
62.5012	84.0694	118.7142	194.9205	236.2148	261.0654	315.1333	384.4437	467.7438	603.0676	633.2534	734.9252	794.8109	844.6361	874.6259	884.5572	897.7853	945.6112	950.0937	977.448	1007.8147	1083.8008	1098.6301	1109.3406	1157.046	1171.2804	1196.1069	1201.9635	1222.1911	1261.7563	1274.0469	1284.5688	1293.8731	1303.2482	1416.6971	1425.7101	1465.931	1480.2005	1500.4122	1525.1791	1822.7076	2857.2109	3055.9386	3072.1744	3074.9164	3086.8767	3091.0308	3112.5455	3127.8228	3140.6277	3176.0675
O=CC1(CCC1)C1CO1	O=CC1(CCC1)[C@H]1CO1	
InChI=1S/C7H10O2/c8-5-7(2-1-3-7)6-4-9-6/h5-6H,1-4H2	InChI=1S/C7H10O2/c8-5-7(2-1-3-7)6-4-9-6/h5-6H,1-4H2/t6-/m1/s1
