21
gdb 117968	4.00783	0.74965	0.6755	0.7234	76.8	-0.2543	0.0149	0.2691	1725.4091	0.179306	-461.389125	-461.377927	-461.376983	-461.426776	37.762	
C	-0.0054310034	 1.3325160203	 0.1294180815	-0.227719
O	 0.0012873101	-0.0709031834	 0.0275486523	-0.239123
C	 0.6717567027	-0.5323690087	-1.1257417149	-0.053171
C	 0.5851611399	-2.0580438168	-1.1392034191	-0.135279
C	-0.8698722951	-2.5556709268	-1.2286723804	-0.398202
C	 1.4131787528	-2.6104565648	-2.2843423741	 0.453682
O	 1.8713225008	-1.9654572406	-3.1958906235	-0.365275
O	 1.5710551486	-3.9452012705	-2.1680221322	-0.238088
C	 2.3156665629	-4.5693869202	-3.2209975203	-0.241026
H	 1.0153846592	 1.7429719601	 0.1828306459	 0.105216
H	-0.5171861164	 1.802087073	-0.7255644464	 0.10556
H	-0.5389717923	 1.5922791566	 1.0470274656	 0.125856
H	 0.2142127671	-0.1191321808	-2.0386837937	 0.099303
H	 1.7240960112	-0.2083658392	-1.1205544246	 0.096623
H	 1.018179839	-2.4373623515	-0.2060867843	 0.110182
H	-1.3310173318	-2.2377961316	-2.1703106698	 0.120269
H	-0.9128463023	-3.645529834	-1.1749572902	 0.127604
H	-1.4490200392	-2.1329669013	-0.4056838155	 0.140172
H	 3.3292976515	-4.1634374679	-3.2697591276	 0.140363
H	 2.3413434503	-5.6315765965	-2.9774726794	 0.132899
H	 1.8286280344	-4.4093394854	-4.1862913296	 0.140156
32.6529	79.9864	96.2843	117.2138	123.7025	151.2393	222.6539	235.2452	248.1411	293.9761	328.3206	360.7631	361.4363	533.7396	679.594	762.2854	854.7434	908.2884	935.9017	991.9947	1024.572	1080.4338	1128.2479	1152.5906	1172.017	1178.9018	1191.078	1201.6527	1213.2769	1239.0793	1267.8514	1339.5416	1342.3955	1399.7898	1425.091	1472.8437	1481.6053	1482.2381	1485.3171	1496.0809	1497.6676	1503.6404	1506.8592	1524.104	1810.3109	2966.9317	2979.6184	3005.8951	3015.1844	3042.0095	3050.6681	3051.8015	3113.2607	3118.0544	3125.4591	3143.9265	3158.2701
COCC(C)C(=O)OC	COC[C@@H](C)C(=O)OC	
InChI=1S/C6H12O3/c1-5(4-8-2)6(7)9-3/h5H,4H2,1-3H3	InChI=1S/C6H12O3/c1-5(4-8-2)6(7)9-3/h5H,4H2,1-3H3/t5-/m1/s1
