19
gdb 37664	3.5977	2.03783	2.02655	0.1133	79.63	-0.2453	0.094	0.3393	803.5325	0.164481	-348.724071	-348.718835	-348.717891	-348.753199	24.705	
C	-0.0627534904	 1.5654847214	-0.0395524718	-0.241994
C	 1.4813484899	 1.4300594176	 0.0143198929	-0.038734
C	 1.290153073	 0.1158350442	 0.8537137774	-0.034671
C	 2.277132059	-0.9341100503	 0.3406345586	-0.078054
C	 2.8519327486	-0.4332881121	-0.972370613	-0.088632
C	 1.7483103398	-1.4677799355	-0.9784030665	-0.088779
C	 0.6867778402	-0.3908168	-1.2969617949	-0.049664
C	-0.028291863	 0.0155008328	 0.005578064	-0.038783
C	 1.8479196127	 0.6976955296	-1.2903840731	-0.04972
H	-0.477610439	 2.0022453998	 0.872971326	 0.092734
H	-0.5106149238	 2.0490680981	-0.9137850115	 0.085156
H	 2.1287202892	 2.243562187	 0.3457535261	 0.056163
H	 1.1748139926	 0.2320048802	 1.9301494086	 0.059866
H	 2.8665480071	-1.5668648946	 0.9913394093	 0.079955
H	 3.8914750669	-0.5173372023	-1.2641620355	 0.078215
H	 1.7667025101	-2.5089931428	-1.2756650919	 0.078231
H	 0.0874373758	-0.4964257832	-2.1998189659	 0.061274
H	-0.8841673409	-0.5795373809	 0.3283115073	 0.056134
H	 1.9971887423	 1.294080261	-2.1890339859	 0.061304
384.5137	427.8166	525.2907	653.028	664.0998	747.7262	758.6698	791.6311	814.0402	816.2142	831.6038	866.0604	866.8475	890.9212	911.1904	923.8077	949.5008	955.6958	975.3381	1005.2568	1006.7723	1016.448	1039.935	1050.487	1074.0578	1091.608	1095.5776	1130.3669	1178.4828	1212.7933	1221.4879	1224.9919	1238.9739	1244.9847	1271.0318	1272.7711	1282.8687	1299.8071	1317.5109	1372.6112	1501.4869	3043.3573	3096.718	3097.9418	3102.5505	3121.8104	3128.5477	3133.6876	3178.7038	3187.1795	3204.2121
C1C2C3C4C5C4C(C13)C25	C1[C@H]2[C@@H]3[C@@H]4[C@H]5[C@@H]4[C@@H]([C@H]13)[C@@H]25	
InChI=1S/C9H10/c1-2-4-3(1)6-5(2)8-7(4)9(6)8/h2-9H,1H2	InChI=1S/C9H10/c1-2-4-3(1)6-5(2)8-7(4)9(6)8/h2-9H,1H2/t2-,3+,4-,5+,6-,7+,8-,9+
