21
gdb 104727	2.428	1.28775	0.98089	2.9396	74.7	-0.2557	0.0654	0.3211	1278.7207	0.179879	-461.34177	-461.331456	-461.330512	-461.376721	38.397	
C	 0.1253744482	 1.4204641808	-0.1580902712	-0.458019
C	-0.0355691592	-0.0604427495	 0.1360581985	 0.351451
C	-1.2196501922	-0.6779989894	-0.5838188969	-0.460782
O	 1.1822184427	-0.8301895962	 0.0938136214	-0.33905
C	 0.5361299838	-0.6347291211	 1.3781269289	 0.223197
C	 1.3129635436	 0.243941837	 2.3707098079	-0.113353
O	 1.7563330175	-0.4507611332	 3.5179096778	-0.428769
C	 0.057365577	-1.9475007071	 1.9749988416	-0.149943
O	 1.1833480414	-2.8149598447	 2.1398857457	-0.424826
H	 1.0026207308	 1.8485808385	 0.3266389371	 0.133337
H	 0.225038897	 1.5738736469	-1.2378063749	 0.127412
H	-0.7601822277	 1.9726775471	 0.1747950336	 0.124954
H	-1.1710232207	-0.4260799474	-1.6487124439	 0.127066
H	-1.2345665873	-1.7645660601	-0.5014285721	 0.129997
H	-2.1628664515	-0.2816599338	-0.1928359177	 0.125659
H	 2.150377187	 0.7054951565	 1.8276802492	 0.102762
H	 0.6668791897	 1.0525852203	 2.7346543554	 0.108122
H	 2.0480518042	-1.3284451458	 3.2326655668	 0.290723
H	-0.3513006314	-1.7853822501	 2.9746029616	 0.132372
H	-0.7069854648	-2.4264777927	 1.3563410163	 0.098494
H	 1.5979252521	-2.8699718459	 1.2690254246	 0.299195
66.737	130.0079	138.3723	168.3795	186.5218	225.8252	251.5269	327.3713	349.5207	380.482	413.6614	447.124	488.1658	509.9458	563.2816	604.6575	688.9214	786.6658	880.6459	892.8892	942.6867	962.9933	1000.5207	1034.1921	1043.3834	1082.4229	1129.9917	1157.6591	1177.1664	1235.5477	1255.4737	1265.0343	1354.353	1366.2385	1408.1936	1418.3032	1428.2834	1446.0688	1460.3201	1474.2134	1484.1255	1496.4233	1504.7491	1507.0905	1519.359	2994.6523	3038.2829	3043.5792	3047.1605	3058.7957	3096.3704	3102.1716	3118.9861	3147.9604	3151.7053	3726.1914	3776.3196
CC1(C)OC1(CO)CO	CC1(C)OC1(CO)CO	
InChI=1S/C6H12O3/c1-5(2)6(3-7,4-8)9-5/h7-8H,3-4H2,1-2H3	InChI=1S/C6H12O3/c1-5(2)6(3-7,4-8)9-5/h7-8H,3-4H2,1-2H3
