19
gdb 126515	3.1435	0.98538	0.78792	4.8309	78.89	-0.2169	0.0134	0.2303	1471.4829	0.16024	-415.39399	-415.384522	-415.383578	-415.429485	33.9	
C	 0.0322405506	 1.6482553596	 0.2054946345	-0.382618
C	 0.0866758743	 0.1203956197	 0.1512598806	-0.149463
C	-1.2757903144	-0.5137043455	-0.1813080933	-0.31003
C	-1.2470510428	-2.0096617545	-0.1804530621	 0.287582
C	-1.5343952315	-2.9031708507	-1.194696368	 0.222881
N	-2.0090176484	-2.7629675149	-2.5008423028	-0.61117
N	-1.3339789939	-4.1185286393	-0.6270791938	-0.208978
N	-0.9329735743	-4.0033471777	 0.6627592788	-0.131756
N	-0.8933403495	-2.7334629706	 0.9254760618	-0.255839
H	 1.0115373992	 2.0722561465	 0.4478393816	 0.113668
H	-0.2846557093	 2.0721978699	-0.7546563461	 0.107039
H	-0.6766707728	 1.9922133034	 0.9669594459	 0.116685
H	 0.8237774561	-0.2029799414	-0.5942598153	 0.09067
H	 0.4268932175	-0.2815397803	 1.1113111572	 0.127787
H	-2.0198798891	-0.1589189731	 0.5440158704	 0.118654
H	-1.6166147153	-0.1531420553	-1.1617403333	 0.079133
H	-2.1701944137	-1.7910641906	-2.7320892135	 0.256879
H	-1.3929899746	-3.1666055822	-3.1981359369	 0.254131
H	-1.482859698	-5.0308814029	-1.0267738558	 0.274743
30.7007	78.9533	118.491	155.1677	240.3544	248.1625	279.3263	319.0877	359.3662	469.1442	526.4197	664.5876	696.0239	720.9048	747.8855	767.4261	808.7777	871.4839	900.8063	1011.7218	1047.6721	1052.5075	1085.6071	1108.8157	1113.8547	1215.8982	1264.3734	1288.8841	1317.9641	1318.7549	1342.1363	1386.3946	1400.0176	1411.4831	1475.647	1491.9793	1499.7403	1509.1966	1521.6801	1631.693	1665.0813	3007.4722	3026.5754	3029.5221	3042.034	3074.2659	3098.3557	3102.7193	3519.1304	3613.5677	3659.5611
CCCC1=C(N)NN=N1	CCCc1c(N)[nH]nn1	
InChI=1S/C5H10N4/c1-2-3-4-5(6)8-9-7-4/h2-3H2,1H3,(H3,6,7,8,9)	InChI=1S/C5H10N4/c1-2-3-4-5(6)8-9-7-4/h2-3H2,1H3,(H3,6,7,8,9)
