16
gdb 37949	3.36493	1.72625	1.31938	2.3135	69.35	-0.2372	0.0062	0.2434	933.4012	0.126497	-437.808919	-437.80229	-437.801346	-437.840557	25.832	
C	-0.0411163265	 1.56357882	-0.1537754744	-0.126574
O	 1.1043583377	 2.3229974283	 0.2468685413	-0.222977
C	 1.904291507	 1.9736654961	 1.2790345097	 0.124568
N	 2.1228991578	 0.8747981036	 1.8564271894	-0.288936
C	 1.5568357897	-0.387063857	 1.5027535658	 0.060645
C	 1.2046361652	-0.8527558412	 0.04712284	-0.012217
O	 0.3701057312	-1.9079016344	 0.6578243624	-0.296096
C	 0.0281285331	-0.6736568953	 1.3978558085	-0.004776
C	-0.0505973815	 0.0595627581	 0.0337821402	-0.004933
H	-0.9168957384	 1.9907317867	 0.354772835	 0.121474
H	-0.1481195586	 1.78445361	-1.2199088769	 0.130035
H	 2.4591799644	 2.8586277368	 1.5913198795	 0.125762
H	 2.0626346869	-1.1831788263	 2.0510913975	 0.09984
H	 1.868635629	-1.142893596	-0.7680621381	 0.099153
H	-0.7156189652	-0.7477150611	 2.1925715715	 0.098304
H	-0.8490575018	-0.3560324683	-0.5888376712	 0.096728
47.9382	203.8253	310.8005	347.624	417.6692	548.4495	552.5679	673.6967	725.5079	798.9755	824.644	843.029	887.3853	894.136	938.3706	971.2862	982.8082	1006.1323	1061.2867	1072.2335	1088.	1141.6706	1175.2822	1205.6946	1223.3162	1226.064	1247.7643	1278.417	1311.1229	1354.0163	1401.494	1430.988	1442.4576	1498.8903	1756.5237	3012.208	3068.4456	3084.3551	3102.266	3110.6459	3118.6382	3139.1527
C1OC=NC2C3OC2C13	C1OC=N[C@@H]2[C@H]3O[C@@H]2[C@@H]13	
InChI=1S/C6H7NO2/c1-3-5-4(6(3)9-5)7-2-8-1/h2-6H,1H2	InChI=1S/C6H7NO2/c1-3-5-4(6(3)9-5)7-2-8-1/h2-6H,1H2/t3-,4+,5-,6+
