13
gdb 125782	7.26513	0.87141	0.78546	2.2593	63.17	-0.2885	-0.0496	0.2389	1359.8263	0.087815	-489.905856	-489.897782	-489.896837	-489.939618	27.402	
C	 0.0550677929	 1.4638329953	 0.0455833642	-0.486222
C	-0.0415654283	-0.0199585835	-0.003393521	 0.377084
N	-0.2355702457	-0.6657467783	-1.1243828729	-0.16966
O	-0.2687441318	-2.0246885505	-0.7113127423	-0.220177
C	-0.076578746	-1.9933784698	 0.6081236965	 0.536903
O	-0.0802110149	-3.1383795036	 1.2962129552	-0.223733
C	 0.1592679925	-4.3422300154	 0.6397440861	 0.167338
O	 0.0695118902	-5.3653435319	 1.2277441219	-0.220662
N	 0.0683179304	-0.8171139374	 1.1200866608	-0.381508
H	 1.0207343018	 1.7639376983	 0.4626661112	 0.156554
H	-0.0543860148	 1.8838843085	-0.9550245161	 0.155218
H	-0.7247919304	 1.8689255698	 0.6970282397	 0.157487
H	 0.4335527941	-4.2033419316	-0.4137554133	 0.151378
47.9825	100.3422	144.0903	163.8284	229.8232	311.8145	381.1245	461.2555	525.7973	675.5382	692.138	762.7075	846.0144	894.9803	991.8251	1022.0903	1033.0958	1044.931	1070.7615	1115.8595	1336.6143	1378.2709	1412.4284	1432.3255	1470.7446	1473.5431	1579.3904	1645.2763	1899.5338	3054.6545	3076.0096	3117.0448	3154.5244
CC1=NOC(OC=O)=N1	Cc1noc(OC=O)n1	
InChI=1S/C4H4N2O3/c1-3-5-4(8-2-7)9-6-3/h2H,1H3	InChI=1S/C4H4N2O3/c1-3-5-4(8-2-7)9-6-3/h2H,1H3
