18
gdb 88936	3.1168	0.88252	0.73107	2.002	73.68	-0.2452	-0.0943	0.1509	1532.198	0.144764	-439.078507	-439.068736	-439.067792	-439.115022	33.792	
C	-0.1352838107	 1.6130457824	 0.0883659237	-0.394022
C	 0.024399282	 0.1113535546	 0.0722213388	-0.009444
N	 1.3907175329	-0.4246239304	-0.0530510001	-0.338314
C	 0.6233608148	-0.6882151818	 1.1758656236	-0.00724
C	 1.1710888665	-0.0897747711	 2.4478785055	-0.322373
C	 2.1282025699	-1.0186906199	 3.1617229698	 0.293858
O	 2.3306722964	-2.1737344589	 2.8669754229	-0.277256
C	 2.8842840258	-0.4446726432	 4.3697592591	 0.094617
O	 2.756454127	 0.685536637	 4.7599271133	-0.218345
H	 0.6822790777	 2.0978210539	 0.6262488592	 0.127003
H	-0.1369641724	 2.0066878749	-0.9335784123	 0.123115
H	-1.0813544944	 1.9002321835	 0.5602179938	 0.117005
H	-0.7534056373	-0.4065505156	-0.4889519171	 0.083512
H	 1.4091292659	-1.2489085765	-0.6464306488	 0.234476
H	 0.2322456447	-1.6947850109	 1.3051772801	 0.09736
H	 1.6892895399	 0.8559113569	 2.2633254282	 0.149117
H	 0.3679717292	 0.154178477	 3.1591590775	 0.138743
H	 3.559777482	-1.1875655021	 4.844641283	 0.108191
30.3003	49.7801	102.4152	128.526	173.448	220.4175	224.7966	347.0513	425.3589	460.7959	485.2012	519.4642	626.4957	767.719	804.2617	843.1513	877.2232	906.4764	981.6045	990.4521	1037.6841	1050.2988	1094.4265	1148.6383	1154.8487	1188.5648	1238.5604	1265.9579	1280.0114	1344.3645	1363.4566	1405.2899	1422.325	1430.7172	1473.3016	1491.9669	1506.1572	1804.3082	1824.9287	2922.4212	3019.1071	3037.0696	3095.175	3096.8286	3101.1113	3130.2518	3137.7137	3513.4604
CC1NC1CC(=O)C=O	C[C@H]1N[C@H]1CC(=O)C=O	
InChI=1S/C6H9NO2/c1-4-6(7-4)2-5(9)3-8/h3-4,6-7H,2H2,1H3	InChI=1S/C6H9NO2/c1-4-6(7-4)2-5(9)3-8/h3-4,6-7H,2H2,1H3/t4-,6+/m1/s1
