15
gdb 31424	4.05282	1.17004	0.91315	4.0942	72.95	-0.2266	-0.0383	0.1883	1208.1906	0.114544	-454.016333	-454.008594	-454.00765	-454.048916	28.346	
C	-0.0129300848	 1.4211438307	 0.0066703977	-0.232465
O	 0.0198183377	-0.0073748118	-0.0344234581	-0.257196
C	 0.6151199794	-0.6020017377	-1.076037951	 0.469745
C	 0.6441605594	-1.9739062843	-1.1103533334	-0.367322
C	 1.2691476778	-2.6582176424	-2.2031556071	 0.432526
O	 1.3890048078	-3.8523149845	-2.4003751692	-0.396594
N	 1.8047230246	-1.7356325077	-3.1586607181	-0.335664
C	 1.724538163	-0.3999196839	-3.0336521342	 0.107378
N	 1.1551854687	 0.2088755959	-2.0376431958	-0.363023
H	 0.996342407	 1.8403145756	 0.0238376057	 0.137668
H	-0.5496620293	 1.8300932911	-0.8531625241	 0.137664
H	-0.5384448122	 1.6671224511	 0.930190477	 0.134318
H	 0.198815235	-2.5595595993	-0.3184709228	 0.121426
H	 2.2605292495	-2.1573079085	-3.9569125524	 0.269004
H	 2.1725633965	 0.1893239658	-3.8304942641	 0.142535
90.1633	153.6193	186.6615	210.668	237.9154	403.9312	442.404	477.9441	551.6454	628.2667	683.3995	754.1186	767.5105	783.5368	862.2056	909.0306	968.986	990.2099	1045.6479	1164.025	1175.7692	1192.5754	1206.2799	1289.6719	1361.0557	1427.8112	1458.2616	1483.1311	1495.4687	1501.2726	1584.894	1663.836	1805.8725	3048.0512	3122.6232	3150.7512	3163.0956	3235.5282	3601.2458
COC1=CC(=O)NC=N1	COc1cc(=O)[nH]cn1	
InChI=1S/C5H6N2O2/c1-9-5-2-4(8)6-3-7-5/h2-3H,1H3,(H,6,7,8)	InChI=1S/C5H6N2O2/c1-9-5-2-4(8)6-3-7-5/h2-3H,1H3,(H,6,7,8)
