18
gdb 86607	2.53701	1.33627	1.13924	3.8006	73.74	-0.2285	-0.0344	0.1941	1146.1441	0.146755	-439.041609	-439.033098	-439.032153	-439.075199	31.772	
O	-0.6196447176	 1.1233427023	-1.1959785009	-0.430613
C	-0.0091420585	 0.2366337618	-0.2870866567	 0.038509
C	-1.0007255405	-0.731677247	 0.4379595851	-0.279552
C	-0.7320046707	-1.8230877715	-0.6382508262	-0.104694
N	-1.642243664	-1.6466754768	-1.7682810517	-0.079452
C	-1.6597305554	-2.7119713766	-2.7674724474	-0.218057
C	-2.8041190214	-2.5348426809	-1.8302774509	-0.226262
C	 0.5700058376	-1.0381479789	-0.9727771014	 0.389863
O	 1.6140661985	-1.3435518459	-1.4649440047	-0.292488
H	-1.2047501074	 0.5838625304	-1.7497745077	 0.287931
H	 0.679325646	 0.8193901516	 0.3289723985	 0.103477
H	-0.6369039002	-1.0349378139	 1.4231283244	 0.113958
H	-2.0293149633	-0.3754181751	 0.5113416741	 0.115927
H	-0.6279434779	-2.869295741	-0.3153405928	 0.073372
H	-1.7387655849	-2.3870519112	-3.8000638003	 0.129846
H	-1.0041123653	-3.5642383853	-2.6051432742	 0.129223
H	-2.9189056918	-3.2674704163	-1.0344529049	 0.121153
H	-3.7282801631	-2.077643216	-2.1698542324	 0.12786
74.8944	92.5208	138.0506	207.1987	262.2411	303.4918	370.7093	422.6114	503.7031	554.4853	589.5351	727.3978	781.2963	809.5339	848.444	893.9326	910.7445	930.5779	1000.2137	1025.1414	1043.065	1052.6617	1090.3879	1115.6838	1124.5151	1140.8365	1147.0487	1175.4187	1199.0538	1242.9239	1252.3852	1284.6124	1308.5566	1338.5668	1453.1549	1463.0595	1492.2288	1519.8599	1897.8007	2995.5843	3070.8645	3096.348	3107.9529	3114.9009	3137.8931	3193.5965	3207.7933	3704.6631
OC1CC(N2CC2)C1=O	O[C@H]1C[C@@H](N2CC2)C1=O	
InChI=1S/C6H9NO2/c8-5-3-4(6(5)9)7-1-2-7/h4-5,8H,1-3H2	InChI=1S/C6H9NO2/c8-5-3-4(6(5)9)7-1-2-7/h4-5,8H,1-3H2/t4-,5+/m1/s1
