14
gdb 130164	3.31648	1.46886	1.01851	2.0604	69.86	-0.2077	-0.0168	0.1909	1073.0877	0.103822	-466.220886	-466.213216	-466.212272	-466.252802	29.719	
N	-0.0004295106	 1.2985888965	 0.1313392781	-0.54859
C	-0.0248426937	-0.0527354901	 0.0503141038	 0.406353
N	-1.1526438527	-0.6960830638	 0.0290407931	-0.322282
N	-1.0252506682	-2.0678584942	-0.0034594794	-0.289612
C	 0.1580197275	-2.6935791372	-0.0073590464	 0.517437
O	 0.0674426876	-4.0330950391	-0.018242388	-0.408539
N	 1.313485772	-2.1040217499	-0.0054333569	-0.447469
C	 1.3100080788	-0.7211164764	 0.006199571	 0.2998
N	 2.344966911	 0.0348041933	-0.0261846336	-0.55875
H	 0.9005711829	 1.7175726424	-0.0453385369	 0.279538
H	-0.8447274645	 1.8150592729	-0.0461112177	 0.259078
H	-1.8895189377	-2.5828612768	-0.004311126	 0.282189
H	 0.9792028425	-4.3565486287	-0.0250060587	 0.314039
H	 3.1895781551	-0.536882969	-0.0636488324	 0.216809
99.2077	196.3499	301.4656	328.8774	351.663	367.5547	460.2385	480.9405	507.1716	510.5122	533.2088	557.5023	599.6617	730.1139	734.6608	810.925	830.7718	886.9974	1007.9261	1063.7729	1145.6141	1227.2281	1255.4656	1316.4781	1393.6897	1452.8117	1574.5009	1605.1672	1647.1415	1676.6084	1700.4653	3478.2435	3577.1083	3663.7615	3721.6074	3777.1632
NC1=NNC(O)=NC1=N	NC1=NN[C@@H](O)N=C1[NH]	
InChI=1S/C3H5N5O/c4-1-2(5)7-8-3(9)6-1/h(H2,5,7)(H3,4,6,8,9)	InChI=1S/C3H6N5O/c4-1-2(5)7-8-3(9)6-1/h3-4,8-9H,(H2,5,7)/t3-/m0/s1
