16
gdb 129761	3.30136	1.66077	1.24943	2.8618	76.62	-0.1938	0.0041	0.198	987.6846	0.127174	-396.86931	-396.862288	-396.861344	-396.90059	27.827	
N	-0.0946434229	 1.4095470985	-0.2225138271	-0.609386
C	-0.0880396127	 0.0227813039	-0.0335096047	 0.101367
C	-1.1199611719	-0.8541912738	 0.2444089376	 0.163832
C	-2.4853867932	-1.4111945499	-0.1054823161	-0.200469
C	-2.3456930235	-2.1578046658	-1.4264613911	-0.269988
C	-1.8036427542	-2.7799590913	-0.166402743	-0.002222
N	-0.5649844343	-2.1147739077	 0.2598228666	 0.047851
N	 0.7350758195	-2.1467342689	-0.0874403416	-0.268732
C	 1.0426308073	-0.848852832	-0.1682286877	-0.047426
H	 0.7678021419	 1.8534286237	 0.0649748889	 0.246302
H	-0.8732071179	 1.8673331243	 0.2309150356	 0.247048
H	-3.4404722628	-1.1670496984	 0.3382095785	 0.107897
H	-3.2524643731	-2.6146514334	-1.8156073748	 0.12113
H	-1.6600333872	-1.7870466539	-2.181303116	 0.140589
H	-2.1057323735	-3.7348934453	 0.2418362097	 0.119986
H	 2.0733210285	-0.5479974701	-0.3075874549	 0.102222
138.719	183.5642	212.2747	292.1696	394.2771	487.689	527.1016	637.283	666.4584	692.0451	723.1978	736.9058	799.6968	823.6324	859.9397	876.554	930.7582	981.6136	998.8965	1046.3632	1055.1275	1085.3908	1098.3026	1165.7487	1206.2286	1229.2095	1259.9623	1287.9793	1297.4313	1364.718	1404.1605	1433.7525	1475.9588	1639.0017	1660.8348	3118.9427	3206.5727	3208.3008	3217.4183	3218.3912	3544.9353	3635.3624
NC1=C2C3CC3N2N=C1	N[C]1[C]2[C@H]3C[C@H]3N2N=C1	
InChI=1S/C6H7N3/c7-4-2-8-9-5-1-3(5)6(4)9/h2-3,5H,1,7H2	InChI=1S/C6H7N3/c7-4-2-8-9-5-1-3(5)6(4)9/h2-3,5H,1,7H2/t3-,5+/m0/s1
