18
gdb 35419	2.55782	1.63819	1.33251	3.9818	79.8	-0.2483	0.0143	0.2626	1017.0724	0.150236	-364.831784	-364.824345	-364.8234	-364.864205	28.908	
N	 0.2435425992	-1.0725002939	 0.8338911392	-0.343703
C	 0.1444885411	 0.0249967433	 0.4813545473	 0.288249
C	 0.0284608837	 1.4036800313	 0.0382369588	-0.161258
C	-0.5165527669	 2.4207920018	 1.0994473413	-0.244534
C	 0.8669903877	 3.1362521226	 1.1147288596	-0.050131
C	 1.7807781013	 2.7540713436	 2.2474566912	-0.079011
C	 2.740029131	 1.9089037659	 1.8700903102	-0.0483
C	 2.679402785	 1.5644784252	 0.3987218168	-0.285392
C	 1.3689762656	 2.2318665496	-0.0604780334	-0.0293
H	-0.5410590788	 1.4102927161	-0.8944104477	 0.123017
H	-1.3305553529	 3.029546793	 0.7004209188	 0.111045
H	-0.8340152061	 1.980583222	 2.0459743402	 0.123899
H	 0.8244540521	 4.2165294443	 0.9455219837	 0.078
H	 1.6423353826	 3.1328224024	 3.2546069727	 0.096735
H	 3.5017152619	 1.5008625163	 2.5253912277	 0.100688
H	 3.5477935317	 1.9637833029	-0.1415608946	 0.106632
H	 2.6784560082	 0.481696931	 0.2259580911	 0.132627
H	 1.4533074635	 2.7160828126	-1.0335031231	 0.080739
47.9463	146.1404	219.3363	253.7524	363.4417	448.1107	515.8518	581.5681	633.6886	739.414	748.5977	755.3516	790.9472	854.5297	880.8286	916.5449	952.015	972.7627	995.6193	1022.4284	1031.4185	1054.8518	1087.2378	1120.7545	1130.7267	1175.8818	1198.592	1220.4137	1252.0464	1270.7323	1297.8303	1304.2946	1333.8067	1345.2634	1378.8499	1481.5359	1484.3651	1680.4214	2347.3056	3019.208	3054.1187	3057.5982	3072.5552	3078.1462	3107.2683	3133.1895	3181.5857	3207.113
N#CC1CC2C=CCC12	N#C[C@H]1C[C@H]2C=CC[C@@H]12	
InChI=1S/C8H9N/c9-5-7-4-6-2-1-3-8(6)7/h1-2,6-8H,3-4H2	InChI=1S/C8H9N/c9-5-7-4-6-2-1-3-8(6)7/h1-2,6-8H,3-4H2/t6-,7-,8-/m1/s1
