23
gdb 76908	2.30116	1.16949	1.00622	1.3548	86.88	-0.2327	0.0732	0.3059	1355.3287	0.203741	-388.264197	-388.253882	-388.252938	-388.299453	38.815	
C	-0.0523868782	 1.5439699238	 0.0062351972	-0.46024
C	 0.0332353626	 0.0306112746	 0.0433074833	 0.268385
C	-1.1870494809	-0.6790635115	-0.5123842881	-0.450953
C	 1.381567331	-0.6306755011	-0.1848004323	 0.028092
O	 2.5355508275	 0.1492450354	-0.3319652552	-0.417366
C	 0.7679467396	-0.6564781826	 1.1925866422	-0.089555
C	 1.3943403695	 0.0875621682	 2.3301783709	 0.025976
C	 0.6568807062	 0.2322255108	 3.6407745127	-0.273593
C	 1.8636261425	-0.6684720122	 3.5500451449	-0.2746
H	 0.8914376625	 2.0146702631	 0.2864629596	 0.126056
H	-0.313057247	 1.8907029773	-1.001698925	 0.103327
H	-0.8288840188	 1.9101418651	 0.6871498369	 0.118332
H	-1.3809311023	-0.3823685704	-1.5507147047	 0.108426
H	-1.0624800561	-1.76683165	-0.4951002989	 0.110932
H	-2.0838937309	-0.4408216042	 0.0723034397	 0.114808
H	 1.3966442527	-1.5620974735	-0.7533595223	 0.075584
H	 2.5185609296	 0.5431659329	-1.2104618889	 0.287658
H	 0.3449005863	-1.6149562473	 1.4881190894	 0.072724
H	 2.0175836113	 0.9231186825	 2.0356174599	 0.09697
H	 0.7475522654	 1.1664112121	 4.1844572107	 0.107017
H	-0.3180064157	-0.2368497524	 3.7269886504	 0.105959
H	 1.6982977674	-1.740874297	 3.5757966859	 0.106811
H	 2.7838346358	-0.3519469736	 4.0285868617	 0.109252
44.8335	119.5471	141.6034	172.1794	209.349	234.2054	246.369	310.1936	312.8393	340.9752	364.7263	484.1107	511.5018	586.2695	707.2859	764.5689	824.9543	828.8309	839.5153	909.9085	929.4827	970.1895	985.6904	1000.4038	1021.3748	1057.3434	1062.4857	1074.199	1110.7638	1138.1162	1155.3823	1166.7329	1198.4539	1205.0514	1229.5957	1262.9245	1298.7092	1314.1074	1337.8882	1402.7324	1416.181	1426.269	1469.0469	1470.2521	1484.46	1492.502	1503.8997	1505.5383	1514.3118	3014.4304	3024.0102	3073.247	3077.2854	3077.5838	3091.7346	3117.8806	3125.8885	3130.0479	3131.1467	3182.6088	3203.4238	3220.0625	3804.5389
CC1(C)C(O)C1C1CC1	CC1(C)[C@@H](O)[C@H]1C1CC1	
InChI=1S/C8H14O/c1-8(2)6(7(8)9)5-3-4-5/h5-7,9H,3-4H2,1-2H3	InChI=1S/C8H14O/c1-8(2)6(7(8)9)5-3-4-5/h5-7,9H,3-4H2,1-2H3/t6-,7+/m1/s1
