18
gdb 18733	3.03465	2.19891	1.47296	0.2209	66.77	-0.2422	0.0685	0.3107	872.5306	0.155781	-384.921952	-384.914775	-384.913831	-384.953105	28.199	
O	-0.0473546325	 1.4292402627	 0.0396162033	-0.429328
C	-0.0084379137	 0.0051185761	 0.0273925882	 0.082876
C	 0.7845583079	-0.5367458921	 1.2275754768	-0.126334
O	 0.6733677818	-1.9412579597	 1.3157253947	-0.236764
C	-0.6309194287	-2.3414634465	 1.7112252787	-0.094001
C	-1.7507345592	-1.7233743693	 0.8751119909	-0.058278
C	-2.3051964056	-0.3667187607	 1.234344578	-0.2835
C	-1.4267991029	-0.5136905422	 0.0210184583	-0.005513
H	 0.8458643902	 1.7519966353	-0.1198934525	 0.282174
H	 0.4858888846	-0.3573400231	-0.8871838509	 0.071485
H	 1.8497629247	-0.3101311717	 1.1079457937	 0.096261
H	 0.4402590615	-0.0437941955	 2.1521540814	 0.093677
H	-0.6447949309	-3.4299140694	 1.609583867	 0.110208
H	-0.7759891892	-2.1040595591	 2.7784630802	 0.091008
H	-2.4491423938	-2.43828625	 0.4526255575	 0.089033
H	-3.3609478364	-0.1785990776	 1.0744542021	 0.110994
H	-1.8946589473	 0.1318301085	 2.1065990366	 0.118125
H	-1.9208073205	-0.4464257258	-0.9430958142	 0.087875
113.9937	204.4692	279.1423	295.5438	334.676	389.2858	442.4108	483.1823	576.0159	686.7184	750.976	824.1083	860.6267	919.3141	944.9372	976.3785	990.8975	1035.893	1062.8687	1078.4931	1087.84	1116.3302	1129.9893	1166.1352	1180.3397	1226.0824	1246.6893	1264.1951	1318.9735	1344.4979	1361.8457	1378.9172	1412.1807	1420.8357	1443.8384	1492.2696	1497.0744	1509.4475	2961.376	2969.9516	2982.7964	3065.4229	3086.0088	3132.3764	3149.9691	3160.1343	3216.0531	3808.5982
OC1COCC2CC12	O[C@H]1COC[C@H]2C[C@@H]12	
InChI=1S/C6H10O2/c7-6-3-8-2-4-1-5(4)6/h4-7H,1-3H2	InChI=1S/C6H10O2/c7-6-3-8-2-4-1-5(4)6/h4-7H,1-3H2/t4-,5-,6+/m1/s1
