21
gdb 71289	2.52162	1.92928	1.43016	1.1857	81.07	-0.237	0.0878	0.3247	1002.8492	0.184782	-387.072329	-387.06483	-387.063886	-387.103639	31.421	
C	 0.0439984696	 1.4342004517	 0.0632091554	-0.454454
C	 0.0006768619	-0.0780431141	-0.019590591	 0.41272
C	 0.2011652995	-0.68206547	-1.462304008	-0.304161
C	-1.1205587837	-1.4305768357	-1.3041911932	-0.074883
C	-1.2267668354	-2.1936350004	-0.0005063566	-0.032145
C	-0.1067572463	-2.828648092	 0.8093078842	-0.243447
C	 1.1531766642	-1.9505527972	 0.9169261711	-0.082422
O	 0.8773406774	-0.5608979898	 0.9904434362	-0.303558
C	-1.4091619708	-0.7077168954	 0.0168077315	-0.108287
H	 1.0503766959	 1.8011719571	-0.160187151	 0.119433
H	-0.6600776404	 1.8804577483	-0.6448735685	 0.112853
H	-0.2230995992	 1.7611153668	 1.07314532	 0.122611
H	 0.128629147	 0.111732287	-2.2104856932	 0.100564
H	 1.1060029439	-1.2599121909	-1.666098167	 0.096005
H	-1.8138293545	-1.6347541578	-2.1118286334	 0.081578
H	-2.1638667365	-2.7426676354	 0.0635350371	 0.083522
H	-0.5038896019	-3.0101891354	 1.8159386176	 0.104536
H	 0.175577389	-3.8069433888	 0.4015146385	 0.097121
H	 1.7023754898	-2.1906434072	 1.8319156454	 0.103052
H	 1.8294027245	-2.156252829	 0.0753220062	 0.092929
H	-2.3088315139	-0.2119057918	 0.3623104488	 0.076433
153.5121	235.4268	256.2424	303.6344	339.6363	378.2843	431.3436	513.8103	525.3234	605.7404	687.766	748.1052	775.4817	823.3706	860.3364	880.2081	898.299	915.9712	952.6832	976.5767	989.1371	1016.5058	1031.8088	1069.585	1088.1224	1117.4274	1133.2256	1163.8006	1173.54	1198.39	1237.9507	1247.0368	1261.7469	1291.0661	1318.5383	1349.0867	1367.2428	1406.2611	1408.3163	1446.0568	1481.6378	1485.0048	1489.4328	1492.4771	1520.5669	2997.9007	3020.0025	3037.4482	3056.1059	3059.6596	3081.0001	3102.1854	3110.5875	3117.5943	3129.4017	3170.1194	3182.3506
CC12CC3C(CCO1)C23	C[C@@]12C[C@H]3[C@@H](CCO1)[C@@H]23	
InChI=1S/C8H12O/c1-8-4-6-5(7(6)8)2-3-9-8/h5-7H,2-4H2,1H3	InChI=1S/C8H12O/c1-8-4-6-5(7(6)8)2-3-9-8/h5-7H,2-4H2,1H3/t5-,6+,7-,8+/m1/s1
