17
gdb 69184	1.98888	1.70642	1.15659	3.4963	80.14	-0.2355	-0.0141	0.2214	1114.0491	0.133745	-384.652417	-384.643773	-384.642829	-384.685592	32.766	
C	 0.0085725902	 1.530790571	 0.0319557622	-0.498976
C	 0.0244786433	 0.0311426583	 0.0179773758	 0.356047
C	-0.8584846195	-0.8366078092	 0.8343887155	-0.334251
C	 0.6511355956	-0.943756594	 1.0602077945	-0.23013
C	 1.2594607457	-1.7280715388	-0.0480696406	 0.425735
O	 2.0852762611	-2.5888415447	-0.1170129034	-0.310891
C	 0.5993604687	-0.8106879357	-1.1527629333	-0.377856
C	-0.3068343861	-1.3822786756	-2.1236198443	 0.330109
C	-1.072899214	-1.8779834381	-2.9074621766	-0.457169
H	 0.9846957791	 1.9439033253	-0.2441573985	 0.127176
H	-0.7310510959	 1.9167471486	-0.6786497046	 0.138342
H	-0.2536516829	 1.9119384129	 1.0237928377	 0.126554
H	-1.3788007912	-0.350005313	 1.6536557364	 0.126365
H	-1.4043213347	-1.659243785	 0.3830191143	 0.138853
H	 1.0905688211	-0.7527967209	 2.0316703043	 0.113726
H	 1.4224337231	-0.2813190701	-1.6488627865	 0.126709
H	-1.7408728935	-2.3151006111	-3.6077258228	 0.199658
94.2383	114.8014	154.7727	209.1006	265.685	346.1062	363.09	380.9168	509.8396	536.7268	578.5121	609.1789	644.2544	645.8648	727.9537	769.1854	839.0144	924.4132	933.2089	989.137	998.6098	1043.4174	1056.4622	1080.1225	1107.3241	1117.7647	1138.6815	1229.9628	1270.0144	1304.8075	1396.9667	1426.9642	1484.3184	1495.9866	1502.0634	1890.514	2230.6166	3029.0667	3039.2943	3091.6949	3104.6404	3124.6448	3194.111	3210.211	3502.8233
CC12CC1C(=O)C2C#C	C[C@]12C[C@H]1C(=O)[C@H]2C#C	
InChI=1S/C8H8O/c1-3-5-7(9)6-4-8(5,6)2/h1,5-6H,4H2,2H3	InChI=1S/C8H8O/c1-3-5-7(9)6-4-8(5,6)2/h1,5-6H,4H2,2H3/t5-,6+,8-/m1/s1
