18
gdb 69745	2.84199	1.63715	1.3454	3.5521	75.88	-0.237	-0.0047	0.2323	1009.4062	0.147689	-401.918357	-401.910691	-401.909747	-401.950244	30.272	
C	 0.0481586004	 1.5415378309	 0.0098212555	-0.486364
C	 0.0414038439	 0.0459493981	 0.0441831542	 0.350325
C	-0.9151150562	-0.8119181087	 0.8194478986	-0.339437
C	 0.5696158359	-0.988128124	 1.0511412077	-0.128689
C	 1.2626995555	-1.7143433764	-0.1135972833	 0.022647
C	 0.6148555295	-2.8879190976	-0.8916231403	-0.399086
C	-0.0837335382	-1.7751487797	-1.714640233	 0.371957
O	-0.9672110851	-1.7279374366	-2.5176943623	-0.311334
N	 0.6653955613	-0.7353502719	-1.0770987588	-0.181544
H	 1.0459983772	 1.9255769931	-0.2227030179	 0.12964
H	-0.6437544615	 1.912094672	-0.7547684772	 0.138926
H	-0.2679836245	 1.9494335954	 0.9750076226	 0.12075
H	-1.4218499323	-0.2954333654	 1.6290675808	 0.119781
H	-1.5268523047	-1.5695234646	 0.3387325601	 0.130299
H	 1.0176781979	-0.8204972376	 2.0226512799	 0.096519
H	 2.3529830605	-1.704507876	-0.0559737945	 0.090203
H	 1.3120137671	-3.5159361059	-1.451395078	 0.136264
H	-0.0846337165	-3.5259961249	-0.3473316744	 0.139144
123.9777	156.2375	202.8178	246.5416	335.484	393.2889	479.4442	495.1933	526.3655	606.4902	666.5344	756.6878	765.7257	827.3422	877.6301	919.8824	948.031	978.7247	983.9695	1001.8374	1022.7191	1064.1759	1070.175	1084.6992	1111.6876	1123.8879	1131.0977	1192.1083	1212.238	1245.3549	1279.7181	1333.3985	1383.2303	1423.1306	1441.6579	1475.6587	1495.8937	1500.528	1889.7845	3032.9527	3074.9763	3088.4884	3098.3324	3112.2385	3122.0136	3133.2292	3188.7921	3203.5498
CC12CC1C1CC(=O)N21	C[C@]12C[C@H]1[C@H]1CC(=O)N21	
InChI=1S/C7H9NO/c1-7-3-4(7)5-2-6(9)8(5)7/h4-5H,2-3H2,1H3	InChI=1S/C7H9NO/c1-7-3-4(7)5-2-6(9)8(5)7/h4-5H,2-3H2,1H3/t4-,5+,7-/m0/s1
