20
gdb 87496	4.09225	1.13027	1.0523	2.7556	81.16	-0.2147	0.0944	0.309	1237.3923	0.169402	-403.042655	-403.034154	-403.03321	-403.075362	33.172	
C	 0.4548223125	 1.7302243284	-0.1351902646	-0.414415
C	 0.1417842463	 0.2750339414	 0.0953267817	-0.086548
O	 1.2687355035	-0.6489176183	 0.0178720573	-0.31139
C	 0.6302244606	-0.4734492762	 1.241313657	 0.590157
C	 1.2371003876	-0.1448374578	 2.6162628956	-0.141058
C	-0.1991335646	-0.3540805294	 3.1859941576	-0.254329
C	 0.0791223326	-1.5351120535	 2.2061150003	-0.144232
N	 1.5158945224	-1.6426025616	 2.7096900522	-0.109848
C	 1.7541093219	-2.2274146272	 4.0251138954	-0.328054
H	 1.3492698196	 2.0279327537	 0.417707387	 0.127686
H	 0.6274052022	 1.9231328076	-1.1990647452	 0.13179
H	-0.382646481	 2.3585505303	 0.18771629	 0.121738
H	-0.7477177476	-0.0990929356	-0.4146881816	 0.094013
H	 1.9858870645	 0.6009035833	 2.8851596815	 0.086881
H	-0.2691525612	-0.6065056005	 4.2419043082	 0.109458
H	-0.9689475247	 0.3697798781	 2.9038847676	 0.098308
H	-0.5284724	-2.4150155365	 1.9923887281	 0.087706
H	 1.678329216	-3.3159320135	 3.9335185473	 0.123952
H	 2.7818807767	-1.9933439977	 4.3217420388	 0.123687
H	 1.0881985325	-1.911844065	 4.8434279159	 0.094497
134.3966	139.4203	187.053	198.6491	244.7987	289.6082	381.3257	431.8752	448.0464	496.4013	600.2741	657.7375	759.6536	768.8387	787.6719	808.9422	880.5238	923.8853	983.6482	996.4559	1009.0008	1047.9402	1088.2032	1108.2324	1114.6144	1122.4364	1131.1573	1135.5359	1180.2533	1186.3043	1190.5049	1222.56	1235.3805	1263.9942	1358.6394	1409.8984	1442.6219	1476.3384	1480.4176	1492.8387	1499.1702	1521.1405	1573.661	2976.4049	3036.1795	3062.0298	3067.0527	3092.5978	3098.0622	3099.6722	3112.7794	3117.9446	3127.1432	3158.8237
CC1OC11C2CC1N2C	C[C@H]1O[C@]21[C@H]1C[C@@H]2N1C	
InChI=1S/C7H11NO/c1-4-7(9-4)5-3-6(7)8(5)2/h4-6H,3H2,1-2H3	InChI=1S/C7H11NO/c1-4-7(9-4)5-3-6(7)8(5)2/h4-6H,3H2,1-2H3/t4-,5-,6+,7-/m1/s1
