13
gdb 43577	3.41525	1.40073	1.12472	4.1681	64.36	-0.292	-0.0228	0.2692	1021.9652	0.089873	-452.736076	-452.728976	-452.728032	-452.768061	26.155	
N	-0.0164886084	 1.1752023505	 0.3943725469	-0.530644
C	 0.0021314305	-0.0220275305	 0.0119184784	 0.444769
O	 1.1193743658	-0.69989367	-0.4304137375	-0.251615
C	 0.7591905088	-1.9414087575	-1.0584784288	-0.056313
C	 1.6379407417	-3.0137247758	-0.5785474947	 0.294764
N	 2.318663226	-3.8815141524	-0.2384408313	-0.302114
C	-0.7131484942	-2.1642509071	-0.7201702427	 0.007288
O	-0.9384567016	-2.1552855745	 0.676630028	-0.223098
C	-1.1712176966	-0.9381847387	-0.0598772547	-0.054365
H	 0.9076217766	 1.6044474391	 0.3229920721	 0.240145
H	 0.8866033394	-1.8399703116	-2.1438137439	 0.148458
H	-1.3270520271	-2.8162041475	-1.3325107583	 0.138787
H	-2.1820477608	-0.5508715242	-0.0717276436	 0.143936
90.1845	132.9021	202.3112	294.5674	376.9076	413.4531	508.5931	568.561	630.2301	711.7073	799.9599	837.2194	874.6572	886.0129	912.9052	927.2423	990.7225	1025.8605	1073.0848	1081.646	1108.4776	1239.2367	1262.5614	1303.3926	1339.1753	1355.4722	1415.2376	1798.9913	2373.517	3037.4523	3180.8808	3214.6788	3481.8379
N=C1OC(C#N)C2OC12	[NH][C]1O[C@@H](C#N)[C@H]2O[C@@H]12	
InChI=1S/C5H4N2O2/c6-1-2-3-4(9-3)5(7)8-2/h2-4,7H	InChI=1S/C5H4N2O2/c6-1-2-3-4(9-3)5(7)8-2/h2-4,7H/t2-,3+,4+/m0/s1
