15
gdb 27490	2.00847	1.94182	0.99341	3.8628	71.75	-0.2528	-0.0383	0.2145	1125.3753	0.114729	-450.213681	-450.205678	-450.204734	-450.246733	29.435	
C	 0.1065313466	 1.4797609414	 0.0433628884	-0.487754
C	-0.0352788294	-0.0120625483	-0.0531063154	 0.398208
N	 0.1109599511	-0.6043799994	-1.1924391102	-0.355541
C	-0.0271634836	-1.9920784252	-1.2446628763	 0.429044
O	 0.0872141294	-2.6439677965	-2.2533052686	-0.359736
N	-0.3212745619	-2.641259872	-0.0259876546	-0.405921
C	-0.4836806863	-2.040094663	 1.2058603615	 0.457253
N	-0.7474924798	-2.5579900296	 2.3378268291	-0.569106
N	-0.3192948696	-0.6582334964	 1.1156828487	-0.341163
H	 0.9132348135	 1.7466651948	 0.7347940224	 0.150008
H	 0.3288405578	 1.879643717	-0.9442609258	 0.172192
H	-0.817415366	 1.9317114703	 0.4203490004	 0.14986
H	-0.417048052	-3.6440688426	-0.0898613507	 0.265235
H	-0.8452607559	-3.5689021392	 2.2811320223	 0.220389
H	-0.4255988439	-0.1570122213	 1.9845517887	 0.277032
84.7502	113.5778	133.7873	202.2344	304.2344	382.5696	524.5115	534.6612	558.4283	576.3499	603.6402	647.7388	650.1549	724.8899	784.9836	802.1925	933.8297	967.759	1043.7139	1062.7448	1076.3045	1125.5335	1182.4551	1281.7453	1390.3685	1403.0196	1441.8058	1464.3101	1482.3089	1510.8767	1672.8525	1761.3914	1827.4952	3042.6505	3100.7296	3175.5804	3523.4419	3625.3259	3635.1478
CC1=NC(=O)NC(=N)N1	CC1=NC(=O)N[C]([NH])N1	
InChI=1S/C4H6N4O/c1-2-6-3(5)8-4(9)7-2/h1H3,(H3,5,6,7,8,9)	InChI=1S/C4H6N4O/c1-2-6-3(5)8-4(9)7-2/h1H3,(H3,5,6,7,8,9)
