18
gdb 89196	2.53179	1.55669	1.20519	3.2207	71.62	-0.2415	0.0079	0.2494	1083.0532	0.147778	-439.095836	-439.087296	-439.086351	-439.128886	32.183	
C	-0.7549843593	 1.3059413482	 0.0100046625	-0.410881
C	-0.018076329	-0.02354494	 0.0611349161	 0.019922
C	 1.1322412003	-0.2934744364	-0.9638531369	-0.302077
C	 2.0980044677	-0.6866055777	 0.2017885124	 0.141952
N	 2.7216284175	-1.9682345194	 0.1019201378	-0.602378
C	 0.9798845634	-0.2673195437	 1.211568107	 0.068487
O	 1.7502147282	 0.9318335979	 1.5487766252	-0.262273
C	 2.8159044864	 0.5541394563	 0.7562173859	 0.398439
O	 3.8755998884	 1.0862245067	 0.6632342604	-0.333656
H	-0.0568378961	 2.1430560605	 0.09440758	 0.136297
H	-1.3020462266	 1.40892795	-0.9328917516	 0.117943
H	-1.4781839367	 1.3883912461	 0.8282881099	 0.121066
H	-0.7301993696	-0.8548475928	 0.0361797449	 0.089208
H	 0.9396576884	-1.1380129433	-1.6286406644	 0.118191
H	 1.4557405945	 0.5631929255	-1.5592965219	 0.119298
H	 3.1616103945	-2.0782515095	-0.8063086559	 0.242932
H	 3.4484104223	-2.0857975451	 0.8013252049	 0.242268
H	 0.6967183756	-0.8142152234	 2.1097053536	 0.095261
88.1372	142.6598	201.2785	224.3004	237.4431	258.0247	306.5045	387.111	433.1616	590.0249	608.9967	703.5411	738.6923	798.12	801.0186	853.7588	885.1968	893.8472	937.0669	966.7188	984.1796	1019.2423	1105.3916	1113.1788	1152.2065	1187.128	1190.7525	1246.1628	1273.367	1301.0204	1325.2488	1358.08	1375.2745	1411.3399	1476.5208	1492.8249	1500.4385	1660.2495	1924.7277	3036.2627	3054.3132	3069.0954	3100.0984	3120.5291	3127.0425	3130.4933	3498.9561	3577.2445
CC1CC2(N)C1OC2=O	C[C@H]1C[C@]2(N)[C@H]1OC2=O	
InChI=1S/C6H9NO2/c1-3-2-6(7)4(3)9-5(6)8/h3-4H,2,7H2,1H3	InChI=1S/C6H9NO2/c1-3-2-6(7)4(3)9-5(6)8/h3-4H,2,7H2,1H3/t3-,4-,6-/m0/s1
