17
gdb 126250	2.21374	1.43149	0.92982	2.496	78.8	-0.2571	-0.0631	0.194	1247.1456	0.137127	-418.051062	-418.04249	-418.041546	-418.085836	30.529	
C	-0.1527311541	 1.5800061897	 0.0239025154	-0.366328
C	 0.0025199271	 0.0481095614	 0.0174730411	-0.314168
C	 0.7239968683	-0.4658448789	-1.19390009	 0.110186
C	 2.0917202304	-0.6906908644	-1.3623409729	 0.209384
N	 2.2517462594	-1.120301848	-2.6459135477	-0.233535
N	 1.109239542	-1.1955253293	-3.3213533282	-0.20434
C	 0.1762359034	-0.7980876525	-2.4491176414	-0.070294
C	 3.2396526664	-0.5624680953	-0.480023859	 0.079714
O	 4.3780814895	-0.8085564034	-0.8265082507	-0.298714
H	 0.824076864	 2.0734468431	 0.0188531499	 0.122468
H	-0.7015009842	 1.9220241865	-0.858759234	 0.126324
H	-0.6973960665	 1.9102485502	 0.9136754134	 0.118511
H	 0.5248760915	-0.2671641522	 0.9272886641	 0.11114
H	-0.9899234618	-0.4145784107	 0.0610902982	 0.116184
H	 3.1285130297	-1.3762754731	-3.0725557087	 0.289555
H	-0.8605702199	-0.7708487451	-2.7522487396	 0.120325
H	 3.0079251548	-0.2209021077	 0.5492548601	 0.08359
18.4425	139.9416	161.859	166.204	223.0814	267.2905	314.098	408.8028	540.778	592.9702	622.0536	708.225	732.1649	787.1302	800.5243	886.3829	953.5684	980.8042	1027.5917	1057.7229	1080.2643	1153.7013	1183.4538	1241.1997	1290.1549	1311.3554	1342.4902	1373.602	1405.0708	1409.6637	1458.5711	1488.1728	1495.1619	1499.4055	1509.7969	1596.9848	1768.1266	2923.3186	3037.2657	3038.9793	3071.1581	3111.8544	3114.8287	3243.2524	3654.3901
CCC1=C(NN=C1)C=O	CCc1c([nH]nc1)C=O	
InChI=1S/C6H8N2O/c1-2-5-3-7-8-6(5)4-9/h3-4H,2H2,1H3,(H,7,8)	InChI=1S/C6H8N2O/c1-2-5-3-7-8-6(5)4-9/h3-4H,2H2,1H3,(H,7,8)
