16
gdb 60920	3.77045	1.08691	0.90647	3.0887	66.72	-0.2573	-0.0371	0.2202	1253.057	0.123797	-475.037979	-475.029428	-475.028484	-475.072549	29.796	
O	-0.0250769258	 1.4497594122	 0.0796056985	-0.423972
C	 0.0653768664	 0.0516771276	 0.0621032282	-0.062525
C	 0.7405340818	-0.4286254145	-1.2197505712	 0.159501
O	 1.0824941363	 0.3635924057	-2.0613748079	-0.259943
C	 0.8349026543	-0.4646107647	 1.2522752028	 0.4263
N	 1.938036404	-1.092060249	 1.1869383568	-0.32023
C	 2.3211728087	-1.3964684944	 2.5760684487	-0.188234
C	 1.2151909119	-0.7317389574	 3.4374073544	-0.113992
O	 0.2761463295	-0.2204368932	 2.4591281643	-0.252613
H	 0.4199521209	 1.7373000353	-0.7354419937	 0.298956
H	-0.9450440536	-0.3937901262	 0.0933082639	 0.11325
H	 0.8774114742	-1.5173756737	-1.3344573056	 0.121819
H	 2.3721608303	-2.48144689	 2.716343428	 0.121637
H	 3.3162175771	-0.9929981109	 2.7856044102	 0.126344
H	 0.6811858938	-1.4273091013	 4.0889020694	 0.125369
H	 1.5757361102	 0.1112414846	 4.0331005831	 0.128333
38.8414	92.5449	106.0715	147.6682	235.5957	307.3615	352.4588	399.0665	460.6137	614.3394	746.2283	760.6555	785.4608	833.1491	878.1523	929.2829	972.9151	985.8799	1008.0429	1046.4819	1119.7913	1148.3217	1214.2536	1220.967	1247.0379	1267.0484	1323.3452	1354.5396	1390.454	1394.19	1456.8712	1500.9912	1526.0054	1730.5783	1820.5015	2956.8128	2997.756	3046.4834	3062.463	3080.6396	3114.4935	3666.3208
OC(C=O)C1=NCCO1	O[C@@H](C=O)C1=NCCO1	
InChI=1S/C5H7NO3/c7-3-4(8)5-6-1-2-9-5/h3-4,8H,1-2H2	InChI=1S/C5H7NO3/c7-3-4(8)5-6-1-2-9-5/h3-4,8H,1-2H2/t4-/m0/s1
