23
gdb 110358	2.82499	1.14699	1.00208	1.0239	86.19	-0.2368	0.0862	0.3231	1341.5627	0.204652	-388.254142	-388.244409	-388.243465	-388.288514	36.765	
C	 0.2187916848	 0.9346071066	-0.1326346577	-0.23297
O	-0.5368527409	-0.2148000296	-0.4546749028	-0.239392
C	 0.0287368275	-0.9574942207	-1.4905530326	 0.111614
C	 1.1462775356	-1.9381509733	-1.2722743102	-0.118788
C	-0.2871536871	-2.4036210289	-1.6282616153	-0.123966
C	-0.4257757762	-3.0810635996	-0.2532430902	 0.015577
C	-0.6815460093	-4.5822159751	-0.3214989707	-0.411328
C	 1.0329526862	-2.6070935426	 0.1096142944	 0.011608
C	 2.0808918811	-3.6824162181	 0.3733487635	-0.410896
H	 1.2417408125	 0.6759018655	 0.1762505268	 0.109685
H	 0.2815161177	 1.6292560417	-0.9846198724	 0.103778
H	-0.2903485063	 1.4360892408	 0.6938904541	 0.125028
H	 0.0923274623	-0.4107337287	-2.4346475037	 0.080717
H	 2.0421279329	-1.9356262365	-1.8850603656	 0.075061
H	-0.6704838664	-2.8154071591	-2.556244959	 0.078681
H	-1.1892030922	-2.6134751112	 0.3762489405	 0.0807
H	 0.0219364933	-5.0918057143	-0.9874395641	 0.113466
H	-0.6087761732	-5.0475525676	 0.6669681381	 0.112228
H	-1.6904761526	-4.7744750012	-0.703419263	 0.112007
H	 1.045599533	-1.8901007057	 0.938258959	 0.069691
H	 2.1516419722	-4.4022006282	-0.4480715274	 0.114835
H	 3.0694079845	-3.2239946003	 0.4906334238	 0.109732
H	 1.8637990108	-4.237850744	 1.2916387447	 0.112932
82.4568	95.6558	162.5836	203.9569	227.8222	242.6728	274.0854	290.3178	303.9727	339.9916	452.7998	596.2021	625.8135	718.9786	725.221	786.5691	809.4624	894.5867	956.1979	980.8067	989.3096	999.8589	1006.2393	1052.9468	1083.0626	1092.6961	1120.7795	1123.0022	1148.0259	1161.9457	1181.9077	1195.3022	1245.7417	1258.9147	1260.0657	1304.2525	1322.091	1364.9913	1371.3942	1406.113	1417.1622	1422.7319	1484.8931	1487.3755	1488.3754	1492.158	1503.388	1508.8054	1513.017	2979.7523	3026.9847	3028.9547	3031.9092	3033.5458	3054.2222	3073.9493	3089.3986	3094.0802	3098.9032	3109.7735	3115.9454	3153.0402	3164.6482
COC1C2C1C(C)C2C	CO[C@H]1[C@@H]2[C@H]1[C@@H](C)[C@H]2C	
InChI=1S/C8H14O/c1-4-5(2)7-6(4)8(7)9-3/h4-8H,1-3H3	InChI=1S/C8H14O/c1-4-5(2)7-6(4)8(7)9-3/h4-8H,1-3H3/t4-,5+,6+,7-,8+
