18
gdb 97113	2.89657	0.8839	0.72383	2.019	84.72	-0.2447	0.0264	0.2711	1609.9519	0.145568	-401.917261	-401.907112	-401.906168	-401.955016	33.952	
C	 0.0814956007	 1.509683857	 0.09119634	-0.339618
N	 0.1666360645	 0.0599204604	-0.0189186953	-0.32165
C	 0.5385187433	-0.6087499136	 0.9645436363	 0.473072
O	 0.9220662602	-0.2196668599	 2.2396760652	-0.264332
C	 1.0927595667	-1.6006592017	 2.6648900475	-0.085228
C	 0.7484365032	-2.1011935038	 1.232796161	-0.346717
C	-0.3768819386	-2.995802524	 1.0643933531	 0.101464
C	-1.3161423374	-3.7379684719	 0.9381304986	 0.061477
C	-2.4549462658	-4.628822655	 0.7728160687	-0.497758
H	 0.7690186067	 1.9643191802	-0.6305939371	 0.128442
H	-0.9290781287	 1.8279566087	-0.1862503999	 0.129065
H	 0.3131832596	 1.8982957487	 1.089633096	 0.126449
H	 2.1124592839	-1.7860757458	 3.0099049191	 0.12158
H	 0.3654942627	-1.871735074	 3.4327262711	 0.128658
H	 1.6307889172	-2.4744278623	 0.7023132088	 0.130752
H	-2.1893886896	-5.5080667256	 0.1758096294	 0.15058
H	-2.8257140435	-4.9837898363	 1.7406873832	 0.148961
H	-3.2826530652	-4.1203341812	 0.2665449242	 0.154802
13.5156	67.2958	84.6552	88.7922	154.1072	199.5682	212.1803	281.9431	317.5274	412.8772	472.0366	544.2361	631.3298	727.3515	767.9071	919.8217	944.4791	980.4764	1048.075	1051.7367	1057.2084	1063.2041	1100.6758	1133.1192	1159.5601	1175.8472	1198.8292	1203.3017	1324.4658	1359.151	1414.3846	1439.3821	1476.8913	1477.7678	1494.3974	1497.7026	1515.1322	1853.2121	2376.2798	3018.4031	3028.6934	3054.8747	3067.4503	3084.8757	3089.4052	3089.8953	3091.502	3131.5898
CN=C1OCC1C#CC	CN=C1OC[C@H]1C#CC	
InChI=1S/C7H9NO/c1-3-4-6-5-9-7(6)8-2/h6H,5H2,1-2H3	InChI=1S/C7H9NO/c1-3-4-6-5-9-7(6)8-2/h6H,5H2,1-2H3/t6-/m1/s1
