15
gdb 15918	3.68192	1.93047	1.55754	2.4445	67.65	-0.2312	0.0145	0.2457	836.3803	0.118631	-362.570363	-362.563312	-362.562368	-362.601523	26.999	
C	-0.0481301036	-1.2188809604	-0.1271391628	-0.421501
C	-0.0048690512	-0.0208752411	-0.030274036	 0.260737
C	 0.057207258	 1.414055191	 0.0569082221	 0.25597
C	-0.4613511459	 2.277602524	-1.1245553311	-0.218758
N	 0.7003865967	 3.2034855981	-0.9759690349	-0.323431
C	 1.3335989467	 2.320749349	 0.0303740506	-0.115726
C	 0.9277752002	 2.6996505732	 1.4600984676	-0.068989
O	-0.3118331091	 1.9500657307	 1.3495704922	-0.32685
H	-0.0906944825	-2.2775127982	-0.2025392123	 0.197378
H	-0.4800558654	 1.7225132753	-2.0688820934	 0.109287
H	-1.4347366076	 2.7459834019	-0.9514712044	 0.120496
H	 1.2450589977	 3.2878180161	-1.8252314229	 0.226076
H	 2.3483494899	 1.9757962911	-0.168244713	 0.088304
H	 1.5667487649	 2.2839152789	 2.2492777357	 0.103869
H	 0.7557166811	 3.7669258903	 1.6279119027	 0.113137
113.1369	153.8374	192.6457	347.3893	382.2359	476.3729	518.7675	578.4606	624.2115	663.5429	672.9935	741.3303	849.6816	872.5857	929.5271	992.085	1003.1395	1026.2263	1045.8378	1079.3863	1084.3926	1139.9912	1159.7037	1173.9777	1242.5281	1290.0869	1333.4791	1353.0865	1395.5967	1492.0397	1504.378	2232.8411	3020.5267	3034.572	3091.6053	3094.3589	3112.9329	3499.9572	3553.6161
C#CC12CNC1CO2	C#C[C@]12CN[C@H]1CO2	
InChI=1S/C6H7NO/c1-2-6-4-7-5(6)3-8-6/h1,5,7H,3-4H2	InChI=1S/C6H7NO/c1-2-6-4-7-5(6)3-8-6/h1,5,7H,3-4H2/t5-,6-/m0/s1
