18
gdb 76518	2.91024	1.26645	1.21832	3.0767	72.25	-0.2327	0.0258	0.2586	1116.0969	0.147383	-439.077355	-439.068795	-439.067851	-439.110554	31.941	
C	-0.0085313904	 1.5891968253	-0.1740571929	-0.423236
C	 0.0050972985	 0.083946357	-0.026840715	-0.135628
C	 1.3049416294	-0.7155137912	-0.1259492511	-0.002581
O	 2.5327810429	-0.0556690932	-0.2216773596	-0.415829
C	 0.6036898982	-0.5751485646	 1.1847189233	 0.377486
C	 1.197251743	 0.1252052248	 2.4110162291	-0.256252
N	 0.8326785788	-0.752863143	 3.5388216895	-0.263612
C	 0.1681140821	-1.7046678607	 3.0346396031	 0.104832
O	-0.0619305807	-1.7383252397	 1.6967713591	-0.252645
H	 0.940245473	 2.0266083842	 0.1473236379	 0.1328
H	-0.1713193537	 1.8764359344	-1.2185169471	 0.118064
H	-0.8095444635	 2.0398963002	 0.420926319	 0.127628
H	-0.8599133731	-0.43509007	-0.4321847592	 0.100018
H	 1.2529007531	-1.6893608313	-0.6119453945	 0.099501
H	 2.6294301441	 0.277091848	-1.1202970323	 0.294511
H	 2.2841122106	 0.2255699708	 2.3381957827	 0.139017
H	 0.7846237667	 1.127019331	 2.5749906537	 0.117079
H	-0.262367149	-2.5360479523	 3.5813777644	 0.138846
81.4102	158.3471	177.4233	188.9182	231.3822	269.2684	312.0216	421.6637	478.2949	535.1788	564.2652	585.1809	782.926	816.2147	878.3822	888.0106	949.6704	958.0746	978.7804	1015.1699	1043.2166	1068.7035	1099.5889	1137.7904	1138.52	1159.2826	1204.3256	1216.6009	1263.1898	1292.0626	1333.2375	1338.2291	1374.1088	1413.6647	1473.8815	1498.4046	1501.4686	1510.893	1708.7944	3034.8613	3040.1115	3083.013	3093.8269	3108.4584	3117.0065	3146.3293	3218.4927	3804.9947
CC1C(O)C11CN=CO1	C[C@H]1[C@@H](O)[C@]21CN=CO2	
InChI=1S/C6H9NO2/c1-4-5(8)6(4)2-7-3-9-6/h3-5,8H,2H2,1H3	InChI=1S/C6H9NO2/c1-4-5(8)6(4)2-7-3-9-6/h3-5,8H,2H2,1H3/t4-,5+,6+/m0/s1
