17
gdb 23305	2.94564	1.30852	0.96447	3.4439	83.23	-0.1864	-0.0041	0.1823	1195.2273	0.137228	-417.973774	-417.965751	-417.964807	-418.00594	31.94	
N	 0.0769378284	 1.3446371646	 0.1295654026	-0.593012
C	-0.0256155834	-0.0197886599	 0.0326634146	 0.373623
C	-1.1484412342	-0.7811252947	-0.0413422654	-0.322271
C	-0.7867801651	-2.1889016094	-0.0133331544	 0.426819
N	-1.510297231	-3.2473564476	 0.0188071868	-0.283148
O	-2.8850609667	-2.9125454072	-0.0015829405	-0.404426
C	 0.7095712761	-2.2905350057	-0.0132235842	-0.115689
C	 1.4348490706	-1.6943630682	-1.1995432115	-0.286949
C	 1.2097676738	-0.8625254317	 0.0492647771	-0.143675
H	 0.9309349769	 1.7618509099	-0.2066545515	 0.255772
H	-0.7490359249	 1.8828601149	-0.0838886644	 0.257271
H	-2.1632365502	-0.424148787	-0.1333559326	 0.098613
H	-3.2985672335	-3.7800102402	 0.0441236485	 0.299445
H	 1.1854421254	-3.09114655	 0.5373096467	 0.103884
H	 2.4433787618	-2.0510448481	-1.382272923	 0.115208
H	 0.8650029521	-1.4463705802	-2.0881964686	 0.123052
H	 2.0547575539	-0.5631268895	 0.6594052598	 0.095482
135.1292	190.6364	198.6932	274.4522	346.1221	372.9729	402.35	413.6791	480.9941	510.6246	601.4925	652.1599	692.1428	696.972	803.1117	812.8555	832.6147	875.588	935.9978	938.1861	978.5071	1030.6531	1067.8266	1075.2844	1087.9121	1100.4031	1189.7366	1227.4855	1256.7982	1326.1276	1332.5653	1408.0326	1427.7321	1475.2066	1629.1088	1673.9068	1722.7095	3128.7411	3171.3902	3203.9696	3222.5201	3244.8404	3575.1495	3682.9296	3829.8616
NC1=CC(=NO)C2CC12	NC1=CC(=NO)[C@H]2C[C@@H]12	
InChI=1S/C6H8N2O/c7-5-2-6(8-9)4-1-3(4)5/h2-4,9H,1,7H2	InChI=1S/C6H8N2O/c7-5-2-6(8-9)4-1-3(4)5/h2-4,9H,1,7H2/t3-,4+/m1/s1
