19
gdb 55912	4.02888	1.02266	0.90729	0.9551	77.24	-0.2298	0.0358	0.2656	1328.7065	0.159277	-419.168039	-419.159323	-419.158379	-419.202255	32.273	
C	 0.1228961607	 1.4241964133	-0.1083648327	-0.461342
C	-0.0919981197	-0.0622449003	 0.0194296441	 0.395911
N	-0.5968938173	-0.7112976147	 0.9887990328	-0.526816
O	 0.3408242352	-0.6889260883	-1.0937301132	-0.24696
C	 0.2084898742	-2.1040902065	-1.1221841577	 0.188319
C	-1.1945776946	-2.7322515988	-1.42753477	-0.245844
C	-0.5463453975	-3.4295179347	-2.6287878799	-0.050776
N	-0.0944885623	-2.3367846578	-3.5182721178	-0.323695
C	 0.7626128211	-2.7542502436	-2.3798792643	-0.107101
H	 1.1841985156	 1.6391852964	-0.2660817302	 0.144939
H	-0.4157256287	 1.806156682	-0.9808431673	 0.150281
H	-0.2209189081	 1.9489570558	 0.784382935	 0.123401
H	-0.859925268	-0.0789710169	 1.7410825259	 0.217154
H	 0.630779406	-2.5280574548	-0.2088378725	 0.102839
H	-1.5326639458	-3.3917562101	-0.6280756762	 0.113184
H	-1.9798953812	-2.0212668654	-1.6894478232	 0.112596
H	-0.7396646869	-4.4232740946	-3.0117288104	 0.095101
H	 0.3082063337	-2.7699013507	-4.3495517302	 0.22765
H	 1.7761189736	-3.0974490603	-2.5469376223	 0.091158
63.061	85.3361	114.5218	126.4076	231.6532	349.9898	351.3882	452.986	569.5504	576.4817	599.4545	694.1837	798.6544	831.8854	854.4443	863.4657	904.1081	922.3636	955.6456	996.3807	1012.5186	1034.6034	1049.8451	1067.549	1087.545	1106.1877	1130.758	1131.5371	1157.5922	1206.0417	1247.4856	1298.3888	1335.0899	1355.7296	1382.4734	1396.5039	1428.0256	1469.279	1470.7503	1482.2182	1721.1011	3048.8024	3084.4772	3092.6117	3112.4892	3143.5246	3148.3036	3186.5166	3202.5051	3467.3804	3514.7235
CC(=N)OC1CC2NC12	C[C]([NH])O[C@H]1C[C@H]2N[C@@H]12	
InChI=1S/C6H10N2O/c1-3(7)9-5-2-4-6(5)8-4/h4-8H,2H2,1H3	InChI=1S/C6H10N2O/c1-3(7)9-5-2-4-6(5)8-4/h4-8H,2H2,1H3/t4-,5+,6-/m1/s1
