16
gdb 36353	5.64235	0.80413	0.76512	3.2819	69.81	-0.2693	0.0203	0.2897	1437.0063	0.123073	-437.848444	-437.840023	-437.839079	-437.882573	29.815	
N	-0.0448759919	-0.9966244835	-0.8563084551	-0.293876
C	-0.0358195666	 0.039168465	-0.3454298605	 0.268407
C	-0.009209594	 1.3448474387	 0.313906208	-0.371827
C	 1.3836670746	 1.9515503662	 0.3427307425	-0.037339
O	 1.8098009643	 2.6243840401	-0.8495915121	-0.259931
C	 1.5801340141	 3.3990439016	 0.3080154785	 0.350582
C	 0.607712393	 4.5716557335	 0.4110482987	-0.154392
O	 1.5977059847	 5.3303440467	 1.1381024438	-0.271011
C	 2.6049772607	 4.304971716	 0.9813707045	-0.154432
H	-0.6947614591	 2.0215896037	-0.2058906334	 0.163091
H	-0.3788856806	 1.2251957189	 1.3396521239	 0.162726
H	 2.1487106062	 1.3273701353	 0.8047883116	 0.121522
H	 0.3527603253	 5.0267438634	-0.5542862012	 0.123816
H	-0.3068836039	 4.4158930068	 0.9966343927	 0.11146
H	 3.0108048156	 3.9704208962	 1.9430499031	 0.116734
H	 3.4244919474	 4.6173384115	 0.322303885	 0.124469
47.7571	92.3407	115.6402	187.7388	229.5955	358.4146	384.7869	414.9413	446.0354	529.6597	613.6156	820.0891	844.0992	898.8114	925.4014	950.7287	963.8613	1024.6601	1027.2326	1073.8327	1084.6302	1128.3574	1145.1171	1169.6092	1187.912	1238.0062	1300.901	1317.7495	1330.7909	1378.7554	1447.1143	1498.8693	1520.6209	1533.7782	2368.2356	3012.212	3025.1192	3043.6296	3061.6425	3071.1405	3091.7629	3117.6717
N#CCC1OC11COC1	N#CC[C@H]1OC21COC2	
InChI=1S/C6H7NO2/c7-2-1-5-6(9-5)3-8-4-6/h5H,1,3-4H2	InChI=1S/C6H7NO2/c7-2-1-5-6(9-5)3-8-4-6/h5H,1,3-4H2/t5-/m1/s1
