18
gdb 39458	2.62463	1.7784	1.18054	1.7804	72.61	-0.2548	0.0017	0.2565	1034.1626	0.149573	-439.060107	-439.052658	-439.051713	-439.09187	29.283	
C	 0.0714832944	 1.6179490251	-0.0090184455	-0.333104
C	 1.2151503489	 0.7006982271	-0.3871845162	-0.030027
C	 2.4783427185	 0.6710308838	 0.4471501486	-0.191019
N	 3.1527835141	-0.62075392	 0.3085047856	-0.209653
C	 2.7989407708	-1.5727728407	 1.0519502572	 0.096849
O	 1.8705044205	-1.5519171679	 2.0689482047	-0.23323
C	 0.4774266046	-1.5524161987	 1.7678778024	 0.023597
O	-0.0656756251	-0.2877025327	 1.5386635253	-0.228476
C	-0.0550060433	 0.1404098394	 0.2015024562	 0.107385
H	 0.1880906951	 2.2154414418	 0.8887178604	 0.130087
H	-0.5116455972	 2.0859341506	-0.7938465356	 0.117905
H	 1.3701891116	 0.5157373103	-1.4465105721	 0.09672
H	 3.1703485553	 1.4433946408	 0.0975767342	 0.107607
H	 2.2244437324	 0.8801086365	 1.4930816934	 0.116953
H	 3.3052183787	-2.536585514	 0.9776168452	 0.116068
H	 0.2862674958	-2.2224198879	 0.917779661	 0.095221
H	 0.0026843629	-1.9325863615	 2.674118949	 0.124515
H	-0.7239740981	-0.4290182021	-0.4423864837	 0.092599
145.5763	157.3541	222.1996	282.0439	332.6335	359.909	435.3595	527.0188	543.0854	636.5129	716.1799	783.3129	826.7965	846.4963	913.0872	953.5667	971.6839	988.4	997.9476	1054.8406	1055.5256	1082.5523	1122.2511	1130.0269	1149.3599	1170.4673	1199.6708	1244.5226	1272.3339	1329.8279	1345.4154	1385.9207	1404.5842	1414.2012	1451.4875	1483.8803	1495.4799	1503.5055	1734.4937	3003.772	3032.5795	3080.355	3109.6471	3119.4339	3123.7211	3138.7035	3150.3398	3226.9823
C1C2CN=COCOC12	C1[C@H]2CN=COCO[C@@H]12	
InChI=1S/C6H9NO2/c1-5-2-7-3-8-4-9-6(1)5/h3,5-6H,1-2,4H2/b7-3-	InChI=1S/C6H9NO2/c1-5-2-7-3-8-4-9-6(1)5/h3,5-6H,1-2,4H2/b7-3-/t5-,6-/m0/s1
