20
gdb 99300	3.98092	0.85504	0.7792	3.915	77.39	-0.2298	0.0544	0.2842	1529.1391	0.171762	-436.474241	-436.464208	-436.463264	-436.510057	35.474	
C	 0.6692573225	 1.0116755561	 0.2951249067	-0.322356
N	 0.0127655868	-0.1990274427	-0.1619631043	-0.353195
C	 0.5835082307	-0.9731958958	-1.1450650268	 0.511982
O	 1.705158537	-0.7646571809	-1.5900651034	-0.41769
N	-0.224636884	-2.001269884	-1.5951973671	-0.36218
C	 0.3256913607	-2.9888451994	-2.5196996565	-0.197921
C	 1.1390758099	-4.0854492377	-1.8624457111	 0.01848
C	 2.3825304489	-4.5661200417	-2.5175186603	-0.23874
N	 2.4525597582	-3.7736889018	-1.2830076548	-0.31432
H	 1.7438849144	 0.8750176314	 0.1744830457	 0.168433
H	 0.370426163	 1.8989695826	-0.2787185375	 0.12099
H	 0.4424685653	 1.1828197938	 1.3513328209	 0.121514
H	-0.9881576538	-0.2458655978	-0.0578959226	 0.237335
H	-0.9427758062	-2.3264854637	-0.9658834015	 0.234975
H	-0.5084219099	-3.424762465	-3.0818323728	 0.103937
H	 0.9524926208	-2.4377961257	-3.2250021248	 0.133801
H	 0.5591629196	-4.7951499154	-1.2716106131	 0.077885
H	 2.6842807792	-5.6054502212	-2.4195567592	 0.112311
H	 2.6704186754	-4.1004274417	-3.4575965837	 0.110077
H	 2.6780297014	-2.8019645194	-1.4928677536	 0.254681
60.6404	82.3672	93.0725	105.1865	152.5065	222.7053	270.3467	322.8725	360.3533	388.9605	463.2136	469.8027	584.4337	709.437	768.6175	796.4753	838.4707	904.5163	933.2655	974.2539	1021.5519	1050.3044	1073.3006	1126.2382	1150.4603	1153.9274	1170.4748	1178.9603	1219.9823	1252.4984	1275.6594	1298.4585	1343.3383	1373.879	1432.8924	1443.6045	1461.4921	1489.0304	1497.7254	1513.1245	1519.1943	1567.7421	1760.2635	3015.7149	3040.3729	3086.7149	3093.4945	3101.7087	3115.5988	3158.4106	3184.4252	3480.2562	3612.5322	3629.9073
CNC(=O)NCC1CN1	CNC(=O)NC[C@H]1CN1	
InChI=1S/C5H11N3O/c1-6-5(9)8-3-4-2-7-4/h4,7H,2-3H2,1H3,(H2,6,8,9)	InChI=1S/C5H11N3O/c1-6-5(9)8-3-4-2-7-4/h4,7H,2-3H2,1H3,(H2,6,8,9)/t4-/m1/s1
