18
gdb 35767	3.0496	1.48515	1.32785	4.249	74.83	-0.2787	0.0173	0.2959	1013.2386	0.150419	-401.947734	-401.940452	-401.939508	-401.979525	28.679	
N	-0.0796148881	-1.1780067819	-0.3161287308	-0.330156
C	-0.047034064	-0.0361059925	-0.141385155	 0.277115
C	-0.0009521722	 1.4279264655	 0.0822194912	-0.022903
O	-0.6521549406	 1.7799787052	 1.2906104363	-0.262057
C	 0.1855813598	 1.881031843	 2.4493560747	-0.079803
C	 1.5898092473	 2.372612586	 2.0887462128	-0.031174
C	 1.4881562587	 3.2855320348	 0.8316404951	-0.238767
C	 1.4485681339	 1.9542401292	 0.0278493214	-0.036259
C	 2.2704020943	 1.3162174079	 1.1778616489	-0.237624
H	-0.5924335672	 1.8965919705	-0.7136469671	 0.131931
H	-0.3300532314	 2.590098429	 3.1047692092	 0.116572
H	 0.2387925453	 0.9119053037	 2.9668863247	 0.109824
H	 2.1195722789	 2.7293271058	 2.9745106646	 0.074149
H	 0.6357925548	 3.96405376	 0.7508066797	 0.110598
H	 2.4172536713	 3.8290375879	 0.6486075434	 0.107207
H	 1.8327379075	 1.9160305899	-0.9930195617	 0.086467
H	 3.3398305214	 1.5021621864	 1.0560068607	 0.105816
H	 2.1076477504	 0.2578525697	 1.4003467217	 0.119063
93.2385	145.5935	251.6877	306.608	396.3521	408.9968	446.6722	568.2804	570.242	654.0238	812.4911	826.1457	832.5371	876.8767	911.2033	927.8723	935.191	967.2721	988.6716	1049.736	1053.3935	1091.9159	1102.8308	1123.2263	1151.6545	1187.7753	1239.9381	1246.7545	1268.9022	1291.2113	1320.2816	1336.2471	1344.6174	1367.7355	1405.0542	1479.3383	1504.676	1515.5174	2351.7113	3000.3688	3040.405	3058.7573	3067.9731	3074.8384	3090.5346	3096.7254	3116.5251	3127.8643
N#CC1OCC2CC1C2	N#C[C@H]1OC[C@@H]2C[C@H]1C2	
InChI=1S/C7H9NO/c8-3-7-6-1-5(2-6)4-9-7/h5-7H,1-2,4H2	InChI=1S/C7H9NO/c8-3-7-6-1-5(2-6)4-9-7/h5-7H,1-2,4H2/t5-,6+,7-/m1/s1
