16
gdb 6742	7.13565	0.77978	0.73595	7.4515	68.28	-0.2331	0.0073	0.2405	1500.7405	0.129663	-417.096561	-417.087564	-417.08662	-417.13162	30.276	
C	 0.0112833317	 1.4343496336	 0.2462847311	-0.325057
N	-0.0482239757	 0.0756224388	-0.2492976999	-0.275606
C	-1.1577426427	-0.7015225441	-0.1953070487	 0.136217
N	-1.144636998	-1.9581571035	-0.4200575736	-0.292662
H	-0.4211777801	-3.5884699041	 0.2233350479	 0.299016
C	-2.3984657627	-2.6825003025	-0.386518272	-0.290436
C	-2.2204795476	-4.0402165036	 0.3103100381	 0.413654
O	-0.938588395	-4.3570615356	 0.544812255	-0.36183
O	-3.1389106533	-4.758577477	 0.5975074839	-0.337708
H	 0.6324921066	 2.0524680649	-0.4087870948	 0.140675
H	-0.9959901689	 1.8589807524	 0.2509119861	 0.145147
H	 0.4124617999	 1.4985136746	 1.2665699077	 0.134468
H	 0.819818609	-0.4123704517	-0.4141062396	 0.253214
H	-2.0753755873	-0.1420155649	 0.030889063	 0.100447
H	-3.218130977	-2.1487988834	 0.1151920202	 0.121113
H	-2.742355179	-2.9066940237	-1.4060980945	 0.139349
45.8147	74.5461	80.3576	127.3724	193.5432	229.4031	319.5777	392.5987	465.4708	569.4553	588.8127	601.5689	679.2775	788.6503	873.9919	987.3423	1019.3271	1040.1011	1071.6397	1151.6299	1187.4296	1221.0298	1232.7126	1318.6399	1346.3	1386.7856	1426.9883	1463.3644	1470.1932	1484.983	1491.8306	1532.7496	1758.1631	1877.0674	3000.1303	3012.1498	3036.2081	3038.2261	3080.9199	3121.8041	3511.717	3615.6905
CNC=[NH+]CC([O-])=O	CNC=NCC(=O)O	
InChI=1S/C4H8N2O2/c1-5-3-6-2-4(7)8/h3H,2H2,1H3,(H,5,6)(H,7,8)	InChI=1S/C4H8N2O2/c1-5-3-6-2-4(7)8/h3H,2H2,1H3,(H,5,6)(H,7,8)
