18
gdb 111716	2.2325	1.47338	1.09325	3.5596	78.17	-0.2567	0.0155	0.2723	1161.0805	0.147663	-401.925819	-401.91718	-401.916236	-401.959319	31.735	
C	-0.3885573065	 1.0087681749	-0.1595971718	-0.243847
O	 0.5828126116	 0.0062207283	 0.0949130543	-0.232046
C	 1.0044401289	-0.6434377186	-1.0499806942	 0.083901
C	 1.6294516114	-1.9830154344	-0.9517555649	-0.16554
C	 0.9936638825	-2.8092235666	 0.1718489428	-0.220863
C	-0.4101032555	-2.6388198883	-0.4847659676	-0.286711
C	 0.2234952855	-1.8186929226	-1.6250459123	 0.151373
C	-0.1393980114	-1.8881089629	-2.9994975952	 0.184528
N	-0.4397726719	-1.9422089996	-4.1172967268	-0.353111
H	 0.0101911086	 1.7918968957	-0.8199153069	 0.118963
H	-1.2904854176	 0.5867540231	-0.6228877321	 0.123049
H	-0.648882001	 1.4512417281	 0.803723259	 0.135846
H	 1.4238707209	 0.0091518029	-1.8178726858	 0.107402
H	 2.5710604122	-2.2012099126	-1.4408358473	 0.114475
H	 1.3287053695	-3.8472417431	 0.1639081821	 0.115314
H	 1.1154173846	-2.3963798311	 1.1747617717	 0.124041
H	-0.8255061433	-3.582335286	-0.8396709594	 0.127295
H	-1.1650895485	-2.1093433972	 0.1002080246	 0.11593
97.6864	112.9232	159.8709	184.8263	191.0027	253.8056	319.0516	478.1996	505.2559	529.1976	559.0864	612.6684	771.3864	793.3162	819.5446	883.8511	952.9728	960.0616	1004.9414	1044.3934	1057.4399	1097.8261	1127.3239	1154.7282	1181.0043	1213.9149	1222.9887	1242.8018	1250.8683	1268.8185	1298.7608	1335.5535	1434.3337	1475.1307	1484.7138	1487.223	1502.096	1510.8421	2335.8765	2996.356	3052.7429	3077.	3082.6919	3096.6561	3127.4015	3131.495	3144.1275	3191.8065
COC1C2CCC12C#N	CO[C@H]1[C@H]2CC[C@@]12C#N	
InChI=1S/C7H9NO/c1-9-6-5-2-3-7(5,6)4-8/h5-6H,2-3H2,1H3	InChI=1S/C7H9NO/c1-9-6-5-2-3-7(5,6)4-8/h5-6H,2-3H2,1H3/t5-,6+,7+/m1/s1
