15
gdb 51104	4.63739	0.93079	0.8525	2.6585	66.66	-0.2633	-0.0407	0.2226	1296.7115	0.110483	-457.766519	-457.758376	-457.757432	-457.800595	29.049	
O	 0.1118959732	-0.0719153292	 0.0642628864	-0.227999
C	 0.046380239	 1.110132795	-0.1440845665	 0.157089
C	 1.2309079392	 2.0601670883	-0.0102911256	-0.386551
C	 1.3594245509	 2.9737920643	-1.1881342956	 0.452842
C	 2.0016017945	 2.749269294	-2.5068469073	-0.325152
C	 2.4247379329	 3.947886018	-1.6356827321	-0.336963
C	 1.2973815685	 4.9434384958	-1.6592392478	 0.468203
O	 1.141709251	 6.1093135172	-1.8064861568	-0.315964
O	 0.3218567854	 3.9927564778	-1.3549702128	-0.299081
H	-0.9061274883	 1.5986769346	-0.4422878139	 0.107223
H	 1.0738231624	 2.6663560068	 0.8925897437	 0.145709
H	 2.1392962222	 1.4671240278	 0.1228234687	 0.137994
H	 2.7478769556	 1.9615932593	-2.5536981702	 0.141373
H	 1.4384113019	 2.9119431706	-3.4197406766	 0.145144
H	 3.4402975314	 4.1154567297	-1.3085214537	 0.136133
49.0035	60.4567	126.3667	187.2325	328.7038	353.8218	424.0677	471.7313	502.544	661.8233	689.8148	756.9744	813.9178	835.8134	903.1908	920.3344	967.1928	994.365	1005.6391	1025.3995	1061.9205	1090.1908	1106.9493	1178.169	1212.9012	1272.3924	1304.7559	1408.2889	1425.9195	1445.0761	1495.1954	1838.44	1951.2029	2907.892	3025.7716	3112.2452	3127.8983	3220.5238	3232.2127
O=CCC12CC1C(=O)O2	O=CC[C@]12C[C@H]1C(=O)O2	
InChI=1S/C6H6O3/c7-2-1-6-3-4(6)5(8)9-6/h2,4H,1,3H2	InChI=1S/C6H6O3/c7-2-1-6-3-4(6)5(8)9-6/h2,4H,1,3H2/t4-,6-/m0/s1
