17
gdb 62720	2.51878	1.8966	1.39385	3.5396	73.28	-0.2437	0.0018	0.2455	956.8706	0.134705	-421.813097	-421.805199	-421.804254	-421.844817	31.586	
C	-0.1379220341	 1.6208516067	-0.0272805629	-0.476904
C	 0.0051868711	 0.109368014	 0.008400168	 0.438702
O	-1.2351171462	-0.5299468519	-0.22889823	-0.472432
C	 1.1838309023	-0.5816670397	-0.7893731265	-0.250155
C	 2.4038761018	-0.0518419705	-0.0761320105	-0.101087
C	 2.0625128522	-0.0634895311	 1.2294066186	-0.103088
C	 0.6514059318	-0.6007590228	 1.2488317127	-0.212365
C	 0.9105090636	-1.7846680872	 0.2162309007	 0.434018
O	 0.9409382914	-2.9659399369	 0.2097823536	-0.301636
H	 0.8018875791	 2.1265752383	 0.1964747992	 0.133328
H	-0.4683208288	 1.9436047085	-1.0221219489	 0.10935
H	-0.8957736546	 1.9371680439	 0.6951998406	 0.130634
H	-1.5696270788	-0.2397072366	-1.0845466064	 0.283872
H	 1.1758756462	-0.6860931621	-1.8730267583	 0.076228
H	 3.3567465129	 0.1786008788	-0.5307891691	 0.111667
H	 2.6705231239	 0.1491373677	 2.0968456032	 0.112017
H	 0.1108383363	-0.7244893391	 2.1841242659	 0.087852
157.433	203.4587	231.6304	248.9774	304.4214	388.747	391.3687	404.9102	498.4639	592.5646	605.8227	620.9018	704.6763	746.3227	811.3327	834.1033	903.4851	915.7227	940.3145	942.154	973.1463	1002.2736	1076.5884	1104.2409	1127.5015	1132.3779	1164.4977	1202.1628	1213.7204	1243.4749	1324.4635	1365.4818	1403.3167	1489.0213	1494.0453	1580.7081	1933.8749	3033.6627	3099.7513	3139.1091	3146.2098	3156.9743	3223.5929	3247.0162	3804.4786
CC1(O)C2C=CC1C2=O	C[C@@]1(O)[C@H]2C=C[C@@H]1C2=O	
InChI=1S/C7H8O2/c1-7(9)4-2-3-5(7)6(4)8/h2-5,9H,1H3	InChI=1S/C7H8O2/c1-7(9)4-2-3-5(7)6(4)8/h2-5,9H,1H3/t4-,5+,7+
