21
gdb 75374	3.44279	1.2556	0.99545	1.9323	83.79	-0.2313	0.024	0.2553	1236.0666	0.184192	-387.092467	-387.084199	-387.083255	-387.125567	32.027	
C	-0.532772785	 1.5412088086	 0.0840279515	-0.487068
C	-0.0710710816	 0.1195087708	-0.057402219	 0.342925
C	-0.1744484809	-0.585151057	-1.1886887536	-0.163174
C	 0.3389272375	-2.0028122715	-1.2696287213	-0.286014
C	-0.0466053948	-2.7800041636	-0.0024308074	 0.148112
O	 0.97079737	-3.7022531025	 0.4606739219	-0.295801
C	 0.9970413879	-3.0860782076	 1.7650367762	-0.095137
C	 0.0213032654	-1.9773368134	 1.3161229628	-0.045772
C	 0.567233509	-0.5508001649	 1.1447636267	-0.33274
H	-1.2859940581	 1.6380595667	 0.8770424119	 0.12131
H	 0.2980140289	 2.2013616485	 0.3661932668	 0.123933
H	-0.9651988569	 1.9208969707	-0.8458297815	 0.120366
H	-0.61826566	-0.1408447348	-2.0755312976	 0.079285
H	-0.0272246442	-2.5080386747	-2.1678788018	 0.100748
H	 1.4361825515	-2.0126858684	-1.3303745118	 0.117411
H	-1.0009522775	-3.3013360125	-0.1512625768	 0.07358
H	 0.6140332422	-3.7590828776	 2.5433182093	 0.095521
H	 2.0069773712	-2.7590605396	 2.045120591	 0.096702
H	-0.9215779013	-1.9514323003	 1.8663457127	 0.075991
H	 1.656307246	-0.5966741566	 0.9967713729	 0.112141
H	 0.4076057106	 0.0366667396	 2.0550101272	 0.09768
65.8085	102.8869	197.1693	252.3505	282.222	362.9888	390.9156	418.0827	468.633	534.7308	664.8261	757.1159	799.4752	826.1531	846.87	882.1851	930.4934	963.723	982.5405	1021.869	1038.6051	1045.9418	1054.7104	1080.7652	1104.5	1143.9741	1157.9425	1173.4942	1189.5595	1222.911	1247.9555	1278.9078	1313.1145	1328.1208	1356.2727	1364.1031	1376.586	1379.2802	1414.0093	1478.5904	1485.6577	1489.63	1493.6215	1524.4176	1723.23	2996.5189	3002.3314	3009.742	3011.6454	3016.275	3042.4623	3056.0062	3061.6607	3081.2191	3087.5528	3108.4256	3160.3139
CC1=CCC2OCC2C1	CC1=CC[C@H]2OC[C@H]2C1	
InChI=1S/C8H12O/c1-6-2-3-8-7(4-6)5-9-8/h2,7-8H,3-5H2,1H3	InChI=1S/C8H12O/c1-6-2-3-8-7(4-6)5-9-8/h2,7-8H,3-5H2,1H3/t7-,8-/m1/s1
