17
gdb 81508	3.76041	1.26817	1.06463	1.5075	75.85	-0.2461	0.0296	0.2757	1141.1639	0.132703	-421.714549	-421.705857	-421.704913	-421.74729	33.533	
C	-0.1371459621	 1.5774611899	-0.0223232736	-0.439976
C	-0.0342561386	 0.064435704	-0.008048236	 0.007287
C	 1.2438702466	-0.6015042586	-0.5906344876	-0.023577
O	 2.0192469823	-0.1031411507	 0.5620640275	-0.304498
C	 0.7623739397	-0.61600346	 1.1445883617	-0.003253
C	 0.9403444359	-1.8896951283	 0.2652988821	 0.242008
O	-0.2306792367	-2.624676267	 0.0132152341	-0.481494
C	 2.0749440323	-2.7519791425	 0.5526205311	 0.293253
C	 2.9496806627	-3.5548866368	 0.7416976704	-0.449212
H	 0.8155139344	 2.0341538353	 0.2532781463	 0.137562
H	-0.4214431592	 1.9360509713	-1.0174328156	 0.116929
H	-0.9050820608	 1.9191637243	 0.6798070126	 0.117853
H	-0.9693429661	-0.4314994772	-0.2729183924	 0.100737
H	 1.6998878978	-0.5219286106	-1.5783732263	 0.095875
H	 0.6402057815	-0.5506964146	 2.2262275914	 0.100102
H	 0.0266023268	-3.4582024644	-0.3935242003	 0.291556
H	 3.7403888133	-4.2398618943	 0.9255905448	 0.198849
125.9923	140.3358	218.6377	224.346	246.3908	272.7867	345.7992	351.2163	465.4202	522.5135	536.6359	630.6238	661.3197	666.6834	714.8417	781.6731	792.2593	804.7993	892.935	939.3005	1013.0193	1037.3165	1064.8738	1113.5611	1117.6676	1145.2568	1152.8251	1194.3533	1216.1276	1228.0708	1275.076	1380.318	1395.2275	1414.817	1494.1702	1505.4155	2233.6595	3037.6856	3094.7504	3104.3919	3112.7832	3121.2806	3135.952	3500.9361	3825.8264
CC1C2OC1C2(O)C#C	C[C@H]1[C@H]2O[C@@H]1[C@]2(O)C#C	
InChI=1S/C7H8O2/c1-3-7(8)5-4(2)6(7)9-5/h1,4-6,8H,2H3	InChI=1S/C7H8O2/c1-3-7(8)5-4(2)6(7)9-5/h1,4-6,8H,2H3/t4-,5+,6-,7-
