19
gdb 112187	2.60004	1.23451	1.02914	2.2191	72.75	-0.2409	-0.0312	0.2097	1234.2432	0.155014	-460.157151	-460.146919	-460.145975	-460.192646	36.353	
C	-0.3433414647	 1.5459755739	-0.0738166155	-0.240286
O	-0.3016833835	 0.2910083314	 0.5715511299	-0.240088
C	-1.2665496761	-0.6050603097	 0.1080269056	 0.103562
C	-1.0185591456	-1.3020205431	-1.2772358889	-0.402764
C	-1.3817806124	-2.6141171195	-0.5791734354	 0.351693
O	-1.8087365275	-3.6763827731	-0.9358584107	-0.312406
C	-1.2474595349	-1.9920056487	 0.8254926513	 0.248467
C	 0.0696556948	-2.3154300092	 1.5292639656	-0.425269
O	-2.3619787074	-2.2224440165	 1.6602519737	-0.477879
H	 0.4272748943	 2.1701325416	 0.3839062897	 0.132848
H	-0.138015577	 1.4601045929	-1.1512752052	 0.110234
H	-1.3218601559	 2.0329744309	 0.0545785803	 0.112484
H	-2.2765089021	-0.1761273381	 0.1633920574	 0.09023
H	-1.6287949266	-1.0198281006	-2.1370963989	 0.132983
H	 0.0409398953	-1.2677635537	-1.554179908	 0.140071
H	 0.9359923531	-2.115192129	 0.8933031677	 0.121544
H	 0.1574646494	-1.7007971237	 2.4280924626	 0.142098
H	 0.0795107668	-3.3713473786	 1.8155809716	 0.120126
H	-2.64439073	-3.1327981671	 1.5070485471	 0.292352
50.5968	87.7171	129.6216	169.4026	203.2053	208.2375	223.8273	274.1298	327.3127	333.1778	422.5753	449.6813	499.6538	611.3506	663.4404	738.8093	794.5706	874.3218	932.7643	981.9131	1026.8031	1031.7966	1100.0227	1121.0613	1148.2848	1163.7823	1185.3976	1206.1993	1220.9506	1244.7672	1294.8569	1350.768	1388.4517	1403.0671	1433.1589	1479.8037	1483.8227	1486.748	1488.8165	1508.6867	1884.1177	2981.0968	3016.2568	3030.7642	3045.8194	3056.9476	3121.0482	3121.225	3127.5263	3133.2863	3781.632
COC1CC(=O)C1(C)O	CO[C@H]1CC(=O)[C@]1(C)O	
InChI=1S/C6H10O3/c1-6(8)4(7)3-5(6)9-2/h5,8H,3H2,1-2H3	InChI=1S/C6H10O3/c1-6(8)4(7)3-5(6)9-2/h5,8H,3H2,1-2H3/t5-,6-/m0/s1
