16
gdb 66655	2.78146	2.15191	1.4624	2.8181	70.59	-0.2349	-0.0263	0.2087	888.9794	0.125015	-400.705486	-400.698596	-400.697652	-400.736599	27.377	
C	 0.0646294111	 1.4837021667	-0.0578537036	-0.497372
C	 0.0255003475	-0.0179415246	-0.0384868161	 0.163826
C	 0.1347732159	-0.8395358555	 1.2511384187	-0.154187
C	-0.2185040585	-2.2817907307	 0.818366773	-0.046573
C	-0.5174782929	-2.2190471612	-0.6404277097	-0.192151
N	 0.8973280596	-2.3220264707	-0.1615451335	-0.157078
C	 1.2337792327	-0.8819821945	 0.2417473102	-0.060842
C	-0.8325384076	-0.7943026135	-0.9978462225	 0.427819
O	-1.5781239474	-0.3715018532	-1.8421357596	-0.332587
H	 0.749133397	 1.8761442967	 0.6998720255	 0.120987
H	 0.3927738395	 1.8479683195	-1.0360530837	 0.1396
H	-0.9297693851	 1.8983456013	 0.1332425947	 0.13859
H	 0.0898824199	-0.4053267524	 2.2395073092	 0.107588
H	-0.4533951045	-3.1216674553	 1.461555973	 0.110723
H	-0.9021108079	-3.0557704515	-1.2075247948	 0.118973
H	 2.2622115107	-0.547101171	 0.2506493692	 0.112683
134.8104	174.3864	232.8806	271.5527	442.0895	504.908	581.7108	620.1813	733.1769	749.6786	777.9063	782.1304	797.0787	858.4186	880.0467	885.4276	921.1753	951.0931	976.2489	1025.1088	1045.7895	1075.6065	1103.1803	1115.7559	1156.6232	1178.3566	1221.5847	1284.5715	1304.5472	1331.8369	1403.7446	1423.0303	1486.952	1496.7299	1856.6198	3041.0833	3109.1399	3112.9534	3181.1534	3203.756	3218.7953	3223.562
CC12C3C4C(N4C13)C2=O	C[C@]12[C@H]3[C@H]4[C@H](N4[C@@H]13)C2=O	
InChI=1S/C7H7NO/c1-7-2-3-4(6(7)9)8(3)5(2)7/h2-5H,1H3	InChI=1S/C7H7NO/c1-7-2-3-4(6(7)9)8(3)5(2)7/h2-5H,1H3/t2-,3-,4-,5+,7-,8?/m0/s1
