14
gdb 66550	3.19984	1.82194	1.50205	2.7367	63.47	-0.2341	-0.0162	0.218	858.3481	0.101242	-436.595391	-436.589007	-436.588063	-436.626022	25.847	
O	 0.0554311129	 1.3002514259	 0.0613987245	-0.453494
C	 0.1088401503	-0.0649259152	 0.0604672212	 0.397292
C	-1.0512463018	-1.0234274624	 0.1381091727	-0.167918
C	-0.2537861035	-0.9785046172	-1.140234328	-0.131873
N	 0.5340869103	-2.2266484974	-0.8836195433	-0.211205
C	-0.006372758	-2.0848061308	 0.559279048	 0.003114
C	 1.1205094572	-1.0127435508	 0.7828883992	-0.295128
C	 1.8335561497	-1.6850303378	-0.3897111136	 0.430876
O	 2.9385661634	-1.8412026982	-0.7937723236	-0.301819
H	 0.7000641951	 1.6443630136	-0.5687044618	 0.297571
H	-2.1041666207	-0.8881353195	 0.3362824951	 0.116008
H	-0.507406318	-0.6195110458	-2.1287635336	 0.11117
H	-0.1411188192	-2.9848636107	 1.1518498649	 0.104106
H	 1.5720930124	-0.7177442237	 1.7263211084	 0.101301
126.7467	263.2585	327.3336	364.8534	433.6607	579.9938	606.6092	624.5837	728.3362	753.526	796.0618	831.6598	832.4705	881.0428	900.0509	917.7621	930.7096	962.6124	1004.2377	1031.8407	1040.861	1112.4878	1126.6809	1135.4997	1188.2229	1208.593	1220.8788	1282.3788	1302.0334	1457.027	1928.2019	3158.1349	3165.199	3208.9339	3231.0635	3776.4762
OC12C3C1N1C3C2C1=O	O[C@@]12[C@H]3[C@@H]1N1[C@H]3[C@H]2C1=O	
InChI=1S/C6H5NO2/c8-5-2-3-1-4(7(3)5)6(1,2)9/h1-4,9H	InChI=1S/C6H5NO2/c8-5-2-3-1-4(7(3)5)6(1,2)9/h1-4,9H/t1-,2+,3-,4+,6-/m1/s1
