20
gdb 91044	2.207	1.86476	1.54175	0.6603	77.91	-0.227	0.057	0.284	1002.8615	0.170445	-403.074835	-403.066618	-403.065674	-403.106956	32.665	
C	-0.039373326	 1.555707293	-0.1146098795	-0.424945
C	 0.1219141863	 0.049666041	-0.0465329189	 0.118372
O	 1.1705734962	-0.5194055637	-0.8954376729	-0.325901
C	 1.5858377604	-1.4232363573	 0.1588776569	 0.058652
C	 2.8055558416	-0.9661080684	 0.9700650915	-0.045791
C	 2.8830010467	 0.4967201152	 1.0134993795	-0.251274
N	 1.9146563093	-0.1626500382	 1.9233212109	-0.198156
C	 0.6902809953	-0.7063801794	 1.1749793792	 0.273373
C	-0.2450567474	-1.3630171889	 2.1560132702	-0.466678
H	-0.1680878939	 1.8666130928	-1.1564830275	 0.131537
H	-0.9421949008	 1.8452226219	 0.4336783055	 0.122986
H	 0.802221167	 2.1024710597	 0.3115270278	 0.131755
H	-0.8365867992	-0.4132757946	-0.3298601958	 0.073351
H	 1.5104556841	-2.4769130287	-0.1185690065	 0.078476
H	 3.5819393436	-1.6253760121	 1.3455287375	 0.094253
H	 3.7039562742	 0.9360615621	 1.5724892429	 0.120986
H	 2.5617049122	 1.0586283671	 0.1471856007	 0.137188
H	-0.7081992934	-0.6083908555	 2.8017677889	 0.128296
H	-1.0380653626	-1.9128264316	 1.6394482411	 0.114761
H	 0.2993693165	-2.0565181144	 2.8033244485	 0.128759
163.6468	189.7407	203.8362	217.0126	235.4728	308.645	355.4875	417.8218	513.8846	572.3691	620.7485	661.4796	734.044	760.8975	837.0558	865.4902	883.9969	904.3803	930.7883	976.19	1018.2689	1030.3665	1051.0872	1105.6478	1112.0948	1125.4212	1137.0608	1163.6733	1171.09	1215.6124	1230.3724	1273.37	1304.9608	1353.5329	1357.2992	1401.555	1408.779	1415.2056	1480.9368	1485.4849	1491.489	1492.3195	1500.4764	2970.2156	3032.955	3045.3622	3085.3615	3099.8945	3105.7771	3114.0895	3135.7653	3147.5787	3159.9552	3240.7761
CC1OC2C3CN3C12C	C[C@H]1O[C@H]2[C@H]3CN3[C@@]12C	
InChI=1S/C7H11NO/c1-4-7(2)6(9-4)5-3-8(5)7/h4-6H,3H2,1-2H3	InChI=1S/C7H11NO/c1-4-7(2)6(9-4)5-3-8(5)7/h4-6H,3H2,1-2H3/t4-,5-,6+,7+,8?/m1/s1
