15
gdb 33842	4.70118	1.07814	1.00665	4.2338	71.81	-0.2645	-0.0079	0.2566	1159.5201	0.112481	-416.741526	-416.73402	-416.733076	-416.77365	28.545	
N	 0.0747619697	-1.1432591414	 0.1539314276	-0.334983
C	 0.0784402988	 0.0082467962	 0.0477739272	 0.207191
C	 0.0553667335	 1.4252956165	-0.1309000028	 0.308219
C	-0.7135021077	 2.2366062541	-1.1945944447	-0.39845
C	 0.4671787019	 3.2448774268	-1.1551278243	 0.34922
C	 1.069426735	 3.9364126344	-2.3142829544	-0.306696
N	 0.4639655889	 4.6939526023	-1.1987924503	-0.353348
C	 1.1546382535	 2.4233955187	-0.081796698	-0.106452
O	 0.2343370524	 2.2768613754	 1.0041139319	-0.262919
H	-0.8135782567	 1.72318525	-2.1528519781	 0.137351
H	-1.6857976443	 2.5960552123	-0.8505366242	 0.131726
H	 2.1481223752	 4.0369916076	-2.3987152901	 0.131184
H	 0.542914492	 3.8775452254	-3.2636888892	 0.122707
H	-0.4559770037	 5.044177103	-1.4542636343	 0.241627
H	 2.2084645914	 2.2935652387	 0.1332759737	 0.133623
86.4909	148.812	222.0039	273.2439	332.4278	401.9492	452.4388	517.396	554.5616	588.9304	663.8758	792.9591	842.0527	868.94	899.1654	920.9654	946.1498	976.3247	991.4541	1014.5975	1071.6506	1127.164	1128.0845	1181.1288	1214.5947	1231.808	1254.0817	1279.9386	1403.3479	1426.4168	1469.0119	1516.9469	2359.2121	3073.3138	3105.9189	3136.4375	3191.7332	3202.9882	3504.9204
N#CC12CC3(CN3)C1O2	N#C[C@]12C[C@]3(CN3)[C@H]1O2	
InChI=1S/C6H6N2O/c7-2-6-1-5(3-8-5)4(6)9-6/h4,8H,1,3H2	InChI=1S/C6H6N2O/c7-2-6-1-5(3-8-5)4(6)9-6/h4,8H,1,3H2/t4-,5+,6-/m1/s1
