17
gdb 117444	5.02805	0.60342	0.57432	3.6983	71.1	-0.2693	0.0036	0.273	1867.0036	0.134382	-455.179531	-455.169254	-455.16831	-455.21747	34.406	
O	-0.173697637	 1.4297989662	-0.0631038892	-0.423915
C	-0.0063730973	 0.0236728887	-0.1538496301	-0.069456
C	-1.3791432874	-0.5978542488	 0.0689643743	-0.314813
C	-1.3465251014	-2.1131781521	-0.0379256	 0.431154
O	-0.4213330226	-2.7311938471	-0.5309244658	-0.364901
N	-2.4562770152	-2.7441117297	 0.4717761588	-0.326621
C	-2.6260275758	-4.1761377348	 0.3433614159	-0.281854
C	-3.7895196151	-4.5356034262	-0.4781917466	 0.253778
N	-4.7223666545	-4.8068118367	-1.1032275773	-0.297219
H	 0.6752826414	 1.8435366574	-0.2430547408	 0.29009
H	 0.377072182	-0.2852796031	-1.1347134377	 0.114688
H	 0.6979704891	-0.3520661678	 0.6029488622	 0.100414
H	-1.7729779444	-0.290384461	 1.0444954374	 0.124602
H	-2.0762040907	-0.20729761	-0.6833616802	 0.145178
H	-3.2242800393	-2.1944882258	 0.8219173142	 0.261659
H	-1.7106853885	-4.5524528158	-0.1242370589	 0.198201
H	-2.7280627433	-4.6585870935	 1.3227550138	 0.159015
19.286	45.3137	57.7517	98.5626	160.8288	237.1191	265.5327	298.693	342.6974	373.1248	417.0175	446.2429	592.0972	609.8041	714.7159	812.5996	900.9179	929.4365	1017.8406	1050.4551	1067.702	1084.047	1109.0029	1200.1068	1213.169	1257.9961	1270.7387	1305.8743	1350.6682	1380.5517	1458.0782	1467.1608	1471.6447	1525.1982	1527.1254	1780.3644	2363.7831	2995.0642	3035.8324	3037.9384	3038.4429	3078.6558	3098.7404	3644.0118	3834.7462
OCCC(=O)NCC#N	OCCC(=O)NCC#N	
InChI=1S/C5H8N2O2/c6-2-3-7-5(9)1-4-8/h8H,1,3-4H2,(H,7,9)	InChI=1S/C5H8N2O2/c6-2-3-7-5(9)1-4-8/h8H,1,3-4H2,(H,7,9)
