15
gdb 25461	2.75256	1.64308	1.0289	3.7188	79.1	-0.2155	-0.0686	0.1469	1080.5098	0.115082	-416.870102	-416.862815	-416.861871	-416.902216	27.651	
N	-0.0830420036	 1.3491715732	 0.0111578227	-0.555674
C	 0.0279194049	 0.0715526714	 0.0033610803	 0.403374
C	 1.2547853394	-0.7116397238	-0.0077867262	-0.191627
C	 1.2528691912	-2.0631479806	-0.0156472455	-0.064074
C	 0.0159819526	-2.7923553827	-0.0131829502	-0.215518
C	-1.1405717631	-2.100682814	-0.0028014446	 0.063817
N	-1.1652624112	-0.716831235	 0.0054363095	-0.200164
C	-2.4274558795	-0.0781024062	 0.0163049005	 0.172512
O	-3.4661030139	-0.6879364187	 0.0184701175	-0.300408
H	 0.8384469327	 1.7802135677	 0.0086126253	 0.220714
H	 2.1804598829	-0.1469040427	-0.0095277387	 0.107222
H	 2.1915909663	-2.6077915341	-0.0239054198	 0.116291
H	 0.0018722374	-3.8737295792	-0.0194384162	 0.115121
H	-2.1265632428	-2.5451291415	 0.000021452	 0.166304
H	-2.3255401832	 1.0120971462	 0.0222479534	 0.16211
70.0303	160.6585	246.6365	272.6291	391.8201	397.5322	517.109	526.9204	575.0666	636.8454	732.2845	765.3048	804.5707	842.6491	858.3978	873.3122	972.8681	999.9062	1020.2663	1060.3995	1077.1194	1138.6626	1191.942	1213.3649	1290.6812	1349.2064	1403.4372	1425.1411	1468.0841	1599.6901	1651.693	1710.9015	1811.1414	3101.8176	3179.0296	3199.2849	3223.0988	3242.482	3513.0692
N=C1C=CC=CN1C=O	[NH]C1=CCC=CN1C=O	
InChI=1S/C6H6N2O/c7-6-3-1-2-4-8(6)5-9/h1-5,7H	InChI=1S/C6H7N2O/c7-6-3-1-2-4-8(6)5-9/h2-5,7H,1H2
