16
gdb 65850	2.67394	1.27499	1.16877	4.3203	69.41	-0.2575	0.0084	0.266	1105.1432	0.125955	-434.116769	-434.108352	-434.107408	-434.149963	31.283	
N	-0.0402386773	 1.4449162586	 0.011021084	-0.53298
C	-0.012124643	-0.0171631554	-0.0019805297	 0.106258
C	 0.5774778894	-0.5669474287	 1.3352801425	-0.190189
N	-0.1582671658	-1.7967958974	 1.5304216224	-0.302909
C	-1.3494121987	-1.876392625	 0.8559109361	 0.420298
O	-2.1708223532	-2.7559659455	 0.9523325263	-0.365189
C	-1.4338440538	-0.6231591174	-0.024408154	-0.368417
C	 0.7793511026	-0.5476681774	-1.1364345397	 0.25386
N	 1.4113755736	-0.9023135404	-2.0376509013	-0.336109
H	 0.908082119	 1.8133932186	 0.0200445174	 0.245389
H	-0.467050828	 1.7879848592	-0.8455059651	 0.249213
H	 1.6545982172	-0.7433666958	 1.2699128797	 0.133355
H	 0.3857310325	 0.1758678532	 2.1204754673	 0.127381
H	 0.0669414028	-2.4681967927	 2.2472111843	 0.260946
H	-2.1268892322	 0.0868515685	 0.4381809636	 0.148862
H	-1.7995060151	-0.8708924525	-1.0210153336	 0.150231
68.747	133.102	192.0741	201.9055	251.111	351.4086	393.9764	451.3208	468.8639	485.4407	589.7974	606.0585	629.6618	704.0762	754.4195	869.2675	895.6501	907.8009	953.9016	1033.5014	1079.4697	1110.4567	1163.914	1198.4434	1253.4288	1275.0626	1280.2576	1319.9788	1362.2445	1445.2941	1460.7035	1531.2614	1666.1114	1847.1434	2342.5638	3020.1306	3069.0734	3088.4619	3140.8609	3483.9768	3561.2706	3645.6706
NC1(CNC(=O)C1)C#N	N[C@]1(CNC(=O)C1)C#N	
InChI=1S/C5H7N3O/c6-2-5(7)1-4(9)8-3-5/h1,3,7H2,(H,8,9)	InChI=1S/C5H7N3O/c6-2-5(7)1-4(9)8-3-5/h1,3,7H2,(H,8,9)/t5-/m0/s1
