16
gdb 85657	2.78142	1.20738	0.8979	5.9687	69.69	-0.2645	-0.0438	0.2208	1236.5672	0.123856	-437.925014	-437.916554	-437.91561	-437.958686	31.003	
O	-0.054173358	 1.3717492571	 0.1853650402	-0.425295
C	 0.0468448407	-0.0202052899	-0.0265902116	 0.103844
C	-1.3676386342	-0.6216759388	-0.0121308506	-0.235736
C	-1.199014072	-1.9893077527	-0.7036469524	-0.27031
C	-2.4056646419	-2.543586755	-1.2964011165	 0.289661
N	-3.3748989724	-2.9626089997	-1.7653895251	-0.314905
C	-0.0439438006	-1.7627007274	-1.7333224988	 0.40315
O	 0.2624202332	-2.5273537669	-2.6010982542	-0.283575
C	 0.607016708	-0.4236901579	-1.4018137509	-0.357433
H	 0.8324338448	 1.7348560828	 0.2760564725	 0.290857
H	 0.6482465769	-0.4921288539	 0.7669895551	 0.082167
H	-1.785544914	-0.6963860858	 0.9926194208	 0.131416
H	-2.022446797	 0.024451527	-0.6052679359	 0.142021
H	-0.8026341881	-2.7238930026	 0.0122716489	 0.155354
H	 0.2601376876	 0.3054101186	-2.1466172816	 0.155075
H	 1.6953967771	-0.4836904849	-1.47450573	 0.133709
57.8329	110.1132	138.5022	241.9837	279.3444	323.6118	418.5415	438.585	464.8424	501.1601	517.3871	585.8568	629.9076	735.9225	868.7033	907.7589	932.6795	990.5096	1043.5808	1073.4911	1110.3886	1126.138	1144.5084	1184.7651	1229.0855	1254.8785	1285.7545	1294.6498	1338.5828	1366.4416	1430.7984	1448.931	1498.857	1867.2645	2364.0572	2972.2429	3016.4351	3036.3282	3069.7869	3111.8571	3131.2845	3823.1714
OC1CC(C#N)C(=O)C1	O[C@H]1C[C@@H](C#N)C(=O)C1	
InChI=1S/C6H7NO2/c7-3-4-1-5(8)2-6(4)9/h4-5,8H,1-2H2	InChI=1S/C6H7NO2/c7-3-4-1-5(8)2-6(4)9/h4-5,8H,1-2H2/t4-,5-/m0/s1
