18
gdb 54096	2.83161	1.44713	1.28947	1.613	72.06	-0.2299	-0.0259	0.204	1052.4012	0.146388	-439.022542	-439.013926	-439.012981	-439.056244	32.443	
C	 0.4654496362	 0.6371204864	 1.2871295163	-0.485391
C	-0.0308935172	 0.1676962311	-0.0651754618	 0.291785
O	 0.4857183686	 0.4993224541	-1.1094527308	-0.306958
C	-1.2729607102	-0.7242283424	-0.052063736	 0.368172
O	-2.3720563708	 0.0584718638	 0.3842871904	-0.488061
C	-1.5190639851	-1.7514797011	-1.1992866908	-0.095839
C	-0.3705604642	-2.6088312637	-0.6156346608	-0.214462
C	-1.2530769288	-2.1523977799	 0.5724305454	-0.088482
N	-2.4501990319	-2.535902978	-0.2802920995	-0.338587
H	 1.2227364321	 1.4118995228	 1.1612019536	 0.140784
H	-0.3688861998	 1.0046297722	 1.8908463923	 0.151717
H	 0.9039039811	-0.2107714903	 1.8277100175	 0.145793
H	-2.5316201172	 0.7439620758	-0.2748699866	 0.294306
H	-1.7580361322	-1.5560351749	-2.2446998707	 0.088659
H	-0.4458131804	-3.6716918613	-0.8403080957	 0.116077
H	 0.6456787741	-2.2230075574	-0.692384681	 0.114238
H	-1.1814139234	-2.4228436201	 1.6270883908	 0.085867
H	-3.2320799911	-1.9285206671	-0.0198564325	 0.220381
39.2348	135.4585	152.6106	185.0817	298.5882	324.2423	366.3224	394.3462	488.8179	529.5953	598.5268	611.7323	686.192	787.9461	811.7372	873.8883	906.8817	912.6921	966.9001	1023.9386	1029.7729	1044.0645	1053.7294	1083.7018	1116.7699	1157.5565	1167.6075	1197.5503	1207.4096	1256.6092	1271.2486	1310.2442	1314.8239	1338.1227	1376.7004	1463.8379	1473.0476	1498.2772	1798.6075	3037.9851	3093.2995	3106.3411	3107.4502	3120.2303	3155.3768	3172.6269	3412.9668	3796.0572
CC(=O)C1(O)C2CC1N2	CC(=O)[C@@]1(O)[C@H]2C[C@@H]1N2	
InChI=1S/C6H9NO2/c1-3(8)6(9)4-2-5(6)7-4/h4-5,7,9H,2H2,1H3	InChI=1S/C6H9NO2/c1-3(8)6(9)4-2-5(6)7-4/h4-5,7,9H,2H2,1H3/t4-,5+,6-
