21
gdb 101090	2.28201	1.29262	0.99909	2.1137	80.38	-0.2501	-0.016	0.2341	1285.2081	0.179654	-424.220793	-424.210629	-424.209685	-424.25609	36.83	
C	 0.0363361302	 1.5123782932	-0.2534135438	-0.236152
O	-0.2018353136	 0.1246275925	-0.3053717661	-0.260491
C	 0.7159477763	-0.6104345138	-1.1072026761	 0.050679
C	 2.0568853258	-0.8084624374	-0.3942472967	-0.412701
C	 0.0534395142	-1.9413189559	-1.4503085551	 0.240408
C	-0.710225677	-2.7064467982	-0.3748162899	-0.300188
C	-1.471057715	-2.0563234211	-1.4773130604	-0.309279
C	 0.731548892	-2.769401281	-2.4725669995	 0.110516
O	 1.7321415305	-2.4615333684	-3.0763786224	-0.282376
H	 0.9772972515	 1.7616001938	 0.2568017381	 0.112035
H	 0.0617602513	 1.9563743008	-1.2604366455	 0.108376
H	-0.7890404065	 1.9577289136	 0.3077734361	 0.127251
H	 0.8894519478	-0.0693690069	-2.0508551484	 0.082141
H	 1.9112543587	-1.3534701169	 0.5435034666	 0.116488
H	 2.7390838794	-1.3709033709	-1.0347395346	 0.147946
H	 2.5258297505	 0.1525244903	-0.1650102953	 0.11282
H	-0.6229765424	-3.7879351378	-0.3614603931	 0.118675
H	-0.7339336587	-2.2323536498	 0.5988674007	 0.142159
H	-2.0020858181	-1.1408309494	-1.2541122605	 0.143957
H	-1.9120063638	-2.6810989388	-2.2469220403	 0.117959
H	 0.2209725568	-3.7416471179	-2.6709221738	 0.069775
65.2386	73.3156	144.9615	175.9659	189.3164	215.6489	246.4925	279.4071	329.5647	353.2224	410.8018	446.6067	516.6302	605.8892	743.2931	792.2373	833.4739	882.6823	922.6372	941.4444	972.5338	1049.6861	1053.9563	1081.6894	1088.1758	1103.1539	1124.3952	1156.6132	1183.9202	1204.0626	1220.9494	1293.4373	1315.227	1361.7481	1392.5039	1400.6554	1442.7719	1451.2937	1476.4039	1485.3543	1488.5433	1490.9004	1509.4265	1513.4837	1805.668	2849.7404	2979.3774	2985.3649	3034.8568	3047.7195	3111.3885	3115.2574	3137.1655	3141.1149	3143.334	3229.789	3248.6652
COC(C)C1(CC1)C=O	CO[C@@H](C)C1(CC1)C=O	
InChI=1S/C7H12O2/c1-6(9-2)7(5-8)3-4-7/h5-6H,3-4H2,1-2H3	InChI=1S/C7H12O2/c1-6(9-2)7(5-8)3-4-7/h5-6H,3-4H2,1-2H3/t6-/m0/s1
