20
gdb 26471	3.49426	1.15476	1.08682	1.7606	85.82	-0.1948	0.0473	0.2421	1218.534	0.172416	-366.042189	-366.033701	-366.032756	-366.075605	33.125	
C	-0.1987356278	 1.4544023887	 0.3483735838	-0.453147
C	-0.0097962509	-0.0249589017	 0.036829411	 0.242254
C	 1.3504591295	-0.4651483467	-0.4787199687	-0.300745
C	 0.9220744563	-0.8129753683	 0.9252058093	-0.291869
C	-1.2129352588	-0.7217885202	-0.4855594111	 0.238118
C	-2.1081544349	-1.5845354824	 0.111674111	-0.232613
C	-3.1119191956	-1.9084369654	-0.8438417181	-0.137629
C	-2.8069951897	-1.2327481237	-2.0015205524	-0.102326
N	-1.6595829611	-0.5154128644	-1.773288254	-0.29256
H	 0.729690187	 1.9004714532	 0.7201052762	 0.109494
H	-0.5047129626	 2.0152171227	-0.5422830273	 0.107075
H	-0.9740877996	 1.595026738	 1.1087137207	 0.124645
H	 1.3845106476	-1.2665002781	-1.2082054389	 0.113672
H	 2.1128397215	 0.2961188245	-0.6084403125	 0.106221
H	 1.3932979722	-0.2868283347	 1.7485301101	 0.10762
H	 0.672543245	-1.8462398577	 1.1351115455	 0.118865
H	-2.0470627537	-1.9355789067	 1.1306483112	 0.087
H	-3.9577804274	-2.5625684842	-0.6976811071	 0.089295
H	-3.29870437	-1.2056667158	-2.9607485533	 0.110847
H	-1.1830572869	 0.0503668926	-2.4539759954	 0.255783
41.4481	132.9198	177.5447	225.5483	298.8764	327.6543	376.4364	485.8854	497.7387	529.7029	630.6773	695.5316	718.6046	791.7382	800.4966	829.3338	851.043	868.9551	897.1585	943.7665	949.894	966.3359	1041.7902	1052.6167	1068.6292	1083.6517	1107.6084	1120.7133	1138.9476	1189.5344	1192.8656	1271.9709	1295.1933	1350.6562	1413.333	1441.9891	1443.3716	1465.442	1487.6304	1493.5746	1501.3906	1507.5265	1615.425	3024.4239	3087.7857	3100.7362	3130.1192	3138.2645	3213.4607	3228.6874	3239.3595	3251.7144	3269.1816	3677.1845
CC1(CC1)C1=CC=CN1	CC1(CC1)c1ccc[nH]1	
InChI=1S/C8H11N/c1-8(4-5-8)7-3-2-6-9-7/h2-3,6,9H,4-5H2,1H3	InChI=1S/C8H11N/c1-8(4-5-8)7-3-2-6-9-7/h2-3,6,9H,4-5H2,1H3
