17
gdb 62457	3.72504	1.18184	1.15995	1.8459	73.4	-0.2503	0.0245	0.2749	1102.0993	0.137459	-417.999836	-417.991624	-417.99068	-418.032569	30.604	
N	-0.0775547821	 1.4786687433	 0.0049302919	-0.550004
C	-0.0393027864	 0.0426137503	 0.0075499124	 0.129804
C	 1.0314236335	-0.5799874995	-0.7494492542	 0.236983
N	 1.9002501527	-1.034496484	-1.3648537613	-0.342326
C	-0.4712254372	-0.7215568768	 1.2576745106	-0.101836
C	-1.2399888495	 0.0544444283	 2.3122264467	-0.088949
O	-2.3792390308	 0.6169036261	 1.6783368707	-0.246511
C	-2.6060731828	 0.01460344	 0.4127052561	-0.088956
C	-1.3464140653	-0.7470925541	 0.0407717292	-0.101831
H	 0.779862035	 1.8637164542	 0.3879031408	 0.246071
H	-0.1755338947	 1.8358454574	-0.9400129145	 0.246069
H	 0.1243684407	-1.5733123393	 1.5614134014	 0.117953
H	-1.5347620328	-0.6371178312	 3.1166702928	 0.1008
H	-0.6666023211	 0.874410595	 2.7589317894	 0.111992
H	-3.448551329	-0.6929743797	 0.4555555625	 0.100798
H	-2.8632058285	 0.8103137314	-0.2953872114	 0.111989
H	-1.4277048917	-1.6186166312	-0.5966563632	 0.117953
128.6777	137.2859	157.8584	197.1742	242.8379	245.0976	407.8301	416.5423	563.614	581.7575	690.8792	703.4116	749.2983	822.3179	847.173	866.3282	923.114	998.3944	998.3974	1022.2364	1036.016	1089.0871	1126.3697	1139.1048	1146.9775	1228.1833	1236.0958	1257.9527	1300.2396	1318.5993	1362.9147	1369.3181	1433.0495	1509.5934	1521.2895	1663.2622	2336.6237	2982.4243	2989.1115	3055.4116	3058.8098	3192.104	3200.5473	3503.7118	3580.6661
NC1(C#N)C2COCC12	N[C@@]1(C#N)[C@H]2COC[C@@H]12	
InChI=1S/C6H8N2O/c7-3-6(8)4-1-9-2-5(4)6/h4-5H,1-2,8H2	InChI=1S/C6H8N2O/c7-3-6(8)4-1-9-2-5(4)6/h4-5H,1-2,8H2/t4-,5+,6-
