21
gdb 99594	1.77085	1.53428	1.05113	1.5327	83.92	-0.2544	0.0496	0.304	1253.5256	0.179998	-387.040765	-387.030569	-387.029625	-387.075559	38.448	
C	-0.0414367799	 1.6191291989	-0.2283840719	-0.471814
C	-0.0148699427	 0.1098173213	-0.0695629664	 0.367788
C	 1.2889978213	-0.5996108895	-0.3292163442	-0.311209
C	 0.7770515071	-0.4743731761	 1.0854678069	-0.329401
C	-1.2957235713	-0.6346254958	-0.4814664939	-0.272612
C	-2.5287241119	-0.2338108566	 0.3674250903	-0.07953
O	-2.357263331	-0.5131338448	 1.7421174464	-0.42139
C	-1.5914560393	-0.4497238179	-1.9013158904	 0.333478
C	-1.8607304256	-0.2727061544	-3.0599207039	-0.456224
H	 0.9307728478	 2.0507508426	 0.0271031072	 0.114798
H	-0.2755933766	 1.8976480926	-1.2608313841	 0.135523
H	-0.7879798635	 2.0899839434	 0.4216739796	 0.112701
H	 1.2555684998	-1.5768726493	-0.798906742	 0.117475
H	 2.144163718	 0.0014512389	-0.618445206	 0.112488
H	 1.2869042309	 0.2139864497	 1.7520594919	 0.110755
H	 0.3995461627	-1.3674001446	 1.5712345591	 0.124742
H	-1.1284425646	-1.704527023	-0.298090338	 0.106136
H	-2.7693287768	 0.8244516157	 0.1897814353	 0.100448
H	-3.3903331695	-0.8212063716	 0.0388777096	 0.120138
H	-1.6028832124	-0.0026447148	 2.0529980167	 0.291208
H	-2.0913091423	-0.1326111845	-4.0869949922	 0.194499
66.5551	117.528	134.0272	164.2471	209.738	247.3415	301.4695	331.2891	339.2922	352.1006	396.9439	488.2993	514.6395	538.5067	632.9088	641.5441	710.8414	788.1269	864.3155	875.5279	929.5167	954.9719	981.514	1033.9854	1035.1194	1059.7951	1076.5342	1078.6324	1083.7609	1126.2772	1188.0424	1193.4252	1276.1024	1288.2767	1314.8173	1379.789	1385.4188	1419.8274	1422.6718	1469.8174	1486.4869	1499.5875	1508.2183	1512.1912	2230.843	2999.9366	3020.0662	3030.2198	3090.5706	3094.7251	3108.9743	3127.2553	3133.0274	3207.3731	3221.0418	3503.3025	3822.4517
CC1(CC1)C(CO)C#C	CC1(CC1)[C@@H](CO)C#C	
InChI=1S/C8H12O/c1-3-7(6-9)8(2)4-5-8/h1,7,9H,4-6H2,2H3	InChI=1S/C8H12O/c1-3-7(6-9)8(2)4-5-8/h1,7,9H,4-6H2,2H3/t7-/m1/s1
