15
gdb 129605	3.34493	1.25595	0.96318	3.5198	72.94	-0.2134	0.0105	0.2239	1162.9485	0.112303	-416.770153	-416.761874	-416.760929	-416.803279	30.972	
N	-0.1788265919	 1.2683719653	-0.4257700138	-0.596318
C	-0.1278961681	-0.0698497553	-0.1391903661	 0.41374
C	-1.1048812705	-1.0265869627	-0.0038716094	 0.073602
C	-2.5950179058	-0.8864007726	-0.1701329109	-0.479273
C	-2.9793231384	-0.0141574139	-1.2811011571	 0.29651
C	-3.2719233982	 0.7279848718	-2.1815638091	-0.45191
C	-0.3561859626	-2.1731547442	 0.3624816361	-0.032487
N	 0.9323251105	-1.9572940232	 0.4465391534	-0.167563
O	 1.0777531251	-0.5890734163	 0.1173579751	-0.215908
H	 0.6904727657	 1.6536499209	-0.7670085721	 0.265329
H	-0.9856297003	 1.5364325149	-0.9749781943	 0.268629
H	-3.0324192775	-1.8792115743	-0.3315955687	 0.147412
H	-3.0616985854	-0.5041942362	 0.7495562532	 0.148982
H	-3.5607353538	 1.3543471015	-2.9894228606	 0.204927
H	-0.7280604089	-3.1685676558	 0.5693511343	 0.124328
54.807	122.0749	229.2947	254.8643	297.8526	332.3363	355.2435	429.2787	459.4422	607.7626	623.8992	629.7067	649.5455	719.946	727.0315	764.3901	894.6966	910.5123	937.8715	950.6294	954.6486	1076.4596	1183.1874	1226.0597	1265.1383	1306.3581	1357.4946	1437.3642	1466.3792	1548.8794	1633.7407	1688.2686	2230.8731	2997.9203	3048.403	3225.6005	3501.5256	3541.6116	3654.0793
NC1=C(CC#C)C=NO1	Nc1c(CC#C)cno1	
InChI=1S/C6H6N2O/c1-2-3-5-4-8-9-6(5)7/h1,4H,3,7H2	InChI=1S/C6H6N2O/c1-2-3-5-4-8-9-6(5)7/h1,4H,3,7H2
