19
gdb 74866	2.42862	1.5637	1.06273	2.6818	82.	-0.2321	-0.0232	0.2089	1151.1002	0.158864	-385.902495	-385.893998	-385.893054	-385.936192	32.002	
C	 0.0554834399	 1.4479116861	 0.1562516161	-0.488562
C	 0.0125404688	-0.0428608625	 0.0363058828	 0.284922
C	-0.028413824	-0.7770414379	-1.0824602858	-0.183742
C	-0.0153254528	-2.2409622202	-0.8167455647	-0.06923
C	 1.2400025634	-2.7586004094	-0.1442643142	-0.283885
C	 0.049875381	-2.3582004349	 0.697822291	-0.073949
C	-0.0172273755	-0.9431252189	 1.2770248948	-0.165882
C	 1.1190490926	-0.6271866827	 2.2368112972	 0.157851
O	 0.9980780021	 0.0081980311	 3.2528849821	-0.258432
H	 0.9631224967	 1.791510624	 0.6670355248	 0.136448
H	 0.018295453	 1.9253009153	-0.8263725213	 0.12439
H	-0.7880919189	 1.8183348085	 0.7521134931	 0.133821
H	-0.0497466817	-0.362048528	-2.0846137707	 0.095307
H	-0.6056833291	-2.9156790463	-1.4264102364	 0.091084
H	 1.4453811206	-3.8224158138	-0.2052890171	 0.114569
H	 2.1205885661	-2.1267202602	-0.1788013313	 0.115334
H	-0.4774501276	-3.1474770295	 1.2194236242	 0.095965
H	-0.9452014835	-0.7751889007	 1.8387856686	 0.097092
H	 2.1103838788	-1.0226896598	 1.9212366068	 0.0769
40.7665	119.6872	174.5153	215.1647	224.6164	328.9029	408.446	438.2304	440.0174	546.1337	625.8072	702.5153	792.0261	810.6208	848.7848	861.5477	917.4807	948.5989	988.7488	1013.6373	1035.1357	1056.8356	1067.5073	1073.331	1083.866	1102.0084	1111.2626	1182.7794	1206.6569	1257.8	1280.1838	1295.7533	1352.3819	1369.3277	1419.7831	1424.0691	1477.0079	1478.4913	1486.7615	1699.2522	1821.549	2879.8663	3022.5026	3027.2479	3069.3386	3114.6822	3129.3727	3170.102	3183.8275	3189.9324	3218.2547
CC1=CC2CC2C1C=O	CC1=C[C@H]2C[C@H]2[C@H]1C=O	
InChI=1S/C8H10O/c1-5-2-6-3-7(6)8(5)4-9/h2,4,6-8H,3H2,1H3	InChI=1S/C8H10O/c1-5-2-6-3-7(6)8(5)4-9/h2,4,6-8H,3H2,1H3/t6-,7+,8-/m0/s1
