15
gdb 54370	4.05007	1.43721	1.25296	2.5572	68.11	-0.2274	0.0061	0.2335	980.3914	0.112983	-416.714181	-416.707056	-416.706111	-416.745978	27.784	
N	-0.1620952787	 1.302262793	-0.0174942568	-0.543368
C	 0.0552244125	-0.0458358132	 0.0045441804	 0.234265
O	 1.1509950751	-0.573939271	 0.0023769811	-0.361914
C	-1.2005062676	-0.8415481914	-0.0184787233	 0.322896
C	-1.5721623288	-2.243063583	 0.510510217	-0.177499
C	-2.7329319917	-2.2974113846	-0.4913438997	-0.112226
C	-2.9225971824	-1.6762786934	 0.8690551108	-0.007049
N	-2.5569067783	-0.2798907345	 0.3531774426	-0.239367
C	-2.3347409386	-0.8905092514	-0.9961151533	-0.093092
H	 0.638929427	 1.9028243284	 0.093984807	 0.260758
H	-1.0689597199	 1.6448797262	 0.2616186739	 0.272674
H	-0.9894040156	-3.0428500147	 0.9408970328	 0.117164
H	-3.202065122	-3.1510018357	-0.957199712	 0.107178
H	-3.6127029663	-1.8719769471	 1.6790948794	 0.109746
H	-2.4903465846	-0.3440258878	-1.9185687	 0.109835
74.1436	161.9966	174.4835	364.8065	411.7612	471.3587	572.4275	640.6802	658.954	726.7312	753.3444	776.4542	803.4328	818.1191	865.96	883.8564	913.8164	936.06	987.8578	1001.2295	1008.9659	1033.1014	1050.1288	1090.8348	1131.2717	1176.0181	1241.085	1243.886	1301.5688	1341.085	1431.9664	1606.4996	1793.1901	3186.7824	3200.5592	3229.7959	3243.9191	3574.8	3710.6743
NC(=O)C12C3C4C3N1C24	NC(=O)[C@@]12[C@@H]3[C@H]4[C@@H]3N1[C@@H]24	
InChI=1S/C6H6N2O/c7-5(9)6-2-1-3(2)8(6)4(1)6/h1-4H,(H2,7,9)	InChI=1S/C6H6N2O/c7-5(9)6-2-1-3(2)8(6)4(1)6/h1-4H,(H2,7,9)/t1-,2+,3-,4+,6-,8?/m0/s1
