18
gdb 6955	2.60163	2.24607	1.65898	4.1402	66.81	-0.2601	0.0169	0.277	871.0595	0.153994	-384.999675	-384.991669	-384.990725	-385.031656	30.027	
C	-0.3146244575	 1.6130960104	 0.0257656401	-0.43261
C	 0.0579810872	 0.1299111135	-0.0366061865	 0.13223
C	-1.211924051	-0.7472592794	-0.0065950136	-0.426879
C	 0.9864810988	-0.2444991245	-1.2069974088	-0.265646
C	 1.8527445726	-1.3635183355	-0.6127816144	-0.091213
O	 1.9160803444	-1.097261925	 0.7987494123	-0.224147
C	 0.9155422396	-0.257867033	 1.1787470821	 0.442061
O	 0.763702759	 0.0816469985	 2.3170798892	-0.354824
H	 0.5753206377	 2.2490160289	-0.0113246237	 0.119477
H	-0.9631826674	 1.8844588736	-0.8135496645	 0.112797
H	-0.8417484145	 1.8294875795	 0.9587210614	 0.141205
H	-1.8571678398	-0.5013932226	-0.8561220234	 0.119293
H	-0.9740482978	-1.814629753	-0.0605692311	 0.121134
H	-1.7727549692	-0.5748675925	 0.9160354586	 0.141238
H	 0.4494447862	-0.566142672	-2.1026680095	 0.110232
H	 1.6138444732	 0.610544612	-1.4782039921	 0.113096
H	 1.4121014758	-2.3563260888	-0.7604428183	 0.117391
H	 2.8755301428	-1.3783892001	-0.9949796076	 0.125165
103.6859	204.8545	208.7954	223.7197	245.869	295.3218	341.2284	370.5727	529.0622	584.0208	675.9945	725.7616	757.6566	812.8163	915.1278	950.3817	966.1687	972.8906	1015.3522	1058.2187	1061.8108	1118.5127	1189.5314	1219.5423	1246.364	1251.875	1281.5748	1345.4332	1395.5163	1400.6724	1423.0715	1479.7429	1486.9126	1496.001	1502.003	1508.523	1527.9775	1873.3418	3034.0448	3037.3209	3039.9582	3054.2259	3101.0501	3102.5254	3105.759	3112.9717	3118.7185	3123.2392
CC1(C)CCOC1=O	CC1(C)CCOC1=O	
InChI=1S/C6H10O2/c1-6(2)3-4-8-5(6)7/h3-4H2,1-2H3	InChI=1S/C6H10O2/c1-6(2)3-4-8-5(6)7/h3-4H2,1-2H3
