21
gdb 64339	2.41228	1.40576	1.12334	3.9083	79.13	-0.214	0.0347	0.2488	1186.2749	0.183923	-420.45118	-420.442102	-420.441158	-420.484664	35.361	
C	-0.011471257	 1.5408758168	-0.0178591963	-0.40971
C	-0.0279640169	 0.005918741	-0.0178136644	 0.237505
C	-1.4797688806	-0.5034378948	 0.0668201655	-0.398616
C	 0.6718054869	-0.528697892	-1.2894269017	-0.179565
N	 1.0286170279	-1.9382490143	-1.2322107805	-0.295595
C	 1.9274574215	-2.2131164581	-0.1148188701	-0.283118
C	 1.5952111187	-1.5318779289	 1.2151937761	 0.379629
O	 2.1030443823	-1.8865868814	 2.2636524744	-0.380464
N	 0.7346195522	-0.472179962	 1.1434488315	-0.318086
H	 1.0150891986	 1.9174051819	-0.0448187274	 0.125499
H	-0.5495575766	 1.933670726	-0.8864413585	 0.12133
H	-0.4974101693	 1.9385805751	 0.8802398176	 0.114427
H	-2.0825472302	-0.1119923271	-0.7593472485	 0.117667
H	-1.5181470226	-1.5968747985	 0.0362772866	 0.111916
H	-1.9463606109	-0.185964096	 1.0049072591	 0.117336
H	 0.0249327251	-0.3514327065	-2.1547020426	 0.105326
H	 1.5952608943	 0.0423569194	-1.4506717182	 0.107605
H	 0.1932518275	-2.5081246536	-1.1535766109	 0.222332
H	 1.9806090593	-3.287942188	 0.0721397592	 0.13387
H	 2.9444418381	-1.8948110466	-0.3840867256	 0.134906
H	 0.5173594218	-0.0666205322	 2.0449827547	 0.235806
76.32	102.3585	238.0922	258.135	266.058	307.5426	327.9021	376.0617	445.3446	454.3532	468.7592	513.9747	528.3177	621.7978	655.289	740.6414	835.6413	848.7321	911.0806	932.1576	943.5347	996.236	1005.4339	1016.5908	1079.2845	1163.4157	1175.087	1202.0401	1250.2536	1274.2412	1328.9909	1354.5632	1364.9739	1380.325	1399.6369	1420.6241	1448.9834	1460.3294	1475.6809	1479.3108	1486.8591	1496.0121	1505.1823	1507.5461	1785.8213	3018.6831	3024.5519	3028.9629	3034.6121	3080.8101	3097.1999	3103.0868	3106.3806	3111.4654	3116.2372	3527.7971	3573.3909
CC1(C)CNCC(=O)N1	CC1(C)CNCC(=O)N1	
InChI=1S/C6H12N2O/c1-6(2)4-7-3-5(9)8-6/h7H,3-4H2,1-2H3,(H,8,9)	InChI=1S/C6H12N2O/c1-6(2)4-7-3-5(9)8-6/h7H,3-4H2,1-2H3,(H,8,9)
