20
gdb 58543	2.10548	1.44657	1.40096	1.6933	75.36	-0.266	0.0242	0.2902	1106.1925	0.169775	-440.289843	-440.280304	-440.27936	-440.323835	35.852	
C	 0.0144296048	 1.6045901838	 0.0190376097	-0.427908
C	 0.0000324517	 0.075725924	-0.0259197615	 0.070035
O	 0.7881814257	-0.4727429865	 1.0263571721	-0.436213
C	-1.4199804892	-0.5308981895	-0.0053291526	 0.164455
C	-2.3332737528	 0.0087157471	-1.1063212555	-0.467124
C	-1.4557682185	-2.072332759	 0.1720325972	-0.128562
O	-2.1241763954	-1.9134984465	 1.4678223265	-0.254035
C	-2.0512570074	-0.5474700663	 1.3813096659	 0.39865
N	-2.3698689235	 0.3444700901	 2.2082341761	-0.558692
H	 1.0484907198	 1.9491411452	 0.1039947694	 0.124227
H	-0.4178319673	 2.0441796986	-0.8838411879	 0.119061
H	-0.5536677877	 1.9680821027	 0.8818027409	 0.150362
H	 0.4909977903	-0.2666668747	-0.9462655219	 0.089406
H	 0.472969501	-0.0843314278	 1.8518322303	 0.289822
H	-1.8653868117	-0.1092150498	-2.0902501327	 0.120136
H	-3.2873834196	-0.5264607135	-1.119601853	 0.126052
H	-2.5503325393	 1.0681177672	-0.9525989894	 0.144146
H	-2.0867031094	-2.62829765	-0.5250940002	 0.112399
H	-0.4843536324	-2.5497882401	 0.3044558983	 0.136296
H	-2.7552152389	-0.060043385	 3.0640175783	 0.227486
79.1011	121.1355	149.2047	212.6821	235.8783	240.5717	291.3084	360.8876	375.41	390.8283	452.4463	470.0486	531.62	664.4458	717.6565	759.1317	862.9217	879.8915	901.9917	934.7093	964.3003	977.4182	1029.2598	1031.8821	1082.9242	1111.673	1159.9195	1174.2902	1223.5208	1246.7037	1262.1049	1307.3039	1345.0461	1380.3485	1405.4047	1415.3003	1426.6652	1490.028	1493.843	1498.8708	1503.2821	1511.2924	1805.6453	3026.5865	3036.0378	3042.7672	3071.3559	3102.3234	3118.8815	3122.1629	3129.4259	3144.3801	3467.4287	3782.5702
CC(O)C1(C)COC1=N	C[C@@H](O)[C@@]1(C)CO[C]1[NH]	
InChI=1S/C6H11NO2/c1-4(8)6(2)3-9-5(6)7/h4,7-8H,3H2,1-2H3	InChI=1S/C6H11NO2/c1-4(8)6(2)3-9-5(6)7/h4,7-8H,3H2,1-2H3/t4-,6-/m1/s1
