25
gdb 101251	3.00896	0.85831	0.81474	1.6668	89.83	-0.2534	0.0825	0.3359	1625.9761	0.225524	-389.495824	-389.484432	-389.483488	-389.532297	41.767	
C	-0.8305093036	 1.688630388	 1.465017905	-0.394484
C	-0.3775081247	 0.2574630368	 1.1616494091	-0.163227
C	-0.1733686344	-0.046546655	-0.3364728263	-0.006178
C	 0.965535078	 0.7690828321	-0.9673584024	-0.399927
C	 0.1035989855	-1.5260641222	-0.5131741218	 0.015948
O	-0.9669332778	-2.4448358545	-0.2588722296	-0.309746
C	-0.4123159432	-2.3971146221	-1.5881853822	 0.391045
C	-1.3486574147	-1.8924333072	-2.6654743651	-0.458038
C	 0.3819567222	-3.6291374957	-1.9721882354	-0.450776
H	-0.0791997147	 2.4293043774	 1.1736941095	 0.11548
H	-1.7586380983	 1.9303499037	 0.9344960473	 0.113789
H	-1.0188630176	 1.8182523937	 2.5353466054	 0.113371
H	 0.5563922164	 0.044384643	 1.7003783142	 0.089164
H	-1.1223570147	-0.4480714709	 1.5468894894	 0.115428
H	-1.1083147866	 0.1987649742	-0.8534363416	 0.071258
H	 1.92038006	 0.5598453171	-0.4701270589	 0.114063
H	 1.0835793245	 0.5276293384	-2.0287011343	 0.114134
H	 0.7806507129	 1.8437404651	-0.8903519026	 0.119274
H	 1.0519548874	-1.8370014102	-0.0616926089	 0.073252
H	-1.9541397241	-1.0533783743	-2.3208182089	 0.129956
H	-0.7869820489	-1.5793071662	-3.5525685007	 0.118458
H	-2.0302377276	-2.6939336114	-2.971438013	 0.123311
H	-0.2921172901	-4.4511946016	-2.2376162968	 0.122228
H	 1.0208014809	-3.427988426	-2.8392530258	 0.117103
H	 1.0127109233	-3.9595671724	-1.1434587057	 0.125113
55.9547	89.2751	110.423	154.3419	173.7067	201.9063	214.9051	254.8945	256.9123	305.9451	364.0959	374.6492	394.7748	448.2429	509.9362	535.9868	711.9246	776.5863	819.6047	842.5867	919.8217	939.6965	945.751	976.02	991.2509	1008.8261	1047.6851	1075.8729	1112.2218	1148.85	1160.4919	1174.9747	1192.9728	1262.1668	1287.2874	1303.0962	1348.6513	1362.4164	1379.5531	1407.9566	1409.8204	1416.6387	1418.3808	1465.9288	1473.5436	1485.9528	1486.8046	1497.1605	1499.3168	1501.25	1506.9105	1511.7142	1521.449	3012.7495	3029.2509	3030.7603	3032.6168	3035.2642	3040.372	3051.	3064.4518	3090.7724	3094.2967	3096.3377	3097.918	3104.394	3115.041	3122.2755	3139.1956
CCC(C)C1OC1(C)C	CC[C@@H](C)[C@H]1OC1(C)C	
InChI=1S/C8H16O/c1-5-6(2)7-8(3,4)9-7/h6-7H,5H2,1-4H3	InChI=1S/C8H16O/c1-5-6(2)7-8(3,4)9-7/h6-7H,5H2,1-4H3/t6-,7-/m1/s1
