20
gdb 22149	4.96359	0.52273	0.50522	2.2496	81.04	-0.2452	-0.0239	0.2214	2126.4277	0.166962	-440.261956	-440.251011	-440.250067	-440.300125	37.248	
C	-0.1562036286	 1.5304907524	-0.0952810931	-0.47107
C	-0.0257971636	 0.0307221251	-0.0589925545	 0.356741
C	 0.0268205725	-0.6919701362	 1.2619040113	-0.274384
C	 1.3088835836	-0.3890266515	 2.0594593722	-0.195176
C	 1.3355579471	-1.1090095933	 3.4189106965	-0.270134
C	 2.6462246736	-0.8944041787	 4.1404052116	 0.158045
O	 2.7615039284	-0.4175843243	 5.2396451863	-0.23595
N	 0.0536905392	-0.7036073867	-1.1030791372	-0.163376
O	 0.0187266981	 0.0627505646	-2.280286955	-0.399659
H	 0.7753563751	 1.9934267021	-0.4396911992	 0.147398
H	-0.9304990565	 1.8239636108	-0.8094365726	 0.151426
H	-0.3998532998	 1.9343971239	 0.8896382366	 0.119132
H	-0.8455756353	-0.4044998438	 1.864880586	 0.108143
H	-0.0439861059	-1.7670130196	 1.0717441325	 0.117878
H	 2.1780399529	-0.692263783	 1.4624951278	 0.115088
H	 1.4036156256	 0.6913328009	 2.2220004291	 0.11589
H	 0.5204385303	-0.7761340359	 4.0684473173	 0.121776
H	 1.2207517612	-2.1903263287	 3.2531300286	 0.120699
H	 3.5438210974	-1.2135554896	 3.5587115759	 0.071329
H	 0.0522396048	-0.6154448184	-2.9629440203	 0.306204
43.7953	46.8807	64.3925	87.9361	119.3288	122.4383	243.882	278.32	322.8507	362.5895	388.3721	437.1814	513.7756	554.0218	652.4209	747.7761	802.3605	832.3501	905.3085	968.8312	988.8959	1020.8627	1036.3097	1037.5332	1095.9618	1121.3327	1179.8024	1251.3016	1264.3788	1292.2676	1328.8913	1336.3007	1381.3508	1401.2173	1401.8182	1429.2774	1464.5834	1473.117	1476.2411	1485.3889	1502.4204	1728.0939	1836.7932	2848.9288	3010.9288	3014.5432	3030.3974	3042.1884	3062.3699	3091.6621	3100.1555	3102.1051	3133.1045	3822.4095
CC(CCCC=O)=NO	CC(=NO)CCCC=O	
InChI=1S/C6H11NO2/c1-6(7-9)4-2-3-5-8/h5,9H,2-4H2,1H3	InChI=1S/C6H11NO2/c1-6(7-9)4-2-3-5-8/h5,9H,2-4H2,1H3
