19
gdb 125960	2.98561	1.62256	1.10572	2.9908	81.68	-0.2285	0.0314	0.2599	1103.5912	0.163285	-382.111696	-382.104172	-382.103228	-382.143699	29.279	
C	-0.082417607	 1.5858178387	-0.0583301243	-0.396736
C	 0.0244330322	 0.0613551503	 0.0285982797	-0.129782
C	 0.824792167	-0.5823465092	-1.1506749138	-0.225131
C	 1.534251046	-1.8266984965	-0.5633765675	-0.178775
N	 1.5968285231	-1.4702685254	 0.8423496526	 0.050579
N	 2.2747666897	-2.0360983849	 1.8506756614	-0.301124
C	 1.8750004844	-1.3342247727	 2.9167057038	 0.009566
C	 0.9337727788	-0.3308699771	 2.5855233995	-0.39832
C	 0.7794245176	-0.4601552901	 1.2179745247	 0.425285
H	 0.9105884835	 2.0466166517	-0.0572889407	 0.123783
H	-0.6003970235	 1.8883570727	-0.974276055	 0.116027
H	-0.6418467855	 1.9897171146	 0.7910164748	 0.123507
H	-0.9931350699	-0.3548724304	 0.0399347627	 0.094337
H	 0.1879168514	-0.831626248	-2.00206348	 0.110419
H	 1.5775512982	 0.1331358012	-1.4974011224	 0.116888
H	 0.9519888212	-2.7460837224	-0.700339981	 0.122021
H	 2.5343844071	-1.9922572224	-0.9706387592	 0.131641
H	 2.2831200332	-1.5683465402	 3.8896033122	 0.106428
H	 0.4540605126	 0.3719977701	 3.2468215425	 0.099386
110.9558	161.6396	202.0344	229.9066	274.5438	431.8457	477.7294	570.0465	635.5539	663.1974	714.2354	755.5316	785.8784	831.885	883.4004	918.7425	948.8788	966.8569	989.7495	1024.3903	1068.3665	1103.9509	1129.4126	1142.9821	1203.5377	1211.4341	1234.9635	1303.3907	1310.9965	1326.7409	1341.9141	1357.5506	1369.3842	1412.1808	1438.0401	1485.3167	1494.5589	1497.2148	1502.1478	1529.1863	1577.6511	2996.7172	3032.1879	3034.6036	3055.617	3099.541	3105.0491	3108.6421	3115.9328	3238.5757	3269.0091
CC1CCN2N=CC=C12	C[C@H]1CCn2nccc12	
InChI=1S/C7H10N2/c1-6-3-5-9-7(6)2-4-8-9/h2,4,6H,3,5H2,1H3	InChI=1S/C7H10N2/c1-6-3-5-9-7(6)2-4-8-9/h2,4,6H,3,5H2,1H3/t6-/m0/s1
