15
gdb 54445	3.38924	1.23655	1.05593	3.5954	66.82	-0.2502	-0.0155	0.2347	1112.3271	0.112229	-453.96245	-453.954197	-453.953253	-453.995739	30.777	
N	 0.0584644956	 1.0088191622	-0.734884624	-0.546027
C	-0.0485076144	 0.0221563067	 0.211736801	 0.305485
O	 0.8315880854	-0.2350841833	 1.0092452311	-0.357417
C	-1.321013011	-0.7484381045	 0.1860548473	 0.277741
C	-1.9821291439	-1.2880008872	 1.4146191549	-0.302049
C	-1.4734386264	-2.2631538867	 0.372413468	-0.255756
C	-2.3190588324	-2.2012525743	-0.8905255636	 0.431081
O	-2.7380466327	-2.9991888712	-1.6749801194	-0.329498
N	-2.3399025935	-0.7788055748	-0.9059874691	-0.434356
H	 0.8566962773	 1.6190427373	-0.639990968	 0.268249
H	-0.7684359539	 1.414413199	-1.142139013	 0.261302
H	-1.378765348	-1.259543868	 2.3157253996	 0.155779
H	-3.0472356385	-1.1204752868	 1.5348650426	 0.135145
H	-0.7091334291	-2.996142194	 0.5851964299	 0.143451
H	-2.1833211344	-0.3193671644	-1.7943393673	 0.246871
52.6002	108.6912	163.5681	276.493	313.1158	379.8552	401.7596	443.6756	465.5568	521.3792	572.8219	653.7141	681.2781	738.1847	775.6261	870.9078	883.7095	945.115	962.2691	989.4999	1068.3246	1091.2943	1096.7844	1122.3565	1174.6731	1244.88	1254.2638	1317.405	1428.3473	1474.6081	1623.8841	1791.3722	1906.8911	3130.9957	3230.8767	3237.6493	3579.3186	3583.6486	3705.4649
NC(=O)C12CC1C(=O)N2	NC(=O)[C@]12C[C@H]1C(=O)N2	
InChI=1S/C5H6N2O2/c6-4(9)5-1-2(5)3(8)7-5/h2H,1H2,(H2,6,9)(H,7,8)	InChI=1S/C5H6N2O2/c6-4(9)5-1-2(5)3(8)7-5/h2H,1H2,(H2,6,9)(H,7,8)/t2-,5-/m0/s1
