17
gdb 54293	2.33247	1.54447	1.07097	1.9444	69.4	-0.2502	-0.0411	0.2091	1140.1152	0.131287	-458.975388	-458.965629	-458.964685	-459.011367	34.134	
C	 0.9131581089	 0.3416695971	 0.8693139211	-0.479036
C	 0.1307083583	-0.337671215	-0.2322587066	 0.292149
O	 0.5808013609	-0.521182224	-1.3419252915	-0.303539
C	-1.2702964223	-0.7983014628	 0.1013131058	 0.178155
C	-1.4155167949	-1.8364547643	 1.1525130408	-0.194366
O	-1.733298761	-0.4871971899	 1.4280373217	-0.24839
C	-2.3976687304	-0.7412048577	-0.945042788	 0.351399
C	-2.1912755334	 0.0769741967	-2.1945395306	-0.495255
O	-3.4283062257	-1.3255936237	-0.7118948769	-0.287508
H	 1.9330429218	 0.5184755431	 0.5270013513	 0.143496
H	 0.4331156189	 1.293108166	 1.1238030295	 0.156814
H	 0.9158720079	-0.2512725797	 1.7882401186	 0.148812
H	-2.2661406045	-2.5069818108	 1.0631389952	 0.156102
H	-0.522517904	-2.2249715577	 1.6401234211	 0.123564
H	-1.3618908433	-0.3329619056	-2.7758568214	 0.176073
H	-3.1135253923	 0.0770719896	-2.7757551371	 0.141086
H	-1.910075565	 1.1046189089	-1.936484053	 0.140443
20.3335	72.2292	111.7607	158.4404	214.72	234.5843	283.9999	311.7766	365.8561	379.1235	497.5675	568.6139	592.4066	624.9626	639.9417	838.2118	868.7921	907.5152	954.172	986.1448	1035.4589	1057.0953	1095.4636	1140.0641	1157.9553	1206.1412	1294.3684	1354.0575	1386.2606	1387.5795	1450.1151	1458.7924	1464.9587	1467.1816	1498.0097	1797.2042	1809.7463	3044.4343	3047.4225	3092.6029	3109.8712	3116.8341	3159.9998	3164.1286	3201.3968
CC(=O)C1(CO1)C(C)=O	CC(=O)C1(CO1)C(=O)C	
InChI=1S/C6H8O3/c1-4(7)6(3-9-6)5(2)8/h3H2,1-2H3	InChI=1S/C6H8O3/c1-4(7)6(3-9-6)5(2)8/h3H2,1-2H3
