15
gdb 132622	3.12691	1.35382	0.94664	2.5236	74.9	-0.187	-0.0115	0.1754	1152.9857	0.114074	-458.151732	-458.143857	-458.142913	-458.183714	30.758	
N	 0.0006779071	 1.423155881	 0.130537989	-0.596021
C	 0.0150962948	 0.0225057877	 0.0486688958	 0.270439
C	-1.1602834753	-0.729844862	 0.0443872549	-0.071235
N	-1.1987671686	-2.0654311968	 0.0355691323	-0.328633
C	-0.0592665253	-2.748864981	 0.0340820357	 0.243826
N	-0.1035035298	-4.1361953071	 0.0924680482	-0.573823
C	 1.1675117416	-2.0691539437	 0.023313084	 0.230427
F	 2.2994696851	-2.7937777919	-0.0083369967	-0.091073
C	 1.2209238192	-0.6953286805	 0.0308475393	-0.278154
H	 0.7777228992	 1.8697369439	-0.3372351556	 0.245614
H	-0.8712030288	 1.833719239	-0.1752585635	 0.246618
H	-2.1243588725	-0.2243403815	 0.0462245893	 0.091747
H	-0.9892533797	-4.5104816429	-0.2162421725	 0.252414
H	 0.6953125454	-4.6032315808	-0.3101606697	 0.251555
H	 2.1842675576	-0.1966831034	 0.0279544494	 0.106298
141.5333	228.0747	238.3059	282.7689	312.9828	345.9355	391.083	467.3423	478.923	506.982	580.6966	609.0277	614.344	691.6708	739.0025	771.928	826.5027	893.2014	907.9678	998.5725	1069.8899	1126.4355	1186.1743	1262.8522	1328.0464	1342.799	1372.4172	1495.5084	1527.0305	1619.7274	1622.7791	1654.308	1677.3061	3138.3026	3191.0125	3546.8711	3565.7639	3640.5886	3678.1899
NC1=CN=C(N)C(F)=C1	Nc1cnc(N)c(F)c1	
InChI=1S/C5H6FN3/c6-4-1-3(7)2-9-5(4)8/h1-2H,7H2,(H2,8,9)	InChI=1S/C5H6FN3/c6-4-1-3(7)2-9-5(4)8/h1-2H,7H2,(H2,8,9)
