18
gdb 39876	3.49061	1.58637	1.44982	1.1526	74.4	-0.2169	0.0641	0.281	949.5711	0.149334	-401.854903	-401.848258	-401.847314	-401.885728	27.438	
C	-0.0293468545	 1.5046903198	 0.0019166935	-0.279178
O	 1.1552137695	 0.6870941409	-0.0118438688	-0.286786
C	-0.1097156554	 0.0449903815	 0.0038115312	 0.468393
C	-0.4518607534	-0.9527312446	 1.1148384812	-0.147102
C	-1.9778663781	-1.1503781637	 1.2589511943	-0.181941
N	-2.0549991671	-2.0095053509	 0.0285614974	-0.146197
C	-2.0075505517	-1.1519547857	-1.2044282927	-0.181941
C	-0.4785205481	-0.9541398707	-1.0973766125	-0.147101
C	-0.5290861843	-2.0613908247	 0.0102064268	 0.005005
H	-0.1975058581	 2.0611014347	 0.9233496159	 0.114684
H	-0.2196794193	 2.0599493436	-0.915889532	 0.114685
H	 0.1911293687	-0.9600543898	 1.9950874346	 0.082556
H	-2.2342135138	-1.7523603043	 2.1362093562	 0.111808
H	-2.6176616533	-0.2608202588	 1.2450689815	 0.099918
H	-2.2849448382	-1.7550583714	-2.0744835648	 0.111808
H	-2.6468451975	-0.2623746845	-1.1762732808	 0.099918
H	 0.1430791483	-0.9625894737	-1.9928489811	 0.082556
H	-0.0142019036	-3.0200731176	 0.0046086702	 0.078916
136.7681	214.2516	316.0763	376.3201	392.5295	428.2452	595.0725	678.8407	705.9249	797.5565	842.4766	844.2109	850.5282	897.691	912.7443	929.8384	966.5518	985.7603	995.4958	1008.8265	1009.8788	1119.3357	1122.2808	1125.3288	1155.133	1168.7282	1180.7127	1192.2277	1200.2398	1221.3052	1222.6614	1249.6115	1270.4948	1311.802	1317.7058	1441.7468	1491.6873	1503.9951	1534.9186	3029.7378	3036.0341	3079.1317	3082.0717	3085.0741	3110.6233	3112.4408	3134.7	3164.6568
C1OC11C2CN3CC1C23	C1O[C@]21[C@H]1CN3C[C@@H]2[C@@H]13	
InChI=1S/C7H9NO/c1-4-6-5(2-8(1)6)7(4)3-9-7/h4-6H,1-3H2	InChI=1S/C7H9NO/c1-4-6-5(2-8(1)6)7(4)3-9-7/h4-6H,1-3H2/t4-,5+,6+,7+
