17
gdb 20545	4.39996	1.56833	1.26087	2.3849	69.13	-0.2561	0.0133	0.2693	982.3789	0.143952	-360.081757	-360.073974	-360.073029	-360.114416	28.439	
C	 0.0138160646	 1.4267123264	-0.2392957986	-0.384695
C	-0.0143114855	-0.0749766665	 0.1034679981	-0.069895
C	 0.6772149244	-0.366510385	 1.4393155201	-0.380467
C	-1.425504326	-0.5901412637	 0.0665773905	 0.357351
N	-2.0568444572	-1.0833886007	 1.122715793	-0.27416
N	-3.2739751058	-1.3986118909	 0.6143876246	-0.183714
C	-3.324748851	-1.0910639191	-0.6958855143	 0.015052
N	-2.1762862073	-0.5771752539	-1.0814575292	-0.305421
H	 1.0463539069	 1.783029296	-0.3112711919	 0.108614
H	-0.4876440832	 1.6172399966	-1.1912253058	 0.13443
H	-0.4928650775	 2.0103899175	 0.5371846844	 0.114914
H	 0.5264561076	-0.6008446698	-0.6949228063	 0.095242
H	 0.1657328695	 0.1399267142	 2.2633389733	 0.12485
H	 0.6809909705	-1.4364367778	 1.6633430278	 0.119926
H	 1.7130103583	-0.0144465616	 1.4112996973	 0.103815
H	-3.9763278282	-1.8068916955	 1.2084416512	 0.279789
H	-4.1969992503	-1.2575324263	-1.3104889844	 0.144369
37.1263	167.7908	207.0521	226.1951	267.9902	322.6728	430.4162	474.986	527.3459	644.5175	680.0903	783.4895	857.0928	891.9829	932.8954	969.8645	991.2027	1001.731	1093.4171	1112.151	1127.5901	1174.4524	1186.6782	1266.0475	1316.6237	1334.8065	1378.5584	1396.4574	1418.9425	1470.672	1477.8958	1487.0121	1489.3281	1499.8152	1518.5129	1557.2557	3015.596	3033.3231	3041.72	3100.228	3111.3843	3118.2334	3124.0777	3254.4462	3667.8983
CC(C)C1=NNC=N1	CC(C)c1n[nH]cn1	
InChI=1S/C5H9N3/c1-4(2)5-6-3-7-8-5/h3-4H,1-2H3,(H,6,7,8)	InChI=1S/C5H9N3/c1-4(2)5-6-3-7-8-5/h3-4H,1-2H3,(H,6,7,8)
