15
gdb 9708	3.50519	1.74881	1.60955	1.5126	66.92	-0.2577	0.0118	0.2695	858.1067	0.11815	-362.640351	-362.632696	-362.631752	-362.672527	28.223	
C	 0.0385889008	 1.4604244064	 0.069589887	-0.41703
C	-0.0381435427	-0.0746368127	-0.0001436537	 0.076034
C	 0.7860809027	-0.6604382272	-1.1999727554	-0.143224
O	 1.8343444218	-1.4315278562	-0.5734434822	-0.217995
C	 1.6086352556	-1.3351584771	 0.7561368654	 0.121534
N	 0.638631956	-0.6508322815	 1.1969266745	-0.276584
C	-1.4341601162	-0.5132955703	-0.0476577489	 0.351433
C	-2.5812239241	-0.8637955159	-0.1181950223	-0.485648
H	 1.0852246405	 1.7772692619	 0.0992352918	 0.120703
H	-0.4464615777	 1.9096013751	-0.8019971552	 0.124039
H	-0.4597669668	 1.8174491692	 0.9729607775	 0.143645
H	 0.1979369576	-1.3256457489	-1.8342243686	 0.133857
H	 1.2495908608	 0.1185657296	-1.8109304839	 0.122731
H	 2.3195964046	-1.878590097	 1.3689470565	 0.146329
H	-3.594398543	-1.1788577052	-0.1658532525	 0.200175
52.3847	171.4	178.0542	248.3161	321.2588	353.6255	485.3088	516.8091	569.9298	623.6731	632.2804	651.1028	789.6855	851.1051	916.7467	950.7966	968.3692	971.2941	979.5111	1116.4035	1139.1114	1171.9549	1207.3765	1261.73	1319.9311	1371.1608	1404.5548	1482.5997	1491.8625	1515.4286	1702.2073	2238.3516	3043.3373	3065.4955	3118.7947	3124.8881	3139.1611	3215.029	3500.731
CC1(COC=N1)C#C	C[C@]1(COC=N1)C#C	
InChI=1S/C6H7NO/c1-3-6(2)4-8-5-7-6/h1,5H,4H2,2H3	InChI=1S/C6H7NO/c1-3-6(2)4-8-5-7-6/h1,5H,4H2,2H3/t6-/m1/s1
