23
gdb 52318	5.10696	0.62781	0.58588	2.9514	87.06	-0.2467	-0.0177	0.229	1909.3546	0.205954	-388.322787	-388.312912	-388.311968	-388.359975	35.126	
O	-0.7556848417	 0.9479246015	 0.8656307629	-0.239222
C	-0.0117775211	 1.0474867291	-0.075895611	 0.160939
C	 1.2775511915	 1.8336192997	-0.0901111102	-0.277475
C	 1.285555858	 2.8962360668	-1.2055171782	-0.220816
C	 2.6003042928	 3.6744609221	-1.3051418535	 0.057071
C	 3.8343058475	 2.8270914291	-1.6971132625	-0.20422
C	 4.8299198171	 3.8081066989	-2.3816941859	-0.207035
C	 4.0754927476	 5.1573190559	-2.513423171	-0.204424
C	 2.5915061426	 4.7891919394	-2.3661008498	-0.215225
H	-0.2485973291	 0.5457047442	-1.0450717887	 0.066951
H	 1.4229503553	 2.2848011344	 0.8961277834	 0.119001
H	 2.0954177069	 1.1201047787	-0.2641872508	 0.120138
H	 1.0819271719	 2.411986912	-2.1711735825	 0.097513
H	 0.4600780055	 3.598231725	-1.0321958143	 0.107213
H	 2.7970444099	 4.1435852834	-0.3298806366	 0.071089
H	 4.2793276441	 2.3160839502	-0.8389587571	 0.097849
H	 3.5276847717	 2.0455416291	-2.4035840207	 0.092617
H	 5.7518550745	 3.9219146846	-1.804983897	 0.09906
H	 5.1245983191	 3.4283017325	-3.364402245	 0.100519
H	 4.3658092964	 5.8319423608	-1.6997632118	 0.098356
H	 4.2972253063	 5.6760416637	-3.4501034937	 0.094512
H	 2.2024049118	 4.3897023762	-3.312958563	 0.092032
H	 1.9599858813	 5.6387627326	-2.088193653	 0.093557
24.4484	52.8187	66.3423	103.1055	131.6321	205.6004	285.9714	342.2821	422.4228	524.5545	566.8072	620.8726	762.8318	773.0213	827.4036	837.7452	879.4095	897.8474	949.3949	952.0547	990.1013	999.4984	1037.0484	1045.1261	1061.4332	1107.9311	1125.329	1178.3376	1207.9638	1211.1147	1239.5867	1264.2199	1282.7007	1287.9991	1311.9385	1323.3882	1330.8471	1343.5282	1356.1629	1375.712	1392.9294	1431.0036	1464.1698	1487.1157	1489.3553	1494.6173	1497.8499	1518.5822	1835.7985	2842.5129	2991.6805	3006.7351	3015.4482	3018.493	3026.9047	3037.0337	3049.6038	3055.3668	3074.5047	3080.9164	3087.8657	3095.4871	3102.8334
O=CCCC1CCCC1	O=CCCC1CCCC1	
InChI=1S/C8H14O/c9-7-3-6-8-4-1-2-5-8/h7-8H,1-6H2	InChI=1S/C8H14O/c9-7-3-6-8-4-1-2-5-8/h7-8H,1-6H2
