15
gdb 110164	2.68525	1.20204	0.90774	4.0343	67.16	-0.2596	-0.0203	0.2393	1245.9751	0.112187	-453.955621	-453.946977	-453.946033	-453.989643	30.135	
C	 0.0222861777	 1.3797061823	 0.2468913437	-0.331741
N	-0.1342792983	 0.0268330891	-0.2983996859	-0.300757
C	-1.4464415051	-0.5267244588	-0.0593604685	-0.190982
C	-1.5821388775	-2.0485072925	-0.3360385763	-0.030196
O	-1.8845830526	-2.2910191122	 1.0735830775	-0.236799
C	-1.7008585454	-0.9625405558	 1.3943232915	 0.494486
O	-1.73513094	-0.4666796165	 2.4696486071	-0.304206
C	-2.6570611577	-2.479390346	-1.2198855311	 0.287899
N	-3.4934178903	-2.8021028997	-1.9482264088	-0.30395
H	 1.029924573	 1.7357243442	 0.0203719606	 0.132656
H	-0.7052136917	 2.1049907691	-0.1534510046	 0.109189
H	-0.0952870965	 1.3462465769	 1.3323608507	 0.164531
H	 0.0372684964	 0.0448497489	-1.29928708	 0.235217
H	-2.2926698762	 0.0568289426	-0.4591046956	 0.120005
H	-0.6356436459	-2.5211379915	-0.6074452004	 0.15465
77.4841	94.6302	153.0167	164.2952	205.1688	251.4908	327.5793	378.249	461.8745	511.2704	586.5787	696.2107	747.7224	805.084	889.33	935.4552	1003.9216	1019.0386	1052.5035	1115.9756	1140.3348	1162.2892	1183.924	1245.9192	1261.118	1339.193	1375.1581	1460.7985	1479.6127	1496.8367	1520.2352	1954.5682	2367.044	2966.7257	2973.0325	3092.9574	3100.6891	3138.2571	3508.928
CNC1C(OC1=O)C#N	CN[C@H]1[C@@H](OC1=O)C#N	
InChI=1S/C5H6N2O2/c1-7-4-3(2-6)9-5(4)8/h3-4,7H,1H3	InChI=1S/C5H6N2O2/c1-7-4-3(2-6)9-5(4)8/h3-4,7H,1H3/t3-,4-/m0/s1
