20
gdb 105749	2.29152	1.43401	1.17792	3.9956	78.69	-0.2718	0.0293	0.3011	1171.8499	0.170978	-403.178473	-403.169147	-403.168203	-403.213074	33.98	
C	-0.0254235052	 1.5572676046	 0.0403392131	-0.398449
C	 0.0064182112	 0.0283453577	-0.0078509523	-0.221103
C	 0.7134977662	-0.5422039316	-1.2462738854	 0.237845
C	 0.672963403	-2.0813159271	-1.3532239328	-0.257078
C	 0.8104606679	-2.2994722842	-2.8657258687	-0.252227
C	 0.0751620178	-1.0794098118	-3.4470548434	-0.069419
O	 0.0440281468	-0.0800823773	-2.4149949957	-0.285
C	 2.1303564986	-0.082755028	-1.2813007689	 0.272187
N	 3.2331905719	 0.2621982831	-1.3153138094	-0.35276
H	 0.9854683437	 1.9740682993	 0.0810065144	 0.139886
H	-0.5240788027	 1.9595970122	-0.8447520196	 0.139883
H	-0.5668920942	 1.8991119634	 0.9268584099	 0.115407
H	 0.5019473569	-0.373886716	 0.8834539273	 0.112336
H	-1.0134928031	-0.3713751402	-0.0225253208	 0.107544
H	 1.4530155054	-2.5688579218	-0.7660403428	 0.125944
H	-0.3018071911	-2.423117784	-0.9907593668	 0.112292
H	 1.8652563981	-2.2877552539	-3.1544396926	 0.131911
H	 0.3803609211	-3.2453060009	-3.2013517596	 0.113949
H	 0.5749015892	-0.6702323914	-4.3313028829	 0.117425
H	-0.9618941215	-1.3129334321	-3.7159697029	 0.109427
50.8379	98.074	137.0454	162.6926	202.5178	213.2302	269.3087	390.5147	396.8797	487.6665	573.9653	631.0049	644.7214	727.9117	784.1573	860.9562	878.9404	922.4908	941.0136	952.4421	993.9577	1046.4325	1057.1603	1085.8251	1137.1269	1154.3287	1184.3258	1212.2543	1227.4618	1256.3546	1312.8157	1326.8418	1341.7728	1365.9368	1391.5677	1413.0007	1469.8073	1483.4639	1497.3283	1498.0573	1508.9169	1530.6556	2345.3463	3029.6798	3036.7428	3047.6837	3058.9161	3063.3203	3074.9398	3079.0943	3116.4478	3117.3486	3128.2276	3131.009
CCC1(CCCO1)C#N	CC[C@]1(CCCO1)C#N	
InChI=1S/C7H11NO/c1-2-7(6-8)4-3-5-9-7/h2-5H2,1H3	InChI=1S/C7H11NO/c1-2-7(6-8)4-3-5-9-7/h2-5H2,1H3/t7-/m0/s1
