21
gdb 89347	2.21545	1.54092	1.10291	2.9472	84.94	-0.2391	-0.0217	0.2173	1193.5584	0.180858	-387.090981	-387.081602	-387.080658	-387.124657	35.474	
C	-0.1531528497	 1.6174920174	-0.1232347957	-0.408495
C	 0.0456425995	 0.1087067681	-0.0322859176	-0.050063
C	 1.1578341477	-0.5639513725	-0.9079180485	-0.305547
C	 1.7832437042	-1.1993353607	 0.342820595	 0.315667
C	 2.2381211194	-2.6240926728	 0.4585857841	-0.495927
C	 2.1742930647	-0.1416746898	 1.3074378616	-0.374163
C	 0.696992137	-0.4740709343	 1.2312070001	 0.20879
C	 0.0066291469	-1.1049551481	 2.3577933957	 0.052274
O	 0.5564315521	-1.6499778758	 3.2924640608	-0.285984
H	 0.7795737973	 2.1609258905	 0.0592722397	 0.11697
H	-0.5145799077	 1.9042437898	-1.1167553374	 0.116837
H	-0.8880933887	 1.9622443588	 0.6123486849	 0.118966
H	-0.9110073055	-0.3944662724	-0.2116630454	 0.077839
H	 0.7590760272	-1.2966135766	-1.6132547075	 0.106163
H	 1.8146356023	 0.1225411979	-1.453498503	 0.100017
H	 3.2341971503	-2.7511674926	 0.0171923515	 0.124176
H	 2.2912282553	-2.9269770479	 1.5083607485	 0.149605
H	 1.5553605678	-3.3059457928	-0.0598323326	 0.117272
H	 2.6403314487	-0.4881527387	 2.2239379481	 0.140984
H	 2.5102518473	 0.8324034713	 0.9607636204	 0.111214
H	-1.1058811961	-1.0898663284	 2.2841120774	 0.063405
103.9225	142.9167	178.9281	204.0664	209.9625	228.6191	245.1616	339.4544	367.036	429.2118	464.0994	544.3714	634.567	674.5837	728.2167	809.9929	846.0036	891.2023	937.3169	968.0162	985.2828	1021.4657	1043.0616	1059.8946	1086.0469	1103.9527	1120.4918	1169.7779	1198.5211	1228.5377	1247.5871	1269.9645	1332.9843	1363.3876	1392.1091	1412.554	1422.4142	1432.3348	1477.0822	1487.6927	1493.3208	1495.7553	1497.3411	1503.8165	1777.5554	2855.2207	3024.0377	3029.9431	3039.5294	3042.3637	3083.0784	3095.9127	3101.0475	3106.1332	3112.7493	3114.5489	3212.4025
CC1CC2(C)CC12C=O	C[C@H]1C[C@@]2(C)C[C@@]12C=O	
InChI=1S/C8H12O/c1-6-3-7(2)4-8(6,7)5-9/h5-6H,3-4H2,1-2H3	InChI=1S/C8H12O/c1-6-3-7(2)4-8(6,7)5-9/h5-6H,3-4H2,1-2H3/t6-,7-,8+/m0/s1
