19
gdb 37199	2.64481	2.00399	1.71355	1.7119	77.02	-0.2238	0.0662	0.29	897.9211	0.160204	-385.795385	-385.788439	-385.787495	-385.826265	29.094	
C	-0.0419175205	 1.5437995987	-0.0366998353	-0.289273
C	 1.5319810708	 1.5662795178	-0.0510992272	-0.289278
C	 1.5431046269	 0.007532781	-0.0197811085	 0.239983
C	 1.5742564166	-0.771950978	 1.3228973533	-0.293298
C	 0.007785336	-0.794249498	 1.3372901031	-0.293297
C	-0.0079386528	-0.0146228968	-0.0055733129	 0.239985
C	 0.0212284826	-0.8441490253	-1.296426703	-0.051849
O	 0.7481053386	-0.086570282	-2.2680893019	-0.234285
C	 1.5140081507	-0.822817833	-1.3101054517	-0.051843
H	-0.505703339	 2.0022561957	 0.8410370159	 0.09492
H	-0.4986311159	 1.9628540074	-0.9349869777	 0.114163
H	 1.960035834	 1.9979773614	-0.9574774352	 0.114163
H	 1.9984627395	 2.0380192683	 0.818128788	 0.094921
H	 2.0550391827	-1.7530405604	 1.2752827405	 0.102372
H	 2.0298306938	-0.2168392399	 2.1467798451	 0.10554
H	-0.4457246301	-1.7886197154	 1.298423583	 0.102369
H	-0.4481410198	-0.251967012	 2.1694824903	 0.105543
H	-0.6873318041	-1.5708615013	-1.6840664767	 0.094583
H	 2.23581743	-1.5290947884	-1.7108517691	 0.094584
141.8329	254.5251	255.861	314.0416	343.453	518.7804	548.1646	677.9026	707.0412	708.2788	713.007	742.0095	832.0584	849.7937	865.9461	886.6504	911.2615	911.5603	917.0032	994.3013	1010.3189	1034.7003	1041.4422	1060.0318	1154.4491	1182.4476	1202.8663	1221.3886	1227.7593	1234.101	1246.394	1256.3946	1271.5727	1274.3762	1300.6118	1313.4944	1338.5775	1453.5136	1467.6286	1470.062	1486.8004	3050.8401	3056.184	3056.5298	3062.7604	3094.6599	3113.1183	3113.5398	3129.9658	3143.3682	3158.1831
C1CC23CCC12C1OC31	C1C[C@@]23CC[C@@]12[C@H]1O[C@@H]31	
InChI=1S/C8H10O/c1-2-8-4-3-7(1,8)5-6(8)9-5/h5-6H,1-4H2	InChI=1S/C8H10O/c1-2-8-4-3-7(1,8)5-6(8)9-5/h5-6H,1-4H2/t5-,6+,7-,8+
