13
gdb 11140	4.96773	1.51699	1.28657	3.068	68.44	-0.2563	-0.0375	0.2188	914.3501	0.095493	-361.443065	-361.436211	-361.435267	-361.474265	25.698	
N	-0.0534582684	 1.3147053345	 0.04864788	-0.542667
C	-0.0487380429	 0.050924786	 0.0164705218	 0.397137
O	 1.0825101619	-0.7346897582	-0.0430729249	-0.240064
C	 0.7091973139	-2.1248265913	-0.0579026725	-0.112022
C	-0.8039705887	-2.1030362681	 0.0003708967	-0.090613
C	-1.2170383733	-0.8395069962	 0.0426249153	-0.136924
C	 1.2370688001	-2.8017602404	-1.2399134663	 0.335078
C	 1.6583899147	-3.3831066	-2.2023447998	-0.457811
H	 0.8989679589	 1.6809066376	 0.0143000842	 0.227499
H	 1.1328006431	-2.591518308	 0.8435686041	 0.134077
H	-1.3940460828	-3.0084956845	-0.0048426614	 0.137305
H	-2.2273824512	-0.4615594407	 0.0884552529	 0.138375
H	 2.0365720348	-3.8887037006	-3.0567071702	 0.21063
90.4301	148.0659	235.6546	334.2319	420.2715	503.7391	525.5772	631.866	669.6572	682.5513	704.4083	795.6541	823.7938	879.8048	899.0798	921.0071	975.7595	1004.2113	1043.6868	1083.9442	1114.9997	1247.8659	1317.1539	1327.2644	1374.1632	1665.4433	1765.3401	2243.0139	2999.886	3237.8615	3264.3963	3483.8531	3501.8092
N=C1OC(C=C1)C#C	[NH]C1=C[CH][C@H](O1)C#C	
InChI=1S/C6H5NO/c1-2-5-3-4-6(7)8-5/h1,3-5,7H	InChI=1S/C6H5NO/c1-2-5-3-4-6(7)8-5/h1,3-5,7H/t5-/m1/s1
