21
gdb 59531	3.67112	1.02162	0.99112	1.4441	79.27	-0.2339	0.0732	0.3072	1322.3931	0.181017	-424.198402	-424.189165	-424.188221	-424.232658	35.416	
C	 0.0637322245	 1.5118276156	 0.1590738366	-0.403699
C	 0.0138919511	-0.0180538941	 0.1356913552	 0.114445
O	 0.434437181	-0.5715936696	 1.3734253861	-0.438174
C	-1.3808537396	-0.5287915374	-0.2165235696	 0.128693
C	-1.6342266223	-2.0507748238	-0.1416784759	-0.385497
C	-2.6523778637	-1.6781328879	 0.9271990283	 0.464514
C	-4.0693965675	-2.1144433649	 1.096060205	-0.33022
C	-3.039529564	-2.3543322803	 2.1964434876	-0.333934
O	-2.2988032484	-0.2883814351	 0.8930023572	-0.340303
H	 1.0525752456	 1.8479921558	 0.4804845385	 0.123168
H	-0.1436106137	 1.9307392667	-0.8315014377	 0.109835
H	-0.6819951865	 1.905476222	 0.8578425681	 0.128168
H	 0.7164161312	-0.3991819878	-0.6170306592	 0.086499
H	-0.2880171887	-0.3949476776	 1.9907283697	 0.285733
H	-1.7493938782	-0.052086901	-1.1334904546	 0.076289
H	-2.033023233	-2.5154715578	-1.0447441799	 0.10801
H	-0.7758015436	-2.6126970265	 0.2301498183	 0.126394
H	-4.8081142398	-1.3393871793	 1.2698893443	 0.124795
H	-4.4248933408	-2.9633482023	 0.5206620858	 0.114819
H	-2.6875282125	-3.3654404508	 2.3740276344	 0.118598
H	-3.1135586012	-1.7361770741	 3.0852465718	 0.121868
49.3321	81.7909	169.9178	236.4193	252.334	290.3254	296.9421	374.644	417.1081	459.337	490.1569	547.4119	664.8011	743.5006	755.7189	838.7549	876.882	890.0931	917.5134	919.9132	954.9163	984.5002	1013.2102	1043.6327	1047.5184	1058.841	1067.8308	1110.8446	1144.1478	1179.0814	1186.4673	1215.4448	1247.817	1280.5001	1304.5096	1343.1673	1368.0015	1398.6839	1400.3276	1426.0834	1446.9281	1479.7693	1491.915	1499.6159	1504.6942	3023.6997	3032.6542	3036.4936	3077.8548	3105.3872	3124.0883	3125.7401	3128.5903	3136.8017	3208.7956	3223.2984	3762.3541
CC(O)C1CC2(CC2)O1	C[C@@H](O)[C@H]1CC2(CC2)O1	
InChI=1S/C7H12O2/c1-5(8)6-4-7(9-6)2-3-7/h5-6,8H,2-4H2,1H3	InChI=1S/C7H12O2/c1-5(8)6-4-7(9-6)2-3-7/h5-6,8H,2-4H2,1H3/t5-,6-/m1/s1
