12
gdb 20483	5.18659	2.20412	1.56731	2.149	55.62	-0.2064	0.0196	0.226	731.0847	0.086648	-414.64143	-414.635479	-414.634535	-414.671533	22.024	
C	 0.0311929343	 1.3683265729	-0.1138191704	 0.005506
O	 1.2795409388	 1.9404438034	 0.3356347498	-0.289708
C	 2.0059610486	 0.8430535506	 0.7082822239	 0.236007
C	 3.2308689057	 0.4299028033	 1.14964821	-0.19596
N	 3.0474913556	-0.9100179523	 1.4349479009	-0.206719
N	 1.7892767891	-1.3799253478	 1.1501011953	-0.33666
C	 1.1957760737	-0.2886509126	 0.7374746187	 0.38008
O	-0.0816905566	 0.0196633216	 0.3808839851	-0.271505
H	-0.7953731901	 1.9637558298	 0.2792074035	 0.138605
H	 0.0232765705	 1.3471830526	-1.2125575759	 0.121075
H	 4.1737951839	 0.9224527774	 1.3140585964	 0.143745
H	 3.7725533663	-1.587688669	 1.5907974827	 0.275534
126.4305	231.461	300.0927	357.3137	502.9025	604.9463	676.415	726.7668	740.8998	753.3353	781.7831	921.7011	965.3524	1032.6863	1057.5242	1135.4639	1146.8883	1170.4607	1217.9181	1311.068	1409.9627	1459.5244	1515.086	1525.9636	1592.0325	1679.8335	3005.0102	3113.0159	3280.1838	3691.9011
C1OC2=CNN=C2O1	C1Oc2c[nH]nc2O1	
InChI=1S/C4H4N2O2/c1-3-4(6-5-1)8-2-7-3/h1H,2H2,(H,5,6)	InChI=1S/C4H4N2O2/c1-3-4(6-5-1)8-2-7-3/h1H,2H2,(H,5,6)
