20
gdb 89764	2.29298	1.49675	1.04857	2.0631	85.58	-0.2396	0.0506	0.2902	1207.2624	0.169749	-365.942378	-365.933242	-365.932298	-365.976144	35.06	
C	-0.8394429405	 1.1128221419	-0.0276541108	-0.414932
C	 0.1624408814	-0.0275742406	-0.014321692	 0.043109
C	 1.5457062166	 0.1777852936	-0.7001896132	-0.327603
C	 2.1817831408	-0.5803946872	 0.4641234131	 0.38393
C	 3.020070625	-1.7947020088	 0.3659114757	-0.310039
N	 3.543990198	-0.5442764628	 0.9559373748	-0.359095
C	 0.9113153049	-0.3959706413	 1.3312206529	-0.30712
C	 1.0022720336	 0.6748438354	 2.3051347306	 0.380094
C	 1.077551666	 1.5703586686	 3.1046812329	-0.48989
H	-0.4060233826	 2.0231040788	 0.3962049702	 0.12992
H	-1.160875004	 1.3295087532	-1.0523886801	 0.111486
H	-1.7313251595	 0.8656946265	 0.5579338918	 0.118423
H	-0.3015349511	-0.9422069826	-0.395974198	 0.08021
H	 1.6796194851	-0.2268481081	-1.7069835108	 0.099598
H	 1.8342070059	 1.2352072453	-0.6995087632	 0.109581
H	 2.8944030602	-2.6106669723	 1.0734006091	 0.119431
H	 3.3638900349	-2.0980899022	-0.6206322773	 0.11024
H	 4.1477800049	-0.0605914637	 0.2952064523	 0.230923
H	 0.5504249233	-1.3091156801	 1.8149053585	 0.098411
H	 1.1549485674	 2.3508598862	 3.8202120533	 0.193321
63.2339	120.5995	155.3833	213.2223	246.2874	300.6897	337.5136	362.4306	397.3834	475.0549	539.4376	613.4417	620.3902	625.4113	739.3788	811.4559	844.2118	875.0005	908.4947	927.5018	957.6907	977.0773	995.922	999.898	1093.385	1109.5155	1117.4583	1141.8172	1156.6923	1213.2248	1254.4189	1256.7594	1264.625	1291.2187	1323.4959	1366.1055	1412.1794	1418.4743	1483.832	1492.1656	1496.7685	1515.0643	2230.2606	3032.179	3038.8609	3048.9587	3060.7846	3095.907	3096.5286	3097.8078	3115.7222	3181.3103	3494.0103	3504.7515
CC1CC2(CN2)C1C#C	C[C@H]1C[C@]2(CN2)[C@H]1C#C	
InChI=1S/C8H11N/c1-3-7-6(2)4-8(7)5-9-8/h1,6-7,9H,4-5H2,2H3	InChI=1S/C8H11N/c1-3-7-6(2)4-8(7)5-9-8/h1,6-7,9H,4-5H2,2H3/t6-,7-,8-/m0/s1
