15
gdb 31896	3.76183	1.09413	0.85686	3.6866	84.12	-0.1939	-0.0203	0.1736	1294.945	0.112138	-416.79783	-416.789257	-416.788313	-416.831537	30.925	
C	-0.2176536193	 1.4787573843	 0.0862531986	-0.334543
N	-0.1009703825	 0.0651321777	-0.2558726016	-0.405419
C	-1.1648305167	-0.7770172483	-0.066589774	 0.401523
C	-1.2971410865	-2.1287302235	 0.1178657785	-0.226658
N	-2.6388645381	-2.441106166	 0.1615299354	-0.297639
C	-3.2643730598	-1.3124256176	 0.0161669576	 0.207009
O	-2.4028297515	-0.2358272235	-0.1303299605	-0.201814
C	-4.6436572426	-1.0464449144	-0.0021619737	 0.259728
C	-5.8247846087	-0.8125845012	-0.0202564771	-0.381029
H	 0.705335685	 1.98256344	-0.2074022942	 0.132677
H	-1.043323946	 1.9218010548	-0.4735112155	 0.158636
H	-0.3940600933	 1.6540254768	 1.1571384475	 0.125998
H	 0.7791125941	-0.3585288129	-0.0033130251	 0.253124
H	-0.5275753771	-2.8766344842	 0.2164774326	 0.112081
H	-6.8679386669	-0.614865172	-0.0344442985	 0.196325
64.7835	122.7276	136.1481	160.2358	224.4728	307.8441	423.0787	458.2019	542.1734	546.3035	547.7786	610.6054	696.9793	704.0781	720.835	746.9126	773.5695	963.2613	1002.3484	1075.7626	1119.9594	1149.6349	1164.8795	1250.3244	1304.3365	1377.8052	1450.2226	1487.2099	1489.3404	1515.913	1568.1267	1649.0017	2232.801	3002.9649	3102.1433	3143.5259	3266.7038	3503.5022	3616.2864
CNC1=CN=C(O1)C#C	CNc1cnc(o1)C#C	
InChI=1S/C6H6N2O/c1-3-5-8-4-6(7-2)9-5/h1,4,7H,2H3	InChI=1S/C6H6N2O/c1-3-5-8-4-6(7-2)9-5/h1,4,7H,2H3
