24
gdb 100041	2.98808	1.03794	0.96803	1.0471	85.99	-0.2197	0.0647	0.2844	1393.1082	0.214661	-405.514241	-405.503315	-405.50237	-405.54972	41.042	
C	 1.1486626422	 0.9199481354	 0.919844038	-0.402399
C	 0.9511987127	-0.5117739638	 0.4160043573	-0.191726
C	 1.4420982548	-0.7747501127	-1.0308767483	 0.345437
C	 0.7579091688	 0.1784777331	-2.013439859	-0.423708
O	 2.8447905246	-0.4681542098	-1.1234267656	-0.460628
C	 1.2247851946	-2.2729708468	-1.3099703759	-0.039792
C	 0.3278984397	-2.8356868197	-2.3657105337	-0.257196
N	 1.7647872358	-3.0370868387	-2.4360373048	-0.091515
C	 2.5181106317	-2.4182546217	-3.5184552164	-0.309139
H	 2.1784150012	 1.2454192174	 0.7486113077	 0.129553
H	 0.4820119555	 1.6285391277	 0.4199321835	 0.117659
H	 0.943355618	 0.980080258	 1.9929132067	 0.109396
H	 1.4956147485	-1.2001888071	 1.0770354264	 0.085647
H	-0.1051405539	-0.8015545034	 0.4862969512	 0.099644
H	 1.0319256399	 1.2085391801	-1.7745251895	 0.127848
H	 1.0644678528	-0.0085540761	-3.0429403553	 0.125368
H	-0.3294349869	 0.0831949651	-1.9521585844	 0.115466
H	 3.3191395223	-1.1003962546	-0.5718704537	 0.278626
H	 1.2947528057	-2.8540857728	-0.3884600443	 0.079639
H	-0.2798334144	-3.715939943	-2.1660503126	 0.108456
H	-0.1193845569	-2.1318704068	-3.0661574192	 0.105114
H	 2.0674399502	-1.5094636115	-3.9392313997	 0.105794
H	 3.5193438242	-2.1615558641	-3.1662675224	 0.126464
H	 2.6092275492	-3.1516786445	-4.3267822759	 0.115993
54.3453	107.9223	151.1715	177.4288	208.4532	235.2979	245.4017	276.9584	313.1638	325.0257	361.9907	377.3523	408.7248	419.3704	505.8946	610.878	710.7679	774.3812	788.6381	844.8521	918.5065	926.8496	972.5511	1003.6823	1036.7305	1053.1315	1064.7676	1101.9925	1129.0636	1134.0526	1154.5984	1170.1958	1175.6898	1204.9337	1206.4685	1296.1392	1353.5962	1361.6287	1384.7257	1394.7632	1405.6812	1440.4206	1452.662	1477.2447	1479.5494	1484.3306	1496.7958	1504.6731	1506.6678	1513.8999	1523.9802	3007.2439	3008.4704	3043.9376	3048.7163	3059.8215	3070.9222	3075.658	3086.9341	3107.8729	3121.7722	3123.7475	3130.6807	3146.8851	3166.0196	3798.7285
CCC(C)(O)C1CN1C	CC[C@@](C)(O)[C@H]1CN1C	
InChI=1S/C7H15NO/c1-4-7(2,9)6-5-8(6)3/h6,9H,4-5H2,1-3H3	InChI=1S/C7H15NO/c1-4-7(2,9)6-5-8(6)3/h6,9H,4-5H2,1-3H3/t6-,7-,8?/m1/s1
