13
gdb 132644	3.17887	1.34847	0.94735	2.0717	65.36	-0.2173	-0.0207	0.1966	1091.2691	0.08945	-502.064725	-502.057583	-502.056639	-502.096222	27.798	
N	-0.0437687386	 1.369972028	-0.1419172026	-0.568875
C	-0.0131767544	 0.001012962	-0.0601439867	 0.286653
N	-1.1717683409	-0.6628877182	-0.0372407346	-0.384822
C	-1.1298772905	-1.9789783952	-0.0122540303	 0.330086
F	-2.3138007568	-2.5886144235	 0.0084152153	-0.07659
C	 0.0186177087	-2.7553190475	-0.0003347281	-0.290496
C	 1.2326518419	-2.0646836532	-0.0124724128	-0.182867
C	 1.2100330546	-0.6894668164	-0.0433031897	 0.207527
F	 2.3453483171	 0.032645266	-0.0482262339	-0.093152
H	 0.7887122629	 1.8608657026	 0.1407582015	 0.2638
H	-0.9207935609	 1.7958220826	 0.1134926454	 0.265136
H	-0.0369352967	-3.8347591702	 0.0232899276	 0.11727
H	 2.1840602734	-2.5836692271	 0.0021926788	 0.126332
142.8506	238.5355	286.5328	354.5589	380.0739	428.5128	444.615	477.8737	495.1346	534.6435	598.481	685.8654	746.9196	775.4835	791.8311	816.3758	944.1143	990.1748	1080.1701	1153.948	1239.8035	1263.799	1348.1534	1374.4919	1483.4207	1521.0051	1621.2862	1634.349	1670.1511	3203.7564	3229.2852	3593.1462	3714.679
NC1=NC(F)=CC=C1F	Nc1nc(F)ccc1F	
InChI=1S/C5H4F2N2/c6-3-1-2-4(7)9-5(3)8/h1-2H,(H2,8,9)	InChI=1S/C5H4F2N2/c6-3-1-2-4(7)9-5(3)8/h1-2H,(H2,8,9)
