19
gdb 67700	2.32607	2.02176	1.73117	1.4744	78.58	-0.2128	0.0163	0.2291	923.8089	0.161286	-385.885732	-385.878605	-385.877661	-385.916774	29.358	
C	-0.0131134211	 1.4935874149	-0.0210766023	-0.506524
C	-0.0020514505	-0.0102295075	 0.0098390586	 0.288463
C	-0.251602865	-0.9188299304	-1.145181804	 0.054586
O	 0.7214222623	-1.9257812142	-1.2255145825	-0.258347
C	 1.773393051	-1.5677894559	-0.3179699515	-0.070958
C	 1.0531438919	-0.8180530789	 0.8230074956	-0.165515
C	 0.2292923899	-1.823536262	 1.6093434279	-0.09153
C	-1.0144012543	-1.8980620552	 1.1320181444	-0.054511
C	-1.2353386364	-0.9053903947	 0.0445454005	-0.183056
H	 0.9497993742	 1.8931619811	-0.3614706293	 0.117928
H	-0.7841479822	 1.865746354	-0.7034451239	 0.118515
H	-0.2177802554	 1.9128668593	 0.9707511376	 0.122129
H	-0.6001961299	-0.5622530336	-2.110323346	 0.094357
H	 2.2693622494	-2.4901294801	-0.003288684	 0.107698
H	 2.510143288	-0.9180196224	-0.8184637455	 0.085763
H	 1.7326783883	-0.2014939381	 1.4187577665	 0.07089
H	 0.6648249237	-2.4784284113	 2.3553305056	 0.093579
H	-1.7744534727	-2.6020744456	 1.449702012	 0.097677
H	-2.2237689015	-0.4988195492	-0.1474702898	 0.078855
189.8608	199.1359	261.5264	268.9954	308.036	421.1674	560.5607	586.9058	652.6506	708.5356	744.3285	780.1053	791.5947	859.8765	885.851	896.4489	934.5946	946.1431	972.6321	991.6357	1001.0238	1045.9886	1056.2959	1072.9921	1092.2837	1129.3432	1132.4116	1189.1607	1222.1893	1236.5857	1254.4888	1294.7544	1308.3942	1366.0758	1379.7449	1416.1117	1447.2805	1487.7667	1498.6688	1509.8891	1665.8785	2968.442	3020.1052	3067.3548	3079.9026	3091.5088	3096.3513	3145.1048	3157.5954	3188.4875	3213.7256
CC12C3OCC1C=CC23	C[C@@]12[C@H]3OC[C@@H]1C=C[C@@H]23	
InChI=1S/C8H10O/c1-8-5-2-3-6(8)7(8)9-4-5/h2-3,5-7H,4H2,1H3	InChI=1S/C8H10O/c1-8-5-2-3-6(8)7(8)9-4-5/h2-3,5-7H,4H2,1H3/t5-,6+,7-,8+/m0/s1
