13
gdb 25122	3.55612	1.32178	0.96361	0.6416	70.72	-0.269	-0.1001	0.1688	1105.4175	0.089932	-456.612535	-456.6053	-456.604356	-456.64515	26.351	
O	-0.1452160991	 0.5845242443	-1.3567105	-0.291879
C	-0.069290514	 1.288602373	-0.3894048768	 0.406544
O	-1.2733201843	 1.689214903	 0.1671707515	-0.215794
C	-1.5304539682	 2.4670097614	 1.2378413413	 0.077356
C	-0.739248651	 3.1050846135	 2.1108204781	-0.228318
C	 0.7184285611	 3.1722207259	 2.1962071761	 0.350235
O	 1.2642781309	 3.8157909267	 3.078995081	-0.335645
C	 1.5704745777	 2.4597791603	 1.2119464254	-0.157104
C	 1.2345125331	 1.6970709051	 0.1652890166	-0.177934
H	-2.6081580007	 2.5413044772	 1.3454400709	 0.151485
H	-1.2492611845	 3.6669366135	 2.8857500139	 0.130443
H	 2.6275512503	 2.6105710504	 1.4136809262	 0.141529
H	 2.0290204486	 1.2640354056	-0.4341269944	 0.149082
46.2864	113.6411	264.245	341.9105	375.5241	379.4573	418.1972	569.1777	609.3814	684.6833	767.8689	770.2162	795.0348	842.6786	873.7496	903.9983	994.6839	1053.0028	1069.8587	1141.2775	1241.7389	1323.2974	1352.4336	1404.4753	1446.7188	1682.0466	1694.9018	1731.5994	1824.1334	3174.7496	3184.8843	3194.8791	3204.7569
O=C1OC=CC(=O)C=C1	O=c1occc(=O)cc1	
InChI=1S/C6H4O3/c7-5-1-2-6(8)9-4-3-5/h1-4H	InChI=1S/C6H4O3/c7-5-1-2-6(8)9-4-3-5/h1-4H
