17
gdb 43843	3.26056	1.3069	1.01937	4.3437	76.91	-0.2242	-0.0578	0.1664	1158.5137	0.136541	-418.027476	-418.019433	-418.018488	-418.060671	30.902	
N	-0.1139358443	 1.3003581469	 0.0671098923	-0.544099
C	-0.0352623642	 0.0310787211	-0.0086110215	 0.274723
N	-1.0752387743	-0.8411083594	-0.177102283	-0.369627
C	-0.733540028	-2.2384342594	-0.0597561982	 0.382553
C	-1.5441348289	-3.1545650383	 0.8215415143	-0.316516
C	-1.6033231137	-3.284311327	-0.690783711	-0.322681
C	 0.791055226	-2.2840012207	-0.101592689	-0.414101
C	 1.2185210773	-0.8275756783	 0.0587347096	 0.34108
O	 2.3309346167	-0.3971283211	 0.2084393582	-0.303368
H	 0.8335534717	 1.670011492	 0.1681348485	 0.232124
H	-2.0289432395	-0.5172553984	-0.1474746648	 0.255722
H	-1.0243005315	-3.921289102	 1.3865805013	 0.122983
H	-2.4089905736	-2.7363779444	 1.326264441	 0.120249
H	-2.5084437746	-2.9550399088	-1.1912293693	 0.120081
H	-1.1244001969	-4.1393188096	-1.1565975464	 0.124073
H	 1.2342394626	-2.9071179281	 0.6785166183	 0.146304
H	 1.1634882354	-2.6469687645	-1.0665883403	 0.1505
40.4636	101.3096	259.612	304.8207	313.6924	351.8746	446.6603	469.5263	481.0287	552.0363	627.6375	659.0594	754.8298	767.8521	824.3698	846.559	864.2344	926.2776	953.0784	983.7424	1000.3256	1057.2909	1077.1108	1095.6342	1154.212	1178.1302	1187.5296	1237.0012	1295.1698	1306.2551	1409.4138	1437.8111	1455.5526	1461.4883	1508.506	1742.1604	1854.9829	3050.894	3110.6785	3125.4958	3128.9941	3206.3192	3221.2668	3463.5948	3640.0346
N=C1NC2(CC2)CC1=O	[NH][C]1NC2(CC2)CC1=O	
InChI=1S/C6H8N2O/c7-5-4(9)3-6(8-5)1-2-6/h1-3H2,(H2,7,8)	InChI=1S/C6H8N2O/c7-5-4(9)3-6(8-5)1-2-6/h1-3H2,(H2,7,8)
