20
gdb 22961	2.45817	1.03333	0.76988	0.6173	80.7	-0.2435	-0.0002	0.2433	1514.4436	0.168506	-440.225466	-440.215518	-440.214574	-440.261349	35.563	
C	 0.0098437915	 1.5017254169	 0.1460435737	-0.385652
C	-0.2086966149	 0.0067825371	 0.3004084227	-0.046852
O	 0.8957117266	-0.5316416346	 1.0178730671	-0.250345
C	 0.8384518822	-1.9160139121	 1.1932778136	 0.063555
C	 2.0446728949	-2.4996501769	 1.9825874573	-0.259381
C	 1.0654819839	-3.2875884073	 2.909039838	-0.324323
C	-0.0653981418	-2.4961666374	 2.2836652315	 0.388758
N	-1.2773912709	-2.2523025717	 2.554503268	-0.233995
O	-1.6927512167	-2.9508510791	 3.7039457132	-0.391548
H	 0.9403747854	 1.7023337998	-0.3928032751	 0.123502
H	-0.8184461468	 1.9509694205	-0.410089895	 0.114305
H	 0.0707471312	 1.9833621942	 1.1260958309	 0.127279
H	-1.1424157243	-0.2021908352	 0.839570248	 0.118177
H	-0.2810939149	-0.480209161	-0.686873797	 0.082967
H	 0.675981269	-2.4262241318	 0.2284709943	 0.076621
H	 2.7636375502	-3.0835509376	 1.4067854277	 0.106233
H	 2.5651218562	-1.6988276458	 2.510772564	 0.125868
H	 1.0071169503	-4.3596984684	 2.6971033312	 0.126424
H	 1.1875615233	-3.1602825441	 3.9871916723	 0.132361
H	-2.6065157142	-2.6608702255	 3.7987326938	 0.306046
54.7336	60.7224	97.0934	167.7016	169.898	222.3787	250.5175	323.0371	369.2712	389.0813	470.1414	501.1559	617.6315	689.564	760.7525	808.8305	822.2366	902.0321	930.394	945.5612	980.9242	1043.8379	1066.928	1093.2988	1139.8383	1158.6797	1180.7675	1188.6995	1208.8419	1231.2727	1266.6718	1275.3026	1299.0603	1355.174	1399.0619	1401.9305	1438.2682	1460.5999	1483.471	1484.5435	1500.4447	1529.3724	1778.7631	2953.5858	2964.2973	3034.5283	3043.9142	3059.8742	3084.1241	3107.8227	3118.3871	3120.783	3144.206	3815.726
CCOC1CCC1=NO	CCO[C@H]1CCC1=NO	
InChI=1S/C6H11NO2/c1-2-9-6-4-3-5(6)7-8/h6,8H,2-4H2,1H3	InChI=1S/C6H11NO2/c1-2-9-6-4-3-5(6)7-8/h6,8H,2-4H2,1H3/t6-/m0/s1
