17
gdb 11818	3.91823	1.66899	1.31205	3.5172	71.84	-0.2392	0.0361	0.2752	965.3259	0.142211	-363.871886	-363.863847	-363.862903	-363.904496	28.829	
C	-0.0260711285	 1.4140189495	-0.08120377	-0.341133
N	-0.0192224982	-0.0230985923	-0.0650635618	-0.093582
C	-1.0981436947	-1.0192827999	-0.0504222246	-0.253477
C	 0.0141126754	-2.0833910313	-0.0458301863	 0.190661
C	 0.13523633	-3.3684764841	 0.7195119793	-0.315961
C	 0.1272708741	-3.3831230357	-0.7872560217	-0.315954
C	 1.0110593797	-0.9385835269	-0.06220642	 0.377561
O	 2.2098926018	-0.8154103218	-0.0702448225	-0.390218
H	 1.0145297386	 1.7477491518	-0.0923537042	 0.16125
H	-0.531851545	 1.80776848	-0.9719314907	 0.126074
H	-0.5191975509	 1.8280637819	 0.8074258401	 0.126103
H	-1.7254016524	-0.9826281491	 0.8484709128	 0.109524
H	-1.7338769603	-0.9996064939	-0.9439002621	 0.109496
H	 1.0752995361	-3.5490373599	 1.2299239471	 0.136041
H	-0.7444695324	-3.7327085599	 1.2396052364	 0.118788
H	-0.7579644111	-3.7572629095	-1.290676707	 0.11878
H	 1.0617801876	-3.5737121388	-1.304174765	 0.136048
81.023	134.3458	162.3785	202.1438	221.5982	243.2231	359.6587	506.1931	537.3992	730.6099	760.4043	797.0341	812.1514	870.2064	950.1519	952.5626	995.5509	1045.8449	1063.7734	1076.494	1092.904	1125.8703	1169.0749	1193.8572	1209.1609	1237.4327	1285.3236	1405.0528	1417.128	1448.4723	1458.2223	1481.6353	1503.8307	1511.3953	1531.8517	1874.0001	3009.1214	3018.1297	3057.9178	3061.0073	3126.0035	3130.7251	3133.0162	3212.5879	3226.7439
CN1CC2(CC2)C1=O	CN1CC2(CC2)C1=O	
InChI=1S/C6H9NO/c1-7-4-6(2-3-6)5(7)8/h2-4H2,1H3	InChI=1S/C6H9NO/c1-7-4-6(2-3-6)5(7)8/h2-4H2,1H3
