23
gdb 119113	2.27781	1.11282	0.86935	2.7308	86.51	-0.2394	-0.008	0.2314	1459.8187	0.203511	-388.311317	-388.300821	-388.299877	-388.347256	38.61	
C	-0.5195972133	 1.4739097409	 2.1294132546	-0.379651
C	-0.3761951051	-0.0495913996	 2.1730143634	-0.164511
C	 0.7760860154	-0.5650548276	 1.2959292903	-0.293164
C	 0.953876366	-2.0760945382	 1.3253156939	 0.255351
C	 2.3808948634	-2.6381832325	 1.3082084048	-0.297069
C	 1.574945796	-2.6970445984	 2.5628928043	-0.283288
C	-0.013282882	-2.9630813308	 0.5823248075	 0.328291
C	-0.8542094216	-2.3470066044	-0.5238350384	-0.499625
O	-0.0799547838	-4.1527402391	 0.8163376986	-0.320071
H	-0.7244027255	 1.8254032825	 1.1118910304	 0.113896
H	-1.3379173357	 1.8160934628	 2.7702554909	 0.114429
H	 0.3979211716	 1.9676424519	 2.4688945313	 0.114931
H	-0.2087153297	-0.3772149643	 3.206244604	 0.103097
H	-1.3205470748	-0.5145887067	 1.8634323486	 0.099006
H	 0.6381137637	-0.2169011374	 0.2643711184	 0.095597
H	 1.7079792042	-0.0995217985	 1.6410495949	 0.094048
H	 2.5325918007	-3.5639492958	 0.7655452438	 0.132121
H	 3.1883821801	-1.9177362296	 1.2325373811	 0.114052
H	 1.8293687446	-2.0204343845	 3.3714494503	 0.11057
H	 1.1838443698	-3.6622321009	 2.860296181	 0.139413
H	-0.2099735869	-1.889166731	-1.2830844	 0.140665
H	-1.4595142956	-3.1289119885	-0.9832501766	 0.140247
H	-1.5063317815	-1.5563472404	-0.1405190572	 0.141666
50.002	73.5144	115.9473	155.9139	169.9463	236.0653	251.1989	272.8731	324.099	343.9858	407.4701	424.2324	576.3398	613.7906	682.89	739.2688	798.4331	840.606	865.3253	887.6839	902.3482	960.4862	968.8747	994.836	1049.2128	1052.2678	1063.2008	1095.6592	1107.8903	1126.5542	1166.4299	1204.9124	1253.1974	1296.6082	1320.1257	1326.0919	1360.0181	1384.0549	1393.9471	1412.4996	1451.978	1460.5188	1477.11	1481.6626	1489.3932	1492.8742	1499.0832	1509.9357	1780.1959	3017.0361	3026.7127	3030.3058	3040.5606	3043.8725	3064.2623	3095.531	3103.3612	3104.5869	3134.8828	3140.1067	3153.984	3224.3237	3239.7233
CCCC1(CC1)C(C)=O	CCCC1(CC1)C(=O)C	
InChI=1S/C8H14O/c1-3-4-8(5-6-8)7(2)9/h3-6H2,1-2H3	InChI=1S/C8H14O/c1-3-4-8(5-6-8)7(2)9/h3-6H2,1-2H3
