14
gdb 5101	3.43359	2.20063	1.35253	3.9523	60.7	-0.1817	0.0433	0.225	850.2761	0.106895	-415.872769	-415.864851	-415.863907	-415.905535	28.142	
C	 0.0511503941	 1.4205390944	 0.0432326287	-0.331178
N	 0.0196876238	-0.0253571856	 0.0371358533	-0.13806
C	 0.05018781	-0.790015428	-1.1160366665	 0.474769
N	 0.0784052738	-0.3273904517	-2.2980113718	-0.616389
O	 0.0419094745	-2.1037097415	-0.7228711254	-0.22417
C	 0.025032802	-2.1417639359	 0.6775057108	-0.215654
C	 0.0154831161	-0.8797356417	 1.1291531682	 0.353737
O	-0.0034565924	-0.3220395112	 2.3558732143	-0.426631
H	 1.0689004678	 1.8011688794	-0.0997539462	 0.138605
H	-0.5700554663	 1.7839828072	-0.7777164127	 0.163225
H	-0.3373564401	 1.7817321714	 0.9960959424	 0.145512
H	 0.0820967519	-1.0823344066	-2.9783788126	 0.223084
H	 0.0178234525	-3.10623465	 1.1488857709	 0.137589
H	-0.0374432678	-1.0196595302	 3.0184258166	 0.31556
45.6008	116.2346	168.8358	262.3967	274.4705	343.6831	353.5179	537.6097	566.7339	608.0221	622.0938	715.9032	731.9452	744.4765	785.4962	978.839	1027.3482	1086.333	1153.9616	1162.0133	1210.5972	1265.8306	1291.8436	1380.5463	1440.2793	1486.2173	1508.2837	1547.6191	1723.762	1780.2238	3037.3604	3111.7599	3157.1414	3312.2918	3543.2764	3838.885
CN1C(=N)OC=C1O	CN1[C@H]([NH])OC=C1O	
InChI=1S/C4H6N2O2/c1-6-3(7)2-8-4(6)5/h2,5,7H,1H3	InChI=1S/C4H7N2O2/c1-6-3(7)2-8-4(6)5/h2,4-5,7H,1H3/t4-/m0/s1
