18
gdb 56243	4.50515	0.68755	0.62302	2.8876	69.6	-0.2423	0.0333	0.2756	1730.7117	0.147468	-472.480847	-472.470463	-472.469519	-472.517722	36.47	
N	 0.058941188	 0.7899104679	 0.9355196193	-0.520838
C	-0.1156940381	-0.0382952368	-0.1352831891	 0.410571
O	 0.5257120182	 0.0816953826	-1.1631762574	-0.367828
C	-1.2072793314	-1.0903992918	 0.0345803319	-0.295468
C	-0.8632274516	-2.3641929391	-0.7435433687	-0.149225
N	-1.9806127326	-3.29988106	-0.8025127765	-0.341947
C	-2.2964526884	-4.0521663835	 0.3062632127	 0.442941
N	-3.2137090207	-5.0692457913	 0.0631679691	-0.56309
O	-1.8021796025	-3.8610839437	 1.4039059996	-0.392597
H	 0.8002435955	 1.4703599842	 0.8902622337	 0.258728
H	-0.3651275812	 0.5990144757	 1.8261731448	 0.26032
H	-1.3800778738	-1.335299152	 1.0852168806	 0.130171
H	-2.139820113	-0.6673923899	-0.3597856331	 0.125865
H	-0.5917412936	-2.0870726459	-1.7633002374	 0.127543
H	 0.0076051691	-2.8449237038	-0.2831664253	 0.12569
H	-2.1791797557	-3.7053119372	-1.7029719071	 0.242614
H	-3.9006012899	-4.9150710641	-0.6599039713	 0.246712
H	-3.5979942083	-5.4490776512	 0.9150871942	 0.259838
37.3818	55.1452	84.293	88.0426	198.6785	233.3648	248.6109	320.6934	365.5474	432.9212	438.6175	506.4706	534.5605	562.4297	598.642	679.655	686.0761	782.9984	792.4634	885.1029	911.3702	1048.8999	1058.9147	1089.2453	1117.9553	1156.6137	1231.1725	1262.8104	1321.4149	1339.7887	1380.3638	1411.3882	1473.1381	1485.3266	1532.8219	1617.0685	1627.1543	1791.0539	1795.8224	3035.5553	3047.7232	3104.8343	3130.1508	3573.3224	3599.6829	3631.7003	3687.0676	3736.9951
NC(=O)CCNC(N)=O	NC(=O)CCNC(=O)N	
InChI=1S/C4H9N3O2/c5-3(8)1-2-7-4(6)9/h1-2H2,(H2,5,8)(H3,6,7,9)	InChI=1S/C4H9N3O2/c5-3(8)1-2-7-4(6)9/h1-2H2,(H2,5,8)(H3,6,7,9)
