22
gdb 114053	2.596	1.18639	0.99744	2.9931	83.22	-0.2147	0.0728	0.2875	1307.4291	0.192906	-404.310755	-404.300895	-404.299951	-404.34501	37.311	
C	-0.0982369747	 1.5311018033	 0.0341386267	-0.508393
C	 0.1490553559	 0.0544637636	 0.0128876101	 0.295941
C	 0.7213632307	-0.7720910817	-1.1457112052	-0.272513
C	 1.3432184429	-1.7577764752	-0.0959863497	-0.001872
C	 2.8591136284	-1.7971767131	-0.1231441595	-0.103992
O	 3.2565735386	-2.3829077155	-1.3544054478	-0.420183
C	 0.7382021033	-0.88247558	 1.0206406877	 0.272666
C	 1.2735022096	-0.670270113	 2.4044393901	-0.515697
N	-0.7279149656	-0.8936173353	 0.7566813707	-0.416272
H	 0.7583049747	 2.0801407381	-0.3720858472	 0.121294
H	-0.9762147538	 1.7925863218	-0.5689826071	 0.128605
H	-0.2766612282	 1.8924136622	 1.053354821	 0.11301
H	-0.0183603668	-1.1914338838	-1.8314624079	 0.101347
H	 1.4935825484	-0.2501229177	-1.7166887304	 0.100721
H	 0.9441356222	-2.7757103983	-0.1282684387	 0.079585
H	 3.2592393702	-0.773218781	-0.0231405923	 0.076826
H	 3.2356795438	-2.3796124441	 0.7336927975	 0.084523
H	 4.2175308365	-2.3981429132	-1.3841554694	 0.285334
H	 2.3516456155	-0.476949087	 2.3941526428	 0.122944
H	 0.7877474203	 0.1855107998	 2.8866234217	 0.115412
H	 1.0993941712	-1.549404263	 3.0369087558	 0.128472
H	-1.159670783	-0.357955267	 1.5121365613	 0.212241
88.9451	135.834	176.6795	185.8169	201.9097	220.584	264.5451	300.9204	331.3032	403.5449	436.4128	479.2826	516.1674	584.4314	696.527	731.3304	828.5462	853.8444	910.8312	932.3802	966.1237	1001.043	1041.0377	1057.3849	1068.5746	1101.9634	1117.6468	1131.4769	1163.0784	1181.6542	1215.2836	1236.6137	1265.3885	1266.3761	1321.1848	1349.5438	1355.8414	1412.0217	1414.5178	1449.5572	1462.6188	1480.4059	1482.9356	1492.9491	1495.2627	1506.8397	1524.6057	2948.3928	2978.4959	3018.5909	3021.0969	3062.8262	3070.4147	3079.3031	3080.5691	3090.511	3092.9121	3119.4249	3441.6499	3829.7861
CC12CC(CO)C1(C)N2	C[C@@]12C[C@@H](CO)[C@]1(C)N2	
InChI=1S/C7H13NO/c1-6-3-5(4-9)7(6,2)8-6/h5,8-9H,3-4H2,1-2H3	InChI=1S/C7H13NO/c1-6-3-5(4-9)7(6,2)8-6/h5,8-9H,3-4H2,1-2H3/t5-,6+,7-/m0/s1
