20
gdb 80454	2.4311	1.55745	1.32069	3.6444	78.21	-0.2404	-0.0014	0.239	1084.8305	0.171048	-403.169202	-403.16046	-403.159516	-403.20262	33.084	
C	-0.5235541743	 1.2687912966	 0.1196818407	-0.417351
C	-0.1565764655	-0.166173693	-0.1700017994	 0.000606
C	 0.6115837748	-0.6186527298	-1.3685802709	-0.049667
C	 1.3721885015	 0.376969032	-2.2526035298	-0.276741
C	 2.6718817435	 0.6496097023	-1.4576117337	-0.067692
C	 3.3105050208	 2.0244891575	-1.6127699249	-0.401963
C	 2.2537337166	 0.3378526266	-0.0100636273	 0.369656
O	 2.7009206116	 0.8327930792	 0.9905712346	-0.332652
N	 1.2357383914	-0.6562396704	-0.0327991833	-0.135108
H	 0.1274476975	 1.9872934162	-0.384046609	 0.128546
H	-1.5523872125	 1.4579532983	-0.203337327	 0.124227
H	-0.4620472555	 1.4676504252	 1.1940605713	 0.149025
H	-0.8696897384	-0.8821861879	 0.2360584472	 0.102947
H	 0.371697161	-1.589004845	-1.7953137184	 0.097286
H	 1.5691042935	-0.049965516	-3.2379392476	 0.113019
H	 0.8097167252	 1.3036680119	-2.411601	 0.112081
H	 3.4056387441	-0.1236918306	-1.7266375073	 0.110058
H	 2.5872981542	 2.8199893395	-1.4030601046	 0.119613
H	 4.1373063876	 2.1371619557	-0.9068884033	 0.141042
H	 3.6917355028	 2.1729105119	-2.6273215473	 0.113068
66.0107	125.6664	182.7915	191.5715	248.6314	251.9151	353.8483	384.8437	501.4336	526.6816	539.9431	678.3133	699.1393	766.9607	784.3333	803.5785	897.1414	935.0771	944.7441	985.3447	1017.6393	1041.161	1093.339	1127.1997	1138.4902	1149.7927	1153.4957	1171.0025	1196.1697	1284.6477	1302.4206	1307.0235	1351.6049	1369.2037	1408.5081	1412.9568	1425.2193	1481.2467	1490.5479	1492.6508	1494.3055	1506.6563	1839.8497	3009.0925	3038.363	3042.3349	3048.2095	3103.0019	3105.9473	3108.0956	3109.7292	3124.5007	3127.3095	3141.5031
CC1C2CC(C)C(=O)N12	C[C@H]1[C@H]2C[C@@H](C)C(=O)N12	
InChI=1S/C7H11NO/c1-4-3-6-5(2)8(6)7(4)9/h4-6H,3H2,1-2H3	InChI=1S/C7H11NO/c1-4-3-6-5(2)8(6)7(4)9/h4-6H,3H2,1-2H3/t4-,5+,6-,8?/m1/s1
