21
gdb 114633	2.2889	1.40527	1.02713	0.9204	79.65	-0.2392	0.0857	0.3249	1256.2369	0.180766	-424.173473	-424.163907	-424.162963	-424.208056	35.039	
C	-0.0080833453	 1.4088554528	-0.3548314716	-0.236484
O	-0.0883090425	 0.1631175563	 0.3011759037	-0.248019
C	-1.2996691982	-0.5110561992	 0.0695140408	 0.057874
C	-1.5289559101	-1.2422690326	-1.3053618978	-0.26989
C	-1.7321685384	-2.5502300668	-0.5321587383	-0.144761
C	-0.4688066889	-2.8658428492	 0.2361704716	-0.336985
C	-1.4324492239	-1.8479680752	 0.7852581982	 0.424313
O	-2.0664723023	-2.0092049359	 1.9969611047	-0.285883
C	-1.2215232353	-1.7410294436	 3.1077092836	-0.257789
H	 0.9557157564	 1.8535967245	-0.0953040908	 0.126329
H	-0.0653419136	 1.3031300893	-1.4486015081	 0.108003
H	-0.8119687296	 2.0899501569	-0.0334717981	 0.104075
H	-2.1547989788	 0.1393042913	 0.30732059	 0.07291
H	-2.4135141606	-0.8862225365	-1.8372950306	 0.103564
H	-0.6694333789	-1.2319151507	-1.983097245	 0.100005
H	-2.4830752562	-3.3017794552	-0.7378947401	 0.096837
H	-0.4901542201	-3.8083661924	 0.7738208886	 0.114658
H	 0.5037810868	-2.5773016965	-0.1531708073	 0.114116
H	-0.3667643959	-2.4308380404	 3.1334184126	 0.111231
H	-0.8374884762	-0.7131146685	 3.0824543926	 0.123688
H	-1.8254592785	-1.8801155783	 4.0072029612	 0.122208
83.6971	95.5934	135.1363	162.5335	176.6446	204.2338	289.126	333.7841	369.2566	419.8007	499.5483	521.4153	652.3538	729.2422	824.6738	862.4459	907.499	945.7922	991.9581	1018.212	1023.6825	1029.7569	1064.5155	1084.4277	1099.8996	1140.5094	1175.6846	1183.8556	1184.3198	1201.2486	1217.4638	1231.9139	1238.0191	1264.1619	1311.693	1366.2089	1400.979	1470.1672	1480.3155	1481.777	1486.9059	1488.751	1505.3292	1508.1009	1511.6052	2973.7952	2994.0224	3000.6854	3022.3798	3050.2923	3058.8967	3112.0335	3113.358	3115.5127	3121.8482	3199.3507	3210.8261
COC1CC2CC12OC	CO[C@H]1C[C@H]2C[C@@]12OC	
InChI=1S/C7H12O2/c1-8-6-3-5-4-7(5,6)9-2/h5-6H,3-4H2,1-2H3	InChI=1S/C7H12O2/c1-8-6-3-5-4-7(5,6)9-2/h5-6H,3-4H2,1-2H3/t5-,6-,7-/m0/s1
