18
gdb 59225	2.48206	1.52357	1.19631	4.9438	72.21	-0.2432	-0.0271	0.2161	1089.9314	0.146873	-439.05176	-439.043323	-439.042378	-439.084883	32.153	
C	 0.0467583884	 1.5601360185	-0.0125017132	-0.390746
C	 0.0603050927	 0.0335721648	 0.0135895075	 0.12766
O	 0.8183281749	-0.3633354029	 1.1426530525	-0.445571
C	-1.36467597	-0.5328738241	 0.0526284636	-0.163187
C	-1.5904166731	-2.0595714821	 0.0378857267	-0.071607
N	-0.9080648831	-2.5903562284	 1.227392863	-0.340981
C	-2.3028085706	-2.0427262776	 1.3620884632	-0.187337
C	-2.1493247762	-0.5317082962	 1.4068885388	 0.45605
O	-2.6114470443	 0.3283326543	 2.093959224	-0.305195
H	 1.072400326	 1.9337139903	 0.0449757553	 0.1249
H	-0.4108427958	 1.9355743809	-0.9333730848	 0.103112
H	-0.5120759763	 1.9488469648	 0.8435036083	 0.143422
H	 0.5372306718	-0.3341156731	-0.9138626927	 0.060242
H	 0.5671916562	-1.2754162104	 1.3563724923	 0.294496
H	-1.9923521775	-0.0425884459	-0.7008381315	 0.107978
H	-1.8039959539	-2.6848486857	-0.818861922	 0.115985
H	-0.9936021032	-3.6057074035	 1.2312872549	 0.248746
H	-3.0939649159	-2.6695466537	 1.7527863141	 0.122032
79.6228	128.0596	153.1294	235.45	240.5552	323.9349	389.5324	434.3774	505.8346	555.7932	603.3539	650.2115	709.5567	790.6493	830.9226	850.059	878.2504	903.3853	936.3352	982.8302	1020.186	1039.2347	1050.8817	1096.3792	1097.0706	1122.6543	1168.9092	1183.6699	1252.5604	1304.4195	1314.419	1325.8317	1347.3157	1375.3267	1403.8765	1465.8494	1490.0881	1498.7018	1898.7625	2923.4598	3041.453	3055.4565	3115.9658	3127.6596	3202.3258	3213.8691	3484.7805	3666.908
CC(O)C1C2NC2C1=O	C[C@@H](O)[C@H]1[C@H]2N[C@H]2C1=O	
InChI=1S/C6H9NO2/c1-2(8)3-4-5(7-4)6(3)9/h2-5,7-8H,1H3	InChI=1S/C6H9NO2/c1-2(8)3-4-5(7-4)6(3)9/h2-5,7-8H,1H3/t2-,3+,4-,5-/m1/s1
