21
gdb 82857	2.50784	1.99521	1.70734	1.5038	80.2	-0.2356	0.0857	0.3213	935.8511	0.186382	-387.098264	-387.091424	-387.090479	-387.128983	29.448	
C	-0.2018940971	 1.5493709594	 0.0492563606	-0.42405
C	 0.0349499974	 0.0414719699	-0.007887691	 0.037564
C	 0.868836203	-0.4920428491	-1.2139903688	-0.062006
C	 2.2060235115	 0.2774685651	-1.3702262479	-0.239564
C	 2.7152107366	-0.5523223085	-0.1757048662	 0.115747
O	 2.2052505057	-0.0311522172	 1.0637585002	-0.289509
C	 0.8601369179	-0.5320939224	 1.1690543354	 0.084767
C	 1.0120870454	-2.0094927478	 0.7784906187	-0.241854
C	 1.6859861197	-1.6723913952	-0.5452935795	-0.052412
H	 0.7251889599	 2.088508505	 0.2585255684	 0.132677
H	-0.6134171838	 1.9270982666	-0.8928998038	 0.10989
H	-0.913823428	 1.7968362257	 0.8440480512	 0.108992
H	-0.9390477896	-0.4648184508	-0.0153566414	 0.067643
H	 0.270812718	-0.6803227334	-2.1071856391	 0.059483
H	 2.720346806	-0.0094325613	-2.2932441755	 0.092923
H	 2.2175784085	 1.3651714906	-1.2745845397	 0.099044
H	 3.7815641783	-0.7553061029	-0.0556632304	 0.0677
H	 0.4897775002	-0.3016040878	 2.1691853869	 0.068038
H	 1.6584475311	-2.560675455	 1.4668235654	 0.100504
H	 0.0569416015	-2.5309467881	 0.6735182381	 0.096354
H	 2.0367061578	-2.4723069926	-1.1944678217	 0.06807
175.3963	233.1514	273.1868	403.0805	406.4642	460.7998	508.2865	608.2821	630.21	756.7162	768.5018	808.5285	842.085	863.0447	895.9777	925.2572	940.308	946.3629	964.3885	993.579	1002.0014	1009.1647	1034.3697	1061.413	1082.0745	1112.4381	1136.9933	1156.5693	1174.7073	1221.6187	1225.9146	1239.9085	1253.7832	1284.0766	1292.9885	1308.1583	1316.2865	1342.3913	1370.3854	1374.11	1410.0475	1479.8867	1482.1418	1494.4515	1516.5679	3014.9927	3035.4392	3050.4221	3061.0535	3083.9543	3089.1334	3093.2572	3109.4893	3110.7234	3113.945	3125.6174	3138.1818
CC1C2CC3OC1CC23	C[C@H]1[C@H]2C[C@H]3O[C@@H]1C[C@@H]23	
InChI=1S/C8H12O/c1-4-5-2-8-6(5)3-7(4)9-8/h4-8H,2-3H2,1H3	InChI=1S/C8H12O/c1-4-5-2-8-6(5)3-7(4)9-8/h4-8H,2-3H2,1H3/t4-,5+,6-,7+,8+/m0/s1
