19
gdb 78320	2.9342	1.41965	1.20741	0.6591	74.78	-0.2342	0.0578	0.292	1101.9601	0.158444	-422.961227	-422.953175	-422.952231	-422.993253	32.169	
C	-0.0475662798	 1.4265153975	 0.0084639191	-0.428351
C	 0.0664955962	-0.0837695129	 0.0370832004	-0.018087
C	 1.4225681731	-0.6797019898	-0.2170662022	-0.069348
C	 0.8041638906	-0.6940242985	 1.1959881277	-0.110231
C	 0.7882791213	-2.2379859335	 1.1943525342	 0.357159
O	 1.4245137627	-2.7482173128	 2.3199359061	-0.475757
C	-0.4210044145	-2.9764367079	 0.5710657532	-0.163124
O	 0.1312866476	-2.8114647505	-0.7593467404	-0.296372
C	 1.3559731362	-2.2211012479	-0.2452802045	 0.010296
H	 0.8461171069	 1.9019902292	 0.4264488549	 0.116729
H	-0.1710924966	 1.7903864566	-1.0169407846	 0.12192
H	-0.9094553221	 1.7668185703	 0.592082558	 0.120354
H	-0.7909724509	-0.6048255215	-0.3785039191	 0.1019
H	 2.2453939493	-0.0872177813	-0.6000950323	 0.082898
H	 1.080675062	-0.1212729055	 2.0731036338	 0.092869
H	 1.54700099	-3.6964896006	 2.1991283595	 0.283102
H	-0.4702795776	-4.0383044204	 0.8552117285	 0.088015
H	-1.4165881487	-2.5305151286	 0.6744774387	 0.107934
H	 2.2572428744	-2.7539756719	-0.5580264511	 0.078092
180.7185	183.1844	226.8906	232.2723	278.7229	342.5837	352.858	382.368	459.0375	526.7005	655.3572	718.234	768.7415	828.9092	852.2943	886.108	900.3043	945.085	974.7869	998.2285	1001.3823	1029.3569	1043.2453	1073.2294	1094.367	1106.2975	1143.9054	1146.6758	1173.4638	1195.3056	1230.9195	1267.5287	1272.1103	1313.54	1357.3021	1392.0944	1416.1218	1423.3191	1494.4339	1502.0602	1510.4154	2989.3439	3030.0696	3060.7215	3083.6045	3096.3571	3097.3245	3149.8961	3173.7324	3188.2321	3799.2267
CC1C2C1C1(O)COC21	C[C@H]1[C@H]2[C@@H]1[C@@]1(O)CO[C@@H]21	
InChI=1S/C7H10O2/c1-3-4-5(3)7(8)2-9-6(4)7/h3-6,8H,2H2,1H3	InChI=1S/C7H10O2/c1-3-4-5(3)7(8)2-9-6(4)7/h3-6,8H,2H2,1H3/t3-,4-,5+,6-,7-/m0/s1
