20
gdb 93142	2.29677	1.85428	1.36312	1.3022	79.87	-0.2162	0.0106	0.2268	1022.6937	0.173019	-403.116764	-403.108864	-403.10792	-403.148644	31.878	
O	 0.13318298	 1.3168706802	-0.3605649213	-0.439082
C	 0.0100028661	-0.066510586	-0.0491152957	 0.08039
C	 0.7811018752	-0.4289303225	 1.2277449886	-0.281624
C	 0.333486006	 0.2944981906	 2.4756574986	-0.061124
C	-0.8011032844	 0.9589018236	 2.7168169566	-0.057475
C	-1.9805377181	 1.200737671	 1.8023835005	-0.21198
N	-2.3819140926	 0.0445662731	 0.9950743096	-0.092682
C	-2.579323908	 0.2502825504	-0.4425881124	-0.266102
C	-1.4304906816	-0.5441035566	 0.0582867656	 0.011217
H	 0.2912393486	 1.7893625674	 0.4640680661	 0.288843
H	 0.4644305213	-0.6067248094	-0.8909144004	 0.085387
H	 0.7097512148	-1.5142847535	 1.3879206397	 0.120104
H	 1.8480284693	-0.2241461901	 1.0684096381	 0.109736
H	 1.0593623268	 0.2585563035	 3.2864093078	 0.091414
H	-0.897014841	 1.4243739155	 3.6957578274	 0.093048
H	-2.8448833933	 1.4699826869	 2.4208505094	 0.108953
H	-1.7740825717	 2.0867048132	 1.1783073413	 0.103181
H	-3.4467101123	-0.238384742	-0.878897256	 0.108791
H	-2.3418300076	 1.2316733371	-0.8467113883	 0.12519
H	-1.4959353674	-1.6329563824	 0.0172345349	 0.083816
135.4977	184.0985	220.0439	292.8831	324.6746	367.3651	393.0804	434.3069	446.7822	535.3772	671.1051	680.1357	734.8597	827.5614	844.9535	854.2589	909.1796	947.5205	958.8986	1002.7141	1009.1967	1021.1706	1060.616	1082.9115	1104.1	1127.8105	1140.0166	1170.9578	1212.2887	1256.1415	1266.0803	1285.3503	1337.1597	1370.8737	1376.3603	1394.9429	1407.3962	1421.6514	1434.1907	1465.2507	1492.252	1513.4594	1719.3226	2954.8792	3004.5408	3016.9149	3038.9516	3039.7582	3084.8736	3100.8521	3128.8825	3153.7523	3188.8371	3799.3924
OC1CC=CCN2CC12	O[C@H]1CC=CCN2C[C@@H]12	
InChI=1S/C7H11NO/c9-7-3-1-2-4-8-5-6(7)8/h1-2,6-7,9H,3-5H2	InChI=1S/C7H11NO/c9-7-3-1-2-4-8-5-6(7)8/h1-2,6-7,9H,3-5H2/t6-,7-,8?/m0/s1
