18
gdb 91142	3.00798	1.45343	1.19495	1.1241	71.88	-0.2485	0.0159	0.2644	1080.6972	0.148259	-439.096821	-439.088757	-439.087813	-439.129678	30.76	
C	-0.3053653753	 1.5093280021	-0.1874023733	-0.47326
C	-0.1023574381	 0.034184581	-0.1747908315	 0.392755
N	-0.4820607535	-0.7997319762	-1.0530036965	-0.291264
C	-0.0051434909	-2.1130886986	-0.6126472784	-0.019751
C	 1.4142079743	-2.4836686761	-1.1421275363	-0.273852
C	 1.9694058664	-2.4062038023	 0.3210202712	 0.133571
O	 3.0858400919	-1.6071458436	 0.5914612077	-0.432387
C	 0.5934567249	-1.8774465808	 0.8071805657	 0.031778
O	 0.5762382272	-0.4400187878	 0.9291319574	-0.28065
H	 0.6590718694	 2.0275155931	-0.1762289006	 0.143991
H	-0.8609242564	 1.7945495976	-1.0798463278	 0.156453
H	-0.8525452525	 1.8238633648	 0.7066376558	 0.148638
H	-0.7750189678	-2.8763220273	-0.73073382	 0.082816
H	 1.5121793782	-3.4567140983	-1.6282067274	 0.106307
H	 1.8230509281	-1.7136272149	-1.800184375	 0.110483
H	 2.1769458438	-3.4020822176	 0.7250297975	 0.091372
H	 2.7679968759	-0.6967360052	 0.6407531279	 0.286736
H	 0.1532586545	-2.30789881	 1.7087336336	 0.086265
66.5249	131.8766	167.2001	237.2999	320.2141	383.7619	391.4187	414.7409	558.9998	616.2448	636.1968	693.5377	749.4049	817.9798	862.6731	905.3972	915.1677	936.1243	993.3597	1048.738	1053.4993	1066.4435	1074.984	1120.4027	1159.8567	1175.0844	1224.1571	1256.1264	1268.7292	1277.7234	1305.2888	1336.686	1351.8303	1411.9902	1438.0182	1470.7832	1475.1429	1475.6363	1737.5577	3050.1865	3059.3146	3069.159	3089.3707	3104.5334	3106.9964	3130.6081	3167.8468	3773.2437
CC1=NC2CC(O)C2O1	CC1=N[C@H]2C[C@@H](O)[C@H]2O1	
InChI=1S/C6H9NO2/c1-3-7-4-2-5(8)6(4)9-3/h4-6,8H,2H2,1H3	InChI=1S/C6H9NO2/c1-3-7-4-2-5(8)6(4)9-3/h4-6,8H,2H2,1H3/t4-,5+,6-/m0/s1
