17
gdb 82667	3.07717	1.66257	1.34763	2.152	71.73	-0.2351	-0.006	0.2292	956.8824	0.137866	-421.803061	-421.796217	-421.795273	-421.834079	27.976	
O	-0.0669410381	 1.3766892205	-0.0097682623	-0.442676
C	 0.0271442636	-0.0281258744	-0.1014403829	 0.142438
C	-1.362051407	-0.6435803606	-0.3586587895	-0.064523
C	-1.7751794853	 0.0399799255	-1.6880219711	-0.234779
C	-0.6287549569	-0.7997647688	-2.2732722431	-0.035858
C	-0.9294977244	-1.9275050539	-1.1925479198	-0.172281
C	 0.575250765	-2.0865851704	-1.0828695647	 0.431489
O	 1.3394660538	-3.0042413307	-0.9980587136	-0.333561
C	 0.6820830871	-0.5876545156	-1.4010055934	-0.218515
H	 0.8111056615	 1.7262933509	 0.169892042	 0.287634
H	 0.5066642774	-0.4413338953	 0.7969536707	 0.080149
H	-2.0413627444	-0.7184703418	 0.4891750713	 0.078215
H	-2.7431637509	-0.3208756821	-2.0450227369	 0.102274
H	-1.7290724544	 1.1279484233	-1.7391433638	 0.121372
H	-0.4933379129	-1.0211954627	-3.3296295506	 0.087522
H	-1.6406982655	-2.7393781852	-1.325403994	 0.091709
H	 1.5919019715	-0.1215293888	-1.7730907884	 0.079392
142.8492	230.6807	274.6166	314.3788	366.2546	513.7851	527.6995	560.3571	689.4188	737.055	779.0404	785.0681	834.9222	845.6736	897.7687	935.2077	959.4577	984.2929	1011.806	1032.5222	1050.5009	1076.2801	1093.9563	1102.6582	1144.4813	1164.9366	1166.9234	1205.4194	1222.5878	1240.1736	1259.1817	1271.6521	1314.603	1346.3125	1435.0582	1499.6597	1887.2719	3002.3334	3071.7249	3128.3827	3138.3197	3139.6688	3148.2782	3155.096	3827.8216
OC1C2CC3C2C(=O)C13	O[C@H]1[C@H]2C[C@@H]3[C@H]2C(=O)[C@H]13	
InChI=1S/C7H8O2/c8-6-3-1-2-4(3)7(9)5(2)6/h2-6,8H,1H2	InChI=1S/C7H8O2/c8-6-3-1-2-4(3)7(9)5(2)6/h2-6,8H,1H2/t2-,3+,4-,5+,6+/m1/s1
