13
gdb 130026	6.0449	1.06906	0.90857	2.6565	81.68	-0.2314	-0.0667	0.1647	1188.2676	0.089604	-411.776757	-411.76904	-411.768096	-411.808924	28.888	
N	-0.0221284469	 1.3363892029	-0.073377829	-0.552065
C	-0.0152453283	-0.0154010724	-0.028852627	 0.488696
N	-1.2042421542	-0.6483535875	-0.0127529108	-0.292524
C	-1.1239964476	-1.9638516264	-0.0085719652	-0.056129
C	 0.1135271739	-2.6312732285	-0.0175193587	 0.142567
N	 1.2574901778	-1.9200297552	-0.0180484026	-0.237397
N	 1.2008814563	-0.6086758722	-0.0216582974	-0.250453
C	 0.1939804054	-4.0506354892	-0.0177138002	 0.254204
C	 0.2193460523	-5.2538693354	-0.0187197214	-0.380904
H	 0.8491244109	 1.8201834331	 0.0602227323	 0.275861
H	-0.8897317902	 1.8187231408	 0.0827347599	 0.272928
H	-2.0543946198	-2.5262892533	 0.0062703888	 0.134648
H	 0.2585549304	-6.3151895268	-0.0194418787	 0.200565
83.6002	146.1739	226.7696	252.3198	385.4554	400.6538	470.1695	484.4235	529.9839	544.3143	583.7417	609.5447	666.5628	674.7124	763.0222	842.6029	888.1366	990.9307	1037.5561	1054.996	1159.6061	1260.8051	1360.5051	1382.2678	1478.8078	1538.869	1604.4149	1639.8779	2232.1201	3162.6369	3502.2749	3619.7198	3754.1268
NC1=NC=C(N=N1)C#C	Nc1ncc(nn1)C#C	
InChI=1S/C5H4N4/c1-2-4-3-7-5(6)9-8-4/h1,3H,(H2,6,7,9)	InChI=1S/C5H4N4/c1-2-4-3-7-5(6)9-8-4/h1,3H,(H2,6,7,9)
