17
gdb 41092	3.55607	1.85306	1.60846	1.8248	71.15	-0.2443	0.062	0.3063	859.5919	0.138429	-421.717147	-421.711273	-421.710329	-421.747045	25.382	
C	 0.000995364	 1.6313341496	 0.0938119897	-0.245721
C	 1.5276560089	 1.4421540647	 0.0997280007	-0.045185
O	 1.7124478489	 0.6697771991	 1.3223268648	-0.284079
C	 0.9381950358	-0.5205897025	 0.9786062219	 0.011537
C	-0.0003906945	 0.103867137	-0.0989983138	-0.075856
C	 1.3915427909	 0.2141960026	-0.863413976	 0.276287
C	 1.4864895539	-0.6054440105	-2.1410249691	-0.210013
O	 1.4453396362	-1.8025695996	-1.3027715632	-0.300913
C	 1.8782440821	-1.0365678104	-0.1320489632	 0.100476
H	-0.4445882221	 2.0713628297	 0.9883462122	 0.105563
H	-0.3563194032	 2.1318852552	-0.810610758	 0.103634
H	 2.2652559042	 2.2391483431	 0.0441694336	 0.086977
H	 0.6349200702	-1.0373036363	 1.8885287446	 0.078761
H	-0.8351060094	-0.4710579747	-0.4889471222	 0.090807
H	 0.6502321905	-0.5618174688	-2.8455233849	 0.11392
H	 2.4415454706	-0.5367612661	-2.678617344	 0.108146
H	 2.916963653	-1.248243742	 0.1330972269	 0.08566
268.2539	287.1301	348.1605	463.8565	517.6233	552.7546	648.1513	723.0719	817.0069	831.3755	859.9724	869.0068	895.8173	904.5119	926.735	929.1286	952.7221	997.8893	998.6044	1033.1066	1046.8235	1088.7423	1107.2761	1134.5453	1162.9543	1175.7491	1203.3211	1222.5239	1232.8392	1251.7305	1263.6694	1285.8017	1300.5275	1321.3025	1338.284	1480.5264	1513.0948	3012.1191	3061.5838	3082.5084	3083.8552	3123.3414	3125.5918	3153.739	3165.9572
C1C2OC3C1C21COC31	C1[C@H]2O[C@H]3[C@@H]1[C@]12CO[C@H]31	
InChI=1S/C7H8O2/c1-3-5-6-7(3,2-8-6)4(1)9-5/h3-6H,1-2H2	InChI=1S/C7H8O2/c1-3-5-6-7(3,2-8-6)4(1)9-5/h3-6H,1-2H2/t3-,4-,5+,6-,7+/m1/s1
