17
gdb 90700	3.41518	1.32227	1.05261	2.876	74.71	-0.2375	-0.0488	0.1887	1111.987	0.136932	-421.844404	-421.836796	-421.835851	-421.876925	29.401	
O	 0.5763533807	 0.9810193245	-0.481197895	-0.422577
C	 0.1257048499	-0.1865589295	 0.148248235	 0.148491
C	 0.046808534	-0.2066318155	 1.700695716	-0.277374
C	-1.4306996609	-0.6944981273	 1.6239133583	-0.14613
C	-1.4253300954	-0.5171727937	 0.0859351606	-0.120867
C	-1.7726900708	-1.8692751335	-0.4579690487	-0.060901
C	-1.8828770287	-2.7975571134	 0.504409631	-0.184692
C	-1.6484693362	-2.1973096051	 1.8426761956	 0.374418
O	-1.6095089864	-2.7723137937	 2.9061840808	-0.335864
H	 0.127979865	 1.7355604018	-0.0839743742	 0.281264
H	 0.729376308	-0.9968924318	-0.266768132	 0.09993
H	 0.7477011296	-0.8554429052	 2.2305151142	 0.123796
H	 0.1305201699	 0.8022653966	 2.1161510595	 0.103159
H	-2.1487768698	-0.1221088077	 2.2132572485	 0.10072
H	-2.006584393	 0.3034430035	-0.3428444718	 0.079794
H	-1.8601771575	-2.06079743	-1.5229091987	 0.119875
H	-2.0809521687	-3.8537191599	 0.3723273009	 0.116959
53.3811	158.9165	214.2439	299.7259	344.2171	364.6392	453.3929	486.4497	587.6661	681.9387	716.2988	764.9189	790.5095	831.9223	860.3969	898.8234	953.9425	981.8207	997.7866	1006.3285	1025.8938	1094.039	1110.8059	1126.6489	1167.5953	1178.0091	1200.7081	1245.6492	1248.5231	1262.4491	1312.5134	1329.0724	1363.0132	1432.1153	1478.4539	1630.3511	1809.0883	3055.7381	3074.7077	3086.1128	3100.2788	3117.0967	3183.1547	3224.566	3802.3475
OC1CC2C1C=CC2=O	O[C@H]1C[C@H]2[C@@H]1C=CC2=O	
InChI=1S/C7H8O2/c8-6-2-1-4-5(6)3-7(4)9/h1-2,4-5,7,9H,3H2	InChI=1S/C7H8O2/c8-6-2-1-4-5(6)3-7(4)9/h1-2,4-5,7,9H,3H2/t4-,5-,7-/m0/s1
