21
gdb 87956	3.72836	1.05091	0.96305	1.5938	88.77	-0.2027	0.0231	0.2258	1346.8764	0.181183	-387.092126	-387.082835	-387.081891	-387.126093	34.998	
C	-0.0517863031	 1.5132626106	 0.1859908753	-0.401737
C	 0.0127493718	 0.009166916	 0.0489202875	-0.067224
C	 1.3039222796	-0.6717688817	-0.3705477054	-0.358303
C	 0.8038291155	-0.8131853098	 1.0449703238	 0.443032
O	 1.5188940957	-0.1272440987	 2.0574786177	-0.312458
C	 1.4369202316	-0.8674454824	 3.2724247082	-0.165185
C	 0.6692744063	-2.1240909235	 2.9378964288	 0.285568
C	 0.3943891582	-3.1838619772	 3.9529391044	-0.492609
C	 0.3198820008	-2.0690620746	 1.6530193784	-0.282015
H	 0.8621694187	 1.8998251473	 0.643296286	 0.132703
H	-0.1810252762	 1.994172703	-0.7899635825	 0.111122
H	-0.8910233036	 1.814695889	 0.8223903274	 0.113775
H	-0.9018350002	-0.4576119016	-0.3105140293	 0.0795
H	 1.2657890783	-1.53073513	-1.0327666592	 0.106629
H	 2.1749218176	-0.0367017552	-0.4982704018	 0.119066
H	 2.4523241679	-1.0816012055	 3.6428608612	 0.102201
H	 0.9312099169	-0.2687313146	 4.0486162338	 0.099856
H	 1.3261292189	-3.5917345602	 4.3656017147	 0.1288
H	-0.1736168801	-2.7838386135	 4.8027969296	 0.128554
H	-0.1765322854	-4.0113002969	 3.5240258872	 0.128108
H	-0.2453957593	-2.8109500104	 1.1028708842	 0.100617
71.5437	130.3457	170.1136	176.543	184.4268	252.042	276.4907	379.3671	406.4749	443.3519	514.1503	570.5242	622.6647	786.3823	830.8915	842.3483	891.2942	898.8693	907.4449	926.5532	994.7017	1002.5857	1012.5409	1044.8698	1075.9006	1093.3353	1098.2919	1133.0688	1170.6272	1186.6157	1197.6277	1234.7705	1299.2868	1333.7383	1383.8332	1405.8878	1416.0261	1426.5844	1478.6822	1479.9754	1490.4527	1493.2583	1502.7616	1521.9022	1725.7912	2959.4275	2979.6936	3016.5145	3031.2072	3060.52	3088.0396	3114.095	3115.7055	3122.6291	3132.7014	3210.9642	3213.727
CC1CC11OCC(C)=C1	C[C@H]1C[C@]21OCC(=C2)C	
InChI=1S/C8H12O/c1-6-3-8(9-5-6)4-7(8)2/h3,7H,4-5H2,1-2H3	InChI=1S/C8H12O/c1-6-3-8(9-5-6)4-7(8)2/h3,7H,4-5H2,1-2H3/t7-,8+/m0/s1
