20
gdb 99739	1.97133	1.41923	0.8763	6.5544	71.59	-0.2541	0.016	0.2701	1321.3539	0.171097	-477.45991	-477.450386	-477.449442	-477.494357	35.692	
C	 0.08127128	 1.5843433539	-0.1217671539	-0.403844
C	 0.0201007261	 0.0565936851	-0.0175427198	 0.00432
N	 0.7234278344	-0.446641307	 1.1893174098	-0.529935
H	 0.3836340744	 0.0391276514	 2.0164512766	 0.244027
H	 0.1014774899	-2.014229832	 1.0311318334	 0.32151
H	 1.7199539768	-0.2610011148	 1.1262046006	 0.247895
C	-1.4221945419	-0.5144927486	-0.0109893923	-0.170387
C	-2.3171374828	 0.0559545768	-1.133022235	-0.070194
O	-3.6541956444	-0.3593466416	-1.0178492514	-0.426834
C	-1.4447184824	-2.0607275424	-0.0651908742	 0.429173
O	-0.5106164274	-2.697377983	 0.6301035811	-0.370722
O	-2.2802749566	-2.6731479683	-0.6962005844	-0.357427
H	 1.1163001643	 1.9248541972	-0.0114095145	 0.113002
H	-0.2828403189	 1.9475333992	-1.0858280719	 0.141499
H	-0.5167305503	 2.056839955	 0.6664578425	 0.123607
H	 0.5541381914	-0.3733380435	-0.8745394024	 0.108138
H	-1.8911061765	-0.2344159137	 0.9453826458	 0.107767
H	-2.3271959689	 1.1474745631	-1.0743696331	 0.100911
H	-1.8818666057	-0.218266553	-2.1093553226	 0.089215
H	-3.6138927817	-1.3279245439	-1.0557918341	 0.298281
67.7014	101.0583	140.3743	222.273	258.1864	288.9957	298.7473	354.6506	367.5687	414.5651	429.8867	464.5617	558.8973	596.0083	661.5557	737.6353	825.7872	877.0997	932.2904	954.1994	1000.8094	1022.749	1051.2182	1073.546	1107.6661	1120.3834	1168.0184	1183.208	1215.4472	1281.7598	1299.1424	1334.3213	1374.125	1393.7877	1404.499	1414.9896	1471.0337	1490.6758	1501.4856	1509.4802	1525.7586	1646.3918	1810.9003	2958.4482	2996.9113	3028.7611	3034.945	3082.8174	3089.9212	3096.939	3121.2076	3481.3705	3565.3869	3692.6478
CC([NH3+])C(CO)C([O-])=O	C[C@@H](N)[C@@H](CO)C(=O)O	
InChI=1S/C5H11NO3/c1-3(6)4(2-7)5(8)9/h3-4,7H,2,6H2,1H3,(H,8,9)	InChI=1S/C5H11NO3/c1-3(6)4(2-7)5(8)9/h3-4,7H,2,6H2,1H3,(H,8,9)/t3-,4-/m1/s1
