17
gdb 45660	3.06594	1.75446	1.40157	2.6597	79.11	-0.2248	-0.0272	0.1976	940.8493	0.137581	-384.645687	-384.639	-384.638056	-384.676622	27.594	
O	-0.0987786553	-0.0538769584	 0.0714468671	-0.309159
C	-0.0880307631	 1.1504961295	 0.0693390725	 0.370536
C	-1.3873505823	 2.0168226919	-0.0505835287	-0.345306
C	-1.2196166056	 2.9257641267	 1.1334860959	-0.137365
C	-0.0725844755	 3.611946049	 1.1949913811	 0.155338
C	 0.962859973	 3.4869963518	 2.3013084897	-0.282184
C	 1.8619139747	 2.8890120554	 1.1841611752	-0.057336
C	 0.9902940387	 3.4764780094	 0.1037215422	-0.172292
C	 1.1804100066	 1.9896811533	 0.1009832601	-0.114732
H	-1.3741919939	 2.5344338521	-1.0153971416	 0.128747
H	-2.2653067838	 1.3730670551	-0.0025294881	 0.123606
H	-1.7772129395	 2.7016032331	 2.0392315936	 0.105614
H	 1.4174661816	 4.43072748	 2.6239359175	 0.114547
H	 0.7001857575	 2.8811122562	 3.1729101391	 0.108208
H	 2.9467038265	 2.8852303099	 1.2187581901	 0.100324
H	 1.2294483449	 4.1604474986	-0.7002552098	 0.100747
H	 1.9403520555	 1.5694761365	-0.555291326	 0.110707
98.3407	252.5481	343.6251	403.7766	428.7661	478.6484	514.7317	600.7308	646.142	731.9129	770.9581	791.3009	811.2994	879.9087	887.4376	923.5917	944.2599	977.2049	983.8051	1021.5674	1041.6091	1053.967	1071.4143	1095.5402	1123.0986	1165.1602	1196.3143	1220.0256	1239.8647	1250.0058	1312.0911	1330.479	1365.3679	1468.1687	1488.3852	1680.4557	1815.5216	3035.7283	3053.791	3097.266	3133.2288	3140.2238	3162.8748	3164.2225	3195.8008
O=C1CC=C2CC3C2C13	O=C1C[CH][C]2C[C@@H]3[C@H]2[C@H]13	
InChI=1S/C8H8O/c9-6-2-1-4-3-5-7(4)8(5)6/h1,5,7-8H,2-3H2	InChI=1S/C8H8O/c9-6-2-1-4-3-5-7(4)8(5)6/h1,5,7-8H,2-3H2/t5-,7+,8+/m1/s1
