19
gdb 73362	2.51254	2.04206	1.62386	2.521	73.11	-0.245	0.0788	0.3238	922.2146	0.161101	-423.034231	-423.02697	-423.026026	-423.065719	29.337	
C	 0.0535705558	 1.4917665732	 0.0127176411	-0.449473
C	-0.0346294705	-0.0193515768	 0.0032551627	 0.458388
O	 0.5607080631	-0.4987976408	-1.1968582041	-0.282418
C	 0.0364806368	-1.7865225256	-1.5141644423	-0.106435
C	-1.2532356003	-1.9335491123	-0.7179541615	-0.086255
C	-1.1833617266	-1.9469933317	 0.7995467759	-0.086239
C	 0.1741765999	-1.8130546677	 1.476330387	-0.106433
O	 0.6682959769	-0.5196609245	 1.1347170936	-0.282453
C	-1.4324887153	-0.6639544363	 0.0619709276	-0.133716
H	 1.1021309355	 1.7943630432	-0.032612139	 0.138657
H	-0.4686253816	 1.9051247922	-0.8528934152	 0.12323
H	-0.3869496602	 1.8891990145	 0.9296843134	 0.123222
H	-0.1575218301	-1.8240137965	-2.5920467234	 0.105361
H	 0.7732464609	-2.5669587676	-1.2763139143	 0.100739
H	-2.0952871325	-2.4304575225	-1.1856830169	 0.092972
H	-1.9792701781	-2.4527850883	 1.3338178508	 0.09297
H	 0.0799545624	-1.8694927939	 2.5666613521	 0.105354
H	 0.8852356714	-2.5887433297	 1.1582409855	 0.100738
H	-2.3354313274	-0.0700385889	 0.1088012172	 0.091791
100.539	195.2806	241.5736	284.2141	334.1582	440.0693	517.5631	608.8902	624.8587	727.2446	744.357	774.9713	804.5393	818.202	869.2068	889.6268	950.0373	961.9128	985.5684	1019.9053	1049.4297	1051.3976	1070.9331	1093.8669	1120.6618	1133.8092	1156.4288	1187.1321	1217.3369	1226.8344	1234.2547	1336.1825	1340.6095	1366.3334	1377.4794	1410.8996	1418.6248	1481.5751	1487.4611	1516.5468	1534.4857	3000.7171	3004.2048	3053.8244	3055.9392	3058.5146	3138.9203	3139.2444	3174.3359	3181.8755	3202.5492
CC12OCC3C(CO1)C23	C[C@@]12OC[C@H]3[C@@H](CO1)[C@@H]23	
InChI=1S/C7H10O2/c1-7-6-4(2-8-7)5(6)3-9-7/h4-6H,2-3H2,1H3	InChI=1S/C7H10O2/c1-7-6-4(2-8-7)5(6)3-9-7/h4-6H,2-3H2,1H3/t4-,5+,6-,7+
