20
gdb 126655	6.17791	0.6852	0.62918	1.3708	83.07	-0.189	0.0355	0.2245	1789.8326	0.172712	-399.350093	-399.340777	-399.339833	-399.385253	33.821	
C	 0.0676150633	 1.4993979771	 0.1626433641	-0.380601
C	-0.1002101529	-0.0012686153	-0.0844808473	-0.187602
C	 0.7780959013	-0.5130346075	-1.2256351243	-0.113521
N	 0.5643512755	-1.9361750488	-1.442573283	-0.38918
C	 1.2899135106	-2.5855067043	-2.4307859495	 0.416371
N	 1.5534327592	-3.8881553272	-2.3212456457	-0.335881
N	 2.2053732933	-4.1918157559	-3.4721782404	-0.182638
C	 2.3689278768	-3.1271704812	-4.2840832996	-0.018575
C	 1.7886234144	-2.0496758501	-3.6480929523	-0.287694
H	 1.1039498996	 1.7483442973	 0.4159232016	 0.117172
H	-0.204880707	 2.0805875786	-0.7252045028	 0.117051
H	-0.5664047526	 1.8371361187	 0.9876045552	 0.116007
H	 0.1471596574	-0.5536270283	 0.8325994141	 0.095135
H	-1.1461419656	-0.2355581437	-0.3138345015	 0.110456
H	 0.5151967226	 0.0205419028	-2.1476358804	 0.107812
H	 1.8360294819	-0.2743431888	-1.0162931799	 0.088542
H	 0.5461568067	-2.4773659555	-0.5877931004	 0.233198
H	 2.5112568444	-5.1369530295	-3.6191370363	 0.27112
H	 2.8734609907	-3.2078134544	-5.2342976795	 0.126243
H	 1.7303068303	-1.0370112639	-4.0093116421	 0.096586
54.7896	59.7902	102.6998	136.7266	228.6011	276.2527	324.1602	342.8092	417.0947	469.7316	634.3769	649.5723	725.3371	752.6845	762.0636	766.8056	818.6695	898.6639	917.0868	942.032	986.777	1047.3173	1062.2133	1100.3382	1127.7733	1150.7794	1173.7079	1216.0588	1266.6909	1313.9979	1322.9974	1324.1218	1369.7723	1412.8109	1419.9783	1476.6877	1491.811	1498.8458	1500.0583	1505.8006	1522.4425	1531.7635	1609.8996	2942.9466	3013.9642	3032.0579	3037.9975	3063.8497	3098.8776	3107.3681	3255.6188	3280.4919	3571.6668	3694.269
CCCNC1=NNC=C1	CCCNc1n[nH]cc1	
InChI=1S/C6H11N3/c1-2-4-7-6-3-5-8-9-6/h3,5H,2,4H2,1H3,(H2,7,8,9)	InChI=1S/C6H11N3/c1-2-4-7-6-3-5-8-9-6/h3,5H,2,4H2,1H3,(H2,7,8,9)
