22
gdb 14173	3.4473	1.62839	1.61414	0.1494	81.35	-0.2512	0.0805	0.3317	973.943	0.201525	-313.080648	-313.072295	-313.07135	-313.112845	32.488	
C	 0.0219288951	 1.5733140158	 0.0646911144	-0.466555
C	 0.0600832991	 0.0561559296	 0.0361284008	 0.339426
C	-1.2556282116	-0.5408938601	-0.4416940909	-0.445499
C	 1.295291639	-0.7309889972	-0.3577075546	-0.076265
C	 2.6720380059	-0.0775743919	-0.3753489092	-0.228386
C	 2.9198276351	 0.490465221	 1.0501859481	-0.216625
C	 1.8469581123	-0.1431685706	 1.9795131903	-0.22848
C	 0.7933671698	-0.7708749713	 1.0747006057	-0.076281
H	 0.9502737626	 2.02933405	 0.4087931156	 0.117321
H	-0.1880106979	 1.9696159739	-0.9361949885	 0.111998
H	-0.7806518759	 1.9231598451	 0.7252938384	 0.111943
H	-1.4993444117	-0.198663531	-1.454852097	 0.109742
H	-1.218587001	-1.6346095974	-0.4602163791	 0.109647
H	-2.083849999	-0.2466529349	 0.2144109055	 0.109742
H	 1.1435961694	-1.5766696356	-1.0219614857	 0.07044
H	 3.4169154561	-0.8439906383	-0.616648556	 0.097626
H	 2.7680042348	 0.6996300882	-1.1421871293	 0.095704
H	 3.9314169105	 0.2623109965	 1.3982987589	 0.09481
H	 2.8423401975	 1.5805819437	 1.0533415406	 0.10593
H	 2.2919198134	-0.9335374849	 2.594148943	 0.097638
H	 1.4302896433	 0.5931472225	 2.6763250082	 0.095692
H	 0.2752618032	-1.6456772432	 1.4563996508	 0.070431
138.8784	144.0531	160.804	214.0092	241.46	277.5135	360.4008	434.7484	436.9449	662.6388	665.7042	693.1337	788.2841	797.2957	862.9517	893.2352	893.9386	963.9561	975.2731	980.4036	992.7938	1012.9677	1070.9328	1080.0417	1094.3847	1129.2666	1158.3579	1181.6548	1214.558	1226.1579	1253.1228	1300.1288	1321.9979	1322.7229	1331.73	1356.271	1405.8269	1418.0429	1440.8396	1481.405	1486.4568	1491.8348	1493.5418	1503.8337	1512.6598	1521.8078	3016.2255	3025.4408	3031.9129	3032.5313	3057.2186	3061.5694	3063.7671	3071.9131	3076.2848	3096.0916	3097.6628	3142.7753	3143.5654	3153.1555
CC1(C)C2CCCC12	CC1(C)[C@H]2CCC[C@@H]12	
InChI=1S/C8H14/c1-8(2)6-4-3-5-7(6)8/h6-7H,3-5H2,1-2H3	InChI=1S/C8H14/c1-8(2)6-4-3-5-7(6)8/h6-7H,3-5H2,1-2H3/t6-,7+
