17
gdb 27694	2.87106	1.28119	0.89573	2.7003	88.56	-0.2037	-0.0033	0.2005	1283.4287	0.134877	-380.903208	-380.893818	-380.892874	-380.937744	33.798	
C	 0.0267066573	 1.462269047	 0.0537650956	-0.506956
C	 0.0252435656	-0.0275034456	-0.0211208271	 0.335675
N	 0.0293644937	-0.7439043536	-1.1294814408	-0.334839
C	 0.0260777473	-2.0610463986	-0.7440698028	 0.182043
C	 0.0291367151	-3.1783778975	-1.7322454195	-0.503108
C	 0.019795797	-2.1499991871	 0.6371609921	 0.105686
N	 0.0194730726	-0.8302199779	 1.0769223287	-0.360588
C	 0.014615525	-3.2488794129	 1.5128491467	 0.258359
C	 0.0101341557	-4.1909644727	 2.2661491794	-0.461874
H	 0.9093691615	 1.8422469061	 0.580890099	 0.13491
H	 0.0312121314	 1.8615819214	-0.9608832997	 0.160379
H	-0.8592100984	 1.8443408112	 0.5738733416	 0.134877
H	 0.9127102126	-3.1266950453	-2.3775328648	 0.134937
H	 0.0261038077	-4.1457249277	-1.2244696373	 0.130195
H	-0.8489175962	-3.1250099082	-2.3848974085	 0.134933
H	 0.0150537869	-0.542176229	 2.0412453706	 0.266355
H	 0.0062760754	-5.0255709496	 2.9221061168	 0.189014
58.2003	102.255	131.4749	133.322	212.0231	258.216	306.214	373.3798	459.7956	502.5924	519.8321	540.5435	569.8108	633.6051	679.5434	691.7203	711.6746	788.4625	983.9624	1013.6676	1052.1274	1061.4038	1063.4915	1171.3513	1209.7576	1297.9914	1397.0375	1409.7983	1427.1159	1433.9718	1477.8271	1482.6088	1485.2708	1500.8141	1555.955	1604.6254	2221.1484	3031.5959	3035.9988	3081.5502	3089.3245	3126.6449	3151.3178	3503.0947	3662.1444
CC1=NC(C)=C(N1)C#C	Cc1nc(C)c([nH]1)C#C	
InChI=1S/C7H8N2/c1-4-7-5(2)8-6(3)9-7/h1H,2-3H3,(H,8,9)	InChI=1S/C7H8N2/c1-4-7-5(2)8-6(3)9-7/h1H,2-3H3,(H,8,9)
