21
gdb 116385	2.80155	1.23313	0.92997	2.7321	78.87	-0.2316	-0.0223	0.2092	1307.2467	0.182835	-424.254782	-424.245723	-424.244778	-424.288778	33.925	
C	 0.0822116497	 1.5624476085	 0.1868955921	-0.394023
C	-0.0590974686	 0.0484579406	-0.0003971877	-0.182408
C	 0.5842730454	-0.4891365647	-1.2854052628	-0.084778
C	 0.8312217448	-2.0151456284	-1.2531168994	-0.225704
C	 1.3835480195	-2.5138899819	-2.585998284	-0.08265
O	 0.495968009	-2.2184552725	-3.6515764309	-0.24025
C	 0.2983466431	-0.8275297902	-3.8260051734	-0.169362
C	-0.1983020371	-0.13850765	-2.55007248	 0.377781
O	-1.1331240378	 0.6279477059	-2.5747454309	-0.304692
H	 1.1369621701	 1.8610201304	 0.2078857052	 0.104971
H	-0.4118249906	 2.1017243909	-0.6236098318	 0.144261
H	-0.3687297624	 1.8803656134	 1.1320382391	 0.111531
H	 0.3987951577	-0.4693658337	 0.8516945185	 0.089527
H	-1.1207026845	-0.2242823035	 0.0010089825	 0.110366
H	 1.5700673747	-0.0120623434	-1.4208159883	 0.09251
H	 1.5268866058	-2.259554418	-0.4418511743	 0.103002
H	-0.1107905545	-2.535755234	-1.0417549311	 0.115998
H	 2.3743222673	-2.0660513458	-2.7799058784	 0.08642
H	 1.5008883391	-3.6011158171	-2.5839732046	 0.114001
H	 1.236722917	-0.3347192824	-4.1434905683	 0.100528
H	-0.4470789777	-0.694934864	-4.6121317016	 0.132971
73.3421	100.1348	146.8825	196.3729	238.0173	287.3327	327.8366	354.9516	426.2626	447.4798	512.7293	571.991	667.598	721.5925	793.3828	872.5775	890.9959	947.3189	961.9656	1005.6646	1014.4852	1045.4674	1081.9375	1127.7279	1151.052	1169.4935	1175.9049	1204.1597	1259.0754	1279.5509	1293.9685	1320.7204	1356.2533	1361.9473	1378.1399	1382.5935	1407.6374	1410.9129	1472.4524	1477.0654	1485.442	1497.6576	1498.9711	1514.2502	1814.2931	2933.3944	2952.9186	2968.0909	3024.5572	3031.2382	3033.9178	3066.5923	3075.4124	3090.0375	3097.3594	3120.1766	3136.2114
CCC1CCOCC1=O	CC[C@H]1CCOCC1=O	
InChI=1S/C7H12O2/c1-2-6-3-4-9-5-7(6)8/h6H,2-5H2,1H3	InChI=1S/C7H12O2/c1-2-6-3-4-9-5-7(6)8/h6H,2-5H2,1H3/t6-/m0/s1
