19
gdb 121593	4.12014	0.75917	0.68655	1.5634	73.89	-0.25	-0.0682	0.1818	1695.8065	0.155791	-460.215879	-460.205295	-460.20435	-460.253214	35.902	
C	-0.2030221199	 1.3254232356	-0.2877028242	-0.38635
C	-0.0284051118	-0.1667839076	-0.585186316	-0.184808
C	 1.4422698887	-0.5676289329	-0.5958400588	-0.060192
O	 1.600816211	-1.9914828591	-0.7906197727	-0.220996
C	 1.6179450051	-2.422430538	-2.0497599533	 0.344517
O	 1.5181975582	-1.7350100092	-3.0380687695	-0.354289
C	 1.7912634132	-3.9603123243	-2.1239855222	 0.285425
C	 1.8605638792	-4.5066191053	-3.5283455597	-0.470874
O	 1.856181173	-4.627846301	-1.124778427	-0.2625
H	 0.2201531347	 1.5911653924	 0.687266712	 0.119231
H	 0.2905216028	 1.9433792696	-1.0454078534	 0.124547
H	-1.2617945199	 1.5982373203	-0.2752790426	 0.123833
H	-0.5525897191	-0.7684677723	 0.1658554464	 0.11303
H	-0.4656752599	-0.4095579657	-1.5590400347	 0.122777
H	 1.9872622501	-0.0404698736	-1.3836337388	 0.131162
H	 1.914360744	-0.3693877978	 0.369484649	 0.12005
H	 2.6883825573	-4.0410720438	-4.0726429322	 0.15644
H	 1.9867815786	-5.5887336272	-3.4933789147	 0.141907
H	 0.9508313248	-4.2444097602	-4.0777721475	 0.157091
38.7334	61.1591	73.537	89.6278	124.5148	196.1506	235.3557	277.56	305.5966	340.8019	429.9689	489.3978	517.6724	622.5489	725.7897	755.4694	826.3822	895.3547	912.6058	943.8599	1014.1882	1037.8431	1047.1733	1132.6053	1158.2376	1201.8542	1288.333	1307.1066	1337.3143	1344.4409	1387.1183	1413.4239	1427.0743	1452.9369	1461.318	1484.7343	1494.5049	1501.6867	1510.831	1797.2983	1830.9249	3034.7384	3044.1165	3050.055	3065.8609	3079.8223	3102.8751	3111.5305	3113.2207	3126.2126	3163.0452
CCCOC(=O)C(C)=O	CCCOC(=O)C(=O)C	
InChI=1S/C6H10O3/c1-3-4-9-6(8)5(2)7/h3-4H2,1-2H3	InChI=1S/C6H10O3/c1-3-4-9-6(8)5(2)7/h3-4H2,1-2H3
