13
gdb 25852	4.13034	1.3131	0.99635	3.5157	65.54	-0.2586	-0.0812	0.1774	1082.984	0.091866	-449.003079	-448.995764	-448.99482	-449.035467	26.404	
N	-0.1012458925	 1.3125203494	 0.0100855491	-0.53145
C	 0.0581699373	-0.0341332881	 0.0025447068	 0.353331
O	 1.1215945976	-0.6138662375	-0.0086601653	-0.33226
C	-1.2712591017	-0.7880121961	 0.0101891292	 0.280273
N	-2.3973963258	-0.0644285794	 0.0204739754	-0.292444
C	-3.5217837741	-0.7786037264	 0.0265624078	 0.083886
N	-3.59594816	-2.1082318991	 0.0233157125	-0.233155
C	-2.4076431623	-2.7172717131	 0.0130223869	 0.085309
N	-1.2183762367	-2.1186682483	 0.0060554188	-0.242318
H	 0.7174732265	 1.8964127514	 0.0035076819	 0.268174
H	-1.0249338606	 1.7117958328	 0.0165846105	 0.27603
H	-4.4593625479	-0.2273464146	 0.0348632779	 0.140868
H	-2.4115403398	-3.8048822311	 0.0100169286	 0.143756
57.5153	140.2834	222.9191	289.1951	355.8757	382.2529	450.1161	489.8582	623.5569	628.3149	704.1639	733.1254	794.4502	877.8976	986.3845	1012.001	1048.0926	1093.9981	1180.7079	1195.4918	1240.3533	1280.2058	1378.0956	1423.5595	1462.6727	1577.5205	1590.6446	1606.4183	1817.5742	3166.6604	3170.8638	3600.7248	3743.2341
NC(=O)C1=NC=NC=N1	NC(=O)c1ncncn1	
InChI=1S/C4H4N4O/c5-3(9)4-7-1-6-2-8-4/h1-2H,(H2,5,9)	InChI=1S/C4H4N4O/c5-3(9)4-7-1-6-2-8-4/h1-2H,(H2,5,9)
