16
gdb 124297	3.70257	1.05672	0.93108	1.1145	72.1	-0.2463	-0.0356	0.2107	1249.587	0.123184	-437.903455	-437.894942	-437.893997	-437.938476	29.829	
C	-1.0672966643	 0.6954740651	 0.5886900858	-0.48134
C	 0.2326939957	 0.0672875929	 0.1346332172	 0.378762
O	 1.3118066341	 0.406949229	 0.5508205748	-0.282129
C	 0.1203934432	-1.0534031944	-0.9253628416	-0.399192
C	-0.4148266025	-2.3164486772	-0.339074861	 0.407065
C	 0.1735823086	-3.4200332889	 0.1997468148	-0.321738
C	-0.9276240579	-4.2176565698	 0.6073326038	 0.039973
N	-2.0791513504	-3.6516621265	 0.3442928958	-0.139275
O	-1.7553007359	-2.436958836	-0.2605800066	-0.207824
H	-0.8855310798	 1.3537132217	 1.4386542878	 0.146305
H	-1.4921283997	 1.2796934589	-0.2369519101	 0.145867
H	-1.8059752354	-0.0700164198	 0.8434865382	 0.163754
H	-0.5390834632	-0.7261321818	-1.7365883162	 0.138981
H	 1.1218361284	-1.2272429808	-1.3216184734	 0.143899
H	 1.2260583149	-3.6294386192	 0.2898078927	 0.130093
H	-0.9198522658	-5.1883928733	 1.0829503178	 0.136801
34.7942	49.3619	108.1103	130.7408	284.829	294.8294	384.5248	490.2397	549.6039	646.8798	661.0425	752.5516	789.1256	817.9786	866.0726	918.385	922.5408	943.9052	1005.4471	1019.5891	1048.7178	1055.036	1141.3162	1211.0646	1226.4633	1269.5853	1292.5049	1382.197	1388.8054	1455.3447	1465.8031	1474.5541	1508.4372	1631.5171	1826.3263	3038.6485	3054.9672	3106.3861	3133.9975	3159.483	3245.0581	3284.771
CC(=O)CC1=CC=NO1	CC(=O)Cc1ccno1	
InChI=1S/C6H7NO2/c1-5(8)4-6-2-3-7-9-6/h2-3H,4H2,1H3	InChI=1S/C6H7NO2/c1-5(8)4-6-2-3-7-9-6/h2-3H,4H2,1H3
