17
gdb 98819	3.08386	1.26164	0.91083	0.6499	73.07	-0.2516	-0.0044	0.2472	1253.4764	0.135929	-455.18204	-455.172971	-455.172027	-455.216756	31.413	
C	 0.1526215392	 1.3293791845	-0.1640614111	-0.235739
O	 0.1113114336	-0.0981215822	-0.0367889018	-0.251511
C	 0.6444733125	-0.5772994516	 1.109248089	 0.520725
O	 1.1293876198	 0.0924515727	 1.9888348696	-0.40791
N	 0.560320272	-1.9451284931	 1.1407934812	-0.192532
C	 1.0107231053	-2.8713828275	 2.1875779943	-0.168597
C	 0.4815108501	-4.0328242069	 1.2919043907	-0.326984
C	 0.0629278447	-2.9616894416	 0.2886042576	 0.396863
N	-0.4974659625	-2.9963488236	-0.8363304125	-0.540706
H	 1.183960438	 1.6889270596	-0.1380285267	 0.145355
H	-0.3046755076	 1.5505489365	-1.1282793645	 0.13758
H	-0.4089049123	 1.8046653674	 0.6437128452	 0.145172
H	 2.0909288182	-2.8483273529	 2.3492433592	 0.13156
H	 0.4944076149	-2.7308133006	 3.1400396342	 0.131566
H	 1.2428818435	-4.7202147175	 0.9205775092	 0.139737
H	-0.349073964	-4.6035684797	 1.709550207	 0.13974
H	-0.6159107855	-2.0559446335	-1.2147503105	 0.235682
68.8987	89.7798	113.5024	143.0241	162.2003	193.6603	303.5646	375.7939	433.8083	509.395	593.2495	760.3002	769.6661	802.8204	812.5587	894.3488	929.287	983.4818	1008.418	1058.5889	1159.7668	1161.9646	1173.6891	1181.3585	1192.597	1215.9244	1240.5794	1250.1759	1349.0454	1396.1333	1467.0354	1480.8303	1481.8738	1501.8943	1522.6044	1801.6766	1815.6012	3055.3705	3067.485	3093.5377	3116.8886	3132.2178	3148.549	3162.2604	3490.4953
COC(=O)N1CCC1=N	COC(=O)N1CC[C]1[NH]	
InChI=1S/C5H8N2O2/c1-9-5(8)7-3-2-4(7)6/h6H,2-3H2,1H3	InChI=1S/C5H8N2O2/c1-9-5(8)7-3-2-4(7)6/h6H,2-3H2,1H3
