21
gdb 82956	2.42162	1.58348	1.51564	1.838	80.8	-0.2544	0.0739	0.3283	1037.5414	0.18495	-387.074747	-387.066831	-387.065886	-387.10685	31.717	
C	 0.1722322144	 1.7307250599	 0.0885403105	-0.437051
C	 0.0773592802	 0.2218359176	 0.0420617061	-0.00604
C	 1.2124394985	-0.6954733025	-0.3653773783	-0.057942
C	 2.6285337146	-0.2276884691	-0.692033511	-0.264744
C	 3.4838063102	 0.2161600285	 0.4781129335	 0.054467
O	 3.133938978	 1.4369084483	 1.1439245471	-0.243883
C	 2.9893325079	 0.2045923149	 1.8625507745	 0.054468
C	 1.5886608492	-0.2520177531	 2.2194268965	-0.264745
C	 0.7023697784	-0.7074014833	 1.0627237186	-0.057941
H	 1.1467309042	 2.0713453001	 0.4394685068	 0.157119
H	-0.0005652226	 2.1566988255	-0.906881733	 0.107395
H	-0.5943329991	 2.1428278584	 0.7554180026	 0.107395
H	-0.8935436087	-0.1239011251	-0.3075972461	 0.07614
H	 0.9111222596	-1.5422545655	-0.9751876602	 0.07969
H	 3.1577234026	-1.0649630615	-1.1631402902	 0.104161
H	 2.6177102021	 0.5761901497	-1.4398600621	 0.115965
H	 4.5577664255	 0.1143839904	 0.3164161798	 0.087866
H	 3.7184100299	 0.0947470292	 2.6664628908	 0.087865
H	 1.7041177997	-1.0989776271	 2.9066976022	 0.104161
H	 1.1023015588	 0.540730156	 2.8030259771	 0.115965
H	 0.0874053065	-1.5615177712	 1.3310584747	 0.07969
122.8509	140.8461	225.2309	233.0076	319.3854	350.4845	425.2007	508.1499	516.6583	556.9273	694.4536	756.9601	759.7014	782.7371	836.9627	873.7512	902.5849	936.5436	961.0177	968.2749	1037.3255	1043.3159	1051.2705	1112.4096	1123.1512	1130.3818	1159.8909	1162.0407	1181.477	1255.1602	1265.5763	1287.6979	1308.6343	1349.3092	1355.3862	1374.8358	1384.4264	1402.0009	1429.2893	1449.3417	1472.813	1473.6089	1488.6925	1508.8275	1521.1617	3019.4963	3019.8064	3026.3183	3051.8061	3052.1122	3075.701	3092.1835	3105.1263	3112.0929	3130.7047	3144.5696	3153.9946
CC1C2CC3OC3CC12	C[C@H]1[C@H]2C[C@H]3O[C@H]3C[C@@H]12	
InChI=1S/C8H12O/c1-4-5-2-7-8(9-7)3-6(4)5/h4-8H,2-3H2,1H3	InChI=1S/C8H12O/c1-4-5-2-7-8(9-7)3-6(4)5/h4-8H,2-3H2,1H3/t4-,5+,6-,7+,8-
