15
gdb 132965	3.21532	1.37547	0.96913	2.9258	73.9	-0.2049	-0.0573	0.1476	1123.6488	0.113539	-458.119551	-458.11187	-458.110926	-458.151941	28.746	
C	-0.021130009	 1.4568748448	-0.0209825685	-0.322623
N	-0.0195543178	-0.0002547572	-0.0156989178	-0.089999
C	-1.1705647111	-0.7082377793	-0.1235679245	-0.077456
C	-1.1352638432	-2.0650202557	-0.11539689	 0.152671
F	-2.2534415835	-2.7933144103	-0.2197358616	-0.076232
C	 0.1278384385	-2.6960429343	 0.007681712	-0.065077
N	 1.2440013341	-2.0394345382	 0.1126128198	-0.317565
C	 1.2375359693	-0.6474460038	 0.1071080397	 0.428334
N	 2.2743479106	 0.0979331876	 0.2042040371	-0.581564
H	 0.5912606207	 1.8237828858	-0.8482578085	 0.161913
H	-1.0478426261	 1.8134077386	-0.119310158	 0.123002
H	 0.4255585825	 1.8299220893	 0.9038760329	 0.162035
H	-2.0941414665	-0.1502290443	-0.2139820825	 0.148025
H	 0.1714098521	-3.7852918184	 0.0160595969	 0.130849
H	 3.0917917694	-0.5031692946	 0.2849657031	 0.223689
83.5604	163.7093	191.9687	310.7207	332.4494	369.8088	406.8914	482.5359	509.9764	523.4453	595.0026	702.2902	765.93	836.9617	837.954	915.0984	983.5866	984.0943	1048.0137	1081.0801	1154.3217	1163.5383	1275.6369	1309.2487	1322.0273	1429.4973	1453.7754	1457.9621	1469.2635	1517.1149	1567.703	1675.7407	1724.3501	3052.7436	3122.6262	3133.9055	3146.9379	3216.1239	3520.0668
CN1C=C(F)C=NC1=N	CN1CC(=CN=C1[NH])F	
InChI=1S/C5H6FN3/c1-9-3-4(6)2-8-5(9)7/h2-3,7H,1H3	InChI=1S/C5H7FN3/c1-9-3-4(6)2-8-5(9)7/h2,7H,3H2,1H3
