18
gdb 75352	3.40116	1.36294	1.06314	1.2102	72.5	-0.2397	0.0181	0.2577	1131.5169	0.148284	-439.071046	-439.062987	-439.062043	-439.103687	30.563	
C	 0.2378912758	 1.5326589814	 0.0477902262	-0.432173
C	-0.0413293756	 0.0562923015	-0.0533872012	 0.390682
N	 0.0571513408	-0.5390241516	-1.1661700668	-0.305218
C	-0.2284343024	-1.9473697081	-1.4205565563	-0.207709
C	-1.5019917786	-2.4797230484	-0.7756277999	 0.044097
O	-1.3908111545	-3.6609825758	 0.0324382237	-0.251118
C	-1.6412735431	-2.4132736706	 0.6819897254	 0.038437
C	-0.4916415494	-1.8036211557	 1.4503646912	-0.120579
O	-0.3850850311	-0.3985497788	 1.1962192137	-0.262657
H	 1.0710862279	 1.71429396	 0.7342165503	 0.135434
H	 0.4757850813	 1.9298757877	-0.9373970095	 0.142031
H	-0.6341844111	 2.0521867131	 0.4578128864	 0.136196
H	-0.3045292726	-2.0625133997	-2.5067776595	 0.11229
H	 0.6120348496	-2.5790836044	-1.1106070626	 0.126395
H	-2.4062573141	-2.4444012977	-1.3814672192	 0.104068
H	-2.6327823146	-2.3148639186	 1.1216663824	 0.102478
H	-0.6364771617	-1.8810958522	 2.5305291264	 0.120172
H	 0.4398858736	-2.3158152519	 1.1930643391	 0.127176
86.7312	141.5311	197.8584	258.0234	285.6817	311.8298	379.782	432.3824	458.7686	604.34	645.1044	699.2108	764.1266	831.057	835.826	923.3852	959.5173	997.7876	1038.6008	1055.1225	1070.5653	1078.2726	1106.9219	1145.0048	1161.6907	1216.2523	1247.0336	1272.5456	1284.9936	1361.4181	1380.8053	1401.7367	1405.9079	1474.5211	1478.2254	1480.027	1493.3471	1517.4395	1757.477	3034.4366	3047.6482	3060.9828	3069.2277	3104.2673	3108.5927	3119.9385	3131.8824	3171.4722
CC1=NCC2OC2CO1	CC1=NC[C@H]2O[C@H]2CO1	
InChI=1S/C6H9NO2/c1-4-7-2-5-6(9-5)3-8-4/h5-6H,2-3H2,1H3	InChI=1S/C6H9NO2/c1-4-7-2-5-6(9-5)3-8-4/h5-6H,2-3H2,1H3/t5-,6+/m1/s1
