15
gdb 65891	3.98037	0.78338	0.72415	2.146	84.26	-0.2537	-0.0331	0.2206	1532.0389	0.10972	-420.5377	-420.528611	-420.527667	-420.572317	32.621	
O	-0.0001894415	 1.4520429176	-0.0771661849	-0.44933
C	 0.0068438393	 0.0410520029	-0.0046742611	 0.101012
C	 0.1418013275	-0.5707464048	 1.428270024	-0.105661
O	-1.1742622227	-1.142763864	 1.3548460119	-0.267135
C	-1.4384406355	-0.5183828583	 0.0874871997	-0.093049
C	 0.8692741667	-0.5526812448	-1.0111578858	 0.557565
C	 1.6247323879	-1.0126599676	-1.8385474561	-0.441801
C	 2.463878477	-1.543717643	-2.7677961027	 0.310962
C	 3.2116470931	-2.0116698795	-3.5922339085	-0.563084
H	 0.8969967928	 1.7507821311	-0.2621027605	 0.290262
H	 0.9185969785	-1.3293516403	 1.5681235774	 0.113693
H	 0.2225668951	 0.2082771494	 2.196458798	 0.109652
H	-2.1744793753	 0.2910100526	 0.158232612	 0.1193
H	-1.7345238612	-1.2377649879	-0.6816152201	 0.11903
H	 3.866034478	-2.4284829637	-4.3173163534	 0.198584
53.6128	88.1393	99.265	227.5963	233.6473	271.695	354.6305	362.5976	481.5058	504.5977	540.4194	556.0613	584.6658	604.8385	619.7543	795.3141	882.9254	950.6223	984.423	1011.6756	1037.4174	1046.5548	1149.1459	1156.5553	1163.9109	1267.1834	1298.2917	1348.2911	1389.9022	1493.5721	1521.7944	2180.7805	2354.9482	3018.2155	3033.8812	3084.4436	3094.449	3503.0048	3811.1666
OC1(COC1)C#CC#C	OC1(COC1)C#CC#C	
InChI=1S/C7H6O2/c1-2-3-4-7(8)5-9-6-7/h1,8H,5-6H2	InChI=1S/C7H6O2/c1-2-3-4-7(8)5-9-6-7/h1,8H,5-6H2
