20
gdb 17075	5.47524	1.09479	0.98021	1.6712	75.37	-0.2614	0.0923	0.3537	1228.8068	0.177348	-348.972057	-348.963953	-348.963009	-349.005406	29.96	
C	 0.0049903288	 1.4939767994	 0.3962796919	-0.253239
C	-0.0448064581	-0.0068512352	 0.2388509195	 0.10586
C	-1.2386696925	-0.713543265	-0.23982029	-0.183197
O	-0.1152077987	-0.5136476646	-1.0994430709	-0.232708
C	 1.3763994877	 2.0800698977	 0.0761746408	 0.065702
C	 1.8808376872	 2.076381403	-1.3964403729	-0.207182
C	 2.4829300836	 3.4861733027	-1.152632985	-0.211198
C	 1.5539321225	 3.6246826344	 0.0841471007	-0.238685
H	-0.7512820482	 1.9438304633	-0.2593911197	 0.095573
H	-0.2734710105	 1.7479533532	 1.4290512285	 0.097434
H	 0.644531851	-0.5646843325	 0.8770598248	 0.08756
H	-1.4205362544	-1.7443982949	 0.0616749944	 0.11168
H	-2.1306975174	-0.1428299258	-0.4965271651	 0.110572
H	 2.1319933533	 1.6205436815	 0.7259432316	 0.066571
H	 2.5535191596	 1.2727821858	-1.7036975127	 0.098558
H	 1.0415397075	 2.1062173648	-2.0973654928	 0.105366
H	 3.5365723225	 3.4339305304	-0.8627281993	 0.099299
H	 2.38112088	 4.2279492279	-1.9482365114	 0.094314
H	 0.6166265997	 4.1301676068	-0.1727035185	 0.095752
H	 1.9602142865	 4.0887754871	 0.986745396	 0.091968
64.8248	73.4468	121.0347	180.8996	292.7656	353.5722	420.8077	461.6895	637.4671	756.4211	783.3875	795.9799	859.0281	887.2219	904.5527	933.9807	950.2269	965.1887	980.7572	1044.7706	1047.4869	1102.1426	1120.5417	1156.6956	1165.9995	1181.3155	1202.1102	1226.0714	1253.0064	1260.0417	1270.2344	1276.1485	1294.3773	1296.5844	1328.6145	1386.4186	1447.1726	1467.9054	1478.2146	1487.0021	1510.2074	1529.5923	3008.6067	3021.1724	3042.707	3054.0149	3055.5298	3061.8974	3078.6466	3085.9447	3093.3512	3104.7481	3119.6541	3164.4387
C(C1CO1)C1CCC1	C([C@H]1CO1)C1CCC1	
InChI=1S/C7H12O/c1-2-6(3-1)4-7-5-8-7/h6-7H,1-5H2	InChI=1S/C7H12O/c1-2-6(3-1)4-7-5-8-7/h6-7H,1-5H2/t7-/m0/s1
