18
gdb 90828	3.30453	1.82098	1.59007	1.5923	72.79	-0.2212	0.066	0.2873	887.7639	0.150488	-401.879159	-401.872563	-401.871619	-401.910017	27.448	
O	-0.039367041	 1.4601030682	-0.0261583933	-0.436458
C	 0.0486292107	 0.0429907298	 0.0151003376	 0.112118
C	 0.7254855298	-0.5319626976	 1.2977098483	-0.270663
C	-0.4090489317	-1.279565195	 1.9890212286	 0.0192
C	-1.587728592	-0.4564760397	 2.497184997	-0.094644
C	-2.2462157803	 0.0717304242	 1.2049231801	-0.067158
C	-2.5265237567	-1.3134937951	 1.7030795893	-0.042953
N	-1.3247063135	-1.8174520612	 0.8869284759	-0.197821
C	-1.3741195968	-0.5112298409	 0.1013153976	-0.001569
H	 0.8500622581	 1.8114205171	-0.1290978346	 0.28444
H	 0.5551860232	-0.3321096457	-0.8852434457	 0.070201
H	 1.543155177	-1.2133532798	 1.0424317402	 0.102226
H	 1.1309322901	 0.272936136	 1.9183386304	 0.100732
H	-0.101147341	-2.0798959666	 2.6649571051	 0.072345
H	-1.7444031107	 0.028724637	 3.4524575566	 0.086065
H	-2.8810201395	 0.9471918094	 1.2065835973	 0.092993
H	-3.4204779673	-1.8749522255	 1.9319189578	 0.097288
H	-1.8800082584	-0.6395760047	-0.8567877283	 0.07366
96.8088	260.6623	271.1729	381.3647	469.8402	492.0044	656.2923	697.1418	754.8625	760.3137	811.9575	825.5833	851.7338	875.9361	885.4891	891.3108	973.4535	980.9996	1002.5075	1023.9595	1025.5961	1033.6205	1057.7021	1062.3954	1094.57	1116.0539	1180.1494	1185.1881	1197.5831	1226.9225	1254.9242	1257.7008	1283.3128	1345.6884	1353.0533	1362.8204	1378.7726	1428.0171	1472.3589	2995.3004	3048.0805	3088.0171	3097.622	3100.6525	3189.5332	3206.1843	3226.0248	3825.5297
OC1CC2C3C4C3N2C14	O[C@H]1C[C@H]2[C@H]3[C@@H]4[C@H]3N2[C@H]14	
InChI=1S/C7H9NO/c9-3-1-2-4-5-6(3)8(2)7(4)5/h2-7,9H,1H2	InChI=1S/C7H9NO/c9-3-1-2-4-5-6(3)8(2)7(4)5/h2-7,9H,1H2/t2-,3-,4-,5-,6+,7-/m0/s1
