15
gdb 24334	3.79671	1.61475	1.14079	3.5302	72.21	-0.2048	0.0223	0.2271	992.6767	0.116592	-416.847956	-416.841279	-416.840335	-416.879091	26.304	
C	 0.0235244097	 1.515308796	-0.0520092257	-0.282603
N	 1.3824080429	 2.0381405397	 0.1203563002	-0.265162
C	 2.3653180481	 1.2635488904	 0.2688935105	 0.112278
O	 2.4109541673	-0.1063542807	 0.3033258894	-0.249985
C	 1.1872454601	-0.708423096	 0.1506727254	 0.29402
C	 0.9225650916	-2.0544625311	 0.1426064664	-0.211856
N	-0.4385659562	-2.1647687447	-0.0379872356	-0.244475
C	-1.0137970841	-0.9228784416	-0.1419425996	-0.18753
C	-0.0143809759	 0.0165540132	-0.026302605	 0.14706
H	-0.6011498613	 1.9569023829	 0.7366731706	 0.121677
H	-0.3677843925	 1.9212730785	-0.9950375093	 0.121674
H	 3.3719849828	 1.6536584339	 0.3965128721	 0.123609
H	 1.5626148428	-2.9132170974	 0.2465684189	 0.130423
H	-0.9370675544	-3.0347931929	-0.0868739855	 0.265837
H	-2.0764432508	-0.8138819601	-0.2876137427	 0.125033
91.0288	222.381	317.2945	412.5023	428.3701	492.0335	511.5793	619.6513	626.0793	639.2108	707.1348	726.204	748.954	886.0084	920.0607	943.9129	963.4123	1023.6974	1072.1489	1089.3735	1151.4077	1195.8984	1244.684	1247.9413	1334.5501	1351.6611	1410.3912	1444.8676	1471.0664	1494.5325	1569.6811	1641.5629	1742.0125	3002.2558	3015.1199	3174.7476	3262.3657	3284.6148	3697.5042
C1N=COC2=CNC=C12	C1N=COc2c[nH]cc12	
InChI=1S/C6H6N2O/c1-5-2-8-4-9-6(5)3-7-1/h1,3-4,7H,2H2	InChI=1S/C6H6N2O/c1-5-2-8-4-9-6(5)3-7-1/h1,3-4,7H,2H2
