16
gdb 74051	3.0303	1.39558	0.9656	7.5529	78.32	-0.2257	-0.0479	0.1777	1156.4347	0.12684	-434.112073	-434.103933	-434.102988	-434.144773	30.971	
N	 0.0438400134	 1.3756246215	 0.0928969255	-0.556953
C	-0.027263956	 0.0164951055	-0.0178500892	 0.367138
C	-1.1910863705	-0.6795073814	-0.0009792016	-0.292955
C	-1.2199403345	-2.1244957931	-0.0004918589	 0.342165
O	-2.2407092146	-2.7844713881	 0.1104014718	-0.364478
C	 0.1119556869	-2.8535861252	-0.153769571	 0.244659
N	 0.2102352125	-4.1229126312	-0.105904432	-0.520288
N	 1.2130641984	-2.0664779529	-0.4254322317	-0.340432
C	 1.3099416666	-0.6769768505	-0.0502389848	-0.240348
H	 0.8714079539	 1.8507147519	-0.228026303	 0.263418
H	-0.8101511452	 1.9052691553	 0.0227895631	 0.269172
H	-2.1478045997	-0.1687788679	 0.0550635152	 0.092097
H	-0.7335108743	-4.494754982	 0.0267565048	 0.234334
H	 2.0797682798	-2.5859934706	-0.431307831	 0.247732
H	 1.9620434136	-0.1570093797	-0.7669079796	 0.118794
H	 1.7737642598	-0.5376972715	 0.9425218724	 0.135945
88.817	124.1158	179.763	330.0269	353.1639	360.8685	414.1558	437.4257	443.9254	511.0497	558.2921	593.8271	615.1514	681.3467	791.7036	804.8449	884.4152	901.5642	921.3221	1014.9442	1063.0239	1098.5614	1212.0255	1244.4576	1257.095	1298.3641	1353.4657	1426.5449	1438.8372	1483.9061	1515.2352	1645.5112	1684.2844	1716.0733	1753.6482	2945.4805	3005.7786	3173.2189	3454.2643	3594.3811	3594.4711	3706.9661
NC1=CC(=O)C(=N)NC1	NC1=CC(=O)[C]([NH])NC1	
InChI=1S/C5H7N3O/c6-3-1-4(9)5(7)8-2-3/h1H,2,6H2,(H2,7,8)	InChI=1S/C5H7N3O/c6-3-1-4(9)5(7)8-2-3/h1H,2,6H2,(H2,7,8)
