18
gdb 73919	2.59917	1.43727	1.00122	4.5139	82.03	-0.2416	-0.0527	0.1889	1181.3879	0.147872	-401.95281	-401.944555	-401.943611	-401.985651	31.129	
C	-0.0384918154	 1.5134382311	 0.1265895601	-0.512024
C	-0.0250226984	 0.0247004818	 0.003178548	 0.275762
C	 0.0059562854	-0.7498747985	-1.10607165	 0.114967
C	-0.0194521567	-2.2334844412	-0.7789448358	-0.304137
C	 0.020436903	-2.2546148536	 0.7417948847	-0.051842
N	 1.245225452	-1.6543280355	 1.3035653008	-0.329516
C	-0.0080429049	-0.8433773004	 1.218832502	-0.140301
C	 0.0606598137	-0.2868615298	-2.4890252554	 0.072669
O	 0.1018253676	-1.0320338374	-3.4474153247	-0.280207
H	 0.8670926756	 1.8580290218	 0.6415112954	 0.147973
H	-0.1018501359	 2.0255231572	-0.8345498785	 0.138609
H	-0.8877433545	 1.8371878278	 0.741345537	 0.135344
H	-0.9267882035	-2.7077021464	-1.1708893621	 0.117844
H	 0.8315933713	-2.7593149595	-1.2229291944	 0.13583
H	-0.4690869708	-3.0507870936	 1.2918890067	 0.093899
H	 1.3468727691	-1.9755924394	 2.2653879679	 0.232061
H	-0.4855894918	-0.5230896604	 2.1391750232	 0.092099
H	 0.0537692343	 0.8148738562	-2.6328477848	 0.060969
106.4666	157.4657	179.7933	200.5506	218.9585	303.7551	379.3744	411.1361	516.074	581.9121	612.4359	700.6443	780.9199	825.2833	846.1534	876.5587	923.1396	956.8832	978.6721	1020.086	1055.734	1073.4843	1085.1944	1134.0368	1169.9007	1183.2921	1201.4312	1241.175	1270.7509	1345.7959	1384.2192	1402.7217	1414.8278	1433.7185	1465.4422	1477.4529	1482.531	1677.4025	1767.0637	2893.9765	3024.2491	3044.7451	3069.737	3086.7467	3135.4822	3162.1163	3173.6609	3475.3001
CC1=C(CC2NC12)C=O	CC1=C(C[C@H]2N[C@@H]12)C=O	
InChI=1S/C7H9NO/c1-4-5(3-9)2-6-7(4)8-6/h3,6-8H,2H2,1H3	InChI=1S/C7H9NO/c1-4-5(3-9)2-6-7(4)8-6/h3,6-8H,2H2,1H3/t6-,7+/m1/s1
