21
gdb 120826	4.40219	0.60729	0.56712	2.4317	81.76	-0.2466	-0.0215	0.2251	1955.5933	0.179793	-424.206359	-424.195937	-424.194993	-424.243586	35.889	
C	 0.0657136523	 1.3295054113	 0.3892317654	-0.226685
O	-0.0258667746	-0.0727163543	 0.3184736605	-0.230076
C	-1.2553129497	-0.5120849965	-0.2216659182	-0.073089
C	-1.2235677536	-2.0148317887	-0.3082271186	-0.028887
C	-1.5693034788	-2.8681290241	 0.8848871192	-0.284566
C	-2.4765387166	-2.8639448308	-0.3252237665	-0.026351
C	-3.8818129605	-2.2895985826	-0.2591610262	-0.30358
C	-4.8652744265	-3.3090261068	 0.2812331657	 0.165844
O	-5.9024995161	-3.6131917534	-0.2483930563	-0.238839
H	 1.0450604968	 1.5732925507	 0.8079345986	 0.128248
H	-0.0227991266	 1.7971446632	-0.6046255836	 0.103486
H	-0.7144817559	 1.7596461828	 1.0381053189	 0.101826
H	-2.0904077375	-0.1653699073	 0.4098533116	 0.07892
H	-1.4082480213	-0.071371131	-1.2226573157	 0.087634
H	-0.4145731444	-2.3792983481	-0.934887399	 0.097551
H	-0.9712452871	-3.7481774686	 1.091576333	 0.11844
H	-1.9186739097	-2.3514095558	 1.7738689436	 0.114265
H	-2.4086966296	-3.7423291016	-0.9621862048	 0.098426
H	-3.9072567226	-1.4293827338	 0.422953262	 0.11855
H	-4.2388120036	-1.9528645984	-1.2375582315	 0.122109
H	-4.5479516743	-3.7819240161	 1.2393816221	 0.076774
49.1075	53.7378	84.1618	90.1089	116.6401	198.7704	230.0634	259.9972	307.6047	397.1958	464.5649	492.2461	543.6247	776.8395	803.0644	844.1361	898.4928	922.6737	946.1999	986.6653	1029.6113	1063.0981	1071.8341	1089.5985	1142.0197	1152.3061	1162.3065	1179.0493	1197.6123	1224.4045	1246.966	1251.4038	1279.1219	1294.5412	1374.4375	1412.1232	1424.2284	1446.8937	1458.305	1481.5151	1485.3931	1495.6065	1503.7836	1526.1851	1835.5213	2866.5915	2944.7299	2966.8979	2974.2551	3007.9947	3027.689	3089.7997	3114.648	3130.4036	3135.3348	3151.516	3216.1674
COCC1CC1CC=O	COC[C@H]1C[C@H]1CC=O	
InChI=1S/C7H12O2/c1-9-5-7-4-6(7)2-3-8/h3,6-7H,2,4-5H2,1H3	InChI=1S/C7H12O2/c1-9-5-7-4-6(7)2-3-8/h3,6-7H,2,4-5H2,1H3/t6-,7-/m1/s1
