19
gdb 77729	2.74515	1.58427	1.49937	0.613	73.9	-0.2165	0.0664	0.2829	989.3941	0.160283	-422.976135	-422.968413	-422.967469	-423.00789	30.949	
O	-0.2010260991	 1.3881216339	 0.1339198256	-0.422996
C	-0.157969709	 0.0001496592	 0.0062204483	 0.013274
C	-1.4516622511	-0.7641295271	 0.0142892815	 0.16858
C	-2.5653364103	-0.0076970117	-0.7430682506	-0.276292
C	-1.6901317222	-0.0206984966	-2.0413247912	-0.28635
C	-0.5779119559	-0.720333362	-1.2429792563	 0.261439
O	-0.022938267	-1.9717544347	-1.492965869	-0.285564
C	-0.8286429109	-2.94372802	-0.7920528709	-0.081354
C	-1.4411424836	-2.2192186273	 0.4492832125	-0.326756
H	 0.5169327888	 1.7556187131	-0.3928947059	 0.290375
H	 0.6584630475	-0.4965565982	 0.5316994744	 0.092053
H	-3.4802082271	-0.5962641486	-0.840755855	 0.099703
H	-2.8143179622	 0.9749401967	-0.3384411986	 0.117792
H	-2.0989251839	-0.6748634581	-2.8138953439	 0.109915
H	-1.4376235576	 0.9440159142	-2.4900630819	 0.096223
H	-1.6255137117	-3.3116712501	-1.4548502704	 0.097866
H	-0.1798905422	-3.7862803091	-0.5361729734	 0.110738
H	-0.8214310158	-2.3789337648	 1.337227526	 0.111768
H	-2.4431021768	-2.5964487989	 0.6727545488	 0.109585
139.5489	195.7242	223.5612	254.5636	308.4182	345.3931	385.3466	489.257	556.9837	645.3472	691.106	755.7857	765.3743	772.7723	825.5546	855.2003	916.1718	944.4165	963.5534	972.3302	1015.6509	1029.5873	1086.7166	1134.3245	1167.8402	1189.8293	1220.8271	1228.2616	1238.016	1245.9184	1258.152	1289.5113	1306.0342	1309.6082	1321.938	1376.9239	1453.4612	1467.3637	1482.6887	1496.6328	1517.6514	2997.0662	3050.1037	3057.6022	3069.2948	3087.8599	3099.7875	3103.429	3112.3246	3130.4445	3804.8759
OC1C23CCC12OCC3	O[C@H]1[C@@]23CC[C@@]12OCC3	
InChI=1S/C7H10O2/c8-5-6-1-2-7(5,6)9-4-3-6/h5,8H,1-4H2	InChI=1S/C7H10O2/c8-5-6-1-2-7(5,6)9-4-3-6/h5,8H,1-4H2/t5-,6-,7+/m0/s1
