21
gdb 122930	5.39753	0.51174	0.48117	3.8108	77.06	-0.2538	-0.027	0.2268	2225.2808	0.178126	-461.356245	-461.344891	-461.343947	-461.394661	38.206	
C	-0.2368089918	 1.3796168488	 0.0764949524	-0.404984
C	-0.0344761006	-0.1332031364	-0.013693482	 0.045398
O	 0.5984131697	-0.5728987168	-1.197401737	-0.262942
C	-0.2104773538	-0.554395266	-2.3589412945	-0.06343
C	 0.5620474363	-1.2278205005	-3.4843753305	-0.181978
C	-0.214088988	-1.2539704665	-4.7947623999	-0.072535
O	 0.5979013053	-1.9016801439	-5.7606416128	-0.418338
C	 0.8254183082	-0.6607587792	 1.1322565631	 0.148023
O	 0.8000042191	-0.2265550948	 2.253293034	-0.245698
H	 0.7049344026	 1.8961956622	-0.13053693	 0.131075
H	-0.9921780057	 1.7284865953	-0.6317782711	 0.117802
H	-0.5581238547	 1.6362931768	 1.0887235202	 0.144705
H	-1.0147982248	-0.6378576113	 0.0925778711	 0.092609
H	-1.1578927611	-1.0861205256	-2.1636922733	 0.08675
H	-0.4708335138	 0.4786501757	-2.6378413092	 0.094091
H	 1.5091383372	-0.7003733436	-3.6391807522	 0.119601
H	 0.8098506591	-2.2535872211	-3.1921611487	 0.116813
H	-1.1694275958	-1.786836868	-4.6549534146	 0.085634
H	-0.4599596345	-0.2250033745	-5.1057400045	 0.086256
H	 0.1174975	-1.9220942397	-6.5933073442	 0.286863
H	 1.4772491269	-1.5104535309	 0.8335762137	 0.094287
44.3167	46.1736	74.5533	102.1451	115.2398	137.5996	213.7881	238.1976	257.8232	264.8713	318.4447	404.5785	467.1074	503.567	620.1229	778.2314	832.3266	889.3692	911.5451	932.1668	1025.7253	1055.99	1075.4663	1102.7818	1127.9373	1138.201	1172.8785	1180.4671	1230.2252	1244.1188	1303.6522	1305.1503	1315.896	1331.6574	1340.4924	1384.9219	1403.33	1441.1729	1466.6852	1489.288	1496.8171	1499.2118	1523.0496	1534.4436	1840.7001	2905.2997	2918.858	2951.4675	2959.4056	2979.626	2994.1882	3050.6416	3052.7331	3099.4198	3125.5277	3136.8568	3831.6392
CC(OCCCO)C=O	C[C@@H](OCCCO)C=O	
InChI=1S/C6H12O3/c1-6(5-8)9-4-2-3-7/h5-7H,2-4H2,1H3	InChI=1S/C6H12O3/c1-6(5-8)9-4-2-3-7/h5-7H,2-4H2,1H3/t6-/m1/s1
