16
gdb 46041	2.89448	1.48268	1.24663	2.9676	65.24	-0.2673	0.021	0.2883	1028.0579	0.124755	-475.005235	-474.997572	-474.996628	-475.038046	28.211	
N	 0.3835739095	 1.0345779683	 0.3471945266	-0.534296
C	 0.2292019217	-0.1512150802	-0.0401087925	 0.400357
C	-0.8182106593	-1.1304861642	 0.4406065735	-0.170666
O	-0.7497330642	-2.1960158681	-0.5018300575	-0.262161
C	 0.5368335602	-2.1484852619	-1.0762387085	 0.170468
O	 0.9698227605	-0.7941781362	-0.9987841045	-0.240951
C	 1.500914192	-3.0689075553	-0.350535487	 0.040835
C	 2.8983598992	-2.7000976561	-0.1037515503	-0.171835
O	 1.9177821464	-2.6299796833	 0.9383494935	-0.229552
H	 1.1723345804	 1.4789494814	-0.1236739481	 0.22856
H	-0.5862339353	-1.468547295	 1.4575358349	 0.147778
H	-1.8202954579	-0.6980022408	 0.4200145805	 0.145422
H	 0.4548467044	-2.4317721861	-2.1318046016	 0.108363
H	 1.2262972553	-4.1223280979	-0.4141776642	 0.111381
H	 3.6427571455	-3.4852553446	 0.0127382342	 0.123511
H	 3.2637390916	-1.73946109	-0.456740199	 0.132787
81.612	97.3556	147.3539	247.4581	266.1465	419.1979	481.0622	523.661	603.3347	678.3121	790.2218	817.5249	871.4492	887.4697	916.2667	934.0345	975.6922	1005.8418	1029.3708	1055.7897	1071.5837	1100.2242	1158.5956	1167.8953	1184.2372	1212.9978	1280.1094	1284.0131	1343.0275	1368.4356	1388.5998	1432.2646	1497.1606	1521.3495	1805.9398	3041.8206	3053.845	3101.2384	3115.5741	3116.9474	3198.764	3487.1556
N=C1COC(O1)C1CO1	[NH][C]1CO[C@@H](O1)[C@H]1CO1	
InChI=1S/C5H7NO3/c6-4-2-8-5(9-4)3-1-7-3/h3,5-6H,1-2H2	InChI=1S/C5H7NO3/c6-4-2-8-5(9-4)3-1-7-3/h3,5-6H,1-2H2/t3-,5+/m1/s1
