16
gdb 92864	2.96656	1.72661	1.28167	2.4258	65.18	-0.2554	0.0154	0.2707	969.0316	0.125907	-475.014788	-475.007461	-475.006517	-475.04662	27.726	
O	-0.052168612	 1.4718615355	 0.0803375637	-0.420499
C	 0.0301592324	 0.0669678076	-0.0061200022	 0.045008
C	 0.4951628393	-0.5898588555	 1.3467043787	-0.191907
N	-0.699447258	-0.6607321596	 2.2239751375	-0.316062
C	-1.6722753	-0.5823462614	 1.4206779124	 0.428354
O	-2.983122387	-0.4057648571	 1.6446671359	-0.256836
C	-3.5456727139	-0.0485403323	 0.3571192066	 0.016826
O	-2.4859656116	 0.2853508086	-0.5115604112	-0.254657
C	-1.3962733418	-0.4953461102	-0.0509687064	 0.024137
H	 0.8189150735	 1.8076492195	 0.3140978474	 0.28959
H	 0.6478600094	-0.2511980862	-0.8571492923	 0.071663
H	 0.9225320806	-1.5875889414	 1.1772576608	 0.108981
H	 1.2711827788	 0.0160637991	 1.828053553	 0.105887
H	-4.1171666633	-0.9139299417	-0.0101840738	 0.11226
H	-4.1924689742	 0.8213479965	 0.4883614334	 0.141682
H	-1.3912408524	-1.4896697113	-0.5276922735	 0.095571
120.9747	155.733	238.8726	247.9191	274.046	374.2058	475.7776	512.332	662.1747	699.5358	740.9601	815.6088	824.2142	870.827	937.1541	973.3104	984.383	1030.4259	1053.8092	1096.5563	1144.5989	1147.4351	1186.4272	1204.3746	1223.2565	1266.2514	1295.1567	1324.2675	1339.4151	1373.119	1429.4275	1445.9665	1486.9072	1535.5999	1781.2486	2968.2879	2996.1815	3006.7593	3022.4355	3063.7719	3114.6705	3822.2383
OC1CN=C2OCOC12	O[C@H]1C[N][C]2OCO[C@@H]12	
InChI=1S/C5H7NO3/c7-3-1-6-5-4(3)8-2-9-5/h3-4,7H,1-2H2	InChI=1S/C5H7NO3/c7-3-1-6-5-4(3)8-2-9-5/h3-4,7H,1-2H2/t3-,4-/m0/s1
