19
gdb 72038	2.33678	2.06924	1.54723	1.749	73.73	-0.2305	0.0891	0.3197	956.3594	0.159879	-423.033338	-423.025676	-423.024731	-423.064945	30.801	
C	 0.0730284469	 1.4856601279	 0.0228564133	-0.503692
C	-0.0017379461	-0.0058213234	 0.0284727963	 0.377071
O	 0.972604727	-0.6707944625	-0.7681319608	-0.286468
C	 0.5424885752	-2.0070801662	-0.5480033522	 0.140132
C	 0.5711938339	-2.1418608212	 0.9900338901	-0.241589
C	-0.3197567158	-0.9297266049	 1.2087128076	-0.256882
C	-1.2257575284	-0.8958263278	-0.0264878413	 0.377012
C	-2.6653207857	-0.5054632257	-0.1000512985	-0.50369
O	-0.8459308631	-1.9929416806	-0.8500072104	-0.286464
H	 1.0182022341	 1.8324201211	 0.4531727786	 0.131372
H	-0.0008523615	 1.873057496	-0.9982419642	 0.134316
H	-0.7431726023	 1.9127453419	 0.6121687036	 0.122957
H	 1.0808388805	-2.7084256192	-1.1797417646	 0.095514
H	 0.1293340257	-3.0816752002	 1.3284622599	 0.110016
H	 1.5796222893	-2.0274004361	 1.3937504758	 0.110004
H	-0.6289991652	-0.5642467736	 2.1783634186	 0.091748
H	-2.8554287876	 0.3768212053	 0.5174505059	 0.122957
H	-2.9508013563	-0.2718389937	-1.1306313123	 0.134314
H	-3.3097613705	-1.314588877	 0.2588104544	 0.131372
184.8902	191.6358	202.6313	220.3191	303.3005	333.2111	442.251	578.0996	579.0443	615.3709	655.36	719.8179	731.4783	844.5956	889.1444	891.6993	905.4618	915.4238	935.8577	944.0663	982.4724	1043.7918	1077.5596	1111.1095	1123.529	1135.3844	1154.9821	1174.0139	1197.3347	1287.241	1311.0017	1317.4585	1339.3099	1414.3859	1418.9077	1462.0564	1473.9619	1478.292	1483.2914	1496.4117	1511.8036	3036.6449	3038.8661	3072.7106	3101.8111	3102.7095	3114.5916	3118.1184	3129.6041	3173.3443	3212.4159
CC12OC3CC1C2(C)O3	C[C@@]12O[C@H]3C[C@@H]1[C@]2(C)O3	
InChI=1S/C7H10O2/c1-6-4-3-5(8-6)9-7(4,6)2/h4-5H,3H2,1-2H3	InChI=1S/C7H10O2/c1-6-4-3-5(8-6)9-7(4,6)2/h4-5H,3H2,1-2H3/t4-,5+,6+,7-
