16
gdb 48697	2.97829	1.19411	0.99851	2.7077	77.31	-0.2529	-0.0372	0.2157	1192.252	0.122396	-400.673166	-400.664904	-400.66396	-400.706274	30.94	
O	-0.1375547459	 0.0095397648	 0.1084390644	-0.256322
C	-0.0027969451	 1.1886472555	-0.1095204938	 0.072111
C	 1.271928584	 1.9127910614	 0.0597889207	 0.260837
C	 1.3281491044	 3.3723165052	 0.338624939	-0.271646
N	 1.7295303307	 2.9418564732	-0.9964865781	-0.159642
C	 3.1403333397	 2.3750615997	-0.8322917517	-0.144828
C	 2.6453713082	 1.2689788364	 0.1534163128	-0.33498
C	 3.6988196586	 1.9064077176	-2.0823084354	 0.316984
C	 4.1755265247	 1.4992077708	-3.1072496891	-0.407639
H	-0.8435790325	 1.8239725457	-0.4675949855	 0.082084
H	 0.3905864968	 3.920681216	 0.3425510906	 0.135764
H	 2.0758075459	 3.7392581706	 1.0398528406	 0.125284
H	 3.8056449951	 3.1193606589	-0.380208408	 0.113047
H	 3.1121789091	 1.2351239355	 1.1401632134	 0.115811
H	 2.66515611	 0.2762722009	-0.2944702342	 0.150331
H	 4.5933764863	 1.1450736277	-4.0172467158	 0.202802
69.5257	138.9634	169.2901	204.0673	263.6643	349.1536	433.7088	474.6249	494.6163	516.66	624.3834	664.9938	689.7821	748.9592	778.3688	852.5094	878.6782	947.8031	953.3443	1022.1631	1050.5096	1085.0514	1117.2453	1127.9354	1153.1869	1228.7846	1242.8872	1301.4484	1353.0075	1364.363	1428.4764	1486.9248	1500.8521	1810.9675	2242.9995	2886.8598	3040.6922	3079.2527	3098.2924	3153.5625	3193.8284	3503.1204
O=CC12CN1C(C2)C#C	O=C[C@]12CN1[C@@H](C2)C#C	
InChI=1S/C7H7NO/c1-2-6-3-7(5-9)4-8(6)7/h1,5-6H,3-4H2	InChI=1S/C7H7NO/c1-2-6-3-7(5-9)4-8(6)7/h1,5-6H,3-4H2/t6-,7+,8?/m1/s1
