17
gdb 28274	5.0132	1.18312	0.96863	1.597	83.88	-0.2007	-0.0019	0.1988	1189.4342	0.137828	-384.733048	-384.725772	-384.724828	-384.764565	28.753	
C	-0.0199829146	 1.4808454111	 0.0454887376	-0.485025
C	-0.0005533402	-0.0120117072	-0.0190036922	 0.300447
C	-0.0343818494	-0.7828638368	-1.1263432639	-0.329301
C	 0.0025237496	-2.1873158348	-0.7462793848	 0.267316
C	 0.0033246938	-3.4665943525	-1.2004596205	-0.169558
O	 0.0600260194	-4.3269914964	-0.1355433763	-0.16087
C	 0.0955356903	-3.5730037675	 1.007503765	-0.156194
C	 0.0625640215	-2.2599304356	 0.6895512495	 0.206454
C	 0.0644328442	-0.8654475006	 1.2507689047	-0.466847
H	 0.8767495845	 1.8717068881	 0.543876881	 0.126787
H	-0.0719558799	 1.9234067422	-0.952744178	 0.126015
H	-0.8789139539	 1.8454506358	 0.623851454	 0.126671
H	-0.0818689906	-0.4077467038	-2.1414853094	 0.096809
H	-0.0293862625	-3.9334347118	-2.1704471041	 0.133337
H	 0.1417355357	-4.1353991781	 1.9255566615	 0.133719
H	 0.9632949681	-0.6355342583	 1.8384915732	 0.125115
H	-0.789988906	-0.6620570638	 1.9101831127	 0.125125
131.1406	170.4302	263.9481	269.9387	333.8552	454.4142	479.7818	521.5602	595.4597	694.6364	713.9724	724.5004	757.7804	792.2242	859.1267	863.4812	929.3287	944.87	1007.5538	1049.5024	1057.9819	1132.6901	1139.0101	1161.2454	1164.8246	1236.1073	1277.1446	1287.7368	1323.012	1389.0172	1413.5064	1457.2601	1476.7058	1486.4342	1611.7497	1647.5223	1682.8313	3012.5679	3019.198	3041.9583	3056.8302	3111.6663	3205.4947	3270.8272	3278.8648
CC1=CC2=COC=C2C1	CC1=Cc2cocc2C1	
InChI=1S/C8H8O/c1-6-2-7-4-9-5-8(7)3-6/h2,4-5H,3H2,1H3	InChI=1S/C8H8O/c1-6-2-7-4-9-5-8(7)3-6/h2,4-5H,3H2,1H3
