18
gdb 108778	2.78127	1.21381	0.86919	5.0513	79.26	-0.2369	-0.023	0.2139	1300.111	0.148446	-439.103244	-439.09462	-439.093676	-439.136875	31.828	
O	 0.0459825073	 1.4180375692	 0.0011968131	-0.407297
C	-0.0050451822	 0.009466151	-0.0382447246	-0.155676
C	-1.4255310025	-0.4694931107	 0.00761888	 0.244571
C	-2.4754353949	 0.3506517149	 0.1238174899	-0.186441
C	-3.856865546	-0.1370328457	 0.0837833653	 0.375549
N	-4.8369135455	 0.6699390379	 0.0061285612	-0.522739
O	-4.0536637053	-1.4936729013	 0.0703137293	-0.260132
C	-2.9834323202	-2.3106427348	 0.5515867308	-0.086059
C	-1.6534199314	-1.9553334738	-0.1029198025	-0.312549
H	 0.9679155817	 1.68891823	-0.0105188529	 0.294346
H	 0.4690113812	-0.3913859963	-0.9530543629	 0.102057
H	 0.5433200478	-0.4410162674	 0.8093810603	 0.100399
H	-2.355439633	 1.4229876569	 0.1920847054	 0.134308
H	-5.7131085136	 0.1437330614	-0.0236443917	 0.216441
H	-2.9021695191	-2.1953727041	 1.6411999666	 0.109831
H	-3.2813190919	-3.3393223782	 0.3358283084	 0.11689
H	-1.6509365049	-2.2628079102	-1.1578161268	 0.127513
H	-0.8481763175	-2.5165042287	 0.3879564511	 0.108987
75.7933	132.3115	160.1101	188.4769	217.9768	258.369	372.5404	430.5129	466.1373	510.3154	537.2161	665.9589	699.9469	803.4879	861.8338	896.5196	921.6006	929.5549	1005.6564	1022.8214	1058.7981	1088.6347	1095.1594	1144.7817	1157.6632	1219.057	1230.9628	1260.2633	1288.1446	1299.9953	1355.272	1382.0996	1434.8556	1461.9163	1469.8712	1501.2343	1507.7923	1700.9174	1736.1609	2933.3045	2945.8442	3010.7948	3016.4348	3054.1666	3102.7535	3239.9242	3461.5608	3844.6984
OCC1=CC(=N)OCC1	OC[C]1C=C([NH])OCC1	
InChI=1S/C6H9NO2/c7-6-3-5(4-8)1-2-9-6/h3,7-8H,1-2,4H2	InChI=1S/C6H9NO2/c7-6-3-5(4-8)1-2-9-6/h3,7-8H,1-2,4H2
