16
gdb 69037	3.03821	1.35835	1.13728	1.5025	71.44	-0.2584	-0.0485	0.2098	1077.7121	0.12275	-437.895943	-437.887488	-437.886544	-437.929008	31.055	
C	 0.0108943396	 1.4643123047	 0.3005502356	-0.494673
C	 0.0551108889	-0.0117744519	 0.0480639474	 0.110361
C	-0.8610625097	-1.0150826832	 0.7198508562	-0.354601
C	 0.6207033376	-1.156830801	 0.9420415798	 0.208346
N	 1.2985034882	-1.7170390911	-0.2262526935	-0.404582
C	 0.7597168929	-0.7453484791	-1.0953217635	 0.389363
O	 0.8477671096	-0.5956218249	-2.2786105406	-0.329021
C	 1.3033118777	-0.9235635936	 2.2240637172	 0.088913
O	 0.759434501	-0.4435404631	 3.1921696871	-0.271433
H	 0.9598540578	 1.9411547486	 0.0393418092	 0.139505
H	-0.777301679	 1.9311961965	-0.2989546971	 0.144733
H	-0.1987481847	 1.6654062814	 1.3552514373	 0.150238
H	-1.4216019224	-0.6212411929	 1.5625095047	 0.153803
H	-1.3663794464	-1.7801636736	 0.1380036291	 0.129867
H	 1.3017054778	-2.7067275224	-0.4490705323	 0.248372
H	 2.380324681	-1.1950585246	 2.2238654134	 0.090811
97.7338	134.7254	170.6616	197.798	219.8466	284.7016	343.8128	420.2482	476.5726	542.6064	605.1607	686.2354	708.2433	728.4732	782.4432	824.3163	917.2626	970.1528	982.2561	1038.6033	1064.4854	1099.9683	1108.1499	1182.393	1224.1266	1321.2581	1332.6039	1365.6651	1417.3619	1422.7667	1477.8239	1485.5771	1495.0802	1794.3696	1902.4718	2910.9187	3040.2038	3107.3621	3118.5226	3121.684	3216.8803	3539.4182
CC12CC1(NC2=O)C=O	C[C@]12C[C@]1(NC2=O)C=O	
InChI=1S/C6H7NO2/c1-5-2-6(5,3-8)7-4(5)9/h3H,2H2,1H3,(H,7,9)	InChI=1S/C6H7NO2/c1-5-2-6(5,3-8)7-4(5)9/h3H,2H2,1H3,(H,7,9)/t5-,6+/m1/s1
