19
gdb 113066	3.19362	1.02406	0.84524	2.8178	72.15	-0.2539	-0.0401	0.2138	1367.5821	0.1585	-460.161906	-460.152612	-460.151668	-460.196554	33.968	
O	 0.100663624	 1.2656641897	 0.5114671182	-0.41957
C	 0.0415290761	-0.0472497826	-0.0049361795	-0.07875
C	-1.4067840946	-0.5315284056	-0.0959188862	-0.108499
C	-1.7482700866	-2.0436960891	-0.320880253	-0.304119
C	-2.7232540579	-2.0192392034	 0.9049579521	-0.108499
C	-2.6244022094	-3.0599527525	 2.0218991802	-0.07875
O	-3.3709991906	-2.6575770446	 3.150880648	-0.419571
C	-2.1060002578	-0.6673409483	 1.2544158238	 0.39318
O	-1.9938491344	-0.0655334259	 2.2964621934	-0.346443
H	-0.3351585145	 1.2469859573	 1.3735397729	 0.297772
H	 0.504641487	-0.0225096004	-0.9968904077	 0.115039
H	 0.6230808295	-0.7547606243	 0.6095362152	 0.087427
H	-1.9742201268	 0.1232038361	-0.7663597409	 0.116859
H	-2.189531425	-2.300818411	-1.2834663275	 0.118844
H	-0.8828232952	-2.6882573791	-0.1406249115	 0.117985
H	-3.7685592874	-1.9045346561	 0.5978279201	 0.116859
H	-3.0335777042	-4.0209621022	 1.6931213979	 0.115039
H	-1.5628958641	-3.2250798415	 2.2714744389	 0.087427
H	-3.0276216581	-1.7957006266	 3.4205471955	 0.297772
54.4633	101.5047	130.8951	182.1879	187.6239	275.4973	280.1238	359.2904	425.1631	492.1265	504.501	553.0953	618.9469	703.2921	757.2493	877.2354	891.9924	936.6196	975.7325	1020.4617	1060.269	1061.1802	1076.109	1086.9191	1130.5437	1141.2773	1171.352	1208.5562	1239.2989	1243.6281	1256.7005	1321.0559	1325.536	1382.2145	1386.2538	1437.8155	1443.1333	1487.211	1511.414	1513.2629	1831.3981	2963.7267	2966.0565	3056.7308	3058.1232	3067.3661	3072.7283	3073.7063	3137.4638	3766.2082	3768.2907
OCC1CC(CO)C1=O	OC[C@H]1C[C@@H](CO)C1=O	
InChI=1S/C6H10O3/c7-2-4-1-5(3-8)6(4)9/h4-5,7-8H,1-3H2	InChI=1S/C6H10O3/c7-2-4-1-5(3-8)6(4)9/h4-5,7-8H,1-3H2/t4-,5+
