23
gdb 92546	3.11602	1.28502	1.0282	0.248	91.39	-0.2326	0.0267	0.2593	1260.2729	0.208378	-351.168642	-351.16039	-351.159446	-351.201163	33.493	
C	-0.3086501351	 1.5293029148	 0.0405407369	-0.401357
C	-0.0262969842	 0.0206676142	 0.0078589708	-0.021725
C	 0.7489330175	-0.3809495349	-1.2606626169	-0.2042
C	 1.1261139145	-1.8646337405	-1.2623716328	-0.021293
C	 2.4178585904	-2.2045309215	-2.0601701783	-0.236139
C	 3.2258756074	-2.1632500154	-0.7326885751	-0.232701
C	 1.8709334226	-2.2717284312	 0.0435579969	-0.007624
C	 1.6114548201	-1.4259341255	 1.2471317062	-0.100203
C	 0.7362653629	-0.4193632456	 1.2401217493	-0.043438
H	 0.6258507141	 2.1016015516	 0.0597676517	 0.115273
H	-0.8773845315	 1.8434197256	-0.8408757485	 0.1091
H	-0.8863578452	 1.8051457187	 0.9292705699	 0.109907
H	-0.999546425	-0.4958022837	-0.0037945393	 0.079623
H	 0.1678234535	-0.1363603381	-2.1582515074	 0.087453
H	 1.6605480569	 0.2303349351	-1.3035889082	 0.092038
H	 0.2460689632	-2.4706295995	-1.4998031291	 0.058613
H	 2.3846232715	-3.2109768568	-2.4866889539	 0.096604
H	 2.7102385641	-1.5053140005	-2.8486173259	 0.092861
H	 3.9617537405	-2.9536558878	-0.5672875824	 0.093551
H	 3.7109757669	-1.1976241509	-0.5685014823	 0.102418
H	 1.6793364227	-3.3251168307	 0.2819631615	 0.073805
H	 2.1494536987	-1.6727034171	 2.1609150256	 0.079781
H	 0.5542430337	 0.1444731696	 2.1533128013	 0.077652
91.3801	163.4223	221.3121	253.0894	269.0921	362.0491	372.9424	438.7081	494.4397	555.6739	647.5337	717.7441	736.958	774.0494	835.1237	853.9168	879.5233	940.4875	947.2495	956.8688	979.4082	999.2918	1003.4333	1050.6016	1065.9349	1092.2948	1107.7216	1114.8515	1167.6785	1181.5044	1211.1548	1247.6218	1252.2102	1259.0425	1271.4793	1286.0444	1309.314	1325.6617	1353.3557	1356.9479	1382.4903	1404.6826	1422.8492	1480.7199	1488.4516	1496.4255	1500.2891	1501.9335	1708.9838	2970.6766	3012.7472	3021.849	3026.1365	3040.3662	3051.4714	3061.5408	3062.8598	3094.1338	3096.6192	3098.4233	3117.7097	3127.3514	3151.681
CC1CC2CCC2C=C1	C[C@H]1C[C@H]2CC[C@H]2C=C1	
InChI=1S/C9H14/c1-7-2-3-8-4-5-9(8)6-7/h2-3,7-9H,4-6H2,1H3	InChI=1S/C9H14/c1-7-2-3-8-4-5-9(8)6-7/h2-3,7-9H,4-6H2,1H3/t7-,8-,9-/m1/s1
