17
gdb 27059	3.19303	1.1359	0.86367	4.4593	79.38	-0.2021	0.023	0.2251	1309.6944	0.136209	-418.041161	-418.032292	-418.031347	-418.075565	31.905	
C	 0.0716939295	 1.4625715449	-0.1070657603	-0.511877
C	 0.0176412602	-0.0263549258	-0.0857932341	 0.206531
C	-0.2244416676	-0.9274888	-1.0993265834	 0.259359
O	-0.5209388307	-0.5448889975	-2.3903904314	-0.218676
C	 0.1900664198	-1.1230503668	-3.3881436259	 0.106723
N	-0.1187768842	-0.8908930486	-4.5884381488	-0.439709
C	-0.1856346882	-2.2489267649	-0.5736684259	-0.257972
C	 0.0885787397	-2.1200593645	 0.7677229861	-0.078425
N	 0.2033393145	-0.7831347107	 1.0495870995	-0.293669
H	 1.0434171799	 1.8478415966	 0.2258767583	 0.125813
H	-0.0954035562	 1.8106710497	-1.1285241473	 0.157558
H	-0.698628685	 1.9159892425	 0.5290634201	 0.129526
H	 1.0038159496	-1.7586118077	-3.0184272922	 0.096111
H	 0.5196485365	-1.3843761836	-5.2089291469	 0.229447
H	-0.3575511149	-3.1677509581	-1.1113177571	 0.104969
H	 0.2035436759	-2.8645484525	 1.5383060663	 0.122573
H	 0.3932684712	-0.4010299031	 1.9594925531	 0.261718
50.5843	107.5254	110.7534	151.8952	225.3662	252.6024	376.3663	458.486	461.048	486.7376	637.7058	668.8739	680.8894	704.4742	807.6591	814.6546	826.6842	917.4598	977.9473	1043.7129	1050.3283	1064.4683	1098.5832	1121.5541	1181.8807	1272.1389	1283.1146	1325.0797	1407.7168	1412.2212	1442.208	1479.895	1485.1562	1496.7056	1523.5209	1647.3235	1743.9575	3017.8429	3050.0069	3062.4888	3131.031	3255.0452	3275.7062	3518.5692	3680.7663
CC1=C(OC=N)C=CN1	Cc1c(O[CH][NH])cc[nH]1	
InChI=1S/C6H8N2O/c1-5-6(9-4-7)2-3-8-5/h2-4,7-8H,1H3	InChI=1S/C6H8N2O/c1-5-6(9-4-7)2-3-8-5/h2-4,7-8H,1H3
