15
gdb 5588	3.48558	1.90291	1.25021	0.3228	64.76	-0.2047	0.0071	0.2118	942.5291	0.118715	-399.827892	-399.820019	-399.819075	-399.860749	27.284	
C	 0.0591104478	 1.458108981	-0.0147462264	-0.23796
O	 0.035480813	 0.0341518179	 0.0160143331	-0.273654
C	 0.5952063149	-0.5907644754	-1.0355537759	 0.285087
C	 0.6831834736	-1.9387984347	-1.2103925109	 0.214022
C	 0.2602318492	-3.1225610901	-0.427429844	-0.501714
O	 1.3279521161	-2.1230296953	-2.4180547863	-0.174008
C	 1.5776293585	-0.8850357858	-2.8757158952	 0.066851
N	 1.1688024039	 0.0724965209	-2.1034996201	-0.343946
H	 1.0853445392	 1.8381716577	-0.0456701916	 0.132917
H	-0.4823703446	 1.8460765949	-0.8835640701	 0.132933
H	-0.4307562707	 1.7817723439	 0.9048416046	 0.127995
H	-0.4497147593	-3.7489654673	-0.9802749982	 0.13673
H	 1.1106412684	-3.7549886388	-0.1465493913	 0.136732
H	-0.2279108798	-2.781780496	 0.4885982457	 0.149519
H	 2.0847929099	-0.8033490928	-3.8239328433	 0.148497
52.5303	133.3455	172.0974	196.3094	224.1366	303.6369	338.1641	525.2965	624.5447	639.2893	729.0746	750.5118	810.6205	956.2984	964.0771	1057.7255	1067.4681	1149.8423	1178.9285	1180.3936	1206.7003	1236.073	1325.7887	1388.8444	1427.5465	1475.4985	1482.8259	1483.2872	1495.3128	1504.0458	1550.9297	1701.6299	3024.5865	3032.9345	3072.5887	3099.5728	3128.9869	3142.1743	3276.1067
COC1=C(C)OC=N1	COc1c(C)ocn1	
InChI=1S/C5H7NO2/c1-4-5(7-2)6-3-8-4/h3H,1-2H3	InChI=1S/C5H7NO2/c1-4-5(7-2)6-3-8-4/h3H,1-2H3
