17
gdb 110766	2.54727	1.29654	1.11057	1.8968	70.95	-0.2351	0.0103	0.2455	1145.9398	0.135356	-455.091156	-455.082302	-455.081358	-455.125078	32.822	
O	-0.0048626716	 1.1681287222	-0.6422399905	-0.418043
C	 0.0395553044	-0.0271257986	 0.1270097149	-0.125289
C	-1.341655013	-0.6311198835	 0.1163813682	-0.053952
C	-1.9632299622	-1.3183135299	-1.0739982219	-0.104296
N	-1.0004266779	-2.1440537387	-1.8150004787	-0.346013
C	-0.6708996227	-2.8914363202	-0.6426632205	 0.268047
N	 0.0440345355	-3.9023470591	-0.3978733397	-0.546598
C	-1.6349139556	-2.1131477921	 0.2085794308	 0.30828
O	-2.391084824	-2.6052487564	 1.2394874164	-0.448413
H	 0.8288002856	 1.6327757335	-0.5217734975	 0.289121
H	 0.7719855683	-0.7386346277	-0.2829673004	 0.09056
H	 0.3358802072	 0.1728293907	 1.1673959369	 0.102054
H	-2.0783861988	-0.0636520354	 0.6826172021	 0.111868
H	-2.9169020896	-1.0528307099	-1.5097878104	 0.114836
H	-0.2518298004	-1.681567651	-2.3232254178	 0.238439
H	 0.5462968761	-4.2138029317	-1.2318781569	 0.21934
H	-2.5896239514	-3.5290314821	 1.045055835	 0.300057
51.4214	107.6187	172.9114	220.4336	265.9096	285.1767	313.161	329.4301	438.7122	489.3241	565.6149	668.7958	707.3807	735.5262	767.8948	807.7989	875.059	904.0305	946.2755	975.0774	996.4465	1053.9378	1069.0896	1094.513	1105.7755	1177.2303	1233.8805	1245.0692	1274.0704	1296.6394	1320.8883	1358.2349	1369.0375	1450.7952	1495.4919	1522.1976	1792.5782	2985.1956	3012.2756	3139.4318	3210.5342	3457.0456	3508.601	3792.8255	3825.2833
OCC1C2NC(=N)C12O	OC[C@H]1[C@H]2N[C]([NH])[C@@]12O	
InChI=1S/C5H8N2O2/c6-4-5(9)2(1-8)3(5)7-4/h2-3,8-9H,1H2,(H2,6,7)	InChI=1S/C5H8N2O2/c6-4-5(9)2(1-8)3(5)7-4/h2-3,8-9H,1H2,(H2,6,7)/t2-,3+,5+/m0/s1
