21
gdb 41944	2.20997	1.96037	1.58874	1.9631	76.19	-0.2398	0.0697	0.3095	975.0136	0.187495	-424.242567	-424.235414	-424.23447	-424.273813	29.699	
C	-0.0253812015	 1.5255129926	 0.172266348	-0.217494
C	 1.3711059562	 2.1588476715	-0.0206097534	-0.214855
C	 2.2310201453	 1.5064315256	-1.1188564604	 0.112188
C	 2.3074793637	-0.0077250338	-0.9098119345	-0.222961
C	 0.8872279748	-0.5382030956	-1.1188432513	 0.112186
C	-0.052790862	-0.0076352433	-0.0206142938	-0.214857
O	 0.4807936748	-0.226119145	-2.4580534197	-0.274915
C	 0.5764199237	 1.1299577631	-2.8219652938	 0.031478
O	 1.7832799249	 1.7557127476	-2.4580560313	-0.274915
H	-0.3955737245	 1.7688154724	 1.1744134508	 0.093541
H	-0.7339549925	 1.9912219847	-0.5174817818	 0.114575
H	 1.2721300037	 3.2300018734	-0.2249565162	 0.104066
H	 1.945561857	 2.0717289168	 0.9111087634	 0.098521
H	 3.2279407568	 1.9562673023	-1.0900628055	 0.079487
H	 2.9846135277	-0.452768126	-1.6439357806	 0.105418
H	 2.6731104594	-0.2480194635	 0.0942915386	 0.092037
H	 0.8697780062	-1.6317742449	-1.0900219102	 0.079486
H	 0.2550373227	-0.5003977309	 0.9111121801	 0.098522
H	-1.0753189869	-0.3416912842	-0.2249860346	 0.104067
H	 0.5393699618	 1.1543044276	-3.9152273449	 0.11391
H	-0.2827199313	 1.6945927697	-2.4285797389	 0.080513
136.0884	195.3107	320.0652	345.8187	392.4235	398.5022	416.5771	531.1776	626.5548	653.6997	730.7294	781.2172	797.0966	847.5461	880.7336	890.9835	926.9738	964.8721	1026.2898	1030.8266	1041.3549	1072.6562	1079.1841	1085.6841	1141.6584	1175.3837	1199.9815	1212.6644	1254.2829	1284.7688	1290.9659	1319.5806	1347.1388	1357.3768	1360.8329	1386.0572	1396.4948	1399.5644	1406.1274	1453.9585	1471.0497	1478.0709	1487.7496	1504.7424	1546.9366	2979.9356	3019.4886	3021.0802	3044.2242	3045.2767	3061.0437	3065.0668	3068.1367	3074.3035	3078.2632	3095.6024	3100.6016
C1CC2CC(C1)OCO2	C1C[C@H]2C[C@@H](C1)OCO2	
InChI=1S/C7H12O2/c1-2-6-4-7(3-1)9-5-8-6/h6-7H,1-5H2	InChI=1S/C7H12O2/c1-2-6-4-7(3-1)9-5-8-6/h6-7H,1-5H2/t6-,7+
