17
gdb 128534	3.08038	1.26771	0.95763	3.2305	72.21	-0.2046	0.0315	0.2361	1230.4478	0.134864	-455.147879	-455.138206	-455.137262	-455.183233	33.721	
C	 0.2671562472	 0.9507713336	 0.4696924159	-0.254843
O	-0.4397255503	 0.2665186992	-0.5735614014	-0.278375
C	 0.3385255157	-0.5022036211	-1.3737630211	 0.291108
C	 0.6094094496	-1.8519944954	-1.3163492038	 0.105702
O	 0.1935256245	-2.7641744938	-0.3905187272	-0.456294
C	 1.4339646036	-2.1188533908	-2.4341233104	 0.284585
C	 2.0215400574	-3.4287463252	-2.8455298824	-0.488631
N	 1.652230908	-1.0036935242	-3.1351442558	-0.295959
N	 0.9897297035	-0.0310189958	-2.4760675226	-0.268139
H	 0.794006399	 0.2409458042	 1.1174984105	 0.130994
H	 0.9922825415	 1.6604578393	 0.0547570371	 0.125044
H	-0.4831167529	 1.4931420546	 1.0479189445	 0.137276
H	-0.5140583914	-2.3612551614	 0.1252069406	 0.297858
H	 1.2432565202	-4.1863232284	-2.9879258391	 0.130647
H	 2.5689064494	-3.3077006085	-3.7827520786	 0.136463
H	 2.7110457327	-3.8166970914	-2.0873659411	 0.129476
H	 0.9328621923	 0.8921133252	-2.8701146951	 0.273087
31.1039	106.6268	120.2082	143.4078	229.5453	240.0696	271.3913	304.5311	325.801	391.4	459.245	541.0606	578.8575	691.0034	720.7388	747.2439	779.8605	988.7091	997.2229	1065.8166	1066.8082	1172.4277	1178.8989	1207.397	1259.8068	1278.9636	1301.5648	1410.9764	1428.232	1463.6655	1479.7868	1485.7537	1488.3856	1502.5179	1524.2067	1568.4409	1669.9813	3018.6547	3034.5332	3085.0271	3086.3983	3131.792	3137.4422	3677.2244	3805.7447
COC1=C(O)C(C)=NN1	COc1c(O)c(C)n[nH]1	
InChI=1S/C5H8N2O2/c1-3-4(8)5(9-2)7-6-3/h8H,1-2H3,(H,6,7)	InChI=1S/C5H8N2O2/c1-3-4(8)5(9-2)7-6-3/h8H,1-2H3,(H,6,7)
