17
gdb 67331	3.31229	1.30286	1.09355	1.3316	73.42	-0.2471	-0.0301	0.2171	1107.4811	0.133994	-421.74167	-421.733828	-421.732884	-421.774213	29.799	
C	-0.0906773623	 1.462856892	 0.0279512685	-0.526971
C	-0.0801402153	-0.037802471	 0.0097306333	 0.290699
C	 0.8446558874	-0.9751192036	-0.8388689111	 0.045141
O	 1.9429729959	-0.9520426422	 0.1156056349	-0.324873
C	 0.7391971092	-1.0052533341	 0.9366925864	 0.034524
C	-0.0272417992	-1.9689740239	-0.0195682573	-0.112657
C	-1.2722250912	-1.043032554	-0.1114381128	-0.175049
C	-2.2428910532	-1.0859268905	 1.0275693634	 0.157731
O	-3.4428922861	-1.0751671995	 0.9120812882	-0.256036
H	 0.9356229147	 1.837071538	 0.1002573183	 0.142375
H	-0.5410489478	 1.865916426	-0.884930511	 0.131172
H	-0.6585293318	 1.8494130254	 0.8804280117	 0.131111
H	 1.065750687	-0.9562657345	-1.905761491	 0.103545
H	 0.8552855729	-1.0225461239	 2.0193562327	 0.105954
H	 0.0212277872	-3.0567442335	-0.0370135005	 0.098191
H	-1.8056302699	-1.0393960302	-1.0661611212	 0.088905
H	-1.7687504376	-1.1267836807	 2.0377633974	 0.066238
78.7114	156.1897	209.8741	226.8786	262.9895	325.418	439.1345	476.2896	536.6765	674.3586	748.9255	793.1109	814.2593	815.677	878.394	891.7968	913.8128	966.362	994.5641	1044.7006	1081.8945	1098.4426	1113.3799	1135.3659	1153.2106	1166.7525	1179.2454	1205.9074	1245.2704	1292.4134	1305.8841	1374.6417	1409.0699	1441.1279	1488.1782	1490.4303	1824.7196	2842.206	3034.3462	3080.875	3102.5799	3109.415	3123.4232	3127.8135	3141.6755
CC12C3OC1C3C2C=O	C[C@@]12[C@H]3O[C@@H]1[C@H]3[C@H]2C=O	
InChI=1S/C7H8O2/c1-7-3(2-8)4-5(7)9-6(4)7/h2-6H,1H3	InChI=1S/C7H8O2/c1-7-3(2-8)4-5(7)9-6(4)7/h2-6H,1H3/t3-,4-,5-,6+,7+/m1/s1
