17
gdb 53813	3.38491	1.10944	0.91499	3.7358	70.64	-0.2453	-0.0605	0.1849	1260.5951	0.135645	-455.142108	-455.132992	-455.132048	-455.177245	32.215	
N	-0.0783470612	 1.3212837078	 0.2525820528	-0.535906
C	-0.0086543721	-0.0359703229	 0.188400344	 0.268401
N	 0.9719851723	-0.8239968334	 0.4341305925	-0.511967
C	-1.3362936155	-0.6663063389	-0.2162020963	 0.368722
O	-2.2770999056	 0.0450248284	-0.4996922358	-0.324172
C	-1.3902734929	-2.1701873451	-0.2215987454	-0.137735
C	-1.4599557722	-2.8439802164	 1.1770653345	-0.066531
O	-2.7481546942	-3.4109178836	 0.8802959499	-0.271225
C	-2.7699362433	-2.8154836041	-0.4361499444	-0.096882
H	 0.7537002825	 1.877876791	 0.3398593112	 0.256305
H	-0.9200145545	 1.7500645387	-0.1004204859	 0.273538
H	 1.8165408823	-0.3124792936	 0.6990680077	 0.209001
H	-0.5744359793	-2.5563789114	-0.832200475	 0.122961
H	-0.6922573108	-3.6036552905	 1.3571295168	 0.115967
H	-1.4934712806	-2.1593343306	 2.0330671162	 0.107031
H	-3.591047743	-2.1012211344	-0.5564863169	 0.122144
H	-2.8194612218	-3.5726002608	-1.2271181457	 0.10035
48.1362	61.2932	83.8185	159.7833	228.1284	268.8697	321.9012	376.3698	453.0135	518.3931	554.3001	596.9651	706.2596	804.2416	831.8894	879.8162	886.8392	936.5503	1012.5623	1035.6767	1049.6236	1080.9456	1107.097	1133.5528	1151.9844	1153.0129	1167.6511	1219.7553	1305.0029	1350.3307	1377.0429	1435.924	1511.8867	1535.5654	1598.6644	1716.8401	1788.5386	3021.3752	3031.8271	3073.3005	3081.3083	3121.6648	3446.955	3589.8774	3726.5714
NC(=N)C(=O)C1COC1	NC(=N)C(=O)C1COC1	
InChI=1S/C5H8N2O2/c6-5(7)4(8)3-1-9-2-3/h3H,1-2H2,(H3,6,7)	InChI=1S/C5H8N2O2/c6-5(7)4(8)3-1-9-2-3/h3H,1-2H2,(H3,6,7)
