25
gdb 104330	2.11945	1.39657	1.09439	0.222	94.38	-0.224	0.0355	0.2595	1301.6204	0.228403	-352.387105	-352.376846	-352.375902	-352.421591	39.416	
C	 0.7141548618	-0.6101943954	 1.3280529659	-0.395672
C	 0.1219295449	 0.0037891407	 0.0537376829	-0.217007
C	 0.8413924895	-0.3673937926	-1.2630667136	 0.230448
C	 2.2831606081	 0.1883981995	-1.2775964716	-0.433433
C	 0.8330255616	-1.9038233424	-1.5258587344	-0.244515
C	 0.617606508	-2.0791316292	-3.0473564461	-0.265126
C	-0.0150312458	-0.7688760411	-3.4404655735	-0.180363
C	 0.0864884675	 0.1617214646	-2.4898757655	 0.317804
C	-0.3989687184	 1.5766846502	-2.5845389356	-0.502969
H	 0.7383703349	-1.703539125	 1.2761801862	 0.117844
H	 1.7351791101	-0.2635867457	 1.5143674625	 0.116858
H	 0.1128795971	-0.3358214814	 2.200652908	 0.110312
H	-0.9281492152	-0.3044446596	-0.0341880133	 0.091417
H	 0.11085423	 1.0961712809	 0.1605348703	 0.089984
H	 2.8768879837	-0.214835966	-0.4513852624	 0.112235
H	 2.7900972833	-0.0743052453	-2.2115187965	 0.114354
H	 2.2925900267	 1.2804824776	-1.1901440922	 0.108077
H	 1.7401152897	-2.3961238426	-1.1637162504	 0.089758
H	-0.0125383565	-2.3528940334	-0.9930017127	 0.095068
H	 1.5652080397	-2.2348407714	-3.5833752802	 0.100825
H	-0.0079511915	-2.9481881611	-3.2818014244	 0.097317
H	-0.4654051991	-0.6031363691	-4.414516792	 0.078649
H	-0.8412896069	 1.7775632622	-3.5642184222	 0.119559
H	-1.1558423386	 1.7984143465	-1.822403595	 0.125757
H	 0.4159845254	 2.2951554791	-2.4302891039	 0.122817
96.9311	107.1766	168.5649	187.2904	215.8527	236.5529	254.3283	279.3669	302.562	343.1688	372.2692	467.6293	552.9255	578.7719	653.8602	704.5122	789.1833	813.0854	853.8931	900.5388	916.9498	932.8269	967.2018	992.0816	1015.5541	1038.1405	1044.4649	1061.763	1078.9457	1118.6418	1136.7169	1213.1691	1220.0695	1232.7808	1245.7509	1314.0853	1315.3511	1333.5199	1353.3996	1369.4236	1402.8058	1413.58	1415.5457	1475.1863	1481.3193	1484.9632	1491.1479	1493.7009	1499.0379	1502.663	1507.2422	1509.6259	1720.5832	3000.4868	3012.2477	3020.5653	3029.3588	3035.5718	3039.0203	3046.6918	3051.7691	3067.0083	3087.2347	3095.3215	3100.4816	3102.9845	3107.0698	3110.2974	3174.5538
CCC1(C)CCC=C1C	CC[C@@]1(C)CCC=C1C	
InChI=1S/C9H16/c1-4-9(3)7-5-6-8(9)2/h6H,4-5,7H2,1-3H3	InChI=1S/C9H16/c1-4-9(3)7-5-6-8(9)2/h6H,4-5,7H2,1-3H3/t9-/m0/s1
