21
gdb 114340	3.22667	1.12907	1.09064	0.7847	78.58	-0.2439	0.0897	0.3336	1260.714	0.181762	-424.215325	-424.206202	-424.205258	-424.249478	34.009	
C	-0.0317889915	 1.4362902594	 0.1277286298	-0.384989
C	-0.0038095507	-0.0916665681	 0.039145371	-0.210509
C	 0.6456855905	-0.5831886005	-1.2370886771	 0.235367
O	 2.0175127624	-0.2012234165	-1.2952440093	-0.270717
C	 2.6431827243	-1.1618192277	-2.1149911294	 0.031371
C	 3.0888179014	-2.4464345166	-1.4399388734	-0.064083
C	 3.255438887	-2.5752737656	 0.0542865384	-0.411608
C	 1.733127367	-2.3541687632	-2.1166372298	 0.027987
O	 0.6396265229	-2.0052236192	-1.298317614	-0.271658
H	 0.9820955707	 1.8443888894	 0.1048813002	 0.137587
H	-0.588689004	 1.8733765267	-0.7083637423	 0.115635
H	-0.5124215222	 1.7626313723	 1.0541741471	 0.115335
H	 0.5408650255	-0.5195342033	 0.8871608827	 0.113415
H	-1.0200865585	-0.4999076936	 0.0683067576	 0.111013
H	 0.1260917685	-0.1820146598	-2.1273658988	 0.065852
H	 3.1471332074	-0.7630348178	-2.9893470492	 0.098853
H	 3.8163817987	-3.0004369566	-2.0312809887	 0.087143
H	 2.5015964935	-1.9944916239	 0.5860724808	 0.139188
H	 3.1608064836	-3.6205000731	 0.3658979507	 0.118225
H	 4.2418662937	-2.216841383	 0.3658533745	 0.117804
H	 1.4826508297	-2.9437373293	-2.9924726508	 0.098787
73.7319	110.8679	115.5258	178.329	210.0163	225.3618	271.6943	394.0563	476.8306	491.0312	613.1104	703.6956	754.6532	765.0164	774.7435	789.2046	887.4961	903.0717	944.8997	991.9583	1007.0811	1032.0195	1066.7379	1091.6506	1104.0791	1111.9555	1134.0095	1140.8765	1152.7502	1177.2256	1214.6707	1283.2989	1304.0613	1332.8111	1349.2427	1380.9597	1409.8958	1415.4136	1422.2334	1438.6673	1476.6948	1490.4917	1498.0703	1498.4435	1510.2652	2928.7973	3039.9045	3042.712	3048.3543	3086.6206	3098.6818	3108.4851	3120.0385	3124.5504	3150.2012	3153.0878	3164.0357
CCC1OC2C(C)C2O1	CC[C@H]1O[C@H]2[C@@H](C)[C@H]2O1	
InChI=1S/C7H12O2/c1-3-5-8-6-4(2)7(6)9-5/h4-7H,3H2,1-2H3	InChI=1S/C7H12O2/c1-3-5-8-6-4(2)7(6)9-5/h4-7H,3H2,1-2H3/t4-,5+,6+,7-
