16
gdb 52344	12.28429	0.43627	0.42353	2.6829	90.88	-0.2511	-0.0208	0.2302	2404.076	0.121508	-400.689152	-400.679105	-400.678161	-400.726116	33.932	
N	-0.1313919401	 1.3231356419	 0.0097416384	-0.434039
C	-0.0517195881	 0.0646121497	 0.0024548998	 0.128594
O	-1.1763393228	-0.6800847218	 0.0090948635	-0.179304
C	-0.9963624799	-2.0936377435	-0.0001154979	-0.067974
C	-2.3971750001	-2.7148631048	 0.010060054	-0.384184
C	-2.349649939	-4.1673881393	 0.0019627139	 0.363096
C	-2.2893760446	-5.3757768368	-0.0050904346	-0.247683
C	-2.2235308279	-6.7350222676	-0.0129106308	 0.292879
C	-2.1637924615	-7.9409361745	-0.0198102028	-0.547515
H	 0.8011810224	 1.7309948674	 0.0031747731	 0.231891
H	 0.8707727701	-0.5327986298	-0.0092569238	 0.088551
H	-0.4483023043	-2.4082786848	-0.8968169601	 0.124571
H	-0.4312132767	-2.4176911614	 0.8825163356	 0.124566
H	-2.9341343453	-2.3548525928	 0.896004734	 0.156362
H	-2.950989042	-2.3456016891	-0.8615883252	 0.156367
H	-2.1130517701	-9.0014508327	-0.0258450772	 0.193821
32.8506	54.2616	55.5822	119.6952	166.0836	174.2387	242.6808	361.7668	364.679	456.1628	545.2608	546.7998	597.5063	603.2461	631.6333	755.9285	790.2713	824.31	1002.5482	1045.0716	1064.6146	1081.4152	1141.1957	1180.0292	1225.4736	1285.9084	1305.8263	1318.1535	1405.6985	1430.8436	1470.5399	1518.078	1751.3614	2184.4083	2368.3518	3011.6255	3025.993	3035.0769	3056.7799	3079.8718	3504.7115	3519.3839
N=COCCC#CC#C	[NH][CH]OCCC#CC#C	
InChI=1S/C7H7NO/c1-2-3-4-5-6-9-7-8/h1,7-8H,5-6H2	InChI=1S/C7H7NO/c1-2-3-4-5-6-9-7-8/h1,7-8H,5-6H2
