19
gdb 35855	2.37285	1.64699	1.1091	1.0987	80.88	-0.2342	0.0465	0.2807	1123.0612	0.158777	-385.846158	-385.837558	-385.836613	-385.879787	32.857	
C	-0.4147819476	-1.0133701899	-0.77006689	-0.452284
C	-0.2493273445	 0.1062358916	-0.36379663	 0.313611
C	-0.0479173641	 1.4585575289	 0.1252527018	-0.249261
C	-0.2599410659	 1.6372910734	 1.6526785869	-0.251643
C	 0.6260122445	 2.8616339785	 1.9851825245	-0.093066
O	 1.3966844767	 3.1538174678	 0.8143469035	-0.292264
C	 1.3639457804	 2.0291403471	-0.0238922801	 0.456277
C	 2.596737723	 1.1744754923	-0.1544072238	-0.336233
C	 2.1467717467	 2.09100139	-1.2853430831	-0.337732
H	-0.5654514961	-2.0009779165	-1.129969722	 0.196344
H	-0.7296578594	 2.1353432748	-0.4068944409	 0.111696
H	-1.3101585366	 1.7884598501	 1.9090947119	 0.114671
H	 0.0900958093	 0.744774457	 2.1761445613	 0.121635
H	 0.0416522363	 3.7561217566	 2.2227320762	 0.109285
H	 1.2897913222	 2.6519753928	 2.8340219842	 0.101901
H	 3.4642218728	 1.4847951143	 0.4168752148	 0.116007
H	 2.4794832257	 0.1049214132	-0.2873575713	 0.124393
H	 1.7219010339	 1.634724566	-2.1730996013	 0.121859
H	 2.7221057928	 2.992752742	-1.4616371225	 0.124804
53.101	105.5416	134.8415	197.4417	279.5441	326.147	416.111	484.6189	520.3025	557.7095	625.6305	638.6455	655.3802	731.0514	772.4224	835.7983	867.9434	899.9248	932.6178	975.1788	987.0113	1014.0888	1046.9011	1061.8531	1077.9032	1080.2056	1098.427	1191.2529	1215.2602	1223.3151	1244.4992	1289.8176	1300.8574	1354.6492	1365.1903	1392.6589	1444.9785	1494.795	1499.7852	1529.796	2236.8217	3015.2655	3016.113	3069.3583	3076.4431	3126.0906	3134.7636	3137.7168	3220.9003	3235.029	3503.3934
C#CC1CCOC11CC1	C#C[C@H]1CCOC21CC2	
InChI=1S/C8H10O/c1-2-7-3-6-9-8(7)4-5-8/h1,7H,3-6H2	InChI=1S/C8H10O/c1-2-7-3-6-9-8(7)4-5-8/h1,7H,3-6H2/t7-/m0/s1
