13
gdb 128666	7.21251	0.93247	0.83006	3.0524	65.01	-0.274	-0.0874	0.1866	1290.4759	0.088957	-486.046627	-486.038754	-486.03781	-486.079704	26.78	
C	-0.0149960298	 1.3484558301	 0.0111583823	-0.242103
O	 0.0251397735	-0.0856093441	-0.0409586712	-0.242071
C	 0.6240658716	-0.6158857033	-1.0908232609	 0.526515
N	 0.7291005659	-1.9196777459	-1.2588157251	-0.335156
N	 1.392516332	-1.9672470078	-2.4292830372	 0.06826
C	 1.7420423844	-3.2091240752	-3.0298583129	 0.213231
O	 2.3281019865	-3.3002564376	-4.063327086	-0.226145
N	 1.6761027992	-0.7635140969	-2.945580663	-0.090572
N	 1.1965908938	 0.1042179675	-2.1109652782	-0.26461
H	 0.9960124511	 1.7638423004	 0.0295152995	 0.151028
H	-0.55404804	 1.752446931	-0.8497801177	 0.15106
H	-0.5406820194	 1.5880466641	 0.9347986889	 0.147854
H	 1.3880423512	-4.0353348023	-2.3946593987	 0.142709
76.9389	123.575	163.1366	172.9667	236.1553	283.923	371.1504	419.7651	615.4791	679.2998	718.8486	780.2118	814.3312	982.6164	1030.6484	1035.0428	1123.4082	1180.1607	1201.5458	1211.2744	1270.4475	1367.2168	1414.1096	1434.4494	1481.0339	1485.4888	1497.3999	1632.6799	1861.8504	3040.3169	3049.9967	3126.4211	3165.581
COC1=NN(C=O)N=N1	COc1nn(C=O)nn1	
InChI=1S/C3H4N4O2/c1-9-3-4-6-7(2-8)5-3/h2H,1H3	InChI=1S/C3H4N4O2/c1-9-3-4-6-7(2-8)5-3/h2H,1H3
