17
gdb 35188	3.58258	1.15917	1.07571	2.7138	79.98	-0.2299	0.0383	0.2682	1161.9948	0.13563	-380.751525	-380.743623	-380.742679	-380.783977	31.02	
C	-0.1047207752	-1.1767593656	-0.0699652343	-0.445877
C	-0.0364734665	 0.0227829308	-0.0233154886	 0.392345
C	 0.0435804094	 1.4556277965	-0.0048297278	-0.33568
N	 0.6176712119	 2.0936579826	 1.2206475994	-0.380706
C	 1.3478412861	 2.1726259346	-0.0314131289	 0.40722
C	 2.791324688	 1.643622074	-0.1836986359	-0.302176
C	 3.114863937	 2.9461679477	-0.9362915197	-0.040588
N	 2.2149122149	 2.9839066085	-2.1132372488	-0.327573
C	 1.7150261336	 3.4367115713	-0.7856922556	-0.171552
H	-0.1624119934	-2.2363501265	-0.1039986162	 0.196318
H	-0.7887949244	 1.9673967463	-0.4837284746	 0.110162
H	 0.1224631022	 2.9652423435	 1.4020424868	 0.232972
H	 3.2838908244	 1.5657840228	 0.7877582993	 0.119521
H	 2.9205084758	 0.7216161955	-0.7538325748	 0.121903
H	 4.0433396385	 3.5024177488	-0.9248009448	 0.099233
H	 2.4463610468	 3.8272684431	-2.6396834266	 0.229553
H	 1.3243867009	 4.4374025358	-0.639554659	 0.094924
91.0591	117.2162	184.7014	284.9186	342.2629	390.9069	468.1845	506.8113	545.7771	592.0314	626.827	659.0085	763.3144	815.98	830.6424	837.3228	888.339	905.246	938.4725	959.8314	979.4028	1015.7046	1051.0085	1060.4004	1105.1045	1121.6344	1161.283	1186.6512	1205.022	1235.9875	1300.8282	1322.8674	1331.2326	1378.212	1456.6967	1476.0867	2239.9537	3074.6818	3125.7471	3136.8679	3177.1752	3199.731	3459.9304	3478.4799	3505.1051
C#CC1NC11CC2NC12	C#C[C@H]1N[C@]21C[C@H]1N[C@@H]21	
InChI=1S/C7H8N2/c1-2-5-7(9-5)3-4-6(7)8-4/h1,4-6,8-9H,3H2	InChI=1S/C7H8N2/c1-2-5-7(9-5)3-4-6(7)8-4/h1,4-6,8-9H,3H2/t4-,5-,6-,7+/m1/s1
