17
gdb 79861	2.85693	1.72166	1.25021	2.7227	67.17	-0.2402	0.0604	0.3006	986.2351	0.136326	-458.905084	-458.897715	-458.896771	-458.936414	29.807	
O	-0.0432057515	 1.4483778213	-0.0746245835	-0.446855
C	 0.0337276468	 0.044359383	 0.0079297377	 0.117245
C	 0.0275452995	-0.6217020295	 1.4081036071	-0.224759
C	-1.4702683879	-0.2278306885	 1.5531276629	 0.145234
O	-2.1761123157	-1.2146296841	 2.2921079015	-0.280742
C	-1.6477152057	-2.4295945577	 1.7598968535	-0.146054
C	-0.6440277547	-1.8817939198	 0.7398935279	 0.358803
O	 0.056151181	-2.7756675968	-0.06356763	-0.48117
C	-1.3308347863	-0.6595994831	 0.0591678821	-0.153392
H	 0.8495920925	 1.8024406553	-0.0220480218	 0.283787
H	 0.7493270091	-0.3729168104	-0.7070312026	 0.08446
H	 0.7968566933	-0.6149556418	 2.1823316486	 0.067206
H	-1.7772397265	 0.7742554651	 1.8308176828	 0.108868
H	-1.172786579	-3.024756645	 2.5523860949	 0.091447
H	-2.4371517474	-3.02970034	 1.2907756468	 0.10876
H	 0.598537071	-3.3362517403	 0.5018625005	 0.286802
H	-2.1075281684	-0.6901496476	-0.7046056584	 0.080362
197.1087	253.0239	260.6665	268.6709	310.276	350.113	391.4604	470.7487	539.5114	636.3134	721.4223	735.5792	766.6201	840.7407	887.8942	910.416	936.2232	990.6174	1021.6698	1048.4813	1062.8525	1068.8061	1095.9589	1136.3564	1160.7794	1173.0626	1179.5123	1196.5751	1219.804	1253.6314	1262.4671	1306.4266	1317.3835	1345.3876	1396.3982	1443.2218	1521.9029	3003.4137	3050.1519	3061.2581	3099.5359	3123.1107	3195.4386	3803.3879	3825.9241
OC1C2C3OCC2(O)C13	O[C@H]1[C@H]2[C@@H]3OC[C@@]2(O)[C@H]13	
InChI=1S/C6H8O3/c7-4-2-5-3(4)6(2,8)1-9-5/h2-5,7-8H,1H2	InChI=1S/C6H8O3/c7-4-2-5-3(4)6(2,8)1-9-5/h2-5,7-8H,1H2/t2-,3+,4-,5-,6-
