20
gdb 75742	2.44433	1.57704	1.21889	4.2214	81.69	-0.233	-0.024	0.2091	1110.5881	0.170246	-403.20731	-403.197993	-403.197049	-403.240848	35.111	
C	-0.0099508455	 1.4059165896	 0.0013780962	-0.356733
N	 0.0050980687	-0.0361278033	 0.0116035072	-0.085022
C	-0.0187321966	-0.7798087343	-1.1519744502	 0.386991
O	-0.052719052	-0.3367880544	-2.2840319015	-0.404905
C	 0.0062568635	-2.204973939	-0.7123452565	-0.209313
C	 0.0418044168	-2.2547493829	 0.6173848885	-0.083172
C	 0.0438355423	-0.8642608703	 1.216811815	 0.186186
C	 1.3299456693	-0.6188771264	 2.0308357024	-0.412998
C	-1.2036014136	-0.6434791775	 2.0957178663	-0.413004
H	 0.8870719743	 1.8295207833	 0.4694252007	 0.120521
H	-0.0397053375	 1.7141293111	-1.0456675168	 0.16667
H	-0.8905924956	 1.8113618326	 0.5144734585	 0.12051
H	-0.0045322518	-3.0222398293	-1.4193610027	 0.124229
H	 0.066811454	-3.1360778955	 1.2468548667	 0.11331
H	 2.2148832813	-0.7691783333	 1.4072199335	 0.13087
H	 1.3507408706	 0.4015187055	 2.4265830325	 0.122302
H	 1.3822170329	-1.306251392	 2.8807044759	 0.120171
H	-1.1997149371	-1.3324924206	 2.9458496576	 0.120199
H	-1.2232552212	 0.3759949738	 2.4938932127	 0.122303
H	-2.1160752328	-0.8098574471	 1.517544274	 0.130885
105.0711	116.7134	166.0787	235.7044	239.0531	262.6764	286.612	327.8005	351.3948	376.2076	515.4554	524.6243	587.8582	700.0886	715.9861	723.3795	830.9969	880.8133	933.8841	946.7197	968.9779	986.5045	1021.3522	1079.0182	1144.0743	1156.1263	1176.1939	1192.0388	1225.5323	1291.6804	1355.8415	1394.3677	1396.93	1415.3942	1445.0523	1479.1385	1483.378	1500.0783	1500.9956	1504.3673	1521.7379	1660.5076	1798.7844	3014.1138	3036.3785	3041.272	3061.3636	3104.7932	3110.3867	3122.9348	3125.0154	3135.6631	3206.0261	3246.1474
CN1C(=O)C=CC1(C)C	CN1C(=O)C=CC1(C)C	
InChI=1S/C7H11NO/c1-7(2)5-4-6(9)8(7)3/h4-5H,1-3H3	InChI=1S/C7H11NO/c1-7(2)5-4-6(9)8(7)3/h4-5H,1-3H3
