14
gdb 64609	2.5792	1.58054	1.29211	4.771	64.81	-0.2378	-0.0482	0.1897	982.7418	0.099941	-473.862327	-473.854339	-473.853394	-473.895015	29.608	
O	 0.0413909915	 1.5005190801	-0.0104742654	-0.461165
C	 0.0253364718	 0.1133731695	 0.0768969084	 0.188806
C	 0.7699164353	-0.49329841	-1.1159411749	 0.123521
O	 1.2404398921	 0.2090493338	-1.974208934	-0.26562
C	 0.5758256446	-0.4721628449	 1.3589018381	-0.198061
C	-0.3148512349	-1.335101359	 1.8571680464	-0.028123
N	-1.4742991486	-1.4116268005	 1.0683537087	-0.328052
C	-1.4344145779	-0.4823140429	 0.0412695755	 0.355496
O	-2.3203259371	-0.201856362	-0.720695443	-0.340209
H	 0.4096491676	 1.7043692805	-0.8864790988	 0.299164
H	 0.8535231583	-1.5961285847	-1.1317680635	 0.113673
H	 1.5501991655	-0.2400176562	 1.7588705141	 0.127279
H	-0.2439523805	-1.9467339706	 2.7455116876	 0.143777
H	-2.3436587277	-1.8211965031	 1.3733297608	 0.269513
83.7419	109.452	206.3359	266.4772	315.703	318.3039	436.8842	464.7592	487.8333	557.2382	585.2023	690.3677	713.6111	742.4351	793.4538	827.9625	918.3344	953.829	1011.0848	1069.8653	1083.1871	1132.186	1185.7005	1228.6543	1360.4075	1381.6678	1405.5748	1436.4738	1661.6975	1802.9647	1863.5111	2962.9137	3236.8013	3266.6112	3637.6003	3670.3176
OC1(C=O)C=CNC1=O	O[C@@]1(C=O)C=CNC1=O	
InChI=1S/C5H5NO3/c7-3-5(9)1-2-6-4(5)8/h1-3,9H,(H,6,8)	InChI=1S/C5H5NO3/c7-3-5(9)1-2-6-4(5)8/h1-3,9H,(H,6,8)/t5-/m1/s1
