21
gdb 112652	3.20643	0.97738	0.78789	3.7479	79.02	-0.2329	-0.0108	0.2221	1466.0142	0.181636	-424.263636	-424.254008	-424.253063	-424.298411	35.556	
C	-0.3032726359	 1.5217185534	 0.0514561319	-0.406633
C	 0.0753385601	 0.0459791484	-0.0346281404	-0.077621
C	 0.923315567	-0.3983664021	-1.2373463738	-0.251559
C	 1.577980355	-1.7221085928	-0.7815305421	 0.023808
C	 2.7677151453	-2.1385114276	-1.6296869481	-0.095805
O	 3.2513911497	-3.3763510792	-1.1298370396	-0.422429
C	 1.9094480438	-1.4750794121	 0.7007371416	-0.319807
C	 0.8798161229	-0.4484147759	 1.1788249703	 0.394784
O	 0.7277723759	-0.0712935069	 2.3129007432	-0.323554
H	 0.5862364706	 2.1574537372	-0.0163384749	 0.116233
H	-0.984546975	 1.8069690745	-0.7555868189	 0.111838
H	-0.7877718561	 1.7286382039	 1.0092803197	 0.138852
H	-0.8455285167	-0.5595656309	-0.0225978213	 0.103441
H	 0.3411580995	-0.5097208654	-2.1563621893	 0.10232
H	 1.7015531163	 0.3527393228	-1.4342641556	 0.097579
H	 0.8304246266	-2.523519042	-0.8457617681	 0.086587
H	 2.4600719565	-2.2263403597	-2.6846352306	 0.086196
H	 3.5444290231	-1.3563894541	-1.578665955	 0.082578
H	 4.0180374799	-3.635089668	-1.6493255151	 0.288474
H	 1.9105466241	-2.3677820406	 1.3287855119	 0.138081
H	 2.9023953273	-1.0155597931	 0.8066513942	 0.126638
72.1513	87.6259	119.0537	193.3774	207.8776	245.1529	271.2071	337.7535	381.2218	403.0346	491.6692	552.7769	561.7141	614.1254	723.7508	860.515	876.1312	901.9966	917.3423	988.2339	1004.296	1052.0165	1054.2901	1088.8847	1118.4463	1147.458	1161.6216	1183.105	1207.0707	1243.6937	1259.1262	1268.012	1294.9684	1313.2619	1341.6667	1352.3299	1383.423	1406.8831	1444.6883	1462.3424	1493.7937	1498.11	1498.9125	1520.4535	1840.7837	2952.2428	2981.0008	2982.3653	3012.1502	3021.2692	3033.5986	3037.7724	3086.9689	3103.6738	3117.4914	3122.6491	3831.5759
CC1CC(CO)CC1=O	C[C@H]1C[C@@H](CO)CC1=O	
InChI=1S/C7H12O2/c1-5-2-6(4-8)3-7(5)9/h5-6,8H,2-4H2,1H3	InChI=1S/C7H12O2/c1-5-2-6(4-8)3-7(5)9/h5-6,8H,2-4H2,1H3/t5-,6+/m0/s1
