20
gdb 91561	2.78894	1.25747	1.02889	1.76	84.36	-0.2263	0.0457	0.272	1231.1393	0.169714	-365.938091	-365.928951	-365.928007	-365.972082	34.922	
C	-0.1432613601	 1.5084765804	-0.1524184279	-0.410605
C	 0.0629451427	 0.000918345	-0.1667149949	-0.010368
C	 1.3150885241	-0.588381577	-0.9203421977	-0.23577
C	 1.7482658013	-1.2448537056	 0.3926839348	-0.122654
N	 1.9335823727	-0.1304621205	 1.3615981134	-0.364293
C	 0.5795980504	-0.6797961269	 1.1197670876	 0.359684
C	-0.2570336598	-1.2591385611	 2.2331549664	-0.49355
C	-0.860672529	-0.2459263942	 3.0978219402	 0.320964
C	-1.3559008655	 0.5950331238	 3.7988997846	-0.452012
H	 0.7516808612	 2.0090204769	 0.2260881569	 0.137012
H	-0.349883402	 1.8841266501	-1.1606235507	 0.105802
H	-0.9860871465	 1.7834188882	 0.4900252341	 0.119216
H	-0.8438137577	-0.5090763057	-0.5098455242	 0.06901
H	 1.0439314652	-1.3011611115	-1.7021282716	 0.098389
H	 2.0220138052	 0.1439003108	-1.3191895933	 0.106599
H	 2.2665447317	-2.1862587705	 0.5340992487	 0.089606
H	 2.2724589463	-0.5390131411	 2.2329996509	 0.22365
H	-1.050563767	-1.8832412861	 1.8001940066	 0.135023
H	 0.3635247409	-1.9349949918	 2.8379552212	 0.125972
H	-1.7899805339	 1.3376116166	 4.4213915149	 0.198325
53.5948	93.8843	177.7818	219.8907	236.4488	290.3392	344.8152	353.3214	414.8428	476.7173	542.7123	623.5275	641.1117	669.403	714.1694	787.1466	859.1941	884.2495	899.4757	932.3748	952.6426	956.9666	1004.909	1031.8687	1087.817	1096.1134	1112.273	1145.5904	1181.554	1195.6026	1230.1411	1259.5335	1290.5877	1329.4966	1343.2496	1376.4628	1401.9783	1434.6004	1457.4558	1481.4005	1490.2873	1504.8726	2239.026	3005.7714	3033.6221	3037.7266	3045.2276	3062.5896	3097.7116	3119.0272	3123.7569	3179.8644	3464.4642	3506.6135
CC1CC2NC12CC#C	C[C@H]1C[C@H]2N[C@@]12CC#C	
InChI=1S/C8H11N/c1-3-4-8-6(2)5-7(8)9-8/h1,6-7,9H,4-5H2,2H3	InChI=1S/C8H11N/c1-3-4-8-6(2)5-7(8)9-8/h1,6-7,9H,4-5H2,2H3/t6-,7+,8-/m0/s1
