15
gdb 12715	3.02492	2.30757	1.72813	5.0056	60.59	-0.239	0.0072	0.2462	793.4702	0.119106	-399.793877	-399.786813	-399.785869	-399.825	26.428	
C	-0.143927096	 1.4944597907	 0.081487897	-0.509108
C	 0.0500742736	 0.0036557142	 0.0378663814	 0.129531
N	-1.1500078384	-0.8823929841	 0.1314840215	-0.346249
C	-0.5285423584	-1.6671547855	 1.2387109491	-0.192311
C	 0.8003801448	-0.9229708768	 1.0314762711	 0.058302
O	 1.5992529772	-1.4622098519	-0.0635968519	-0.266591
C	 1.0182537867	-0.6165739915	-0.9922169072	 0.470153
O	 1.278647975	-0.5185816839	-2.1453620664	-0.326759
H	 0.8156408793	 2.0197087864	 0.0777590661	 0.140997
H	-0.7058159706	 1.8206523325	-0.8002636666	 0.151815
H	-0.7001993249	 1.7940918795	 0.9758366031	 0.122663
H	-1.983835963	-0.3779606997	 0.4096959172	 0.226532
H	-0.9595866946	-1.4659005217	 2.2263054688	 0.109794
H	-0.5043622744	-2.7469239001	 1.0668056567	 0.126979
H	 1.4248776237	-0.626154988	 1.8716682202	 0.104251
137.1256	185.6807	196.4934	274.7601	288.2004	377.5612	493.1419	644.0603	678.3393	699.9447	783.7879	830.0219	841.7973	879.9665	941.3154	986.4552	1001.1674	1061.4882	1083.2628	1137.4052	1146.3958	1189.9836	1215.5905	1260.1803	1318.2645	1340.2908	1401.8649	1414.3053	1485.5531	1489.0092	1494.2221	1943.011	3033.5076	3034.7298	3094.1669	3104.3122	3113.4846	3138.5054	3542.3061
CC12NCC1OC2=O	C[C@]12NC[C@H]1OC2=O	
InChI=1S/C5H7NO2/c1-5-3(2-6-5)8-4(5)7/h3,6H,2H2,1H3	InChI=1S/C5H7NO2/c1-5-3(2-6-5)8-4(5)7/h3,6H,2H2,1H3/t3-,5+/m1/s1
