16
gdb 13205	5.64768	1.1003	1.05577	2.427	61.51	-0.2599	-0.0399	0.2199	1118.5507	0.129345	-420.860719	-420.852544	-420.851599	-420.895033	28.196	
O	 0.2716485448	 1.3336752683	 0.0545810533	-0.41746
C	 0.0950639647	-0.0424284657	-0.0686288741	-0.137121
C	-1.3659087737	-0.4374802139	 0.0619465048	 0.343594
O	-2.2042353549	 0.4276568279	 0.2156803268	-0.326783
C	-1.7147569046	-1.9033907332	 0.0192864442	-0.150416
C	-2.3340223512	-2.4808151581	 1.3282307265	-0.067091
O	-3.5245082284	-2.8966933332	 0.6441408919	-0.263874
C	-3.0917523557	-2.2755019096	-0.5814502815	-0.075066
H	-0.6232954805	 1.6935458224	 0.1658029672	 0.296026
H	 0.4552535663	-0.4149820291	-1.0443463006	 0.118259
H	 0.670739382	-0.5945329314	 0.6946848743	 0.11826
H	-0.8806764186	-2.4970562996	-0.3595462248	 0.092579
H	-1.7914633163	-3.3222830497	 1.7730111032	 0.112509
H	-2.5403891336	-1.7258606569	 2.0966313885	 0.11981
H	-3.703133602	-1.4037791291	-0.8386147979	 0.126932
H	-3.0703034183	-2.9824637389	-1.4176579017	 0.109842
21.4978	81.9659	120.2746	212.0281	233.4286	322.2386	371.6988	416.572	561.2016	652.3462	780.5991	849.6145	881.8221	932.3956	939.3236	1025.5529	1046.514	1058.7273	1097.852	1125.1844	1155.3509	1171.1357	1182.7657	1239.1519	1247.5426	1305.0371	1314.942	1374.4653	1383.6593	1450.2593	1486.3421	1502.3701	1527.3066	1790.3399	2956.3311	2972.1505	3019.5552	3034.0457	3069.47	3082.5186	3098.8317	3681.5125
OCC(=O)C1COC1	OCC(=O)C1COC1	
InChI=1S/C5H8O3/c6-1-5(7)4-2-8-3-4/h4,6H,1-3H2	InChI=1S/C5H8O3/c6-1-5(7)4-2-8-3-4/h4,6H,1-3H2
