19
gdb 85174	2.22011	1.67508	1.1327	2.6542	76.2	-0.2202	0.0283	0.2485	1121.4805	0.159212	-419.195671	-419.186779	-419.185835	-419.229585	32.853	
C	 0.3529035465	 1.6943524087	-0.1276384505	-0.3938
C	 0.1281796643	 0.1908456743	-0.127504832	 0.042765
N	 1.233205936	-0.6230004167	-0.6604956832	-0.333915
C	 1.5176751881	-1.295868457	 0.498861615	 0.418371
O	 2.3591828374	-2.1057081576	 0.7969677441	-0.37999
C	 0.3371352624	-0.5769566573	 1.2272535724	-0.134633
N	 0.5484310257	 0.2106803777	 2.4187445422	-0.087157
C	 1.1903783714	-0.462517161	 3.5494601571	-0.225578
C	 1.9120748334	 0.5945021696	 2.7915141392	-0.230219
H	 1.3242714623	 1.9511657652	 0.3016600819	 0.127431
H	 0.3117881504	 2.091600595	-1.1473914488	 0.112844
H	-0.4242517592	 2.1878974609	 0.462894516	 0.135699
H	-0.8306999063	-0.0481479717	-0.6026533503	 0.085375
H	 1.6301667432	-0.6954842015	-1.5862847099	 0.247365
H	-0.4801690358	-1.2780964838	 1.4231313916	 0.106167
H	 0.7594126068	-0.2478412118	 4.5234539733	 0.115349
H	 1.5328386984	-1.4833934325	 3.4012129313	 0.143496
H	 2.737701745	 0.2692369258	 2.1638789234	 0.135108
H	 2.0097411801	 1.5956889736	 3.2010758271	 0.115322
72.7471	91.6	144.1337	168.3881	214.8348	300.0752	344.475	388.7289	428.0981	518.7482	527.7431	686.4716	731.146	788.8446	833.9462	858.035	900.595	906.6801	931.5987	1032.4618	1052.4849	1073.6576	1099.093	1129.2364	1136.5032	1143.8159	1178.5684	1183.1538	1195.8931	1205.9873	1290.3805	1330.5045	1358.8257	1382.3947	1393.7111	1411.0325	1485.7896	1487.5792	1496.0874	1514.8775	1870.8888	3029.5203	3042.2933	3066.003	3107.1614	3110.31	3111.4659	3130.8839	3191.6607	3205.5493	3601.221
CC1NC(=O)C1N1CC1	C[C@H]1NC(=O)[C@H]1N1CC1	
InChI=1S/C6H10N2O/c1-4-5(6(9)7-4)8-2-3-8/h4-5H,2-3H2,1H3,(H,7,9)	InChI=1S/C6H10N2O/c1-4-5(6(9)7-4)8-2-3-8/h4-5H,2-3H2,1H3,(H,7,9)/t4-,5+/m1/s1
