18
gdb 14433	4.18951	2.12025	1.79656	0.5223	75.81	-0.2144	0.0204	0.2347	802.0851	0.155613	-310.645933	-310.63948	-310.638536	-310.675937	26.907	
C	-0.0694247524	 1.5225790024	-0.0008677367	-0.501168
C	-0.0263305915	 0.0221099983	-0.0370752887	 0.345494
C	 0.7204365208	-0.8100241702	-1.0760901591	-0.27547
C	-0.2285888903	-2.0279129714	-0.7337090979	-0.096383
C	 0.4436230117	-2.8142002	 0.3711709564	-0.09225
C	 0.4508913625	-2.0728935731	 1.4840632131	-0.081554
C	-0.3120303128	-0.8145104405	 1.2459837656	-0.121187
C	-1.145772716	-0.9952287243	 0.0032100889	-0.117124
H	 0.9034056792	 1.9407381803	 0.2848391408	 0.12039
H	-0.3331506462	 1.9388967669	-0.9803731779	 0.115304
H	-0.8083576061	 1.8828895525	 0.723019672	 0.115693
H	 0.5089633187	-0.4255546477	-2.0782126762	 0.097367
H	 1.7988213166	-0.9689007714	-0.962862725	 0.085692
H	-0.6195185848	-2.5913244421	-1.579537217	 0.065375
H	 0.974273292	-3.7446457793	 0.2099266569	 0.091613
H	 0.9580529895	-2.3023393194	 2.4130741188	 0.091912
H	-0.7097550768	-0.2351528608	 2.0720368061	 0.076372
H	-2.2218454741	-0.8793631302	-0.0633280302	 0.079923
203.3693	219.5021	296.1481	365.7285	412.8679	543.1355	584.0068	703.5483	712.1904	754.8408	798.0286	828.9258	862.3409	876.3881	898.5017	924.3804	944.6874	962.0808	993.0952	1010.3724	1028.2113	1067.3333	1081.8192	1122.1977	1147.98	1188.6675	1198.8008	1224.8714	1272.5704	1284.234	1300.5068	1359.8527	1406.541	1423.2297	1486.0663	1490.1909	1498.6799	1644.3586	3017.4942	3032.2372	3075.8842	3089.496	3091.1364	3121.263	3166.0193	3176.1764	3195.4628	3220.7964
CC12CC3C=CC1C23	C[C@@]12C[C@H]3C=C[C@@H]1[C@@H]23	
InChI=1S/C8H10/c1-8-4-5-2-3-6(8)7(5)8/h2-3,5-7H,4H2,1H3	InChI=1S/C8H10/c1-8-4-5-2-3-6(8)7(5)8/h2-3,5-7H,4H2,1H3/t5-,6-,7+,8-/m1/s1
