27
gdb 122950	5.14603	0.45193	0.43164	1.3257	93.9	-0.2613	0.0809	0.3422	2617.6795	0.249772	-390.701604	-390.689277	-390.688333	-390.740631	43.438	
C	-0.2019617896	 1.5204640827	 0.1045798916	-0.391587
C	 0.008864302	 0.0074646678	-0.0131153091	-0.164913
C	 0.8162864562	-0.4465804522	-1.2451603127	 0.043326
C	 2.2587939412	 0.0798406507	-1.2078682054	-0.389603
C	 0.7665794208	-1.9814554641	-1.370235093	-0.176327
C	 1.3392750876	-2.5548731315	-2.6725970601	-0.199136
C	 1.1505422773	-4.0712652108	-2.7836638021	-0.16219
C	 1.7186843191	-4.650448209	-4.0721748718	-0.0749
O	 1.4836789383	-6.0513073149	-4.0674550687	-0.421938
H	 0.7394799946	 2.0595824748	 0.2472095948	 0.117092
H	-0.6818914127	 1.9233998645	-0.7947481329	 0.111503
H	-0.845509921	 1.7588689903	 0.9574131749	 0.110742
H	 0.5038337886	-0.365476017	 0.8946576385	 0.090481
H	-0.9728808394	-0.4825192925	-0.0430623849	 0.089778
H	 0.3243544089	-0.0250189688	-2.1356575636	 0.064331
H	 2.7931639095	-0.3160478858	-0.3351435932	 0.10904
H	 2.8199913065	-0.2107567557	-2.1004821381	 0.112779
H	 2.2902744402	 1.1714399319	-1.1490510854	 0.112745
H	 1.2933010436	-2.428663481	-0.5146488485	 0.089768
H	-0.2794729255	-2.3044102721	-1.2806976579	 0.088518
H	 0.8546108092	-2.0623795965	-3.5276746659	 0.090805
H	 2.4079788377	-2.3193861554	-2.751295148	 0.096389
H	 1.6311501417	-4.5750683508	-1.9357761768	 0.103303
H	 0.0843504537	-4.3242938734	-2.7307098205	 0.103018
H	 1.2374006615	-4.1692259633	-4.9399101513	 0.081498
H	 2.7969440566	-4.4281624364	-4.1363039127	 0.081578
H	 1.8414270333	-6.4185511716	-4.880811737	 0.283902
44.1457	49.3933	78.6048	95.2058	120.4388	136.3973	203.8215	216.6657	253.2542	258.1647	262.0128	316.6501	387.0719	421.4663	485.9428	514.8466	738.9717	774.2495	789.0197	830.1683	908.0937	912.2975	971.9412	997.406	1007.1109	1032.478	1046.1716	1050.8336	1069.0173	1084.052	1149.2236	1176.1507	1192.0741	1217.1792	1228.5886	1273.6142	1288.4732	1301.0044	1314.3	1321.9928	1328.759	1363.7304	1380.1122	1384.6401	1398.6811	1414.3501	1416.7457	1462.5982	1475.8645	1486.5595	1490.2718	1497.0377	1499.3292	1505.5568	1509.114	1514.8442	1529.0886	2954.8255	2979.2406	2981.1058	2998.5053	3007.2539	3011.3938	3027.8057	3029.1855	3029.9954	3032.0905	3043.4291	3051.4485	3075.7504	3095.9004	3096.2678	3104.3391	3112.2209	3830.7194
CCC(C)CCCCO	CC[C@@H](C)CCCCO	
InChI=1S/C8H18O/c1-3-8(2)6-4-5-7-9/h8-9H,3-7H2,1-2H3	InChI=1S/C8H18O/c1-3-8(2)6-4-5-7-9/h8-9H,3-7H2,1-2H3/t8-/m1/s1
