16
gdb 34597	3.64689	1.32175	1.1365	4.7424	76.1	-0.2581	-0.0533	0.2048	1067.3256	0.126693	-400.752365	-400.745421	-400.744477	-400.783761	27.308	
N	 0.0699412937	-1.1497823577	-0.013869186	-0.336832
C	-0.0019835392	 0.0068461204	 0.0031178206	 0.189168
C	-0.0324200896	 1.4273237427	 0.0146559565	 0.220436
C	-1.162314804	 2.1503314537	 0.0586886261	-0.144645
C	-1.0578753343	 3.6562215669	 0.0434800123	-0.263357
C	 0.4212624811	 4.0595058606	-0.0577612122	 0.08241
C	 1.1667937812	 3.2789220358	-1.1644329878	-0.244645
C	 1.2686378749	 2.2311289677	-0.0326960674	-0.021093
O	 1.162546152	 3.3013953313	 0.9443812911	-0.286057
H	-2.1391406789	 1.6813456966	 0.1130691508	 0.124452
H	-1.6355428521	 4.0716465415	-0.7931472417	 0.12342
H	-1.4993147139	 4.0697657302	 0.9595917851	 0.134475
H	 0.5776319695	 5.1364824568	 0.0351883242	 0.088463
H	 0.6389450478	 3.0075671622	-2.0800832856	 0.111239
H	 2.1335204938	 3.7315302618	-1.3873549207	 0.120966
H	 2.1656002778	 1.6243188896	 0.0920341846	 0.1016
119.1453	158.1834	287.1371	347.4731	425.2807	430.7525	465.6128	557.6385	641.4554	655.6539	764.1917	833.0987	838.6854	881.237	901.0945	948.9302	960.68	971.9118	1007.6005	1068.3781	1083.7662	1113.3385	1167.0578	1177.5947	1226.1573	1252.8729	1285.529	1323.8388	1343.2671	1347.856	1371.9825	1454.8912	1487.5598	1678.5568	2332.4181	3020.9688	3052.0333	3079.6306	3091.0869	3119.054	3147.5887	3190.7106
N#CC1=CCC2CC1O2	N#CC1=CC[C@@H]2C[C@H]1O2	
InChI=1S/C7H7NO/c8-4-5-1-2-6-3-7(5)9-6/h1,6-7H,2-3H2	InChI=1S/C7H7NO/c8-4-5-1-2-6-3-7(5)9-6/h1,6-7H,2-3H2/t6-,7-/m1/s1
