15
gdb 85087	2.59069	1.34595	0.93357	4.1537	70.17	-0.2649	-0.0914	0.1735	1203.951	0.111652	-457.826668	-457.818493	-457.817549	-457.859826	29.269	
C	 0.1461394901	 1.5922582249	-0.0723309918	-0.397902
C	 0.1148607059	 0.0761590358	 0.1174698099	 0.068488
O	 0.5315325002	-0.5807881039	-1.089704063	-0.238292
C	 1.5979534228	-1.4048470508	-0.8397229999	 0.397972
O	 2.1305939217	-2.0642662419	-1.6861318124	-0.340714
C	 1.9150272974	-1.2975472954	 0.6110670571	 0.051858
C	 3.0148228387	-2.0420047442	 1.2597518272	 0.082734
O	 3.2745714196	-1.9527923201	 2.4371385368	-0.258719
C	 1.0511461123	-0.4416837887	 1.1676016066	-0.180978
H	 1.1633111238	 1.9307124158	-0.2859263381	 0.140103
H	-0.5009903337	 1.8735380255	-0.9061736434	 0.148121
H	-0.2108991069	 2.0932380156	 0.8322512986	 0.131871
H	-0.9142450045	-0.2460389841	 0.3310697588	 0.125671
H	 3.5899237554	-2.6967720555	 0.57672623	 0.112455
H	 1.0142590373	-0.146408073	 2.2085896734	 0.157333
106.7706	129.3046	155.9707	176.8239	239.4484	315.2249	350.7323	392.9989	499.0233	586.5275	670.2638	727.2346	782.1095	846.3951	901.9003	907.0832	958.533	1038.3	1052.7454	1067.2543	1104.4077	1139.3655	1209.946	1299.5145	1330.1277	1349.3403	1404.6251	1428.803	1485.408	1495.7157	1677.6315	1797.6854	1870.2374	2954.7538	3013.7413	3049.696	3127.6121	3137.7908	3228.3578
CC1OC(=O)C(C=O)=C1	C[C@H]1OC(=O)C(=C1)C=O	
InChI=1S/C6H6O3/c1-4-2-5(3-7)6(8)9-4/h2-4H,1H3	InChI=1S/C6H6O3/c1-4-2-5(3-7)6(8)9-4/h2-4H,1H3/t4-/m1/s1
