20
gdb 99135	3.85279	0.79095	0.69934	3.897	78.45	-0.2304	0.0379	0.2683	1653.7375	0.169238	-440.300737	-440.290554	-440.28961	-440.337254	36.458	
C	 0.0570614245	 1.4319154574	 0.1945451175	-0.366045
C	-0.0529386402	-0.0590216155	-0.1287086746	-0.29947
C	-1.5072350655	-0.5077320218	-0.2655628549	 0.424724
O	-2.3823651819	 0.2200003085	-0.7031164909	-0.383084
N	-1.7480455258	-1.7950740973	 0.1163716596	-0.334429
C	-3.0526482502	-2.3707986181	 0.0744508408	 0.056257
C	-3.3373377482	-3.5437976819	-0.8478144695	-0.335912
C	-3.1976643264	-3.7501549822	 0.6429103078	 0.055106
O	-2.0142026131	-4.3072052964	 1.1477638779	-0.426276
H	 1.098432764	 1.7636964533	 0.1576144032	 0.106281
H	-0.527543143	 2.0108951731	-0.5231541067	 0.145233
H	-0.3346745122	 1.6486898839	 1.1930959539	 0.119806
H	 0.4355088055	-0.2673872814	-1.0899838276	 0.126653
H	 0.4682502675	-0.6667437891	 0.6200309483	 0.097123
H	-1.0243295941	-2.3531829095	 0.5416929637	 0.254089
H	-3.8399722788	-1.6439569148	 0.2323417918	 0.128299
H	-4.3202079405	-3.6278973619	-1.2983800232	 0.121438
H	-2.5113955496	-3.8815419448	-1.4648851552	 0.116482
H	-4.0898099693	-3.9776197328	 1.2241079711	 0.098331
H	-1.9638035926	-5.2242214586	 0.8598071671	 0.295395
34.5499	50.5346	99.2226	119.6545	206.0672	227.966	286.604	300.9198	328.9061	387.9223	497.5815	502.4885	582.9352	601.3228	702.6494	764.6448	807.8029	827.9904	894.1903	936.5993	992.161	1009.5403	1030.0833	1059.5807	1084.6699	1096.526	1124.7619	1162.7497	1189.0936	1228.5696	1251.3383	1288.8626	1301.3577	1352.8454	1385.7296	1406.4301	1414.9388	1466.5552	1476.6228	1493.3976	1506.2028	1536.1081	1772.3237	3023.7777	3047.182	3061.9569	3112.947	3113.2236	3132.2939	3138.612	3193.2157	3226.6885	3631.6609	3814.4691
CCC(=O)NC1CC1O	CCC(=O)N[C@H]1C[C@H]1O	
InChI=1S/C6H11NO2/c1-2-6(9)7-4-3-5(4)8/h4-5,8H,2-3H2,1H3,(H,7,9)	InChI=1S/C6H11NO2/c1-2-6(9)7-4-3-5(4)8/h4-5,8H,2-3H2,1H3,(H,7,9)/t4-,5+/m0/s1
