16
gdb 48649	2.49305	1.39016	1.1122	3.7732	79.59	-0.2382	-0.0328	0.2054	1120.7117	0.122684	-400.678917	-400.670578	-400.669633	-400.711923	31.413	
O	-0.0317432486	-0.1106923488	-0.060891323	-0.259545
C	 0.0493958475	 1.0821458707	-0.2151211254	 0.096284
C	 1.3005005277	 1.8553417825	-0.1238670111	 0.207294
C	 1.3046692702	 3.3088815309	 0.3053967294	-0.370573
C	 1.8156586884	 2.9994472127	-1.0716677761	 0.085596
C	 3.1885301314	 2.3120118327	-0.9598776001	-0.218731
N	 2.6161061293	 1.239653659	-0.1001855903	-0.347043
C	 1.2432032399	 3.5176617258	-2.2632280712	 0.20923
C	 0.7908588914	 3.9669024636	-3.2840301384	-0.401017
H	-0.8439272663	 1.7105241544	-0.4348085272	 0.073858
H	 0.3358027845	 3.7971487064	 0.3315116215	 0.139705
H	 1.9976436942	 3.6160847362	 1.0853851861	 0.120718
H	 3.5448354739	 1.9123121256	-1.912617701	 0.132205
H	 3.9737671585	 2.9275249318	-0.5059104425	 0.109098
H	 3.0249574341	 1.1637157096	 0.8267616329	 0.226247
H	 0.385700024	 4.3576078271	-4.1844841336	 0.196674
80.0862	143.3263	155.0499	224.0662	250.6356	347.8799	414.1913	475.2547	518.3348	526.366	590.2075	621.0994	661.2319	708.152	774.061	790.3879	868.0877	934.6897	960.6412	983.2711	1033.1301	1049.4115	1081.2681	1104.9532	1171.1314	1230.0386	1268.1255	1351.4178	1360.3167	1375.6262	1436.5016	1474.0541	1513.1197	1813.6717	2233.7448	2871.3759	3034.1395	3097.166	3109.4217	3210.3827	3502.2222	3503.883
O=CC12CC1(CN2)C#C	O=C[C@]12C[C@]1(CN2)C#C	
InChI=1S/C7H7NO/c1-2-6-3-7(6,5-9)8-4-6/h1,5,8H,3-4H2	InChI=1S/C7H7NO/c1-2-6-3-7(6,5-9)8-4-6/h1,5,8H,3-4H2/t6-,7+/m0/s1
