18
gdb 47934	2.32565	1.62103	1.12545	3.3434	68.14	-0.2295	0.0015	0.2311	1091.7699	0.149824	-476.227347	-476.21929	-476.218346	-476.260252	30.433	
O	-0.0366770326	 0.0709584508	 0.8103882403	-0.312925
C	-0.0413286071	 1.1356211019	 0.2549638803	 0.386904
C	-1.3435574814	 1.9299259626	 0.0435438189	-0.292362
N	-1.9179095441	 1.8283867997	-1.293157766	-0.275498
C	-1.3046332273	 2.5581927787	-2.3978237901	-0.198435
C	 0.0868753659	 2.1092782996	-2.8886269505	-0.072057
O	 1.212988236	 2.7511841286	-2.2933525763	-0.232503
C	 1.2328682166	 2.8626598623	-0.913037693	 0.028801
O	 1.1351285519	 1.6051298849	-0.2510498533	-0.222786
H	-2.0463322444	 1.4887870035	 0.7539565223	 0.140172
H	-1.2394818344	 2.9870111521	 0.3042502059	 0.127672
H	-2.045453591	 0.8527087408	-1.5394868668	 0.230874
H	-1.9885916591	 2.4600980786	-3.24910571	 0.118436
H	-1.2815829373	 3.6268351441	-2.1504358905	 0.12103
H	 0.1745941646	 1.0187345248	-2.7746844927	 0.1089
H	 0.1879737613	 2.3385985599	-3.953538764	 0.118026
H	 2.2179308169	 3.2585385667	-0.6578528112	 0.132881
H	 0.4601734856	 3.5442408504	-0.5398113332	 0.092871
69.4836	138.9972	194.4801	244.6011	280.0098	366.4127	416.9277	464.2457	488.6315	512.3195	600.7402	709.4564	722.7114	786.411	837.6723	899.0174	959.0384	1001.9468	1029.0111	1051.2003	1091.2846	1131.6972	1153.7054	1169.889	1230.0907	1258.3989	1312.54	1319.183	1352.4105	1361.8957	1381.7866	1415.5029	1446.7191	1467.0376	1473.3462	1499.6595	1516.0012	1525.2789	1836.1569	3003.5273	3027.7919	3035.2358	3065.3783	3071.4877	3086.2722	3111.7801	3116.3808	3531.5248
O=C1CNCCOCO1	O=C1CNCCOCO1	
InChI=1S/C5H9NO3/c7-5-3-6-1-2-8-4-9-5/h6H,1-4H2	InChI=1S/C5H9NO3/c7-5-3-6-1-2-8-4-9-5/h6H,1-4H2
