13
gdb 133543	2.21947	1.62935	1.22351	1.2166	57.2	-0.2679	0.0203	0.2882	996.4579	0.08435	-547.049057	-547.040852	-547.039908	-547.082289	30.143	
F	-0.3374663951	 0.104221461	-0.1827016069	-0.087575
C	-0.0500263002	 1.3986744674	 0.0544792211	 0.229941
F	 1.276532555	 1.4963231619	 0.1825340889	-0.061531
F	-0.408918806	 2.0994992419	-1.0245097691	-0.05959
C	-0.7663733487	 1.8935359291	 1.301772112	-0.045357
C	-2.1184590124	 1.3141985324	 1.5723631233	-0.262114
N	-0.9758856068	 0.9296842306	 2.4010876926	-0.33794
C	-0.4408467759	 3.2481117184	 1.6625602382	 0.275141
C	-0.1777131186	 4.3856455833	 1.942170194	-0.387726
H	-2.8520609146	 1.9446220781	 2.0631809002	 0.143182
H	-2.5111995767	 0.6041283225	 0.8513732186	 0.138589
H	-0.6310534713	 0.0159400963	 2.113895028	 0.250855
H	 0.0600137612	 5.388756417	 2.1983747889	 0.204124
55.8769	132.2105	185.554	249.574	266.0443	366.0152	407.0223	438.062	522.5322	545.2667	584.3123	614.3713	629.42	677.8281	740.5337	878.684	888.7872	945.3642	992.517	1069.389	1125.0484	1190.6036	1205.2159	1215.8615	1275.6796	1352.4519	1364.4987	1499.7935	2250.6981	3128.4035	3223.6731	3500.6647	3503.3828
FC(F)(F)C1(CN1)C#C	FC(F)(F)[C@]1(CN1)C#C	
InChI=1S/C5H4F3N/c1-2-4(3-9-4)5(6,7)8/h1,9H,3H2	InChI=1S/C5H4F3N/c1-2-4(3-9-4)5(6,7)8/h1,9H,3H2/t4-/m1/s1
