14
gdb 45913	3.01344	1.52956	1.04288	2.4806	66.98	-0.2572	-0.0685	0.1887	1063.4531	0.102861	-470.049276	-470.04175	-470.040806	-470.081813	27.828	
N	-0.1456570728	 1.3555604727	-0.0736723901	-0.47998
C	-0.0607955329	 0.1153572716	 0.1066603591	 0.415404
C	-1.2314723356	-0.8150256064	-0.0545859363	-0.255735
N	-1.1798430369	-1.8544529701	 0.9570814736	-0.334835
C	-0.0096790713	-2.5358603653	 1.1794741934	 0.237238
N	 0.0226104698	-3.7005510279	 1.6917773256	-0.49793
C	 1.2663718838	-1.7815734522	 0.8402401483	 0.384725
O	 2.3533806923	-2.2583853927	 0.9738114784	-0.293627
O	 1.1548432338	-0.4862895941	 0.4010528479	-0.232141
H	 0.7653820799	 1.805567574	 0.0343949414	 0.243276
H	-2.1412365271	-0.2258913889	 0.0582866791	 0.163123
H	-1.2170414597	-1.2201186319	-1.0806129723	 0.138791
H	-2.0096516534	-2.4172408573	 1.0835352622	 0.263595
H	 0.99545395	-3.9797677715	 1.8226699098	 0.248099
71.5002	116.5021	172.5922	349.9798	385.838	414.3536	428.4397	494.8499	548.7474	606.1896	616.9971	688.5643	792.7305	816.9458	899.5141	913.6679	942.7069	1022.5212	1033.9131	1119.6743	1136.9962	1198.7161	1247.5811	1326.9451	1352.576	1434.9291	1466.7235	1502.5845	1728.7952	1782.9291	1865.4396	2964.217	3136.7611	3477.9664	3491.0289	3600.1397
N=C1CNC(=N)C(=O)O1	[NH][C]1CN[C]([NH])C(=O)O1	
InChI=1S/C4H5N3O2/c5-2-1-7-3(6)4(8)9-2/h5H,1H2,(H2,6,7)	InChI=1S/C4H5N3O2/c5-2-1-7-3(6)4(8)9-2/h5H,1H2,(H2,6,7)
