18
gdb 45541	4.29363	1.22576	1.00398	8.8427	81.2	-0.161	-0.0151	0.1459	1165.5161	0.150242	-401.919634	-401.912237	-401.911293	-401.951489	29.355	
O	 0.1048838294	 0.0264273231	-0.2829021127	-0.436917
C	-0.0485516744	 1.2327843716	-0.1061651449	 0.386451
C	-1.2030373168	 2.0174124283	 0.1068540849	-0.4171
H	-2.2242439352	 1.7862159622	-0.1499370426	 0.093986
N	-0.8228693916	 3.4292630069	 0.0999920785	-0.066907
H	-1.1415841815	 3.9001720292	-0.7561820496	 0.274359
C	-1.1596846542	 4.3437144319	 1.2470297045	-0.163407
C	-0.1684400861	 5.5055197833	 1.0717759762	-0.238444
C	 1.1285327679	 4.8347167564	 0.5225026829	-0.325532
C	 0.6778018995	 3.4668470153	 0.0979392462	 0.288983
C	 1.118412032	 2.2227096902	-0.0155619732	-0.328519
H	-2.2129084359	 4.625354488	 1.2045294698	 0.133663
H	-0.9777760994	 3.7546266252	 2.148061095	 0.155369
H	-0.5593623168	 6.2348837878	 0.3551035059	 0.119038
H	-0.0030419226	 6.0358970545	 2.0107929363	 0.133302
H	 1.5588097469	 5.4184121619	-0.2981607866	 0.129826
H	 1.899877691	 4.7579171886	 1.2938919433	 0.140985
H	 2.1526339279	 1.9055876958	-0.0036669438	 0.120864
98.0931	165.9975	207.2927	311.4134	357.0118	454.8071	485.1176	531.111	605.3472	654.0421	702.2942	728.9534	777.3388	828.8621	861.9754	891.8324	909.5812	915.0963	997.2855	1004.7435	1061.9098	1075.7401	1099.6406	1152.8473	1164.8838	1173.9783	1206.1121	1230.9207	1241.5171	1301.5813	1325.2494	1337.2832	1373.0324	1386.5619	1486.3525	1496.8221	1508.2014	1722.5102	1750.791	3045.8523	3059.8691	3085.4562	3087.9858	3123.6248	3149.748	3234.7017	3255.8231	3321.5055
O=C1[CH-][NH+]2CCCC2=C1	O=C1[CH][N@H]2CCC[C]2[CH]1	
InChI=1S/C7H9NO/c9-7-4-6-2-1-3-8(6)5-7/h4-5,8H,1-3H2	InChI=1S/C7H9NO/c9-7-4-6-2-1-3-8(6)5-7/h4-5,8H,1-3H2
