23
gdb 40957	3.12891	1.27394	1.13864	1.2524	85.04	-0.2423	0.0808	0.3231	1199.6309	0.208549	-388.294283	-388.286124	-388.28518	-388.326786	32.958	
C	-0.0495359639	 1.5610521809	-0.1458092768	-0.211527
C	 1.4919288745	 1.5455231281	 0.0452177722	-0.283748
C	 1.3906129003	 0.0989221438	 0.6121748613	 0.359993
C	-0.0668831379	 0.0212986685	 0.0551155171	-0.25577
C	 2.390740805	-0.9363600423	 0.0948403918	-0.284055
C	 2.1282567824	-2.307814227	 0.7349206879	-0.208972
C	 2.0741340544	-2.1732908662	 2.2586542611	-0.061729
O	 1.1244297366	-1.2026688622	 2.6677085146	-0.248474
C	 1.4181855883	 0.0808704284	 2.1434886904	-0.126076
H	-0.5654041121	 2.0955625773	 0.6561090171	 0.103226
H	-0.4242267362	 1.9399295895	-1.0992393907	 0.096436
H	 2.0330734508	 1.5719540724	-0.9056943678	 0.094892
H	 1.9252525473	 2.3039348966	 0.7054011382	 0.09184
H	-0.8219303512	-0.3940892721	 0.726909838	 0.105971
H	-0.1140638358	-0.5206247205	-0.894577647	 0.091747
H	 2.3413455826	-1.0009279725	-0.9984006971	 0.087588
H	 3.4096680221	-0.605711885	 0.3450122307	 0.089956
H	 1.1703587507	-2.7065642165	 0.3798474593	 0.106164
H	 2.904717407	-3.0284444802	 0.4537949208	 0.091712
H	 1.774141551	-3.1120830092	 2.7332611081	 0.102822
H	 3.0738007211	-1.9040269114	 2.6447216201	 0.080798
H	 2.4112272416	 0.4168950756	 2.4940761896	 0.078007
H	 0.6686117215	 0.7595064541	 2.5633713611	 0.099196
106.6228	127.8371	195.3618	275.3169	299.4639	380.6808	390.3186	442.3011	471.87	559.3235	651.3644	718.0242	792.8069	846.3484	863.9562	883.3615	898.0282	905.4492	940.8341	943.4608	985.9828	1009.7511	1014.9162	1051.3224	1072.7255	1114.6578	1125.4054	1189.4633	1201.9298	1214.5786	1215.6191	1237.7686	1254.8447	1268.5847	1280.0587	1314.5561	1328.847	1336.8007	1355.6341	1374.2908	1396.549	1417.9535	1475.3532	1478.5516	1482.93	1487.9288	1490.8062	1501.8791	1511.1131	2938.5574	2948.1072	3001.2934	3029.6533	3040.8135	3049.6695	3054.5504	3062.3728	3071.0209	3074.5305	3083.3814	3086.1481	3100.9418	3117.8263
C1CC2(C1)CCCOC2	C1CC2(C1)CCCOC2	
InChI=1S/C8H14O/c1-3-8(4-1)5-2-6-9-7-8/h1-7H2	InChI=1S/C8H14O/c1-3-8(4-1)5-2-6-9-7-8/h1-7H2
