14
gdb 127469	3.09505	1.33043	0.93666	4.7452	74.12	-0.2343	-0.0365	0.1977	1174.4306	0.102759	-429.070735	-429.062435	-429.061491	-429.104071	29.488	
C	-0.0265028128	 1.3880105726	-0.0447193025	-0.312093
N	 0.0091432247	-0.0598388269	-0.016940123	 0.14618
N	 0.0780165215	-0.7773900467	-1.1495368773	-0.307545
C	 0.0988239255	-2.0389417617	-0.7194649659	 0.281746
N	 0.2290055174	-3.1159717665	-1.5585668182	-0.600571
C	 0.0331410742	-2.0222943997	 0.697411786	 0.176834
N	-0.0223457425	-0.7393315731	 1.1021921762	-0.286976
C	 0.0142136246	-3.1292144023	 1.5751431796	 0.22094
N	-0.004491972	-4.0840715047	 2.2313952666	-0.349062
H	 0.8830111825	 1.772031702	-0.5128550374	 0.160238
H	-0.8941049855	 1.7253835083	-0.6166457482	 0.15888
H	-0.0954142827	 1.7324363833	 0.9855564775	 0.171441
H	-0.0306213854	-2.9392238414	-2.5174109943	 0.267755
H	-0.1199222698	-3.9918324832	-1.199555349	 0.272235
66.7385	130.4425	146.1587	201.4629	283.8654	321.5149	347.6651	425.7051	532.4292	552.678	562.0583	616.7634	660.5348	668.9094	777.218	845.1905	1024.5887	1072.3797	1133.9823	1150.352	1260.2668	1325.0707	1382.4663	1430.9885	1452.7595	1475.2265	1505.8074	1533.5616	1582.3497	1656.0343	2343.1606	3061.4938	3129.9529	3183.0373	3578.7315	3684.6452
CN1N=C(N)C(=N1)C#N	Cn1nc(N)c(n1)C#N	
InChI=1S/C4H5N5/c1-9-7-3(2-5)4(6)8-9/h1H3,(H2,6,8)	InChI=1S/C4H5N5/c1-9-7-3(2-5)4(6)8-9/h1H3,(H2,6,8)
