16
gdb 124967	3.33719	1.17629	0.87915	4.4631	76.35	-0.2414	0.0062	0.2476	1264.5692	0.123725	-396.904206	-396.895358	-396.894414	-396.939408	31.293	
C	-0.9950404913	 1.3614057748	 0.3826409802	-0.504755
C	-0.2660951875	 0.0840851159	 0.1216793856	 0.217521
C	 0.4001488177	-0.3400787094	-1.0108367663	 0.2861
C	 0.6311218555	 0.3009731738	-2.3511913667	-0.478319
C	 1.4080228062	-0.5338523971	-3.2624694569	 0.275726
C	 2.049354414	-1.2437181688	-3.9896770757	-0.417699
N	 0.8605568211	-1.566181121	-0.6714395806	-0.226125
N	 0.5157601617	-1.901574215	 0.5820625729	-0.127441
N	-0.1675153031	-0.900348799	 1.0625929679	-0.247607
H	-0.3387219294	 2.2346663923	 0.2925885005	 0.127543
H	-1.8300536376	 1.5071701713	-0.3123112254	 0.127544
H	-1.3975385724	 1.3427141156	 1.3974173634	 0.152865
H	-0.3354369399	 0.5434643819	-2.8133067179	 0.161245
H	 1.1415052934	 1.2639571002	-2.2141969686	 0.161247
H	 2.6148554386	-1.8519291151	-4.6522365443	 0.2103
H	 1.400753793	-2.1979102306	-1.2434479079	 0.281853
20.5433	67.4336	115.4551	216.8324	236.1037	281.1276	322.0507	380.1637	501.4505	607.5598	630.963	649.4578	672.191	686.1677	738.6969	771.6626	948.3072	962.0632	986.1739	1036.9416	1068.0172	1091.5322	1183.4213	1219.9284	1235.1441	1310.5675	1341.9935	1368.1178	1416.8019	1464.2457	1487.2633	1487.3113	1516.0874	1614.2926	2241.7426	3013.109	3029.3998	3035.0129	3077.86	3133.6388	3502.1183	3639.9045
CC1=C(CC#C)NN=N1	Cc1c(CC#C)[nH]nn1	
InChI=1S/C6H7N3/c1-3-4-6-5(2)7-9-8-6/h1H,4H2,2H3,(H,7,8,9)	InChI=1S/C6H7N3/c1-3-4-6-5(2)7-9-8-6/h1H,4H2,2H3,(H,7,8,9)
