17
gdb 46493	4.10634	1.19074	1.02104	3.9193	76.7	-0.2434	-0.0367	0.2066	1150.7602	0.138645	-418.023983	-418.016446	-418.015502	-418.056041	29.438	
O	 0.0076014169	-0.0604004672	 0.3518112163	-0.376921
C	-0.0063764708	 1.1351438315	 0.116369275	 0.391463
N	-1.1795876281	 1.8241626721	-0.1087862016	-0.342463
C	-1.2612117992	 3.2760016403	-0.0358841453	-0.265214
C	-0.0641180189	 3.9038038448	-0.7262619251	 0.301537
C	-0.2375388657	 4.5802903158	-2.0490482056	-0.269034
N	-0.0035603833	 5.3719041462	-0.8343412463	-0.355088
C	 1.2116018418	 3.2194637088	-0.4123157777	-0.098071
C	 1.2315493881	 1.9471071045	-0.0049053583	-0.178406
H	-2.0093440714	 1.2904973811	 0.1066087054	 0.247066
H	-2.1917465023	 3.6046102538	-0.5101876573	 0.110003
H	-1.2833307142	 3.6229390433	 1.0114909607	 0.113265
H	 0.5789884847	 4.5877972945	-2.7652066208	 0.128516
H	-1.2306670575	 4.5635122922	-2.4910389868	 0.120345
H	-0.8758397728	 5.781269486	-0.505494391	 0.235681
H	 2.1220253771	 3.7957414366	-0.5502984342	 0.11875
H	 2.1506532754	 1.4160375956	 0.2114430025	 0.118572
81.5131	178.7595	230.1758	308.3618	350.7996	395.325	433.9543	471.0252	566.734	601.2792	681.8946	718.2567	789.0279	822.2277	860.6413	901.7016	940.1628	964.0994	982.3594	1010.4076	1016.1737	1071.3065	1109.9851	1136.7986	1159.5231	1235.6033	1263.7877	1298.6676	1329.6615	1360.9576	1392.7768	1424.5095	1474.4903	1505.34	1515.6598	1683.4252	1783.4175	2954.4802	3063.409	3107.669	3174.4496	3196.4794	3214.474	3486.7147	3609.7487
O=C1NCC2(CN2)C=C1	O=C1NC[C@]2(CN2)C=C1	
InChI=1S/C6H8N2O/c9-5-1-2-6(3-7-5)4-8-6/h1-2,8H,3-4H2,(H,7,9)	InChI=1S/C6H8N2O/c9-5-1-2-6(3-7-5)4-8-6/h1-2,8H,3-4H2,(H,7,9)/t6-/m0/s1
