18
gdb 55089	3.55322	1.10921	0.98373	2.2652	72.69	-0.2448	0.0229	0.2676	1238.8037	0.146176	-439.089039	-439.07987	-439.078926	-439.123715	33.548	
C	 0.3799678674	 1.525943563	-0.0288214173	-0.503627
C	-0.0685129717	 0.1070843805	 0.0783247633	 0.436727
C	-1.4884529067	-0.4629758141	-0.0879642838	-0.311957
C	-1.0984818572	-1.6375442211	 0.8734326674	-0.129453
C	 0.3066536355	-0.9933645129	 0.9795775919	-0.039623
O	 0.836744165	-0.9327208563	-0.3451201478	-0.292811
C	-1.850494795	-1.6067553109	 2.1952418497	 0.399687
N	-1.9759567487	-2.8181899899	 2.8100728948	-0.531487
O	-2.2652647282	-0.5769330595	 2.6950594849	-0.367548
H	 1.4196221379	 1.6237188907	 0.294703457	 0.132964
H	 0.3099389741	 1.8788346245	-1.0640727311	 0.129154
H	-0.2466969977	 2.1726532009	 0.5929460878	 0.137089
H	-2.2518683393	 0.1667646937	 0.3715112222	 0.136539
H	-1.7674252364	-0.739229675	-1.1071242554	 0.101152
H	-1.080831557	-2.6373182719	 0.4309480605	 0.075358
H	 1.008262037	-1.0449999642	 1.8051440447	 0.106071
H	-1.6891200989	-3.6759452188	 2.3735054723	 0.260399
H	-2.4571850401	-2.8582464487	 3.693712439	 0.261365
34.526	85.3232	158.9791	183.0212	216.3968	290.6741	304.9298	379.644	385.7176	476.5906	580.766	613.6018	647.7398	724.141	768.9794	790.3224	874.4914	900.5807	955.5079	974.4907	999.6794	1024.6461	1047.0667	1074.1887	1107.0374	1178.6389	1193.7267	1217.2108	1241.7251	1270.2365	1283.4817	1397.9296	1403.9427	1446.1576	1474.5055	1485.0451	1498.795	1615.3716	1788.5373	3035.3632	3068.2066	3075.1217	3099.7061	3123.2384	3144.496	3178.072	3603.1776	3741.9688
CC12CC(C1O2)C(N)=O	C[C@]12C[C@@H]([C@H]1O2)C(=O)N	
InChI=1S/C6H9NO2/c1-6-2-3(5(7)8)4(6)9-6/h3-4H,2H2,1H3,(H2,7,8)	InChI=1S/C6H9NO2/c1-6-2-3(5(7)8)4(6)9-6/h3-4H,2H2,1H3,(H2,7,8)/t3-,4+,6-/m0/s1
