18
gdb 54840	2.51083	1.4721	1.18336	4.8911	71.7	-0.2248	0.0104	0.2352	1092.2253	0.148002	-439.080798	-439.072243	-439.071299	-439.114643	32.48	
N	 0.0397140802	 1.097158026	-0.0145001437	-0.607496
H	 0.2435664648	 0.1030820056	-0.0189135995	 0.232845
H	 0.9082093966	 1.5869348446	-0.2102790958	 0.235674
H	-3.0988798153	 0.8266078849	 0.4548613818	 0.310349
C	-0.518099472	 1.5195418246	 1.227112974	 0.323662
C	-0.8282182674	 2.9922892894	 1.5146962364	-0.274787
C	-0.5515324311	 2.748537765	 3.0363335698	-0.229598
C	-0.2319682782	 1.2812118149	 2.7390804059	-0.127731
C	-1.400426971	 0.6243750527	 2.0456657092	-0.233143
C	-2.8480974007	 0.9316535073	 2.3445272887	 0.422994
O	-3.3099326231	 1.1455449399	 3.4302306912	-0.318812
O	-3.6447616531	 0.9540124224	 1.2417095378	-0.37757
H	-0.0848728243	 3.6572786508	 1.0668421107	 0.101182
H	-1.8232733894	 3.3458951178	 1.225795675	 0.110614
H	 0.3179727498	 3.3052883797	 3.390630709	 0.100447
H	-1.389569374	 2.9205232561	 3.7144201495	 0.133547
H	 0.5248356195	 0.6798433468	 3.2296360793	 0.087104
H	-1.2414055613	-0.4338511685	 1.8372487607	 0.110719
32.5165	127.5754	153.3186	234.1943	277.4485	348.3157	364.731	426.8239	490.1612	554.3977	606.7335	615.3752	719.4057	793.5593	801.4346	822.9622	851.3629	885.3325	930.7931	957.353	965.0981	1006.0075	1044.8792	1069.3202	1126.9354	1141.0542	1179.2686	1214.5302	1236.8364	1258.1001	1278.2132	1292.5775	1337.0938	1364.5804	1453.9778	1485.1476	1510.5811	1651.5134	1865.75	3047.5034	3075.7625	3096.3892	3113.0451	3129.9041	3179.0165	3489.6138	3575.1669	3783.9227
[NH3+]C12CCC1C2C([O-])=O	N[C@]12CC[C@H]1[C@H]2C(=O)O	
InChI=1S/C6H9NO2/c7-6-2-1-3(6)4(6)5(8)9/h3-4H,1-2,7H2,(H,8,9)	InChI=1S/C6H9NO2/c7-6-2-1-3(6)4(6)5(8)9/h3-4H,1-2,7H2,(H,8,9)/t3-,4-,6+/m0/s1
