17
gdb 61113	2.49463	1.16722	1.00138	2.5179	80.68	-0.2494	-0.028	0.2214	1244.7738	0.130485	-384.627975	-384.617711	-384.616767	-384.663273	36.889	
C	-0.0733741556	 1.5554646699	-0.0639500506	-0.420724
C	-0.0118297244	 0.0075744454	-0.0547999635	-0.109437
C	 0.7012657443	-0.504309973	 1.2475363908	-0.383324
C	 0.0841681171	-0.0635829277	 2.4926232686	 0.310731
C	-0.4162339277	 0.3015501168	 3.523013655	-0.449519
C	-1.461979902	-0.505622076	-0.0539394447	 0.161779
O	-1.97353868	-1.1509861379	-0.9262448634	-0.24206
C	 0.7238686887	-0.4866627558	-1.2132582739	 0.355586
C	 1.3625393955	-0.8851050168	-2.1490835826	-0.446211
H	 0.9379821576	 1.9676626361	-0.012866751	 0.135694
H	-0.5452763444	 1.9130848286	-0.9820679861	 0.141152
H	-0.639763178	 1.9206246594	 0.7968880446	 0.137901
H	 0.7411012999	-1.5989249681	 1.2157909857	 0.153295
H	 1.7396780007	-0.1563888864	 1.2080286092	 0.150703
H	-0.8543350189	 0.6160581505	 4.4380559164	 0.20354
H	-2.0212583989	-0.2015323868	 0.8567176703	 0.101116
H	 1.9075146361	-1.2425864082	-2.9877451849	 0.199778
60.1637	82.6461	123.7668	147.1103	186.0954	231.8801	299.2739	314.7432	324.3482	350.7977	420.5642	483.0626	543.2033	625.0554	643.0987	651.0461	655.9987	667.7089	739.2006	869.1042	926.5836	935.8431	977.8584	1011.851	1105.364	1153.8709	1208.3993	1270.9459	1340.0054	1398.3044	1420.8112	1466.4504	1491.0311	1496.0811	1841.0854	2234.5805	2242.8015	2911.0902	3038.0933	3047.7753	3074.9736	3125.7178	3133.243	3501.4872	3503.2171
CC(CC#C)(C=O)C#C	C[C@@](CC#C)(C=O)C#C	
InChI=1S/C8H8O/c1-4-6-8(3,5-2)7-9/h1-2,7H,6H2,3H3	InChI=1S/C8H8O/c1-4-6-8(3,5-2)7-9/h1-2,7H,6H2,3H3/t8-/m1/s1
