15
gdb 127870	3.96425	1.13242	0.88572	1.4847	77.16	-0.2199	-0.0578	0.1621	1246.7196	0.111388	-453.918664	-453.910253	-453.909309	-453.953282	30.175	
C	 0.0256694512	 1.4478037752	 0.0072143259	-0.329795
N	 0.0319256208	-0.0055800625	 0.0034669993	-0.309368
C	-1.0799963117	-0.6485741677	 0.0095087765	 0.30744
C	-2.4277091278	-0.0428195987	 0.0204683996	-0.015037
N	-3.5598270248	-0.6457850849	 0.0267878007	-0.078841
O	-3.5240229488	-2.0494724457	 0.022817117	-0.28717
C	-2.3338461398	-2.6970149266	 0.0129051982	 0.507948
O	-2.5082918598	-4.0226034191	 0.0107026601	-0.398933
C	-1.1336115496	-2.0908594531	 0.006166643	-0.344494
H	 1.0593818868	 1.8026552726	-0.0014265378	 0.126872
H	-0.4733894165	 1.8767593327	-0.8747521263	 0.115438
H	-0.456789125	 1.8718216099	 0.9007259659	 0.115546
H	-2.5387284488	 1.0368896987	 0.0241959429	 0.144209
H	-3.4575270696	-4.2049504303	 0.0166360995	 0.316342
H	-0.2256686465	-2.6767577005	-0.0016334043	 0.129843
15.637	104.1937	159.7925	224.4873	294.0368	335.5362	379.6485	414.4349	459.0416	539.7648	586.8808	659.1838	722.4902	725.7381	850.8508	893.6257	951.1371	955.7816	991.3861	1027.0579	1094.2526	1151.4591	1194.0736	1267.6563	1311.4047	1341.0581	1420.1436	1432.9696	1488.6806	1509.2038	1642.7456	1692.6087	1737.0739	2975.0936	3025.1632	3097.866	3192.995	3240.0316	3788.6353
CN=C1C=NOC(O)=C1	C[N]C1=C[C](ON=C1)O	
InChI=1S/C5H6N2O2/c1-6-4-2-5(8)9-7-3-4/h2-3,8H,1H3	InChI=1S/C5H6N2O2/c1-6-4-2-5(8)9-7-3-4/h2-3,8H,1H3
