21
gdb 90138	3.26166	1.47323	1.31721	0.3313	86.81	-0.213	0.0204	0.2334	1073.6179	0.184165	-349.929442	-349.921718	-349.920774	-349.961045	31.963	
C	-0.1154727363	 1.5793503842	 0.0665952767	-0.40312
C	 0.0743308746	 0.0702180997	-0.022655023	-0.020223
C	 1.1759558947	-0.5088041551	-0.9855496684	-0.31451
C	 1.769457721	-1.287683104	 0.2051438547	 0.241951
C	 2.1867484927	-0.3470122303	 1.3077992076	-0.363953
C	 0.7295270456	-0.6773143268	 1.1629581859	 0.247892
C	 0.1310367606	-1.8086807546	 1.9895582424	-0.363296
C	 0.9030098462	-3.0292166376	 1.4880443877	-0.060635
C	 1.7603145194	-2.7439715023	 0.4963868372	-0.179626
H	 0.8253229456	 2.0911776707	 0.2957399879	 0.113141
H	-0.4897076718	 1.9854672443	-0.8799051195	 0.110678
H	-0.8344115519	 1.839165064	 0.8515495285	 0.113574
H	-0.8866350282	-0.4027323826	-0.2515159464	 0.07289
H	 0.7650687373	-1.1479530723	-1.7695059651	 0.102821
H	 1.8452123838	 0.2241897445	-1.4494239288	 0.091815
H	 2.6979988955	-0.8043944566	 2.1476822529	 0.114621
H	 2.5453430135	 0.6471917542	 1.0534249716	 0.105811
H	 0.2459773404	-1.6720410065	 3.0727260751	 0.106987
H	-0.9475054394	-1.9179108336	 1.8094470891	 0.103853
H	 0.7780096909	-4.012450131	 1.9323791027	 0.088779
H	 2.3872756558	-3.4741005286	-0.0050354087	 0.090552
136.35	211.9593	224.766	268.2743	299.7884	415.1448	418.7824	478.3197	571.4277	627.0067	687.3934	735.1708	769.7591	802.1706	825.015	857.9762	887.7058	912.4869	932.8061	942.5164	959.0566	972.1111	1001.5302	1073.1535	1076.2936	1092.9588	1123.7894	1133.0848	1161.0878	1194.1731	1219.0614	1245.9169	1260.01	1282.9235	1316.4769	1347.8105	1374.7921	1385.0044	1412.691	1471.4531	1479.7241	1488.8888	1495.7787	1498.4827	1637.8404	3008.2283	3025.7463	3037.1836	3039.6184	3042.0381	3091.5027	3096.1825	3110.1954	3112.5056	3166.7224	3192.0665	3208.3003
CC1CC23CC12CC=C3	C[C@H]1C[C@@]23C[C@@]12CC=C3	
InChI=1S/C9H12/c1-7-5-8-3-2-4-9(7,8)6-8/h2-3,7H,4-6H2,1H3	InChI=1S/C9H12/c1-7-5-8-3-2-4-9(7,8)6-8/h2-3,7H,4-6H2,1H3/t7-,8-,9-/m0/s1
