16
gdb 105165	2.74089	1.1399	0.97506	3.6047	71.58	-0.2773	-0.0566	0.2207	1215.4589	0.122972	-437.891871	-437.882949	-437.882005	-437.925828	32.025	
O	 0.1110388088	 1.352682062	-0.3203489356	-0.419358
C	 0.0692927828	 0.0248460572	 0.1527004539	-0.151444
C	-1.3448930728	-0.5380301678	 0.1121287226	 0.198462
C	-1.8985320179	-1.1204272558	-1.1706668236	-0.309808
C	-1.590794818	-2.0505998817	-0.0285096005	-0.232035
C	-0.4663270824	-2.9422984852	-0.0929296821	 0.303091
N	 0.4353950066	-3.6649933131	-0.1415878758	-0.328164
C	-2.3292204681	 0.1711134777	 0.9734841482	 0.12639
O	-2.0789494493	 1.1835861328	 1.5827815812	-0.269233
H	-0.373448012	 1.8822016697	 0.3250903927	 0.300093
H	 0.7260060681	-0.5685296305	-0.4895014945	 0.129169
H	 0.4528879214	-0.0554469927	 1.1799894357	 0.114362
H	-2.9450091626	-0.9627300157	-1.4076803442	 0.14191
H	-1.2289500609	-1.119625224	-2.0223403159	 0.163606
H	-2.4367131592	-2.4527067565	 0.5215116359	 0.144243
H	-3.3437511446	-0.2869839065	 1.015028032	 0.088714
87.0371	111.3754	118.9804	186.3898	217.9128	286.3872	314.7798	350.5263	430.4875	503.9585	525.1883	554.5682	631.8684	768.3211	828.9168	865.3313	934.1849	943.7877	987.9411	1047.7285	1060.8975	1086.0062	1092.4234	1132.7888	1195.382	1286.9184	1326.0172	1390.0881	1395.4457	1432.2544	1445.828	1477.5907	1499.2388	1806.0306	2357.4517	2875.196	3006.5813	3094.6455	3144.5308	3153.9365	3239.3082	3784.4541
OCC1(CC1C#N)C=O	OC[C@]1(C[C@H]1C#N)C=O	
InChI=1S/C6H7NO2/c7-2-5-1-6(5,3-8)4-9/h3,5,9H,1,4H2	InChI=1S/C6H7NO2/c7-2-5-1-6(5,3-8)4-9/h3,5,9H,1,4H2/t5-,6-/m0/s1
