15
gdb 30640	4.5667	1.04955	0.858	2.7264	68.61	-0.2452	-0.0469	0.1983	1258.233	0.113156	-453.987279	-453.979132	-453.978188	-454.020694	28.954	
O	 0.010672561	 1.4198783857	 0.0101635198	-0.390423
C	-0.0030916396	 0.0199099279	 0.0028460869	-0.199747
C	-1.4584082918	-0.436985697	 0.0119773723	 0.430649
O	-2.3993989291	 0.3072681201	 0.0231045562	-0.289314
N	-1.6386683472	-1.8402650251	 0.0063950782	-0.099455
C	-2.8784868884	-2.4719728105	 0.0128888286	-0.091695
C	-2.6098837356	-3.8047172403	 0.004211432	-0.094556
N	-1.2408787543	-4.0347838974	-0.0076966246	-0.270398
C	-0.6935482691	-2.8536279003	-0.0062487314	 0.028184
H	 0.928031449	 1.7084881868	 0.0022119301	 0.298846
H	 0.4832737564	-0.4071341192	-0.8897467993	 0.125726
H	 0.4973867284	-0.4164912823	 0.8830426532	 0.125713
H	-3.7842283446	-1.8921690024	 0.0228787684	 0.162739
H	-3.3112715031	-4.6245777671	 0.0056867875	 0.123565
H	 0.366690908	-2.654320089	-0.0136185681	 0.140164
76.7238	100.5642	155.526	175.3671	214.464	306.5902	385.4179	509.7404	553.3529	641.1141	667.2267	754.4664	774.7057	823.3448	885.5776	907.8462	961.9432	1032.9364	1049.6534	1090.8202	1128.0497	1152.3943	1228.4764	1264.3881	1274.5527	1306.2169	1323.6222	1404.8912	1457.5236	1506.7957	1514.6551	1571.3494	1843.113	2965.7394	2993.3117	3258.4935	3262.2265	3308.1976	3838.3921
OCC(=O)N1C=CN=C1	OCC(=O)n1ccnc1	
InChI=1S/C5H6N2O2/c8-3-5(9)7-2-1-6-4-7/h1-2,4,8H,3H2	InChI=1S/C5H6N2O2/c8-3-5(9)7-2-1-6-4-7/h1-2,4,8H,3H2
