21
gdb 38308	2.82135	1.87483	1.8374	1.266	79.5	-0.2433	0.0817	0.325	904.1116	0.188438	-387.080037	-387.073929	-387.072985	-387.10999	27.746	
C	-0.03244032	 1.554456357	 0.1268856153	-0.228486
C	 1.5154181323	 1.439494061	 0.0398897764	-0.040826
C	 1.3378095937	 0.1055355985	 0.8328498368	-0.205292
C	-0.0084776668	 0.0021014034	 0.0476205588	-0.040829
C	 0.347213445	-0.4558462257	-1.4109011066	 0.085294
C	-0.1424204971	 0.5171361464	-2.5123964282	-0.222594
C	 0.995248663	 1.5903130507	-2.5181369065	-0.222601
C	 1.9439576201	 1.0503071049	-1.4190108336	 0.085297
O	 1.7691156828	-0.3646255895	-1.5677272925	-0.25456
H	-0.3459294672	 1.8921542733	 1.1187785597	 0.090882
H	-0.5793940006	 2.1303177159	-0.6197230344	 0.091628
H	 2.1322855232	 2.2426355792	 0.449442162	 0.05693
H	 2.079359652	-0.6813157559	 0.7075407698	 0.108252
H	 1.1590773769	 0.3007222011	 1.8926391771	 0.088535
H	-0.8440377498	-0.5647372164	 0.4645477653	 0.056931
H	 0.0607521404	-1.4959055217	-1.5792922914	 0.072841
H	-0.1854586002	-0.0052214381	-3.4708484944	 0.101898
H	-1.1331368141	 0.9327384469	-2.3145981132	 0.100981
H	 1.5140692102	 1.5980183579	-3.4794407503	 0.101894
H	 0.63915633	 2.6045546389	-2.3235015566	 0.100985
H	 2.9980303964	 1.2747380724	-1.5942276234	 0.072841
269.0653	330.1105	360.5362	494.5701	503.5591	512.3072	576.121	703.7007	753.1796	778.5912	805.032	827.2366	861.026	879.4722	890.3467	911.3595	922.534	942.53	958.5428	990.6586	1014.596	1025.8586	1041.3659	1053.9981	1094.1762	1113.3409	1125.9297	1147.386	1166.4018	1233.4247	1234.9453	1241.9452	1258.7112	1263.3294	1276.7614	1306.7674	1330.627	1334.4246	1336.9252	1336.9976	1377.1533	1482.8882	1485.5985	1503.6475	1539.4195	3060.6708	3063.1893	3070.1701	3072.1155	3075.3495	3084.138	3093.4575	3100.5585	3103.6354	3117.5172	3125.9907	3150.685
C1C2CC1C1CCC2O1	C1[C@H]2C[C@@H]1[C@H]1CC[C@@H]2O1	
InChI=1S/C8H12O/c1-2-8-6-3-5(4-6)7(1)9-8/h5-8H,1-4H2	InChI=1S/C8H12O/c1-2-8-6-3-5(4-6)7(1)9-8/h5-8H,1-4H2/t5-,6+,7-,8+
