19
gdb 67855	2.26778	1.48422	1.16819	3.5241	82.15	-0.2274	-0.0162	0.2111	1139.6413	0.158968	-385.903042	-385.894658	-385.893714	-385.935905	32.133	
C	-0.0208143533	 1.5428419013	 0.0116144991	-0.483457
C	-0.0520253314	 0.0328587502	 0.0527949931	 0.291607
C	-1.346433943	-0.6842449739	-0.1905432754	-0.141407
C	-1.4763567272	-1.7655570795	 0.5807306591	-0.074064
C	-0.2756341787	-1.9595728205	 1.4820879077	-0.287792
C	 0.6555009806	-0.8154129144	 1.0776420169	-0.110132
C	 1.2207284546	-0.7433326487	-0.344590945	-0.15015
C	 1.2340431209	-1.8760322597	-1.2965711207	 0.145477
O	 2.1736697205	-2.1213769857	-2.0189190214	-0.27839
H	 0.962270126	 1.9267804763	 0.2995612839	 0.123011
H	-0.2415715688	 1.9162722012	-0.9946041479	 0.126486
H	-0.7636075855	 1.9669455848	 0.696486622	 0.124503
H	-2.0683861029	-0.3381534152	-0.9220418355	 0.099257
H	-2.3117664034	-2.4560823993	 0.5620501878	 0.102416
H	-0.5517391084	-1.8784281433	 2.5418105073	 0.116142
H	 0.180063593	-2.9502745296	 1.3621880987	 0.121598
H	 1.2799375748	-0.3614810802	 1.8387363217	 0.096852
H	 2.1148623201	-0.1328503547	-0.4324501356	 0.101609
H	 0.317667132	-2.499298109	-1.3251867556	 0.076434
90.	174.4044	196.9094	210.6225	226.1032	280.0351	360.6644	447.848	467.6636	524.8783	610.7807	705.6974	758.9745	784.002	840.8986	880.3705	919.886	946.0408	961.7918	965.5624	1026.297	1035.2203	1061.7337	1079.4816	1103.9437	1113.3076	1158.0134	1187.902	1231.2916	1268.2002	1312.7182	1330.9746	1353.552	1412.6772	1417.055	1453.723	1477.7868	1487.7352	1498.3338	1669.47	1798.0763	2925.5553	3020.4327	3027.9739	3049.9217	3089.722	3106.7235	3156.0562	3175.985	3185.3563	3210.4935
CC12C=CCC1C2C=O	C[C@]12C=CC[C@H]1[C@H]2C=O	
InChI=1S/C8H10O/c1-8-4-2-3-6(8)7(8)5-9/h2,4-7H,3H2,1H3	InChI=1S/C8H10O/c1-8-4-2-3-6(8)7(8)5-9/h2,4-7H,3H2,1H3/t6-,7+,8-/m0/s1
