23
gdb 100288	1.79146	1.40266	1.09064	1.0801	76.91	-0.2551	0.0473	0.3024	1276.6335	0.202989	-462.555552	-462.544267	-462.543323	-462.591942	41.759	
C	 0.7646831942	-1.006198875	-1.1466862389	-0.415507
C	 0.1319396072	-0.1552060129	-0.0293456552	-0.007723
C	 0.724840325	 1.2624442672	-0.0582562068	-0.414428
C	-1.4214781365	-0.1726310609	-0.0362388746	 0.295602
O	-1.893092022	-1.5333083308	 0.132325841	-0.495721
C	-2.0097525468	 0.5668786284	 1.178456399	-0.082875
O	-1.5051290846	 0.0737001794	 2.4026109053	-0.422961
C	-2.0703737156	 0.3708540763	-1.3301553336	-0.095217
O	-2.006093915	-0.5532451042	-2.397805494	-0.420059
H	 1.8531764593	-1.0113695393	-1.0319541635	 0.11397
H	 0.4469235315	-2.0564125724	-1.1282678695	 0.092789
H	 0.5173742374	-0.6201369232	-2.137796576	 0.147065
H	 0.4110665268	-0.5941349943	 0.9367809608	 0.084381
H	 0.3873304034	 1.8675112116	 0.786338727	 0.129476
H	 1.8163460091	 1.2060378053	-0.0019293856	 0.116933
H	 0.4778455992	 1.7930352267	-0.9839894797	 0.119603
H	-1.1638558245	-2.127993833	-0.065089341	 0.287017
H	-1.7777063365	 1.6348022807	 1.1406186404	 0.11165
H	-3.1046116665	 0.4633128568	 1.1330782995	 0.093493
H	-1.6900503059	-0.8734736352	 2.3892183285	 0.284041
H	-3.1172054171	 0.63894734	-1.1131196165	 0.087016
H	-1.5652048383	 1.2811030019	-1.6645992869	 0.11221
H	-2.3424049337	-1.3804900931	-2.0304395997	 0.279245
31.3353	103.9714	118.9547	194.8227	211.7098	222.1081	226.1431	246.048	291.4335	322.3543	383.8773	385.6096	420.0134	456.482	476.9384	500.0799	532.154	659.3585	714.0084	860.839	910.6407	933.5834	951.6557	964.2556	1004.6952	1054.4161	1074.1219	1085.7235	1128.7849	1154.2986	1179.3404	1197.4311	1215.8203	1250.1625	1348.0362	1352.9409	1368.4595	1384.8807	1406.4199	1412.0672	1425.2185	1430.9147	1439.1685	1479.8738	1487.4481	1498.5182	1505.9467	1509.1417	1516.7873	2968.4043	2992.0209	3020.7733	3030.1218	3041.1202	3080.876	3087.148	3094.7297	3102.646	3124.9562	3133.387	3774.6166	3785.3454	3836.8049
CC(C)C(O)(CO)CO	CC(C)C(O)(CO)CO	
InChI=1S/C6H14O3/c1-5(2)6(9,3-7)4-8/h5,7-9H,3-4H2,1-2H3	InChI=1S/C6H14O3/c1-5(2)6(9,3-7)4-8/h5,7-9H,3-4H2,1-2H3
