20
gdb 93127	2.19155	1.60045	1.01663	3.9882	82.03	-0.2363	0.017	0.2533	1199.2741	0.172545	-403.189931	-403.181435	-403.180491	-403.223177	32.542	
C	-0.1198152047	 1.5421627922	-0.053802462	-0.429561
C	 0.0683749478	 0.0270727755	-0.0043289774	 0.050246
C	 0.8467527599	-0.489009709	-1.2291566933	-0.239167
C	 1.1524135611	-1.95772907	-1.1067748237	-0.07021
C	 1.0863669136	-2.6026955575	 0.0550625481	-0.053627
C	 0.7595196857	-1.9256769855	 1.3555827509	-0.215836
N	 0.7065191924	-0.4734674563	 1.217981179	-0.071324
C	 1.2525512438	 0.2905352886	 2.2042640646	 0.145249
O	 1.7791187635	-0.1462101111	 3.2109434663	-0.353585
H	 0.8341453639	 2.0773481958	-0.0824296787	 0.132003
H	-0.6645616285	 1.7917954166	-0.9690430616	 0.124433
H	-0.7027356467	 1.913079877	 0.7936408008	 0.131057
H	-0.9314017233	-0.4321554545	-0.0408855247	 0.090507
H	 0.2545788877	-0.3005621006	-2.1337996858	 0.105996
H	 1.7744460631	 0.0902424808	-1.3464257698	 0.113792
H	 1.4250205329	-2.4903921827	-2.0137642137	 0.092254
H	 1.2768960557	-3.6707937642	 0.1116234329	 0.096268
H	-0.1960670279	-2.3075331306	 1.752449368	 0.114789
H	 1.5134792771	-2.1430021018	 2.1173022741	 0.156989
H	 1.176461733	 1.3709903474	 2.0063570361	 0.079728
58.6382	143.2375	193.8376	265.6117	301.8015	320.5525	350.8192	389.0991	435.8091	473.4342	519.3575	630.1428	679.2144	787.2187	806.8014	898.5504	931.2874	951.4853	995.6093	1009.7619	1019.9524	1027.8537	1073.0299	1114.9502	1129.2379	1164.7328	1228.9881	1229.2704	1265.4546	1321.5908	1336.1448	1382.4992	1388.5912	1408.8118	1411.7433	1443.6764	1470.0345	1473.8716	1491.9524	1496.4036	1505.5642	1730.5989	1774.8205	2966.6191	2980.041	3003.8529	3012.2059	3042.4612	3045.2252	3091.3528	3111.9517	3118.2576	3155.8136	3178.6953
CC1CC=CCN1C=O	C[C@H]1CC=CCN1C=O	
InChI=1S/C7H11NO/c1-7-4-2-3-5-8(7)6-9/h2-3,6-7H,4-5H2,1H3	InChI=1S/C7H11NO/c1-7-4-2-3-5-8(7)6-9/h2-3,6-7H,4-5H2,1H3/t7-/m0/s1
