23
gdb 113705	2.96108	0.97013	0.909	2.6055	82.64	-0.2516	0.0629	0.3145	1464.6359	0.202324	-425.414686	-425.403883	-425.402939	-425.450495	40.216	
C	 0.2755152911	 1.2725005237	-1.912838864	-0.381651
C	 0.196880613	 0.129998252	-0.8921385721	-0.235962
C	-1.0447404877	-0.7077180696	-1.1020049137	 0.066412
O	-0.9824010196	-1.7299728175	-2.10693521	-0.268494
C	-1.2500991126	-2.1304216485	-0.7636868407	 0.051573
C	-0.2930293087	-3.1074225651	-0.0717372621	 0.288474
C	-0.8230594705	-3.3947452313	 1.3417240842	-0.428775
C	-0.2165699489	-4.3877011586	-0.9093553374	-0.387864
O	 1.0502586544	-2.6312681315	 0.0072156672	-0.447508
H	 1.1749286348	 1.8758345239	-1.7586821424	 0.112927
H	 0.3041101001	 0.8762218825	-2.9324306829	 0.134663
H	-0.5913999673	 1.9382238697	-1.8358609883	 0.112511
H	 1.0742430584	-0.5120658947	-0.9766823953	 0.132942
H	 0.1789527974	 0.5463788941	 0.125093654	 0.087154
H	-1.9610734874	-0.1105917894	-1.1607583861	 0.080354
H	-2.2925705948	-2.4292032969	-0.6125890404	 0.078276
H	-1.8220194774	-3.8403406461	 1.3176994616	 0.1212
H	-0.1483365953	-4.0861570666	 1.8537793651	 0.126697
H	-0.8855180334	-2.4717232009	 1.9314946944	 0.108507
H	 0.187679367	-4.1532381976	-1.8964892039	 0.14238
H	 0.4379395371	-5.1149844894	-0.4215579349	 0.116907
H	-1.2077903874	-4.8328909655	-1.0350791337	 0.110874
H	 1.0844845577	-1.9507147467	 0.6872229415	 0.278402
41.1386	87.0246	153.4088	185.9608	221.8731	234.6743	244.0232	268.8038	284.7665	357.1079	376.7906	391.7521	427.5354	450.3045	546.4487	627.0604	727.698	774.0467	844.3152	855.1993	926.6303	933.5151	959.7828	972.2407	1013.9086	1030.9157	1067.1994	1099.6296	1132.3372	1163.8446	1190.8976	1205.3162	1253.7551	1297.7231	1315.5837	1341.7434	1363.8924	1394.8518	1407.1699	1410.6254	1421.0386	1480.5828	1483.8973	1485.1193	1490.1621	1499.4632	1499.9285	1506.938	1509.1169	3011.2567	3025.4798	3034.0031	3041.3312	3047.803	3056.6471	3095.4888	3096.9602	3113.2956	3118.5864	3124.0603	3134.585	3136.7103	3816.1672
CCC1OC1C(C)(C)O	CC[C@H]1O[C@H]1C(C)(C)O	
InChI=1S/C7H14O2/c1-4-5-6(9-5)7(2,3)8/h5-6,8H,4H2,1-3H3	InChI=1S/C7H14O2/c1-4-5-6(9-5)7(2,3)8/h5-6,8H,4H2,1-3H3/t5-,6-/m1/s1
