19
gdb 70550	2.62978	1.60466	1.21103	3.4912	77.33	-0.2256	0.0321	0.2576	1079.5002	0.160312	-419.19927	-419.191102	-419.190158	-419.231761	32.199	
C	 0.0346099049	 1.3263942044	-0.2315509432	-0.447837
C	-0.1047022106	-0.1334678748	 0.1189517868	 0.415472
C	-0.8392521036	-0.5721487187	 1.3580321462	-0.33672
C	 0.6657603214	-0.7574691831	 1.2467558472	-0.070912
N	 1.1603786527	-2.0714987743	 0.9410694257	-0.307914
C	 1.7723423381	-2.0965623076	-0.3850639848	-0.256893
C	 0.7027903086	-1.8075406142	-1.4154857291	 0.417511
N	 0.7017166595	-2.3690051126	-2.547814032	-0.523148
O	-0.2818544503	-0.9348746953	-1.0400316874	-0.280514
H	 0.9130718249	 1.4962578184	-0.8632690432	 0.124371
H	-0.8492297135	 1.6739400973	-0.7759538966	 0.132642
H	 0.139445285	 1.9323278986	 0.6727830722	 0.119535
H	-1.2298296816	 0.1959278984	 2.0168566587	 0.111111
H	-1.4272127641	-1.4789320451	 1.2830618599	 0.130299
H	 1.3091709737	-0.0907719517	 1.8232034473	 0.083311
H	 1.7849272198	-2.4213127546	 1.6549207485	 0.231179
H	 2.5918641949	-1.3638653801	-0.5051740267	 0.101764
H	 2.176292129	-3.0855560444	-0.6039715567	 0.138962
H	-0.0852291889	-2.0315267705	-3.1065911228	 0.21778
84.2206	161.5947	206.7838	256.5626	309.1509	389.0761	412.7552	447.9052	475.2099	492.7258	571.0054	625.8035	683.2613	793.8612	828.9144	868.5255	901.3449	916.0703	945.2299	968.1939	1024.3477	1043.5648	1055.2982	1058.5906	1107.9211	1129.2614	1142.6457	1176.6973	1234.5893	1258.9854	1287.7697	1337.0974	1349.9257	1412.9122	1426.568	1461.599	1481.267	1482.2969	1492.4605	1507.3341	1761.9554	2929.0482	3034.5849	3080.3554	3101.8867	3116.3509	3126.777	3138.0103	3237.8304	3460.037	3572.8102
CC12CC1NCC(=N)O2	C[C@]12C[C@H]1NC[C]([NH])O2	
InChI=1S/C6H10N2O/c1-6-2-4(6)8-3-5(7)9-6/h4,7-8H,2-3H2,1H3	InChI=1S/C6H10N2O/c1-6-2-4(6)8-3-5(7)9-6/h4,7-8H,2-3H2,1H3/t4-,6+/m1/s1
