15
gdb 24319	2.83389	2.52183	1.54193	4.2539	69.93	-0.2031	-0.028	0.1751	820.8037	0.115938	-416.739628	-416.733655	-416.73271	-416.769817	24.197	
C	-0.1718937197	 1.4979961469	-0.0551732411	-0.314412
C	 1.3873161584	 1.7516843443	 0.0864695704	-0.030425
C	 2.2074313635	 1.7188405709	 1.4260525715	-0.109133
O	 2.9567334912	 0.437815628	 1.3980013751	-0.253942
C	 2.1329702177	-0.3615747522	 0.6720024264	 0.319114
N	 1.4226093758	-1.4049073871	 1.0290144387	-0.302635
C	 0.1728664408	-1.1641212981	 0.4283191141	-0.081368
C	 0.191867447	-0.000153458	-0.3192203531	 0.001662
N	 1.5636680931	 0.3552893532	-0.3244870488	 0.005423
H	-0.7621642985	 1.6387226588	 0.8522849369	 0.13566
H	-0.6212470012	 2.0625998357	-0.8742872273	 0.131468
H	 1.7882310319	 2.4893772406	-0.6121208744	 0.109092
H	 2.9470276118	 2.5165233802	 1.4966419068	 0.138055
H	 1.5722129763	 1.722025254	 2.3183647823	 0.134709
H	-0.651891348	-1.8236001271	 0.6568853124	 0.116731
152.3654	295.8891	325.0525	386.9424	572.9914	621.852	655.0849	705.3342	724.2295	745.1134	816.0515	853.8001	861.9513	895.5158	910.1488	995.9866	1015.1299	1037.7736	1095.2911	1131.1133	1159.3948	1199.6045	1213.5809	1230.1973	1249.5042	1278.9223	1313.9323	1355.0617	1411.6283	1456.6567	1473.6972	1497.5751	1529.2918	3052.0347	3072.3912	3081.602	3131.4286	3142.0428	3244.706
C1C2COC3=NC=C1N23	C1[C@H]2CO[C]3[N][CH][C]1N23	
InChI=1S/C6H6N2O/c1-4-2-7-6-8(4)5(1)3-9-6/h2,5H,1,3H2	InChI=1S/C6H6N2O/c1-4-2-7-6-8(4)5(1)3-9-6/h2,5H,1,3H2/t5-/m0/s1
