21
gdb 114282	3.21749	1.14631	1.02894	1.3235	85.08	-0.2212	0.0252	0.2465	1251.4896	0.183863	-387.068288	-387.059824	-387.05888	-387.101416	32.892	
O	-0.1509673908	 1.5095505925	-0.3181827647	-0.423648
C	-0.0140897395	 0.1590154016	 0.1061914864	-0.084179
C	-1.387189009	-0.4801658032	 0.053709001	-0.012133
C	-1.9119656174	-0.7031221432	-1.418397773	-0.333843
C	-1.4608058543	-2.1351097842	-1.2478656359	 0.32158
C	-0.7129624705	-3.1129054645	-1.7471253788	-0.241096
C	-0.149914486	-3.9498426526	-0.5992120154	-0.234284
C	-0.2593112091	-2.9952222487	 0.6390650821	-0.250809
C	-1.4173868735	-2.0502189894	 0.2528033565	-0.054426
H	 0.7245474391	 1.9065038923	-0.3407120801	 0.285294
H	 0.6793798728	-0.392153596	-0.5485133865	 0.087382
H	 0.3840303168	 0.1023706274	 1.132366717	 0.084875
H	-2.0669816401	 0.0803929038	 0.7007314698	 0.075209
H	-2.9987584432	-0.5860300153	-1.477345028	 0.107308
H	-1.4486794486	-0.1068202275	-2.2075248042	 0.117487
H	-0.4566288561	-3.2847576596	-2.7863097974	 0.088117
H	-0.7248883631	-4.8737926889	-0.4419392521	 0.102589
H	 0.8835570962	-4.261855	-0.7867677549	 0.098221
H	-0.4280886284	-3.536257865	 1.5744824594	 0.092147
H	 0.679896168	-2.4430319553	 0.7489697289	 0.101377
H	-2.3589015533	-2.3332078544	 0.7394359998	 0.072833
80.8728	124.5293	180.9689	224.1419	259.5919	291.8235	352.6275	414.3028	491.0279	591.8628	649.9697	746.7303	790.4157	810.7714	825.2209	862.7948	891.97	905.9838	940.0758	962.1183	994.4429	1035.7079	1063.4031	1072.6734	1087.878	1123.6908	1126.3836	1169.0549	1177.6354	1212.4328	1221.2748	1243.1901	1259.702	1269.9472	1287.547	1306.0523	1331.6014	1341.4854	1357.5294	1460.1953	1478.6595	1485.7369	1500.1577	1521.9517	1735.8082	2963.5744	2994.327	3002.9839	3020.3359	3046.2979	3050.8635	3060.4577	3074.832	3095.022	3112.1219	3194.8411	3829.0788
OCC1CC2=CCCC12	OC[C@H]1C[C]2[CH]CC[C@@H]12	
InChI=1S/C8H12O/c9-5-7-4-6-2-1-3-8(6)7/h2,7-9H,1,3-5H2	InChI=1S/C8H12O/c9-5-7-4-6-2-1-3-8(6)7/h2,7-9H,1,3-5H2/t7-,8-/m1/s1
