18
gdb 91305	2.48553	1.54033	1.10588	5.3362	77.27	-0.2204	0.0179	0.2382	1122.8163	0.14831	-398.078639	-398.070341	-398.069397	-398.111731	31.016	
C	-0.0255543302	 1.5701607461	 0.1116353015	-0.32986
N	 0.0771487134	 0.1314671539	 0.1745915069	-0.048647
C	-1.1496651798	-0.6918853146	 0.2746754911	-0.161119
C	-0.4250754155	-1.5990192415	 1.292115606	-0.0274
N	 0.538814536	-2.5366477268	 0.6612912695	-0.311333
C	 1.6892615482	-1.6482805908	 0.9796497366	-0.140279
C	 2.6269206747	-1.4066094121	-0.1162364388	 0.311645
N	 3.3940481829	-1.2020243815	-0.9558144644	-0.329327
C	 0.6817345982	-0.5106961077	 1.343338611	-0.022285
H	 0.9749381398	 2.013675247	 0.1076787836	 0.133318
H	-0.5192439656	 1.859929094	-0.821432529	 0.130653
H	-0.5984102857	 2.0104170257	 0.950237683	 0.089108
H	-1.995925672	-0.1546983321	 0.7332024373	 0.086371
H	-1.4698268105	-1.1558181833	-0.6634291415	 0.115627
H	-0.9776882246	-1.9711763548	 2.1549537725	 0.083587
H	 0.5962366682	-3.4520445835	 1.0901903658	 0.230323
H	 2.2602802915	-1.9618031879	 1.8640316902	 0.110375
H	 0.9213193008	 0.12657877	 2.1981764688	 0.079244
90.9692	97.0595	187.956	207.9025	288.7408	290.7345	358.6573	400.647	529.8554	548.964	641.4317	699.695	753.3046	815.5711	863.8476	927.3064	957.7933	993.3029	1017.4193	1033.3729	1048.0457	1076.378	1130.0747	1156.1002	1170.0519	1186.4875	1204.1239	1239.6436	1269.8129	1295.0393	1303.9996	1354.1449	1372.8641	1395.9649	1453.7696	1484.5444	1499.462	1504.7334	2358.8602	2922.3057	2970.6267	3012.5745	3063.2571	3074.9123	3077.2629	3106.8603	3107.9062	3556.4244
CN1CC2NC(C#N)C12	CN1C[C@H]2N[C@@H](C#N)[C@@H]12	
InChI=1S/C6H9N3/c1-9-3-5-6(9)4(2-7)8-5/h4-6,8H,3H2,1H3	InChI=1S/C6H9N3/c1-9-3-5-6(9)4(2-7)8-5/h4-6,8H,3H2,1H3/t4-,5+,6+/m0/s1
