17
gdb 43298	3.0372	1.8056	1.38513	3.8153	77.89	-0.2284	-0.0486	0.1799	938.0382	0.13887	-384.694687	-384.688147	-384.687203	-384.72543	27.017	
O	 0.0102331212	-0.0414427991	 0.2181223916	-0.346986
C	-0.0450211821	 1.1590661136	 0.0327036125	 0.398077
C	-1.324248904	 1.8970274498	-0.0391553769	-0.200055
C	-1.3580377453	 3.1886877696	-0.4042836503	-0.033902
C	-0.1524253931	 3.9390631962	-0.8142596705	-0.079324
C	 1.0660804635	 4.2058797046	 0.0823830592	-0.06836
C	 1.2698004287	 3.09673774	 1.1067686949	-0.250315
C	 1.1962025003	 2.0304432883	-0.0539311794	-0.149409
C	 1.1378075054	 3.2091867954	-1.0599564489	-0.093554
H	-2.2229383488	 1.3402174832	 0.2043351614	 0.107034
H	-2.308474618	 3.7164934624	-0.4427202483	 0.106084
H	-0.3381147471	 4.7687634496	-1.4897408261	 0.097401
H	 1.4665733019	 5.2106202971	 0.1449373454	 0.094954
H	 2.2739514767	 3.120997048	 1.534429723	 0.119648
H	 0.5390858428	 3.0073661517	 1.9161657494	 0.109293
H	 2.0813573725	 1.4003086555	-0.1269549406	 0.093818
H	 1.6687098155	 3.2617118641	-2.0026175465	 0.095596
120.8507	272.2814	298.9202	417.4497	436.6785	486.0535	525.1704	679.2642	705.8665	744.6261	765.4206	792.6767	841.3115	873.1662	923.8433	934.9768	962.1865	972.474	998.5018	1018.7469	1028.3458	1058.0168	1076.2776	1133.1443	1144.6966	1169.6725	1220.9812	1249.6673	1253.1731	1285.0281	1301.8508	1337.8225	1398.653	1436.9084	1482.6786	1665.8105	1774.0373	3057.1679	3114.3467	3128.116	3146.5225	3160.1045	3178.057	3190.998	3194.406
O=C1C=CC2C3CC1C23	O=C1C=C[C@H]2[C@H]3C[C@@H]1[C@@H]23	
InChI=1S/C8H8O/c9-7-2-1-4-5-3-6(7)8(4)5/h1-2,4-6,8H,3H2	InChI=1S/C8H8O/c9-7-2-1-4-5-3-6(7)8(4)5/h1-2,4-6,8H,3H2/t4-,5+,6-,8-/m0/s1
