19
gdb 75651	2.53223	1.74631	1.27729	2.3336	75.19	-0.2358	-0.0156	0.2202	1030.759	0.159453	-423.037343	-423.029148	-423.028204	-423.069662	32.297	
C	-0.0289067045	 1.5278745538	 0.0541184395	-0.503971
C	 0.0083802749	 0.0187830486	 0.0352640158	 0.320091
C	 0.9383717698	-0.7966309452	-0.9180462708	-0.28327
C	 0.6988057964	-1.9549856623	 0.1028284246	-0.140793
C	 0.6412284409	-0.8205674958	 1.1898843131	-0.269961
C	-0.7877583626	-2.1703295238	-0.0607643183	 0.40043
O	-1.4583174932	-3.1675312169	 0.0127207551	-0.351716
C	-1.3233417576	-0.7219331375	-0.1934513296	 0.014534
O	-2.2941743733	-0.4407470141	 0.7913483024	-0.452716
H	 0.9652893432	 1.9470165652	 0.2408159064	 0.111759
H	-0.3887275516	 1.9250425356	-0.9019412675	 0.118191
H	-0.7046749936	 1.8845468719	 0.8376583168	 0.139623
H	 0.625505937	-0.945563484	-1.9563117965	 0.102786
H	 1.9696000433	-0.4378251701	-0.8848485389	 0.110702
H	 1.3360200147	-2.832169434	 0.1880164805	 0.085468
H	 1.6431969281	-0.4741504532	 1.4539432986	 0.106145
H	 0.0424483561	-0.9899315495	 2.0870613862	 0.118128
H	-1.7175189527	-0.532739919	-1.2053850204	 0.080379
H	-2.8533406753	-1.2248349299	 0.8620845831	 0.294192
99.9099	206.7415	213.9487	243.7505	279.0697	305.7	358.0579	468.1427	491.6848	515.5284	555.6541	670.8928	709.9909	789.6449	835.7581	862.5508	869.1542	926.7623	944.9995	978.9873	1010.0975	1025.0397	1054.8952	1096.2915	1134.9369	1145.017	1165.1074	1210.7242	1228.4604	1233.085	1267.41	1288.1392	1297.7267	1344.2564	1409.9198	1416.3235	1483.6961	1490.4972	1496.2329	1518.406	1861.2705	2968.4652	3029.4382	3050.4496	3066.851	3093.9424	3107.8144	3115.5118	3130.7852	3149.4434	3774.5366
CC12CC(C1)C(=O)C2O	C[C@@]12C[C@@H](C1)C(=O)[C@H]2O	
InChI=1S/C7H10O2/c1-7-2-4(3-7)5(8)6(7)9/h4,6,9H,2-3H2,1H3	InChI=1S/C7H10O2/c1-7-2-4(3-7)5(8)6(7)9/h4,6,9H,2-3H2,1H3/t4-,6-,7+/m1/s1
