20
gdb 22047	2.44371	1.14539	1.00625	2.0965	79.36	-0.2447	-0.0359	0.2087	1287.0638	0.166121	-440.263564	-440.252688	-440.251743	-440.299749	38.953	
C	 0.0079756071	 1.4645792443	-0.1169142507	-0.48653
C	 0.0414581947	-0.0331089662	 0.0455472813	 0.339036
N	 0.0861990651	-0.6249949902	 1.1781113577	-0.174812
O	 0.0634639674	 0.278207981	 2.2484179315	-0.39742
C	 0.042575074	-0.9234039028	-1.198002136	 0.08203
C	 0.0155175188	-2.4202769199	-0.8398459104	-0.420672
C	-1.1295658477	-0.5609195059	-2.125436051	-0.418142
C	 1.3805778712	-0.6484993889	-1.8960226628	 0.142068
O	 1.5137281844	-0.0656515429	-2.9400901998	-0.2522
H	 0.6393780957	 1.9367265024	 0.6386761646	 0.151746
H	 0.3410654066	 1.7655833434	-1.1117671961	 0.142255
H	-1.0085307716	 1.84629762	 0.0319471718	 0.145742
H	 0.1286658171	-0.308669801	 3.0094046407	 0.307442
H	-0.8799283818	-2.6553231556	-0.2603836565	 0.132698
H	 0.0102213337	-3.0218851501	-1.7542332115	 0.113887
H	 0.8789553896	-2.7062151994	-0.2347564693	 0.129613
H	-1.096032958	 0.4841873852	-2.4374388785	 0.132891
H	-1.0903593662	-1.1711748555	-3.0317677545	 0.127285
H	-2.0824386598	-0.7478926613	-1.6218388856	 0.118026
H	 2.2606011597	-1.0369489765	-1.333825515	 0.085055
42.5298	66.7603	120.3149	178.4646	211.4207	229.0508	242.9044	264.1119	324.9824	336.5953	360.5754	374.5191	412.9467	448.4008	522.5104	576.948	668.4185	758.1435	838.3825	918.0408	957.8031	971.0057	1009.1793	1020.2214	1043.7376	1064.4448	1162.2111	1197.3814	1229.8895	1274.8747	1391.8956	1397.4509	1403.1738	1406.8086	1427.809	1475.3694	1479.6587	1482.9343	1487.393	1500.9574	1505.0275	1711.7957	1825.063	2872.0536	3044.4889	3044.9374	3051.4384	3109.7884	3117.8708	3121.418	3132.1602	3138.3303	3146.2641	3817.8655
CC(=NO)C(C)(C)C=O	CC(=NO)C(C)(C)C=O	
InChI=1S/C6H11NO2/c1-5(7-9)6(2,3)4-8/h4,9H,1-3H3	InChI=1S/C6H11NO2/c1-5(7-9)6(2,3)4-8/h4,9H,1-3H3
