17
gdb 72779	2.43851	1.79315	1.36837	2.1812	73.83	-0.2333	-0.0292	0.2041	984.8486	0.136886	-418.000165	-417.992311	-417.991367	-418.032381	29.955	
C	-0.2910062329	 1.5886079499	-0.1374901252	-0.457973
C	-0.0433785078	 0.0799887955	-0.0920614504	 0.11671
C	 0.9838248153	-0.4365421703	-1.1629778103	-0.24384
N	 2.006680297	-0.5319509219	-0.0551206349	-0.353648
C	 0.9562417893	-0.4970355314	 0.861530418	 0.32318
N	 0.6002425796	-1.1420088008	 1.9000545543	-0.308246
C	-0.8722304732	-1.0090197734	 1.9280152531	-0.272236
C	-1.2880722688	-0.6536703329	 0.4610730229	 0.31656
O	-2.3315158223	-0.8901064038	-0.0766033776	-0.293811
H	 0.6482413078	 2.12631749	-0.2957132175	 0.136858
H	-0.9780646379	 1.8291740712	-0.9550386709	 0.139541
H	-0.7365882287	 1.9522580584	 0.7934170095	 0.132038
H	 0.7278663364	-1.4094980004	-1.5929642154	 0.129989
H	 1.2507475137	 0.273875705	-1.9480182115	 0.123474
H	 2.6542197449	-1.3129074444	-0.0217449018	 0.24405
H	-1.3362584936	-1.9490803504	 2.2411738212	 0.136714
H	-1.2273797088	-0.2277776303	 2.6146707264	 0.130641
96.3104	202.0268	209.9948	218.2314	265.3039	307.4727	385.5686	524.2392	558.436	624.0404	633.1349	690.1145	768.4934	831.6052	860.7344	879.3953	914.3055	967.0471	987.4658	1012.0224	1058.0425	1119.7214	1136.3661	1176.1506	1207.0865	1214.0651	1232.3196	1270.8328	1323.9051	1362.4941	1409.9176	1468.3046	1490.1113	1493.6437	1505.0427	1744.3875	1867.4445	3014.3338	3036.4279	3053.3546	3088.458	3108.89	3114.8639	3120.7167	3533.2971
CC12CNC1=NCC2=O	C[C@@]12CN[C]1[N]CC2=O	
InChI=1S/C6H8N2O/c1-6-3-8-5(6)7-2-4(6)9/h2-3H2,1H3,(H,7,8)	InChI=1S/C6H8N2O/c1-6-3-8-5(6)7-2-4(6)9/h2-3H2,1H3,(H,7,8)/t6-/m0/s1
