18
gdb 23311	3.00763	1.2396	0.96105	1.0565	75.93	-0.2316	0.0137	0.2454	1210.797	0.147854	-439.04149	-439.033191	-439.032247	-439.074289	32.341	
O	-0.0893450203	 1.3156543164	-0.0214351177	-0.397132
N	 0.0176941211	-0.0898252962	-0.0545041586	-0.255295
C	-1.1254598594	-0.6443026327	 0.0380838617	 0.434381
C	-2.4805253906	-1.9984*^-6	 0.2308073774	-0.371362
C	-3.3268175524	-1.0845749215	 0.9522080193	 0.111657
O	-4.6854669179	-1.1209185444	 0.5436207332	-0.43444
C	-2.6546675896	-2.4104383145	 0.6317445052	-0.038951
C	-2.3657211156	-2.693328621	-0.8111027128	-0.288469
C	-1.2702754559	-2.1200445662	 0.0724586137	-0.118853
H	 0.8342582956	 1.5859754811	-0.050395915	 0.30509
H	-2.3989835506	 0.9359589892	 0.7866893007	 0.127666
H	-2.939900256	 0.235323206	-0.7365965401	 0.129793
H	-3.2631822796	-0.9223260479	 2.0391008637	 0.074034
H	-5.1059109681	-0.3047501797	 0.8327713097	 0.283693
H	-2.8214336018	-3.2418770907	 1.3059367458	 0.092339
H	-2.251654916	-3.7328282529	-1.0963909965	 0.119185
H	-2.8131727179	-2.0676411769	-1.5748378392	 0.126737
H	-0.402212715	-2.7246506496	 0.3006663398	 0.099926
89.8961	143.2548	201.805	264.6862	290.006	351.8734	384.3061	427.6193	450.6526	522.2963	568.1437	605.3326	680.2593	790.4124	814.7893	848.5519	900.7468	946.3158	970.4735	976.5753	998.1206	1018.5741	1056.0774	1096.2579	1106.2617	1112.3861	1180.2664	1195.098	1240.244	1246.6942	1259.7368	1327.1291	1349.9264	1384.6983	1421.3171	1430.4026	1470.9845	1494.0904	1752.2508	2980.0993	3045.7042	3114.6471	3141.0856	3181.8559	3201.9984	3227.5474	3816.0507	3822.8671
ON=C1CC(O)C2CC12	ON=C1C[C@@H](O)[C@H]2C[C@@H]12	
InChI=1S/C6H9NO2/c8-6-2-5(7-9)3-1-4(3)6/h3-4,6,8-9H,1-2H2	InChI=1S/C6H9NO2/c8-6-2-5(7-9)3-1-4(3)6/h3-4,6,8-9H,1-2H2/t3-,4+,6-/m1/s1
