15
gdb 73347	2.62874	1.94326	1.51151	2.3877	64.26	-0.2517	-0.0094	0.2424	883.2489	0.112761	-457.74397	-457.736981	-457.736037	-457.775156	27.651	
O	 0.0943814581	 1.3683340439	-0.1018467468	-0.482249
C	 0.0011968934	-0.0089054566	-0.0908860836	 0.265903
C	 0.6853507839	-0.702565602	-1.2768225697	-0.127532
O	 0.2283403069	-2.0542257811	-1.2333213027	-0.262141
C	-0.8904721736	-2.0945769111	-0.3837189692	 0.115831
C	-0.733731827	-1.735062764	 1.096352473	-0.23379
C	-1.3765783031	-0.7717597884	 0.012410161	-0.204683
C	 0.3021378876	-0.688453802	 1.2583096883	 0.368319
O	 0.8984214765	-0.2370344026	 2.2041873392	-0.359307
H	 0.4021044879	 1.6341229151	 0.7766515388	 0.301754
H	 0.3921645889	-0.2151109517	-2.2171678714	 0.113691
H	 1.775682207	-0.6920301628	-1.191956304	 0.127522
H	-1.5556989771	-2.9227556356	-0.5958002697	 0.129104
H	-1.2135226755	-2.3002217643	 1.8858940123	 0.118669
H	-2.3681109836	-0.3437923068	 0.0021767145	 0.12891
133.4834	208.1692	243.1656	334.1325	385.4053	413.9136	490.4526	555.9545	674.3663	693.3344	713.7056	756.5511	798.5743	852.6222	853.8252	920.7799	945.1532	966.3831	1031.0186	1055.1308	1082.6328	1102.8387	1140.102	1152.3165	1198.2579	1207.2783	1287.9689	1297.9749	1363.8773	1392.8362	1413.8615	1514.9167	1844.2103	3010.9991	3092.2984	3194.3966	3201.7728	3234.0144	3737.8567
OC12COC3C(C13)C2=O	O[C@]12CO[C@H]3[C@H]([C@@H]13)C2=O	
InChI=1S/C6H6O3/c7-5-2-3-4(2)9-1-6(3,5)8/h2-4,8H,1H2	InChI=1S/C6H6O3/c7-5-2-3-4(2)9-1-6(3,5)8/h2-4,8H,1H2/t2-,3+,4-,6+/m0/s1
