13
gdb 15211	2.5561	2.02618	1.55883	3.998	64.6	-0.2693	0.0027	0.272	848.5048	0.09364	-361.41977	-361.411857	-361.410913	-361.452061	28.511	
O	 0.078978136	 1.3756361641	 0.0458302527	-0.40267
C	-0.0047951786	 0.0053457508	-0.0244816312	 0.132764
C	-1.3449986408	-0.6989550108	-0.0097209536	-0.271523
C	-2.518170873	 0.1174791428	 0.040821588	 0.295659
C	-3.4592182332	 0.865378515	 0.0945900492	-0.406768
C	-0.4733163237	-0.7038391956	-1.2924219103	-0.25466
C	-0.8747140758	 0.0730126704	-2.4262309375	 0.304533
N	-1.1888780614	 0.7063504109	-3.341640869	-0.328719
H	-0.8093683516	 1.7509279644	-0.0328061709	 0.302172
H	 0.8134307055	-0.4727418595	 0.5039697906	 0.132691
H	-1.4035810022	-1.6530434821	 0.5041381853	 0.136481
H	-4.3133747756	 1.4967856204	 0.122966211	 0.216387
H	-0.0024081858	-1.6510691607	-1.5329103443	 0.143654
96.5271	117.3253	150.5747	242.0238	264.9863	367.0869	394.4895	451.52	620.6136	630.9098	654.4151	675.9319	685.1176	746.4143	760.1107	871.8	985.4555	993.1302	1076.5625	1113.1909	1135.2734	1228.4332	1345.0943	1348.3117	1364.805	1443.4012	2234.8567	2357.1517	3159.7218	3168.3914	3177.9413	3499.3118	3742.4441
OC1C(C#C)C1C#N	O[C@H]1[C@@H](C#C)[C@H]1C#N	
InChI=1S/C6H5NO/c1-2-4-5(3-7)6(4)8/h1,4-6,8H	InChI=1S/C6H5NO/c1-2-4-5(3-7)6(4)8/h1,4-6,8H/t4-,5+,6-/m0/s1
