17
gdb 42774	2.49203	1.96739	1.63805	2.9142	72.28	-0.2058	-0.0134	0.1924	894.8721	0.138501	-417.920654	-417.91384	-417.912896	-417.951602	27.861	
O	-0.0009486457	 0.0015405296	-0.0120590797	-0.325711
C	-0.0258447245	 1.195258177	-0.0131060225	 0.42126
C	-1.0623893228	 2.3254869586	 0.0686036802	-0.126475
C	 0.0106614739	 3.0286693399	 0.9986000321	-0.331167
C	 0.9929532828	 2.3586820184	-0.0180508728	 0.193308
N	 2.3826813663	 2.1026490078	-0.4850340069	-0.411125
C	 1.8098407243	 2.2336397832	-1.8963668108	-0.233587
C	 0.6096732816	 3.0485990512	-1.3072278338	 0.017233
N	-0.8844191376	 2.9486542493	-1.2910574005	-0.343905
H	-2.0965873203	 2.2039046188	 0.3796350809	 0.098832
H	 0.0148360839	 4.1199405303	 1.0058007471	 0.121446
H	-0.0168499371	 2.6170308187	 2.0092297152	 0.127404
H	 2.9599502777	 2.9245424733	-0.3084639368	 0.225611
H	 2.4571821578	 2.7453702441	-2.6108895462	 0.111827
H	 1.5506456628	 1.2388629409	-2.2667474921	 0.1381
H	 0.8960757641	 4.107485786	-1.3156251067	 0.084489
H	-1.2558348771	 2.3280187629	-2.0060055566	 0.232459
141.8569	200.6659	274.4506	365.192	403.6116	482.4062	531.1256	613.2393	675.9704	707.0724	772.6013	790.7883	812.9489	845.7541	855.5817	906.8472	916.1666	986.0805	996.6705	1015.6077	1048.2467	1064.4318	1111.7963	1137.553	1169.6782	1174.3539	1202.2139	1228.1329	1246.7415	1262.4914	1299.3001	1347.1591	1353.3882	1398.1853	1487.3052	1493.832	1902.3839	3017.5084	3067.8223	3075.7079	3132.2509	3147.3639	3164.3376	3466.8707	3501.3079
O=C1C2CC11NCC1N2	O=C1[C@H]2C[C@]31NC[C@H]3N2	
InChI=1S/C6H8N2O/c9-5-3-1-6(5)4(8-3)2-7-6/h3-4,7-8H,1-2H2	InChI=1S/C6H8N2O/c9-5-3-1-6(5)4(8-3)2-7-6/h3-4,7-8H,1-2H2/t3-,4-,6+/m1/s1
