19
gdb 28792	2.97751	1.62405	1.08356	1.6431	83.49	-0.1724	0.061	0.2334	1112.5687	0.163209	-382.116463	-382.108553	-382.107609	-382.148768	30.724	
N	 0.2219305756	 1.3953059766	 0.1367179224	-0.610654
C	 0.0390810159	-0.0025008102	 0.0441128588	 0.215465
C	-1.0720613897	-0.817704908	 0.1621112553	-0.204806
C	-0.6353837838	-2.1764745635	 0.0733820139	-0.322861
C	 0.7262608238	-2.145656472	-0.1056307249	 0.346599
C	 1.9220846442	-3.0230475519	-0.3273348327	-0.349951
C	 3.0992676836	-2.0539727104	-0.0157379804	-0.209482
C	 2.547093566	-0.6349840626	-0.3019532395	-0.178439
N	 1.1229061341	-0.8277973506	-0.1042215613	-0.006489
H	 0.3432164483	 1.8306255192	-0.7741028104	 0.238994
H	-0.585407467	 1.8262737141	 0.5707524826	 0.243694
H	-2.0857265764	-0.4734337439	 0.3072223019	 0.076015
H	-1.2572846584	-3.0565714722	 0.1334541511	 0.085517
H	 1.940022146	-3.9071801837	 0.3160981122	 0.114316
H	 1.976971061	-3.3831499559	-1.3641706887	 0.108472
H	 3.3613915553	-2.1289787565	 1.0437001459	 0.117207
H	 3.998068235	-2.2705845053	-0.5974820994	 0.102939
H	 2.9396621428	 0.1286142993	 0.3748188165	 0.127786
H	 2.7634233439	-0.3160184423	-1.3310228434	 0.105676
133.9942	141.9169	164.8314	215.3057	261.1052	309.4883	517.2341	584.2948	618.4291	631.2298	646.1185	721.8919	741.9659	778.3403	782.1374	838.381	870.6436	898.5102	921.1448	1002.859	1029.1346	1046.6983	1089.902	1139.4305	1180.1996	1204.9521	1216.441	1238.9772	1254.8299	1309.8167	1317.2798	1335.7352	1347.7949	1433.5179	1481.7574	1491.2167	1501.9033	1529.6441	1549.0625	1606.7522	1655.1727	3004.5631	3005.0897	3059.7435	3080.2738	3088.7046	3113.726	3230.7207	3249.3395	3479.4156	3589.0338
NC1=CC=C2CCCN12	Nc1ccc2CCCn12	
InChI=1S/C7H10N2/c8-7-4-3-6-2-1-5-9(6)7/h3-4H,1-2,5,8H2	InChI=1S/C7H10N2/c8-7-4-3-6-2-1-5-9(6)7/h3-4H,1-2,5,8H2
