19
gdb 41852	2.42313	2.01675	1.62372	2.2464	74.24	-0.2448	0.0113	0.2561	923.7194	0.163129	-423.041701	-423.03489	-423.033946	-423.072551	28.379	
C	-0.0117753839	 1.4139195761	-0.1095412552	-0.081519
C	 1.4290867606	 1.9361464438	-0.047101577	-0.219102
C	 2.2081267896	 1.302536741	 1.1218282914	 0.079283
C	 1.8216626469	 1.7941359678	 2.5309779718	-0.268102
C	 0.6097886135	 1.0790740331	 3.0675301044	-0.067066
C	 0.0844194746	 0.0325945983	 2.436946404	-0.078641
C	 0.6838783953	-0.4667250183	 1.141601197	 0.148033
O	-0.0483198593	-0.0057087287	 0.0155804333	-0.258621
O	 2.047089903	-0.1196072455	 1.0438617336	-0.258613
H	-0.6290247736	 1.8831768589	 0.6690023514	 0.09723
H	-0.4661313711	 1.6379345264	-1.0784179188	 0.108884
H	 1.9454190946	 1.6566937251	-0.9715146746	 0.112212
H	 1.435633212	 3.0295970503	 0.0227862871	 0.094214
H	 3.2762019925	 1.4788968439	 0.9665547673	 0.082498
H	 2.6647670967	 1.637272001	 3.2181594391	 0.118012
H	 1.6494987689	 2.8779239621	 2.5150863171	 0.107984
H	 0.1887399774	 1.4370800189	 4.0039734937	 0.094141
H	-0.8022504087	-0.476378948	 2.8011647735	 0.096614
H	 0.6462439108	-1.5571673566	 1.0769586908	 0.092559
147.5464	242.0148	315.2384	352.3201	421.056	472.1818	503.6532	513.2984	657.8012	672.9542	740.8285	788.2458	842.2875	859.7317	893.5618	927.8188	951.3417	970.9386	998.4579	1005.8252	1016.395	1070.5901	1097.3029	1110.0799	1129.933	1200.7702	1217.8747	1248.8645	1278.4487	1329.8696	1347.1896	1359.521	1370.811	1382.799	1406.4153	1410.7842	1420.7547	1462.4421	1473.1507	1503.8106	1722.2145	3010.7669	3011.3381	3037.1236	3046.1233	3065.7066	3082.3231	3084.238	3093.4558	3151.5061	3185.5567
C1CC2CC=CC(O1)O2	C1C[C@H]2CC=C[C@@H](O1)O2	
InChI=1S/C7H10O2/c1-2-6-4-5-8-7(3-1)9-6/h1,3,6-7H,2,4-5H2	InChI=1S/C7H10O2/c1-2-6-4-5-8-7(3-1)9-6/h1,3,6-7H,2,4-5H2/t6-,7+/m1/s1
