17
gdb 21995	4.86656	1.00953	0.84104	4.2675	87.27	-0.1677	0.	0.1677	1331.2951	0.137074	-417.997627	-417.989148	-417.988204	-418.030839	31.591	
C	-0.2743792675	 1.4597580146	-0.0015896703	-0.345167
N	-0.0310066582	 0.0284665594	 0.0081531707	-0.087424
C	 0.1459540979	-0.6593561967	-1.178996558	 0.019768
C	 0.5078480136	-1.9571606562	-1.2141369261	-0.213857
C	 0.7477458098	-2.7063319281	 0.0053525749	 0.353295
C	 0.5621322713	-1.9441219807	 1.2316525151	-0.250311
C	 0.1982800358	-0.6448357918	 1.1872072498	 0.02829
N	 1.0917947325	-3.9531992547	-0.0922743193	-0.281916
O	 1.2814273606	-4.5157509687	 1.1974661436	-0.413088
H	 0.6532919551	 2.0375146073	-0.107723886	 0.138723
H	-0.9400465522	 1.7169661614	-0.8298039177	 0.142373
H	-0.7618843435	 1.7544850916	 0.930323179	 0.142877
H	-0.0363126147	-0.0815061808	-2.0769194759	 0.119618
H	 0.6188961681	-2.4631068831	-2.1648363028	 0.107229
H	 0.71060784	-2.4303675973	 2.1840630768	 0.121335
H	 0.0561004505	-0.0550432327	 2.0856124453	 0.120713
H	 1.5200260809	-5.4210563135	 0.978554561	 0.297544
81.9043	104.0907	181.8627	223.1848	262.0019	335.6799	365.3108	424.7906	429.3301	485.9105	592.3064	660.9143	700.8889	768.4767	798.8276	827.7052	831.8244	946.693	951.7644	968.0577	1015.358	1060.0366	1147.6775	1167.9571	1217.6881	1254.2087	1286.718	1358.688	1391.0201	1443.5852	1462.607	1485.6126	1489.7631	1516.882	1619.6039	1645.851	1725.3562	3013.5943	3089.2334	3129.2843	3194.6873	3201.0564	3221.1066	3251.0405	3838.2131
CN1C=CC(C=C1)=NO	Cn1ccc(=NO)cc1	
InChI=1S/C6H8N2O/c1-8-4-2-6(7-9)3-5-8/h2-5,9H,1H3	InChI=1S/C6H8N2O/c1-8-4-2-6(7-9)3-5-8/h2-5,9H,1H3
