18
gdb 99252	4.60781	0.69639	0.61778	7.9332	72.35	-0.2424	0.0091	0.2514	1735.4591	0.147801	-472.44485	-472.435048	-472.434104	-472.480622	35.017	
N	-0.7759058106	 1.1235893977	 0.2122638633	-0.520672
C	 0.2828971258	 0.1641455557	-0.1176483312	-0.232102
C	 1.0109417667	-0.3111316358	 1.1313266348	 0.382311
N	 0.22318862	-0.3882701297	 2.2371921069	-0.53014
H	 0.6274386274	-0.5507813942	 3.1431431768	 0.264508
H	-0.6549763536	 0.1085773748	 2.1813011565	 0.270085
N	 2.2433622086	-0.6488372887	 1.0364165523	-0.323964
C	 2.9345099584	-1.1763315893	 2.1955703039	-0.322733
C	 4.3881595618	-1.5145261485	 1.8273245426	 0.414845
O	 4.6771597726	-1.2680360532	 0.5457335783	-0.36196
O	 5.1784744244	-1.9562658322	 2.6178950397	-0.346304
H	-0.3852063211	 2.051672461	 0.3426385051	 0.241747
H	-1.4404228034	 1.1915578928	-0.5500122744	 0.244686
H	-0.1918819227	-0.7121538002	-0.5747410069	 0.137678
H	 1.0422908396	 0.5250308873	-0.8213558017	 0.121068
H	 3.8372351108	-0.9160652348	 0.1681649805	 0.302007
H	 2.9745814675	-0.4640970734	 3.0346705624	 0.12563
H	 2.4746810978	-2.0963258294	 2.5867467111	 0.133309
46.1885	73.7604	97.0988	119.6921	223.3523	271.9083	287.6187	322.4441	372.7778	394.8149	549.2084	572.5217	589.8402	615.9838	645.8908	701.3192	835.1967	849.5614	876.0075	902.3595	986.8361	1000.1386	1032.9642	1086.74	1161.0503	1175.6702	1221.1287	1232.1815	1317.6238	1339.4277	1374.7991	1413.124	1452.8524	1458.5542	1486.6122	1611.1892	1663.988	1745.8772	1874.8478	2980.9403	3017.0157	3029.6953	3071.4228	3421.5467	3507.6061	3564.5457	3589.6539	3711.4465
NCC(=[NH2+])NCC([O-])=O	NCC(=NCC(=O)O)N	
InChI=1S/C4H9N3O2/c5-1-3(6)7-2-4(8)9/h1-2,5H2,(H2,6,7)(H,8,9)	InChI=1S/C4H9N3O2/c5-1-3(6)7-2-4(8)9/h1-2,5H2,(H2,6,7)(H,8,9)
