18
gdb 107713	3.46493	1.35006	1.15573	2.3879	72.24	-0.2204	0.0677	0.2881	1093.4902	0.146704	-438.971022	-438.962782	-438.961838	-439.003741	31.649	
C	-0.0307387633	 1.3386587347	 0.0969868103	-0.26205
O	-0.1006720147	-0.0674620756	-0.0639415277	-0.288003
C	-1.3719803906	-0.5669922212	-0.0587307256	 0.487216
C	-2.5196477601	-0.3225253411	-1.0755638607	-0.414128
C	-3.0830224225	-1.3470001536	-0.0671128548	 0.388812
O	-4.3430830553	-1.8968036742	 0.0172964552	-0.471091
C	-1.6913576554	-2.0745459031	 0.1215990916	-0.168736
N	-1.6917063015	-1.9729319995	 1.6180567192	-0.348706
C	-2.3632180402	-0.7128946639	 1.1617652047	-0.146044
H	 1.0274251834	 1.6066092287	 0.0820435571	 0.132937
H	-0.5458273689	 1.8662269604	-0.7178593411	 0.113616
H	-0.4681078452	 1.6538042133	 1.0541036407	 0.116914
H	-2.9864412522	 0.6667493798	-1.0751323351	 0.100712
H	-2.3427855725	-0.6747129421	-2.0969800495	 0.094848
H	-4.5234508928	-2.3821935829	-0.7952006952	 0.288638
H	-1.2687618905	-2.9133662887	-0.433836586	 0.080206
H	-2.3945089075	-2.6100278791	 2.002914132	 0.213127
H	-2.7415722301	 0.0559088781	 1.8365146248	 0.081732
77.581	165.3646	175.0999	254.5614	294.5302	320.3889	342.2537	427.6518	471.8998	555.1604	603.9704	693.7559	706.9297	801.8321	881.4554	891.8149	926.4102	959.771	1002.366	1023.3744	1055.8806	1079.832	1090.6741	1118.7908	1141.1323	1160.8191	1165.2504	1181.8091	1194.6384	1231.6992	1279.3027	1293.7878	1302.4211	1348.8754	1417.5436	1485.8906	1488.7166	1504.7009	1526.1844	2995.9629	3042.703	3051.966	3105.1404	3105.418	3113.3232	3128.488	3405.1348	3803.4823
COC12CC3(O)C1NC23	CO[C@@]12C[C@@]3(O)[C@@H]1N[C@@H]23	
InChI=1S/C6H9NO2/c1-9-6-2-5(8)3(6)7-4(5)6/h3-4,7-8H,2H2,1H3	InChI=1S/C6H9NO2/c1-9-6-2-5(8)3(6)7-4(5)6/h3-4,7-8H,2H2,1H3/t3-,4+,5+,6-
