19
gdb 33112	4.74103	0.74585	0.67752	2.2314	79.71	-0.1824	0.0544	0.2368	1645.4048	0.160134	-419.232819	-419.223155	-419.222211	-419.26806	35.033	
N	 0.1371421232	 1.406911203	-0.1781507662	-0.608821
C	-0.0092584043	 0.0079807729	-0.0566955549	 0.29509
C	-1.085786826	-0.8416556197	-0.1806431286	-0.315275
C	-0.6086937181	-2.1811683618	-0.0088264812	 0.281193
C	-1.4217323147	-3.4397790892	-0.0782226371	-0.302543
C	-1.8412439014	-3.7930718411	-1.5062425658	-0.058291
O	-2.6221189153	-4.9788792408	-1.4527292175	-0.42086
C	 0.7444160227	-2.0930869727	 0.220720178	-0.195294
N	 1.0992674223	-0.7623548055	 0.1858189628	-0.26546
H	-0.656279554	 1.8031279772	-0.667137892	 0.245511
H	 0.1957607186	 1.8668517498	 0.7265789824	 0.242109
H	-2.1094874425	-0.5396470764	-0.3480317798	 0.077508
H	-0.8534464953	-4.282563609	 0.3304760551	 0.101576
H	-2.3317993715	-3.3530653291	 0.5280073607	 0.10524
H	-2.4116453051	-2.9569060973	-1.9407895604	 0.084244
H	-0.9414275956	-3.9298653541	-2.1264019118	 0.084575
H	-2.8818980669	-5.2068584747	-2.3498289057	 0.282852
H	 1.4755216231	-2.8613129692	 0.4159986933	 0.110534
H	 2.0331089408	-0.3945496723	 0.2382954685	 0.25611
53.3291	93.0959	98.0713	123.7181	241.3178	253.8939	279.4718	340.8871	372.4825	421.7695	484.1714	626.5829	649.83	681.5255	701.3122	767.4083	792.2987	800.1928	834.4023	986.947	1003.2484	1014.0229	1050.4623	1073.6067	1122.5011	1155.378	1189.4264	1212.5275	1237.2885	1279.0961	1308.3936	1321.7189	1350.2057	1425.8812	1452.4286	1476.2308	1489.8467	1526.2027	1556.7469	1629.4218	1657.2045	2969.8448	2998.0165	3030.2238	3076.1193	3233.3663	3259.1229	3484.3705	3592.3696	3681.7574	3830.9919
NC1=CC(CCO)=CN1	Nc1cc(CCO)c[nH]1	
InChI=1S/C6H10N2O/c7-6-3-5(1-2-9)4-8-6/h3-4,8-9H,1-2,7H2	InChI=1S/C6H10N2O/c7-6-3-5(1-2-9)4-8-6/h3-4,8-9H,1-2,7H2
