18
gdb 14421	3.94066	1.8298	1.63723	1.1866	71.06	-0.2307	0.0745	0.3052	863.7455	0.154311	-347.748141	-347.741007	-347.740063	-347.778937	28.727	
C	 0.0041621913	 1.5972955649	-0.0103618887	-0.423524
C	 0.0944365128	 0.0767263157	 0.0145794736	 0.047782
C	 0.7929632453	-0.6950653518	-1.1064994433	-0.125641
C	 2.3047182494	-0.8174121313	-0.7309611989	-0.151767
C	 2.4914073583	-0.1314695049	 0.6194558726	-0.229537
C	 1.0765793252	-0.6581943657	 0.9835712649	-0.156267
C	 1.2652458316	-1.7569783667	-0.1693348892	 0.376475
O	 1.0644201931	-3.1102943833	-0.2368254759	-0.455482
H	 0.9704836765	 2.0662676511	-0.2149098999	 0.117514
H	-0.6893872889	 1.9271600462	-0.7920696282	 0.112923
H	-0.3665162482	 1.9864518314	 0.9449772948	 0.110895
H	-0.9052853894	-0.3498421688	 0.1567695691	 0.075178
H	 0.4857743788	-0.8212871517	-2.1373186954	 0.08361
H	 3.0368589484	-1.0114919789	-1.5046322548	 0.08356
H	 3.2660719289	-0.6283671108	 1.2114507257	 0.090667
H	 2.6556956071	 0.950410375	 0.6526289631	 0.090074
H	 0.7971312099	-0.8373188869	 2.020497572	 0.064581
H	 1.79044453	-3.5516984234	 0.2186978183	 0.288959
163.2858	204.5697	244.1208	307.5693	335.6473	377.4858	485.3093	560.2272	635.1787	660.3037	712.9767	779.0017	850.7328	899.6861	917.7291	938.5762	953.8114	983.5216	1012.7643	1024.9474	1053.8369	1080.4927	1091.5284	1118.727	1125.9201	1160.8928	1193.5811	1220.7756	1247.2735	1286.4464	1297.7748	1323.697	1384.7216	1408.2967	1485.3641	1492.1625	1497.8707	1514.6218	3028.2855	3038.7614	3043.1129	3088.0058	3089.1258	3112.7808	3128.8911	3190.5897	3200.2972	3783.4629
CC1C2C3CC1C23O	C[C@H]1[C@H]2[C@H]3C[C@@H]1[C@@]23O	
InChI=1S/C7H10O/c1-3-4-2-5-6(3)7(4,5)8/h3-6,8H,2H2,1H3	InChI=1S/C7H10O/c1-3-4-2-5-6(3)7(4,5)8/h3-6,8H,2H2,1H3/t3-,4+,5-,6+,7+/m1/s1
