16
gdb 102352	1.67337	1.60122	1.15585	1.9576	71.01	-0.2748	0.0056	0.2803	1141.0612	0.121689	-437.844263	-437.834357	-437.833413	-437.879231	35.371	
O	 0.1427880693	 1.354240869	 0.2132286058	-0.415926
C	 0.0429729835	-0.0086544185	-0.1003696266	-0.072672
C	-1.4505289509	-0.5166894065	-0.0617962224	-0.151721
C	-2.1486990856	 0.0425362224	 1.2223423783	-0.104457
O	-1.3574136107	-0.13882251	 2.3759888858	-0.42614
C	-2.2012622292	-0.0868256935	-1.2390833701	 0.322584
C	-2.8274405585	 0.3051100628	-2.1853731145	-0.426385
C	-1.4210201693	-1.9857278991	 0.0301023512	 0.265055
N	-1.3660244599	-3.1310618711	 0.177204851	-0.338997
H	 0.0993495839	 1.4261069647	 1.1738809637	 0.304099
H	 0.4285451536	-0.1483550332	-1.1125822237	 0.138371
H	 0.6268076655	-0.6318926899	 0.5855048396	 0.116589
H	-2.2618274897	 1.118380764	 1.0819001285	 0.145044
H	-3.1439833881	-0.4060993752	 1.3183421065	 0.129197
H	-1.3465872888	-1.07675198	 2.5996201241	 0.305173
H	-3.3750548352	 0.643101994	-3.0307905872	 0.210185
67.5574	102.8623	125.5652	130.3501	171.9812	234.0737	272.4436	360.144	394.6033	452.8942	482.6846	500.4519	516.0765	571.2688	585.1669	653.7895	665.6052	742.3373	862.3734	929.5898	1057.9903	1063.5553	1086.2283	1097.9057	1144.3088	1244.7337	1263.9629	1379.5637	1403.8533	1413.0494	1417.5623	1489.1715	1500.8964	2244.3028	2350.4702	3043.2317	3045.2588	3116.8799	3131.7982	3499.4493	3799.24	3799.9957
OCC(CO)(C#C)C#N	OCC(CO)(C#C)C#N	
InChI=1S/C6H7NO2/c1-2-6(3-7,4-8)5-9/h1,8-9H,4-5H2	InChI=1S/C6H7NO2/c1-2-6(3-7,4-8)5-9/h1,8-9H,4-5H2
