25
gdb 101237	2.77559	0.94659	0.83008	1.0887	90.13	-0.2482	0.0825	0.3307	1567.9495	0.22724	-389.482534	-389.471791	-389.470847	-389.518708	39.538	
C	 0.0256910215	 1.5665136125	 0.2015050581	-0.232256
O	 0.2332088081	 0.1894921323	 0.003576876	-0.243793
C	 0.6843244902	-0.5248670168	 1.1501338648	 0.111152
C	-0.4515151752	-0.7674431965	 2.150095915	-0.404203
C	 1.2987991085	-1.8320951677	 0.6610032411	 0.033623
C	 0.4726810333	-2.7479844087	-0.2880185073	-0.244093
C	 1.7779248744	-3.0414825529	-1.0807198663	 0.058151
C	 1.7143801274	-3.1301217951	-2.5976074507	-0.406571
C	 2.4078305433	-1.780294154	-0.4243303678	-0.259935
H	 0.9295820024	 2.0627068012	 0.5896036911	 0.101687
H	-0.2203235396	 1.9986826637	-0.7721504091	 0.124383
H	-0.8035473171	 1.7780616893	 0.8925252742	 0.105088
H	 1.475802858	 0.0675390458	 1.6436747742	 0.05784
H	-1.2448594495	-1.3624709763	 1.6873045544	 0.126454
H	-0.0789033793	-1.3089701388	 3.0255699408	 0.113251
H	-0.8892390051	 0.170291773	 2.5039306978	 0.112716
H	 1.6424051095	-2.395929091	 1.5351637658	 0.062447
H	-0.0612253445	-3.5956707124	 0.1495605314	 0.085619
H	-0.2262111272	-2.1539547886	-0.8837639292	 0.111884
H	 2.2561926006	-3.9420216971	-0.6772295386	 0.063625
H	 1.2399821178	-2.2378349029	-3.0215306136	 0.113968
H	 2.7159579392	-3.215131644	-3.0350009165	 0.109062
H	 1.1352851718	-4.0021671754	-2.9228565004	 0.10911
H	 2.278346673	-0.8988318036	-1.0586930181	 0.106662
H	 3.4493100684	-1.8374886061	-0.0960229871	 0.084129
61.5571	73.3184	79.071	171.3282	193.5543	216.2709	233.863	256.1171	300.924	350.5083	369.2607	415.3347	485.0227	552.0808	635.9513	761.5846	808.145	845.2716	896.6218	912.6814	945.6656	955.5873	990.0732	1004.215	1024.5319	1108.6747	1125.2124	1133.2049	1147.8943	1156.0597	1177.7932	1183.8501	1222.0871	1233.7113	1247.9869	1262.5969	1270.615	1298.0613	1347.5104	1367.3858	1380.5165	1391.2022	1401.7784	1411.0912	1473.3382	1477.5671	1482.0285	1492.9223	1494.4795	1498.6245	1501.1167	1503.5379	1513.7154	2939.2377	2974.063	3020.7169	3021.4858	3028.0451	3038.5712	3045.8959	3051.0132	3056.2954	3085.4095	3091.7861	3105.7192	3107.9424	3108.3892	3114.0424	3114.9849
COC(C)C1CC(C)C1	CO[C@@H](C)[C@H]1C[C@@H](C)C1	
InChI=1S/C8H16O/c1-6-4-8(5-6)7(2)9-3/h6-8H,4-5H2,1-3H3	InChI=1S/C8H16O/c1-6-4-8(5-6)7(2)9-3/h6-8H,4-5H2,1-3H3/t6-,7-,8+/m0/s1
