17
gdb 63510	1.96581	1.35861	0.84333	1.9128	74.65	-0.2389	-0.0441	0.1948	1327.1622	0.133416	-459.012549	-459.003175	-459.002231	-459.048232	32.916	
C	-0.2433028903	 1.6765540501	-0.6956833574	-0.471106
C	-0.172339471	 0.229156254	-0.2874016766	 0.400331
O	-1.137112209	-0.5092427602	-0.4076924056	-0.334516
C	 1.155678063	-0.287094716	 0.2460649785	-0.432119
C	 1.0953817086	-1.029731961	 1.5660346258	 0.051101
C	 2.0344970084	-0.6119481688	 2.5999483749	 0.104995
O	 2.8148698623	 0.3160134216	 2.5031905313	-0.312656
C	 0.2913787971	-2.0823058265	 1.8582174539	 0.068579
O	-0.666255028	-2.6153912727	 1.1175225215	-0.362971
H	-0.0432331437	 2.3087130848	 0.177443107	 0.164542
H	 0.5450368184	 1.8975923517	-1.4242650982	 0.155201
H	-1.2218733518	 1.9124643678	-1.1142615422	 0.148819
H	-0.8841573402	-1.9929776158	 0.3780840062	 0.330167
H	 1.5501856517	-0.9476501801	-0.5417611144	 0.147186
H	 1.8730017876	 0.5279561857	 0.3670731274	 0.14971
H	 1.9905815468	-1.2209633056	 3.5302679782	 0.066108
H	 0.41286374	-2.5957038089	 2.8108190799	 0.126629
23.323	70.4769	155.2365	167.4518	222.5438	250.3562	266.8925	359.5419	381.5949	463.7744	505.3313	512.0327	614.8995	704.6865	801.5048	869.9894	879.5708	924.0648	973.2422	1010.7739	1033.4155	1045.4851	1170.8191	1223.1035	1251.7092	1277.9114	1350.012	1386.2183	1399.4848	1432.2474	1456.4549	1469.9076	1471.391	1504.8783	1682.6526	1763.0905	1771.5354	2877.7437	2996.6157	3037.2974	3096.7989	3107.8493	3150.7436	3158.493	3289.6052
CC1(O)CC1(C=O)C=O	CC(=O)CC(=CO)C=O	
InChI=1S/C6H8O3/c1-5(9)2-6(5,3-7)4-8/h3-4,9H,2H2,1H3	InChI=1S/C6H8O3/c1-5(9)2-6(3-7)4-8/h3-4,7H,2H2,1H3
