22
gdb 100032	3.01647	1.01037	0.94362	3.0047	78.43	-0.2485	0.059	0.3075	1367.2376	0.192432	-441.45446	-441.444023	-441.443079	-441.489577	39.313	
C	 3.346585703	-0.356097492	-0.4235600371	-0.408258
C	 1.8574247761	-0.578667805	-0.285848672	-0.005751
N	 1.3930589568	-1.6439112828	 0.6148524316	-0.343929
C	 0.9764637168	-0.2590332127	 0.8797644939	-0.04954
C	 1.3112782275	 0.3858067366	 2.2209229952	 0.314481
C	 2.7039061598	 0.0970584446	 2.7816353838	-0.452799
O	 1.0916457911	 1.8051400642	 2.1044513029	-0.477023
C	 0.2369641941	-0.0481872639	 3.2412558266	-0.054595
O	 0.3482243028	 0.6639172056	 4.4548384545	-0.430665
H	 3.8817179695	-0.6118832225	 0.4896552945	 0.136274
H	 3.7404122861	-0.9873805618	-1.2276592334	 0.120731
H	 3.5690564474	 0.6847123239	-0.6852807906	 0.110079
H	 1.3335368844	-0.4999204664	-1.2397264351	 0.083555
H	 0.6380537684	-2.1839356279	 0.2028886995	 0.233074
H	-0.0397522539	 0.0092159234	 0.587173874	 0.082725
H	 3.4774886137	 0.6521311328	 2.2420963285	 0.099795
H	 2.7316303863	 0.3997236368	 3.8306974269	 0.132353
H	 2.9315468347	-0.9691706562	 2.7098365541	 0.141915
H	 1.8327672011	 2.1827339495	 1.6205776467	 0.280976
H	-0.7565168913	 0.0958568911	 2.7875115106	 0.08105
H	 0.3570294935	-1.1112135265	 3.4694672106	 0.117815
H	 0.4106017118	 1.5927117493	 4.1977179441	 0.287738
48.9846	130.287	144.1728	191.7823	225.3003	238.8879	262.5587	317.1907	320.5333	349.8245	397.0041	411.4547	444.0848	493.0267	527.5814	645.5091	747.9178	781.8062	838.8993	910.9277	934.0335	959.4614	974.5956	1012.5464	1030.6768	1067.6022	1079.9905	1106.1539	1142.3632	1151.9381	1193.3243	1229.5465	1250.1672	1263.2129	1301.8353	1361.2571	1380.3062	1397.795	1406.8086	1433.2645	1437.7305	1468.8579	1487.6261	1495.2312	1502.0968	1508.9734	1513.8037	2976.3895	3035.6261	3045.207	3083.0963	3088.807	3091.6597	3097.4092	3116.5731	3138.4833	3163.8045	3511.0876	3777.3701	3823.5249
CC1NC1C(C)(O)CO	C[C@H]1N[C@H]1[C@@](C)(O)CO	
InChI=1S/C6H13NO2/c1-4-5(7-4)6(2,9)3-8/h4-5,7-9H,3H2,1-2H3	InChI=1S/C6H13NO2/c1-4-5(7-4)6(2,9)3-8/h4-5,7-9H,3H2,1-2H3/t4-,5-,6+/m1/s1
