17
gdb 44427	3.5858	1.43976	1.41685	3.3245	73.56	-0.2412	-0.0054	0.2358	966.4497	0.138456	-417.90697	-417.900206	-417.899261	-417.937928	27.806	
O	-0.1892687459	 0.0409036401	 0.3594169528	-0.3083
C	-0.1244044607	 1.2093147065	 0.1523962372	 0.321338
N	-1.1408283862	 2.23672482	 0.1104060044	-0.387103
C	-0.2516223252	 3.047657127	-0.771787418	 0.035891
C	 0.7774348839	 4.2611454795	-0.7786134058	-0.070697
C	 1.0682719613	 4.5833604484	 0.6805378776	-0.192866
C	 1.2302510349	 3.1196937175	 1.1767537041	-0.19985
C	 0.9192414248	 2.3652107074	-0.1480505138	 0.110361
N	 1.8615985844	 3.1926415335	-1.071470759	-0.404966
H	-2.0967526252	 1.9884532367	-0.1208777482	 0.246693
H	-0.3813660273	 2.7440718649	-1.817085318	 0.087376
H	 0.6902905209	 5.0670976429	-1.5084379097	 0.080503
H	 1.9766774021	 5.1780936887	 0.7912707038	 0.113312
H	 0.2388442825	 5.1103845406	 1.1579703832	 0.107744
H	 2.2523864422	 2.8872035131	 1.4816476476	 0.118468
H	 0.548755776	 2.8612092783	 1.9864494513	 0.118747
H	 1.7235743873	 2.875976285	-2.0331748394	 0.223349
133.9998	206.3466	298.3941	344.6818	448.5508	515.4227	547.2119	611.7256	649.2736	699.1446	750.5722	794.201	814.8924	817.1061	850.3093	926.7466	945.8277	955.6656	981.1875	1011.8328	1046.8765	1077.1461	1103.5345	1122.6145	1148.8844	1171.7088	1229.283	1238.2564	1255.4093	1278.5989	1285.6654	1312.3742	1345.4638	1430.4415	1472.0319	1496.7073	1904.1124	3020.5788	3072.0708	3086.7228	3114.9843	3121.1087	3145.7906	3445.5842	3546.1799
O=C1NC2C3CCC12N3	O=C1N[C@H]2[C@H]3CC[C@@]12N3	
InChI=1S/C6H8N2O/c9-5-6-2-1-3(8-6)4(6)7-5/h3-4,8H,1-2H2,(H,7,9)	InChI=1S/C6H8N2O/c9-5-6-2-1-3(8-6)4(6)7-5/h3-4,8H,1-2H2,(H,7,9)/t3-,4+,6+/m1/s1
