17
gdb 80640	2.87201	1.59403	1.28533	2.0753	73.29	-0.2453	0.0442	0.2895	1006.1101	0.135923	-421.76416	-421.75641	-421.755465	-421.796288	30.64	
O	-0.0348791801	 1.3780181935	 0.1430393753	-0.424619
C	-0.007928862	-0.0146408948	 0.0257834941	 0.14723
C	-1.4074992167	-0.6215948064	-0.2105458511	 0.041905
C	-1.1465949423	-2.060057307	-0.6943645106	-0.252959
C	-0.6160866101	-1.2349102328	-1.884847916	 0.079277
O	-1.6394705787	-0.2304182723	-1.6051114928	-0.305752
C	 0.6677691654	-0.5699593782	-1.3099889725	-0.264737
C	 1.2244913197	 0.4559050569	-2.1693499693	 0.323885
C	 1.667878376	 1.3072265579	-2.8934572475	-0.438809
H	-0.4186219793	 1.7185312965	-0.6756950792	 0.289711
H	 0.4856616274	-0.3972825462	 0.9221084515	 0.093471
H	-2.2030720898	-0.3329342234	 0.4753118726	 0.090973
H	-0.4559892925	-2.6976719671	-0.1362301374	 0.100808
H	-2.0708572907	-2.5846307212	-0.9366638383	 0.11933
H	-0.5982913855	-1.580377038	-2.9172881073	 0.096612
H	 1.4309901334	-1.3209132453	-1.0816459111	 0.10676
H	 2.0707241861	 2.055428918	-3.5302550503	 0.196915
92.154	141.4462	193.5467	325.0924	371.8237	399.405	454.0288	459.8128	547.2136	625.9965	637.8468	653.1218	776.4582	803.1142	811.1915	854.9419	879.0997	896.3017	931.3914	961.0374	1022.9174	1057.8149	1076.8319	1101.0754	1133.3317	1172.2007	1189.9957	1227.5894	1258.2724	1271.7983	1276.6578	1312.1082	1319.7547	1347.28	1443.7241	1488.3156	2235.7466	3054.3393	3068.4532	3092.0305	3134.6437	3137.8835	3147.7743	3503.8446	3774.0123
OC1C2CC(O2)C1C#C	O[C@H]1[C@@H]2C[C@@H](O2)[C@H]1C#C	
InChI=1S/C7H8O2/c1-2-4-5-3-6(9-5)7(4)8/h1,4-8H,3H2	InChI=1S/C7H8O2/c1-2-4-5-3-6(9-5)7(4)8/h1,4-8H,3H2/t4-,5-,6+,7-/m1/s1
