23
gdb 103490	2.42041	1.41923	1.18224	1.4467	85.08	-0.2417	0.0822	0.3239	1197.6682	0.206334	-388.290015	-388.280759	-388.279814	-388.323726	35.558	
C	 0.1585040485	 1.4526922398	 0.2612035233	-0.382743
C	-0.1326330565	-0.014446698	-0.0871302142	-0.264055
C	 0.6704912168	-0.5390928593	-1.2732943698	 0.346876
C	 0.3739021252	 0.1644069624	-2.5903163964	-0.46119
C	 2.103117636	-1.0169627884	-1.11958975	-0.106416
C	 2.6252169359	-1.389348978	 0.2566019776	-0.107129
O	 1.669569688	-2.2773284311	 0.8354088191	-0.253899
C	 0.9302362405	-2.9197300737	-0.2025435606	-0.10764
C	 1.0005453665	-2.0132660937	-1.4165767558	-0.124422
H	 1.2219336164	 1.6051405101	 0.4749363693	 0.115174
H	-0.1162959948	 2.1329135277	-0.5508971413	 0.114226
H	-0.4060216904	 1.757276249	 1.1480047465	 0.111437
H	 0.0609654655	-0.6319542964	 0.7922839525	 0.1272
H	-1.2014000838	-0.1234169512	-0.3176999743	 0.087365
H	 0.6411513563	 1.2253136674	-2.5514167597	 0.11899
H	 0.934634621	-0.2841524165	-3.4162997043	 0.110162
H	-0.6924507608	 0.0983308771	-2.8367505207	 0.113582
H	 2.8317839716	-0.7382037841	-1.8735031691	 0.081717
H	 3.6078864992	-1.8781037186	 0.1572067269	 0.092503
H	 2.7367004245	-0.5458603642	 0.947448076	 0.107486
H	 1.3671014375	-3.9007542279	-0.4489954247	 0.092708
H	-0.0824524557	-3.0872261614	 0.1821258057	 0.105961
H	 0.9028976925	-2.475308861	-2.3933158664	 0.082109
74.6662	144.5929	194.9883	201.6869	216.7669	248.2345	286.4045	294.4887	367.9624	437.2994	504.2048	656.9663	709.2122	749.1974	794.3542	815.7122	858.3316	913.2614	919.6882	991.316	998.7373	1010.9527	1020.4614	1027.2199	1062.4516	1072.9482	1114.3442	1118.9695	1126.5484	1140.4462	1208.647	1226.1796	1242.2014	1302.2992	1312.8935	1317.0887	1356.6059	1369.5879	1395.1874	1409.3641	1419.1115	1442.2369	1485.573	1495.8815	1500.0858	1506.1176	1511.2167	1515.7124	1525.6771	2971.0225	2977.3637	3013.7923	3026.6624	3034.9013	3051.2529	3054.5963	3088.8203	3093.1273	3100.6587	3101.5764	3115.1596	3158.922	3168.2448
CCC1(C)C2COCC12	CC[C@@]1(C)[C@H]2COC[C@@H]12	
InChI=1S/C8H14O/c1-3-8(2)6-4-9-5-7(6)8/h6-7H,3-5H2,1-2H3	InChI=1S/C8H14O/c1-3-8(2)6-4-9-5-7(6)8/h6-7H,3-5H2,1-2H3/t6-,7+,8-
