16
gdb 126817	2.9237	1.56583	1.1063	3.7484	74.99	-0.2516	-0.0828	0.1688	1078.9803	0.125745	-434.101242	-434.093414	-434.09247	-434.134135	28.772	
C	 0.0100725289	 1.5354534972	-0.0815265224	-0.386781
C	-0.0221903163	 0.0157364781	 0.078390391	-0.126972
N	-1.3910002953	-0.5174452928	 0.0472885484	-0.055573
N	-1.9564938241	-0.7566931168	 1.2214191311	-0.153135
C	-3.1778944256	-1.2203729567	 1.2059004896	-0.029554
C	-3.844400132	-1.4604978239	-0.0276770428	 0.010476
N	-3.3056844761	-1.2257785415	-1.1860217504	-0.304614
C	-2.0193760425	-0.6983255829	-1.2172357029	 0.472072
O	-1.4261179135	-0.3993566368	-2.2299682514	-0.378771
H	 1.0453484344	 1.8866635913	-0.0438338113	 0.126334
H	-0.4177047786	 1.8256761708	-1.04334526	 0.156013
H	-0.5477919258	 2.023516345	 0.7230592724	 0.127639
H	 0.5224833426	-0.4638559484	-0.7369147586	 0.147713
H	 0.399313991	-0.2944586566	 1.0357502663	 0.127909
H	-3.637214342	-1.417797845	 2.1665971397	 0.134752
H	-4.8561692651	-1.8674580809	-0.0189877887	 0.132493
74.0242	93.0694	167.2526	230.0915	339.4643	364.2555	453.1498	531.4993	571.6986	576.5553	604.1707	736.7664	794.9322	811.3229	864.4684	909.1371	987.168	1001.2599	1011.3436	1073.9563	1108.2363	1108.7518	1223.7704	1267.355	1348.4598	1384.4605	1405.0526	1406.2708	1422.7371	1465.6398	1491.37	1507.3712	1548.0822	1644.0205	1794.2741	3048.334	3084.3068	3118.2791	3126.3112	3133.3625	3151.6658	3211.8098
CCN1N=CC=NC1=O	CCn1nccnc1=O	
InChI=1S/C5H7N3O/c1-2-8-5(9)6-3-4-7-8/h3-4H,2H2,1H3	InChI=1S/C5H7N3O/c1-2-8-5(9)6-3-4-7-8/h3-4H,2H2,1H3
