15
gdb 62308	3.62776	1.44145	1.18254	2.3404	70.55	-0.2341	0.0255	0.2595	1009.1012	0.11017	-420.483565	-420.476058	-420.475114	-420.515291	29.682	
O	-0.0075140309	 1.4217152727	-0.076677799	-0.475433
C	 0.0564194566	 0.0092331249	-0.0510516065	 0.245425
C	 1.006237217	-0.5178955909	-1.0211958636	 0.254993
C	 1.8175560056	-0.9337741678	-1.8058233325	-0.448407
C	 0.0446949894	-0.654854282	 1.3535909985	-0.163481
C	-1.4729694885	-0.3320246057	 1.5399286393	 0.064852
O	-1.8384198067	-1.6975137803	 1.8917376967	-0.329388
C	-0.8310996098	-1.8407125977	 0.846878378	 0.088126
C	-1.345880954	-0.6293425257	 0.0110154847	-0.132193
H	 0.8913093698	 1.7614990442	-0.1412425791	 0.28668
H	 2.5239616994	-1.3057388123	-2.5065898961	 0.200426
H	 0.8214245414	-0.6810948237	 2.1167498101	 0.090602
H	-1.9560786614	 0.4951570313	 2.0535881203	 0.11294
H	-0.5396655278	-2.8373067178	 0.5230597377	 0.109137
H	-2.1336232202	-0.6213658294	-0.7401833085	 0.095721
120.8022	155.5387	230.5621	276.153	325.6986	460.636	483.4365	527.5894	609.9861	623.5413	650.6736	677.5337	775.5859	802.3198	806.5589	837.68	883.2442	913.6841	963.5794	973.0599	1026.679	1047.6857	1111.8138	1130.1445	1147.4557	1156.9524	1173.24	1182.4914	1191.2321	1266.0905	1326.4031	1376.8446	2228.9276	3129.8404	3138.7432	3150.1659	3162.2703	3498.6514	3815.7628
OC1(C#C)C2C3OC2C13	O[C@@]1(C#C)[C@H]2[C@@H]3O[C@H]2[C@H]13	
InChI=1S/C7H6O2/c1-2-7(8)3-5-4(7)6(3)9-5/h1,3-6,8H	InChI=1S/C7H6O2/c1-2-7(8)3-5-4(7)6(3)9-5/h1,3-6,8H/t3-,4+,5-,6+,7-
