18
gdb 67137	2.12637	1.87758	1.49939	4.4023	76.28	-0.2369	0.0058	0.2426	998.6814	0.146772	-401.914953	-401.906545	-401.905601	-401.94773	31.623	
C	-0.1450662654	 1.5313979645	-0.0542149308	-0.522842
C	-0.0182333755	 0.0489060513	-0.0544980471	 0.327054
C	-0.0063937716	-1.0662107553	-1.0375286688	-0.176899
C	 1.284767798	-1.5863635287	-0.4195124854	-0.200443
N	 0.9637169435	-0.7640954997	 0.821645194	-0.255689
C	-0.2550747732	-1.4837012548	 1.2995518137	 0.375694
O	-0.4568764113	-2.0225118311	 2.3425603737	-0.319924
C	-1.0572530808	-1.0707374855	 0.1163519669	 0.13138
C	-2.5397092584	-1.080827099	-0.0999449774	-0.514185
H	 0.7660669799	 2.0059142042	-0.4324557717	 0.139443
H	-0.9807251935	 1.8453084316	-0.6876889131	 0.131017
H	-0.3245989614	 1.9033045773	 0.9597026472	 0.143882
H	-0.3450891644	-1.0682481577	-2.0680919868	 0.100461
H	 1.3978205258	-2.6588232195	-0.2267658452	 0.117371
H	 2.183093629	-1.1960069916	-0.9041409616	 0.118914
H	-3.0660225674	-0.7270371939	 0.7917386757	 0.141426
H	-2.8224077392	-0.4366845778	-0.9390127477	 0.124086
H	-2.8991582143	-2.0907857743	-0.3222621955	 0.139253
106.9202	147.6304	173.7689	194.2986	224.099	287.8946	308.2155	436.8612	525.4134	618.3116	624.4661	667.0408	722.7223	786.0335	813.3519	843.6213	920.2205	944.0859	949.0941	973.4314	1023.6776	1078.8601	1086.4192	1113.055	1147.4675	1165.4969	1172.6026	1231.2268	1291.3841	1362.0021	1411.9992	1417.2826	1466.6044	1476.469	1484.8989	1493.4788	1501.5038	1511.5989	1911.2064	3034.61	3035.6895	3043.4026	3099.9073	3102.3822	3106.2869	3107.2151	3109.3129	3171.9159
CC12C3CN1C(=O)C23C	C[C@@]12[C@H]3CN1C(=O)[C@@]23C	
InChI=1S/C7H9NO/c1-6-4-3-8(5(6)9)7(4,6)2/h4H,3H2,1-2H3	InChI=1S/C7H9NO/c1-6-4-3-8(5(6)9)7(4,6)2/h4H,3H2,1-2H3/t4-,6-,7-/m0/s1
