13
gdb 27023	3.0718	1.32392	0.92611	4.3961	72.38	-0.1925	-0.0043	0.1882	1155.7815	0.088569	-452.769255	-452.760854	-452.75991	-452.802125	30.979	
N	 0.1527186107	 1.3720559368	 0.177333715	-0.603759
C	-0.0218101633	 0.0188308489	 0.0594615117	 0.280048
C	-1.1308821357	-0.7649027018	 0.0273399377	 0.108279
N	-0.6265895273	-2.0951282971	 0.0090842348	-0.461192
C	 0.7330473395	-2.1022074946	 0.0033180717	 0.481393
O	 1.5281909058	-2.997180807	-0.0292580973	-0.39302
O	 1.1045004425	-0.7416577687	 0.04414984	-0.222723
C	-2.4841687916	-0.4167556466	 0.0194569224	 0.239033
C	-3.6535281443	-0.116311536	 0.0041610509	-0.444168
H	 0.978285951	 1.7248647219	-0.2879971375	 0.270445
H	-0.6772867731	 1.9088363079	-0.0321826247	 0.27134
H	-1.1768324555	-2.9343353352	-0.0285642328	 0.279832
H	-4.6813645787	 0.1494405315	 0.0043194682	 0.194492
113.3065	125.3111	183.8735	234.8522	272.9105	330.3003	381.942	429.5353	444.8171	505.0254	555.3214	610.5319	628.9507	669.8184	700.5535	710.503	752.8743	837.7549	914.7092	1034.7434	1173.2563	1248.2649	1271.3832	1389.5862	1461.3097	1621.6594	1721.586	1919.6075	2214.2708	3500.96	3554.5578	3661.15	3701.9662
NC1=C(NC(=O)O1)C#C	Nc1c([nH]c(=O)o1)C#C	
InChI=1S/C5H4N2O2/c1-2-3-4(6)9-5(8)7-3/h1H,6H2,(H,7,8)	InChI=1S/C5H4N2O2/c1-2-3-4(6)9-5(8)7-3/h1H,6H2,(H,7,8)
