21
gdb 68595	2.05192	1.88361	1.56802	1.0722	77.56	-0.2272	0.065	0.2922	1012.1904	0.181842	-424.209551	-424.200799	-424.199854	-424.241913	35.178	
C	-0.0370527233	 1.5215027726	 0.01248658	-0.51146
C	-0.0087762268	 0.0139277173	-0.0157359118	 0.252552
C	 0.3761071413	-0.8257401444	-1.2851673178	-0.285865
C	-0.3239673755	-1.9368290828	-0.4756575822	 0.0296
O	 0.5305515779	-2.1135126075	 0.6667983895	-0.279139
C	 0.8241849412	-0.7405752098	 1.0262263671	-0.125465
C	-1.3330024727	-0.847437219	 0.0188423767	 0.405265
C	-2.0905156238	-1.0822868895	 1.3153906719	-0.486211
O	-2.1995619392	-0.3485680954	-0.988443863	-0.4891
H	 0.9548506808	 1.9405163125	-0.1906204658	 0.116317
H	-0.7311105564	 1.9033935371	-0.7410379309	 0.137571
H	-0.3610359684	 1.8963884518	 0.9905538469	 0.114264
H	-0.1707447183	-0.5188428929	-2.1730308846	 0.11945
H	 1.4391896244	-0.9703601138	-1.4916107137	 0.091378
H	-0.6176627554	-2.9084761925	-0.8732619206	 0.069442
H	 1.9000225766	-0.5466798804	 0.9338903479	 0.099012
H	 0.5207635482	-0.5474865412	 2.0618970963	 0.095707
H	-1.4780302619	-1.5964700597	 2.0570021006	 0.14295
H	-2.4497208572	-0.1365172539	 1.7338575761	 0.123042
H	-2.9682175831	-1.7133202804	 1.1247065819	 0.102381
H	-2.9509288685	-0.9469573981	-1.0536748745	 0.278307
188.5954	190.5962	200.6524	225.6544	277.9401	291.2823	309.4216	365.9391	420.0567	465.2893	492.0053	548.6827	611.1705	660.9847	686.9171	807.7356	866.127	915.046	933.5377	951.9649	958.8605	977.3268	994.6975	1035.927	1070.085	1101.2356	1140.2075	1171.08	1182.4664	1206.0739	1224.2316	1238.071	1248.0773	1264.2096	1304.104	1347.7227	1397.7669	1403.0758	1411.1105	1478.7719	1487.4209	1491.2632	1497.5142	1500.9185	1534.3237	3017.7385	3024.8099	3028.3198	3056.1748	3078.6726	3085.7	3087.6717	3114.3292	3121.9863	3143.8753	3174.1332	3809.7006
CC12CC(OC1)C2(C)O	C[C@@]12C[C@@H](OC1)[C@]2(C)O	
InChI=1S/C7H12O2/c1-6-3-5(9-4-6)7(6,2)8/h5,8H,3-4H2,1-2H3	InChI=1S/C7H12O2/c1-6-3-5(9-4-6)7(6,2)8/h5,8H,3-4H2,1-2H3/t5-,6-,7+/m1/s1
