17
gdb 129689	2.90322	1.50981	1.04417	2.2896	75.82	-0.1877	0.0344	0.2221	1118.093	0.13849	-414.162231	-414.153932	-414.152988	-414.195695	30.734	
N	-0.3460179175	 1.1329203947	 0.7261882862	-0.621374
C	-0.1309822615	-0.1373913942	 0.1309449439	 0.073166
C	-1.1152862696	-1.0207728773	-0.2900963828	 0.365253
N	-0.460083146	-2.1182624213	-0.7574670209	-0.262876
N	 0.8830557051	-2.0266452836	-0.6525582549	-0.240641
C	 1.080094716	-0.8231184527	-0.122212537	-0.056167
N	-2.5056823288	-0.8952052949	-0.3856165993	-0.1781
C	-3.3375145144	-1.7825524507	 0.4451153876	-0.234573
C	-3.2117629746	-0.3394474047	 0.7739386004	-0.218612
H	 0.5202961786	 1.5026863896	 1.0994796255	 0.238819
H	-0.6976341146	 1.808967394	 0.0552959941	 0.243596
H	-0.8718328776	-2.9300246831	-1.1846849773	 0.268998
H	 2.0865116023	-0.4824064551	 0.0801165195	 0.097236
H	-4.2319504149	-2.1595822096	-0.0408402311	 0.123583
H	-2.82353992	-2.4903592244	 1.0905680363	 0.127292
H	-2.6127566711	-0.0619778642	 1.634396671	 0.153194
H	-4.0184262714	 0.3439597774	 0.5271130086	 0.121207
45.512	134.554	165.8914	177.6	279.9219	326.7569	390.4236	452.46	497.7192	590.5737	683.6688	703.8489	716.2034	817.2374	843.7336	866.7708	885.371	915.9683	950.293	1042.002	1100.657	1111.7851	1130.3538	1142.5555	1173.079	1177.4507	1217.4433	1257.8881	1292.2758	1337.6293	1399.4329	1450.0837	1492.9659	1518.9938	1542.7194	1638.0865	1662.458	3112.1255	3128.0337	3201.3889	3225.1153	3227.2587	3499.1337	3588.0635	3676.7072
NC1=C(NN=C1)N1CC1	Nc1c([nH]nc1)N1CC1	
InChI=1S/C5H8N4/c6-4-3-7-8-5(4)9-1-2-9/h3H,1-2,6H2,(H,7,8)	InChI=1S/C5H8N4/c6-4-3-7-8-5(4)9-1-2-9/h3H,1-2,6H2,(H,7,8)
