25
gdb 78236	1.93937	1.57161	1.14999	0.0628	91.91	-0.2565	0.0815	0.338	1261.5398	0.229847	-352.367678	-352.357987	-352.357043	-352.401908	37.623	
C	-0.1207673843	 1.7230291675	-0.016178099	-0.420667
C	 0.0075639211	 0.2140166442	 0.0145966605	-0.041431
C	 1.245151735	-0.5726497748	-0.3562158922	-0.048406
C	 0.7344156785	-0.5870117425	 1.0719615894	-0.048386
C	 1.7591013872	 0.0893500677	 1.9806506278	 0.030572
C	 2.3825331593	-0.9254357876	 2.9496059301	-0.402617
C	 2.8114701614	 0.7247665746	 1.0225071238	-0.254025
C	 2.6093230676	 0.1133645487	-0.3968532291	 0.030586
C	 3.7122888806	-0.8878419546	-0.7688547114	-0.402625
H	 0.7823529999	 2.2402561715	 0.3120208232	 0.118984
H	-0.345693391	 2.0703787444	-1.0310683824	 0.114611
H	-0.9404689772	 2.0537176682	 0.6318803366	 0.114609
H	-0.9069360034	-0.2747744156	-0.3173315745	 0.07839
H	 1.1112390527	-1.4322847609	-1.0064141602	 0.069978
H	 0.2240087135	-1.4572308876	 1.4742946273	 0.069976
H	 1.2862678153	 0.8764615208	 2.5820196674	 0.067246
H	 2.863856165	-1.7469506557	 2.4067997053	 0.116729
H	 3.1419994534	-0.4516895562	 3.5805245969	 0.107939
H	 1.6251360275	-1.3625341078	 3.6094277572	 0.109184
H	 2.7009089902	 1.8118838861	 0.9939478706	 0.098423
H	 3.828167531	 0.5360888211	 1.3841881278	 0.089835
H	 2.6199197171	 0.9141422632	-1.1474547417	 0.067246
H	 3.7455401611	-1.7220646762	-0.0588095982	 0.116728
H	 3.5478082076	-1.3081185498	-1.7670442555	 0.109185
H	 4.6965600906	-0.4077518088	-0.7665140297	 0.107938
73.7505	111.7819	132.0579	215.9744	224.8185	255.6181	283.2789	328.395	348.1295	380.5589	484.978	564.4782	662.5681	684.8777	740.6245	773.8631	804.3627	875.329	892.6091	905.3428	949.78	973.1042	1006.4237	1023.0395	1032.1169	1053.9259	1055.8209	1097.5646	1102.2881	1141.4349	1157.8817	1164.8007	1166.5436	1238.3041	1243.2512	1261.5199	1305.8566	1325.2836	1342.258	1343.4279	1381.4975	1382.4105	1407.1857	1409.365	1418.783	1438.7295	1492.8097	1493.529	1494.3682	1497.8197	1499.9093	1502.8288	1514.4514	3011.1698	3011.9057	3023.8294	3024.993	3031.5894	3046.1784	3082.0052	3084.7341	3090.9281	3095.0916	3095.5045	3096.7603	3109.2106	3134.281	3139.4913	3152.0035
CC1C2C1C(C)CC2C	C[C@H]1[C@@H]2[C@H]1[C@@H](C)C[C@H]2C	
InChI=1S/C9H16/c1-5-4-6(2)9-7(3)8(5)9/h5-9H,4H2,1-3H3	InChI=1S/C9H16/c1-5-4-6(2)9-7(3)8(5)9/h5-9H,4H2,1-3H3/t5-,6+,7+,8-,9+
