18
gdb 47228	2.29329	1.78776	1.28502	2.5948	77.4	-0.2324	-0.0215	0.2109	1029.6011	0.149848	-401.946626	-401.939028	-401.938084	-401.978949	29.834	
O	-0.0197706816	-0.0295344858	 0.3344106863	-0.319733
C	 0.0247303532	 1.152894623	 0.0687433806	 0.398456
C	-1.2743891705	 1.9557647159	-0.0185362862	-0.287298
C	-1.3109405461	 3.2946164315	-0.788538439	-0.275568
C	-0.6805030597	 3.2374711387	-2.1588718097	-0.091614
C	 0.6024700016	 2.9580198521	-2.3970013064	-0.01289
C	 1.6365334232	 2.6434227563	-1.3776079113	-0.065066
N	 1.5368864494	 3.2297416707	-0.0348415952	-0.337833
C	 1.3678994287	 1.7766013504	-0.1658590006	-0.139156
H	-2.009235766	 1.2536495362	-0.4257351552	 0.129688
H	-1.5813747297	 2.1383423545	 1.0203497723	 0.130589
H	-2.3607241363	 3.589739319	-0.8822426825	 0.097983
H	-0.8132146789	 4.0626427971	-0.193705959	 0.14577
H	-1.3245822783	 3.4361936601	-3.0114626725	 0.094503
H	 0.9554975858	 2.9299528664	-3.4244361353	 0.088817
H	 2.6388660894	 2.5204821033	-1.7813908959	 0.096817
H	 2.4606962471	 3.4376034031	 0.3334072945	 0.243584
H	 2.1760567187	 1.1178533773	 0.1417598652	 0.10295
54.3104	183.0416	248.699	287.4417	322.1736	386.271	456.6164	547.3475	581.5905	603.6917	677.9158	721.7782	778.685	815.4469	848.0392	885.2331	906.8124	953.2349	983.3076	991.2894	1027.602	1055.2027	1076.9552	1145.8484	1184.0986	1203.4453	1221.7167	1243.1867	1275.9332	1279.8951	1350.4201	1375.3248	1394.9213	1420.1746	1448.2464	1457.5286	1486.53	1719.3982	1782.6923	3026.15	3057.1507	3078.5743	3114.4341	3129.7592	3148.4233	3152.427	3174.1723	3512.5306
O=C1CCC=CC2NC12	O=C1CCC=C[C@H]2N[C@@H]12	
InChI=1S/C7H9NO/c9-6-4-2-1-3-5-7(6)8-5/h1,3,5,7-8H,2,4H2	InChI=1S/C7H9NO/c9-6-4-2-1-3-5-7(6)8-5/h1,3,5,7-8H,2,4H2/t5-,7-/m1/s1
