15
gdb 27414	2.61874	1.6371	1.1049	3.801	77.73	-0.2527	-0.0936	0.159	1071.2495	0.112706	-416.836008	-416.828266	-416.827322	-416.868397	28.662	
C	 0.0632973897	 1.4871591449	 0.1542067871	-0.447843
C	-0.0632914924	 0.0024756487	-0.0682476642	 0.32243
C	-1.2704804018	-0.6123486218	-0.0859956693	-0.220197
C	-1.4655749083	-2.0422780337	-0.3898999675	 0.336561
O	-2.3058004178	-2.458049226	-1.1524548061	-0.31404
N	-0.6853921278	-2.9302437892	 0.3785929234	-0.203746
C	 0.5896112694	-2.8594707143	 0.4339484191	-0.014226
C	 1.4433016244	-1.8365373383	-0.17315068	-0.006772
N	 1.1560534865	-0.5976865665	-0.3583837037	-0.258444
H	 0.4987800386	 1.9650974069	-0.7289006062	 0.149699
H	-0.9022342114	 1.9464036078	 0.3729108555	 0.12997
H	 0.7446002359	 1.6841199968	 0.9891080553	 0.141345
H	-2.1767079585	-0.0202960959	 0.002951472	 0.127124
H	 1.1106883502	-3.6289251725	 1.0116810359	 0.130921
H	 2.4621883233	-2.1428632069	-0.4216562615	 0.127217
103.945	133.4462	166.8734	274.6178	317.0279	367.8569	412.9391	421.1313	521.4693	623.2273	674.3587	698.5239	827.3886	838.4705	877.0404	897.7971	936.7307	947.7162	1026.3714	1045.1064	1068.3044	1164.785	1221.4866	1329.6107	1410.396	1411.8606	1429.6663	1471.7321	1481.3976	1582.4906	1650.8999	1699.4739	1794.4819	3042.0903	3080.463	3100.6142	3104.7062	3139.8627	3175.8271
CC1=CC(=O)N=CC=N1	Cc1cc(=O)nccn1	
InChI=1S/C6H6N2O/c1-5-4-6(9)8-3-2-7-5/h2-4H,1H3	InChI=1S/C6H6N2O/c1-5-4-6(9)8-3-2-7-5/h2-4H,1H3
