16
gdb 37842	3.18025	2.354	1.74255	3.386	73.38	-0.2116	-0.0524	0.1592	786.4558	0.127159	-396.736093	-396.730441	-396.729497	-396.765621	24.918	
C	-0.025655083	 1.5610497616	 0.0387006049	-0.273325
N	 1.444116445	 1.7808353102	 0.1551438603	-0.178522
C	 1.9931798331	 0.7553066204	-0.4201041864	 0.095302
N	 2.5665799602	-0.2055383969	 0.4965515818	-0.31925
C	 1.2183659398	-0.9060710249	 0.5302418973	 0.010331
C	 0.8572222855	-1.5017571952	-0.8490356193	-0.079145
N	-0.6246737553	-1.2380007541	-0.5623425171	-0.39916
C	 0.1003511809	 0.0218205136	-0.1885120801	 0.288024
C	 1.1077735479	-0.0517482667	-1.370221236	-0.119474
H	-0.4828870839	 1.902913769	 0.9720353533	 0.128416
H	-0.5651405351	 2.0258799001	-0.7994977321	 0.110767
H	 3.2229943306	-0.8354358117	 0.0330364152	 0.224524
H	 0.9807117443	-1.4345472784	 1.4510679576	 0.109303
H	 1.1744692732	-2.4576499306	-1.2673986992	 0.092915
H	-1.1193668127	-1.0922164604	-1.4469812838	 0.217114
H	 0.7944956095	 0.3003814838	-2.3499984263	 0.092178
330.4082	371.6748	421.1174	460.6506	528.9032	585.6224	637.1204	651.9583	749.556	779.3553	802.6455	856.0114	886.6019	896.0819	916.5406	950.3703	967.8945	985.8016	1020.7464	1063.3571	1078.1874	1092.6387	1097.5609	1134.6518	1158.8325	1180.2128	1200.3898	1222.0606	1264.2754	1268.3692	1277.5299	1308.2836	1336.2348	1485.8855	1525.2567	2994.4705	3078.7241	3108.8163	3151.8799	3155.0542	3404.2235	3430.3718
C1N=C2NC3C4NC13C24	C1[N][C]2N[C@@H]3[C@H]4N[C@@]13[C@@H]24	
InChI=1S/C6H7N3/c1-6-2-3(9-6)4(6)8-5(2)7-1/h2-4,9H,1H2,(H,7,8)	InChI=1S/C6H7N3/c1-6-2-3(9-6)4(6)8-5(2)7-1/h2-4,9H,1H2,(H,7,8)/t2-,3+,4-,6-/m1/s1
