14
gdb 130184	3.57856	1.64466	1.12946	3.1226	69.86	-0.1997	0.0066	0.2063	987.8784	0.10572	-429.071511	-429.064426	-429.063482	-429.102707	27.287	
N	-0.0634157874	 1.4309554452	 0.1541231083	-0.601096
C	 0.0509550651	 0.0391394268	 0.0380675705	 0.22453
N	-1.025514252	-0.7465729563	 0.0179908261	-0.295986
N	-0.574961753	-2.0413957128	-0.0113508789	-0.354682
C	 0.7793493611	-2.0741327447	-0.0249503043	 0.413944
C	 1.2165356009	-0.75953394	 0.0094781056	 0.232968
N	 2.5985020484	-0.8655804771	 0.0067216936	-0.428287
C	 2.8719819856	-2.212472694	-0.0212466606	 0.002636
N	 1.7997486033	-2.9834181507	-0.0442855008	-0.359538
H	 0.4420519292	 1.9237456678	-0.5735987846	 0.240104
H	-1.0407898663	 1.6982222168	 0.1136857024	 0.250563
H	-1.239510979	-2.7928909718	 0.0038400941	 0.272095
H	 3.2784863853	-0.1289421949	 0.0734565951	 0.268999
H	 3.8895907989	-2.5757764444	-0.0263144265	 0.133748
184.196	237.0215	246.3709	266.0175	293.6257	391.5686	464.686	549.3549	639.9819	644.55	654.9889	701.9962	764.7856	816.9588	828.426	858.0623	962.5168	1060.0915	1090.7774	1153.4249	1185.5669	1238.7771	1316.9661	1357.6771	1402.3368	1447.4572	1485.3535	1551.6099	1583.1991	1626.0737	1648.3259	3247.2429	3512.2016	3602.6882	3685.5611	3705.1405
NC1=NNC2=C1NC=N2	Nc1n[nH]c2c1[nH]cn2	
InChI=1S/C4H5N5/c5-3-2-4(9-8-3)7-1-6-2/h1H,(H4,5,6,7,8,9)	InChI=1S/C4H5N5/c5-3-2-4(9-8-3)7-1-6-2/h1H,(H4,5,6,7,8,9)
