20
gdb 62019	3.68508	0.7224	0.64849	3.6322	78.29	-0.2514	-0.0262	0.2252	1742.7951	0.167585	-440.308715	-440.297929	-440.296985	-440.346362	36.798	
C	 0.0347954134	 1.4354447302	 0.1770554515	-0.407225
C	-0.032941122	-0.0929100014	 0.0072282534	-0.084881
C	-1.4779556896	-0.596980653	-0.0525702396	-0.06078
O	-2.114013167	-0.2316507091	 1.1758106489	-0.242843
C	-3.4179231325	-0.5647024237	 1.3040131676	 0.397234
C	-3.9335322598	-0.119943884	 2.648387401	-0.461718
N	-4.0333487377	-1.1655731719	 0.3710593163	-0.518181
C	 0.6757663125	-0.4869323543	-1.276236842	 0.155996
O	 1.6436348682	-1.1981360951	-1.3433268877	-0.242529
H	 1.0693782458	 1.773083581	 0.284122638	 0.129276
H	-0.4025745686	 1.9473593711	-0.688174142	 0.12023
H	-0.5245767221	 1.7367840548	 1.0647426009	 0.140542
H	 0.4874799476	-0.5893043063	 0.8320386965	 0.104102
H	-2.0258520811	-0.1542186172	-0.8928544359	 0.120961
H	-1.5205986718	-1.6845250078	-0.1731402177	 0.129394
H	-4.9855091087	-0.3821947892	 2.7694390225	 0.129105
H	-3.3523571603	-0.5882625	 3.4485127467	 0.148916
H	-3.8191120006	 0.9629202642	 2.7570148458	 0.14666
H	-5.0009556464	-1.3386504496	 0.6327540889	 0.222118
H	 0.2285680704	-0.0393078587	-2.196518423	 0.073624
42.3532	49.6718	61.5195	117.394	128.6934	179.0199	215.8295	268.6162	285.3326	358.3886	365.3816	468.5634	558.1794	574.1894	625.4755	852.5638	865.6982	922.7042	925.624	933.5188	960.4549	996.7944	1068.5133	1073.6691	1114.0869	1129.2409	1155.5812	1166.456	1265.4957	1282.9726	1350.4302	1361.1116	1395.5339	1404.1811	1428.9055	1434.194	1471.9395	1482.2234	1494.8238	1502.6872	1513.0754	1729.7437	1838.0581	2843.0142	3035.8579	3038.0109	3049.3246	3068.817	3086.0279	3107.6499	3112.6351	3136.6431	3145.6555	3518.8134
CC(COC(C)=N)C=O	C[C@@H](CO[C](C)[NH])C=O	
InChI=1S/C6H11NO2/c1-5(3-8)4-9-6(2)7/h3,5,7H,4H2,1-2H3	InChI=1S/C6H11NO2/c1-5(3-8)4-9-6(2)7/h3,5,7H,4H2,1-2H3/t5-/m1/s1
