23
gdb 60046	2.51514	0.96933	0.89955	1.9622	82.2	-0.2434	0.0653	0.3088	1471.0263	0.202406	-425.41097	-425.400098	-425.399154	-425.446751	40.786	
C	 2.5451849723	 0.8602794493	-0.0228951141	-0.392432
C	 1.1262546057	 0.5445046146	 0.4688976105	 0.027935
C	 0.3728974785	-0.3056725376	-0.564095373	-0.383222
C	 1.1825281593	-0.1127275056	 1.8617928449	-0.222161
C	-0.1604308122	-0.2910352265	 2.5444008505	 0.36924
O	-0.8918544256	 0.8954967775	 2.7372439213	-0.472224
C	-0.9715641505	-1.5676170304	 2.3700600598	-0.383792
C	-0.2941042982	-1.2442917215	 3.6878828466	 0.055682
O	 0.8468916935	-1.9503273361	 4.0779012395	-0.423097
H	 3.1303879151	-0.0595217233	-0.1420844691	 0.112127
H	 2.5249172695	 1.3685726592	-0.9927036412	 0.106903
H	 3.0786061857	 1.5037826323	 0.6842220756	 0.112883
H	 0.596505869	 1.5022728597	 0.5762986597	 0.065412
H	 0.8625992291	-1.2776683675	-0.699763783	 0.111
H	-0.6617472234	-0.4989304767	-0.2655236716	 0.110782
H	 0.3519226586	 0.1923204138	-1.5393514838	 0.108769
H	 1.6819430422	-1.0851015469	 1.7975131448	 0.102197
H	 1.8044343819	 0.5113048175	 2.5161411347	 0.102905
H	-1.268230295	 1.1511643661	 1.8883141989	 0.283023
H	-2.051859688	-1.4811756889	 2.3231917955	 0.109385
H	-0.5377801819	-2.3620983022	 1.7720941269	 0.112684
H	-0.9383223547	-0.9066194145	 4.4987971928	 0.09742
H	 0.573662409	-2.8394288523	 4.3261813138	 0.288581
46.5067	94.1553	130.3375	208.468	227.5416	234.583	251.6197	280.2608	301.3082	328.6503	376.7315	400.9469	420.3418	454.7228	470.9944	556.6772	736.9769	825.6435	837.2398	877.3645	913.4639	928.8468	945.6558	963.2849	970.5365	999.8096	1023.3564	1068.4186	1122.9287	1137.0884	1174.3039	1193.9458	1227.6369	1258.0603	1295.698	1309.337	1328.042	1345.8565	1371.3333	1388.4171	1402.1568	1415.398	1423.7507	1470.7738	1485.6538	1492.8094	1497.6315	1505.0736	1509.5981	2996.5621	3023.051	3025.783	3030.4347	3080.4259	3086.8239	3093.887	3099.8944	3103.2228	3113.029	3128.4683	3223.1266	3804.1417	3807.3208
CC(C)CC1(O)CC1O	CC(C)C[C@@]1(O)C[C@H]1O	
InChI=1S/C7H14O2/c1-5(2)3-7(9)4-6(7)8/h5-6,8-9H,3-4H2,1-2H3	InChI=1S/C7H14O2/c1-5(2)3-7(9)4-6(7)8/h5-6,8-9H,3-4H2,1-2H3/t6-,7-/m1/s1
