25
gdb 122297	4.49954	0.67543	0.65012	0.3044	93.98	-0.2412	0.0873	0.3285	1883.2569	0.22904	-352.340153	-352.330227	-352.329283	-352.375614	37.458	
C	 0.0849307938	 1.5645231396	 0.2147854673	-0.381111
C	 0.0359493358	 0.0518604128	-0.0163727592	-0.161483
C	-1.3816967197	-0.5246416174	 0.056457307	-0.150889
C	-1.4358850381	-2.0422620172	-0.1772372408	-0.328676
C	-2.8311730572	-2.6020384912	-0.1267191954	 0.407794
C	-3.5175197026	-2.9841051173	 1.1583874125	-0.316661
C	-3.3246558753	-4.0367429678	 0.0987219367	-0.11591
C	-4.3853731704	-3.8731462471	-0.9944109453	-0.218089
C	-3.8964174742	-2.4045917057	-1.2210840198	-0.283643
H	 1.1090405766	 1.9464317961	 0.1552049267	 0.109647
H	-0.5134111113	 2.0984631159	-0.5320118322	 0.112679
H	-0.3113053164	 1.8273430537	 1.202086193	 0.11282
H	 0.4722823423	-0.1836804972	-0.9963766584	 0.092689
H	 0.6700898843	-0.4532912592	 0.7246265562	 0.092366
H	-1.8216331781	-0.2954913257	 1.0363869614	 0.094664
H	-2.0166567865	-0.020315899	-0.6849949293	 0.094232
H	-0.9830105795	-2.2725264569	-1.152528003	 0.089256
H	-0.8146068087	-2.5477682594	 0.574567488	 0.090412
H	-2.864296967	-3.070984375	 2.0217590536	 0.103738
H	-4.5154546041	-2.6169980325	 1.3925705387	 0.097113
H	-2.7470702593	-4.9340809362	 0.2906458735	 0.07887
H	-4.2086369592	-4.5055308142	-1.8674177698	 0.099816
H	-5.4253403153	-4.0047892596	-0.6762261583	 0.092342
H	-4.6254779445	-1.6055219565	-1.0489541943	 0.090553
H	-3.4601870453	-2.2656052928	-2.2142272987	 0.097471
58.2359	83.2104	94.4817	133.4265	213.4265	242.4302	274.0427	313.5127	345.6138	429.3049	448.3421	671.3447	727.9897	736.9953	784.9431	795.5694	838.9884	878.5028	912.9396	925.4879	935.6813	956.2139	970.4713	1007.3143	1016.5603	1032.4684	1062.034	1065.0643	1083.7887	1114.9582	1137.2261	1159.5099	1219.8862	1222.9032	1240.5889	1260.0125	1263.6918	1287.1882	1298.5236	1327.5206	1335.596	1363.1037	1394.6375	1407.2312	1415.1003	1478.9438	1482.3454	1486.0437	1486.7279	1499.1353	1499.6341	1512.003	1513.638	2997.4694	3006.9185	3016.348	3026.3493	3028.4951	3036.3532	3037.0182	3045.0005	3059.9364	3085.8679	3094.0881	3094.4286	3099.6672	3106.5634	3169.5953	3188.203
CCCCC12CC1CC2	CCCC[C@]12C[C@H]1CC2	
InChI=1S/C9H16/c1-2-3-5-9-6-4-8(9)7-9/h8H,2-7H2,1H3	InChI=1S/C9H16/c1-2-3-5-9-6-4-8(9)7-9/h8H,2-7H2,1H3/t8-,9+/m1/s1
