23
gdb 86382	2.46091	1.41867	1.08289	1.4091	85.3	-0.2519	0.0747	0.3266	1234.1636	0.205694	-388.301534	-388.292082	-388.291138	-388.335026	37.059	
C	 0.0007670012	 1.5834400083	 0.001333773	-0.39443
C	 0.0436373365	 0.0539098902	 0.0206125984	 0.025188
C	 0.7579881935	-0.5730063484	-1.1987498588	-0.287485
C	 1.2670479825	-1.9506346975	-0.7196759728	 0.068648
O	 2.4542302085	-2.3914007889	-1.3688116092	-0.442318
C	 1.5157061553	-1.7974411852	 0.7740165548	 0.367487
C	 1.614485484	-3.0578396542	 1.598154663	-0.493376
C	 2.2885741639	-0.5627204586	 1.1748143655	-0.33102
C	 0.7776700423	-0.5529279126	 1.2156655562	-0.083209
H	 1.0133453652	 2.0014482907	 0.0049449444	 0.115102
H	-0.5139494294	 1.9558271497	-0.891179956	 0.108505
H	-0.5257107319	 1.9766863072	 0.8775919357	 0.109978
H	-0.9900296322	-0.31843653	 0.0472787107	 0.068935
H	 0.1052514553	-0.6454894635	-2.0743240443	 0.087525
H	 1.6231007556	 0.0312266746	-1.4938037202	 0.106745
H	 0.4720963562	-2.7044148893	-0.8509823823	 0.056898
H	 2.2402519484	-2.5747525488	-2.2888840879	 0.279635
H	 2.4645398183	-3.6664104066	 1.271278228	 0.130676
H	 1.7523253559	-2.8308347388	 2.6600102749	 0.108902
H	 0.7092832821	-3.670003334	 1.5013022647	 0.107407
H	 2.8049740917	-0.6064990402	 2.1279924822	 0.10407
H	 2.8152110534	 0.0105120817	 0.4196959721	 0.113115
H	 0.2947800737	-0.5139066757	 2.1875554281	 0.073024
115.8045	135.6046	199.9128	227.5421	231.6867	247.0003	264.64	312.5126	385.1438	422.9384	472.1	534.5622	565.8607	599.1487	688.7394	792.0784	857.0819	887.8653	912.2765	945.1184	964.3921	971.2705	1014.2748	1025.4046	1052.2911	1061.728	1080.9565	1091.9596	1118.4206	1129.3718	1163.3281	1197.5007	1237.6473	1268.9394	1276.3408	1315.7197	1337.0215	1357.8391	1368.6511	1398.2009	1406.31	1418.2099	1441.6816	1486.0047	1488.7399	1493.9184	1498.1021	1503.7478	1512.3488	2950.1131	3001.4246	3020.7299	3026.331	3041.7575	3082.2221	3084.287	3093.5261	3098.0115	3099.8369	3132.4375	3149.8901	3212.6642	3817.9384
CC1CC(O)C2(C)CC12	C[C@H]1C[C@@H](O)[C@@]2(C)C[C@@H]12	
InChI=1S/C8H14O/c1-5-3-7(9)8(2)4-6(5)8/h5-7,9H,3-4H2,1-2H3	InChI=1S/C8H14O/c1-5-3-7(9)8(2)4-6(5)8/h5-7,9H,3-4H2,1-2H3/t5-,6-,7+,8-/m0/s1
