17
gdb 84262	3.03371	1.51968	1.11139	2.0038	74.75	-0.237	-0.0299	0.2071	1085.2493	0.13689	-418.002043	-417.994215	-417.99327	-418.034499	29.722	
C	-0.0344634506	 1.539102542	-0.1222809637	-0.382023
C	 0.0632089457	 0.0231541382	-0.0113882173	-0.06692
N	 0.8628947692	-0.5687264263	-1.1164372614	-0.311762
C	 1.4696291428	-1.5518012804	-0.5845922916	 0.36059
N	 2.6307258162	-2.292756082	-0.7971925039	-0.35772
C	 2.9040664399	-2.2349437461	 0.6864044028	-0.202797
C	 1.4114256341	-1.8049953695	 0.886250085	-0.220766
C	 0.8012403957	-0.447701761	 1.2974043707	 0.354292
O	 0.8769034449	 0.1455719513	 2.3339844827	-0.290318
H	 0.9625564543	 1.9830219479	-0.1941498927	 0.121925
H	-0.5989690999	 1.8184862596	-1.0149285257	 0.125394
H	-0.5325170362	 1.9498639075	 0.7597920347	 0.129879
H	-0.9515194246	-0.4041573654	 0.0125304758	 0.103826
H	 3.3160918512	-1.9554879157	-1.4653655588	 0.244495
H	 3.1926233815	-3.1951473674	 1.1166273801	 0.129181
H	 3.6253491147	-1.4593346606	 0.9605118549	 0.132545
H	 0.771353061	-2.617792702	 1.2380939182	 0.130179
80.1795	170.0594	193.0539	233.3916	255.0322	368.9397	426.081	510.1468	554.3424	622.0001	640.5083	737.6131	783.3701	818.5886	873.315	898.78	928.7358	975.2915	997.8204	1061.6729	1069.3256	1102.0741	1124.7955	1148.0443	1161.0142	1215.8865	1251.4078	1267.7284	1319.7255	1331.3372	1367.6664	1402.8083	1482.8521	1495.3739	1504.5062	1748.9816	1866.8356	2982.1423	3049.623	3058.2968	3087.7444	3123.9747	3127.931	3132.7563	3535.8148
CC1N=C2NCC2C1=O	C[C@H]1[N][C]2NC[C@H]2C1=O	
InChI=1S/C6H8N2O/c1-3-5(9)4-2-7-6(4)8-3/h3-4H,2H2,1H3,(H,7,8)	InChI=1S/C6H8N2O/c1-3-5(9)4-2-7-6(4)8-3/h3-4H,2H2,1H3,(H,7,8)/t3-,4+/m1/s1
