16
gdb 21043	3.78522	1.82777	1.2535	2.4033	68.1	-0.2025	0.0239	0.2265	955.4207	0.13199	-376.143548	-376.135287	-376.134343	-376.17638	29.332	
C	 0.0770921618	 1.3990717142	-0.0681781741	-0.32271
N	 0.0637722054	-0.0411636483	 0.0176001136	 0.003992
N	 0.1364238871	-0.7883844537	-1.1299885804	-0.343285
C	 0.1078896017	-2.0233007335	-0.6500555336	 0.386784
N	 0.2224768056	-3.1434945611	-1.4515404622	-0.584599
N	 0.0144457814	-2.120307226	 0.706571557	-0.36551
C	-0.0096161191	-0.851449323	 1.093031714	 0.352507
C	-0.1037948586	-0.3870745961	 2.5086360642	-0.505531
H	 1.0106629947	 1.7453190486	-0.5216165265	 0.148621
H	-0.7589455725	 1.749477992	-0.6804768324	 0.147644
H	-0.0118266527	 1.8201078916	 0.9341175933	 0.138586
H	-0.0641216285	-2.9869949253	-2.4068936877	 0.253553
H	-0.2065730844	-3.9608634235	-1.0430750534	 0.255163
H	 0.769367041	 0.2050757667	 2.8031001537	 0.138715
H	-0.9954223379	 0.2254924626	 2.6805252271	 0.136971
H	-0.158142195	-1.2638357853	 3.1544847172	 0.159099
71.4757	108.3673	166.8074	215.0825	278.5035	282.5564	330.8974	369.6185	515.6321	616.4279	649.2424	660.7795	669.7358	783.1594	836.6496	1010.3508	1037.2856	1063.4459	1064.2073	1135.4783	1152.7242	1217.0498	1318.9983	1405.9143	1424.9574	1457.2727	1467.8692	1471.732	1489.0592	1502.0856	1526.9722	1566.7272	1591.4681	1649.1461	3038.2385	3045.452	3091.0242	3105.5523	3148.9888	3152.2775	3570.9826	3676.7747
CN1N=C(N)N=C1C	Cn1nc(N)nc1C	
InChI=1S/C4H8N4/c1-3-6-4(5)7-8(3)2/h1-2H3,(H2,5,7)	InChI=1S/C4H8N4/c1-3-6-4(5)7-8(3)2/h1-2H3,(H2,5,7)
