19
gdb 91113	2.77865	1.87465	1.51885	2.4097	73.25	-0.2213	0.078	0.2992	942.0498	0.16145	-423.012053	-423.004983	-423.004039	-423.043446	28.751	
C	-0.095388071	 1.5424170923	-0.1086995522	-0.416549
C	 0.0155590754	 0.0342208467	 0.0319939954	 0.157332
O	 0.6879393203	-0.4859823588	-1.1272318663	-0.266162
C	 1.3155819814	-1.6848337208	-0.7712657854	 0.061779
C	 2.5745539802	-1.6011846252	 0.0787681671	 0.064546
O	 3.0274056635	-0.3279073666	 0.4543627603	-0.252588
C	 2.1586074759	 0.1582242817	 1.4805701212	-0.077464
C	 0.8042195661	-0.527734527	 1.2402298257	-0.10382
C	 1.2453929206	-1.9133140155	 0.7172670913	-0.180252
H	 0.8881927194	 1.9957149593	-0.2521558785	 0.13784
H	-0.7080377472	 1.7919858509	-0.9792985919	 0.128626
H	-0.5672488784	 1.9794362401	 0.7772328776	 0.11212
H	-0.9976780403	-0.3992833943	 0.0714256127	 0.068356
H	 1.2042671354	-2.4838732155	-1.4973909734	 0.09587
H	 3.3613278311	-2.3389787964	-0.0412094863	 0.096731
H	 2.5497619912	-0.1187792866	 2.4714702144	 0.091569
H	 2.1333189908	 1.2485565379	 1.4130756463	 0.110569
H	 0.1912567307	-0.5717772427	 2.1428508623	 0.078836
H	 0.9778769349	-2.8402528293	 1.2074100596	 0.092659
93.5676	216.1274	245.4305	303.369	353.3698	511.2022	532.4976	575.7341	731.0714	735.5309	768.9093	774.4176	796.6573	816.1431	876.218	931.795	958.0113	973.4307	1008.7619	1021.2259	1061.0763	1069.0675	1083.5941	1100.6401	1110.5592	1127.0601	1164.771	1185.6797	1213.2421	1244.2969	1266.6339	1307.9178	1311.5304	1364.761	1374.9961	1393.0881	1406.788	1411.3892	1480.6671	1499.9632	1522.7349	2958.5545	2987.4454	3045.2691	3095.2706	3098.6964	3115.4349	3130.6526	3156.5061	3164.646	3192.0307
CC1OC2C3OCC1C23	C[C@H]1O[C@H]2[C@H]3OC[C@@H]1[C@@H]23	
InChI=1S/C7H10O2/c1-3-4-2-8-6-5(4)7(6)9-3/h3-7H,2H2,1H3	InChI=1S/C7H10O2/c1-3-4-2-8-6-5(4)7(6)9-3/h3-7H,2H2,1H3/t3-,4+,5-,6+,7-/m1/s1
