15
gdb 35143	4.93226	0.98765	0.88954	1.7755	79.74	-0.2589	-0.003	0.2559	1271.607	0.110087	-383.408688	-383.400227	-383.399283	-383.442425	31.409	
C	 0.1032809049	-1.2659327136	 0.3769210734	-0.465511
C	 0.0818173538	-0.0936057595	 0.1152114013	 0.335032
C	 0.0716796864	 1.3304789029	-0.2313428595	-0.093619
O	-0.7800787228	 2.0704083491	 0.6541632286	-0.26672
C	-0.0401825974	 3.1071407173	 1.3135993782	-0.093583
C	 1.3703977533	 2.9723059044	 0.782276275	-0.092656
C	 1.4308219051	 1.9815009523	-0.0930998079	-0.092632
C	-0.6275993418	 4.4235746379	 1.0487136007	 0.335107
C	-1.0934905377	 5.5128116652	 0.8491816646	-0.465619
H	 0.1158706659	-2.3010009851	 0.614925738	 0.2025
H	-0.3157134355	 1.4355439489	-1.2571017813	 0.121045
H	-0.0741561003	 2.9236997234	 2.3991782368	 0.12104
H	 2.1711282316	 3.6278911054	 1.0962012034	 0.126556
H	 2.2954135813	 1.6363279767	-0.6434171708	 0.12656
H	-1.5118534369	 6.4722657046	 0.6686431396	 0.202501
37.7472	103.0947	163.8506	192.7126	259.1772	360.5123	452.6251	496.7531	539.9216	572.4523	622.8179	622.896	671.8671	672.3194	727.9545	771.846	819.7514	900.4179	919.0056	954.0463	968.0162	1012.7351	1057.4852	1083.8301	1131.0806	1266.8985	1310.6004	1321.3518	1345.6828	1363.2107	1698.2025	2236.4801	2237.4971	2976.8489	2977.0948	3222.3191	3246.5518	3502.3493	3502.6182
C#CC1OC(C=C1)C#C	C#C[C@H]1O[C@@H](C=C1)C#C	
InChI=1S/C8H6O/c1-3-7-5-6-8(4-2)9-7/h1-2,5-8H	InChI=1S/C8H6O/c1-3-7-5-6-8(4-2)9-7/h1-2,5-8H/t7-,8-/m1/s1
