15
gdb 124673	3.46903	1.13612	0.91598	1.9894	66.83	-0.2612	-0.0467	0.2145	1216.5525	0.111648	-453.954173	-453.945813	-453.944869	-453.989376	28.673	
C	-0.1752293615	 1.5322967447	 0.0582317975	-0.409203
C	 0.113786873	 0.0212827194	-0.0067451653	-0.168001
C	-1.2170836316	-0.7340577887	 0.0675440387	 0.168333
O	-1.636573301	-1.2587828651	 1.0618004547	-0.236137
C	 0.8548342876	-0.3803955288	-1.2438643255	 0.347123
N	 1.0927674216	 0.4322536034	-2.2405830204	-0.169715
O	 1.7791973765	-0.3678205571	-3.1616752799	-0.152759
C	 1.8678251085	-1.5764754699	-2.605762283	 0.107783
N	 1.3262946367	-1.6673008503	-1.4350453411	-0.297767
H	 0.7540961785	 2.1013863174	-0.0157952566	 0.144619
H	-0.8223325844	 1.8476241659	-0.765111069	 0.141518
H	-0.6660389196	 1.7747766487	 1.003664166	 0.135411
H	 0.6963612041	-0.294787766	 0.8640745355	 0.126658
H	-1.8028309707	-0.7180571659	-0.8796231657	 0.088734
H	 2.3722415521	-2.3443068377	-3.1740374958	 0.173402
16.4942	60.5732	146.9353	200.2222	219.6729	293.448	391.3475	421.3905	464.081	633.6044	719.4664	788.6432	890.2743	909.2565	917.104	945.0122	987.1649	999.7552	1075.0319	1095.9485	1145.1138	1147.2546	1255.7114	1276.2817	1315.4187	1384.7643	1408.3402	1422.3324	1492.3942	1494.2137	1519.5143	1593.7315	1842.6747	2876.6619	3052.7596	3074.0043	3127.3714	3136.3945	3267.6541
CC(C=O)C1=NOC=N1	C[C@@H](C=O)c1nocn1	
InChI=1S/C5H6N2O2/c1-4(2-8)5-6-3-9-7-5/h2-4H,1H3	InChI=1S/C5H6N2O2/c1-4(2-8)5-6-3-9-7-5/h2-4H,1H3/t4-/m0/s1
