21
gdb 78891	2.76248	1.97465	1.5833	0.2316	83.88	-0.2356	0.0886	0.3241	947.3959	0.185844	-349.920936	-349.914144	-349.9132	-349.951633	29.42	
C	-0.1093541978	 1.5782904976	-0.0390879489	-0.407667
C	 0.0472273174	 0.056273274	 0.0180784352	 0.032161
C	 0.8130242216	-0.5698865577	-1.1411168152	-0.051862
C	 2.3033815484	-0.8651069776	-1.0000665448	-0.086654
C	 1.2533575483	-1.9583818783	-0.7988986103	-0.099841
C	 1.4889863419	-1.8360012675	 0.7277968122	-0.047578
C	 2.7459205202	-0.9498039517	 0.4810490622	-0.020569
C	 2.2015610887	 0.1330974076	 1.429862342	-0.242446
C	 0.7904209847	-0.5050757069	 1.248455456	-0.068119
H	 0.8540350754	 2.0864161776	-0.1361551748	 0.118733
H	-0.720214219	 1.8691477674	-0.9005242197	 0.108714
H	-0.6040904438	 1.9618142597	 0.8598606109	 0.109601
H	-0.9615458885	-0.3825912119	 0.0089571052	 0.065865
H	 0.4834482195	-0.3727248428	-2.1571340958	 0.074891
H	 2.9697142516	-0.7117969569	-1.8413221008	 0.076997
H	 1.0410123783	-2.8502413677	-1.3743803325	 0.078739
H	 1.5046998429	-2.7124265209	 1.3716742115	 0.060882
H	 3.7565619646	-1.3409678615	 0.6116141519	 0.058773
H	 2.575596711	-0.0203909383	 2.4471465569	 0.091519
H	 2.3368304624	 1.1851111068	 1.1655510632	 0.089748
H	 0.1587314021	-0.5596666009	 2.1371927955	 0.058114
154.4556	221.2354	279.0971	375.3349	452.3464	506.8518	602.0291	651.9854	674.9099	744.2602	775.208	784.4085	833.589	872.3703	875.8567	903.7574	921.1164	930.2875	967.3697	976.1837	994.7721	1018.118	1041.0202	1060.4013	1068.2288	1075.7334	1101.5601	1121.3926	1139.4466	1154.9916	1196.967	1208.9695	1232.4994	1248.7911	1277.3805	1284.8795	1309.9431	1320.6684	1345.9904	1371.6723	1405.8772	1411.9909	1482.5831	1496.7574	1510.1313	2987.0804	3033.1741	3046.4501	3082.9783	3086.7627	3092.358	3096.14	3115.0211	3137.2058	3153.0307	3170.1951	3192.3986
CC1C2C3C2C2C3CC12	C[C@H]1[C@H]2[C@@H]3[C@H]2[C@H]2[C@@H]3C[C@@H]12	
InChI=1S/C9H12/c1-3-4-2-5-7(4)9-6(3)8(5)9/h3-9H,2H2,1H3	InChI=1S/C9H12/c1-3-4-2-5-7(4)9-6(3)8(5)9/h3-9H,2H2,1H3/t3-,4+,5+,6+,7-,8-,9-/m1/s1
