20
gdb 98603	3.99459	1.03317	0.95441	1.5757	79.83	-0.2399	-0.0201	0.2198	1321.3198	0.170506	-403.084	-403.07522	-403.074276	-403.118688	32.333	
C	 1.6377727322	 1.8556475448	-0.732394096	-0.380715
C	 1.845051435	 0.3654466743	-0.9880178422	-0.280064
C	 0.5548309693	-0.3983844126	-1.2298916649	 0.333345
O	-0.5389546509	 0.120034536	-1.1849586274	-0.306825
C	 0.7196656557	-1.882429697	-1.5163966947	-0.022092
C	-0.3298328061	-2.6829813695	-2.3134746305	-0.070103
C	 0.1973145704	-1.9050074987	-3.5397652058	-0.175128
N	 1.5092790283	-2.2566789009	-2.8008246758	-0.164622
C	 0.8494665163	-3.6366430021	-2.6093937204	-0.169393
H	 1.1437357222	 2.332613946	-1.5829699191	 0.129462
H	 1.0034034873	 2.0181236521	 0.142749318	 0.13022
H	 2.5955654425	 2.3556670687	-0.5646292944	 0.111228
H	 2.4953734187	 0.1814185713	-1.8539511281	 0.145325
H	 2.3642293173	-0.1158567384	-0.1467537621	 0.120825
H	 1.1494683721	-2.3730340052	-0.6331045899	 0.08856
H	-1.3605120429	-2.9192177848	-2.0363301886	 0.079587
H	 0.1219608761	-2.3834756724	-4.5195509834	 0.102353
H	-0.0101525268	-0.8363236698	-3.6056271672	 0.121199
H	 1.2754578916	-4.2128001379	-1.7831392635	 0.101921
H	 0.8138084616	-4.224411864	-3.5303071541	 0.104917
39.5441	57.4578	132.7818	173.1235	216.5188	270.048	370.2448	452.7991	522.1175	605.8382	689.0319	754.3594	771.4656	784.9151	854.6871	887.3764	902.5707	906.9095	938.2426	1006.199	1019.8738	1049.6858	1062.2349	1083.5786	1108.5886	1124.98	1139.242	1161.7468	1196.3813	1200.8071	1223.6656	1247.6702	1269.1072	1285.302	1366.0566	1403.4328	1413.7203	1450.2214	1493.0448	1497.8956	1516.3765	1554.9068	1799.3844	3015.7012	3025.7216	3048.1025	3049.8796	3051.0527	3064.5335	3078.6737	3118.2533	3122.4293	3125.1779	3140.0219
CCC(=O)C1C2CN1C2	CCC(=O)[C@H]1[C@H]2CN1C2	
InChI=1S/C7H11NO/c1-2-6(9)7-5-3-8(7)4-5/h5,7H,2-4H2,1H3	InChI=1S/C7H11NO/c1-2-6(9)7-5-3-8(7)4-5/h5,7H,2-4H2,1H3/t7-/m1/s1
