18
gdb 18827	3.72075	2.35054	1.75662	0.802	79.28	-0.1974	-0.0236	0.1738	801.7687	0.154339	-310.574624	-310.56793	-310.566986	-310.605019	27.19	
C	-0.214445872	 1.3091230564	-0.216516903	-0.470329
C	-0.0486358909	-0.072521746	 0.3296828553	 0.265599
C	-1.0589326603	-0.960921512	 0.4975550991	-0.045618
C	-1.7910146459	-1.3487826512	-0.8058936892	-0.260361
C	-0.7131118689	-2.4893546448	-0.8209867613	-0.064156
C	 0.7041631162	-2.2280323407	-0.1565064447	-0.037519
C	 1.2669460989	-0.8326751048	 0.1594353334	-0.308985
C	-0.519325747	-2.3940674622	 0.6651968018	-0.102406
H	 0.2631366493	 1.4175159683	-1.2002037547	 0.120808
H	-1.2701443392	 1.5805085222	-0.304031528	 0.12562
H	 0.2624475547	 2.0507813946	 0.4382586307	 0.128486
H	-2.7849002114	-1.7993746266	-0.6993515583	 0.101684
H	-1.8090474243	-0.6022424518	-1.6063330931	 0.096205
H	-0.8240877002	-3.4094335606	-1.3915380584	 0.083553
H	 1.3856082613	-3.0653211688	-0.3004828118	 0.07414
H	 1.8349815265	-0.3664045006	-0.6557614635	 0.10436
H	 1.9440822377	-0.8818989715	 1.0249467641	 0.10559
H	-0.7426350543	-3.1054885797	 1.4496578116	 0.083328
143.7595	195.064	253.7707	373.2916	412.4967	491.1104	575.218	605.7162	730.7768	755.5849	775.7508	818.8139	875.5256	909.9283	933.9326	949.3655	971.9592	979.5746	1028.3935	1029.4362	1040.5371	1063.1148	1084.5219	1106.8412	1127.1893	1183.3526	1206.1883	1232.1546	1241.4356	1288.5051	1299.8235	1373.6134	1403.9265	1463.2277	1478.8032	1486.3107	1502.4115	1612.2187	2993.3063	3005.6264	3022.6945	3041.5988	3049.7573	3079.0828	3108.0825	3120.9969	3130.0286	3192.2042
CC1=C2CC3C(C1)C23	C[C]1[C]2C[C@H]3[C@@H](C1)[C@@H]23	
InChI=1S/C8H10/c1-4-2-6-7-3-5(4)8(6)7/h6-8H,2-3H2,1H3	InChI=1S/C8H10/c1-4-2-6-7-3-5(4)8(6)7/h6-8H,2-3H2,1H3/t6-,7+,8-/m1/s1
