17
gdb 41051	3.24632	2.14968	1.8996	1.4748	73.46	-0.2169	0.0538	0.2707	800.7275	0.138655	-380.721683	-380.715749	-380.714805	-380.751528	25.756	
C	 0.0048407327	 1.4986615655	 0.2275493701	-0.294845
C	 1.5115838427	 1.5840242796	-0.2390354214	-0.327615
C	 1.4361325988	 0.1065373105	-0.6632620138	 0.314752
C	 1.6307347778	-1.2889874519	-0.0181175044	-0.120001
N	 0.6414553655	-0.9227293403	 1.0282400072	-0.35654
C	 0.0542788947	-0.0298781136	-0.0122596977	 0.203758
C	-0.299746659	-0.8006836103	-1.2974886789	-0.117208
C	 0.8662778837	-1.7316059533	-1.3171660327	-0.046175
N	 0.9749881552	-0.4184255167	-2.0289520305	-0.213614
H	-0.1900001669	 1.7925454182	 1.2598779867	 0.116912
H	-0.6912009746	 2.0225001124	-0.4316402458	 0.115056
H	 1.7240161868	 2.2765080167	-1.0564254627	 0.12203
H	 2.2186322607	 1.7675640905	 0.5723865853	 0.124935
H	 2.5458128311	-1.8065273592	 0.2743147131	 0.07664
H	 0.0434770292	-1.6818889165	 1.354065694	 0.210694
H	-1.2382376235	-0.9737531033	-1.8133918851	 0.091818
H	 0.9022359048	-2.6681941382	-1.8590005935	 0.099402
188.7723	295.0761	412.5941	484.4107	571.1967	617.0508	668.9879	737.7722	747.0216	768.9694	787.9619	818.7562	845.0632	856.1689	879.2802	897.3366	945.2605	953.5499	1008.1233	1026.2366	1035.9798	1061.0342	1114.069	1126.5896	1151.5766	1183.9536	1204.3273	1224.4789	1239.9387	1249.2792	1267.0444	1283.3057	1300.6287	1324.2736	1342.845	1449.9181	1466.2885	3070.8325	3073.9953	3102.1911	3123.283	3139.5829	3165.828	3199.6509	3452.0158
C1CC23C4NC12C1C4N31	C1C[C@@]23[C@H]4N[C@@]12[C@@H]1[C@H]4N31	
InChI=1S/C7H8N2/c1-2-7-4-3-5(9(3)7)6(1,7)8-4/h3-5,8H,1-2H2	InChI=1S/C7H8N2/c1-2-7-4-3-5(9(3)7)6(1,7)8-4/h3-5,8H,1-2H2/t3-,4-,5-,6+,7+,9?/m0/s1
