20
gdb 36692	4.90252	0.72819	0.69715	4.4791	83.36	-0.2655	0.0387	0.3042	1625.1533	0.171843	-366.001713	-365.993052	-365.992107	-366.035875	32.415	
N	-0.1201346012	-1.1860287394	-0.1354904427	-0.306169
C	-0.0770206849	-0.0356951858	-0.0328512329	 0.257094
C	 0.0022453674	 1.4177125865	 0.0920679154	-0.340297
C	 1.4272629002	 1.9608692115	-0.1440168965	-0.205584
C	 1.4867084186	 3.4787081538	 0.0019950805	 0.021396
C	 1.3032649405	 4.1346977095	 1.4191731052	-0.256957
C	 2.6430297077	 4.8583098398	 1.235527266	-0.034601
C	 3.7445406146	 3.8570210988	 1.048193275	-0.275086
C	 2.8501356087	 4.1758742296	-0.1195441249	-0.075799
H	-0.697491796	 1.8660574335	-0.6232951266	 0.149346
H	-0.3494897556	 1.6990796022	 1.0915494046	 0.154353
H	 2.1124930648	 1.4797758959	 0.5614059705	 0.119093
H	 1.7586575515	 1.6720787616	-1.1480984485	 0.119463
H	 0.7761992464	 3.9327337842	-0.697903154	 0.075627
H	 0.4404873525	 4.802329074	 1.4640163442	 0.106329
H	 1.2556709409	 3.4484370237	 2.2730202275	 0.094745
H	 2.8417196559	 5.88557934	 1.5143206904	 0.089037
H	 4.7448778096	 4.2719529728	 0.9775977672	 0.114995
H	 3.7049040003	 2.8917064648	 1.5476351044	 0.106807
H	 3.2502758581	 4.5895858531	-1.0377162448	 0.086211
62.9107	90.7595	99.8073	197.3509	225.025	336.5563	392.2183	419.478	465.4534	566.0641	673.5811	759.1124	781.9866	802.1327	840.1571	894.0394	932.9338	949.0583	968.9921	993.101	1007.2293	1034.5703	1051.964	1065.5352	1085.2654	1096.1365	1127.9172	1146.2885	1197.774	1230.2006	1238.8633	1264.4679	1282.3265	1306.3134	1317.3689	1356.9541	1372.6487	1396.2605	1468.0466	1483.8685	1490.1283	1502.917	2361.4723	3032.9788	3035.9118	3036.9174	3045.9815	3069.5662	3093.0642	3106.4957	3109.9414	3174.956	3187.4848	3201.9941
N#CCCC1CC2CC12	N#CCC[C@H]1C[C@H]2C[C@@H]12	
InChI=1S/C8H11N/c9-3-1-2-6-4-7-5-8(6)7/h6-8H,1-2,4-5H2	InChI=1S/C8H11N/c9-3-1-2-6-4-7-5-8(6)7/h6-8H,1-2,4-5H2/t6-,7-,8-/m0/s1
