24
gdb 99520	1.98393	1.28861	0.97192	3.8632	89.19	-0.3074	0.0363	0.3438	1382.9481	0.21471	-368.449136	-368.437855	-368.436911	-368.485114	41.694	
C	-0.0351060136	 1.646789644	 0.0135668248	-0.396475
C	 0.0272231101	 0.1164642398	 0.01046516	-0.202645
C	-1.3701538355	-0.5511162728	-0.0188467835	-0.129779
C	-2.0884817886	-0.123870486	-1.2271011732	 0.292141
N	-2.6367294719	 0.2129457544	-2.1881212746	-0.353617
C	-1.3897266953	-2.1168334313	 0.10952054	 0.244581
C	-0.7122461851	-2.5318130573	 1.4286402363	-0.421926
C	-2.8570480494	-2.5864139234	 0.1446600541	-0.419939
C	-0.6693609117	-2.7817116766	-1.0770389122	-0.41709
H	 0.971828112	 2.0722439155	 0.0521150536	 0.118908
H	-0.5280317265	 2.0282534012	-0.8853431752	 0.146161
H	-0.5880176409	 2.0195354186	 0.8830319336	 0.116931
H	 0.6119705755	-0.2271406952	-0.8489014996	 0.118001
H	 0.5484364809	-0.2266148711	 0.9084063734	 0.10912
H	-1.9410451127	-0.1569525949	 0.8339505962	 0.115286
H	-1.1567990033	-2.0170435815	 2.2879598762	 0.111359
H	-0.8386048679	-3.6074835366	 1.5874155254	 0.117734
H	 0.3619603439	-2.3283756748	 1.4274828913	 0.118876
H	-3.3890118763	-2.317085552	-0.7720589488	 0.140754
H	-2.9039585799	-3.6744813533	 0.2540821437	 0.113809
H	-3.3950329244	-2.1431611469	 0.9902562795	 0.110619
H	 0.3936013954	-2.5237262707	-1.106262707	 0.115045
H	-0.7395471407	-3.8711561457	-0.995369923	 0.115129
H	-1.1174948742	-2.4878435835	-2.031143091	 0.137017
56.2165	80.6419	150.8848	182.3119	193.9743	222.9803	254.414	264.3515	278.1964	317.5991	320.6847	346.8806	407.9253	415.0947	456.7909	563.0782	578.2855	748.4124	784.4821	852.5935	932.2352	938.052	944.6149	949.6713	962.788	1029.263	1038.5562	1064.3223	1117.5162	1123.291	1212.4267	1243.8487	1252.5887	1282.8155	1319.8969	1351.1777	1364.9382	1400.3464	1403.7148	1415.4579	1434.4738	1480.6475	1485.5289	1487.6707	1489.4257	1498.686	1505.3752	1506.9795	1509.7278	1520.2424	2346.851	3008.8644	3029.1238	3032.3832	3036.4316	3038.8059	3054.0688	3090.7203	3094.9026	3099.853	3103.5391	3107.7076	3111.1684	3112.5716	3116.5816	3121.0936
CCC(C#N)C(C)(C)C	CC[C@@H](C#N)C(C)(C)C	
InChI=1S/C8H15N/c1-5-7(6-9)8(2,3)4/h7H,5H2,1-4H3	InChI=1S/C8H15N/c1-5-7(6-9)8(2,3)4/h7H,5H2,1-4H3/t7-/m0/s1
