17
gdb 90397	2.21818	1.55862	1.34862	1.1737	74.43	-0.2371	0.0354	0.2725	1038.8797	0.134109	-421.756359	-421.747759	-421.746815	-421.788988	33.646	
O	 0.1474798269	 1.3923371023	-0.2352941039	-0.438036
C	 0.0317815188	 0.0170143854	 0.0005497433	 0.055569
C	 0.2433922501	-0.5832811196	 1.4412015541	-0.289296
C	-1.1053170974	-1.2951056366	 1.306729177	-0.119728
C	-2.2178595865	-0.2582170019	 1.1445973371	-0.303389
C	-2.2043278965	 1.0310583969	 1.777262303	 0.321675
C	-2.1860557565	 2.1163135963	 2.3016473939	-0.451203
C	-1.3476510167	-0.6570079784	-0.044268799	 0.345728
O	-1.9050609956	-1.2489136419	-1.1580840497	-0.457451
H	-0.4203940814	 1.8462895951	 0.400553034	 0.28747
H	 0.6946773475	-0.4762961206	-0.7157236844	 0.102655
H	 1.0995724275	-1.2575646965	 1.4995375625	 0.110673
H	 0.3061769844	 0.1530238331	 2.2464595758	 0.112558
H	-1.3434961395	-2.2983444114	 1.635937038	 0.104684
H	-3.2003357138	-0.7169777924	 1.0674056923	 0.121458
H	-2.1867995267	 3.0655682426	 2.7781759598	 0.202527
H	-2.2589474647	-0.5537202826	-1.725085264	 0.294105
131.643	136.688	194.1197	236.7826	282.879	342.151	370.4206	411.534	457.6	483.0913	552.2396	581.2805	594.3203	658.5118	659.7956	753.6885	811.6351	829.2265	898.2834	944.5637	972.5545	1019.2167	1049.4439	1076.355	1115.9719	1154.3777	1183.0473	1217.0689	1225.5531	1281.7137	1307.9196	1319.8334	1333.2445	1442.9991	1457.6537	1492.0314	2216.3633	3067.6899	3079.6127	3125.7935	3147.3622	3200.0698	3499.2201	3761.453	3789.8886
OC1CC2C(C#C)C12O	O[C@H]1C[C@H]2[C@@H](C#C)[C@@]12O	
InChI=1S/C7H8O2/c1-2-4-5-3-6(8)7(4,5)9/h1,4-6,8-9H,3H2	InChI=1S/C7H8O2/c1-2-4-5-3-6(8)7(4,5)9/h1,4-6,8-9H,3H2/t4-,5+,6+,7+/m1/s1
