18
gdb 39886	3.96646	1.5356	1.41794	3.2083	75.13	-0.2319	0.0739	0.3058	956.3035	0.15001	-401.860671	-401.854275	-401.853331	-401.89118	26.967	
C	 0.0281182907	 1.5515045711	 0.0364343419	-0.302618
O	 1.1798241383	 0.6856673581	-0.0350874078	-0.292559
C	-0.0993266418	 0.0999821192	 0.0083151536	 0.545594
C	-0.5415956769	-0.9551926242	 1.0207294337	-0.116753
C	-2.077063877	-0.8854953138	 0.8304353017	-0.23014
C	-2.025093736	-1.3984836911	-0.6292188369	-0.065954
C	-1.3700128602	-2.7713767546	-0.3933721206	-0.162974
N	-0.1173157647	-2.0272376201	-0.0209565161	-0.153402
C	-0.5608858795	-0.9269623885	-1.0020467575	-0.10939
H	-0.0881499305	 2.0899921965	 0.9762216025	 0.117798
H	-0.1687431889	 2.1361291628	-0.8611492645	 0.117665
H	-0.1127912755	-1.0372072554	 2.0173083567	 0.087775
H	-2.6466935545	-1.5508318108	 1.4845004439	 0.100863
H	-2.4626286067	 0.1312772934	 0.9424270787	 0.101426
H	-2.8958225542	-1.2428202048	-1.2676746898	 0.066171
H	-1.7915201317	-3.4336624036	 0.3701439937	 0.09862
H	-1.1707356195	-3.3385783725	-1.3069599734	 0.110061
H	-0.2135986012	-0.9782103617	-2.0334885698	 0.087816
158.0766	245.2209	308.9847	429.6501	468.6595	484.7181	587.4848	687.0482	737.5112	812.0456	838.6524	854.2431	877.7443	890.0315	914.9712	944.3871	951.9001	963.8885	980.9836	1014.1943	1022.1127	1070.1416	1111.9151	1114.9806	1144.2449	1151.4721	1158.5682	1176.9663	1193.8194	1231.7551	1243.5745	1252.6813	1266.857	1289.5018	1303.6009	1464.2185	1496.3234	1517.173	1551.6192	3042.7975	3058.9623	3081.5181	3101.0445	3102.4036	3107.9852	3128.1985	3144.5705	3167.1854
C1OC11C2CC3CN2C13	C1O[C@]21[C@H]1C[C@@H]3CN1[C@H]23	
InChI=1S/C7H9NO/c1-4-2-8-5(1)7(3-9-7)6(4)8/h4-6H,1-3H2	InChI=1S/C7H9NO/c1-4-2-8-5(1)7(3-9-7)6(4)8/h4-6H,1-3H2/t4-,5-,6+,7-/m1/s1
