14
gdb 21654	6.95282	1.29588	1.10246	2.7175	59.76	-0.2067	0.0262	0.2329	1013.4282	0.109356	-412.062756	-412.055067	-412.054122	-412.095102	27.492	
N	-0.0289043947	 1.3279456248	 0.1254324195	-0.583879
C	 0.0177229786	-0.0510165925	 0.049470087	 0.383196
N	-1.0702074307	-0.8110287035	 0.0753004731	-0.301262
N	-0.5216647565	-2.0629025596	 0.0550454588	-0.221344
C	 0.8145190342	-1.9901105452	 0.0032017718	 0.377667
C	 1.692721331	-3.1985041164	-0.0223465251	-0.194044
O	 0.8547854186	-4.3303232089	-0.2017678342	-0.427438
N	 1.2048377347	-0.7263415446	-0.001718745	-0.37873
H	 0.7692220066	 1.7706295125	-0.3058478044	 0.255668
H	-0.9071678434	 1.7176570667	-0.184813403	 0.255136
H	-1.0953273867	-2.8887362746	 0.0460509376	 0.283554
H	 2.426320722	-3.0918887491	-0.8346428665	 0.126406
H	 2.2574950288	-3.2552559098	 0.9204476633	 0.124704
H	 1.3812249974	-5.1232111197	-0.0709253729	 0.300366
52.0628	171.2271	188.0589	221.7857	299.3469	350.2319	377.185	510.1462	539.5918	629.8892	674.9505	697.1557	772.2259	798.9295	1020.0273	1039.4573	1060.9903	1081.2418	1107.3899	1179.7281	1207.5715	1232.2834	1298.3669	1401.7192	1459.7744	1497.0865	1513.503	1578.8012	1599.6682	1648.3378	2988.9334	3017.6645	3571.2362	3676.6737	3687.3979	3851.2035
NC1=NNC(CO)=N1	Nc1n[nH]c(CO)n1	
InChI=1S/C3H6N4O/c4-3-5-2(1-8)6-7-3/h8H,1H2,(H3,4,5,6,7)	InChI=1S/C3H6N4O/c4-3-5-2(1-8)6-7-3/h8H,1H2,(H3,4,5,6,7)
