21
gdb 97945	4.80428	0.56106	0.5375	1.2409	88.88	-0.2397	0.0369	0.2766	2100.5691	0.181428	-387.043589	-387.033375	-387.032431	-387.081726	35.918	
O	 0.4097006143	 0.4367636323	-0.9465549657	-0.409974
C	-0.1290107617	 0.2238987861	 0.3543877187	-0.215304
C	-1.4786340179	-0.3137384649	 0.2469195567	 0.118497
C	-2.5993097002	-0.7486788465	 0.1783035346	 0.048008
C	-3.9406285952	-1.3149793302	 0.0825282923	-0.382584
C	-3.9448208393	-2.8430685363	-0.030775588	 0.069496
C	-3.5123817365	-3.6942670665	 1.1945082955	-0.212232
C	-4.6486751379	-4.694522685	 0.8478419462	-0.210256
C	-5.3115907416	-3.5831811072	-0.0106739516	-0.237995
H	 1.2975534079	 0.7911681779	-0.8329306112	 0.287669
H	 0.4951222749	-0.4788720469	 0.930843334	 0.112775
H	-0.1594501796	 1.1643504259	 0.929114211	 0.113388
H	-4.527695055	-1.017043524	 0.9625771457	 0.119762
H	-4.4574126154	-0.8823105855	-0.7853023652	 0.128328
H	-3.3675158832	-3.1379495851	-0.913132272	 0.083127
H	-2.4861545587	-4.0666626932	 1.2201843058	 0.099559
H	-3.7131930905	-3.1658239835	 2.132611946	 0.097207
H	-4.2866098151	-5.5205949231	 0.2291023892	 0.10271
H	-5.2291965179	-5.1108155503	 1.6742749403	 0.095565
H	-6.0576403522	-3.0228311415	 0.5636040789	 0.096119
H	-5.7537464793	-3.8655096426	-0.9693703412	 0.096137
8.664	53.5337	76.5007	126.9065	161.9122	219.2453	247.5535	307.2767	349.8892	381.8145	456.8491	555.7922	640.4318	753.6516	773.2178	795.5952	871.3865	900.7096	932.6388	962.8845	971.5852	1028.6219	1041.8952	1052.948	1105.0137	1132.2534	1151.9442	1198.4046	1216.3226	1246.7786	1255.3781	1257.423	1259.1243	1267.6015	1274.5284	1296.8201	1332.9529	1378.2152	1459.8168	1465.8793	1478.8491	1487.0377	1504.3226	1510.4161	2370.415	2959.103	2975.8866	3004.7434	3032.3879	3042.2273	3048.0725	3058.4252	3058.9303	3096.9744	3104.7829	3118.7578	3816.5912
OCC#CCC1CCC1	OCC#CCC1CCC1	
InChI=1S/C8H12O/c9-7-2-1-4-8-5-3-6-8/h8-9H,3-7H2	InChI=1S/C8H12O/c9-7-2-1-4-8-5-3-6-8/h8-9H,3-7H2
