16
gdb 44385	3.84724	1.59273	1.44864	3.7164	68.65	-0.2598	0.0245	0.2843	914.4565	0.126895	-437.852869	-437.846643	-437.845699	-437.883407	25.6	
N	 0.0293329865	 1.1791479162	 0.2331285145	-0.556009
C	-0.00236365	-0.0572694234	 0.0419376373	 0.455742
O	 1.0158194495	-0.9513483115	-0.2554336785	-0.267092
C	 0.078832542	-2.0609422512	-0.3425863123	 0.111613
C	 0.019537467	-2.9443127541	 0.9195783199	 0.032834
C	-1.4972247837	-3.2604112722	 1.0070084599	-0.236201
C	-1.4716974694	-1.748577833	 1.3569353333	 0.063316
O	-0.1690764175	-1.962021734	 1.9773676047	-0.280421
C	-1.0969533828	-1.1065178161	 0.0005917861	-0.192949
H	 0.9824703259	 1.5417674438	 0.1755555461	 0.230367
H	 0.1440775524	-2.5788403694	-1.2990770912	 0.099236
H	 0.81199735	-3.6660010283	 1.1105107188	 0.096468
H	-2.0314463038	-3.594168264	 0.1127513094	 0.104369
H	-1.7337115104	-3.8808528279	 1.8712798529	 0.125315
H	-2.1970176336	-1.2520581085	 1.9983069415	 0.102937
H	-1.9202831022	-0.9512171365	-0.6940744525	 0.110475
135.0174	242.1992	315.797	443.7873	463.2289	585.0105	638.4844	693.8113	798.8204	819.7061	853.541	867.8649	872.9874	882.4743	887.9629	946.6432	967.0388	985.5766	1008.7435	1015.1999	1030.934	1073.2306	1082.0384	1176.1456	1180.8953	1199.6411	1221.0555	1253.6315	1258.1573	1279.582	1289.3169	1329.8852	1338.4233	1485.725	1830.2618	3064.5295	3121.302	3138.7775	3142.8413	3148.2042	3153.4236	3478.5493
N=C1OC2C3CC(O3)C12	[NH][C]1O[C@H]2[C@@H]3C[C@@H](O3)[C@@H]12	
InChI=1S/C6H7NO2/c7-6-4-2-1-3(8-2)5(4)9-6/h2-5,7H,1H2	InChI=1S/C6H7NO2/c7-6-4-2-1-3(8-2)5(4)9-6/h2-5,7H,1H2/t2-,3+,4-,5+/m1/s1
