16
gdb 133594	3.15236	1.20586	1.05701	2.0562	61.94	-0.2497	0.0175	0.2672	1120.0731	0.122088	-532.279682	-532.271862	-532.270918	-532.312827	29.179	
F	 0.1010320237	 0.1395020775	-0.0608830145	-0.083677
C	-0.0283692902	 1.4757959754	 0.0298811319	 0.268183
F	 1.2082876934	 1.9980805276	-0.0393174137	-0.084804
F	-0.6970797154	 1.8830863873	-1.0627446601	-0.084804
C	-0.7354961473	 1.8918317209	 1.2996294554	-0.112787
C	-2.1737658683	 1.3133170921	 1.4131446877	-0.282726
C	-2.2831480772	 0.9637171487	 2.8769778178	-0.06264
C	-1.1123430275	 1.034378537	 3.5058504932	-0.062639
C	 0.0120686762	 1.4452381922	 2.5872185885	-0.282726
H	-0.7857448853	 2.9837304262	 1.2704924174	 0.107629
H	-2.9298308607	 2.0323223256	 1.0821995855	 0.116082
H	-2.2989534064	 0.4204196089	 0.7868908279	 0.126111
H	-3.219831346	 0.6565199553	 3.3280749658	 0.098301
H	-0.9455528139	 0.7937790897	 4.549654709	 0.098301
H	 0.6847070387	 0.6004917089	 2.3894996551	 0.126111
H	 0.6342205894	 2.2474226363	 2.9965529194	 0.116082
72.5909	79.9688	180.1221	260.4837	347.5827	389.9889	400.1639	503.5097	571.0865	602.7987	694.0643	728.1326	790.9517	815.2416	925.5293	949.3811	957.1106	981.5953	983.4537	1033.097	1087.9965	1131.8623	1144.8265	1167.4539	1198.6153	1225.117	1284.8663	1305.9078	1314.8544	1333.9362	1368.6621	1402.4859	1486.2329	1496.3877	1694.163	3029.4684	3029.9534	3063.0491	3071.0182	3086.3862	3187.8071	3212.7342
FC(F)(F)C1CC=CC1	FC(F)(F)[C@H]1CC=CC1	
InChI=1S/C6H7F3/c7-6(8,9)5-3-1-2-4-5/h1-2,5H,3-4H2	InChI=1S/C6H7F3/c7-6(8,9)5-3-1-2-4-5/h1-2,5H,3-4H2
