19
gdb 51550	4.9041	0.77633	0.74176	3.3023	77.58	-0.2493	-0.0249	0.2244	1550.1152	0.157128	-423.006476	-422.997443	-422.996499	-423.041575	32.534	
O	-0.3529269076	 0.1202773478	 0.0749391941	-0.237243
C	 0.1003799401	 1.2348174275	 0.0400658882	 0.160258
C	 1.515842969	 1.5746439243	-0.3905003265	-0.306423
C	 1.5307351744	 2.6607728002	-1.4444654169	-0.069624
O	 1.1741435836	 3.9821689181	-0.9962297878	-0.29141
C	 2.5001724484	 3.7625810938	-1.4455873236	 0.456516
C	 3.7679394689	 3.939806313	-0.6047933852	-0.311093
C	 4.5164669706	 4.285116254	-1.9286120284	-0.212185
C	 3.1428570891	 4.4636856582	-2.6441052107	-0.31356
H	-0.5085931571	 2.1183215285	 0.3322309352	 0.097007
H	 2.0542691652	 1.9342635422	 0.4957612371	 0.127167
H	 2.0019061145	 0.6632925696	-0.7522968957	 0.123262
H	 1.0779314849	 2.3853514459	-2.3989589384	 0.10293
H	 3.6821980641	 4.8002536178	 0.0650724749	 0.119221
H	 4.1238383768	 3.0811384813	-0.0297691937	 0.107222
H	 5.1711518735	 5.1571740897	-1.9046024343	 0.109387
H	 5.0793427062	 3.4343105445	-2.3184635006	 0.111093
H	 3.0135265673	 4.0061836788	-3.6277562615	 0.108223
H	 2.8343155481	 5.5118320548	-2.6982190463	 0.119253
47.7823	62.6569	99.0125	142.457	196.8376	267.9809	376.4434	414.8675	485.5103	517.62	565.5938	714.3086	779.6167	813.9114	823.1218	856.0329	908.3276	924.0905	957.3065	1004.6511	1028.4486	1047.5394	1091.5502	1114.9994	1143.2681	1169.8063	1205.9717	1223.2183	1227.7904	1245.0656	1267.2901	1277.7518	1294.667	1354.1203	1421.8312	1445.8381	1467.3759	1479.2699	1485.1724	1515.8589	1833.6425	2898.1543	3032.2022	3057.0472	3061.2396	3076.6955	3089.1345	3104.4796	3106.2943	3111.994	3135.2042
O=CCC1OC11CCC1	O=CC[C@H]1OC21CCC2	
InChI=1S/C7H10O2/c8-5-2-6-7(9-6)3-1-4-7/h5-6H,1-4H2	InChI=1S/C7H10O2/c8-5-2-6-7(9-6)3-1-4-7/h5-6H,1-4H2/t6-/m1/s1
