19
gdb 61291	3.86709	0.7638	0.73994	1.8257	77.26	-0.2457	-0.0294	0.2163	1560.4897	0.156069	-419.21981	-419.20927	-419.208326	-419.257011	36.029	
C	 0.3638920471	 1.3280342198	-0.4651640303	-0.344623
N	-0.1647811981	 0.0753462579	 0.0710216907	-0.075789
C	 0.5030259444	-0.3172891468	 1.3060758263	-0.27677
C	 1.9214946057	-0.6268483649	 1.0855395777	 0.275194
N	 3.0400379837	-0.8639238485	 0.9227782646	-0.30262
C	-1.6135363898	 0.1222908196	 0.2280893496	-0.243071
C	-2.3641352817	 0.0885226089	-1.1129261104	 0.363928
C	-1.8996980866	-0.9318316756	-2.1312797125	-0.467752
O	-3.3089982049	 0.8176133769	-1.298267834	-0.287158
H	 1.4370382389	 1.2308825817	-0.6467554486	 0.152641
H	-0.1232417021	 1.554910382	-1.4170807569	 0.138259
H	 0.1966378382	 2.1829507642	 0.2144323909	 0.109513
H	 0.4441647515	 0.4530568795	 2.0988634993	 0.134389
H	 0.0204359152	-1.2173081681	 1.7020671226	 0.154749
H	-1.93253485	-0.7696514189	 0.7842797866	 0.120646
H	-1.9693618926	 1.0058448369	 0.7841897315	 0.110402
H	-2.0139691367	-1.9414281965	-1.7185504165	 0.140041
H	-2.4940288732	-0.8391689752	-3.0405370558	 0.142179
H	-0.8354813591	-0.809944353	-2.3486370349	 0.155843
31.91	53.7633	81.1897	111.7007	130.1319	207.5495	243.7066	308.3255	357.631	380.9412	392.7188	421.9892	496.8237	537.5743	626.3566	783.4974	858.0533	878.3133	953.3362	998.4775	1017.5676	1061.3964	1067.2042	1150.5835	1170.1442	1207.1508	1233.421	1293.1131	1309.6856	1353.6427	1383.2285	1400.5937	1456.1369	1459.4431	1467.9036	1469.0468	1484.6149	1495.3058	1504.552	1820.168	2366.9194	2926.2278	2951.6845	2968.1864	3039.116	3043.9209	3067.8793	3083.4787	3110.5576	3128.0788	3161.2391
CN(CC#N)CC(C)=O	CN(CC#N)CC(=O)C	
InChI=1S/C6H10N2O/c1-6(9)5-8(2)4-3-7/h4-5H2,1-2H3	InChI=1S/C6H10N2O/c1-6(9)5-8(2)4-3-7/h4-5H2,1-2H3
