18
gdb 27540	4.24436	0.98724	0.85265	3.5794	80.87	-0.1849	0.0468	0.2317	1350.5726	0.1502	-398.130275	-398.121777	-398.120833	-398.163755	32.138	
N	 0.1890524444	 1.2588134817	-0.5288314137	-0.608286
C	 0.085614205	-0.1068836356	-0.196232928	 0.314502
C	-0.6876098749	-1.1348076757	-0.6864811819	-0.360774
C	-0.2996864676	-2.3339299406	-0.0010047372	 0.323462
C	 0.6931575417	-1.9839020879	 0.8839056297	-0.19829
N	 0.9186145459	-0.6299610541	 0.7587459964	-0.277866
C	-0.8361999551	-3.6967128456	-0.18880235	-0.09203
C	-2.2240080347	-3.9265547149	-0.67521676	-0.248067
N	-1.0816393099	-4.2322795749	-1.5496676144	-0.325336
H	-0.2352925903	 1.8606678031	 0.171524774	 0.244155
H	-0.2698483718	 1.4452883361	-1.4118116415	 0.247452
H	-1.4641934324	-1.0304912062	-1.4301014479	 0.082087
H	 1.2471926319	-2.581214478	 1.5896607685	 0.116425
H	 1.6557880037	-0.1100148811	 1.2020327088	 0.258366
H	-0.4104820305	-4.4390484448	 0.4826930256	 0.076992
H	-2.7848260032	-4.7934669266	-0.3352234653	 0.112109
H	-2.8320441268	-3.0507084402	-0.8864122182	 0.107976
H	-0.9513783955	-3.4769853448	-2.2195436851	 0.227123
66.0886	127.754	144.9224	158.6399	271.2278	362.4082	417.9224	434.2718	493.3378	592.1792	640.6147	678.0955	697.0149	727.8681	767.9738	811.3407	826.8143	878.3145	962.0466	974.2643	995.8733	1008.6772	1091.3129	1123.3169	1140.4261	1153.0125	1170.8849	1202.8696	1244.5197	1272.3533	1301.2238	1335.1815	1403.7705	1430.8361	1481.7583	1509.6735	1567.1085	1630.9393	1657.0539	3102.9241	3128.3303	3187.6429	3232.6187	3263.8879	3490.0737	3491.154	3598.4446	3681.0356
NC1=CC(=CN1)C1CN1	Nc1cc(c[nH]1)[C@H]1CN1	
InChI=1S/C6H9N3/c7-6-1-4(2-9-6)5-3-8-5/h1-2,5,8-9H,3,7H2	InChI=1S/C6H9N3/c7-6-1-4(2-9-6)5-3-8-5/h1-2,5,8-9H,3,7H2/t5-/m1/s1
