18
gdb 71404	4.00395	1.32621	1.27037	0.3828	75.95	-0.2469	0.0755	0.3224	1057.8313	0.147708	-401.872044	-401.864571	-401.863627	-401.903645	29.717	
C	 0.0077127238	 1.4325674145	 0.0221156955	-0.496746
C	 0.0912986556	-0.0588926688	-0.0838374479	 0.332811
C	-0.5337614055	-0.9480489133	-1.1551895721	-0.288518
C	-0.406490919	-2.05686836	-0.095453515	-0.131202
N	-0.3496488179	-0.9682906504	 1.0307857072	-0.195516
C	 1.1190866533	-0.8670986725	 0.6512808645	-0.219569
C	 1.0899530943	-2.2531466512	 0.0878865732	 0.538411
C	 1.8356014968	-3.4401886902	 0.4830811567	-0.285691
O	 1.989378876	-2.8482065977	-0.82480859	-0.287334
H	 0.6432773594	 1.912269693	-0.7304429886	 0.127162
H	-1.0205133236	 1.7769708715	-0.1292505236	 0.126823
H	 0.3351321738	 1.77044483	 1.0100693896	 0.130917
H	-1.5777190358	-0.6676390352	-1.3208268232	 0.107589
H	-0.0229557636	-1.0883616597	-2.1127188233	 0.112617
H	-1.1128784046	-2.8806301338	-0.0197427705	 0.089272
H	 1.847133787	-0.4197356945	 1.318058982	 0.098338
H	 2.7010835806	-3.3474400033	 1.137737322	 0.120913
H	 1.3438201393	-4.4119004484	 0.4981944833	 0.119726
134.3763	188.5373	218.361	260.0386	322.9781	381.6388	454.9972	492.4625	600.2167	637.9886	750.6683	781.3175	793.4508	860.6514	892.8464	912.3124	937.7647	962.6047	993.7063	1000.6805	1018.4311	1045.1879	1082.5303	1116.3699	1143.9825	1163.6002	1171.8907	1191.4111	1212.0456	1249.897	1270.3871	1312.5775	1383.8426	1421.8317	1470.438	1482.7605	1492.3117	1497.7095	1553.0332	3032.1624	3049.9206	3082.3662	3098.2937	3106.4119	3109.5092	3145.0248	3169.1562	3185.8299
CC12CC3N1C2C31CO1	C[C@]12C[C@@H]3N1[C@H]2[C@]13CO1	
InChI=1S/C7H9NO/c1-6-2-4-7(3-9-7)5(6)8(4)6/h4-5H,2-3H2,1H3	InChI=1S/C7H9NO/c1-6-2-4-7(3-9-7)5(6)8(4)6/h4-5H,2-3H2,1H3/t4-,5+,6+,7+,8?/m0/s1
