18
gdb 45229	3.42075	1.68492	1.51378	3.1861	76.03	-0.2501	0.0256	0.2757	924.5335	0.152317	-401.958799	-401.952676	-401.951732	-401.989086	26.274	
N	-0.0488270522	 1.3117306652	-0.2734782598	-0.564825
C	-0.0139911946	 0.0738721092	-0.0265721511	 0.405573
O	 1.1268319916	-0.6787061387	 0.1371831613	-0.255774
C	 0.6921095991	-1.9893541356	 0.5738492639	 0.090422
C	 0.0647594427	-1.8095296567	 1.9818977599	-0.232894
C	-1.3827249186	-1.5800780504	 1.506682433	-0.042498
C	-1.6256791713	-2.8878307727	 0.702663704	-0.244942
C	-0.5880391702	-2.2705195755	-0.2605258181	-0.045466
C	-1.1692404426	-0.8711636408	 0.1006705589	-0.096291
H	 0.8985601469	 1.6924977539	-0.3214492828	 0.219507
H	 1.536457001	-2.6690420382	 0.478996341	 0.087797
H	 0.1481473517	-2.699222215	 2.6124410406	 0.102421
H	 0.5218351223	-0.9641449068	 2.5004576316	 0.116941
H	-2.1048865981	-1.1925481715	 2.2232077238	 0.07851
H	-1.3986582623	-3.8392248721	 1.1925119164	 0.094969
H	-2.6175296879	-2.9301066156	 0.2467025234	 0.108293
H	-0.4472604716	-2.5952603956	-1.2908079017	 0.079632
H	-2.0864744859	-0.5538392433	-0.3880389043	 0.098625
151.0485	300.7068	384.8394	453.5377	496.7122	572.0255	619.0212	666.215	780.7671	828.3737	835.0328	861.5951	880.9295	897.0837	904.2768	914.3735	954.5891	966.8235	974.9008	1000.2719	1021.4563	1061.8224	1067.5314	1097.0803	1118.4902	1163.5774	1182.0331	1199.2891	1230.4515	1249.5069	1267.9298	1272.2755	1302.405	1316.7778	1334.208	1372.4011	1491.1701	1511.5672	1783.4938	3052.9814	3062.2992	3113.8518	3117.1426	3124.3966	3132.8864	3143.4617	3162.7551	3462.9644
N=C1OC2CC3CC2C13	[NH][C]1O[C@H]2C[C@@H]3C[C@H]2[C@H]13	
InChI=1S/C7H9NO/c8-7-6-3-1-4(6)5(2-3)9-7/h3-6,8H,1-2H2	InChI=1S/C7H9NO/c8-7-6-3-1-4(6)5(2-3)9-7/h3-6,8H,1-2H2/t3-,4+,5-,6+/m0/s1
