18
gdb 121426	3.18932	0.85891	0.71203	4.2417	72.51	-0.2385	-0.0421	0.1964	1558.82	0.147358	-472.444734	-472.434643	-472.433699	-472.480882	35.527	
N	-0.352824648	 1.3256354818	-0.3078010562	-0.549515
C	 0.1438437907	 0.1619420172	 0.1674915234	 0.25977
N	 1.2968173393	-0.1059078941	 0.6571667542	-0.329966
C	 2.2856235424	 0.9528469674	 0.7751366643	-0.164859
C	 3.6177867277	 0.385785951	 1.2855016254	-0.149403
N	 4.2380921348	-0.6228738068	 0.4311062005	-0.494096
H	 3.5574034723	-1.3554637079	 0.2482792187	 0.229735
H	 4.4605763208	-0.2173140794	-0.4745074571	 0.220162
H	 0.5718677453	-1.8934628322	 0.8357384334	 0.306409
C	-0.8427161045	-0.9951998396	 0.0821297322	 0.436496
O	-0.3386807018	-2.1316101032	 0.5475076685	-0.365038
O	-1.9562591907	-0.864715284	-0.3596076443	-0.354244
H	 0.1379386212	 2.1957204749	-0.2115250214	 0.270115
H	-1.3183793433	 1.3221971205	-0.5976721089	 0.284259
H	 2.4480339554	 1.4394952117	-0.2028235957	 0.090456
H	 1.9286770384	 1.7380231195	 1.4640993176	 0.096678
H	 4.3263072783	 1.2097858719	 1.428005966	 0.100688
H	 3.4459222918	-0.0616157386	 2.2716524094	 0.112353
36.8778	87.3921	97.3888	133.9149	180.241	217.7294	266.5384	289.8113	336.2573	408.6473	467.63	526.0591	560.3472	614.5419	669.3706	797.1058	817.8395	824.4362	849.5145	889.6065	907.7815	1004.8912	1053.9293	1122.2577	1144.9867	1194.9079	1234.577	1267.118	1350.2339	1375.7908	1388.344	1396.7158	1465.0195	1472.1237	1481.8608	1601.5647	1664.9551	1742.9584	1862.6398	2940.3695	2972.9203	3036.158	3077.6686	3469.8644	3479.3597	3557.6145	3601.2593	3743.7167
NC(=NCC[NH3+])C([O-])=O	NC(=NCCN)C(=O)O	
InChI=1S/C4H9N3O2/c5-1-2-7-3(6)4(8)9/h1-2,5H2,(H2,6,7)(H,8,9)	InChI=1S/C4H9N3O2/c5-1-2-7-3(6)4(8)9/h1-2,5H2,(H2,6,7)(H,8,9)
