21
gdb 61821	2.91186	0.89952	0.74904	4.2886	79.92	-0.2407	-0.0135	0.2273	1534.2835	0.179526	-424.219483	-424.209167	-424.208223	-424.255658	37.098	
C	-0.2475917986	 1.4227967851	 0.1635383876	-0.399555
C	 0.0667502888	-0.0657830652	-0.0426273835	 0.0045
C	 0.8495920969	-0.3086017363	-1.3535778044	-0.27843
C	 0.0422157431	 0.0403734353	-2.5803363035	 0.155687
O	 0.3988080451	 0.7710550352	-3.4692134149	-0.246087
C	 0.8336149218	-0.6302365033	 1.1404136988	-0.007284
C	 0.0931341355	-1.1308483974	 2.3662695331	-0.34562
C	 0.7982993237	-2.0984126671	 1.4471429857	 0.08505
O	 0.0481051556	-2.8989155171	 0.5767258811	-0.419597
H	 0.6745993041	 2.010441158	 0.2400525723	 0.118088
H	-0.82740413	 1.831060588	-0.6706603856	 0.122217
H	-0.8206561523	 1.5771375612	 1.0827417377	 0.117002
H	-0.8770376002	-0.6183978649	-0.120956807	 0.085875
H	 1.7878967864	 0.2554132034	-1.3758084392	 0.109939
H	 1.0841777397	-1.3797241675	-1.416309509	 0.136915
H	-0.9591802349	-0.4532595237	-2.616155088	 0.068561
H	 1.7856360549	-0.1371748684	 1.3254203674	 0.086806
H	 0.5038874996	-0.9444706064	 3.3526562712	 0.112545
H	-0.9915419283	-1.1219870448	 2.316196382	 0.114518
H	 1.7165753932	-2.5612778296	 1.8080879321	 0.087909
H	-0.377707664	-3.5890132945	 1.095382036	 0.290961
54.4008	65.4289	81.9281	135.8797	196.306	238.5246	253.7132	292.0744	327.1482	378.7975	401.4329	450.7496	542.9112	601.8179	758.1614	786.9457	832.8215	860.2136	909.4125	950.8972	988.7108	1005.5129	1011.1865	1041.8148	1064.3868	1121.9412	1138.9823	1155.0787	1174.2599	1189.0358	1229.9372	1238.3582	1271.3605	1299.5694	1323.8851	1363.9011	1403.1816	1413.7388	1426.986	1432.8583	1459.6082	1488.9501	1494.2247	1501.7543	1832.7519	2839.9014	3026.4509	3030.3785	3038.0215	3090.8099	3097.1481	3098.4225	3108.1045	3125.7912	3130.9749	3214.773	3810.6586
CC(CC=O)C1CC1O	C[C@@H](CC=O)[C@H]1C[C@H]1O	
InChI=1S/C7H12O2/c1-5(2-3-8)6-4-7(6)9/h3,5-7,9H,2,4H2,1H3	InChI=1S/C7H12O2/c1-5(2-3-8)6-4-7(6)9/h3,5-7,9H,2,4H2,1H3/t5-,6+,7+/m0/s1
