17
gdb 25013	4.21159	1.0568	0.90554	3.9082	77.53	-0.1865	0.0319	0.2183	1279.5155	0.136913	-418.018357	-418.010153	-418.009209	-418.051686	30.851	
N	-0.0865694875	 1.2882193666	-0.1254602025	-0.611759
C	-0.0096798427	 0.0253353208	-0.0484467302	 0.469441
N	-1.0478037871	-0.8697490912	-0.2049473496	-0.412996
C	-0.5875350333	-2.181374514	-0.0506698767	 0.34852
C	 0.7258837897	-2.0757854327	 0.1976237169	-0.166265
O	 1.1082336426	-0.7403082345	 0.2052370378	-0.215101
C	-1.4432595401	-3.3686931511	-0.1571774854	-0.090301
C	-2.8793929163	-3.3530342015	 0.3303270921	-0.276786
C	-2.5938610778	-3.4264207383	-1.1436920351	-0.276708
H	 0.8238308582	 1.7122692442	 0.0296290832	 0.223308
H	-1.9842147203	-0.566303177	-0.3991374318	 0.271753
H	 1.4955777653	-2.8031373097	 0.3823073977	 0.14465
H	-0.89649554	-4.2928000271	-0.0051950005	 0.099441
H	-3.248158857	-4.2398177976	 0.8328422718	 0.126005
H	-3.2643082546	-2.4238548945	 0.7365120061	 0.12036
H	-2.7823004974	-2.5475843856	-1.7508597675	 0.120436
H	-2.7653377515	-4.363879857	-1.6600786962	 0.126002
70.7278	97.4588	152.1231	161.8466	323.959	373.123	420.651	481.3315	597.056	638.2511	684.6297	710.533	744.0379	751.3181	787.7511	821.3775	906.0465	907.2925	927.6887	1008.9652	1055.0192	1061.8815	1075.1051	1077.0672	1100.508	1124.935	1199.7234	1205.5096	1227.9305	1274.9776	1346.6575	1407.0041	1442.8423	1474.0262	1504.4492	1711.398	1790.748	3136.812	3141.1531	3171.5009	3215.7437	3231.3592	3302.9698	3543.543	3708.8475
N=C1NC(=CO1)C1CC1	[NH][C@@H]1NC(=CO1)C1CC1	
InChI=1S/C6H8N2O/c7-6-8-5(3-9-6)4-1-2-4/h3-4H,1-2H2,(H2,7,8)	InChI=1S/C6H9N2O/c7-6-8-5(3-9-6)4-1-2-4/h3-4,6-8H,1-2H2/t6-/m1/s1
