18
gdb 12381	2.97685	2.0298	1.29873	2.796	67.84	-0.2315	-0.021	0.2105	949.1463	0.154233	-384.967402	-384.95962	-384.958676	-384.999553	29.111	
C	 0.0025367524	 1.5762535774	-0.0068406365	-0.400204
C	 0.0984494193	 0.0518420326	 0.0106792725	-0.090188
C	 0.7475901872	-0.543214356	-1.2571249624	-0.209092
C	 0.9412830677	-2.0510620052	-1.1199517834	-0.081425
O	 1.7554395823	-2.3588146404	-0.0003343833	-0.240021
C	 1.1702752119	-1.9605851377	 1.2250294416	-0.17345
C	 0.8023122152	-0.4741488154	 1.2608813553	 0.376411
O	 1.0223999606	 0.2056372772	 2.2354508014	-0.303824
H	 0.9974024981	 2.0269399904	-0.078869772	 0.125635
H	-0.5884181804	 1.91452759	-0.8634487809	 0.109095
H	-0.4598761318	 1.9487699408	 0.9093516722	 0.135123
H	-0.9189787598	-0.3706081054	 0.0757007082	 0.099136
H	 0.1289223395	-0.3186211256	-2.1339618915	 0.101965
H	 1.7261328014	-0.0756891718	-1.421597893	 0.114635
H	-0.0362969561	-2.5573766966	-1.0314461491	 0.086182
H	 1.456216266	-2.4654905607	-1.9910635471	 0.113719
H	 0.2519485691	-2.5434852858	 1.4287749767	 0.10224
H	 1.8905684475	-2.1658537477	 2.0191130315	 0.134063
77.9582	153.9018	187.5334	271.8846	322.7613	336.8208	383.1205	443.7194	506.7579	576.5013	664.3493	726.5851	857.36	877.3563	931.6806	971.1415	985.5886	1012.7774	1066.282	1128.9232	1146.1012	1176.5554	1182.0862	1211.0173	1264.3019	1300.1066	1322.595	1345.0109	1360.9321	1381.635	1408.2334	1410.8848	1469.0011	1481.679	1490.3747	1496.2742	1499.6866	1817.5944	2931.5934	2953.5053	2968.8518	3029.6553	3044.0523	3073.937	3090.3529	3109.8245	3118.7212	3132.942
CC1CCOCC1=O	C[C@H]1CCOCC1=O	
InChI=1S/C6H10O2/c1-5-2-3-8-4-6(5)7/h5H,2-4H2,1H3	InChI=1S/C6H10O2/c1-5-2-3-8-4-6(5)7/h5H,2-4H2,1H3/t5-/m0/s1
