18
gdb 113688	3.71278	0.93069	0.77821	3.2804	70.72	-0.26	0.0254	0.2854	1457.8262	0.146108	-476.223748	-476.213946	-476.213002	-476.259511	33.721	
C	 0.3397197907	 1.232062008	 0.1320643725	-0.23186
O	-0.0153064565	-0.130240855	-0.1343074673	-0.238547
C	 0.5184116673	-0.6415160841	-1.2602585803	 0.483236
O	 1.2679134317	-0.051271567	-2.0011851981	-0.399659
N	 0.0274519995	-1.91556307	-1.5042273282	-0.146407
C	 0.0407432321	-3.0167065952	-0.5596149335	-0.257659
C	 0.9069129284	-3.0396705725	-1.7841009887	-0.026325
C	 0.5791843627	-3.825182847	-3.0289300049	-0.064449
O	 1.0829936316	-3.179535218	-4.1814605196	-0.41845
H	 1.4220138331	 1.3362464195	 0.2413572447	 0.141552
H	 0.0039092378	 1.8830835073	-0.6788974527	 0.143613
H	-0.1651374293	 1.4910604273	 1.0628172968	 0.134317
H	 0.5260462797	-2.856722086	 0.3990767056	 0.135218
H	-0.8697774615	-3.6085757458	-0.5216996076	 0.12876
H	 1.9691969731	-2.854812726	-1.631420129	 0.117632
H	 1.0531273729	-4.8121286356	-2.9920493427	 0.112287
H	-0.5110735093	-3.9742592398	-3.0820928901	 0.091393
H	 0.822266056	-2.25209372	-4.1263023169	 0.29535
60.3396	75.0506	105.3784	115.631	141.2386	206.9714	257.1361	324.1194	366.9296	395.7307	450.6396	545.2706	616.6069	799.5815	830.3464	834.2764	911.8182	974.6153	1026.0118	1068.0066	1085.6994	1096.9428	1136.9664	1148.8379	1176.4226	1182.1566	1215.8051	1229.7884	1245.0934	1347.3541	1371.7807	1420.2784	1460.6971	1479.4871	1481.8714	1499.401	1500.6849	1515.2381	1805.9281	2980.9257	3052.8112	3071.3867	3112.8014	3128.3674	3132.8529	3158.9277	3201.786	3788.2239
COC(=O)N1CC1CO	COC(=O)N1C[C@H]1CO	
InChI=1S/C5H9NO3/c1-9-5(8)6-2-4(6)3-7/h4,7H,2-3H2,1H3	InChI=1S/C5H9NO3/c1-9-5(8)6-2-4(6)3-7/h4,7H,2-3H2,1H3/t4-,6?/m0/s1
