19
gdb 95010	2.91464	1.66405	1.35257	3.2324	73.88	-0.2288	0.0616	0.2904	991.1448	0.161366	-422.966173	-422.95903	-422.958086	-422.997476	29.365	
O	-0.0494541157	 1.4502242168	-0.0648596869	-0.436958
C	 0.0746869613	 0.0286448354	 0.0201734897	 0.07906
C	 0.79766298	-0.4155595278	 1.2977790506	-0.238292
C	-0.1175657705	-0.2726164628	 2.5219470726	-0.243062
C	-1.5308607887	-0.7373733646	 2.1790661648	 0.003105
C	-1.7673069543	-1.6726650784	 0.952733496	 0.007952
O	-3.1609599713	-1.193966335	 0.8870657044	-0.316759
C	-2.3315075828	 0.0173299649	 1.0846033766	 0.058755
C	-1.3525195691	-0.5082174933	 0.0050655401	 0.003203
H	 0.8364876115	 1.8219412982	-0.1253242721	 0.282156
H	 0.6200870168	-0.3515380414	-0.8574310421	 0.063557
H	 1.0812920478	-1.4691453266	 1.1768543512	 0.101008
H	 1.7309728901	 0.1464493349	 1.4220356038	 0.084087
H	 0.2802921941	-0.8532848225	 3.3609985777	 0.099305
H	-0.1535918122	 0.7716226603	 2.8540693495	 0.110868
H	-2.1439646368	-1.0018370089	 3.0430416107	 0.078187
H	-1.6032149302	-2.746235402	 0.8461634389	 0.085877
H	-2.8405708248	 0.9791251094	 1.1360515422	 0.095132
H	-1.7978562952	-0.5656075567	-0.9892283178	 0.082819
135.6636	182.6366	301.2806	304.4893	373.3207	433.9746	471.6045	534.0903	614.4771	720.9974	739.7855	789.073	842.2733	861.6526	881.6329	894.1203	915.7969	968.8697	996.8076	1018.5928	1036.6611	1063.9021	1086.491	1106.2941	1148.2171	1154.568	1184.469	1186.8709	1202.0133	1230.7798	1253.9499	1264.1788	1275.9571	1321.6082	1356.5007	1367.5774	1381.8515	1411.0365	1431.7309	1479.5435	1493.4766	2974.0076	3022.3005	3035.1338	3058.1276	3075.352	3094.4947	3101.9589	3109.5526	3129.0608	3812.6839
OC1CCC2C3OC2C13	O[C@H]1CC[C@@H]2[C@H]3O[C@@H]2[C@@H]13	
InChI=1S/C7H10O2/c8-4-2-1-3-6-5(4)7(3)9-6/h3-8H,1-2H2	InChI=1S/C7H10O2/c8-4-2-1-3-6-5(4)7(3)9-6/h3-8H,1-2H2/t3-,4-,5+,6-,7+/m0/s1
