21
gdb 84793	2.6466	1.30888	1.10043	2.4553	83.46	-0.2366	-0.0101	0.2265	1209.4786	0.181718	-387.128584	-387.119182	-387.118237	-387.163073	34.971	
C	 0.2642276269	 1.6586230407	-0.2678412465	-0.392586
C	-0.0282996709	 0.213886608	 0.1785600124	-0.044014
C	-0.0780697755	-0.7235825184	-1.0092242379	-0.063133
C	 0.9668789512	-1.5454277328	-1.063055579	-0.071598
C	 1.9073949045	-1.3479559402	 0.0988490432	-0.272516
C	 1.091746182	-0.4593075976	 1.0672680566	-0.10319
C	 1.9234915198	 0.5527734587	 1.8447940854	 0.383123
C	 1.3434105882	 1.0206852912	 3.1681721465	-0.478741
O	 2.982051504	 0.9721059514	 1.432689999	-0.311531
H	 1.2456432873	 1.7324399916	-0.7442235691	 0.138687
H	-0.489659227	 1.9897319446	-0.98941803	 0.110457
H	 0.2441119221	 2.3583494564	 0.5742451284	 0.113132
H	-0.9789143179	 0.2151403237	 0.7262082306	 0.075728
H	-0.86194962	-0.6498325422	-1.7560551071	 0.090454
H	 1.1616373058	-2.2595510297	-1.8557788025	 0.093353
H	 2.2101587111	-2.2895537181	 0.5708138711	 0.101918
H	 2.8293715121	-0.8387413733	-0.2068757753	 0.133908
H	 0.5725291873	-1.0992725782	 1.7891540206	 0.07968
H	 1.3773243642	 0.1958811644	 3.89043714	 0.14108
H	 1.9190204651	 1.8619612081	 3.5560773492	 0.139962
H	 0.2897821898	 1.3001001417	 3.0598016547	 0.135826
60.5242	79.1473	146.1387	167.3121	224.4602	247.8214	290.0044	345.4858	371.4921	476.521	570.774	593.6389	674.2003	726.449	758.7142	776.9803	873.8555	926.4578	946.4717	960.2005	974.2317	991.0464	1004.9848	1026.279	1081.1231	1098.5883	1116.6203	1136.0584	1170.5709	1195.1722	1270.824	1299.1758	1316.9873	1348.1625	1357.4534	1370.9809	1386.0745	1413.4053	1462.9985	1475.7845	1491.4651	1492.6019	1499.6513	1691.4563	1804.408	3016.773	3032.23	3033.7886	3034.9995	3043.8511	3068.6953	3093.174	3098.4823	3120.2088	3150.8926	3176.29	3202.9766
CC1C=CCC1C(C)=O	C[C@H]1C=CC[C@H]1C(=O)C	
InChI=1S/C8H12O/c1-6-4-3-5-8(6)7(2)9/h3-4,6,8H,5H2,1-2H3	InChI=1S/C8H12O/c1-6-4-3-5-8(6)7(2)9/h3-4,6,8H,5H2,1-2H3/t6-,8+/m0/s1
