20
gdb 83404	2.67758	1.33244	1.11841	3.8487	80.6	-0.2308	-0.0232	0.2076	1193.4022	0.169576	-403.126904	-403.11771	-403.116766	-403.160973	34.33	
C	-0.0502348288	 1.627012291	 0.2706845459	-0.431146
C	 0.0365477967	 0.1195954532	 0.204948784	-0.006604
N	 1.1293278711	-0.6423328363	-0.4025406015	-0.167403
C	 2.4213781108	 0.0546580106	-0.0574834406	-0.151881
C	 2.1926436539	-0.0976465018	 1.4645022619	-0.335843
C	 0.8463089457	-0.7389455877	 1.1196983219	 0.205863
C	 0.2434136902	-1.974937064	 1.706876855	 0.306563
C	 0.8811484559	-2.5215652221	 2.9706999399	-0.493904
O	-0.7179313288	-2.5042950054	 1.1921856845	-0.306391
H	 0.836924026	 2.1029092405	 0.6934759235	 0.122273
H	-0.2112987247	 2.0403586088	-0.7309690541	 0.133468
H	-0.9065044017	 1.9148504984	 0.8885966621	 0.130498
H	-0.9043886621	-0.3632162248	-0.0493890642	 0.124245
H	 3.2573695023	-0.5351692723	-0.4364223583	 0.116485
H	 2.4987124991	 1.0701103884	-0.4558166512	 0.109804
H	 2.8955139225	-0.7952862677	 1.9222967731	 0.113953
H	 2.1604905026	 0.8099165821	 2.0752559667	 0.106127
H	 1.8767587485	-2.9228854539	 2.7477086457	 0.144915
H	 1.0158604188	-1.7324083593	 3.7187899359	 0.135108
H	 0.257247002	-3.3191083776	 3.3752508998	 0.143869
51.1398	151.549	163.5564	170.0787	196.9805	262.5441	295.866	355.5102	408.5113	478.5483	555.9897	593.6431	622.6198	728.6007	750.5996	794.6237	845.3014	920.4398	940.3467	970.1287	984.2456	1035.1906	1038.5604	1099.0397	1115.4448	1119.3804	1185.0063	1198.6745	1221.695	1251.0055	1277.3451	1320.6466	1325.1301	1380.4401	1407.9336	1439.4288	1461.959	1474.3047	1482.1634	1498.3411	1502.8872	1519.0311	1789.3538	3033.8999	3041.836	3051.4742	3065.3176	3093.716	3101.9391	3109.4909	3122.9091	3127.5676	3150.1694	3153.312
CC1N2CCC12C(C)=O	C[C@H]1N2CC[C@@]12C(=O)C	
InChI=1S/C7H11NO/c1-5-7(6(2)9)3-4-8(5)7/h5H,3-4H2,1-2H3	InChI=1S/C7H11NO/c1-5-7(6(2)9)3-4-8(5)7/h5H,3-4H2,1-2H3/t5-,7+,8?/m1/s1
