18
gdb 93436	2.89219	1.38001	0.97376	3.2921	74.25	-0.2725	-0.0157	0.2568	1191.3454	0.148224	-439.149494	-439.141086	-439.140142	-439.182997	31.468	
C	-0.1901484705	 1.5510177592	-0.0115919285	-0.393932
C	 0.0758170521	 0.0456042792	 0.0123913978	-0.070182
C	 0.8046450943	-0.4623175306	-1.239929442	-0.225803
C	 0.948618812	-1.9805582796	-1.1701867392	-0.348615
C	 1.513452511	-2.4810616376	 0.1435696916	 0.413291
O	 2.031726427	-3.5469069996	 0.2974011799	-0.298409
O	 1.4049961395	-1.6509225038	 1.2398223495	-0.241542
C	 0.8522039401	-0.3729557334	 1.2389314094	 0.409179
N	 1.0018744173	 0.3621944943	 2.2512587773	-0.489648
H	 0.7480889903	 2.1100130245	-0.0712530945	 0.128725
H	-0.8029799149	 1.8076576091	-0.8811779127	 0.109099
H	-0.706216127	 1.8715961277	 0.8942486682	 0.144852
H	-0.8896114862	-0.4822983822	 0.0637157318	 0.105526
H	 0.2489866966	-0.1767379256	-2.1378118298	 0.114364
H	 1.7905117728	 0.0135639486	-1.3106685316	 0.119065
H	-0.0347803556	-2.4569087795	-1.2816820304	 0.144738
H	 1.5799728847	-2.3890888865	-1.9623623922	 0.14505
H	 1.5474736064	-0.1204223942	 2.9678385254	 0.23424
51.7553	105.1716	201.045	214.8098	295.5543	331.8766	364.414	421.5391	471.3528	541.4516	579.5533	650.6814	697.7229	727.3175	837.0044	900.491	927.634	934.392	962.1876	1032.0966	1068.1145	1099.7369	1117.9195	1142.7412	1160.3926	1200.9414	1259.6035	1303.2147	1322.1353	1354.5243	1364.9591	1388.2417	1415.8517	1460.5483	1487.2728	1495.87	1502.3257	1759.9666	1869.9113	2986.6112	3030.8736	3039.3988	3048.5156	3088.7051	3111.4725	3115.9079	3145.1421	3473.8672
CC1CCC(=O)OC1=N	C[C@H]1CCC(=O)O[C]1[NH]	
InChI=1S/C6H9NO2/c1-4-2-3-5(8)9-6(4)7/h4,7H,2-3H2,1H3	InChI=1S/C6H9NO2/c1-4-2-3-5(8)9-6(4)7/h4,7H,2-3H2,1H3/t4-/m0/s1
