21
gdb 72501	2.49824	1.7376	1.43846	1.6782	76.42	-0.2422	0.0683	0.3105	1009.191	0.185412	-424.249857	-424.242184	-424.24124	-424.28133	31.899	
O	-0.0511467009	 1.3913716019	-0.037080254	-0.491354
C	 0.0253593961	-0.0206001221	 0.0173813471	 0.372737
C	 0.5669633159	-0.5580906921	 1.3632377668	-0.120896
O	-0.0487872466	-1.8334310249	 1.5591007268	-0.278411
C	-1.0148323067	-2.0443582969	 0.5095373276	 0.103838
C	-1.3795389559	-0.631982769	 0.0478638065	-0.247885
C	-0.370535041	-2.8284135225	-0.6447873043	-0.202899
C	 0.933747326	-2.1396809731	-1.0905628743	-0.204741
C	 0.7986030028	-0.6046663795	-1.1804480141	-0.259939
H	 0.8378482994	 1.7350503643	-0.1757486731	 0.275147
H	 1.6587088054	-0.6753991007	 1.3731648248	 0.087758
H	 0.2829323081	 0.131714144	 2.1692195023	 0.098915
H	-1.8537517591	-2.5956266852	 0.9434962242	 0.074156
H	-1.9985090478	-0.1123151149	 0.7849283961	 0.107515
H	-1.8812572366	-0.6030854667	-0.9221724371	 0.098933
H	-0.1558307698	-3.8544152792	-0.3287528777	 0.100609
H	-1.0895661877	-2.8907096891	-1.4717671662	 0.092549
H	 1.7123860145	-2.3844176483	-0.3606796414	 0.115359
H	 1.2734014682	-2.5425799673	-2.0500612108	 0.094117
H	 0.2715695117	-0.3089268841	-2.095417917	 0.102884
H	 1.7989702739	-0.1524192547	-1.2304337923	 0.081608
177.3449	230.9449	261.1228	278.8955	317.9282	392.8524	415.9909	445.6149	466.0199	545.6335	607.1226	722.3043	769.4044	818.2295	867.8793	890.5406	896.6459	931.8663	954.8892	974.0022	1000.0134	1040.3802	1049.2346	1059.8261	1103.0234	1138.6611	1150.3653	1181.3615	1199.3895	1230.0835	1247.7394	1284.2587	1301.4587	1324.3062	1337.0234	1348.9915	1365.3436	1375.7922	1390.6386	1413.8465	1477.1527	1482.0585	1491.9611	1502.8071	1529.0977	3001.6912	3008.4177	3026.4792	3041.1201	3043.8481	3056.7696	3059.5512	3071.2646	3077.4033	3088.479	3115.8529	3805.7211
OC12COC(C1)CCC2	O[C@@]12CO[C@@H](C1)CCC2	
InChI=1S/C7H12O2/c8-7-3-1-2-6(4-7)9-5-7/h6,8H,1-5H2	InChI=1S/C7H12O2/c8-7-3-1-2-6(4-7)9-5-7/h6,8H,1-5H2/t6-,7-/m1/s1
