19
gdb 30151	3.59028	1.19514	1.05304	3.9995	80.4	-0.2203	0.0301	0.2504	1192.6467	0.161422	-382.093299	-382.085203	-382.084259	-382.126485	30.748	
C	-0.4953532724	 1.3737483638	 0.1327151097	-0.41156
C	-0.0486652854	-0.0692881846	 0.0704163632	-0.000024
C	 1.3648007424	-0.4119676611	-0.3317705603	-0.315376
C	 0.9129800285	-0.65217531	 1.085678278	 0.001576
N	 1.4429452175	 0.1597690856	 2.1416467281	 0.020248
C	 0.7568189181	 0.5932191682	 3.2599024016	-0.127677
C	 1.6789412945	 1.2482859582	 4.03075236	-0.091764
N	 2.915776479	 1.2290689801	 3.4273572674	-0.276177
C	 2.7387062589	 0.5664184692	 2.3080420141	 0.003904
H	 0.2990921124	 2.0213975437	 0.5124433974	 0.137279
H	-0.7750264513	 1.7316949624	-0.8635501173	 0.123075
H	-1.3646752811	 1.4946953732	 0.7876690749	 0.121568
H	-0.8143429834	-0.7661602512	-0.2595869864	 0.093469
H	 1.5531140928	-1.2769787035	-0.9569946752	 0.122978
H	 2.0378510134	 0.4210340727	-0.5028887347	 0.12903
H	 0.7452285153	-1.6845181257	 1.3798830524	 0.111994
H	-0.2949565126	 0.3953693957	 3.3839065906	 0.123598
H	 1.523511088	 1.7369143508	 4.980823357	 0.106168
H	 3.4988843353	 0.3412797827	 1.5755300095	 0.12769
57.9287	103.0925	173.3487	218.3113	255.4442	352.6118	418.2951	528.09	620.9781	678.3591	689.83	736.3423	787.9046	825.6637	842.5884	857.3259	891.1113	915.7896	938.0869	1021.7041	1047.1161	1077.501	1086.984	1106.8484	1132.4894	1144.2362	1151.3249	1197.6064	1212.4583	1273.1029	1299.8275	1348.9192	1377.2209	1395.0448	1422.7667	1429.5495	1488.2598	1491.5714	1504.3702	1528.3708	1543.6507	3037.345	3097.3503	3116.7897	3135.4351	3141.2265	3149.0905	3227.6679	3245.27	3255.2115	3278.7386
CC1CC1N1C=CN=C1	C[C@H]1C[C@H]1n1ccnc1	
InChI=1S/C7H10N2/c1-6-4-7(6)9-3-2-8-5-9/h2-3,5-7H,4H2,1H3	InChI=1S/C7H10N2/c1-6-4-7(6)9-3-2-8-5-9/h2-3,5-7H,4H2,1H3/t6-,7+/m0/s1
