21
gdb 91336	2.69828	1.44103	1.13772	1.3824	77.49	-0.2519	0.0733	0.3253	1132.6838	0.183996	-424.224439	-424.216177	-424.215233	-424.256665	33.811	
O	-0.1710480291	 1.4625958328	 0.1626880864	-0.442756
C	 0.0112235841	 0.0591796404	 0.0135158647	 0.130293
C	 0.8339752591	-0.5626794321	 1.1676995408	-0.243182
C	 0.4529031984	-2.0355841788	 1.3888334153	-0.022835
C	-0.0145269597	-2.7065021195	 0.0595840229	-0.269137
C	-1.3868749522	-2.045587054	 0.3373668492	 0.422331
O	-2.4952366079	-2.7664994659	-0.1414652057	-0.488273
C	-1.0284363864	-2.114622293	 1.8496535937	-0.273501
C	-1.3871366516	-0.5765988084	-0.1158506941	-0.27687
H	 0.6981238149	 1.8764206763	 0.1581297276	 0.278651
H	 0.5499351213	-0.1379693683	-0.9248443389	 0.072934
H	 1.9039618629	-0.4631276113	 0.9460676159	 0.084838
H	 0.6403530781	 0.0093256984	 2.0832448041	 0.102966
H	 1.1963149052	-2.5649111495	 1.9870570244	 0.065919
H	 0.5050655249	-2.4783131223	-0.8747047603	 0.091047
H	-0.0964805495	-3.7900767187	 0.1730445564	 0.105669
H	-3.2880808418	-2.2419883906	 0.0159974786	 0.273921
H	-1.2778767937	-3.0987555504	 2.2544586498	 0.098296
H	-1.4054705752	-1.3289754957	 2.5122727074	 0.08528
H	-2.0917779382	 0.0023216728	 0.4947895789	 0.102178
H	-1.7249742838	-0.5154503524	-1.1557036371	 0.102232
109.4892	228.6718	247.6973	278.3044	309.3493	371.849	396.6249	424.2014	427.5963	447.5903	485.0323	554.6901	659.7752	800.8508	847.4457	873.4163	878.2247	895.7983	923.0978	965.767	986.6196	1017.8542	1041.3455	1048.6072	1067.9563	1110.3003	1127.2961	1151.9421	1188.9356	1210.3734	1222.181	1231.8034	1256.097	1272.536	1303.7513	1310.5254	1335.9273	1354.5278	1387.0644	1393.7826	1436.5149	1479.1412	1491.5315	1496.2641	1517.7886	2976.4308	3019.3941	3026.8516	3044.5367	3060.5549	3062.6495	3078.3228	3090.0777	3109.7594	3117.585	3799.5445	3813.237
OC1CC2CC(O)(C2)C1	O[C@H]1C[C@@H]2C[C@@](O)(C2)C1	
InChI=1S/C7H12O2/c8-6-1-5-2-7(9,3-5)4-6/h5-6,8-9H,1-4H2	InChI=1S/C7H12O2/c8-6-1-5-2-7(9,3-5)4-6/h5-6,8-9H,1-4H2/t5-,6-,7-/m0/s1
