13
gdb 77797	2.7315	1.45599	1.11463	4.5138	67.06	-0.2663	-0.0217	0.2446	1051.7468	0.086569	-456.509926	-456.501979	-456.501035	-456.542434	29.584	
O	-0.1180871084	 1.4434996762	 0.0443712705	-0.3974
C	-0.0336196311	 0.0654426632	 0.0441641019	 0.025016
C	-0.3835638391	-0.7994949538	 1.258335205	-0.409258
C	-1.583107373	-0.1800379166	 1.930208539	 0.473263
O	-1.9104795541	 0.1250305616	 3.0278695074	-0.319491
O	-2.3266964306	-0.0714674351	 0.7659958454	-0.275865
C	-1.2831757693	-0.7499850498	 0.0078641384	 0.280456
C	-1.6522456436	-1.7364356438	-0.9391604947	 0.225606
C	-1.950839822	-2.5661276667	-1.7559310582	-0.375873
H	 0.577032039	 1.7961950762	 0.611235508	 0.302708
H	 0.7777661581	-0.3643789571	-0.5463175188	 0.123706
H	 0.254704238	-1.5786046536	 1.6496063927	 0.140639
H	-2.2229721438	-3.2986393906	-2.4757306666	 0.206491
107.8504	152.112	156.5295	242.2073	277.9635	381.8732	440.3866	501.2306	511.1055	529.1093	608.8436	677.997	701.9563	729.5481	747.9692	845.001	915.3512	933.1355	979.4388	1027.4583	1055.1279	1139.8288	1187.4104	1233.0762	1297.1908	1315.6485	1474.7049	1953.4225	2245.4252	3097.9843	3229.1928	3499.0528	3804.1474
OC1C2C(=O)OC12C#C	O[C@H]1[C@H]2C(=O)O[C@@]12C#C	
InChI=1S/C6H4O3/c1-2-6-3(4(6)7)5(8)9-6/h1,3-4,7H	InChI=1S/C6H4O3/c1-2-6-3(4(6)7)5(8)9-6/h1,3-4,7H/t3-,4-,6+/m0/s1
