18
gdb 61777	3.00524	0.90912	0.84573	3.5385	75.75	-0.2503	0.0146	0.2649	1412.6418	0.144739	-439.073694	-439.063386	-439.062441	-439.109939	36.649	
C	-0.027991695	 1.7285562374	 0.0557625688	-0.411133
C	-0.0227591365	 0.198662666	-0.0361686824	 0.038751
N	 0.6742416342	-0.2646848984	-1.2267597711	-0.282648
C	 0.0384169805	-0.6494385214	-2.3631670523	 0.151657
O	-1.1642902764	-0.651629385	-2.5257716201	-0.328708
C	 0.6503491372	-0.4848242831	 1.1811389475	-0.067646
O	 2.0528642539	-0.2009798704	 1.2058973554	-0.433329
C	-0.000226899	-0.1465348066	 2.4451731693	 0.297724
C	-0.5215088283	 0.1573683877	 3.484861746	-0.438435
H	 0.9932973718	 2.1234002649	 0.0877690892	 0.10725
H	-0.5228883457	 2.1475420671	-0.8232687094	 0.141709
H	-0.5607782918	 2.0640753902	 0.9495869744	 0.13355
H	-1.0505495085	-0.1650532088	-0.1159209751	 0.130415
H	 1.6820719396	-0.2885460503	-1.1826905371	 0.254664
H	 0.7548186304	-0.9713655159	-3.1450140951	 0.07534
H	 0.5868123	-1.5674306346	 1.0221451293	 0.128886
H	 2.1741732891	 0.642425612	 1.6552091812	 0.294223
H	-0.9860050956	 0.4094155992	 4.4066105215	 0.207729
25.5969	71.3771	131.4768	187.3736	201.0907	232.8733	244.3408	272.2445	303.0667	335.899	442.291	484.6602	555.0277	593.8289	636.5665	653.8334	682.2153	770.6388	857.947	899.6558	985.5523	1007.0175	1032.9549	1089.114	1113.3111	1144.8489	1211.1087	1255.8269	1307.2648	1325.5946	1378.5663	1406.6686	1418.0527	1428.2795	1491.1236	1498.7582	1519.6864	1800.1158	2234.4605	2935.3989	3040.5005	3049.1091	3091.1269	3115.1216	3132.8643	3499.6348	3622.6911	3816.4816
CC(NC=O)C(O)C#C	C[C@@H](NC=O)[C@@H](O)C#C	
InChI=1S/C6H9NO2/c1-3-6(9)5(2)7-4-8/h1,4-6,9H,2H3,(H,7,8)	InChI=1S/C6H9NO2/c1-3-6(9)5(2)7-4-8/h1,4-6,9H,2H3,(H,7,8)/t5-,6+/m1/s1
