21
gdb 97667	3.35995	0.74035	0.67742	1.1567	89.45	-0.2369	0.0368	0.2737	1749.6481	0.180826	-387.046497	-387.036188	-387.035244	-387.083565	37.028	
C	-0.0878465881	 1.5194197471	-0.0094639718	-0.439668
C	-0.0213608423	-0.0157187425	-0.0051188118	 0.154539
C	 1.1554378744	-0.5604627672	-0.8932199457	-0.243671
C	 2.0309719955	-0.6983390327	 0.3796705569	-0.217875
C	 0.7505255026	-0.5719753654	 1.2458952539	-0.243598
C	-1.3322731077	-0.5914913549	-0.2559316239	-0.005295
C	-2.4104952117	-1.0890261531	-0.4619597231	 0.129688
C	-3.7223290614	-1.6703781801	-0.7128213862	-0.220518
O	-3.6344468207	-3.0916581274	-0.6769846363	-0.410297
H	 0.9017691811	 1.9478405362	 0.1800630523	 0.112476
H	-0.4415617161	 1.8900178159	-0.9763984238	 0.12167
H	-0.7711294579	 1.8806495891	 0.7651612102	 0.121727
H	 0.9064682671	-1.5277845853	-1.3339747829	 0.113753
H	 1.5056067106	 0.1082188003	-1.6839905483	 0.097598
H	 2.6043650163	-1.6214959661	 0.4832365057	 0.101244
H	 2.7147594721	 0.1438236209	 0.5136357051	 0.102819
H	 0.7861462697	 0.0878290944	 2.1167748524	 0.097646
H	 0.3596191424	-1.5433360606	 1.555045725	 0.113951
H	-4.4333224584	-1.2989135224	 0.0437123663	 0.11317
H	-4.0914462452	-1.3215222791	-1.6915210985	 0.113168
H	-4.5167794621	-3.435959627	-0.8495019455	 0.287473
14.1533	70.0517	108.3773	144.4905	202.8704	230.6982	263.2692	278.5496	327.6427	341.3257	429.8262	523.0668	555.4377	597.5358	697.1461	795.1509	842.583	872.9903	907.651	924.547	946.3005	992.0398	1027.6115	1028.7273	1046.2123	1083.6809	1152.8732	1175.1832	1210.8935	1231.6511	1244.6155	1254.5074	1255.436	1273.7582	1274.2957	1322.0889	1405.687	1458.0339	1473.9002	1483.7628	1490.261	1499.6993	1503.6486	1506.4779	2359.9122	2958.3869	2974.9878	3032.659	3060.0839	3061.0347	3069.6514	3104.7141	3105.63	3109.7909	3120.427	3130.9841	3816.3325
CC1(CCC1)C#CCO	CC1(CCC1)C#CCO	
InChI=1S/C8H12O/c1-8(4-2-5-8)6-3-7-9/h9H,2,4-5,7H2,1H3	InChI=1S/C8H12O/c1-8(4-2-5-8)6-3-7-9/h9H,2,4-5,7H2,1H3
