18
gdb 12095	3.39764	1.53686	1.44253	2.4389	67.23	-0.2639	0.0772	0.3411	967.0218	0.151172	-384.90205	-384.893497	-384.892553	-384.935432	31.252	
C	-0.5228511433	-2.3222721394	 3.03359832	-0.425071
C	-0.0709111858	-1.9587408032	 1.6427594813	 0.088502
O	-0.6791989211	-0.8220619728	 1.0184328568	-0.25543
C	 0.7160083756	-0.7550365094	 1.3196251201	-0.025462
C	 1.1671510659	 0.2718285001	 2.337980285	 0.360608
C	 0.1551486691	 1.3145092741	 2.752763365	-0.45242
C	 2.3131691466	-0.0571824857	 3.2042383097	-0.21283
O	 2.4822422731	 0.7775638737	 2.0586048104	-0.274822
H	-0.5498372485	-1.4531404776	 3.6938781017	 0.129595
H	-1.5244593346	-2.7635533491	 3.0054315625	 0.132872
H	 0.1563734572	-3.0640552564	 3.467777779	 0.123635
H	 0.041215088	-2.8093169934	 0.9669444401	 0.091306
H	 1.3726202978	-0.7891601806	 0.4489506976	 0.105719
H	-0.7222949287	 0.8550982783	 3.2142408918	 0.131606
H	 0.6082728189	 2.0149506021	 3.4584244435	 0.12174
H	-0.1925704968	 1.8727634913	 1.8784054897	 0.138092
H	 2.4216005842	 0.4390999801	 4.1684827568	 0.112101
H	 2.7761988425	-1.0414614319	 3.137497279	 0.110262
37.7809	151.6225	177.3482	190.018	233.2622	323.5805	367.6419	374.2626	401.3394	473.0459	565.0675	725.859	791.8663	817.8044	862.784	921.7377	934.3239	989.9183	1018.9834	1045.9081	1083.3704	1117.2926	1136.5993	1160.0119	1166.4955	1171.7117	1268.1279	1302.4377	1356.9276	1394.9477	1416.6342	1423.0139	1459.1134	1476.8265	1485.863	1497.9321	1505.1251	1527.8068	3040.4069	3051.0538	3074.0275	3082.4896	3101.1618	3103.6217	3120.0147	3133.0117	3137.3061	3159.4176
CC1OC1C1(C)CO1	C[C@H]1O[C@H]1[C@@]1(C)CO1	
InChI=1S/C6H10O2/c1-4-5(8-4)6(2)3-7-6/h4-5H,3H2,1-2H3	InChI=1S/C6H10O2/c1-4-5(8-4)6(2)3-7-6/h4-5H,3H2,1-2H3/t4-,5-,6-/m1/s1
