15
gdb 6424	4.0675	1.41091	1.27698	2.4594	66.07	-0.2642	-0.0415	0.2227	963.743	0.117196	-362.689651	-362.681824	-362.68088	-362.722054	28.73	
C	-0.2184343603	 1.6133631632	-0.0278938499	-0.442998
C	-0.0073209539	 0.0935643252	 0.0034707443	 0.139972
C	 1.1868975234	-0.3830065987	-0.9059623989	-0.377741
C	 2.0119639728	-0.5867734121	 0.3740973009	 0.409441
O	 3.1711396262	-0.7746538779	 0.5878885967	-0.274394
C	 0.7827412212	-0.3941230949	 1.2756000598	-0.37774
C	-1.2599047318	-0.6142916446	-0.232200182	 0.243238
N	-2.2517021566	-1.178744184	-0.418731086	-0.339293
H	 0.7332196853	 2.123761632	 0.1510044706	 0.13058
H	-0.6038079352	 1.9342623427	-0.99936773	 0.143694
H	-0.9268073119	 1.925377758	 0.7441848271	 0.143695
H	 0.9942626188	-1.3294967274	-1.4191299685	 0.156993
H	 1.567271758	 0.3424133177	-1.6289847275	 0.143779
H	 0.8775597898	 0.32344832	 2.0940019456	 0.14378
H	 0.420791384	-1.345265029	 1.6763654078	 0.156994
52.2392	175.4769	182.8968	252.1502	325.9399	339.9123	407.984	452.8378	519.7916	581.5068	597.3174	688.9009	725.7356	874.2017	887.4031	905.6981	967.3427	1023.2527	1078.0598	1117.8346	1153.4504	1179.6381	1213.0523	1244.0862	1289.84	1413.3751	1425.451	1445.115	1489.5681	1497.3896	1907.2245	2352.8996	3041.8087	3065.988	3070.5467	3116.1527	3125.2468	3127.2848	3128.3103
CC1(CC(=O)C1)C#N	CC1(CC(=O)C1)C#N	
InChI=1S/C6H7NO/c1-6(4-7)2-5(8)3-6/h2-3H2,1H3	InChI=1S/C6H7NO/c1-6(4-7)2-5(8)3-6/h2-3H2,1H3
