20
gdb 30692	3.06569	1.18748	0.93489	1.6836	82.	-0.1785	0.0292	0.2077	1295.456	0.170958	-403.160768	-403.151562	-403.150618	-403.195106	34.069	
C	-0.0124388642	 1.549673189	-0.1466947959	-0.383558
C	 0.0294010899	 0.0191246519	-0.0153213168	-0.161379
N	 0.6712906751	-0.684408202	-1.1161330051	-0.152032
C	 2.1179586862	-0.6104311009	-1.182568368	-0.338605
C	-0.0312659672	-0.7852229594	-2.3110614291	 0.301632
C	-1.3594142268	-0.5311335464	-2.5404296349	-0.121286
O	-1.6832950887	-0.8218949872	-3.8409215196	-0.151434
C	-0.5532427104	-1.2465138334	-4.441722198	 0.01233
C	 0.4918021585	-1.2451494972	-3.5745617144	-0.29894
H	 0.9971292422	 1.9724043414	-0.1677823972	 0.117885
H	-0.525475464	 1.8509089618	-1.0641345565	 0.131629
H	-0.5424309127	 1.9915196219	 0.7034413885	 0.113698
H	 0.5568593162	-0.2569712724	 0.9050850691	 0.100267
H	-0.9883409959	-0.3757845292	 0.0852924274	 0.111261
H	 2.5186253794	-1.4679198372	-1.7314927782	 0.128946
H	 2.4986847152	 0.3065198346	-1.6619936932	 0.11005
H	 2.5208057717	-0.6549891974	-0.1668103675	 0.120707
H	-2.1667913773	-0.1677789314	-1.9307720583	 0.122495
H	-0.6415731548	-1.5130251563	-5.4823592947	 0.130796
H	 1.5050939276	-1.5343100402	-3.7997487076	 0.105539
58.6918	101.2934	133.6489	168.6433	207.3468	265.4345	302.1309	387.808	422.9022	513.9841	597.6356	604.7775	624.9085	688.8187	753.3595	795.9656	803.4448	869.8777	889.1242	960.2761	1019.5511	1074.0241	1082.4572	1095.828	1105.3114	1148.6998	1206.5108	1221.017	1243.1358	1285.2502	1327.0784	1385.9757	1396.4802	1401.6816	1414.1717	1462.5952	1486.152	1488.515	1492.6488	1510.1481	1515.5919	1545.6573	1647.3578	2966.3059	3028.1761	3038.2135	3063.4935	3066.5995	3105.4461	3108.6105	3120.686	3260.4523	3282.0295	3296.0962
CCN(C)C1=COC=C1	CCN(C)c1cocc1	
InChI=1S/C7H11NO/c1-3-8(2)7-4-5-9-6-7/h4-6H,3H2,1-2H3	InChI=1S/C7H11NO/c1-3-8(2)7-4-5-9-6-7/h4-6H,3H2,1-2H3
