19
gdb 33765	3.52883	1.40115	1.19417	0.5295	86.16	-0.237	0.0133	0.2503	1075.8717	0.160569	-348.720766	-348.71321	-348.712265	-348.752263	31.384	
C	-0.0121739815	-1.2089973357	-0.0738060971	-0.363921
C	-0.0053159213	-0.0066312596	-0.0275343094	 0.13428
C	 0.0040352613	 1.440051064	 0.0281527875	 0.155285
C	-0.2122726592	 2.1382835315	 1.4159190062	-0.244515
C	 0.7058990234	 3.2747559	 0.8741734895	-0.079988
C	 1.3851464502	 2.1827440191	-0.0057311274	-0.24452
C	-0.1213350881	 4.1660759844	-0.0274647482	-0.063957
C	-0.9086799742	 3.5819984563	-0.9304307528	-0.068034
C	-0.946519895	 2.0744824606	-1.0200956606	-0.287891
H	-0.0162672679	-2.2700288332	-0.1112831525	 0.180536
H	-1.2352101713	 2.3990924393	 1.6964610114	 0.100631
H	 0.2646568887	 1.5632234205	 2.2126008445	 0.105871
H	 1.3218443755	 3.8275092738	 1.5835577494	 0.063187
H	 2.1388432933	 1.6153949391	 0.5446436839	 0.105876
H	 1.7737936799	 2.4828458564	-0.9814454663	 0.100632
H	-0.0599783753	 5.2448630767	 0.0752194718	 0.088021
H	-1.531819816	 4.1525559279	-1.6127742991	 0.087932
H	-0.6586201052	 1.7380065908	-2.025032727	 0.11529
H	-1.9670595673	 1.7015886081	-0.8605689139	 0.115285
143.0435	143.2341	280.1026	337.7449	404.6194	430.6698	485.4977	520.0731	533.1281	598.2721	625.2832	626.6897	685.4576	718.2725	851.4543	864.2655	889.9175	901.8496	934.8979	955.8302	959.7818	977.1969	1002.7622	1050.5834	1086.9295	1096.0702	1176.5766	1178.4194	1190.031	1232.6494	1235.5039	1248.5612	1256.5101	1333.5884	1360.5016	1391.8211	1472.5906	1473.354	1503.2162	1702.8957	2230.7786	3014.457	3041.498	3060.0329	3065.6081	3105.5933	3124.6195	3127.6156	3162.0819	3186.4113	3502.937
C#CC12CC(C1)C=CC2	C#C[C@@]12C[C@@H](C1)C=CC2	
InChI=1S/C9H10/c1-2-9-5-3-4-8(6-9)7-9/h1,3-4,8H,5-7H2	InChI=1S/C9H10/c1-2-9-5-3-4-8(6-9)7-9/h1,3-4,8H,5-7H2/t8-,9+
