18
gdb 12857	2.85193	2.42444	1.82265	0.9179	66.67	-0.2468	0.0794	0.3262	813.4431	0.154742	-384.936206	-384.929072	-384.928128	-384.967274	27.736	
C	-0.1835136022	 1.59402815	 0.1115311235	-0.464832
C	 0.0978832538	 0.111574133	 0.0190331493	 0.369046
C	-1.0745519264	-0.8783348491	 0.244101244	-0.124024
O	-0.3356746161	-1.5896102503	 1.2615555027	-0.300561
C	 0.7759991106	-0.6676855333	 1.1830048764	 0.069806
C	 2.0234222775	-1.2851456024	 0.5654534469	-0.241453
C	 1.6557986947	-1.3143977776	-0.9267571165	-0.092992
O	 0.8682640575	-0.1435084401	-1.1445311253	-0.299479
H	 0.7527730729	 2.1588995423	 0.1427948162	 0.124476
H	-0.7501471454	 1.9282608147	-0.7635119241	 0.130245
H	-0.7655076945	 1.8262310699	 1.0077236746	 0.119913
H	-1.9933698884	-0.4317488256	 0.6444838229	 0.096636
H	-1.3202948618	-1.5103639499	-0.6172688887	 0.105046
H	 0.9445488766	-0.1518534795	 2.1336270628	 0.072377
H	 2.8845683431	-0.6312137666	 0.7407414857	 0.106203
H	 2.2416945796	-2.2733329377	 0.9772184484	 0.115293
H	 2.5145401219	-1.2662646855	-1.6005584896	 0.110222
H	 1.0797434868	-2.2206400521	-1.1623287494	 0.104078
121.8545	212.5353	221.7761	256.5835	340.9569	389.7847	439.2855	617.901	633.3807	672.5692	833.3549	855.6021	893.3286	903.0296	918.9934	957.8981	968.4763	1017.3982	1026.4324	1059.8375	1105.2664	1147.3249	1171.3766	1178.5002	1207.8653	1225.3181	1265.4686	1288.1642	1314.0376	1341.034	1370.5741	1387.6983	1412.6292	1468.505	1483.5853	1494.2287	1512.3147	1523.1477	3004.6084	3014.1565	3040.5485	3048.0412	3063.9596	3066.3427	3099.6759	3110.965	3116.5935	3120.796
CC12COC1CCO2	C[C@]12CO[C@H]1CCO2	
InChI=1S/C6H10O2/c1-6-4-7-5(6)2-3-8-6/h5H,2-4H2,1H3	InChI=1S/C6H10O2/c1-6-4-7-5(6)2-3-8-6/h5H,2-4H2,1H3/t5-,6-/m0/s1
