14
gdb 52600	2.07668	1.113	0.92125	5.3773	77.37	-0.277	-0.0262	0.2508	1343.9115	0.096046	-399.474556	-399.464224	-399.46328	-399.511385	35.061	
C	-0.0357781869	 1.4842252822	 0.0127735632	-0.502184
C	 0.0063703388	 0.0310885762	 0.0059229301	 0.05647
C	 0.0502633586	-1.171062302	 0.0090901756	 0.120191
C	 0.0572759069	-2.6424964694	-0.0044189003	-0.176772
O	-1.2508734894	-3.1820224226	 0.1681270785	-0.40663
C	 0.6773845353	-3.1332851235	-1.2508612401	 0.350071
C	 1.1410301433	-3.5344335768	-2.2825194906	-0.448661
C	 0.8443917599	-3.1403010062	 1.1553666482	 0.340702
N	 1.4762857656	-3.5100354277	 2.0472092369	-0.334615
H	 0.718047589	 1.8902702155	 0.6952756488	 0.1665
H	 0.1582953286	 1.8902089231	-0.9853629437	 0.160008
H	-1.015302852	 1.8466209355	 0.3417030541	 0.161485
H	-1.7914314418	-2.8298318809	-0.5499366336	 0.29716
H	 1.560805174	-3.8924413533	-3.190835227	 0.216275
19.4025	77.8123	94.7895	129.6851	188.1821	217.6007	229.4425	282.5367	334.4307	377.2691	478.5204	512.4346	529.1669	549.8615	572.1288	661.2799	671.4026	687.7957	923.5731	1017.4757	1050.002	1050.3665	1062.2302	1193.5047	1367.7166	1411.8659	1472.8508	1473.8123	2242.0348	2371.7444	2375.6586	3035.4993	3101.09	3102.1284	3498.0357	3796.2007
CC#CC(O)(C#C)C#N	CC#C[C@@](O)(C#C)C#N	
InChI=1S/C7H5NO/c1-3-5-7(9,4-2)6-8/h2,9H,1H3	InChI=1S/C7H5NO/c1-3-5-7(9,4-2)6-8/h2,9H,1H3/t7-/m0/s1
