18
gdb 54794	3.55167	1.2532	1.13449	13.9888	75.74	-0.1721	-0.0108	0.1612	1105.3334	0.150251	-439.034641	-439.027085	-439.026141	-439.067885	29.108	
O	 0.5426291422	 1.2605752465	-1.1682045711	-0.459381
C	 0.0697599602	 1.1013601254	-0.0402950073	 0.329984
O	 0.46799805	 0.5477772033	 0.9966983326	-0.458169
C	-1.3724094704	 1.8234710188	 0.0840818563	-0.104827
C	-2.1743753085	 1.6483989522	 1.4122972181	-0.019378
C	-1.1956471042	 2.6976842963	 2.0200575179	-0.23617
C	-1.240053463	 3.26025836	 0.5902986488	-0.031556
N	-2.7326666835	 3.7247751306	 0.5284929774	-0.260176
H	-2.9162541772	 4.5789544825	 1.0573515917	 0.291807
H	-3.0234210658	 3.8724680526	-0.4370722551	 0.303076
C	-3.4246154716	 2.4930039379	 1.1533240331	-0.219213
H	-1.9049998487	 1.6884929045	-0.863089402	 0.066123
H	-2.3233198746	 0.6730540926	 1.8671343401	 0.113157
H	-1.5248110611	 3.3328123292	 2.8504544259	 0.076966
H	-0.2365392909	 2.2147208038	 2.2044765956	 0.199135
H	-0.5939521562	 4.0270804709	 0.1664217999	 0.117505
H	-4.1203204188	 2.0768263763	 0.4233541759	 0.150808
H	-3.9704228377	 2.8242279566	 2.0400216623	 0.140308
23.6196	141.7552	209.1205	294.2178	299.7032	422.4925	473.3664	635.5859	684.176	704.1449	773.3587	801.4058	822.6735	842.2331	865.801	896.9928	913.1443	942.6005	946.41	1006.0201	1022.0623	1070.0026	1084.6491	1124.7175	1141.0793	1186.8855	1193.2384	1211.5895	1250.1635	1263.675	1267.1908	1290.2223	1321.6753	1332.5584	1349.0147	1474.4139	1504.2341	1628.6956	1817.086	3033.8276	3052.4166	3074.0034	3137.6239	3146.8476	3151.6085	3167.8731	3433.1336	3523.3745
[O-]C(=O)C1C2CC1[NH2+]C2	O=C([O])[C@H]1[C@H]2C[C@@H]1[NH2]C2	
InChI=1S/C6H9NO2/c8-6(9)5-3-1-4(5)7-2-3/h3-5,7H,1-2H2,(H,8,9)	InChI=1S/C6H9NO2/c8-6(9)5-3-1-4(5)7-2-3/h3-5H,1-2,7H2/t3-,4-,5-/m0/s1
