14
gdb 128696	2.43286	1.55816	0.95557	1.8558	73.91	-0.2274	-0.022	0.2054	1157.5846	0.101188	-432.828119	-432.819911	-432.818967	-432.861162	29.568	
C	 0.0082393634	 1.4151057331	-0.0321642451	-0.244456
O	 0.0128651265	-0.0130447615	-0.0196396243	-0.260102
C	 0.6057958001	-0.6020705589	-1.0564046079	 0.29568
N	 1.1756104417	 0.0376068103	-2.0704119781	-0.293054
N	 1.6172457852	-0.9694224142	-2.8340973594	-0.111237
N	 1.3848436684	-2.1927819041	-2.4064554359	-0.271054
C	 0.7275684446	-2.0055025472	-1.2504573747	 0.112414
C	 0.2688884506	-3.0545276094	-0.4262920211	 0.292237
C	-0.1339539143	-3.9274825144	 0.2969173439	-0.427607
H	 1.0302426265	 1.8072064333	-0.035507165	 0.138893
H	-0.5184119589	 1.7944855963	-0.9136166603	 0.138889
H	-0.5100540692	 1.7186003745	 0.8775039978	 0.138194
H	 2.1053109595	-0.7961772798	-3.6969750552	 0.296077
H	-0.487955964	-4.7005232479	 0.9327681252	 0.195124
98.5368	122.302	167.8594	186.9176	248.9999	346.2435	408.7361	427.8741	510.1834	574.5314	574.7953	623.576	674.1568	696.9093	759.3932	782.7253	981.1136	1050.5539	1180.6969	1185.5461	1201.7027	1220.1413	1290.0648	1347.8767	1454.7022	1462.5639	1482.1625	1499.5706	1540.2538	1595.1729	2243.8035	3036.0653	3104.8896	3154.339	3504.0208	3677.455
COC1=NNN=C1C#C	COc1n[nH]nc1C#C	
InChI=1S/C5H5N3O/c1-3-4-5(9-2)7-8-6-4/h1H,2H3,(H,6,7,8)	InChI=1S/C5H5N3O/c1-3-4-5(9-2)7-8-6-4/h1H,2H3,(H,6,7,8)
