17
gdb 69616	3.46057	1.21339	1.15508	4.6917	78.36	-0.2288	0.0159	0.2447	1122.6266	0.135942	-380.808861	-380.800968	-380.800024	-380.841028	30.875	
C	-0.0557901881	 1.5285883476	 0.0392517497	-0.511095
C	 0.0900528127	 0.0414583625	 0.0140072017	 0.346173
N	-0.8437307186	-0.8838460636	 0.7059369993	-0.376711
C	 0.6077075942	-0.9230603447	 1.002591956	-0.180651
C	 1.3177431098	-1.7539246506	-0.1150570671	 0.209769
C	 0.3548310301	-2.1927636797	-1.203933559	-0.330403
C	 0.7599295388	-0.7555068643	-1.1521360683	-0.149874
C	 2.6466564495	-2.2396836984	 0.0040736992	 0.192498
N	 3.7331128242	-2.6248190454	 0.1229599711	-0.355115
H	 0.8775022165	 2.0183190912	-0.2586122118	 0.136581
H	-0.8427277406	 1.8616288497	-0.6474443762	 0.135918
H	-0.3122618205	 1.8785831256	 1.044657638	 0.124442
H	-1.2889837339	-0.3605533621	 1.4592888797	 0.234463
H	 0.999525552	-0.7814027248	 2.0011668522	 0.110867
H	 0.8197487004	-2.7708867449	-1.9951679286	 0.135851
H	-0.6448428161	-2.4918177839	-0.9182312744	 0.159022
H	 1.3311994395	-0.2757120441	-1.9357816015	 0.118265
110.1447	155.8099	210.6984	249.0855	295.283	392.4355	449.3365	484.7853	530.1861	547.0101	589.9318	644.2555	777.7803	790.4201	839.059	864.6332	911.1617	943.1482	967.3356	977.8491	997.1915	1014.8051	1072.1295	1107.0544	1114.08	1122.6847	1187.5335	1225.4115	1263.558	1330.0804	1350.9464	1413.4587	1449.8729	1464.2959	1481.226	1498.9923	2337.6279	3026.1277	3089.7722	3101.2547	3150.7917	3206.529	3208.7441	3248.7415	3478.3012
CC12NC1C1(CC21)C#N	C[C@]12N[C@H]1[C@]1(C[C@@H]21)C#N	
InChI=1S/C7H8N2/c1-6-4-2-7(4,3-8)5(6)9-6/h4-5,9H,2H2,1H3	InChI=1S/C7H8N2/c1-6-4-2-7(4,3-8)5(6)9-6/h4-5,9H,2H2,1H3/t4-,5+,6+,7+/m0/s1
