21
gdb 109806	2.36546	1.04718	0.83553	1.8144	84.83	-0.2523	0.0568	0.3091	1446.0005	0.180047	-387.035576	-387.025057	-387.024113	-387.071817	38.194	
C	-0.6230628849	 1.1838721715	-1.7648660197	-0.411224
C	-0.2340050482	-0.1040381514	-1.0673100254	-0.027869
C	 1.2015049069	-0.5571111462	-0.8610176604	-0.042985
C	 2.3923747621	 0.2530180727	-1.3031293458	-0.106508
O	 3.4289115982	 0.0630427661	-0.3429248885	-0.419359
C	 0.3528431411	-0.1501459862	 0.3250107366	-0.008801
C	 0.6569460063	 1.0998632079	 1.1430692386	-0.377558
C	-0.5062886974	 1.5738227771	 1.8883500537	 0.304581
C	-1.4724605012	 1.9451596345	 2.499847485	-0.449753
H	 0.0484685581	 2.0154094781	-1.5390936163	 0.115889
H	-0.6283569089	 1.0532275748	-2.8527141764	 0.115608
H	-1.6290806386	 1.4908423905	-1.4604203164	 0.128774
H	-0.9232442856	-0.9157667087	-1.2871280323	 0.085059
H	 1.3758134137	-1.6260477817	-0.9510969624	 0.088604
H	 2.7142621437	-0.0876456673	-2.3000212065	 0.089475
H	 2.1406766009	 1.3184421998	-1.3981134251	 0.082168
H	 4.2146819431	 0.5208012777	-0.6575329348	 0.284942
H	 0.0064626324	-0.9695119944	 0.9483310269	 0.092424
H	 1.4766321196	 0.8774872931	 1.8370421387	 0.143153
H	 1.0264944937	 1.9088917933	 0.5049934488	 0.122729
H	-2.3215963249	 2.2806476787	 3.0413506316	 0.19065
39.0326	65.3045	121.7947	138.9289	182.7008	216.3628	266.2077	294.9545	313.0957	342.5356	426.2	489.1456	551.5985	562.1373	614.9215	634.7807	758.3736	797.9472	855.2186	920.5654	943.6425	977.836	991.8386	1028.0776	1062.4247	1071.8043	1117.2832	1142.6504	1159.5567	1177.2179	1233.3978	1246.191	1262.5373	1286.204	1313.1366	1377.3436	1392.6031	1420.4955	1447.1599	1465.4119	1470.8542	1498.6928	1505.2462	1525.0329	2236.8879	2975.355	3012.1835	3035.5209	3038.9094	3072.3279	3093.1743	3112.9739	3130.8077	3136.1437	3151.8908	3507.953	3818.9939
CC1C(CO)C1CC#C	C[C@H]1[C@@H](CO)[C@H]1CC#C	
InChI=1S/C8H12O/c1-3-4-7-6(2)8(7)5-9/h1,6-9H,4-5H2,2H3	InChI=1S/C8H12O/c1-3-4-7-6(2)8(7)5-9/h1,6-9H,4-5H2,2H3/t6-,7+,8-/m1/s1
