21
gdb 120308	3.24917	1.04324	0.93854	1.466	79.87	-0.2224	0.0705	0.2928	1376.9685	0.180491	-424.175295	-424.165688	-424.164743	-424.210176	35.05	
C	 0.1479436094	 1.5023282848	 0.2403220823	-0.38612
C	 0.5642570239	 0.0442117766	 0.1639911782	-0.034066
O	 0.0626450237	-0.6214036804	 1.3187598256	-0.251871
C	 0.3892878131	-1.9674421844	 1.3700698533	 0.05462
C	 1.7987454711	-2.450572744	 1.5860211761	-0.000424
O	 2.5522797244	-1.4967775821	 2.3290869052	-0.288595
C	 1.6336563604	-1.6225179365	 3.4475869867	-0.118173
C	 0.7445687647	-2.6089392507	 2.6848077377	 0.19614
C	 0.040527868	-3.789010568	 3.287590949	-0.499836
H	 0.5561576172	 1.9691570696	 1.1412490209	 0.128399
H	 0.517762936	 2.0497756387	-0.6318641984	 0.114097
H	-0.9417681623	 1.5924010548	 0.2706055133	 0.123537
H	 0.1593226322	-0.4269061824	-0.7462898582	 0.082469
H	 1.6580263512	-0.0515697344	 0.1323187953	 0.110507
H	-0.1988831782	-2.6129360643	 0.7111862277	 0.081127
H	 2.3404320944	-3.1527645124	 0.960245437	 0.098925
H	 2.1406809959	-2.0779755475	 4.3060763154	 0.101897
H	 1.1879059931	-0.6638353736	 3.7285942478	 0.115945
H	-0.8161116275	-3.4703049894	 3.8937565305	 0.127483
H	-0.3393019213	-4.461315262	 2.5119857144	 0.122458
H	 0.7108678505	-4.3676813626	 3.9328325002	 0.121481
60.8121	81.8768	123.6402	182.5454	221.9565	239.3568	267.4238	296.6994	306.7005	399.2778	497.6805	620.8896	689.2818	788.0493	821.8724	829.5116	892.9303	918.9896	954.3831	970.6603	993.5636	1011.3911	1047.1341	1068.6391	1085.0629	1130.8144	1150.9259	1164.1236	1184.1392	1197.8335	1246.0668	1279.7051	1296.5065	1300.7404	1347.2002	1398.7121	1415.3461	1423.6743	1476.7399	1483.2386	1487.2233	1497.8163	1499.6168	1505.1031	1523.9735	2973.4771	3022.5065	3031.2891	3031.8931	3044.0194	3064.5263	3082.4571	3093.2885	3100.5056	3118.1843	3120.9519	3163.4187
CCOC1C2OCC12C	CCO[C@H]1[C@H]2OC[C@@]12C	
InChI=1S/C7H12O2/c1-3-8-5-6-7(5,2)4-9-6/h5-6H,3-4H2,1-2H3	InChI=1S/C7H12O2/c1-3-8-5-6-7(5,2)4-9-6/h5-6H,3-4H2,1-2H3/t5-,6+,7-/m0/s1
