26
gdb 122161	2.73222	0.79991	0.70907	1.1854	93.83	-0.2177	0.0806	0.2984	1779.5193	0.238429	-369.596045	-369.584754	-369.58381	-369.6327	41.572	
C	 0.1604112522	 1.4919362892	 0.2080722618	-0.381772
C	 0.0439830402	 0.0026115323	-0.1267664781	-0.160919
C	-1.3720248622	-0.5509019705	 0.0688335702	-0.167044
C	-1.4821327058	-2.0417252532	-0.2867387466	-0.267897
C	-2.8623082144	-2.656392447	-0.0802307733	 0.346013
C	-3.9766676476	-2.0461958065	-0.9119754849	-0.445289
C	-2.9396401944	-4.1140710675	 0.246763739	-0.299921
N	-3.3134935466	-3.1153684376	 1.242705398	-0.109874
C	-2.4741819822	-2.9874361153	 2.4226327087	-0.314269
H	 1.1814622511	 1.8572571242	 0.0596964602	 0.110894
H	-0.5031770203	 2.092554042	-0.4240209143	 0.113732
H	-0.1143547014	 1.686312295	 1.2509082555	 0.113672
H	 0.3565732316	-0.1654004981	-1.1661822737	 0.094017
H	 0.7457949729	-0.5694293898	 0.4948492772	 0.093169
H	-1.6820094272	-0.3959091004	 1.1106555825	 0.097864
H	-2.0704467511	 0.0318942746	-0.5445420389	 0.098251
H	-1.208375809	-2.1774488214	-1.3423069378	 0.096288
H	-0.7340160346	-2.6020789163	 0.2842456186	 0.093895
H	-3.7378973005	-2.0941262855	-1.9809245791	 0.107832
H	-4.9128783114	-2.5820477478	-0.7396868327	 0.122283
H	-4.1439972503	-0.9961297381	-0.6512449429	 0.118644
H	-3.7465944636	-4.7323592524	-0.1413234891	 0.104415
H	-1.9958389217	-4.6424073342	 0.3860084576	 0.096437
H	-1.3997298763	-3.1596714916	 2.2528542565	 0.097521
H	-2.597410164	-1.98833847	 2.853687434	 0.12105
H	-2.8111350533	-3.7163535839	 3.1675210917	 0.121008
58.1433	71.6644	119.414	132.2572	183.7649	196.3182	233.3477	240.7527	271.0239	320.1954	333.721	385.0066	436.0622	459.7161	518.9485	716.0746	733.423	755.5915	793.1323	898.4702	908.601	915.6117	941.7472	993.8086	1024.4615	1038.6409	1065.1967	1087.1924	1100.9243	1120.8158	1149.1094	1156.4865	1181.9888	1206.0603	1242.6154	1277.5856	1290.1679	1318.3114	1332.3874	1359.7931	1389.7503	1402.3399	1413.0786	1416.7338	1448.3133	1474.6339	1483.8234	1487.1418	1491.1176	1498.195	1498.8492	1499.6297	1508.1525	1512.5755	1517.3376	2977.879	3010.5449	3012.1187	3023.9479	3029.5182	3030.8508	3035.5506	3053.304	3061.2078	3073.2986	3076.2162	3093.5142	3094.0511	3095.6027	3100.8308	3122.1636	3157.6002
CCCCC1(C)CN1C	CCCC[C@@]1(C)CN1C	
InChI=1S/C8H17N/c1-4-5-6-8(2)7-9(8)3/h4-7H2,1-3H3	InChI=1S/C8H17N/c1-4-5-6-8(2)7-9(8)3/h4-7H2,1-3H3/t8-,9?/m0/s1
