18
gdb 17328	3.44795	2.13296	1.79801	1.8659	70.21	-0.2486	0.0863	0.3349	818.6142	0.154908	-347.78691	-347.780098	-347.779154	-347.817367	27.647	
C	 0.0165126544	 1.5488368889	 0.0278110334	-0.494158
C	 0.0632126538	 0.0398900443	 0.019711748	 0.33607
C	-0.8686226461	-0.7902273513	 0.8715975547	-0.322657
C	 0.6117663592	-0.7970731235	 1.1678364995	-0.087292
C	 1.4992659458	-1.9117993842	 0.6045991123	-0.262285
C	 1.3956442694	-1.7952975359	-0.9104433285	 0.043509
O	 0.074998241	-1.9879933943	-1.4376343707	-0.255591
C	 0.5427407668	-0.6442773389	-1.2494416476	-0.026318
H	 0.976059082	 1.9843479925	-0.2759408513	 0.11576
H	-0.7521262793	 1.9297563615	-0.655179109	 0.120602
H	-0.214616582	 1.9267141019	 1.0283080289	 0.117982
H	-1.5036700498	-0.2540818565	 1.5699833552	 0.101707
H	-1.3156465428	-1.6683275324	 0.4226016836	 0.131505
H	 0.9370661957	-0.312842756	 2.0830437284	 0.081541
H	 2.5416715468	-1.7482716517	 0.9024536356	 0.103539
H	 1.2147420564	-2.9106592126	 0.9538355684	 0.114781
H	 2.1993225054	-2.1621288968	-1.5457801827	 0.092519
H	 0.6543086833	-0.0611873951	-2.1605710583	 0.088788
193.0485	209.3146	269.8125	308.2347	357.9748	424.5708	514.0848	583.9375	702.6001	736.8464	806.6872	820.4419	853.1942	873.043	891.5522	937.7746	970.972	984.0876	1009.6976	1056.3032	1072.7853	1097.2632	1106.0773	1123.2028	1127.4416	1214.8607	1242.715	1267.3708	1287.9721	1307.0526	1339.3285	1402.5665	1419.0012	1424.8753	1475.8713	1484.7401	1490.4147	1502.5459	3020.7452	3037.8379	3075.8022	3077.1542	3101.465	3130.0565	3131.8618	3145.2433	3156.9875	3229.1348
CC12CC1CC1OC21	C[C@]12C[C@H]1C[C@H]1O[C@@H]21	
InChI=1S/C7H10O/c1-7-3-4(7)2-5-6(7)8-5/h4-6H,2-3H2,1H3	InChI=1S/C7H10O/c1-7-3-4(7)2-5-6(7)8-5/h4-6H,2-3H2,1H3/t4-,5-,6-,7+/m1/s1
