17
gdb 34125	3.49469	1.47163	1.3829	4.744	76.43	-0.2566	0.013	0.2696	973.1428	0.13946	-380.84025	-380.833714	-380.83277	-380.871054	27.019	
N	-0.0347911871	-1.1198282642	 0.0500221806	-0.342114
C	-0.0190094564	 0.0360195869	 0.0518570614	 0.173502
C	 0.0054716428	 1.4831588753	 0.0263508912	 0.21953
C	-0.8502637311	 2.2286126649	-1.036369445	-0.256976
C	-0.1015201123	 3.5622004892	-0.8615528226	-0.07447
C	 1.3178688452	 3.1808856065	-1.3544150353	-0.248701
C	 1.3616794271	 2.3259422441	-0.0838434455	-0.058755
C	 0.430187551	 3.3252903746	 0.6457533846	-0.004277
N	-0.275020555	 2.2152295546	 1.2961088407	-0.331262
H	-0.7650743424	 1.8209621124	-2.0465000198	 0.119908
H	-1.9044854024	 2.2423043437	-0.7463520333	 0.10543
H	-0.597986832	 4.4790329332	-1.1730655627	 0.075133
H	 1.411086778	 2.7036277587	-2.3338607226	 0.105818
H	 2.0293073688	 4.0081175595	-1.2778702045	 0.110517
H	 2.2490344817	 1.8859604345	 0.3637455008	 0.099303
H	 0.7589483225	 4.1754328157	 1.2400104174	 0.08993
H	-1.2707760786	 2.3579007804	 1.4708050744	 0.217484
144.9673	163.4516	372.6805	448.6697	485.8079	513.9627	556.2469	565.1786	668.367	715.2371	784.165	828.3236	857.0512	885.3788	915.1536	951.4435	964.3087	986.8714	1000.6696	1024.1332	1047.9198	1061.4827	1071.1129	1131.5371	1148.0067	1174.4497	1199.9064	1222.1482	1250.6147	1267.2393	1275.2814	1299.5065	1323.169	1343.6894	1484.969	1507.3263	2357.5378	3053.9293	3062.0929	3107.8426	3115.4227	3135.6205	3143.7866	3159.3888	3439.8634
N#CC12CC3CC1C3N2	N#C[C@]12C[C@@H]3C[C@H]1[C@@H]3N2	
InChI=1S/C7H8N2/c8-3-7-2-4-1-5(7)6(4)9-7/h4-6,9H,1-2H2	InChI=1S/C7H8N2/c8-3-7-2-4-1-5(7)6(4)9-7/h4-6,9H,1-2H2/t4-,5-,6+,7+/m0/s1
