17
gdb 118401	2.06535	1.17803	0.82672	5.0546	70.85	-0.2633	0.0067	0.2699	1360.7938	0.134663	-455.167387	-455.157539	-455.156595	-455.20367	33.488	
O	 0.0485392697	 1.2536126885	-0.0551104331	-0.411676
C	-0.0826313065	-0.1553467192	-0.0482465027	-0.069622
C	-1.5778774332	-0.4656931461	-0.0516840167	-0.192915
N	-2.2598714344	-0.0215679312	-1.2573838198	-0.040878
C	-2.2012617815	-0.8286155145	-2.4629447271	-0.304733
C	-2.8250808973	-2.1457700751	-2.2821587874	 0.270894
N	-3.2912543352	-3.1907034472	-2.1227324389	-0.306732
C	-2.811865858	 1.2309502566	-1.3492346127	 0.169873
O	-3.2968678809	 1.7001770535	-2.3552890042	-0.337175
H	 0.973485788	 1.4811477428	-0.1847655812	 0.297221
H	 0.4040101586	-0.6134927403	-0.9233283646	 0.095397
H	 0.3658117854	-0.6065150702	 0.8506837482	 0.101703
H	-1.7405556127	-1.5406448531	 0.077998449	 0.137679
H	-2.0367921816	 0.0403599327	 0.8033679346	 0.137948
H	-2.7288312173	-0.2652145868	-3.2389083216	 0.198373
H	-1.1684444842	-0.9797277961	-2.8032427408	 0.153615
H	-2.7715759891	 1.7653830457	-0.385099181	 0.101027
39.2658	63.7603	75.286	143.6693	185.1277	247.5812	283.5496	296.4916	355.2435	377.6626	404.0328	492.8292	585.207	667.2082	841.9135	886.4755	934.371	968.3509	996.5689	1027.3166	1079.2068	1103.5007	1191.7121	1205.9076	1254.7102	1285.8887	1313.3823	1362.787	1401.8406	1428.3441	1438.1303	1453.979	1469.0819	1481.3205	1516.8598	1793.1655	2362.7676	2976.0369	2995.187	3005.8878	3024.3675	3055.9002	3095.3712	3102.7588	3840.2479
OCCN(CC#N)C=O	OCCN(CC#N)C=O	
InChI=1S/C5H8N2O2/c6-1-2-7(5-9)3-4-8/h5,8H,2-4H2	InChI=1S/C5H8N2O2/c6-1-2-7(5-9)3-4-8/h5,8H,2-4H2
