22
gdb 79287	2.19987	1.95003	1.48271	1.743	83.69	-0.2304	0.083	0.3135	1028.4516	0.197179	-367.211913	-367.203984	-367.20304	-367.244015	32.055	
C	-0.2522703214	 1.5312247181	 0.6606812327	-0.438233
C	-0.1024645554	 0.014325745	 0.5356501784	 0.046805
C	 0.3305737681	-0.5212834412	-0.8265770667	-0.047838
C	 1.7936667475	-0.8188444874	-0.7876224307	-0.047801
C	 2.3310223604	-0.480260661	 0.6004169332	 0.046722
C	 3.0537882843	 0.8595784106	 0.7477684928	-0.438188
C	 0.989857517	-0.7435954697	 1.342554438	-0.101968
C	 0.7150642743	-2.1657960633	 0.8087434124	-0.165531
N	 0.8038891586	-1.9207911836	-0.659044668	-0.136226
H	 0.602597528	 2.0854667966	 0.2720520156	 0.123843
H	-1.1337102517	 1.8646053116	 0.1017433372	 0.115747
H	-0.3990798251	 1.8252556738	 1.7053656105	 0.11451
H	-1.0751718268	-0.4227390878	 0.7994723575	 0.075373
H	-0.2056995021	-0.2931475606	-1.7408663864	 0.083487
H	 2.4224159455	-0.8275180091	-1.6708878091	 0.083495
H	 3.0413281937	-1.2591698887	 0.9094842063	 0.075367
H	 2.5064611127	 1.6976877493	 0.3152262567	 0.123924
H	 3.2444266597	 1.0880739848	 1.8017106387	 0.114515
H	 4.025443703	 0.8146956717	 0.2434550251	 0.115742
H	 0.98918885	-0.6055848827	 2.4237087005	 0.060186
H	 1.464584283	-2.9039869181	 1.1088128007	 0.098034
H	-0.2772369331	-2.5500567184	 1.0625585147	 0.098034
106.0974	158.8573	200.7439	279.6717	286.9438	301.5526	452.3231	500.5748	556.622	688.773	691.3325	717.1675	789.9486	830.106	858.2889	878.049	916.418	926.9007	937.2069	982.3812	1017.653	1024.9105	1041.1831	1070.9022	1099.5349	1103.8142	1111.3322	1130.8597	1140.6306	1194.4464	1204.6943	1217.6542	1221.7198	1275.2554	1288.2285	1302.9777	1344.1002	1374.2709	1391.9645	1406.026	1410.9301	1421.2329	1487.6976	1492.5937	1501.2421	1513.1427	1518.4897	3005.8851	3008.2442	3037.313	3040.5436	3053.0542	3091.6154	3092.8792	3099.0163	3121.4863	3130.7358	3152.2474	3170.2684	3180.8121
CC1C2C3C(C)C1CN23	C[C@H]1[C@H]2[C@H]3[C@@H](C)[C@@H]1CN23	
InChI=1S/C8H13N/c1-4-6-3-9-7(4)8(9)5(6)2/h4-8H,3H2,1-2H3	InChI=1S/C8H13N/c1-4-6-3-9-7(4)8(9)5(6)2/h4-8H,3H2,1-2H3/t4-,5+,6-,7+,8-,9?
