22
gdb 6217	3.16301	1.61104	1.46938	1.4118	77.16	-0.2573	0.0748	0.3321	1004.6047	0.200348	-350.227642	-350.218829	-350.217885	-350.260305	34.456	
C	 0.3348315474	 1.3808645408	 0.2170224239	-0.419595
C	-0.0159402329	-0.1059894894	 0.0171950949	 0.304938
C	-1.5377446014	-0.2662439726	-0.0716582214	-0.438722
C	 0.7015332357	-0.6805843153	-1.2297971056	-0.221536
C	 2.1406489554	-1.0094051581	-0.7738503503	-0.247774
C	 2.0767994499	-1.1839927504	 0.7730517542	 0.122968
O	 2.8507248064	-0.2034590847	 1.4674253762	-0.432449
C	 0.5988086238	-0.9721131247	 1.1433396172	-0.224737
H	 1.4096899635	 1.5291654448	 0.3412346163	 0.129722
H	-0.0066399948	 1.9789425409	-0.6356198249	 0.099723
H	-0.1536792915	 1.7735806769	 1.1158658647	 0.106638
H	-1.9475639288	 0.3087688001	-0.9099913095	 0.107571
H	-1.8203615337	-1.3151538478	-0.2159538939	 0.103524
H	-2.028034701	 0.0902811064	 0.8412499467	 0.109139
H	 0.1927115629	-1.600327654	-1.5432821803	 0.088983
H	 0.6731115847	 0.004334959	-2.0832641179	 0.090778
H	 2.5341630921	-1.8994122904	-1.2738131894	 0.093411
H	 2.8249115853	-0.1853442944	-1.0004215888	 0.09855
H	 2.414843486	-2.1856805352	 1.0736898004	 0.06049
H	 3.7660951363	-0.2981396761	 1.185375689	 0.278218
H	 0.5081218301	-0.5272964143	 2.1382442454	 0.104019
H	 0.0929027344	-1.9447599015	 1.1672674131	 0.086138
78.9354	157.2824	227.444	233.8044	281.0159	308.193	344.132	374.9532	389.6758	427.7946	431.6223	574.2002	663.237	765.082	804.7478	838.5659	902.5009	918.1034	944.3183	960.4622	979.6993	995.7772	1014.8987	1053.7293	1076.7412	1106.8731	1184.4733	1199.9316	1229.0327	1255.2504	1263.9352	1283.4193	1315.8228	1330.0003	1348.3144	1367.3924	1401.9055	1421.5033	1425.1174	1474.2073	1478.7434	1484.8897	1492.2058	1504.2377	1506.1534	1513.3495	2988.151	3018.4296	3025.0606	3028.6217	3037.3694	3046.5453	3072.8141	3083.939	3087.2829	3089.2578	3092.8202	3096.938	3127.6921	3814.0616
CC1(C)CCC(O)C1	CC1(C)CC[C@@H](O)C1	
InChI=1S/C7H14O/c1-7(2)4-3-6(8)5-7/h6,8H,3-5H2,1-2H3	InChI=1S/C7H14O/c1-7(2)4-3-6(8)5-7/h6,8H,3-5H2,1-2H3/t6-/m1/s1
