23
gdb 114323	2.15716	1.35314	1.18318	0.9936	86.86	-0.2393	0.082	0.3213	1250.8623	0.204224	-388.260765	-388.250755	-388.249811	-388.295258	37.398	
C	-0.1812320847	 1.4052548332	 0.1714262921	-0.23698
O	 0.3185396948	 0.1173757956	-0.1091399637	-0.244184
C	 0.7462095168	-0.5732890941	 1.0411169881	 0.088377
C	-0.3087163166	-1.2199499701	 2.0041169029	-0.280722
C	 0.3996590411	-2.5628848434	 1.8017106727	-0.121338
C	 0.3838164425	-2.9720969811	 0.3531986272	-0.041094
C	-0.7655345526	-2.7785545684	-0.6161647287	-0.4176
C	 1.3901598303	-1.9348618422	 0.7915950521	 0.300008
C	 2.8732416476	-2.1200767581	 0.6243509787	-0.503222
H	 0.577788938	 2.036428812	 0.6608850562	 0.102335
H	-0.4598235931	 1.8633031407	-0.7807872742	 0.125443
H	-1.069145996	 1.3726399886	 0.8208708205	 0.107145
H	 1.4318616094	 0.0679791123	 1.6179141385	 0.063974
H	-0.244117692	-0.83317433	 3.0234642093	 0.097823
H	-1.3515774131	-1.1731865317	 1.676132689	 0.099079
H	 0.6176295182	-3.2695535467	 2.5943946705	 0.079793
H	 0.8812021811	-3.9327498179	 0.218716203	 0.07837
H	-1.2156740553	-1.789456309	-0.533724555	 0.132109
H	-0.4141210615	-2.8854810433	-1.6482068677	 0.113825
H	-1.5427708378	-3.5335893959	-0.4494620843	 0.105143
H	 3.2058511904	-1.7747690484	-0.3620211272	 0.125736
H	 3.4370013188	-1.558127605	 1.3785732304	 0.110731
H	 3.1538915436	-3.1745744069	 0.7152645098	 0.115248
92.3465	123.3195	165.2631	172.8591	192.1506	210.8121	229.4637	275.9083	290.7719	374.9981	449.3642	490.727	564.9908	627.5793	736.6269	747.0581	833.9531	877.6423	932.8548	968.2194	978.716	1011.6139	1028.3537	1059.741	1074.3097	1113.061	1123.4433	1135.1566	1155.0874	1176.138	1184.4293	1212.9573	1243.867	1249.1429	1263.4995	1320.3798	1348.5251	1391.8461	1413.5034	1415.6483	1464.5656	1478.2095	1485.3735	1486.6085	1490.9887	1497.7808	1501.4011	1508.1026	1510.9306	2965.7426	2974.0578	3018.3177	3018.6898	3031.4171	3052.8286	3075.7647	3085.9152	3093.0237	3105.326	3107.0385	3112.6369	3148.8055	3174.27
COC1CC2C(C)C12C	CO[C@H]1C[C@H]2[C@@H](C)[C@@]12C	
InChI=1S/C8H14O/c1-5-6-4-7(9-3)8(5,6)2/h5-7H,4H2,1-3H3	InChI=1S/C8H14O/c1-5-6-4-7(9-3)8(5,6)2/h5-7H,4H2,1-3H3/t5-,6+,7+,8-/m1/s1
