20
gdb 57212	2.41449	1.37129	1.06962	5.1603	74.37	-0.2472	0.0186	0.2657	1196.4495	0.170592	-440.307966	-440.298466	-440.297522	-440.343312	35.544	
C	-0.1664482842	 1.4693269229	 0.4587560887	-0.458984
C	 0.0538795045	 0.028552582	 0.0267434468	 0.351697
C	 1.4371612817	-0.3594905777	-0.4610489318	-0.317642
C	 0.9553599031	-0.807357389	 0.8982399185	-0.308387
C	-1.1601277802	-0.5721697631	-0.6856667244	-0.204173
N	-1.4247008473	 0.0977670156	-1.9817608035	-0.538046
H	-0.5994023997	 0.6000620311	-2.2926460543	 0.249608
H	-1.4595157278	-1.576707468	-2.6608450418	 0.307013
H	-2.1860394938	 0.762095171	-1.9202283555	 0.250313
C	-1.092899917	-2.1044004142	-0.9345850059	 0.421211
O	-0.9204215276	-2.9163070296	-0.0620143686	-0.342052
O	-1.2872914337	-2.4403316353	-2.2110703896	-0.369626
H	 0.7375304953	 1.8786107332	 0.9185094778	 0.122392
H	-0.4299573878	 2.1204330561	-0.3826882422	 0.100394
H	-0.9741713846	 1.5372321632	 1.197595341	 0.120085
H	 1.5179594334	-1.1177639676	-1.2338654849	 0.124747
H	 2.1959904679	 0.413898357	-0.519094576	 0.108746
H	 1.3758132384	-0.3155690107	 1.7692753886	 0.104958
H	 0.7139503567	-1.8526752672	 1.0302973394	 0.162799
H	-2.0382664474	-0.4363625997	-0.0424094322	 0.114946
19.8383	67.969	198.383	224.1579	240.7724	265.6536	304.6827	357.1631	372.7774	392.2784	474.8854	546.6102	586.959	701.3224	775.7472	802.4056	843.7305	878.645	890.4618	934.378	950.9667	957.0504	992.8634	1038.4277	1062.5081	1077.2083	1092.6649	1119.6068	1190.8131	1196.6259	1226.0044	1246.1915	1321.616	1350.0631	1372.7993	1419.6595	1447.8959	1473.3961	1493.7027	1500.4232	1510.9066	1644.1948	1853.8197	3022.3919	3039.0159	3078.989	3106.6162	3125.4927	3142.8254	3207.5843	3252.2484	3364.9657	3516.5058	3606.3807
CC1(CC1)C([NH3+])C([O-])=O	CC1(CC1)[C@@H](N)C(=O)O	
InChI=1S/C6H11NO2/c1-6(2-3-6)4(7)5(8)9/h4H,2-3,7H2,1H3,(H,8,9)	InChI=1S/C6H11NO2/c1-6(2-3-6)4(7)5(8)9/h4H,2-3,7H2,1H3,(H,8,9)/t4-/m0/s1
