18
gdb 32683	3.72659	1.25474	0.9927	1.2129	80.65	-0.2042	0.0414	0.2455	1195.3393	0.148945	-401.935322	-401.927284	-401.92634	-401.968481	29.838	
C	 0.2804128231	 1.3464945363	-0.113481585	-0.239317
O	-0.2902218276	 0.1335994129	 0.329619554	-0.225368
C	 0.5506106334	-0.5786792309	 1.1967109668	-0.06651
C	-0.0040574319	-2.0197570235	 1.4810316414	-0.199827
N	 1.2284043271	-2.5255251774	 0.8535327334	 0.01728
C	 2.1318455401	-3.518419679	 0.620646329	-0.156204
C	 3.2792292097	-2.8752874845	 0.1722396358	-0.125606
C	 3.0684898974	-1.4612531234	 0.1822304279	-0.339532
C	 1.7690320756	-1.296843329	 0.6135472635	 0.334554
H	 1.2065698448	 1.1715752906	-0.6797803943	 0.118744
H	-0.4508920305	 1.8282144493	-0.7661372214	 0.129867
H	 0.5066712272	 2.0201161032	 0.7280474825	 0.104463
H	 0.7578154738	 0.0129220029	 2.1013733717	 0.0811
H	-0.1089172569	-2.284449674	 2.5367350876	 0.125294
H	-0.9181830164	-2.2555967654	 0.9312363848	 0.133238
H	 1.9090819002	-4.5652110003	 0.7476433644	 0.119346
H	 4.1806213095	-3.3758127098	-0.1503193131	 0.093647
H	 3.7841738114	-0.703548358	-0.0952009188	 0.094831
76.7568	97.4791	134.81	206.4998	244.5246	377.0714	437.9094	528.0831	605.3761	662.9342	708.2825	764.4592	767.9961	791.4372	831.3675	870.7657	928.5216	1000.6778	1034.9326	1056.5456	1073.9	1108.1599	1147.9884	1158.7017	1182.1279	1224.5684	1234.8453	1238.8062	1266.9723	1308.606	1366.3331	1402.4592	1454.3574	1465.8007	1482.2456	1486.4906	1508.8176	1513.4787	1564.8012	2977.0026	2989.0498	3032.6026	3058.9284	3119.9528	3121.4513	3236.1046	3256.9985	3271.2307
COC1CN2C=CC=C12	CO[C@H]1Cn2cccc12	
InChI=1S/C7H9NO/c1-9-7-5-8-4-2-3-6(7)8/h2-4,7H,5H2,1H3	InChI=1S/C7H9NO/c1-9-7-5-8-4-2-3-6(7)8/h2-4,7H,5H2,1H3/t7-/m0/s1
