19
gdb 84085	2.52966	1.46935	1.185	1.6549	72.84	-0.2557	-0.0008	0.2549	1112.1159	0.159695	-460.175126	-460.1664	-460.165456	-460.208073	33.945	
C	-0.5110240114	 1.4896001044	 0.1346828556	-0.502932
C	-0.1911009977	 0.0362062005	 0.0018563254	 0.305198
C	-0.2796604057	-0.7384458828	-1.0856042984	-0.167402
C	 0.2114693703	-2.137957045	-0.8225393153	 0.036947
O	 1.5812781558	-2.2447703394	-1.2259555813	-0.449951
C	 0.1331735993	-2.2231854884	 0.726319243	 0.08888
O	 1.0805674192	-3.1213366076	 1.2636833408	-0.453537
C	 0.3890470758	-0.7584401139	 1.1553700305	-0.006837
O	 1.799872949	-0.5377227978	 1.3051368334	-0.452643
H	 0.3693656907	 2.0434851963	 0.4814442083	 0.143356
H	-0.841178301	 1.9215840343	-0.8134882329	 0.127415
H	-1.2983642203	 1.6542569802	 0.8809192887	 0.130861
H	-0.6139668306	-0.4075297549	-2.0628990279	 0.101001
H	-0.386810049	-2.9130238329	-1.3208082185	 0.068637
H	 1.9164965762	-3.0049332974	-0.7263898052	 0.282487
H	-0.8719237854	-2.5361389668	 1.029867338	 0.086772
H	 1.786760318	-2.5555214986	 1.6148623281	 0.289559
H	-0.0432316728	-0.5114605972	 2.1294722291	 0.085005
H	 2.1761499395	-0.6646800831	 0.4205750786	 0.287184
109.1904	147.0793	183.6903	231.3585	272.62	300.988	311.5397	430.4026	476.1137	491.3588	522.6103	551.7857	608.3851	670.0356	730.0549	800.3857	862.2655	888.6597	904.7823	920.8351	986.945	1026.9513	1060.2979	1069.749	1092.3988	1120.3929	1168.841	1227.5431	1272.6237	1279.0826	1296.8071	1318.5109	1345.104	1364.4128	1408.3123	1421.2601	1437.041	1452.0159	1477.203	1487.413	1707.9618	3007.481	3024.0032	3050.7081	3074.8454	3075.9843	3116.8032	3191.5129	3684.4504	3715.5557	3721.8652
CC1=CC(O)C(O)C1O	CC1=C[C@@H](O)[C@@H](O)[C@H]1O	
InChI=1S/C6H10O3/c1-3-2-4(7)6(9)5(3)8/h2,4-9H,1H3	InChI=1S/C6H10O3/c1-3-2-4(7)6(9)5(3)8/h2,4-9H,1H3/t4-,5+,6-/m1/s1
