23
gdb 101383	3.40514	0.93591	0.77061	1.2967	86.65	-0.2351	0.0299	0.265	1513.9917	0.205789	-388.301658	-388.291901	-388.290957	-388.336377	36.723	
C	 0.0008868268	 1.530929979	 0.0746462292	-0.399737
C	-0.0425547725	-0.0027789618	 0.0131411456	 0.016666
C	-1.4932027805	-0.492555759	 0.0098067825	-0.080808
O	-2.1251842316	-0.0383973276	 1.1999565461	-0.424107
C	 0.7301586094	-0.5558584769	-1.1948165031	 0.04243
C	 2.2218028808	-0.1178068897	-1.2627379311	-0.275807
C	 2.9089586881	-1.3011825169	-1.8992776583	-0.06489
C	 2.1277777709	-2.3787817621	-1.9208766841	-0.068778
C	 0.7770056309	-2.1084520288	-1.3031380253	-0.275653
H	 1.0232493238	 1.9005141935	 0.1931995942	 0.110596
H	-0.4073408574	 1.967552767	-0.8457134962	 0.103471
H	-0.5966638619	 1.8947867181	 0.9128288279	 0.132656
H	 0.423178409	-0.3999853397	 0.9272104053	 0.076535
H	-2.00703974	-0.1021075661	-0.8857201579	 0.079339
H	-1.5219883083	-1.5905732339	-0.0474418533	 0.08627
H	-3.0427521901	-0.3240346529	 1.1803576197	 0.2851
H	 0.2442388432	-0.1817560038	-2.1067651011	 0.06986
H	 2.3591407039	 0.8126978923	-1.8243654778	 0.102663
H	 2.6320196224	 0.0683981639	-0.2583777358	 0.103877
H	 3.9344552343	-1.2619688425	-2.2504848978	 0.088666
H	 2.4153518964	-3.3563938915	-2.292501427	 0.088286
H	 0.7062018691	-2.5840077228	-0.3123896129	 0.10379
H	-0.0520471366	-2.5130918477	-1.8948671888	 0.099573
78.5412	93.1164	127.4142	161.313	228.4239	243.0346	277.0512	329.5851	375.7299	401.0563	402.1938	501.1549	631.6106	724.1304	780.8843	827.2109	876.2273	920.4509	929.289	950.0326	968.3053	974.9451	982.6082	1025.0246	1050.8309	1077.5114	1111.7462	1128.6918	1138.2213	1158.702	1173.2365	1206.6351	1255.8289	1272.0058	1292.3672	1299.2063	1328.3378	1330.8885	1358.6673	1373.4214	1386.5189	1402.3147	1458.9993	1484.9385	1492.6136	1495.0163	1505.9599	1520.8224	1690.559	2952.7766	2988.0915	2990.9536	2993.1532	3002.7789	3015.4309	3029.5255	3050.2654	3058.0932	3098.3337	3132.1187	3177.8387	3203.7696	3834.6207
CC(CO)C1CC=CC1	C[C@@H](CO)[C@H]1CC=CC1	
InChI=1S/C8H14O/c1-7(6-9)8-4-2-3-5-8/h2-3,7-9H,4-6H2,1H3	InChI=1S/C8H14O/c1-7(6-9)8-4-2-3-5-8/h2-3,7-9H,4-6H2,1H3/t7-/m0/s1
