18
gdb 49445	4.44768	1.26302	1.14992	2.266	76.13	-0.2394	-0.0331	0.2062	1085.5197	0.14908	-401.891978	-401.884782	-401.883838	-401.92397	27.955	
O	-0.7714292788	 0.6557788469	 0.539688526	-0.244236
C	 0.1567114325	 0.864871658	-0.2009480207	 0.128214
C	 1.2543715904	 1.8654032649	 0.0566410271	-0.033818
C	 1.5020129665	 2.4639002768	 1.4423207258	-0.088934
C	 2.082566184	 1.080750108	 1.8500994896	 0.028487
C	 3.2699744355	 1.2409829203	 2.7872366843	-0.241507
C	 3.9499643609	 2.4615054129	 2.1104604077	-0.244168
C	 2.9677779329	 2.6705781929	 0.96873493	 0.03421
N	 2.6326303294	 1.2621816949	 0.403978591	-0.191931
H	 0.2593147156	 0.318882022	-1.1666053312	 0.085505
H	 1.3243507683	 2.5384503797	-0.8095805548	 0.086963
H	 0.8649750369	 3.1376076798	 2.0237033551	 0.072453
H	 1.4178791775	 0.2300078952	 1.9913013776	 0.093234
H	 2.9538399615	 1.4342634243	 3.8162321939	 0.107293
H	 3.9029319377	 0.3496019372	 2.7888812706	 0.114344
H	 4.0136194352	 3.3394998632	 2.7596095071	 0.105909
H	 4.9543018726	 2.2382685491	 1.7409292397	 0.11437
H	 3.1954750516	 3.4187846739	 0.2064915211	 0.073613
70.2518	155.0853	218.6926	248.7386	352.6159	415.6226	649.7339	688.6664	723.4143	740.377	770.8597	802.8235	824.6655	878.1683	917.5821	945.2521	974.6858	991.6324	1008.8823	1020.3859	1050.2231	1071.4875	1101.8121	1115.0836	1147.1115	1174.4111	1207.5793	1246.0149	1252.1195	1261.6437	1271.5879	1303.3735	1319.0011	1371.9904	1406.1692	1423.163	1477.8434	1499.3289	1822.6795	2874.3723	3014.0726	3056.6432	3056.985	3065.24	3096.0283	3099.9306	3114.1235	3140.525
O=CC1C2C3CCC2N13	O=C[C@H]1[C@H]2[C@@H]3CC[C@H]2N13	
InChI=1S/C7H9NO/c9-3-6-7-4-1-2-5(7)8(4)6/h3-7H,1-2H2	InChI=1S/C7H9NO/c9-3-6-7-4-1-2-5(7)8(4)6/h3-7H,1-2H2/t4-,5+,6-,7-/m0/s1
