18
gdb 72573	2.4888	1.88581	1.46739	1.6491	70.08	-0.2256	-0.0273	0.1983	945.1888	0.149887	-439.099388	-439.092128	-439.091184	-439.130714	29.625	
O	 0.0886927778	 1.3853916821	-0.0337749643	-0.501217
C	 0.0276955464	-0.0001394394	-0.0594446906	 0.334784
C	 0.6512880204	-0.695174005	-1.3075273244	-0.284977
C	 0.018553076	-2.1163469594	-1.2228911693	-0.176765
N	-0.8186234614	-2.1173607642	 0.0132549544	-0.100148
C	 0.0971268973	-2.07828693	 1.1796368567	-0.297046
C	 0.6810293002	-0.6594450904	 1.1485414587	 0.360467
O	 1.4371332706	-0.1074586172	 1.9084895145	-0.347073
C	-1.3454000848	-0.7285748672	 0.0015183137	-0.245945
H	 0.703070135	 1.6144378521	 0.6809397976	 0.289884
H	 0.3440482267	-0.1428031674	-2.1998771871	 0.119124
H	 1.7439256608	-0.7001115519	-1.2776520419	 0.114306
H	-0.6318494096	-2.3198034031	-2.077615308	 0.115178
H	 0.7568275033	-2.9194260094	-1.1705447145	 0.11066
H	-0.469258659	-2.2222656946	 2.1072319207	 0.14033
H	 0.8638848126	-2.8556246675	 1.1335724008	 0.136531
H	-1.9192960746	-0.5113600817	 0.9064004343	 0.114973
H	-1.9704766677	-0.548473656	-0.8764560314	 0.116934
125.2195	213.0129	280.4009	344.9098	409.4361	416.711	441.4547	502.0364	552.3395	598.323	645.9415	716.3664	747.4665	816.3451	844.8905	898.9557	946.4611	958.8783	983.6645	1006.0311	1027.4964	1075.7984	1092.2444	1119.4136	1184.7596	1207.2395	1233.7897	1250.0669	1266.5871	1287.2795	1296.3505	1335.4827	1362.1215	1411.3438	1451.9553	1494.0773	1499.6228	1519.9794	1847.6704	3044.6005	3058.085	3062.5356	3068.3073	3099.0349	3107.329	3118.604	3121.9361	3700.0692
OC12CCN(CC1=O)C2	O[C@@]12CCN(CC1=O)C2	
InChI=1S/C6H9NO2/c8-5-3-7-2-1-6(5,9)4-7/h9H,1-4H2	InChI=1S/C6H9NO2/c8-5-3-7-2-1-6(5,9)4-7/h9H,1-4H2/t6-/m1/s1
