17
gdb 123542	4.11876	1.55521	1.36241	2.8786	78.04	-0.2062	0.0304	0.2367	952.1946	0.141448	-380.842798	-380.836696	-380.835751	-380.87317	25.586	
C	-0.0412636109	 1.5811020731	-0.0471973304	-0.205971
C	 1.521168452	 1.3648974267	-0.0040593665	-0.168459
C	 1.186639954	 0.1753561107	 0.9772114996	-0.205971
C	-0.0626311913	 0.0079113659	 0.0322355583	-0.176293
C	 0.6401300791	-0.3332286468	-1.2782211372	 0.268707
C	 1.6813046293	 0.5707881554	-1.285749534	 0.410278
N	 2.3859245251	 0.3668142342	-2.4101560519	-0.381357
N	 1.8575430081	-0.6405237778	-3.1590599942	-0.237965
C	 0.7904075956	-1.065670175	-2.4632177335	-0.221213
H	-0.4200044178	 2.0627133608	 0.8599072794	 0.096815
H	-0.4607665843	 2.0472758355	-0.9412061238	 0.103417
H	 2.2179120061	 2.160542204	 0.2526062822	 0.072742
H	 1.8973252484	-0.6523457184	 1.0260861808	 0.103418
H	 0.9231965736	 0.5249639567	 1.9805086834	 0.096814
H	-0.9493260153	-0.5411510261	 0.3416215092	 0.071743
H	 3.2074228593	 0.8364190173	-2.7505099401	 0.268174
H	 0.1982146289	-1.8751290562	-2.8640411112	 0.10512
121.1334	303.1718	406.2617	475.9305	513.5787	520.9832	665.4944	671.5441	690.7036	751.0143	800.913	828.4362	862.0925	883.5699	895.7568	971.1359	1000.816	1003.8142	1027.5076	1069.6391	1076.4763	1084.4249	1098.4058	1142.5449	1217.9182	1220.3601	1226.0688	1227.5855	1266.4502	1275.9424	1323.1217	1360.9466	1467.5965	1477.919	1511.0868	1551.8422	1558.1093	3044.0801	3054.0519	3119.6455	3123.8748	3136.3969	3142.1779	3243.767	3674.2051
C1C2CC1C1=C2NN=C1	C1[C@H]2C[C@@H]1c1c2[nH]nc1	
InChI=1S/C7H8N2/c1-4-2-5(1)7-6(4)3-8-9-7/h3-5H,1-2H2,(H,8,9)	InChI=1S/C7H8N2/c1-4-2-5(1)7-6(4)3-8-9-7/h3-5H,1-2H2,(H,8,9)/t4-,5+
