21
gdb 80652	2.54658	1.67993	1.25797	1.7555	83.38	-0.2272	0.0106	0.2378	1090.9825	0.183543	-387.087015	-387.078791	-387.077846	-387.119302	32.874	
C	-0.0517364673	 1.5503457908	-0.0153054735	-0.403844
C	 0.0213611484	 0.0141945575	 0.0124588159	-0.070344
C	 0.722997107	-0.5070060259	-1.2577977797	 0.08627
C	 1.0561849522	-2.0116353711	-1.1960903642	-0.255878
C	 2.2778655146	-1.4658229099	-0.4165910605	 0.047158
O	 2.1451267378	-0.205227711	-1.1499612469	-0.296375
C	 1.8757567953	-1.2358412801	 1.0221897972	-0.167391
C	 0.7691834753	-0.5175464849	 1.2369114237	 0.315736
C	 0.222116742	-0.2164913108	 2.6024598745	-0.484554
H	 0.9566604639	 1.9670348612	-0.0892853606	 0.137528
H	-0.6286447517	 1.891849576	-0.8816543967	 0.109661
H	-0.5305960258	 1.9540991262	 0.8807784293	 0.112014
H	-1.0055948216	-0.3823789798	 0.031427025	 0.073073
H	 0.2819352764	-0.0971909188	-2.1717982634	 0.069088
H	 0.3753222012	-2.6906255946	-0.6795009769	 0.097218
H	 1.3280896729	-2.3985547908	-2.179937406	 0.105135
H	 3.2618520681	-1.9196105683	-0.5486618915	 0.07233
H	 2.455145946	-1.6690002765	 1.8319855886	 0.081514
H	 0.7980037801	-0.7252706463	 3.3803841136	 0.121053
H	 0.2392332279	 0.857766572	 2.8219526318	 0.130381
H	-0.8248818227	-0.5352877448	 2.6881333503	 0.120227
115.6044	185.6215	208.1556	222.6332	277.551	346.3607	395.8592	403.4909	467.3365	551.6267	614.1457	646.6298	756.6561	817.1338	828.7849	867.7812	899.7996	918.7206	923.5046	973.617	1001.8017	1021.3942	1046.749	1057.501	1080.2832	1094.7209	1114.6101	1137.8289	1190.8798	1211.6776	1246.8017	1293.8026	1304.402	1311.3986	1339.5275	1351.8461	1374.5676	1402.1326	1414.2489	1476.9247	1484.4223	1490.0402	1499.8631	1505.247	1713.3404	2987.4247	3017.9599	3037.0809	3058.8157	3066.7399	3072.2989	3095.423	3103.7773	3109.274	3123.706	3135.1195	3171.2013
CC1C2CC(O2)C=C1C	C[C@H]1[C@@H]2C[C@@H](O2)C=C1C	
InChI=1S/C8H12O/c1-5-3-7-4-8(9-7)6(5)2/h3,6-8H,4H2,1-2H3	InChI=1S/C8H12O/c1-5-3-7-4-8(9-7)6(5)2/h3,6-8H,4H2,1-2H3/t6-,7+,8+/m1/s1
