15
gdb 16847	4.43388	1.88368	1.4263	3.5696	69.25	-0.2328	-0.0482	0.1846	842.5321	0.120699	-362.665461	-362.65895	-362.658006	-362.69659	24.874	
O	-0.0872556348	 0.0135421406	-0.6190995868	-0.335804
C	-0.035389595	 1.178546968	-0.2772475774	 0.367718
C	-1.3188443119	 1.9314807107	 0.1136207526	-0.358599
C	-1.1951456961	 3.4492977079	 0.0595077047	-0.011956
C	-0.748247413	 4.2750616239	 1.2272547502	-0.25059
N	 0.1311616902	 4.0624787455	 0.0694223078	-0.086313
C	 1.2393392282	 3.2279700378	 0.1730321022	-0.009372
C	 1.2213522315	 1.910578244	-0.1061014457	-0.186788
H	-2.1151913039	 1.5894156881	-0.5509690604	 0.136919
H	-1.5877960527	 1.583239099	 1.1180776	 0.135525
H	-1.8633895005	 3.941590433	-0.6429775547	 0.111293
H	-1.1199835215	 5.2870147362	 1.3576705328	 0.130686
H	-0.493584953	 3.7475656885	 2.1434924452	 0.128552
H	 2.1594668491	 3.7471571239	 0.4329318728	 0.121341
H	 2.1389729635	 1.3367153729	-0.1585234232	 0.107389
50.7488	198.1845	343.8878	412.973	446.2497	459.397	534.371	623.7893	702.7261	764.8295	814.3782	844.4981	907.181	925.8016	951.9083	987.0764	1053.9034	1067.3056	1095.4471	1121.083	1171.6504	1197.1606	1219.0495	1248.2546	1307.3958	1355.5223	1406.3118	1432.9064	1462.1221	1501.6058	1646.5702	1771.5976	3042.3801	3106.3536	3107.7928	3134.611	3152.6076	3202.8578	3208.4007
O=C1CC2CN2C=C1	O=C1C[C@H]2CN2C=C1	
InChI=1S/C6H7NO/c8-6-1-2-7-4-5(7)3-6/h1-2,5H,3-4H2	InChI=1S/C6H7NO/c8-6-1-2-7-4-5(7)3-6/h1-2,5H,3-4H2/t5-,7?/m0/s1
