19
gdb 90653	3.31199	1.15254	1.05183	4.4859	77.32	-0.2465	-0.0147	0.2318	1194.4428	0.157901	-423.005969	-422.997083	-422.996139	-423.039293	33.638	
C	-0.0958416653	 1.5859925994	 0.0516010762	-0.476058
C	 0.0083171886	 0.0775544924	 0.1394412404	 0.224842
C	-1.2189489529	-0.6489456351	-0.3008641397	 0.126697
O	-2.224435937	-0.1193665385	-0.7035406961	-0.27381
C	 1.2504467209	-0.7384722485	-0.1883091355	-0.097026
C	 2.5197348983	 0.0126928427	 0.2276880508	-0.305467
C	 2.0088863348	-0.049710348	 1.7117571715	 0.104868
O	 1.8454936879	 1.132695721	 2.460145742	-0.423088
C	 0.717910639	-0.7088916021	 1.2400087649	-0.113258
H	 0.743853701	 2.0840595241	 0.53183155	 0.134344
H	-0.1606193726	 1.9027435156	-0.9943053299	 0.119711
H	-1.0126354304	 1.9171352218	 0.5465756215	 0.134467
H	-1.1432299172	-1.7607301169	-0.2351948731	 0.063065
H	 1.2172247161	-1.5565289005	-0.8979331846	 0.097282
H	 3.4357212677	-0.5615126666	 0.0724804396	 0.1072
H	 2.6470603132	 1.0114175588	-0.1964256875	 0.111107
H	 2.6035874335	-0.7839175424	 2.2717849992	 0.083865
H	 2.7111022156	 1.4170960491	 2.7708735691	 0.287128
H	 0.1911912689	-1.4776493563	 1.7937332713	 0.094133
102.4401	120.455	181.1651	208.665	253.4534	281.5918	303.9476	370.1946	401.7223	431.7563	514.6915	606.3303	691.3982	749.6663	798.0764	854.8376	873.3898	943.8109	981.1774	999.2275	1020.0795	1039.1271	1051.408	1069.7627	1099.4951	1115.8887	1158.122	1189.6129	1221.2719	1243.9948	1267.7683	1315.3515	1324.2379	1388.8452	1419.5088	1429.0965	1444.6938	1482.1782	1492.0687	1502.3438	1821.4713	2844.4462	3006.7066	3052.2747	3066.6678	3112.7534	3119.4309	3170.7017	3172.5923	3184.2364	3816.3047
CC1(C=O)C2CC(O)C12	C[C@@]1(C=O)[C@H]2C[C@@H](O)[C@@H]12	
InChI=1S/C7H10O2/c1-7(3-8)4-2-5(9)6(4)7/h3-6,9H,2H2,1H3	InChI=1S/C7H10O2/c1-7(3-8)4-2-5(9)6(4)7/h3-6,9H,2H2,1H3/t4-,5+,6-,7+/m0/s1
