13
gdb 16918	4.04672	2.33272	2.12441	2.5532	57.95	-0.2653	-0.0279	0.2374	675.4613	0.097876	-398.59207	-398.586623	-398.585679	-398.621468	22.048	
N	-0.0718139807	 1.2520310478	 0.0185196655	-0.557064
C	-0.0182751506	-0.0054510972	 0.0025905667	 0.462166
O	 1.0944775416	-0.803203227	 0.0003412749	-0.267993
C	 0.5294327538	-2.1671321991	-0.0035804997	 0.134135
O	-0.6002425847	-2.0226897582	-0.8199537863	-0.222373
C	-1.1977073616	-0.9868824501	-0.007921244	-0.098622
C	-1.1689479462	-1.6252005062	 1.3853582127	-0.087781
C	-0.0742174868	-2.3850926445	 1.3854167246	-0.082373
H	 0.8661450251	 1.6568720314	 0.0348863299	 0.22886
H	 1.2678884509	-2.8524169951	-0.4098023725	 0.111603
H	-2.1321241005	-0.6180414942	-0.4173156167	 0.119542
H	-1.8458639483	-1.3866782143	 2.192098327	 0.133639
H	 0.3803772682	-2.9471743532	 2.1875833678	 0.126262
165.6428	380.3007	432.7893	487.703	609.1654	672.4081	699.7065	746.3975	785.3743	835.3737	858.9073	877.5576	886.0907	914.4921	931.6497	945.4081	994.0658	1028.0779	1080.348	1153.268	1212.1158	1243.003	1254.7369	1312.053	1331.5124	1347.5298	1633.3995	1802.1007	3176.7815	3192.8248	3238.7632	3263.3468	3469.5887
N=C1OC2OC1C=C2	[NH][C]1O[C@@H]2O[C@H]1C=C2	
InChI=1S/C5H5NO2/c6-5-3-1-2-4(7-3)8-5/h1-4,6H	InChI=1S/C5H5NO2/c6-5-3-1-2-4(7-3)8-5/h1-4,6H/t3-,4-/m0/s1
