16
gdb 8117	3.28098	1.94103	1.52963	1.968	60.02	-0.2301	0.0565	0.2866	847.27	0.129628	-420.831717	-420.824028	-420.823084	-420.863113	29.899	
O	-0.0821604971	 1.4175379701	-0.0376752179	-0.441832
C	-0.1306448911	 0.0233647565	 0.00740939	 0.054124
C	-0.4711615166	-0.7792732801	 1.2378945026	-0.185386
C	-1.5634558282	-0.0736234225	 2.0279202135	 0.101498
O	-1.1291183906	 1.178536793	 2.5582366296	-0.435036
C	-2.496108168	-0.0559606357	 0.7689986488	-0.342636
C	-1.3936255472	-0.7821711915	-0.0081093767	 0.339689
O	-1.6228300912	-1.8394917424	-0.8686992369	-0.457605
H	-0.2832061226	 1.7342987904	 0.8543530077	 0.295536
H	 0.6616830185	-0.4318849035	-0.5846855419	 0.099761
H	 0.1903319683	-1.5405610218	 1.6329516313	 0.093284
H	-1.974010771	-0.6994199452	 2.8283228881	 0.0868
H	-1.892132604	 1.6339731713	 2.9295553936	 0.290984
H	-3.387776095	-0.670745789	 0.905997125	 0.109983
H	-2.7753489299	 0.9329574195	 0.3925024335	 0.100464
H	-1.6251371342	-1.4998331789	-1.7704451602	 0.290372
154.6696	201.2734	214.9491	289.9625	300.3009	354.1507	404.8814	437.9007	495.6015	527.7189	586.3088	678.3899	744.9358	813.6665	858.3855	917.8826	960.9727	979.7559	1002.7836	1059.7682	1081.0622	1134.3848	1153.4859	1198.9678	1221.6303	1240.9454	1258.1902	1316.9397	1323.9835	1341.1672	1396.9085	1434.039	1460.365	1493.5702	3034.3963	3052.555	3121.6838	3129.5855	3187.6595	3725.7675	3796.1452	3812.6421
OC1C2C(O)CC12O	O[C@H]1[C@H]2[C@@H](O)C[C@@]12O	
InChI=1S/C5H8O3/c6-2-1-5(8)3(2)4(5)7/h2-4,6-8H,1H2	InChI=1S/C5H8O3/c6-2-1-5(8)3(2)4(5)7/h2-4,6-8H,1H2/t2-,3+,4-,5-/m0/s1
