18
gdb 64183	2.18258	1.52863	1.35885	4.8644	72.	-0.2767	0.0061	0.2829	1067.2176	0.144438	-439.082066	-439.072375	-439.071431	-439.11687	35.475	
C	-0.2770974562	 1.5125017332	-0.0192330295	-0.465755
C	 0.0179759809	 0.0218716268	-0.0839901671	 0.30638
O	-1.0807881458	-0.70586537	-0.5686341503	-0.449173
C	 1.297056866	-0.3990159816	-0.8305162642	-0.099002
O	 1.9351013742	-0.8386096022	 0.3900394833	-0.301693
C	 0.7505141129	-0.6107509451	 1.1802113755	 0.17401
C	 1.0491106388	 0.2431793849	 2.4072388736	-0.440941
C	 0.125862042	-1.8790266282	 1.5976095354	 0.278822
N	-0.3772853135	-2.8534035904	 1.9621802991	-0.340295
H	 0.6036237998	 2.0969747541	 0.2567522936	 0.133038
H	-0.6185438852	 1.8485091786	-1.0027181988	 0.139604
H	-1.0683568905	 1.728198413	 0.7083185977	 0.121203
H	-1.8538959968	-0.5167755755	-0.0244676386	 0.287846
H	 1.1246031487	-1.2239223526	-1.5289428522	 0.128842
H	 1.8664209408	 0.3979957894	-1.3193527615	 0.110477
H	 1.5312215161	 1.1758014614	 2.1097497125	 0.13048
H	 0.133127598	 0.4680971691	 2.9616296645	 0.133926
H	 1.7274606598	-0.2983754149	 3.0719289971	 0.152233
25.4849	144.8031	183.6471	202.4964	225.5334	256.9286	289.3368	310.1668	349.5379	378.341	414.1254	460.3343	547.8639	596.0381	638.7342	676.6515	880.4532	899.1479	911.5679	941.7559	982.7967	1021.6563	1110.7065	1121.5406	1147.0575	1155.599	1177.8724	1208.6001	1271.0524	1329.3568	1393.4445	1399.7411	1412.1408	1470.6135	1482.722	1491.3473	1499.9397	1518.2379	2351.9387	3033.9373	3041.2161	3050.8267	3096.8819	3104.5625	3124.1111	3126.073	3143.6866	3800.1316
CC1(O)COC1(C)C#N	C[C@@]1(O)CO[C@]1(C)C#N	
InChI=1S/C6H9NO2/c1-5(8)4-9-6(5,2)3-7/h8H,4H2,1-2H3	InChI=1S/C6H9NO2/c1-5(8)4-9-6(5,2)3-7/h8H,4H2,1-2H3/t5-,6-/m1/s1
