20
gdb 97931	2.80555	0.84849	0.74672	1.0186	83.93	-0.2263	0.0297	0.256	1588.179	0.168956	-403.075464	-403.065095	-403.064151	-403.112359	36.517	
C	 1.7572413928	 1.2414560975	 0.8600661618	-0.427008
C	 0.7402554641	 0.3048491624	 0.2440600861	 0.039477
C	 0.8061172937	-1.1734746861	 0.4374833502	-0.252727
N	-0.2921721056	-0.401725525	 1.0074716052	-0.092584
C	-0.4332455485	-0.2476060384	 2.4607794179	-0.28926
C	 0.709020006	-0.5698187103	 3.321759684	 0.052081
C	 1.6469641715	-0.8773426233	 4.0154279615	 0.045071
C	 2.8135898711	-1.1491326952	 4.8537824055	-0.197146
O	 3.8470280948	-0.1831743373	 4.7064562118	-0.400652
H	 2.221575261	 0.8255308649	 1.7554094626	 0.142241
H	 2.5488356553	 1.4508430221	 0.1323956934	 0.121697
H	 1.297283639	 2.2012896644	 1.1236665697	 0.11531
H	 0.3523180707	 0.6612523618	-0.7104662448	 0.088515
H	 0.5352717338	-1.8600034554	-0.3611315398	 0.109553
H	 1.5734661912	-1.5402870823	 1.1164632693	 0.120698
H	-0.7586735367	 0.7821129624	 2.6538408976	 0.134524
H	-1.271655202	-0.8889318301	 2.762653025	 0.140975
H	 2.4955415183	-1.2408807529	 5.9045918309	 0.119825
H	 3.2643640958	-2.1087499538	 4.5777400929	 0.141851
H	 3.4542629736	 0.6820947346	 4.8625248892	 0.287559
30.8494	47.1079	88.9498	148.1031	184.8234	212.5621	262.8165	303.2655	327.0609	356.9773	410.5518	453.1921	521.6871	605.1456	738.5922	772.1917	777.4397	907.9902	936.5018	983.7189	994.0089	1038.6007	1045.6391	1076.3996	1123.8314	1131.2733	1157.2992	1167.5151	1193.4802	1213.8695	1285.6749	1329.8626	1358.6167	1364.2271	1404.9586	1416.8675	1424.3239	1464.0973	1490.496	1495.5399	1502.303	1510.3157	2344.4779	2978.5573	3018.767	3031.9923	3050.3333	3064.0219	3086.1107	3094.6362	3096.6323	3142.9102	3179.8237	3815.9902
CC1CN1CC#CCO	C[C@H]1CN1CC#CCO	
InChI=1S/C7H11NO/c1-7-6-8(7)4-2-3-5-9/h7,9H,4-6H2,1H3	InChI=1S/C7H11NO/c1-7-6-8(7)4-2-3-5-9/h7,9H,4-6H2,1H3/t7-,8?/m0/s1
