20
gdb 22372	3.04253	1.17873	1.00277	1.0581	83.53	-0.2372	0.008	0.2452	1255.6648	0.169909	-403.089061	-403.080202	-403.079258	-403.122677	34.137	
C	-0.4055751725	 1.5482804955	 0.1016177726	-0.492739
C	 0.0291803904	 0.1027669055	 0.0230868426	 0.372766
C	-1.0667313525	-1.0002231399	 0.0927094839	-0.279251
C	-0.2889288532	-1.7293206642	 1.2275598736	-0.220768
C	 0.8284661895	-0.642674958	 1.1802242153	-0.177808
C	 1.9131013841	-0.9204151895	 0.1716147514	 0.437483
C	 1.1839482811	-0.2430851689	-0.9730214773	-0.386533
N	 3.0439760451	-1.4691115504	 0.3296123475	-0.247589
O	 3.7589536156	-1.5015149345	-0.8853466919	-0.395144
H	 0.4525840263	 2.2186572635	 0.2242087225	 0.116854
H	-0.9329941475	 1.8485273877	-0.8124132829	 0.118759
H	-1.0847957454	 1.7157984804	 0.9449705778	 0.114566
H	-2.0397498982	-0.6181772591	 0.4136411488	 0.099856
H	-1.215228604	-1.5670720239	-0.8308001599	 0.098158
H	-0.8239860298	-1.7374705708	 2.1797959481	 0.105778
H	 0.0457502377	-2.7470041056	 1.0152605649	 0.11073
H	 1.122533501	-0.1815302641	 2.124488579	 0.078541
H	 0.9260202474	-0.8778482388	-1.8266377992	 0.117966
H	 1.7242205415	 0.6311502643	-1.3532030243	 0.123658
H	 4.5868532436	-1.9159773892	-0.6203319725	 0.304717
51.1573	144.9768	183.6814	232.3683	249.3214	316.2769	353.087	376.4974	394.4179	472.2446	537.5422	615.3697	650.1063	742.7825	783.8229	830.7687	882.2164	903.2977	939.7595	944.292	956.5708	993.1576	1008.5765	1049.9451	1101.9002	1131.9799	1140.9674	1188.745	1215.4632	1231.4689	1241.1413	1245.5074	1271.1173	1290.7336	1332.5091	1402.7779	1414.5292	1454.4099	1478.7755	1491.2408	1493.3742	1498.6481	1776.0116	3017.8428	3040.5596	3050.8535	3066.6215	3080.8123	3086.0004	3090.9161	3094.811	3098.7992	3121.9187	3818.5727
CC12CCC1C(C2)=NO	C[C@]12CC[C@H]1C(=NO)C2	
InChI=1S/C7H11NO/c1-7-3-2-5(7)6(4-7)8-9/h5,9H,2-4H2,1H3	InChI=1S/C7H11NO/c1-7-3-2-5(7)6(4-7)8-9/h5,9H,2-4H2,1H3/t5-,7+/m0/s1
