16
gdb 128718	4.99711	0.94007	0.80851	1.3315	67.79	-0.248	-0.0124	0.2356	1393.1846	0.124822	-471.19187	-471.183102	-471.182158	-471.226181	30.464	
C	-0.2741888817	 1.4574187438	-0.3183649632	-0.244384
O	-1.1486505265	 0.4646491206	-0.867230047	-0.243574
C	-1.5147399902	-0.4970563497	-0.0346691525	 0.456796
N	-1.1252956327	-0.5864469253	 1.2161777578	-0.241979
O	-1.7865888988	-1.7555264891	 1.6496800728	-0.210463
C	-2.4776085851	-2.2134670196	 0.6028047783	 0.466104
C	-3.2492741747	-3.4829814461	 0.7553514493	-0.2749
N	-4.4574469931	-3.4315795012	-0.0631834918	-0.509062
N	-2.3570037404	-1.4898234811	-0.4677445653	-0.382012
H	-0.0825591467	 2.1617278764	-1.1273777727	 0.140871
H	-0.7502488243	 1.9643885084	 0.5260885159	 0.147357
H	 0.6603514144	 1.0013154271	 0.0215007756	 0.146047
H	-2.5585014249	-4.3110146949	 0.5115833393	 0.121458
H	-3.5148238254	-3.600082896	 1.8115508635	 0.140766
H	-4.2115538696	-3.1263571296	-1.0001509076	 0.252174
H	-4.8560880704	-4.3609527436	-0.1426203224	 0.234801
50.6	98.7658	154.2853	171.1287	211.2993	230.6477	281.3979	378.9439	438.5408	503.3141	654.1793	704.581	756.3555	783.685	857.5487	941.362	1017.9037	1023.3376	1039.4638	1095.8347	1109.996	1179.1881	1181.603	1225.4857	1277.8806	1296.6465	1405.8427	1449.4268	1479.0781	1481.8588	1499.7431	1501.4153	1604.2285	1634.436	1658.4381	2934.7038	3043.1523	3067.8745	3115.3326	3160.8622	3503.3179	3587.0306
COC1=NOC(CN)=N1	COc1noc(CN)n1	
InChI=1S/C4H7N3O2/c1-8-4-6-3(2-5)9-7-4/h2,5H2,1H3	InChI=1S/C4H7N3O2/c1-8-4-6-3(2-5)9-7-4/h2,5H2,1H3
