18
gdb 72630	2.56457	1.43134	1.24289	4.2353	78.01	-0.2306	0.0325	0.2631	1085.3779	0.148329	-398.106059	-398.097093	-398.096149	-398.139253	34.04	
N	-0.0800468387	 1.4924637757	 0.1203447684	-0.593769
C	-0.040939199	 0.0768846905	 0.0793044198	 0.301189
C	 0.7605745168	-0.8108003596	 1.0381664747	-0.269251
C	-0.4438231355	-1.8147221964	 1.0796989343	-0.292007
C	-1.2049132753	-0.892156297	 0.1080908854	 0.274845
N	-2.584627454	-0.565229287	 0.0626280205	-0.586354
C	-0.3735137806	-0.7878715899	-1.1698512531	-0.296966
C	-0.9330678328	-0.0969321835	-2.2913655258	 0.287119
N	-1.3474043337	 0.4669946164	-3.2139009124	-0.347496
H	 0.6264583599	 1.9111016584	-0.4779268577	 0.241055
H	-0.9840634875	 1.8257075569	-0.2026392687	 0.255457
H	 1.7116830899	-1.1986892298	 0.6629144484	 0.101875
H	 0.9270029576	-0.3159484574	 1.9965437321	 0.120079
H	-0.2614656712	-2.8398288409	 0.7410892978	 0.100269
H	-0.9130078356	-1.8478187931	 2.0664620187	 0.107447
H	-3.1292785558	-1.2578383762	-0.4408373323	 0.243286
H	-2.973703898	-0.4704615256	 0.9945844704	 0.238108
H	 0.2743130234	-1.6192601113	-1.4400722206	 0.115116
117.7793	131.341	164.8309	194.775	225.8209	293.5532	329.7006	373.6859	391.1436	501.4557	543.5603	545.3516	656.0772	691.4679	740.0899	769.7077	798.9261	863.1866	878.8051	934.602	953.4634	1015.2146	1037.7723	1068.8072	1121.6579	1154.5773	1205.9996	1223.8812	1235.5165	1271.0197	1277.4606	1335.0995	1374.2354	1447.0131	1478.4406	1509.9963	1649.2583	1657.1626	2344.8307	3045.1947	3062.9526	3099.3725	3124.2351	3126.9188	3489.5999	3503.1812	3566.1246	3584.2291
NC12CCC1(N)C2C#N	N[C@@]12CC[C@]1(N)[C@H]2C#N	
InChI=1S/C6H9N3/c7-3-4-5(8)1-2-6(4,5)9/h4H,1-2,8-9H2	InChI=1S/C6H9N3/c7-3-4-5(8)1-2-6(4,5)9/h4H,1-2,8-9H2/t4-,5+,6-
