17
gdb 17318	2.63457	2.4844	1.67226	2.7803	67.62	-0.2185	0.0657	0.2843	834.0248	0.141434	-363.756047	-363.748594	-363.747649	-363.787247	29.194	
C	-0.0375673986	 1.5896658263	-0.0458554679	-0.444824
C	 0.1431004169	 0.0764510894	 0.0441044002	-0.078915
C	 1.2902057159	-0.8771784408	-0.3136418553	-0.098903
N	 2.7202204216	-0.5810179984	 0.0897763417	-0.130327
C	 2.8297437469	 0.7455826175	 0.7245703214	-0.252058
C	 2.2214495122	-0.3648677148	 1.4929914825	-0.112222
C	 0.7812224627	-0.7801786505	 1.0986063917	 0.344725
O	 0.1126316409	-1.742369997	 1.8335189435	-0.451336
H	 0.4489797355	 2.0141774466	-0.9302464673	 0.13207
H	-1.1038543821	 1.8248284988	-0.1231064984	 0.114984
H	 0.3417195415	 2.1125173732	 0.8356448639	 0.128501
H	-0.7520490912	-0.4521794198	-0.2863876199	 0.103109
H	 1.1579539024	-1.6419006096	-1.0684932469	 0.108553
H	 3.8616923949	 0.9857165112	 0.9712564047	 0.121453
H	 2.2595689809	 1.5827035703	 0.3527562853	 0.124544
H	 2.7204841831	-0.8489981933	 2.3269156583	 0.104463
H	-0.4446081834	-1.2958323291	 2.4810289227	 0.286184
133.0903	209.9497	222.0145	286.3059	306.8667	344.2073	412.0622	514.3825	577.2395	664.0625	676.9856	726.5037	765.4096	830.3023	900.6727	945.6374	964.0526	980.865	1039.7795	1059.8003	1085.0966	1102.3617	1114.9982	1123.4251	1143.0786	1197.6113	1230.3699	1240.0284	1305.4564	1335.6593	1360.684	1412.0803	1485.0959	1494.4337	1504.4795	1515.3684	3034.6614	3090.0958	3103.5681	3114.97	3126.4691	3160.506	3192.9012	3263.0856	3785.7122
CC1C2N3CC3C12O	C[C@H]1[C@H]2N3C[C@H]3[C@@]12O	
InChI=1S/C6H9NO/c1-3-5-6(3,8)4-2-7(4)5/h3-5,8H,2H2,1H3	InChI=1S/C6H9NO/c1-3-5-6(3,8)4-2-7(4)5/h3-5,8H,2H2,1H3/t3-,4-,5+,6-,7?/m0/s1
