14
gdb 28746	5.10312	0.92208	0.81554	2.6627	67.73	-0.2146	0.0062	0.2208	1339.0273	0.101491	-470.024739	-470.016615	-470.01567	-470.059024	28.929	
N	 0.004239326	 1.4086561403	 0.0283886879	-0.585355
C	-0.0156899795	 0.0378174079	-0.0031237616	 0.469309
N	-0.9590999991	-0.7583040982	 0.3939724938	-0.333153
C	-0.4138914689	-2.0327606351	 0.2248317043	-0.208976
C	 0.8309027737	-1.920592941	-0.2757201065	 0.351797
O	 1.7649686667	-2.7862848485	-0.7098900704	-0.210592
C	 2.7734619906	-3.1057598307	 0.1681800531	 0.113128
N	 3.7033850581	-3.8507593146	-0.2230602992	-0.417868
O	 1.1150823647	-0.5728595204	-0.432846719	-0.206026
H	 0.5545290386	 1.8427641115	-0.698546882	 0.268051
H	-0.918239865	 1.8069364657	 0.12697144	 0.273709
H	-0.9611754354	-2.9301001948	 0.4620780814	 0.133601
H	 2.6222327147	-2.6558645893	 1.1557530415	 0.110547
H	 4.3657101545	-4.0139435329	 0.5324563968	 0.241829
21.8568	105.8036	121.1247	260.2808	297.2616	339.1329	419.2622	462.6244	502.8766	609.5323	645.3439	725.8745	767.8804	812.2453	827.1711	851.5863	970.5583	996.0807	1026.6404	1045.0562	1087.5468	1192.9987	1243.5972	1249.3976	1288.4071	1400.4253	1436.4934	1603.7138	1666.9057	1692.6491	1763.3013	3063.8999	3273.7235	3525.1492	3572.4208	3680.4004
NC1=NC=C(OC=N)O1	Nc1ncc(O[CH][NH])o1	
InChI=1S/C4H5N3O2/c5-2-8-3-1-7-4(6)9-3/h1-2,5H,(H2,6,7)	InChI=1S/C4H5N3O2/c5-2-8-3-1-7-4(6)9-3/h1-2,5H,(H2,6,7)
