18
gdb 44078	3.74715	1.45638	1.20872	2.9188	77.2	-0.2503	0.0236	0.2738	1043.4615	0.14926	-401.917427	-401.91031	-401.909365	-401.948897	28.745	
N	-0.1119722477	 1.1902025326	-0.1598178108	-0.546513
C	-0.0797114321	-0.056558839	-0.035174523	 0.400845
O	 1.0061221849	-0.9160244415	 0.115205745	-0.301386
C	 0.1209944447	-2.0473760995	 0.258703034	 0.485463
C	 0.3374235094	-3.4646751148	-0.2207057064	-0.330136
C	-0.6235197308	-3.904090231	 0.9404204628	-0.23412
C	-0.4884898429	-2.4950788463	 1.6173096147	-0.087238
C	-1.6781705509	-1.5180083539	 1.4287703535	-0.256592
C	-1.1214451589	-1.1569964236	 0.0107815197	-0.225522
H	 0.8277869924	 1.590190135	-0.1357012108	 0.228393
H	 0.0649194926	-3.7105089719	-1.2502441031	 0.107876
H	 1.3623986042	-3.7985210671	-0.0333759107	 0.120618
H	-1.6387077341	-4.1245002912	 0.6017904529	 0.109724
H	-0.268023745	-4.740775753	 1.5427034887	 0.114891
H	 0.0733547976	-2.4803756203	 2.5511348987	 0.079602
H	-2.6654428287	-1.9866720642	 1.4157819005	 0.109206
H	-1.7019151018	-0.6743546921	 2.1217887782	 0.123084
H	-1.7750373126	-1.2366183281	-0.8569932639	 0.101806
102.0543	174.0507	261.9199	324.9352	391.7637	430.3204	478.1377	619.1065	687.206	724.7234	765.7836	794.0317	806.2182	870.6374	879.6132	904.6868	911.9617	956.6601	979.8695	1000.6445	1016.8596	1071.7529	1078.5904	1087.5405	1143.9456	1174.1842	1185.0601	1217.4478	1229.765	1243.5826	1258.8685	1275.8423	1301.0492	1311.5549	1322.7499	1472.4238	1481.8725	1494.2303	1820.8262	3056.2891	3064.8405	3072.4125	3105.9819	3110.1304	3119.2945	3126.9291	3135.1797	3473.836
N=C1OC23CCC2CC13	[NH][C]1O[C@@]23CC[C@@H]2C[C@@H]13	
InChI=1S/C7H9NO/c8-6-5-3-4-1-2-7(4,5)9-6/h4-5,8H,1-3H2	InChI=1S/C7H9NO/c8-6-5-3-4-1-2-7(4,5)9-6/h4-5,8H,1-3H2/t4-,5+,7+/m1/s1
