17
gdb 53812	3.41838	1.12004	0.92644	1.4336	70.21	-0.2416	-0.0623	0.1793	1255.4961	0.135618	-455.138194	-455.129094	-455.12815	-455.173119	32.415	
N	 0.0961064642	 1.3726339311	 0.0752677513	-0.510719
C	 0.1296475779	 0.0157216635	 0.0371113499	 0.260218
N	 1.2287837082	-0.6439768594	-0.0183150072	-0.515289
C	-1.2743014168	-0.588217143	 0.0934601057	 0.32006
O	-2.2491125714	 0.1254451994	 0.1060550928	-0.300477
C	-1.375706525	-2.1056048199	 0.1459832418	 0.018308
C	-1.0556721473	-2.748290977	 1.5248622359	-0.293585
C	-2.5312477064	-3.1955686508	 1.4754125824	-0.066105
O	-2.7260659435	-2.5700630255	 0.1869952851	-0.267163
H	 0.9437169443	 1.882434273	-0.1046171935	 0.263772
H	-0.7975236071	 1.8208584799	-0.0388236335	 0.272725
H	 1.0612176925	-1.6462884904	-0.0094633093	 0.221796
H	-0.825365397	-2.5348928386	-0.7026667406	 0.109018
H	-0.3143754213	-3.5473205847	 1.4997230524	 0.125424
H	-0.800239995	-2.0440921879	 2.3176841993	 0.131256
H	-2.6974410487	-4.2776397038	 1.4296971599	 0.112013
H	-3.1854667477	-2.7615249658	 2.2394565775	 0.118747
56.8844	63.9361	81.0304	165.3449	233.1387	297.7847	318.205	371.3677	449.4589	499.5257	547.2727	614.8552	725.0902	775.381	807.4796	830.9045	838.9392	940.8846	966.6024	1021.887	1046.0375	1082.5881	1109.217	1131.0787	1163.5032	1170.5738	1210.7139	1257.3427	1264.2608	1340.1427	1365.9892	1431.9168	1489.9533	1530.8374	1588.2493	1710.9257	1803.1689	3008.3658	3031.1067	3074.7481	3088.2699	3145.3828	3530.8175	3606.8994	3741.4043
NC(=N)C(=O)C1CCO1	NC(=N)C(=O)[C@H]1CCO1	
InChI=1S/C5H8N2O2/c6-5(7)4(8)3-1-2-9-3/h3H,1-2H2,(H3,6,7)	InChI=1S/C5H8N2O2/c6-5(7)4(8)3-1-2-9-3/h3H,1-2H2,(H3,6,7)/t3-/m1/s1
