20
gdb 6841	3.22365	1.44048	1.2897	2.3091	71.32	-0.2421	0.0658	0.3078	1071.2425	0.174867	-386.128971	-386.119737	-386.118793	-386.162682	33.927	
C	 0.0873668682	 1.6139848193	-0.0280030137	-0.381825
C	-0.3080347157	 0.1579121281	-0.2997477658	-0.206957
C	 0.7320899292	-0.5636133953	-1.1337886719	 0.149188
O	 2.0103504429	-0.693875026	-0.4606537789	-0.300192
C	 2.166215493	-2.0458027382	-0.9330931585	-0.111741
C	 0.6821653559	-2.0937094569	-1.3860408181	 0.307712
C	-0.2249559263	-2.9146932529	-0.4807082269	-0.456928
O	 0.4428676013	-2.3694918262	-2.750627201	-0.472823
H	 1.0507803381	 1.6587308526	 0.4875382079	 0.138222
H	 0.1799968216	 2.1792366592	-0.9617349805	 0.115227
H	-0.6583009092	 2.1157333247	 0.5957569032	 0.109409
H	-0.4461742299	-0.3693625095	 0.6505160658	 0.096235
H	-1.2662105923	 0.1190810048	-0.8341837645	 0.101181
H	 0.8607834011	-0.0511574638	-2.0996604181	 0.077011
H	 2.8636758229	-2.1151689722	-1.7783547416	 0.096124
H	 2.4805035572	-2.7271008542	-0.1333806332	 0.093591
H	-0.051120949	-2.6862241685	 0.5741145816	 0.133802
H	-1.2784256207	-2.7297589943	-0.7108599256	 0.127463
H	-0.0258148389	-3.9851982954	-0.6197904786	 0.107693
H	 0.3276662705	-3.3198046952	-2.8550502517	 0.277608
79.4448	87.1153	161.7681	217.4211	254.1613	264.5975	279.3496	307.2371	358.4763	400.5816	499.6611	520.7762	653.0483	761.0686	821.2076	899.4092	908.4858	941.2258	979.75	981.6287	1020.5886	1058.5286	1104.9516	1117.1647	1153.5528	1176.0469	1199.0633	1221.2584	1280.1713	1300.2657	1329.3841	1347.3704	1391.8392	1406.9617	1408.6162	1420.2857	1472.9144	1492.8558	1496.2304	1498.948	1508.5891	1515.3938	2986.945	3007.6687	3022.8197	3026.7241	3037.3829	3060.8972	3070.852	3091.9352	3105.0949	3119.0734	3122.7429	3808.3237
CCC1OCC1(C)O	CC[C@H]1OC[C@]1(C)O	
InChI=1S/C6H12O2/c1-3-5-6(2,7)4-8-5/h5,7H,3-4H2,1-2H3	InChI=1S/C6H12O2/c1-3-5-6(2,7)4-8-5/h5,7H,3-4H2,1-2H3/t5-,6+/m1/s1
