20
gdb 71716	2.29639	2.08396	1.74426	1.6374	81.22	-0.2117	0.0847	0.2964	936.3805	0.171117	-365.932746	-365.925081	-365.924137	-365.964166	31.479	
C	 0.0073950858	 1.5103879283	 0.0382265791	-0.516077
C	 0.0123041316	 0.0059649645	-0.0391215756	 0.275466
C	 0.5381927245	-0.8242092975	-1.2285400927	-0.230953
N	-0.3344341685	-1.9611361126	-0.7562753179	-0.193458
C	 0.1444019427	-2.229029576	 0.6333710902	-0.022187
C	 0.3958313251	-0.83469904	 1.2066748897	-0.124914
C	-0.9673914938	-1.4990259497	 1.3236782155	-0.18205
C	-1.2697457509	-0.9221775659	-0.0820470957	 0.336928
C	-2.5953600933	-0.6156761636	-0.7018488761	-0.529808
H	 1.025622678	 1.9040081486	 0.1420067609	 0.119336
H	-0.4298943803	 1.9566395096	-0.8615990658	 0.115844
H	-0.5691932128	 1.8601155531	 0.9022429371	 0.119302
H	 0.1795247949	-0.4664906168	-2.1992276547	 0.099013
H	 1.6072056723	-1.0520469675	-1.2886859927	 0.094878
H	 0.6865902793	-3.1233648507	 0.9119831521	 0.088684
H	 1.1204122758	-0.6165749419	 1.9802302498	 0.082783
H	-1.5817476957	-1.7580958166	 2.1755963996	 0.090541
H	-3.1125233665	 0.1749264977	-0.1466162609	 0.120576
H	-2.4780860865	-0.2829872409	-1.738830406	 0.124442
H	-3.2325568017	-1.5063409621	-0.7052105856	 0.131656
178.8698	204.5951	218.3194	238.6553	285.2114	336.0481	445.8524	565.6468	599.8253	618.8197	742.1344	768.069	789.485	814.1846	831.6546	848.6547	857.0668	894.917	911.0632	948.7905	987.8629	1014.2728	1019.1367	1038.8018	1050.8656	1104.3016	1147.627	1153.2773	1164.317	1203.9538	1204.7741	1242.9233	1244.1893	1319.8457	1338.2527	1356.1321	1410.7337	1414.1928	1479.0889	1485.0069	1491.6883	1493.5669	1497.5307	3020.7056	3027.3669	3040.755	3082.5141	3090.242	3095.6059	3097.3435	3100.4628	3191.2308	3195.0829	3210.1384
CC12CN3C4C1C4C23C	C[C@@]12CN3[C@H]4[C@@H]1[C@H]4[C@@]23C	
InChI=1S/C8H11N/c1-7-3-9-6-4(7)5(6)8(7,9)2/h4-6H,3H2,1-2H3	InChI=1S/C8H11N/c1-7-3-9-6-4(7)5(6)8(7,9)2/h4-6H,3H2,1-2H3/t4-,5+,6-,7+,8-/m0/s1
