17
gdb 44275	3.28917	1.80475	1.4077	3.512	74.55	-0.2169	-0.0084	0.2085	919.6705	0.138229	-384.659725	-384.653336	-384.652392	-384.690491	26.741	
O	 0.0198432709	-0.0329639196	-0.329050445	-0.342072
C	-0.0261847949	 1.1448017579	-0.045924482	 0.41039
C	-1.3343926886	 1.8704402646	 0.2107087209	-0.362088
C	-1.1384206817	 3.3319394948	 0.5467845563	-0.04642
C	 0.0065775963	 3.8483299073	 1.3818118899	-0.089645
C	-0.0877061366	 4.201163901	-0.0977565091	-0.089686
C	 1.2436455508	 3.4457197754	-0.3506186021	-0.095819
C	 1.3364172497	 3.0982412509	 1.1061376709	-0.095802
C	 1.192062839	 1.9803611633	 0.0758936963	-0.145038
H	-1.9635280276	 1.7537439823	-0.680085022	 0.133863
H	-1.8549460461	 1.3476912226	 1.0223153503	 0.133887
H	-2.0621183217	 3.875131087	 0.7352459829	 0.093519
H	-0.1381476134	 4.4894065757	 2.2412840962	 0.093319
H	-0.3162107945	 5.1557453816	-0.5529238687	 0.09332
H	 2.0160258376	 3.7888768183	-1.0258361174	 0.10148
H	 2.1937797428	 3.1231076113	 1.765347326	 0.101492
H	 2.1112297979	 1.4344464855	-0.1128095035	 0.105303
85.2217	267.9655	431.4891	450.0935	459.0456	523.437	600.0113	707.0791	711.7037	719.018	727.1394	789.2951	864.223	878.1772	884.4398	919.7647	956.3523	980.9253	993.3416	995.7012	1028.886	1053.0203	1074.0629	1087.6657	1102.8072	1131.2701	1218.2866	1242.1624	1251.3349	1290.5577	1305.4568	1326.5216	1339.036	1386.0384	1436.9729	1452.9891	1800.7304	3033.5698	3069.2175	3131.108	3169.0862	3189.6812	3199.7082	3200.2436	3210.8405
O=C1CC2C3C2C2C3C12	O=C1C[C@H]2[C@@H]3[C@H]2[C@H]2[C@@H]3[C@@H]12	
InChI=1S/C8H8O/c9-3-1-2-4-5(2)8-6(3)7(4)8/h2,4-8H,1H2	InChI=1S/C8H8O/c9-3-1-2-4-5(2)8-6(3)7(4)8/h2,4-8H,1H2/t2-,4+,5-,6+,7-,8+
