16
gdb 117872	2.25162	0.80977	0.61564	4.8763	79.86	-0.2772	-0.0505	0.2267	1733.8067	0.121798	-437.848132	-437.838023	-437.837079	-437.884475	34.09	
C	 0.9849077794	 1.1932534418	-0.291822499	-0.229865
O	 0.9624276546	-0.2114361527	-0.4250362594	-0.228608
C	-0.1967996558	-0.6890188514	-1.0507999615	-0.072182
C	-0.0773299162	-2.2180838125	-1.1751599961	-0.077053
O	-1.2888753357	-2.7887233611	-1.6409049475	-0.404442
C	 1.0640958999	-2.6012791307	-2.0094089969	 0.15365
C	 1.9693674322	-2.9185728127	-2.744014904	-0.026417
C	 2.9961076799	-3.2755199015	-3.5701890684	 0.213157
N	 3.8674012877	-3.5778077149	-4.2765083469	-0.332988
H	 0.9447110893	 1.6933234868	-1.2713922232	 0.112909
H	 0.1437089064	 1.5562241935	 0.3181265576	 0.111592
H	 1.9222108303	 1.4557369198	 0.2028832446	 0.138177
H	-1.1027172391	-0.4712360725	-0.4637677322	 0.108781
H	-0.3275032632	-0.2448087441	-2.0529460523	 0.089801
H	 0.076151043	-2.6217681582	-0.1678677106	 0.148613
H	-1.3862374128	-2.5704235296	-2.5749610042	 0.294874
48.549	79.0974	112.8829	119.1864	168.5487	221.7283	249.96	256.8797	307.4247	384.1695	403.5518	528.3202	549.7403	580.4138	604.2149	700.5518	981.4886	1012.6824	1037.1625	1099.5409	1158.6566	1175.1442	1182.4758	1225.6948	1237.9874	1266.7537	1334.6653	1405.406	1412.5991	1480.834	1486.6378	1501.6008	1526.096	2263.2761	2400.4236	2954.6192	2980.8376	3005.3132	3028.7789	3060.3215	3125.9779	3802.9521
COCC(O)C#CC#N	COC[C@@H](O)C#CC#N	
InChI=1S/C6H7NO2/c1-9-5-6(8)3-2-4-7/h6,8H,5H2,1H3	InChI=1S/C6H7NO2/c1-9-5-6(8)3-2-4-7/h6,8H,5H2,1H3/t6-/m0/s1
