16
gdb 110439	2.7037	1.5426	1.18152	2.039	67.55	-0.2527	-0.0229	0.2298	1037.8767	0.124579	-437.8295	-437.82186	-437.820916	-437.862318	28.623	
O	 0.0655059746	 1.4198977	 0.1429181124	-0.413891
C	 0.0894792244	 0.0089602667	-0.0053586635	-0.109035
C	-1.3133421829	-0.5875727914	 0.0213067986	-0.010479
C	-1.5526954449	-2.0946163197	 0.0844713613	-0.064082
C	-1.4732869841	-2.5751718865	 1.5089954751	-0.18995
N	-2.7584455573	-1.9676328207	 0.9382841203	-0.147825
C	-2.1353388517	-0.5789370573	 1.3353386659	-0.169228
C	-1.2837240389	-1.3530611672	 2.3453801301	 0.464893
O	-0.8466356749	-1.1210408444	 3.4360177526	-0.335758
H	-0.1152966859	 1.6186549507	 1.0672365034	 0.29404
H	 0.5509439507	-0.1879404013	-0.9794308282	 0.116809
H	 0.7248280384	-0.4660563787	 0.756617166	 0.106149
H	-1.9155537443	-0.1624426756	-0.7876030478	 0.105922
H	-1.5171363998	-2.8155643188	-0.7256540529	 0.113562
H	-1.3956603707	-3.621622472	 1.7736460057	 0.12723
H	-2.7763324926	 0.2459591061	 1.6351416611	 0.111641
50.7851	139.2664	164.1241	259.1132	307.5254	415.9196	437.5313	537.3141	616.8337	725.8034	731.1446	760.1638	818.4701	830.8648	878.8405	943.61	999.3197	1004.7104	1036.1498	1045.8026	1072.6072	1093.5773	1119.0931	1138.2388	1154.5311	1172.7628	1233.6635	1259.2162	1307.0219	1348.3937	1358.475	1402.3063	1421.0774	1499.8155	1890.924	2997.7992	3063.2063	3076.963	3165.1603	3171.9068	3215.2742	3818.5196
OCC1C2C3N2C1C3=O	OC[C@H]1[C@H]2[C@@H]3N2[C@H]1C3=O	
InChI=1S/C6H7NO2/c8-1-2-3-5-6(9)4(2)7(3)5/h2-5,8H,1H2	InChI=1S/C6H7NO2/c8-1-2-3-5-6(9)4(2)7(3)5/h2-5,8H,1H2/t2-,3-,4+,5-,7?/m0/s1
