21
gdb 79758	2.62137	1.89101	1.75402	0.1192	83.29	-0.2411	0.0837	0.3247	936.7789	0.186591	-349.963618	-349.956812	-349.955868	-349.994312	29.379	
C	-0.2059671105	 1.5419640717	 0.0255208092	-0.398692
C	-0.0069895454	 0.0209717151	-0.0009515999	 0.012764
C	 0.6233599848	-0.5331408903	-1.2752001016	-0.070268
C	 2.1259753501	-0.4414507275	-1.4405344611	-0.063007
C	 2.9360235761	 0.1942183422	-0.319270786	-0.239705
C	 2.3844941882	-0.4491568949	 0.9453893307	-0.063006
C	 1.6580601471	-1.7318823823	 0.577973404	-0.080508
C	 1.4942116591	-1.7269988056	-0.9342487019	-0.080508
C	 0.8812752432	-0.5408257194	 1.1051513104	-0.070268
H	 0.7425380726	 2.0763266735	-0.0755235507	 0.119745
H	-0.8602905956	 1.8649179087	-0.7914377844	 0.108479
H	-0.6699061068	 1.8592417958	 0.9657093894	 0.108479
H	-0.9967171238	-0.4479803443	 0.1047738197	 0.068271
H	 0.0268050656	-0.5295564675	-2.1821339301	 0.073731
H	 2.5086687907	-0.3824159103	-2.4540038875	 0.075904
H	 3.9967523128	-0.0626465627	-0.4350327068	 0.095402
H	 2.8694043221	 1.2879578349	-0.3085220862	 0.099231
H	 2.9754177799	-0.3963352598	 1.853727857	 0.075904
H	 1.7740717777	-2.6559536366	 1.1288138576	 0.077161
H	 1.488915585	-2.6474524232	-1.5030445621	 0.077161
H	 0.4928188872	-0.5434402475	 2.1188150203	 0.073731
188.4254	197.4607	245.3693	352.5997	486.7555	517.8743	628.6419	640.4043	687.1339	738.5105	762.739	769.9704	808.1996	811.1262	870.8569	905.2259	941.3232	956.5064	975.7893	993.3984	1011.6896	1021.3858	1035.4396	1070.4932	1078.5523	1080.1705	1100.3855	1101.9128	1122.3516	1141.9646	1157.0417	1204.1543	1264.6743	1300.934	1307.4118	1308.5687	1329.3439	1341.9056	1382.8075	1401.172	1412.5718	1418.9514	1491.6302	1496.2441	1505.1689	2987.2382	3023.1023	3033.6523	3059.4256	3092.5994	3118.9614	3149.9354	3151.839	3162.2099	3164.9134	3191.4849	3203.2711
CC1C2C3CC4C(C23)C14	C[C@H]1[C@H]2[C@H]3C[C@@H]4[C@H]([C@@H]23)[C@H]14	
InChI=1S/C9H12/c1-3-6-4-2-5-7(3)9(5)8(4)6/h3-9H,2H2,1H3	InChI=1S/C9H12/c1-3-6-4-2-5-7(3)9(5)8(4)6/h3-9H,2H2,1H3/t3-,4+,5-,6-,7+,8+,9-
