20
gdb 10396	2.37502	1.9608	1.36322	1.0989	70.71	-0.248	0.0725	0.3205	1010.2844	0.175405	-386.108473	-386.099383	-386.098439	-386.142474	32.609	
C	 0.0960753101	 1.5151202558	 0.0613024964	-0.390338
C	-0.0185075606	-0.0005588014	-0.1197456226	-0.217327
C	 0.7329785718	-0.5311518772	-1.3394136106	 0.373765
C	 2.2799445922	-0.5576723075	-1.1624253148	-0.136671
O	 2.2599011763	-1.9856301152	-0.970113512	-0.272961
C	 0.871951547	-2.0777393914	-1.3472365043	-0.135694
O	 0.1579444929	 0.1027301492	-2.4580474465	-0.293864
C	 0.7445887554	-0.1020143758	-3.7256496135	-0.255102
H	 1.13824343	 1.8249097302	 0.1976960925	 0.112176
H	-0.2982706488	 2.038473769	-0.8124919363	 0.134217
H	-0.4626020427	 1.8440839947	 0.9424369018	 0.1122
H	 0.3633537806	-0.5208142683	 0.7662388948	 0.105999
H	-1.0724716879	-0.2847139983	-0.2272467426	 0.103413
H	 2.8615408251	-0.2717458302	-2.0472476131	 0.097637
H	 2.6795413507	-0.0273762155	-0.2904468607	 0.103516
H	 0.2730657658	-2.6220443897	-0.6075834794	 0.102353
H	 0.7402867019	-2.5515986904	-2.3285282223	 0.097995
H	 0.0748925733	 0.3642965568	-4.4523958174	 0.130949
H	 1.7320918493	 0.3709251726	-3.8115096657	 0.11376
H	 0.8465948576	-1.1651494774	-3.9806143939	 0.113975
65.5718	87.3764	122.9176	187.0085	209.5569	246.3545	302.9796	346.6901	381.4018	459.1917	521.3765	633.0176	783.9527	815.6022	888.5306	947.4109	968.6232	987.019	1017.1007	1032.3187	1040.1253	1126.9433	1140.98	1150.5027	1159.0116	1178.8582	1187.3707	1239.137	1276.0794	1299.436	1315.6601	1375.0863	1379.8472	1407.1236	1475.2439	1481.2037	1489.3145	1496.7815	1505.2183	1509.2018	1517.8463	1535.1097	3000.3942	3009.3366	3025.241	3031.3783	3039.1048	3054.528	3060.3999	3064.7593	3071.6431	3102.0257	3114.6837	3130.4835
CCC1(COC1)OC	CCC1(COC1)OC	
InChI=1S/C6H12O2/c1-3-6(7-2)4-8-5-6/h3-5H2,1-2H3	InChI=1S/C6H12O2/c1-3-6(7-2)4-8-5-6/h3-5H2,1-2H3
