15
gdb 28811	3.09051	1.44986	1.12819	4.127	78.07	-0.2445	-0.0785	0.166	1072.3691	0.112824	-416.842168	-416.834408	-416.833463	-416.874629	28.605	
C	 0.0758428343	 1.4469385312	 0.22890196	-0.455367
C	-0.0426118547	-0.020830099	-0.0732794093	 0.29821
C	-1.2601011194	-0.6368009641	-0.1723624001	-0.148709
C	-1.460453453	-2.0373864352	-0.4093354046	 0.005416
N	-0.6686871772	-3.019624007	-0.1257392032	-0.238682
C	 0.5634412865	-2.8390576246	 0.4758166275	 0.333558
O	 0.9564771586	-3.4489763177	 1.4422267682	-0.315966
C	 1.4373078262	-1.8578360162	-0.2566806337	-0.07083
N	 1.1576909625	-0.6179951754	-0.3917771712	-0.218231
H	 0.5453438245	 1.9730258662	-0.6080253352	 0.151306
H	-0.8966662116	 1.8951907911	 0.4399241275	 0.129633
H	 0.725371589	 1.5939357074	 1.0992050551	 0.149692
H	-2.1491000858	-0.0126806306	-0.1630073836	 0.107883
H	-2.4110701175	-2.3173559871	-0.8691127804	 0.12655
H	 2.3866173778	-2.2226623289	-0.652381907	 0.145537
90.8343	126.5507	176.9331	284.985	316.8174	346.6364	386.4873	437.2444	550.059	622.8189	664.6009	737.754	764.9007	835.7272	883.6754	903.7612	948.033	990.4862	1000.4953	1061.9649	1097.1994	1185.4371	1213.305	1336.8826	1400.5748	1408.9442	1436.031	1470.2934	1482.0134	1559.2204	1653.2322	1680.7844	1796.3445	3041.0141	3099.6609	3102.6407	3119.8536	3139.0397	3170.851
CC1=CC=NC(=O)C=N1	Cc1ccnc(=O)cn1	
InChI=1S/C6H6N2O/c1-5-2-3-7-6(9)4-8-5/h2-4H,1H3	InChI=1S/C6H6N2O/c1-5-2-3-7-6(9)4-8-5/h2-4H,1H3
