14
gdb 129909	3.25659	1.33328	1.04193	3.4681	68.32	-0.2352	-0.0109	0.2243	1088.1714	0.102583	-429.046346	-429.038369	-429.037425	-429.079475	28.587	
N	 0.2212511492	 1.3611414214	-0.2279005224	-0.615753
C	 0.0261276597	-0.0059617155	-0.0938853798	 0.331809
C	-1.087351704	-0.8044287526	 0.0691891986	-0.127934
N	-0.6793711441	-2.0920341471	 0.2473203972	-0.176499
N	 0.6100701792	-2.1580260417	 0.197495022	-0.152969
N	 1.0642484088	-0.8791140902	 0.0009446085	 0.003283
C	 2.4838099199	-0.6183149897	-0.0204881621	-0.271688
C	 2.9122361534	 0.0344858222	-1.264863494	 0.269805
N	 3.2103222649	 0.594113753	-2.2304327333	-0.302325
H	 0.8487043372	 1.6210011273	-0.9815382964	 0.275074
H	-0.6497016724	 1.8671789268	-0.3124581799	 0.266376
H	-2.1291117986	-0.5286069774	 0.063754681	 0.120777
H	 2.7734797782	 0.0191842047	 0.8233974531	 0.18218
H	 2.9794313585	-1.5860495411	 0.0909838976	 0.197864
58.1808	99.6916	205.7606	257.9309	276.4816	312.3277	372.6735	428.7244	500.1131	654.6126	709.8789	713.2451	752.851	795.6012	806.7433	930.5797	941.9882	989.5897	1100.2534	1107.5471	1169.4607	1270.4221	1301.8199	1321.2891	1366.2083	1384.5412	1450.5746	1516.6219	1613.3145	1665.6107	2364.6789	3046.4144	3117.1873	3271.7243	3523.9876	3630.1516
NC1=CN=NN1CC#N	Nc1cnnn1CC#N	
InChI=1S/C4H5N5/c5-1-2-9-4(6)3-7-8-9/h3H,2,6H2	InChI=1S/C4H5N5/c5-1-2-9-4(6)3-7-8-9/h3H,2,6H2
