16
gdb 25937	2.82711	1.5875	1.02314	5.9265	74.87	-0.1917	-0.0096	0.1821	1109.8932	0.124087	-434.113287	-434.104614	-434.103669	-434.147185	31.578	
C	-0.0532969847	 1.5120766932	-0.0985077209	-0.507036
C	 0.0945076446	-0.0018037228	-0.0853637142	 0.412855
O	 1.1671090229	-0.5473698175	-0.1271419098	-0.291845
N	-1.1181392037	-0.713438648	-0.0205109326	-0.159204
C	-2.4079698525	-0.1354008252	 0.030474194	-0.091669
C	-3.3110106505	-1.123038319	 0.0851060035	-0.095773
N	-2.6244953037	-2.3306422931	 0.0705622223	-0.372736
C	-1.2445712626	-2.132925992	 0.0042439559	 0.45934
N	-0.2898926661	-2.973147331	-0.0284636933	-0.548575
H	 0.9492601742	 1.9344183243	-0.150006566	 0.152896
H	-0.6326892579	 1.8529384545	-0.9626272153	 0.142626
H	-0.5515947403	 1.8760602369	 0.8058261879	 0.142643
H	-2.5530280057	 0.9275874592	 0.0228856887	 0.14519
H	-4.3854970151	-1.0761858907	 0.1336688438	 0.14581
H	-3.0368766174	-3.2448121395	 0.0996462493	 0.261408
H	-0.6544545316	-3.9242561892	 0.0011720865	 0.204071
57.5409	81.4076	138.4019	201.3	229.3779	306.7364	364.0049	458.6759	518.9023	569.083	590.9864	646.1007	661.3341	737.6192	748.4498	753.7773	790.9882	887.2494	942.4667	1034.5052	1049.5671	1082.16	1109.4475	1156.4745	1241.533	1260.9355	1314.613	1384.4663	1395.6461	1440.1903	1475.7934	1485.1922	1664.4514	1734.6745	1828.9477	3042.7013	3106.9668	3165.7793	3283.4475	3329.3358	3492.0624	3704.5784
CC(=O)N1C=CNC1=N	CC(=O)N1C=CN[C@@H]1[NH]	
InChI=1S/C5H7N3O/c1-4(9)8-3-2-7-5(8)6/h2-3H,1H3,(H2,6,7)	InChI=1S/C5H8N3O/c1-4(9)8-3-2-7-5(8)6/h2-3,5-7H,1H3/t5-/m0/s1
