13
gdb 123302	6.74337	0.90592	0.79863	2.2696	86.49	-0.2346	-0.0299	0.2048	1328.8793	0.089144	-378.429579	-378.421753	-378.420809	-378.461868	29.516	
C	 0.1734664823	-1.2011287109	-0.0066470551	-0.404981
C	 0.0259743863	-0.0062999709	 0.0022497604	 0.238576
C	-0.1258480206	 1.3949770421	 0.0124085016	 0.26328
C	-1.2459187236	 2.208956092	 0.032085893	-0.41878
C	-0.7413044622	 3.5309426502	 0.0330187958	 0.203672
N	 0.6027791916	 3.537986409	 0.0151126564	-0.271211
N	 0.942930188	 2.2492429472	 0.0030921853	-0.273021
C	-1.4892875358	 4.7351129983	 0.0499931005	 0.241472
C	-2.1550299698	 5.7369169218	 0.064695403	-0.384438
H	 0.294383461	-2.2563307551	-0.0143777029	 0.19991
H	-2.2753451222	 1.8945873152	 0.0440038559	 0.129051
H	 1.9169758693	 1.9937083571	-0.0113724596	 0.285414
H	-2.7333660142	 6.627263864	 0.0775836757	 0.191055
107.4681	115.7706	195.4905	211.5543	427.2411	472.1025	485.8761	514.6742	561.3138	574.3707	581.3245	591.1738	667.8127	680.4648	685.8945	699.2026	726.9128	845.5157	1002.1768	1042.2369	1157.3101	1218.5671	1271.3903	1393.3388	1421.8685	1461.8929	1580.3942	2237.1462	2243.664	3288.2105	3500.195	3504.1885	3663.0193
C#CC1=CC(=NN1)C#C	C#Cc1cc(n[nH]1)C#C	
InChI=1S/C7H4N2/c1-3-6-5-7(4-2)9-8-6/h1-2,5H,(H,8,9)	InChI=1S/C7H4N2/c1-3-6-5-7(4-2)9-8-6/h1-2,5H,(H,8,9)
