15
gdb 43350	2.93925	1.85047	1.48977	4.2009	66.62	-0.2358	-0.0639	0.1719	886.5558	0.114842	-457.783084	-457.776547	-457.775603	-457.814008	25.704	
O	 0.0339862656	-0.0439110977	 0.0517700915	-0.32352
C	-0.0226006003	 1.1648660919	 0.0657974591	 0.406733
C	-1.2823328407	 1.9454604916	 0.0965230174	-0.172054
C	-1.2210527072	 3.283310107	 0.1157962458	-0.04646
C	 0.1285107218	 3.9580092185	 0.1172997849	-0.013412
C	 0.7699576927	 3.8994547721	-1.2913708461	-0.083457
O	 1.3160917838	 2.5831059103	-1.3301768298	-0.266822
C	 1.2324683068	 2.0574421331	-0.0008190526	 0.047623
O	 1.0711940584	 3.1640445348	 0.8490979066	-0.244975
H	-2.2144542296	 1.3904552268	 0.1036981123	 0.121587
H	-2.1125274449	 3.9035447321	 0.0969151447	 0.118
H	 0.1059558111	 4.9572235237	 0.5525583862	 0.105406
H	 0.0532580481	 4.0253598499	-2.1072929621	 0.120681
H	 1.5699134826	 4.6436914056	-1.3804371099	 0.117402
H	 2.1406919518	 1.5075030904	 0.2526828122	 0.113267
119.7829	228.2989	271.3386	394.3826	426.6083	458.3298	506.2876	653.298	716.454	768.5107	781.9262	843.4528	869.0756	906.0272	912.4221	954.1052	1005.5844	1015.4274	1041.6526	1077.6015	1129.8564	1150.183	1204.1263	1251.7644	1262.0512	1302.9094	1310.1494	1357.4724	1374.0632	1395.3839	1511.9488	1666.7155	1805.7402	3033.9506	3098.4849	3112.1695	3121.8854	3171.4367	3198.8619
O=C1C=CC2COC1O2	O=C1C=C[C@@H]2CO[C@H]1O2	
InChI=1S/C6H6O3/c7-5-2-1-4-3-8-6(5)9-4/h1-2,4,6H,3H2	InChI=1S/C6H6O3/c7-5-2-1-4-3-8-6(5)9-4/h1-2,4,6H,3H2/t4-,6+/m1/s1
