16
gdb 52372	5.30583	0.63062	0.60768	4.6652	74.27	-0.2439	-0.07	0.1739	1760.1275	0.120211	-437.851681	-437.841681	-437.840736	-437.888497	33.746	
O	 0.0207844432	-0.0302909179	-0.3696843797	-0.23477
C	 0.2435315734	 1.1094388457	-0.0583137932	 0.14965
C	 1.3331384706	 1.9699236662	-0.678889879	-0.233783
N	 0.9961081308	 3.3847651077	-0.5597153096	-0.291428
C	 2.086181876	 4.2943387251	-0.832409018	-0.273706
C	 2.4499366161	 4.433248292	-2.3171801603	 0.227312
O	 1.778001741	 3.9299522927	-3.1913302417	-0.287381
C	 3.6262617088	 5.2336115159	-2.5990850527	 0.246063
C	 4.6112501135	 5.9022078858	-2.7790217268	-0.388828
H	-0.3329246166	 1.6316523674	 0.7389162435	 0.085216
H	 2.2415333457	 1.7830523897	-0.0862739862	 0.132159
H	 1.5333952714	 1.6157962102	-1.6994244356	 0.136256
H	 0.2347554171	 3.5972783306	-1.1980812876	 0.235126
H	 1.8372243644	 5.3041641001	-0.473700316	 0.141043
H	 2.9802388078	 3.9936612119	-0.2728571227	 0.136197
H	 5.4784674667	 6.4894857269	-2.9629336445	 0.220875
40.9732	51.4863	77.5932	94.2086	143.5081	228.1123	248.6321	269.9285	365.8421	507.6638	549.2793	565.3018	595.2625	652.5563	707.5095	714.8733	782.1881	850.0635	958.6971	1014.7818	1069.0214	1088.4081	1128.0528	1185.949	1224.6074	1296.2349	1337.5309	1358.2904	1404.3044	1443.27	1468.2417	1519.2211	1769.1641	1841.7646	2208.9339	2882.0797	3000.1284	3008.1857	3042.7525	3064.7928	3492.4968	3514.5555
O=CCNCC(=O)C#C	O=CCNCC(=O)C#C	
InChI=1S/C6H7NO2/c1-2-6(9)5-7-3-4-8/h1,4,7H,3,5H2	InChI=1S/C6H7NO2/c1-2-6(9)5-7-3-4-8/h1,4,7H,3,5H2
