22
gdb 115399	5.24755	0.79613	0.71808	2.8679	86.27	-0.2386	0.0369	0.2754	1648.5542	0.194011	-404.377712	-404.367729	-404.366785	-404.413871	35.629	
C	-0.0487881196	 1.60292685	-0.0818120808	-0.389058
C	-0.1293841026	 0.0725845722	-0.1089567421	-0.196987
C	 0.7966076669	-0.5758666303	-1.1391967789	 0.014312
C	 2.2984337679	-0.3602518821	-0.8811063344	-0.088175
O	 2.9715790628	-1.452209223	-1.5206470582	-0.250218
C	 2.0984244334	-2.4936522841	-1.7316484847	 0.431355
C	 0.7345627212	-2.1101931781	-1.2028366891	-0.341328
N	 2.3948477748	-3.5849147145	-2.284088505	-0.32795
C	 3.7593258622	-3.8155853046	-2.732078332	-0.330721
H	 0.9540354767	 1.9512674969	 0.1879638042	 0.120354
H	-0.2953310156	 2.0293737962	-1.0604369788	 0.11891
H	-0.7483160807	 2.0206091607	 0.6482987266	 0.118836
H	 0.108276377	-0.3289127439	 0.8855950196	 0.098147
H	-1.1611160789	-0.233148095	-0.3211628297	 0.104368
H	 0.5621227038	-0.1749598129	-2.1341805536	 0.084466
H	 2.695285836	 0.5677593714	-1.2993638325	 0.11756
H	 2.5221335837	-0.3810873781	 0.1953544621	 0.103264
H	 0.6055001121	-2.5309978946	-0.1966309366	 0.121012
H	-0.060717653	-2.509736482	-1.832530281	 0.131751
H	 4.2571083638	-4.511776222	-2.0453216519	 0.121576
H	 3.7329252758	-4.3030250381	-3.712311206	 0.118542
H	 4.3705103422	-2.908484424	-2.8016654772	 0.119986
30.3455	60.6926	105.2788	159.1572	169.2015	235.7688	246.2845	265.9776	339.3521	411.6729	517.2609	566.344	618.4378	692.5901	781.0234	825.4749	874.4333	910.5786	954.2818	987.3799	1029.3212	1038.1032	1062.3878	1089.2211	1120.9325	1139.8518	1149.0903	1161.7433	1195.9877	1212.0078	1250.3616	1277.2767	1301.0308	1333.3001	1360.6435	1380.3649	1408.1262	1415.4494	1438.259	1474.0706	1487.6601	1492.2746	1499.2228	1501.6393	1506.7252	1522.166	1804.4261	3001.2633	3013.2047	3013.6716	3019.7272	3031.7664	3033.4191	3054.0233	3070.5995	3088.5132	3096.0964	3099.3855	3106.7994	3129.4852
CCC1COC(C1)=NC	CC[C@H]1COC(=NC)C1	
InChI=1S/C7H13NO/c1-3-6-4-7(8-2)9-5-6/h6H,3-5H2,1-2H3	InChI=1S/C7H13NO/c1-3-6-4-7(8-2)9-5-6/h6H,3-5H2,1-2H3/t6-/m1/s1
