14
gdb 132378	1.94793	1.79662	0.93516	2.3683	68.93	-0.2161	0.0046	0.2207	1136.765	0.10198	-478.048028	-478.040591	-478.039647	-478.079682	29.366	
N	 0.0352933321	 1.3683697505	 0.2051973697	-0.566821
C	-0.0100091961	-0.0012180041	 0.073503714	 0.411265
C	-1.2276848047	-0.6886767323	 0.014711371	-0.298677
C	-1.1897912639	-2.0761182061	-0.0642146318	 0.462733
O	-2.370449401	-2.7365273817	-0.1216982581	-0.435169
C	 0.040937456	-2.7399995581	-0.0816374733	-0.463625
C	 1.1651179465	-1.9312177926	-0.0205578185	 0.35537
F	 2.358190424	-2.523639212	-0.0412849514	-0.077828
N	 1.1836017557	-0.6212749129	 0.0509414965	-0.399222
H	 0.9312209127	 1.7779965255	-0.0099748744	 0.259956
H	-0.7629857871	 1.8922801253	-0.1143870462	 0.254123
H	-2.1786724011	-0.171857503	 0.0376822524	 0.096178
H	-2.2021966464	-3.6837899427	-0.1695692212	 0.303238
H	 0.1288619732	-3.8174384057	-0.1435748187	 0.098479
201.2794	210.4981	251.6587	325.2549	342.4179	399.3188	414.8763	495.9873	521.5787	525.8152	589.4897	624.3241	660.679	681.3381	752.9223	783.5939	837.3725	992.2611	1010.2168	1052.6836	1134.6406	1187.2145	1193.8848	1278.903	1372.2005	1441.7958	1498.5713	1518.3996	1625.1089	1636.8396	1677.5349	3203.464	3208.3422	3589.0269	3706.6355	3817.8636
NC1=CC(O)=CC(F)=N1	Nc1cc(O)cc(F)n1	
InChI=1S/C5H5FN2O/c6-4-1-3(9)2-5(7)8-4/h1-2H,(H3,7,8,9)	InChI=1S/C5H5FN2O/c6-4-1-3(9)2-5(7)8-4/h1-2H,(H3,7,8,9)
