19
gdb 12265	3.86844	1.41647	1.12348	3.4158	73.95	-0.2404	0.0378	0.2782	1113.1365	0.165135	-365.09517	-365.086204	-365.08526	-365.128966	31.485	
C	-0.1191342215	 1.5782119686	-0.0421052971	-0.383499
C	 0.0697831673	 0.0626273735	 0.086654296	-0.193094
C	 0.7189508416	-0.5456142612	-1.1546831811	-0.12894
C	 0.7685163589	-2.1008025829	-1.2724912427	-0.204742
N	-0.0635315511	-1.9770165801	-2.4704626042	-0.067346
C	-0.6312636222	-2.9502569757	-3.3646651449	-0.34393
C	-0.1698157266	-0.6096734993	-2.4230071013	 0.410449
O	-0.763200746	 0.1778787797	-3.1178934839	-0.384906
H	 0.8460650369	 2.0874880643	-0.1398397267	 0.112526
H	-0.713244987	 1.8179660351	-0.9279589352	 0.15243
H	-0.6245372008	 1.9871430841	 0.8378976656	 0.109376
H	 0.6851979006	-0.1683592916	 0.9654922808	 0.097408
H	-0.9023690786	-0.4191704328	 0.2545431568	 0.100544
H	 1.6854549031	-0.073241268	-1.3579222546	 0.096723
H	 1.7576572586	-2.5356702736	-1.4564619923	 0.106299
H	 0.2827485268	-2.6389220246	-0.4492270678	 0.106074
H	-1.2970832706	-3.644731765	-2.8369189778	 0.126326
H	-1.2116692319	-2.409153156	-4.1160257925	 0.161351
H	 0.1460443426	-3.5351540844	-3.8719370272	 0.12695
80.798	114.7295	125.5811	154.9202	185.8772	247.2238	252.3868	329.6169	370.7683	517.4856	646.391	726.4437	780.7372	829.1852	838.9053	963.1062	981.6605	996.7491	1034.9688	1102.6281	1105.0436	1127.4865	1165.966	1185.2172	1209.0888	1255.9411	1276.8637	1304.7483	1339.325	1379.6893	1414.5611	1421.2489	1448.8004	1482.953	1490.3519	1498.4944	1511.125	1512.6017	1533.2595	1863.3641	3011.0686	3015.4461	3021.829	3036.3821	3045.8633	3059.5357	3061.8399	3072.8113	3101.8873	3125.3571	3127.5576
CCC1CN(C)C1=O	CC[C@H]1CN(C)C1=O	
InChI=1S/C6H11NO/c1-3-5-4-7(2)6(5)8/h5H,3-4H2,1-2H3	InChI=1S/C6H11NO/c1-3-5-4-7(2)6(5)8/h5H,3-4H2,1-2H3/t5-/m0/s1
