20
gdb 84150	2.41518	1.55359	1.07746	1.8402	81.01	-0.2252	0.0128	0.238	1167.1034	0.171693	-403.13142	-403.122911	-403.121967	-403.164229	33.243	
C	 0.4464420554	 1.4155757999	 0.2397179035	-0.478289
C	-0.0209082682	-0.007448421	 0.1088477132	 0.299871
C	 0.2752009371	-0.7794010734	-0.9386203592	-0.21031
C	-0.2179841787	-2.1889581502	-1.1081827733	 0.066514
O	 0.7400451876	-3.0136379889	-1.773937043	-0.428982
C	-0.6608929764	-2.8139448556	 0.2062153523	-0.030673
C	 0.2446931052	-2.7472556339	 1.3902208767	-0.260626
N	-1.0013461454	-1.9860895397	 1.3661470852	-0.107312
C	-0.8896582517	-0.5316478465	 1.2309329447	-0.239321
H	 1.0709082954	 1.5466225078	 1.1327104009	 0.125755
H	 1.0236309317	 1.7319456607	-0.632951387	 0.124943
H	-0.4028892874	 2.1019865378	 0.3523500649	 0.127653
H	 0.8860719676	-0.401878833	-1.7556659679	 0.088778
H	-1.0747265925	-2.1892389036	-1.7959463767	 0.100472
H	 1.500928034	-3.0902979587	-1.1869389242	 0.275431
H	-1.2884660689	-3.6950314525	 0.0915567341	 0.094682
H	 0.277765225	-3.5665426948	 2.1030839854	 0.115624
H	 1.1798855114	-2.2016303915	 1.2743832506	 0.106359
H	-0.5299758014	-0.1405148718	 2.1919446619	 0.110034
H	-1.9084349998	-0.1345947413	 1.1116142578	 0.119397
96.2169	155.5171	196.5735	229.7647	303.7697	327.5059	363.6674	414.7735	417.825	472.8373	500.3487	599.6441	696.1341	750.8522	841.1016	863.2758	893.8396	921.7034	968.528	1000.0861	1013.5626	1050.2822	1064.5392	1074.2662	1099.4048	1122.7419	1159.1885	1169.6065	1179.7714	1260.5554	1279.0145	1317.1948	1320.908	1343.1491	1379.7997	1405.9211	1412.5872	1423.4396	1474.8845	1479.7674	1490.1285	1501.0552	1737.3306	2999.0775	3012.8655	3016.1082	3035.5802	3062.3675	3094.3875	3113.2452	3127.7693	3153.2415	3181.2912	3795.6074
CC1=CC(O)C2CN2C1	CC1=C[C@@H](O)[C@H]2CN2C1	
InChI=1S/C7H11NO/c1-5-2-7(9)6-4-8(6)3-5/h2,6-7,9H,3-4H2,1H3	InChI=1S/C7H11NO/c1-5-2-7(9)6-4-8(6)3-5/h2,6-7,9H,3-4H2,1H3/t6-,7-,8?/m1/s1
