18
gdb 64775	2.95235	1.19498	1.0994	4.3788	71.57	-0.2701	0.0297	0.2998	1166.504	0.147138	-439.103825	-439.094948	-439.094003	-439.13793	32.108	
C	-0.0406976127	 1.6812788179	-0.0622860138	-0.44305
C	 0.0473955813	 0.1608355459	-0.0503699838	 0.362771
C	-1.3526118332	-0.5101097302	-0.0316395366	-0.373801
C	-2.119270464	-0.1980971655	 1.1708602295	 0.277512
N	-2.7347764687	 0.0610989793	 2.113655148	-0.312087
C	 0.8873457946	-0.4363065044	-1.1975862626	-0.153404
O	 1.4355119003	-1.604651958	-0.6112016044	-0.239491
C	 1.7470119451	-1.219189458	 0.7047446367	 0.016888
O	 0.7712671947	-0.2702201075	 1.1080541363	-0.293326
H	 0.9617508078	 2.1151900124	-0.0304132926	 0.128467
H	-0.5465631841	 2.0345971675	-0.9671335378	 0.120057
H	-0.5993874352	 2.0399023405	 0.8058117071	 0.15741
H	-1.9310469012	-0.1929211587	-0.9070485576	 0.146232
H	-1.2184369349	-1.5945974897	-0.0981468975	 0.16024
H	 0.3074941638	-0.727988744	-2.0756947671	 0.122328
H	 1.6768220077	 0.2679480685	-1.5011236952	 0.101513
H	 1.708664634	-2.1035501381	 1.3485175895	 0.12554
H	 2.7469772847	-0.755337408	 0.7562618619	 0.096201
57.8601	91.0816	135.1373	212.5315	224.2727	311.0741	323.797	379.9292	401.0635	413.7229	529.8114	672.9513	734.726	792.9666	885.5887	896.6468	929.5398	971.8738	982.4129	1008.6649	1048.3543	1117.2672	1130.7794	1160.2309	1192.9292	1209.2017	1224.0196	1278.3944	1282.2633	1334.925	1368.3535	1414.9659	1432.846	1461.5435	1485.6958	1496.407	1508.6517	1548.9519	2364.3863	2957.0947	2993.3138	3042.3234	3046.7503	3076.7955	3093.7559	3111.442	3116.7101	3132.2028
CC1(CC#N)COCO1	C[C@@]1(CC#N)COCO1	
InChI=1S/C6H9NO2/c1-6(2-3-7)4-8-5-9-6/h2,4-5H2,1H3	InChI=1S/C6H9NO2/c1-6(2-3-7)4-8-5-9-6/h2,4-5H2,1H3/t6-/m1/s1
