14
gdb 12306	3.01716	2.29237	1.36784	5.775	58.28	-0.2566	-0.078	0.1786	851.9065	0.1077	-419.724495	-419.717525	-419.716581	-419.75647	25.261	
O	 0.0390513834	-0.0172110112	 0.262661849	-0.254833
C	-0.0318421082	 1.1519527034	-0.0016626923	 0.274364
C	-1.3342476186	 1.8624595973	-0.3219238648	-0.313307
C	-1.0917552795	 3.1372982172	-1.1316321839	-0.244478
C	-0.051182022	 3.9858968912	-0.4214075606	-0.064254
O	 1.2126832211	 3.3106461782	-0.289498106	-0.222222
C	 1.2897323806	 1.9876554656	-0.0199685399	 0.322001
O	 2.3508352359	 1.4687696492	 0.1656358059	-0.285292
H	-2.0048719606	 1.1524308059	-0.8130606888	 0.141767
H	-1.7975639487	 2.1195409896	 0.6420192599	 0.141288
H	-0.73616567	 2.8934785357	-2.1395106233	 0.128529
H	-2.0164192729	 3.7121447779	-1.243880467	 0.122202
H	 0.1772903697	 4.9001829444	-0.9730432068	 0.134326
H	-0.4008964702	 4.2729364554	 0.5792961487	 0.119908
45.235	119.4318	289.8116	343.8159	407.2018	431.8092	455.5934	557.0046	587.5883	670.8831	725.1849	878.1463	892.673	956.1373	988.6085	1080.3362	1087.7409	1138.9934	1178.061	1200.9238	1276.9456	1293.445	1344.2291	1377.0256	1422.1838	1452.1248	1485.4027	1516.0138	1833.9909	1851.1983	3015.9725	3022.6841	3044.9918	3092.0361	3101.2896	3110.0808
O=C1CCCOC1=O	O=C1CCCOC1=O	
InChI=1S/C5H6O3/c6-4-2-1-3-8-5(4)7/h1-3H2	InChI=1S/C5H6O3/c6-4-2-1-3-8-5(4)7/h1-3H2
