17
gdb 35323	3.55833	1.16758	1.0548	4.947	79.33	-0.2341	-0.0054	0.2287	1169.3986	0.137228	-380.863329	-380.855464	-380.85452	-380.896203	30.281	
N	 0.1154554244	-1.0392117669	 0.7382224215	-0.326961
C	 0.042172337	 0.0518867439	 0.3649295897	 0.306275
C	-0.0258478554	 1.4412406648	-0.1409557849	-0.209326
N	-0.8258435231	 2.3116912568	 0.7472865083	-0.353932
C	 0.1022284564	 3.2502006051	 1.3825879365	 0.329456
C	-0.4264455041	 4.5479007425	 1.9302728917	-0.335836
C	 0.0386855849	 3.4714758841	 2.8811637443	-0.284725
C	 1.4011400597	 3.0949849462	 0.6840191443	-0.120193
C	 1.3566806729	 2.0817086913	-0.1761140855	-0.096298
H	-0.4829604106	 1.3863829069	-1.1369304482	 0.126414
H	-1.4875287469	 2.8269212999	 0.1793395645	 0.232219
H	 0.1773992977	 5.4410195742	 1.8107005863	 0.121289
H	-1.4957011054	 4.717311912	 1.8493829771	 0.121175
H	-0.7176293977	 2.9060104044	 3.4124393244	 0.133909
H	 0.9676907826	 3.6218661078	 3.4203945114	 0.117798
H	 2.2652266997	 3.7104607767	 0.9024980374	 0.115573
H	 2.1623504879	 1.6951254304	-0.7851089087	 0.123163
45.2237	139.0435	212.5067	270.345	304.1291	364.672	470.1659	492.5937	575.1535	589.3376	698.7429	766.0081	776.7954	817.3079	835.3407	880.705	891.3102	921.6129	955.947	973.4307	991.264	1016.0974	1053.3821	1077.3129	1080.8646	1125.9363	1191.5587	1233.8664	1295.2547	1302.1415	1346.4733	1387.3065	1445.2125	1459.201	1493.3856	1674.2704	2354.9582	3027.501	3126.7275	3138.3169	3207.0932	3210.851	3234.8532	3237.6402	3544.2549
N#CC1NC2(CC2)C=C1	N#C[C@H]1NC2(CC2)C=C1	
InChI=1S/C7H8N2/c8-5-6-1-2-7(9-6)3-4-7/h1-2,6,9H,3-4H2	InChI=1S/C7H8N2/c8-5-6-1-2-7(9-6)3-4-7/h1-2,6,9H,3-4H2/t6-/m0/s1
