20
gdb 112506	2.11468	1.24347	1.10667	3.1384	78.76	-0.2714	0.0295	0.3009	1236.4905	0.170504	-403.151635	-403.14202	-403.141075	-403.186248	35.15	
C	-0.7404239062	 1.2807774077	 0.1615323918	-0.421625
C	-0.1273647476	-0.105727716	 0.0354672397	 0.005141
C	 0.6308888747	-0.5465311914	-1.2573529574	 0.007805
C	 1.2175102029	 0.5762358464	-2.1007915279	-0.100595
O	 2.0175980324	-0.0376615725	-3.1016103567	-0.423762
C	 1.6849095428	-1.2586148629	-0.3679352933	-0.231017
C	 1.1481783823	-0.4817855399	 0.8821101467	-0.182132
C	 1.9722485841	 0.6496481624	 1.2768520201	 0.288058
N	 2.6228855429	 1.5579990293	 1.5782670259	-0.346648
H	-0.006964406	 2.0735416494	-0.0084918595	 0.139785
H	-1.5560880223	 1.4089179103	-0.5577434516	 0.120417
H	-1.1561623089	 1.4287429614	 1.1638125385	 0.124015
H	-0.8891255893	-0.8575963551	 0.2639780801	 0.089273
H	 0.063491287	-1.2053621214	-1.9202460097	 0.0816
H	 0.4049372555	 1.1709323224	-2.5476135609	 0.088908
H	 1.8179001251	 1.2554124671	-1.476938141	 0.109005
H	 2.4790540406	 0.6539997628	-3.5845692525	 0.289911
H	 1.5097766115	-2.3311869056	-0.2660399933	 0.111684
H	 2.7289844938	-1.0927276044	-0.63453662	 0.1317
H	 0.9510929048	-1.0885790101	 1.7694615311	 0.118475
60.7319	122.3424	141.174	173.7933	210.9293	228.1087	261.7914	283.4383	351.027	426.0138	486.3915	517.3458	598.762	699.8308	783.5509	834.2599	847.8159	918.202	942.3435	976.3694	989.492	1066.9961	1070.5319	1101.9644	1124.4859	1150.7445	1160.3745	1184.5831	1236.7817	1248.6406	1266.2574	1282.6401	1293.9522	1348.0895	1365.5595	1372.2157	1414.0483	1460.7097	1485.2354	1492.9165	1498.2999	1524.7187	2344.3213	2971.7971	3007.9356	3036.5594	3051.6684	3071.5065	3076.4561	3086.8161	3099.6085	3117.9976	3142.9236	3831.4856
CC1C(CO)CC1C#N	C[C@H]1[C@@H](CO)C[C@H]1C#N	
InChI=1S/C7H11NO/c1-5-6(3-8)2-7(5)4-9/h5-7,9H,2,4H2,1H3	InChI=1S/C7H11NO/c1-5-6(3-8)2-7(5)4-9/h5-7,9H,2,4H2,1H3/t5-,6+,7-/m1/s1
