15
gdb 16848	3.88787	2.01713	1.52259	4.5641	67.68	-0.2374	-0.0525	0.1849	819.761	0.12108	-362.669279	-362.662891	-362.661946	-362.699913	24.9	
O	 0.0219577097	 0.0075759422	-0.5145087563	-0.334233
C	 0.0044580519	 1.1309068532	-0.0538417419	 0.380149
C	-1.3227799981	 1.8265875153	 0.263129363	-0.325928
C	-1.2361996483	 2.9487106422	 1.2709676403	-0.0376
N	-0.5454343934	 2.6449149512	 2.5263840497	-0.324037
C	 0.0898162659	 3.575319203	 1.5473873517	-0.092689
C	 1.2794750749	 3.0499990092	 0.843154061	-0.006562
C	 1.2448123474	 1.9120107777	 0.1375084479	-0.169292
H	-1.6940686636	 2.2261875377	-0.690650177	 0.129836
H	-2.0376510965	 1.061495666	 0.5800615191	 0.137142
H	-2.1071088829	 3.5992913124	 1.3195053732	 0.092839
H	-0.9525774922	 3.1853650991	 3.2865204508	 0.236294
H	 0.113926731	 4.6279173114	 1.8131447059	 0.093202
H	 2.2074195232	 3.6080366196	 0.9397250412	 0.109346
H	 2.1334299709	 1.4971215899	-0.3269449684	 0.111533
82.7083	243.8952	336.1663	376.6395	450.6436	498.8711	570.9127	623.8727	718.9934	748.3204	811.5735	833.6459	878.2497	919.904	960.4644	991.1422	996.1095	1017.9787	1102.7095	1147.5037	1159.9005	1198.5992	1215.4996	1249.5642	1260.5295	1341.5368	1390.3241	1417.3489	1443.2865	1461.0365	1681.0943	1775.5298	3027.5739	3091.3832	3123.7986	3149.6595	3163.5903	3193.9513	3493.5505
O=C1CC2NC2C=C1	O=C1C[C@H]2N[C@H]2C=C1	
InChI=1S/C6H7NO/c8-4-1-2-5-6(3-4)7-5/h1-2,5-7H,3H2	InChI=1S/C6H7NO/c8-4-1-2-5-6(3-4)7-5/h1-2,5-7H,3H2/t5-,6+/m0/s1
