18
gdb 128218	2.47503	1.34591	0.88501	1.7779	77.86	-0.1758	0.0361	0.2118	1305.8773	0.148085	-435.275142	-435.265717	-435.264773	-435.309583	33.9	
C	-0.2281781892	 1.4059765392	-0.0060014783	-0.322303
N	 0.189997075	 0.026112075	 0.1564723908	-0.397953
C	 0.7009396053	-0.6202667302	-0.9709751323	 0.140437
C	 1.2102564653	-0.1041865793	-2.1490815595	-0.109875
N	 1.6006928982	-1.1617126784	-2.9201639162	 0.03512
C	 2.3532338507	-1.1246093707	-4.1486268108	-0.315447
N	 1.3885285708	-2.3462660207	-2.2976979638	-0.374484
C	 0.8435819365	-2.0183796264	-1.1388386767	 0.359655
O	 0.4348042773	-2.9371725568	-0.2300305539	-0.443083
H	 0.6457169826	 2.0347450473	-0.2128859724	 0.126665
H	-0.9517977314	 1.5578091259	-0.8250360716	 0.104356
H	-0.6752200517	 1.7601627852	 0.9259423239	 0.122351
H	-0.496765753	-0.5444638318	 0.6305621026	 0.240328
H	 1.3161450232	 0.9112372325	-2.4941833594	 0.120128
H	 3.4351834637	-1.1745800476	-3.9713946357	 0.132803
H	 2.0610458882	-1.9746278862	-4.7685623974	 0.147797
H	 2.1251252167	-0.1982416598	-4.6815763056	 0.131898
H	 0.6154249719	-3.8071550773	-0.6062755737	 0.301607
77.1685	104.7375	132.6011	163.4371	201.7413	276.9104	288.505	327.163	353.47	401.903	549.4973	577.3277	602.975	655.5859	682.507	708.8512	748.4572	858.0424	1007.1883	1070.6148	1088.1315	1144.8951	1151.2615	1161.8252	1189.6778	1233.7339	1268.9072	1362.6471	1437.3023	1449.0664	1468.567	1471.1608	1484.3482	1487.2803	1496.5988	1520.1713	1523.0176	1582.4906	1667.848	2958.2721	3018.8935	3052.6621	3096.075	3115.1982	3138.2804	3265.6045	3576.2327	3803.0579
CNC1=CN(C)N=C1O	CNc1cn(C)nc1O	
InChI=1S/C5H9N3O/c1-6-4-3-8(2)7-5(4)9/h3,6H,1-2H3,(H,7,9)	InChI=1S/C5H9N3O/c1-6-4-3-8(2)7-5(4)9/h3,6H,1-2H3,(H,7,9)
