20
gdb 118923	2.62912	1.05713	0.96667	1.2292	76.19	-0.2666	0.0178	0.2844	1353.324	0.16936	-440.286765	-440.276886	-440.275942	-440.321889	35.718	
C	-0.0041246126	 1.5098837629	-0.127656969	-0.383574
C	 0.0380982185	-0.0185289809	-0.054232201	-0.188849
C	 0.747380235	-0.528757457	 1.2060508503	-0.226932
C	 0.782976182	-2.0539401506	 1.3107439539	 0.258124
O	 1.4405694154	-2.6596118295	 0.2152262468	-0.477087
C	 1.2606862483	-2.6305995393	 2.6635969235	-0.118592
O	-0.0825948915	-3.1645291461	 2.9177445589	-0.255232
C	-0.5294410232	-2.7339818933	 1.6930028684	 0.391842
N	-1.6221143151	-2.8998358512	 1.0990708116	-0.556706
H	 1.0050862065	 1.9368856892	-0.1212049836	 0.113966
H	-0.5029291324	 1.8483334055	-1.0408735304	 0.115127
H	-0.5475782596	 1.9332990143	 0.7242918863	 0.115611
H	-0.979978004	-0.4235133441	-0.0830202892	 0.129793
H	 0.5593767399	-0.4107860915	-0.9356819041	 0.097169
H	 1.7847700852	-0.1689062982	 1.2224515238	 0.10408
H	 0.2551068984	-0.124672738	 2.1003417509	 0.100869
H	 0.7886397205	-2.7690256799	-0.4863950958	 0.298643
H	 1.9916349195	-3.4352448092	 2.5705990542	 0.131422
H	 1.5471143962	-1.9129072262	 3.4349696106	 0.119362
H	-2.2747705169	-3.4616435672	 1.6488353638	 0.230965
76.5229	88.3713	106.6835	165.5733	176.6614	239.3434	255.3186	300.3576	330.7208	363.9237	433.8514	534.5707	696.9678	742.8511	757.3641	767.6378	865.944	876.0716	896.4508	946.7357	949.4954	985.9298	1022.5667	1051.2111	1068.7051	1129.3388	1152.7756	1205.5778	1223.3407	1239.5384	1279.994	1307.2619	1334.972	1358.7317	1381.6799	1402.13	1414.4287	1473.4249	1497.1145	1500.7052	1503.201	1512.5426	1819.7062	3013.8669	3029.2621	3034.6621	3051.283	3073.3637	3074.0527	3099.6891	3104.3662	3143.8195	3472.1217	3807.7047
CCCC1(O)COC1=N	CCC[C@@]1(O)CO[C]1[NH]	
InChI=1S/C6H11NO2/c1-2-3-6(8)4-9-5(6)7/h7-8H,2-4H2,1H3	InChI=1S/C6H11NO2/c1-2-3-6(8)4-9-5(6)7/h7-8H,2-4H2,1H3/t6-/m1/s1
