23
gdb 58460	2.29529	1.22482	1.14237	2.2418	81.3	-0.2531	0.0661	0.3193	1262.6302	0.203232	-425.419248	-425.408863	-425.407919	-425.453814	39.899	
C	 0.3080118108	 1.2756038179	 0.2703298755	-0.400185
C	 0.1279460142	-0.2003745559	-0.115576097	 0.018883
C	-1.3407171276	-0.6208195203	 0.0472602791	-0.400509
C	 0.6368941277	-0.4742090251	-1.5413903606	 0.434894
O	-0.1506598608	 0.3100708334	-2.4157832007	-0.491454
C	 2.1896598113	-0.3585281769	-1.7007974156	-0.296552
C	 2.2997868987	-1.8968822512	-1.6362655812	 0.122099
O	 2.6904095377	-2.2807561261	-0.3273985512	-0.427704
C	 0.7717017795	-1.9932863541	-1.8954498315	-0.32907
H	 1.3534934483	 1.5920414213	 0.2045986018	 0.108111
H	-0.2798516616	 1.9203470723	-0.3887384376	 0.128327
H	-0.0239450506	 1.4446666366	 1.2996664163	 0.104236
H	 0.7467544953	-0.8141737248	 0.5489135847	 0.08761
H	-1.9834360971	-0.0406629545	-0.6205386103	 0.129612
H	-1.4933877251	-1.6807978729	-0.1794757482	 0.103426
H	-1.6751284465	-0.4519213466	 1.0758588162	 0.10458
H	 0.1602129131	 0.1685093973	-3.3151527284	 0.272571
H	 2.460575695	 0.0315866388	-2.6868577355	 0.086986
H	 2.750120291	 0.1841393036	-0.93721126	 0.114423
H	 2.9455802818	-2.3702945478	-2.3868486349	 0.064736
H	 2.5231165671	-3.2243218217	-0.2337200945	 0.28213
H	 0.2153347209	-2.7152702751	-1.2911498999	 0.09633
H	 0.545965487	-2.1740815483	-2.9519498363	 0.086519
87.5456	98.8771	196.5847	214.3018	220.806	264.3697	275.5365	293.7314	316.0524	334.3441	361.1122	420.9429	435.5915	488.2765	508.5966	683.4369	785.1887	817.3944	842.1271	891.8542	933.5053	944.5883	951.7006	961.5879	995.7116	1021.0439	1058.5316	1071.2655	1117.922	1150.1496	1183.7434	1194.5238	1200.3529	1224.922	1239.4777	1282.2247	1329.3898	1353.0745	1356.4027	1397.4245	1403.5091	1414.5185	1422.2426	1454.4383	1479.5017	1487.6312	1492.48	1503.2598	1515.8597	3008.7792	3036.4804	3041.1204	3043.709	3048.6294	3058.7918	3097.4901	3102.1788	3103.2735	3116.2952	3121.005	3124.4074	3810.7668	3817.8511
CC(C)C1(O)CC(O)C1	CC(C)[C@@]1(O)C[C@@H](O)C1	
InChI=1S/C7H14O2/c1-5(2)7(9)3-6(8)4-7/h5-6,8-9H,3-4H2,1-2H3	InChI=1S/C7H14O2/c1-5(2)7(9)3-6(8)4-7/h5-6,8-9H,3-4H2,1-2H3/t6-,7-
