22
gdb 78810	1.8286	1.73901	1.70947	1.8451	84.96	-0.2294	0.0771	0.3065	1065.7635	0.193253	-367.154513	-367.145306	-367.144361	-367.188186	35.325	
C	-0.3141413185	 1.5928736644	 0.2479256607	-0.440393
C	-0.0505691845	 0.0893512686	 0.2697983052	 0.00282
C	 0.7966355006	-0.6511861156	-0.7670936943	-0.072647
C	 1.1290983251	-1.7181506216	 0.199520878	-0.095482
N	 2.2237165494	-0.8449033916	-0.2919877758	-0.16661
C	 2.2912813607	-0.2121042476	 1.0673371025	 0.068278
C	 2.8371567241	 1.2053463883	 1.1705132204	-0.43179
C	 0.8259192831	-0.6501827607	 1.336631783	 0.238096
C	 0.3075045068	-0.8906335302	 2.7310104614	-0.51387
H	 0.5723599763	 2.1921841226	 0.0428874346	 0.122587
H	-1.0525875318	 1.8275188991	-0.5268605057	 0.115478
H	-0.7328399909	 1.9281638497	 1.2038249625	 0.114902
H	-1.0239479815	-0.4188245139	 0.2848653913	 0.077459
H	 0.650506328	-0.725550536	-1.8371987316	 0.091051
H	 1.1306567588	-2.7995794517	 0.1511459902	 0.090996
H	 2.9380966333	-0.872128064	 1.6598428512	 0.076593
H	 2.4519608311	 1.8628322146	 0.3910184553	 0.128521
H	 2.5990050791	 1.6476840169	 2.1442535443	 0.113573
H	 3.9272772932	 1.1871534075	 1.071495835	 0.122316
H	 0.2008168576	 0.0535534896	 3.2785027938	 0.121558
H	-0.6748870265	-1.3751571816	 2.7165492762	 0.118355
H	 0.9880861166	-1.529511507	 3.3047410516	 0.118209
65.2521	137.7723	168.8752	194.4272	200.1576	262.3565	299.7032	332.2449	371.4414	546.5978	601.5191	627.3326	685.1218	707.3677	757.5403	802.6326	843.868	860.0783	878.806	912.5146	960.3493	1012.4949	1026.3039	1077.068	1085.3107	1101.2533	1113.6874	1116.3239	1151.8796	1163.5439	1188.1674	1212.9642	1229.841	1271.5886	1321.2713	1346.2735	1392.3395	1405.7369	1409.0498	1414.9666	1426.2832	1479.402	1486.1435	1490.8545	1494.2518	1497.3954	1516.8413	3013.5597	3016.169	3022.56	3035.8836	3041.8692	3084.1771	3087.5417	3091.6572	3098.9363	3137.3469	3158.7564	3189.0374	3203.7062
CC1C2C3N2C(C)C13C	C[C@H]1[C@@H]2[C@H]3N2[C@@H](C)[C@@]13C	
InChI=1S/C8H13N/c1-4-6-7-8(4,3)5(2)9(6)7/h4-7H,1-3H3	InChI=1S/C8H13N/c1-4-6-7-8(4,3)5(2)9(6)7/h4-7H,1-3H3/t4-,5-,6+,7+,8+,9?/m0/s1
