17
gdb 34397	2.84008	1.52925	1.29664	0.6885	73.96	-0.2488	0.021	0.2698	1021.8887	0.135978	-421.776289	-421.768571	-421.767626	-421.808418	30.012	
C	-0.0972209894	-1.2405159746	 0.0940271211	-0.397955
C	-0.0461036678	-0.0405553446	 0.0410745462	 0.25681
C	 0.0307963621	 1.4038650071	-0.0308883173	 0.195517
C	-0.7110377935	 2.0522787328	-1.2049910211	-0.27426
C	 0.0643325631	 3.3644096351	-1.3924656564	-0.101742
O	 1.4257864271	 3.0428857868	-1.0933145741	-0.259362
C	 1.4354203571	 2.1031767224	-0.0499499019	 0.028028
C	 1.0399790622	 2.6165877504	 1.348752278	-0.116613
O	-0.2869286649	 2.0540133956	 1.2332171117	-0.324702
H	-0.1482918044	-2.3001596216	 0.1457639667	 0.195786
H	-0.6239118149	 1.415681969	-2.0897427351	 0.121853
H	-1.7674669051	 2.2000152992	-0.9716334878	 0.125852
H	 0.0341862919	 3.7548479811	-2.4118205693	 0.116657
H	-0.3117605507	 4.1379579027	-0.7090398828	 0.109139
H	 2.3369047398	 1.4962799472	-0.1279131847	 0.104194
H	 1.6000625035	 2.1661793639	 2.1769188494	 0.110454
H	 1.025221384	 3.7060444776	 1.4610866872	 0.110344
108.4231	145.353	191.1557	231.7954	356.0013	397.5603	488.5341	508.7556	558.3758	619.2665	650.8683	663.7735	670.1397	830.5224	838.7634	896.6457	923.5982	971.3139	997.68	1015.2519	1040.4594	1086.8418	1115.7878	1140.9128	1161.1805	1181.4723	1213.3626	1232.9392	1258.2493	1321.3663	1333.7499	1359.2329	1394.9509	1466.6571	1509.8786	1520.8002	2234.8725	3012.9317	3025.2063	3069.9563	3078.6271	3108.6458	3124.3322	3130.6006	3500.5014
C#CC12CCOC1CO2	C#C[C@]12CCO[C@H]1CO2	
InChI=1S/C7H8O2/c1-2-7-3-4-8-6(7)5-9-7/h1,6H,3-5H2	InChI=1S/C7H8O2/c1-2-7-3-4-8-6(7)5-9-7/h1,6H,3-5H2/t6-,7-/m0/s1
