21
gdb 82376	2.31886	1.93229	1.32697	2.3296	81.65	-0.2108	0.0682	0.279	1040.6207	0.185613	-383.227145	-383.21935	-383.218406	-383.258976	31.686	
C	-1.0559239204	 1.0088829319	 0.0624747173	-0.386533
C	 0.0242303181	-0.0811167491	 0.006398617	-0.009813
C	 0.7887277648	-0.0452146558	-1.3038268951	-0.033837
N	 1.7392546176	 1.067045837	-1.5138944183	-0.341814
C	 2.2461239799	-0.3094890153	-1.3404025528	-0.029983
C	 2.9998560594	-0.6335948651	-0.063661949	-0.163557
N	 2.350335348	-0.330947724	 1.2114961488	-0.116858
C	 1.9170824055	 1.0425399224	 1.4873530968	-0.253385
C	 0.9161907981	-0.0390688723	 1.2449725528	-0.017905
H	-0.5992915944	 1.9994798685	-0.0165196208	 0.132086
H	-1.7728774678	 0.8959805894	-0.7584270798	 0.104104
H	-1.6140110769	 0.962981172	 1.0033834235	 0.112194
H	-0.4814744332	-1.0579394629	 0.0243030442	 0.076382
H	 0.2015834063	-0.3560358839	-2.1665969715	 0.080674
H	 1.7607042881	 1.3282896919	-2.4955684256	 0.2293
H	 2.6424049187	-0.8081054413	-2.224094419	 0.080625
H	 3.2015186743	-1.7137895833	-0.0724280862	 0.103634
H	 3.9752704958	-0.132111779	-0.0691201891	 0.109202
H	 2.1069302028	 1.3819589592	 2.5036370592	 0.098839
H	 2.0439946817	 1.7859754628	 0.7087413198	 0.143386
H	 0.4219517237	-0.4581296232	 2.1217903077	 0.08326
118.0842	214.8421	238.2932	251.7643	310.0298	353.5806	409.9213	455.4283	494.8606	664.1216	682.5892	696.9099	772.3438	832.2191	842.5925	873.2987	911.2842	945.2347	960.8872	1006.7844	1029.8748	1043.1504	1061.8975	1080.8904	1123.9394	1134.5424	1134.7608	1165.1735	1179.5212	1194.8838	1209.2109	1268.4253	1301.639	1330.0245	1340.1218	1361.1821	1378.0853	1395.5372	1403.8058	1425.3292	1470.0641	1481.6652	1493.5209	1499.0414	1501.9136	2992.9367	3008.527	3030.9158	3051.4444	3091.5667	3095.0964	3101.0038	3107.0849	3116.2564	3119.39	3211.4947	3505.5541
CC1C2NC2CN2CC12	C[C@H]1[C@H]2N[C@H]2CN2C[C@@H]12	
InChI=1S/C7H12N2/c1-4-6-3-9(6)2-5-7(4)8-5/h4-8H,2-3H2,1H3	InChI=1S/C7H12N2/c1-4-6-3-9(6)2-5-7(4)8-5/h4-8H,2-3H2,1H3/t4-,5+,6+,7-,9?/m1/s1
