16
gdb 11725	4.9116	1.41643	1.23774	2.3161	66.93	-0.2463	-0.0203	0.226	964.5639	0.129755	-383.721063	-383.713526	-383.712582	-383.752898	28.16	
O	-0.119269723	 1.4370611243	-0.1183423492	-0.430817
C	-0.0268423361	 0.0385768234	 0.0337167958	 0.122181
C	 0.2795367588	-0.5388576154	 1.4604493128	-0.34526
C	-1.0652375015	-1.2612498999	 1.4304475255	 0.270143
C	-2.1912928928	-0.2710911167	 1.2244688109	-0.325661
C	-1.3916653054	-0.6449895184	 0.0295804655	-0.09788
C	-1.3011893321	-2.6539649003	 1.8164315669	 0.056288
O	-0.4816966241	-3.3696699834	 2.3441380171	-0.270785
H	 0.7686888054	 1.804988301	-0.0623166088	 0.287217
H	 0.6387670111	-0.4022416134	-0.7192698847	 0.080426
H	 1.1272598879	-1.2253889772	 1.4808854495	 0.125632
H	 0.3930326266	 0.209719126	 2.2499275392	 0.10288
H	-3.1925279347	-0.6895230832	 1.2611753502	 0.124915
H	-2.0938525918	 0.7174328878	 1.6623091673	 0.135578
H	-1.8342075637	-1.1500464109	-0.8201206334	 0.103231
H	-2.3217295045	-3.0293527938	 1.5665094655	 0.061913
92.7104	164.0393	172.5927	284.4469	300.1735	354.5474	423.9922	478.0091	571.6068	656.5015	753.8195	783.4527	849.2337	896.2424	953.5429	971.7285	985.4906	1023.8124	1047.1298	1070.6434	1087.6087	1116.956	1165.3781	1210.2794	1230.2718	1244.4845	1304.2026	1339.6206	1388.1336	1423.6977	1438.2002	1475.1321	1492.6101	1800.3534	2851.028	3018.6275	3059.9684	3125.6158	3130.7111	3191.2207	3213.4896	3814.6974
OC1CC2(CC12)C=O	O[C@H]1C[C@]2(C[C@@H]12)C=O	
InChI=1S/C6H8O2/c7-3-6-1-4(6)5(8)2-6/h3-5,8H,1-2H2	InChI=1S/C6H8O2/c7-3-6-1-4(6)5(8)2-6/h3-5,8H,1-2H2/t4-,5-,6+/m0/s1
