15
gdb 131575	6.94606	0.64086	0.6076	1.8238	81.98	-0.2269	-0.007	0.2199	1763.7939	0.113675	-416.788893	-416.780343	-416.779399	-416.824092	29.894	
O	 0.2828392905	 0.7012782852	 0.9976193559	-0.409156
C	-0.1098506278	 0.2065543166	-0.2781292449	-0.231253
C	-1.4431087942	-0.3717368054	-0.1957255879	 0.258243
C	-2.5489983098	-0.8500408534	-0.1628521297	-0.068223
C	-3.8332275504	-1.4451879378	-0.0943411846	 0.194487
N	-4.8964478742	-0.896689552	-0.7028638777	-0.287398
N	-5.9056170993	-1.730299459	-0.41560466	-0.187134
C	-5.5380679467	-2.7876392515	 0.351528912	-0.027577
C	-4.1913706952	-2.6415389328	 0.5837164225	-0.298591
H	 1.1626386195	 1.0794081399	 0.8981132221	 0.288789
H	-0.1184671908	 1.009810667	-1.0328354803	 0.120593
H	 0.5938838725	-0.5616917978	-0.6393230992	 0.115895
H	-6.8216257772	-1.5185037664	-0.7737632831	 0.279243
H	-6.2470734504	-3.5386482326	 0.6614899159	 0.137253
H	-3.5458632465	-3.28681055	 1.1551959689	 0.114828
19.8579	79.3163	96.791	204.0571	223.3617	306.1248	398.5838	484.055	532.5025	533.4067	610.5878	664.469	733.427	774.7184	853.7832	923.6745	947.1952	1020.716	1025.9961	1062.2901	1081.0884	1117.4147	1212.2596	1246.1317	1251.3227	1309.512	1369.6184	1449.4103	1474.7502	1490.3658	1500.5749	1558.6857	2364.4733	2960.4653	2980.5598	3261.9372	3285.9763	3672.4493	3815.6047
OCC#CC1=NNC=C1	OCC#Cc1n[nH]cc1	
InChI=1S/C6H6N2O/c9-5-1-2-6-3-4-7-8-6/h3-4,9H,5H2,(H,7,8)	InChI=1S/C6H6N2O/c9-5-1-2-6-3-4-7-8-6/h3-4,9H,5H2,(H,7,8)
