15
gdb 124000	3.80037	1.59771	1.13744	3.819	75.52	-0.1873	-0.0074	0.1799	1001.941	0.115824	-416.811248	-416.804471	-416.803526	-416.842545	26.362	
C	 0.0700901523	 1.4661664725	 0.3071940018	-0.223421
N	 1.1473709961	 2.1368596506	-0.442122489	-0.417501
C	 2.1618782669	 1.3794920045	-0.9158244381	 0.488627
C	 2.1235671113	 0.0127339896	-1.07762501	 0.091615
C	 3.379539601	-0.2523168294	-1.6708185835	-0.081791
N	 4.1138167557	 0.8222527432	-1.8480961692	-0.173889
O	 3.3009761431	 1.8997093476	-1.3476064509	-0.239573
C	 0.9129053149	-0.6808931986	-0.6975531494	-0.166797
C	-0.0623599546	 0.0064535421	-0.0842712935	-0.102536
H	 0.2421897286	 1.5487528402	 1.3966767314	 0.113214
H	-0.867501585	 1.9982879683	 0.1045891555	 0.123384
H	 1.3362984313	 3.1051092143	-0.2362523994	 0.259902
H	 3.7926105121	-1.2030210036	-1.9814954737	 0.128187
H	 0.7886889275	-1.7334674349	-0.9289453547	 0.100825
H	-0.9879548412	-0.4760907163	 0.2086956226	 0.099753
91.1964	190.3545	281.1498	383.7672	401.4145	486.9623	530.4593	604.3376	609.6997	696.8885	750.631	778.9659	809.7607	876.1533	904.5004	914.2393	950.5906	977.3966	1036.8038	1060.4968	1186.2337	1197.8828	1242.6567	1268.1943	1304.4071	1344.0404	1371.3307	1455.4267	1484.79	1517.2011	1610.3595	1638.7365	1693.9651	2913.4347	3028.5297	3180.6425	3200.9207	3230.8776	3635.6729
C1NC2=C(C=NO2)C=C1	C1Nc2c(cno2)C=C1	
InChI=1S/C6H6N2O/c1-2-5-4-8-9-6(5)7-3-1/h1-2,4,7H,3H2	InChI=1S/C6H6N2O/c1-2-5-4-8-9-6(5)7-3-1/h1-2,4,7H,3H2
