14
gdb 128065	4.63452	1.13235	0.91535	3.6686	66.26	-0.2606	-0.0772	0.1834	1197.1819	0.101013	-462.314196	-462.305773	-462.304828	-462.3485	28.398	
C	 0.0552127041	 1.4131769131	-0.0198880104	-0.314858
N	-0.0752074915	-0.0300765549	 0.050164258	-0.336962
C	-1.2941559995	-0.6100267162	-0.0082104415	 0.532041
N	-2.4002909622	 0.0025795033	-0.0585904503	-0.544525
N	-1.1914609176	-2.065372093	 0.0075264434	 0.055419
N	-0.0529732794	-2.7484968662	 0.0267090629	-0.120279
N	-0.4007649023	-3.9946939377	 0.0253475083	-0.07235
N	-1.7502873775	-4.0709046399	 0.0055765311	-0.070089
N	-2.2410504142	-2.8734554096	-0.0064990999	-0.106825
H	 1.1037440079	 1.6734682551	 0.1310956497	 0.135059
H	-0.2795542074	 1.8023236472	-0.9880371428	 0.146088
H	-0.5495967365	 1.8843639381	 0.7593353802	 0.158786
H	 0.7372294711	-0.618929381	-0.0178266669	 0.281859
H	-3.1915495449	-0.6345383484	-0.0683434418	 0.256635
53.1552	72.56	107.2709	176.0862	206.5741	289.9192	317.4852	405.2725	487.281	682.0227	733.3793	758.6445	783.1893	816.0471	959.1333	1005.5208	1097.5373	1134.5648	1138.5988	1161.142	1180.6978	1201.8244	1257.6398	1277.7191	1351.4169	1399.2106	1458.8227	1475.1868	1511.2855	1549.0592	1782.4326	3038.2692	3102.6725	3146.7601	3554.5534	3666.8482
CNC(=N)N1N=NN=N1	CNC(=N)n1nnnn1	
InChI=1S/C2H5N7/c1-4-2(3)9-7-5-6-8-9/h1H3,(H2,3,4)	InChI=1S/C2H5N7/c1-4-2(3)9-7-5-6-8-9/h1H3,(H2,3,4)
