16
gdb 44510	4.42305	1.46073	1.2632	3.7651	68.61	-0.2301	0.0041	0.2342	970.4526	0.126356	-437.850745	-437.844358	-437.843414	-437.881566	25.918	
O	 0.0481118314	 0.092487663	 0.641411829	-0.323361
C	-0.0156606312	 1.1633266527	 0.1078568658	 0.402269
C	-1.3104675734	 1.9180316941	-0.1642340463	-0.325973
N	-1.194711952	 3.2177546563	-0.8282956364	-0.130285
C	-0.1768870795	 3.2551973759	-1.9672480185	-0.065137
C	-0.072556659	 4.7744900249	-1.7056726268	-0.221806
C	-0.039916443	 4.0822504352	-0.3246244871	-0.065138
C	 0.9598988574	 3.0625430252	-0.9298094621	 0.142765
O	 1.1115552862	 1.7961646888	-0.3048263898	-0.237984
H	-1.9533540854	 1.2657628295	-0.7656227872	 0.14877
H	-1.8232718486	 2.0514192138	 0.7947573648	 0.148757
H	-0.3442017449	 2.7280634435	-2.9071025467	 0.096952
H	 0.8357280518	 5.2800727795	-2.0359687366	 0.107094
H	-0.9828250676	 5.3350655832	-1.9120158662	 0.124003
H	-0.0459195607	 4.5291546352	 0.6700772029	 0.09695
H	 1.9681567485	 3.3972668093	-1.1824274386	 0.102123
97.2119	257.8268	387.9039	409.8501	430.1727	502.9681	554.939	616.0599	767.656	777.8256	783.5858	802.7507	834.0173	892.3448	906.541	986.772	1009.6615	1015.7597	1041.4117	1101.3454	1122.4352	1135.9125	1150.5622	1182.6669	1188.9468	1199.3216	1221.4414	1257.3884	1268.4643	1276.963	1338.4296	1417.6723	1449.7189	1490.5266	1865.6117	3049.2883	3086.4052	3086.9479	3092.1914	3114.103	3121.0689	3171.2765
O=C1CN2C3CC2C3O1	O=C1CN2[C@H]3C[C@@H]2[C@H]3O1	
InChI=1S/C6H7NO2/c8-5-2-7-3-1-4(7)6(3)9-5/h3-4,6H,1-2H2	InChI=1S/C6H7NO2/c8-5-2-7-3-1-4(7)6(3)9-5/h3-4,6H,1-2H2/t3-,4+,6-
