19
gdb 113365	1.95936	1.40202	1.05077	2.1142	74.72	-0.2405	-0.0256	0.2149	1241.8316	0.155135	-460.130261	-460.120143	-460.119198	-460.165567	35.45	
C	-0.0847158385	 0.8959702058	 0.4477006724	-0.241172
O	-0.2282219335	-0.1694621263	-0.4810508319	-0.22341
C	-1.4085256451	-0.8583389313	-0.3392193098	 0.095944
C	-1.4158003822	-2.2737501331	-0.774574348	-0.377722
C	-1.4764826115	-1.9872793293	 0.724438635	 0.252428
O	-0.347391366	-2.1443690979	 1.5149089882	-0.285171
C	 0.0648192308	-3.4910219473	 1.6922806324	-0.250923
C	-2.7795731832	-2.1291690026	 1.4125874444	 0.093973
O	-3.8535075818	-2.0688412598	 0.8573251476	-0.27751
H	 0.8553526703	 1.3971323034	 0.2088200789	 0.131523
H	-0.9089178444	 1.6178847662	 0.3561059037	 0.111603
H	-0.0477133387	 0.5189895875	 1.4764082948	 0.131663
H	-2.3253696277	-0.2755409842	-0.4381500297	 0.111266
H	-2.3172470414	-2.6740046322	-1.2241923931	 0.143826
H	-0.4711299174	-2.659144077	-1.1408269277	 0.137816
H	 0.9414234631	-3.4682245147	 2.342995745	 0.133899
H	-0.7181973638	-4.0981684564	 2.1673979051	 0.114312
H	 0.3373292991	-3.959215357	 0.7373227761	 0.116504
H	-2.6897608781	-2.2558165336	 2.5147538067	 0.081152
89.1331	96.47	116.4146	155.9842	167.6724	194.4218	220.8851	240.7456	295.3429	363.6253	413.1886	484.2171	596.6575	636.6058	723.4945	766.1986	852.2345	939.2088	1017.8347	1043.0091	1057.7919	1076.8	1098.4538	1141.4201	1175.2475	1180.5073	1186.619	1217.7152	1252.7936	1259.6704	1289.5171	1386.3983	1408.1939	1445.6195	1481.3735	1487.1872	1488.2324	1491.1448	1505.0347	1506.324	1796.2877	2885.1562	2998.1537	2999.3303	3055.025	3070.0097	3100.9695	3127.2701	3130.9833	3141.2885	3242.6456
COC1CC1(OC)C=O	CO[C@H]1C[C@]1(OC)C=O	
InChI=1S/C6H10O3/c1-8-5-3-6(5,4-7)9-2/h4-5H,3H2,1-2H3	InChI=1S/C6H10O3/c1-8-5-3-6(5,4-7)9-2/h4-5H,3H2,1-2H3/t5-,6-/m0/s1
