21
gdb 108523	2.65164	1.41435	1.17256	2.3132	77.41	-0.2416	0.0669	0.3085	1139.4607	0.183981	-424.220606	-424.212152	-424.211208	-424.253647	32.693	
O	-0.1125853429	 1.4640675115	 0.2482227086	-0.426126
C	 0.006074494	 0.0584671445	 0.0689519356	-0.18032
C	-1.3906580134	-0.5047217137	-0.0748254247	 0.317213
C	-2.2243001944	-0.571537794	 1.2250038032	-0.111692
O	-2.3901363757	-2.0012892028	 1.1090472759	-0.302924
C	-1.5613567592	-2.0544698849	-0.0763015423	 0.08479
C	-2.3509958211	-2.4236739806	-1.3282562159	-0.223183
C	-3.1447201882	-1.1435290993	-1.6556182946	-0.221976
C	-2.1645642835	-0.003148541	-1.3080759135	-0.263401
H	 0.7687060225	 1.8305875744	 0.3656607801	 0.289427
H	 0.5965114788	-0.1809944607	-0.8315207702	 0.082958
H	 0.5111273787	-0.4096662483	 0.9291382312	 0.087415
H	-1.6786604307	-0.29370807	 2.1356839318	 0.097865
H	-3.185464365	-0.0429780235	 1.211831609	 0.098124
H	-0.6709193168	-2.6733300506	 0.0892591333	 0.061412
H	-1.648104957	-2.6595240735	-2.1378869766	 0.093027
H	-2.980237126	-3.3029960236	-1.1638668969	 0.107911
H	-3.489521329	-1.1042336445	-2.6922486188	 0.094219
H	-4.0321204728	-1.0897287156	-1.0160772408	 0.113005
H	-2.6594819105	 0.9543139531	-1.1264045716	 0.108645
H	-1.4609811076	 0.1511257132	-2.1359043725	 0.09361
87.2965	131.4931	171.2356	223.1281	271.0332	314.3615	363.4665	373.4114	442.4144	578.9865	614.0458	677.3914	829.9674	850.6458	874.9584	903.799	927.2075	939.3806	968.6208	986.2517	1012.085	1030.8818	1050.5304	1059.7281	1093.2585	1143.4152	1152.6458	1172.5059	1201.6279	1225.4856	1238.5028	1278.8872	1287.326	1305.2579	1308.874	1338.1284	1339.3464	1367.0931	1385.272	1460.2015	1468.9806	1487.3524	1501.7653	1516.7395	1533.0745	2955.0982	2987.3384	3010.0832	3021.2274	3029.93	3037.7765	3051.5908	3054.4233	3093.4516	3095.6021	3104.2921	3829.4901
OCC12COC1CCC2	OC[C@]12CO[C@H]1CCC2	
InChI=1S/C7H12O2/c8-4-7-3-1-2-6(7)9-5-7/h6,8H,1-5H2	InChI=1S/C7H12O2/c8-4-7-3-1-2-6(7)9-5-7/h6,8H,1-5H2/t6-,7+/m0/s1
