17
gdb 47870	2.34753	1.69511	1.14699	4.1418	71.47	-0.2321	-0.0512	0.1809	1068.9547	0.137561	-455.146951	-455.138842	-455.137898	-455.18004	30.231	
N	-0.0309975617	 1.0476379319	 0.6927498555	-0.484459
C	 0.061532424	-0.0303355287	 0.0417308867	 0.305262
O	 1.1668032475	-0.8245651895	 0.0763011492	-0.24545
C	 1.4126827781	-1.7502831307	-0.9976563216	-0.097666
C	 0.6013894939	-3.044843159	-0.8806931699	-0.168043
N	-0.8195658799	-2.9595071187	-1.1879782432	-0.280837
C	-1.5788389227	-1.9899314648	-0.3965308561	-0.250205
C	-1.1694079055	-0.5442419241	-0.7021917254	 0.304781
O	-1.7606669935	 0.1408746335	-1.4997070611	-0.286323
H	 0.8415258651	 1.2345594607	 1.1945181609	 0.228312
H	 1.2309027125	-1.2598361934	-1.9631482553	 0.120464
H	 2.4811809973	-1.9715505458	-0.9250963676	 0.126363
H	 1.0468555023	-3.7862546505	-1.5541295606	 0.115677
H	 0.7151508484	-3.4277986806	 0.1416369019	 0.124389
H	-0.9603672688	-2.7734979724	-2.1763140596	 0.231156
H	-2.6407628062	-2.0863141465	-0.63738816	 0.13238
H	-1.4314143408	-2.2165439215	 0.665906776	 0.124198
58.2316	116.1766	205.1984	240.965	319.3128	332.5388	379.9399	410.0404	502.5603	553.5904	638.0881	689.8245	753.914	830.9637	835.7396	901.4601	928.2062	970.7523	989.69	1019.841	1076.0335	1132.3476	1159.7969	1175.4555	1229.2466	1301.6717	1318.5586	1345.2065	1354.8619	1389.3344	1408.207	1460.8385	1469.0467	1489.0202	1502.9508	1740.0023	1810.2612	3022.7575	3028.9055	3040.6345	3077.4671	3098.5129	3108.5954	3448.0095	3517.6716
N=C1OCCNCC1=O	[NH][C]1OCCNCC1=O	
InChI=1S/C5H8N2O2/c6-5-4(8)3-7-1-2-9-5/h6-7H,1-3H2	InChI=1S/C5H8N2O2/c6-5-4(8)3-7-1-2-9-5/h6-7H,1-3H2
