18
gdb 80773	3.41337	1.10557	0.97595	4.1722	74.41	-0.2516	0.0147	0.2663	1241.7631	0.147377	-439.044302	-439.03579	-439.034846	-439.078167	31.663	
O	-0.0293514567	 1.4393344542	 0.1015551933	-0.438924
C	-0.0614365101	 0.0449277563	 0.1087359616	 0.139056
C	-0.4484497917	-0.7481980765	 1.3188597215	-0.09958
C	-1.5554859695	-0.0004704948	 2.0689444979	-0.269351
C	-2.4429603192	-0.1053904466	 0.7883983192	 0.106957
O	-2.8794619857	 1.1160468003	 0.176308644	-0.207399
C	-4.0676007843	 1.6216317654	 0.5662619477	 0.127508
N	-4.4200768406	 2.7704909214	 0.1846798023	-0.439685
C	-1.3161486391	-0.7738239944	 0.0255597995	-0.159356
H	-0.8925021645	 1.7635129529	-0.1820692837	 0.305824
H	 0.7647766917	-0.3867354316	-0.4534113231	 0.100914
H	 0.1671987042	-1.5382360334	 1.7294026829	 0.095328
H	-1.9779594447	-0.5432999761	 2.9160260755	 0.106175
H	-1.2962203682	 1.0171549092	 2.3699721764	 0.124689
H	-3.3058965726	-0.7624735257	 0.9374097466	 0.095189
H	-4.6439304598	 0.9332013678	 1.2000402842	 0.088397
H	-5.3487210576	 2.9876323053	 0.5402549466	 0.232213
H	-1.4543576616	-1.5499944637	-0.7175836923	 0.092045
52.54	109.6924	114.8913	200.7048	260.9596	350.0165	381.5384	397.4677	472.7296	577.499	673.9541	747.9546	755.8449	816.2871	824.1075	870.9328	937.6877	970.5789	990.2829	1013.0645	1033.2844	1042.4922	1047.1998	1076.4102	1109.7432	1117.6985	1168.6781	1200.816	1240.5216	1264.162	1286.0249	1310.9489	1340.3115	1374.3818	1379.223	1423.5535	1439.654	1478.473	1747.2339	3020.9006	3051.898	3072.056	3127.9272	3130.312	3180.3244	3198.5735	3519.6855	3789.7758
OC1C2CC(OC=N)C12	O[C@H]1[C@H]2C[C@@H](O[CH][NH])[C@@H]12	
InChI=1S/C6H9NO2/c7-2-9-4-1-3-5(4)6(3)8/h2-8H,1H2	InChI=1S/C6H9NO2/c7-2-9-4-1-3-5(4)6(3)8/h2-8H,1H2/t3-,4+,5-,6-/m0/s1
