17
gdb 51829	3.11267	1.12487	0.90742	3.8603	70.91	-0.2272	-0.0306	0.1966	1260.3805	0.136137	-455.167266	-455.158599	-455.157655	-455.201989	30.372	
N	 0.1026958676	 1.2676139065	 0.2685724688	-0.608971
C	 0.0697401541	 0.0382458012	-0.0365944165	 0.471903
O	 1.1435352625	-0.7507963904	-0.3393773453	-0.249865
C	 0.6797035014	-2.0490675821	-0.7407275506	-0.095209
C	-0.7497513018	-2.1365343288	-0.1867022605	-0.192484
N	-1.0788769013	-0.7248485404	-0.1134048397	-0.109974
C	-2.3401162636	-0.2279467707	 0.3795420258	-0.251965
C	-2.5358172286	-0.4540296173	 1.8754338805	 0.147976
O	-3.5965050718	-0.6972055363	 2.3868598299	-0.231285
H	 1.0505016188	 1.6287867292	 0.2021541353	 0.227723
H	 0.6913273985	-2.1097271026	-1.834833595	 0.124754
H	 1.3559548866	-2.8006251135	-0.330270505	 0.130324
H	-1.425696499	-2.674873764	-0.8585031387	 0.125385
H	-0.780635983	-2.6302810663	 0.7966954577	 0.115654
H	-2.3457961656	 0.8555056424	 0.2089025688	 0.175044
H	-3.1785267285	-0.6745312119	-0.1638502651	 0.127326
H	-1.5998302463	-0.362398445	 2.4718830696	 0.093665
50.5297	64.438	112.0146	166.9064	185.0699	292.4406	341.9542	418.7436	511.8197	655.6437	695.1105	716.8715	759.8942	775.4511	809.1839	896.1642	967.9132	998.0243	1042.588	1053.7562	1085.9986	1142.3545	1170.441	1214.6705	1233.7943	1255.6118	1306.7169	1330.2289	1347.8593	1401.6621	1413.4522	1431.4243	1460.9888	1520.1228	1533.522	1770.7079	1838.5844	2883.0754	2982.2252	3042.2777	3042.6511	3071.601	3100.8249	3121.124	3540.8063
N=C1OCCN1CC=O	[NH][C]1OCCN1CC=O	
InChI=1S/C5H8N2O2/c6-5-7(1-3-8)2-4-9-5/h3,6H,1-2,4H2	InChI=1S/C5H8N2O2/c6-5-7(1-3-8)2-4-9-5/h3,6H,1-2,4H2
