18
gdb 66946	2.51307	1.94399	1.39834	2.4581	75.04	-0.2217	0.0669	0.2885	969.6325	0.14758	-401.844836	-401.837325	-401.836381	-401.876428	30.048	
C	 0.0136036228	 1.5129319862	 0.0850594788	-0.523101
C	 0.0247612569	 0.0198557222	-0.0234593849	 0.176062
C	-0.930001039	-0.9230519488	 0.7419887267	 0.04864
O	-1.0620006186	-2.1417654556	 0.0095091805	-0.293602
C	 0.3736774956	-2.0422251478	-0.2323974844	-0.040664
C	 0.5350214206	-1.0370655243	 0.973364848	-0.189052
C	 0.482420325	-0.8449983281	-1.1812635099	 0.377018
C	 0.3359139001	-0.7281394653	-2.6392507811	-0.317729
N	 1.6730046806	-0.6176168471	-1.986549104	-0.38516
H	 0.9954874451	 1.9422995387	-0.149266094	 0.121022
H	-0.7201525081	 1.9568665328	-0.5975443508	 0.129391
H	-0.2446542541	 1.8328754821	 1.0999755362	 0.128325
H	-1.7496304877	-0.5887200342	 1.3657456274	 0.108709
H	 0.8722572159	-2.9918008045	-0.410171424	 0.093786
H	 1.177109849	-0.9827819084	 1.8414952784	 0.10417
H	 0.2027607988	-1.6129940356	-3.255484653	 0.1227
H	-0.1174216877	 0.1751752536	-3.0404757387	 0.110708
H	 1.9534977248	 0.3602285142	-1.940722791	 0.228778
157.562	194.0465	204.8935	228.9929	295.6531	355.5922	500.6621	559.132	618.1908	632.6198	759.2794	789.6439	813.948	845.7473	878.6252	899.91	927.8616	930.5357	943.1637	975.0653	983.5047	1043.7605	1050.471	1087.3221	1099.1233	1119.1442	1146.8057	1171.1253	1194.8637	1223.5977	1258.1199	1267.9072	1314.5834	1398.8398	1422.4204	1448.5668	1487.8526	1496.823	1522.1341	3019.5781	3077.1454	3094.2301	3105.3442	3159.4624	3189.8826	3194.9805	3212.606	3478.8048
CC12C3OC(C13)C21CN1	C[C@]12[C@H]3O[C@H]([C@@H]13)[C@]12CN1	
InChI=1S/C7H9NO/c1-6-3-4(6)9-5(3)7(6)2-8-7/h3-5,8H,2H2,1H3	InChI=1S/C7H9NO/c1-6-3-4(6)9-5(3)7(6)2-8-7/h3-5,8H,2H2,1H3/t3-,4-,5+,6+,7-/m0/s1
