23
gdb 63954	2.5997	1.57794	1.43766	1.2504	83.57	-0.2554	0.0722	0.3276	1063.2737	0.208453	-388.320245	-388.312121	-388.311177	-388.352139	34.199	
C	-0.2223201309	 1.5724945798	-0.0229692756	-0.460695
C	 0.0121252486	 0.0622604704	-0.0120014684	 0.427264
O	-1.2484987508	-0.5999991365	 0.1641054756	-0.485579
C	 0.7551288372	-0.4765305068	-1.2855079334	-0.263352
C	 1.9164954057	-1.3169860275	-0.7061579378	-0.000565
C	 2.977480626	-0.3440449505	-0.1397748201	-0.205751
C	 2.28104438	 0.222846275	 1.139739968	-0.227623
C	 0.9034054983	-0.4772943764	 1.134743961	-0.014709
C	 1.2796010459	-1.8723469128	 0.5864986253	-0.225734
H	 0.699709009	 2.1376424503	-0.1821886182	 0.116168
H	-0.9070043425	 1.8389424218	-0.8379941824	 0.100598
H	-0.6773449373	 1.8988548862	 0.9172888412	 0.120175
H	-1.8130821648	-0.3554713386	-0.5769364516	 0.269429
H	 0.0646078127	-1.0993496619	-1.8630346077	 0.087284
H	 1.1095134909	 0.3273279052	-1.9390721515	 0.08718
H	 2.3196608786	-2.0523478064	-1.4053712861	 0.052896
H	 3.9006363778	-0.8735272792	 0.1144886464	 0.092472
H	 3.2412937115	 0.4374424312	-0.8591753348	 0.088817
H	 2.830870043	-0.0623941583	 2.0415165196	 0.096169
H	 2.2156614532	 1.3130689757	 1.1446331331	 0.094226
H	 0.38276331	-0.4518496886	 2.0935021968	 0.060993
H	 0.4076584724	-2.5041808422	 0.4096640478	 0.107817
H	 1.9922121155	-2.4052474199	 1.224038423	 0.082519
114.421	228.233	267.4682	293.6684	314.8024	370.3474	390.7345	421.6169	463.5156	473.3653	559.4512	677.6974	766.6302	790.4406	817.2396	844.4321	881.1579	907.3153	925.3497	937.5152	952.0108	964.8368	966.9024	988.1604	1018.0912	1051.965	1092.9068	1112.2048	1133.6765	1141.3826	1178.0889	1210.8537	1222.5149	1256.3975	1268.2333	1278.3	1289.3134	1315.6312	1331.3504	1341.1673	1346.8665	1384.801	1407.3721	1475.8855	1484.4882	1490.4042	1497.3365	1504.7202	1522.6008	3025.3306	3038.3172	3043.8985	3056.1182	3059.5396	3079.5238	3084.4018	3089.4911	3092.2039	3102.7144	3105.5508	3121.0595	3125.1594	3802.9007
CC1(O)CC2CCC1C2	C[C@@]1(O)C[C@H]2CC[C@@H]1C2	
InChI=1S/C8H14O/c1-8(9)5-6-2-3-7(8)4-6/h6-7,9H,2-5H2,1H3	InChI=1S/C8H14O/c1-8(9)5-6-2-3-7(8)4-6/h6-7,9H,2-5H2,1H3/t6-,7+,8+/m0/s1
