19
gdb 95361	2.99647	1.52728	1.10998	1.9023	77.21	-0.2387	0.0049	0.2435	1109.003	0.160441	-423.025185	-423.017276	-423.016332	-423.057792	30.248	
C	-0.2023440824	 1.5140411608	 0.1005529272	-0.392247
C	 0.0217474288	 0.0089798568	-0.0049620486	 0.043565
O	 0.8743941727	-0.3041576573	-1.1375469588	-0.291825
C	 2.1046978654	-0.8984134468	-0.7022311179	-0.106401
C	 1.7236764258	-1.6141364343	 0.6015096462	 0.051907
O	 2.7136741196	-1.7642661434	 1.6009568556	-0.28022
C	 2.2076116588	-1.2144352277	 2.8259050904	-0.110674
C	 1.0231084626	-0.3642078388	 2.4193641318	-0.275339
C	 0.7441168123	-0.6122781747	 1.1470980308	 0.284735
H	 0.7419262195	 2.033115213	 0.2858228275	 0.123003
H	-0.6349155092	 1.8939221337	-0.8286566322	 0.128254
H	-0.8922494009	 1.7409394352	 0.9204415018	 0.114842
H	-0.9414757917	-0.4873530368	-0.1923120999	 0.093115
H	 2.4519539739	-1.5530304528	-1.5054760777	 0.108947
H	 2.8761347377	-0.1428082234	-0.4921847716	 0.097352
H	 1.2576531309	-2.5866435799	 0.3704335205	 0.082518
H	 1.9375571107	-2.0236784702	 3.5248268153	 0.105285
H	 2.9990915007	-0.6217667007	 3.3037626252	 0.114928
H	 0.5593779046	 0.3594231073	 3.0776743443	 0.108255
81.0347	153.2312	167.5377	234.216	277.8625	344.0842	423.6964	467.0601	587.4288	633.1163	674.297	773.1422	821.789	833.5788	866.0064	932.5285	968.738	991.7662	1010.957	1036.5628	1068.1509	1077.8008	1086.6579	1112.0982	1140.4477	1181.1129	1197.5278	1212.4525	1262.4097	1302.9173	1315.1904	1347.564	1361.4983	1378.7331	1395.5403	1402.8701	1486.8961	1492.6693	1517.2433	1518.2051	1750.888	2958.6868	2965.2378	2993.8528	2999.2261	3027.4414	3039.9247	3097.1431	3112.6076	3127.6412	3216.1575
CC1OCC2OCC=C12	C[C@H]1OC[C@H]2OC[CH][C]12	
InChI=1S/C7H10O2/c1-5-6-2-3-8-7(6)4-9-5/h2,5,7H,3-4H2,1H3	InChI=1S/C7H10O2/c1-5-6-2-3-8-7(6)4-9-5/h2,5,7H,3-4H2,1H3/t5-,7-/m1/s1
