17
gdb 45241	3.45474	1.70298	1.53224	4.3299	71.19	-0.2339	0.0056	0.2395	896.5167	0.140911	-418.002656	-417.996621	-417.995677	-418.032851	25.703	
O	-0.0309525851	-0.0654615932	-0.0209639508	-0.374342
C	-0.0257856205	 1.1432648057	-0.0307590607	 0.395269
N	-1.122489344	 1.9892183402	-0.0875806796	-0.298115
C	-0.673121435	 3.3402135098	 0.2594369822	-0.036062
C	-0.0058718462	 3.2715061149	 1.6747116799	-0.178709
N	 1.3935947259	 2.9163324694	 1.301064705	-0.137863
C	 1.6719644614	 4.0836677209	 0.3687525977	-0.190026
C	 0.6418132367	 3.4529885661	-0.5721766923	-0.03642
C	 1.1568038359	 2.1029984363	-0.017386776	-0.107944
H	-2.0230362946	 1.6365956854	 0.2046669311	 0.249796
H	-1.4429245565	 4.0920231996	 0.0922089802	 0.085833
H	-0.0039194126	 4.2181632627	 2.2205925007	 0.109453
H	-0.459753134	 2.4995884113	 2.3001531318	 0.113663
H	 1.4927912142	 5.0716201932	 0.802820846	 0.1026
H	 2.6932105681	 4.0217893119	-0.0139339985	 0.117638
H	 0.5389339697	 3.66620296	-1.6365476761	 0.082235
H	 2.0970806163	 1.6952960459	-0.3791860505	 0.102994
163.1106	312.2596	414.9494	454.1526	546.5381	556.1771	590.9184	645.2911	696.3193	793.2372	818.8807	842.9224	866.7783	881.2317	897.9362	940.4015	948.981	973.5657	1008.6663	1022.6499	1063.9764	1089.5934	1126.9619	1161.8306	1208.1758	1219.9424	1235.5625	1238.1091	1260.769	1281.066	1299.7989	1315.9119	1336.6317	1400.0228	1500.4674	1526.9433	1841.9605	3054.7563	3066.508	3112.9952	3115.8236	3120.9686	3130.9784	3160.2216	3608.015
O=C1NC2CN3CC2C13	O=C1N[C@H]2CN3C[C@H]2[C@H]13	
InChI=1S/C6H8N2O/c9-6-5-3-1-8(5)2-4(3)7-6/h3-5H,1-2H2,(H,7,9)	InChI=1S/C6H8N2O/c9-6-5-3-1-8(5)2-4(3)7-6/h3-5H,1-2H2,(H,7,9)/t3-,4+,5-/m1/s1
