17
gdb 13925	3.41989	1.92547	1.54621	3.4403	68.84	-0.2417	0.0365	0.2782	870.5052	0.14332	-363.87468	-363.867211	-363.866267	-363.906673	27.698	
O	 0.0949809896	-0.0030640519	-0.0467680691	-0.371559
C	 0.0424873428	 1.1991057787	-0.028098174	 0.400179
N	-0.9976599646	 2.0960891453	-0.0315405913	-0.338742
C	-0.159038075	 3.2990969764	 0.0026055333	-0.249357
C	 1.0724173481	 2.3531768703	 0.0085606773	 0.191457
C	 2.1579799325	 2.3005322478	 1.1123355008	-0.277172
C	 3.1575231008	 1.7966146813	 0.0357371109	-0.202461
C	 2.1957010328	 2.3358410891	-1.0579908957	-0.277187
H	-1.9979989046	 1.9651268727	-0.0507470904	 0.249296
H	-0.2497651532	 3.9358187876	-0.8842831224	 0.11073
H	-0.2808667707	 3.9067028755	 0.9060368212	 0.110729
H	 2.4100348503	 3.3039061225	 1.4695290595	 0.10123
H	 1.9622325664	 1.654823703	 1.9714230604	 0.113294
H	 4.1723296426	 2.1985303744	 0.059912485	 0.096819
H	 3.2033938332	 0.7057365538	 0.0187705466	 0.128212
H	 2.0303052527	 1.7184667836	-1.9438678304	 0.1133
H	 2.4594433565	 3.3501430001	-1.3734332117	 0.101231
89.0232	105.3905	181.4569	249.5405	260.3305	452.2951	480.7142	537.1014	699.2809	735.59	772.2476	791.5856	850.3552	897.9782	911.8865	936.8924	961.248	994.5839	1063.6101	1135.227	1152.0666	1162.0253	1175.9114	1213.7151	1218.456	1248.6412	1254.8579	1280.2163	1303.7465	1309.3212	1390.7172	1470.6416	1479.8994	1500.9702	1523.0665	1883.9891	3028.4725	3049.5258	3053.6062	3071.6683	3074.7926	3104.5097	3109.6645	3131.9921	3611.3085
O=C1NCC11CCC1	O=C1NCC21CCC2	
InChI=1S/C6H9NO/c8-5-6(4-7-5)2-1-3-6/h1-4H2,(H,7,8)	InChI=1S/C6H9NO/c8-5-6(4-7-5)2-1-3-6/h1-4H2,(H,7,8)
