16
gdb 131253	3.08143	1.42534	1.05664	4.32	71.77	-0.2324	0.0106	0.2431	1111.6377	0.125282	-434.041707	-434.033837	-434.032893	-434.075127	29.187	
O	-0.1439012081	 1.3620216765	 0.19405748	-0.428551
C	-0.0090151324	 0.031975848	 0.0129821756	 0.369259
C	-0.0043647325	-0.8087613202	-1.0790523359	-0.194225
N	 0.1758885233	-2.077936211	-0.6243645564	-0.179644
N	 0.2819841174	-2.0673787864	 0.6717686581	-0.172326
N	 0.169891941	-0.7734256521	 1.0810522788	-0.001491
C	 0.242058557	-0.3998748241	 2.4661103939	 0.055871
C	-0.3314306836	-1.316594174	 3.5108490215	-0.275937
C	 1.1648461202	-1.1483539154	 3.3875009688	-0.275946
H	-0.2621795734	 1.7827271211	-0.663398184	 0.318711
H	-0.1166585038	-0.5786907844	-2.1259199574	 0.116037
H	 0.1313000354	 0.6702479731	 2.582174869	 0.126391
H	-0.8465734553	-0.8640793092	 4.3505779395	 0.120509
H	-0.7509499918	-2.2488662583	 3.1527698932	 0.150409
H	 1.7161101338	-1.9714687295	 2.9493963634	 0.150426
H	 1.6963237528	-0.5781489441	 4.1409489519	 0.120507
28.9938	146.0825	176.5817	244.4445	304.9664	308.3325	438.1383	516.6908	617.0027	693.0988	711.3277	730.6415	780.0643	785.243	817.362	913.7113	955.277	989.0101	1042.5008	1070.3551	1088.2497	1115.9531	1122.8553	1145.7144	1201.3087	1217.5133	1229.6884	1295.0116	1310.1698	1363.5317	1429.1357	1452.6611	1496.4729	1551.1114	1619.9602	3143.8882	3145.5754	3205.1939	3234.2364	3246.9399	3266.0399	3841.1983
OC1=CN=NN1C1CC1	Oc1cnnn1C1CC1	
InChI=1S/C5H7N3O/c9-5-3-6-7-8(5)4-1-2-4/h3-4,9H,1-2H2	InChI=1S/C5H7N3O/c9-5-3-6-7-8(5)4-1-2-4/h3-4,9H,1-2H2
