16
gdb 44187	5.29003	1.01515	0.93053	3.0082	75.97	-0.2496	0.021	0.2706	1219.9217	0.124359	-400.719291	-400.711443	-400.710498	-400.751934	30.009	
O	-0.1057720918	 0.0311230412	 0.1938049189	-0.351624
C	-0.0268864059	 1.2182627612	 0.0396017068	 0.409645
N	-0.9855218882	 2.2170555028	-0.0480261788	-0.315229
C	-0.0349079583	 3.3219423999	-0.0815886637	 0.002418
C	 0.4319859192	 3.8348869111	 1.3350247683	-0.191495
C	 1.5964071802	 2.778916737	 1.3031750435	-0.253008
C	 1.1089691326	 2.2591319243	-0.0794227538	-0.183139
C	 0.8478656074	 5.2204062758	 1.3824495832	 0.305026
C	 1.2007678052	 6.370311201	 1.3835040565	-0.441292
H	-1.9553932462	 2.1985471598	 0.2390511234	 0.248306
H	-0.1932071577	 4.0678103437	-0.8593223221	 0.1024
H	-0.3199785235	 3.6369958045	 2.1046342293	 0.107193
H	 2.5738072587	 3.2586801297	 1.2502818892	 0.129031
H	 1.6026823744	 2.0459327676	 2.1116832045	 0.12623
H	 1.8333565078	 2.1330570601	-0.8806815826	 0.105795
H	 1.5074410763	 7.3868609602	 1.4008252175	 0.199743
66.1405	127.0893	171.4631	247.2416	363.8502	451.1209	455.3627	496.2313	520.6138	627.6583	636.5177	664.0305	736.7776	755.1712	831.6824	871.6406	892.1016	951.8224	993.478	1002.2083	1020.5097	1073.6311	1131.3766	1136.6631	1157.2737	1194.2121	1230.8379	1242.3698	1278.5516	1296.1733	1340.6637	1368.6951	1482.6055	1894.3005	2233.2533	3060.4447	3083.5541	3124.6637	3141.0789	3150.7754	3503.1213	3580.2469
O=C1NC2C(CC12)C#C	O=C1N[C@H]2[C@@H](C[C@@H]12)C#C	
InChI=1S/C7H7NO/c1-2-4-3-5-6(4)8-7(5)9/h1,4-6H,3H2,(H,8,9)	InChI=1S/C7H7NO/c1-2-4-3-5-6(4)8-7(5)9/h1,4-6H,3H2,(H,8,9)/t4-,5-,6+/m1/s1
