19
gdb 39967	3.38101	1.45162	1.20886	1.3919	82.87	-0.226	0.0077	0.2338	1075.6096	0.160207	-385.841467	-385.833934	-385.83299	-385.873402	29.955	
C	-0.11633306	 1.4291383736	-0.0320536046	-0.303153
C	 1.2661184572	 0.8105722928	 0.0466721957	-0.343669
C	 0.0456963141	-0.0551321432	 0.0109086114	 0.3212
C	-0.5474117516	-1.0062387478	 1.093784875	-0.396849
C	-1.3760394748	-1.5485243019	-0.0560357621	 0.22506
C	-2.6157028608	-1.58903394	-0.526983608	-0.229248
C	-2.5611264988	-1.1965107938	-1.9969565087	-0.10605
O	-1.2529116513	-0.621293963	-2.1963920716	-0.280687
C	-0.4481500003	-1.0203960772	-1.1053921299	 0.025159
H	-0.4987007488	 1.9337747468	 0.849751241	 0.109509
H	-0.4318988031	 1.8636750277	-0.9747651371	 0.128077
H	 1.8948597079	 0.8419325205	-0.8378305859	 0.116968
H	 1.8088690283	 0.895211983	 0.9830410647	 0.111169
H	 0.1988399236	-1.7068520018	 1.4830161373	 0.114119
H	-1.0916797906	-0.5580969449	 1.9282153418	 0.116186
H	-3.5447720003	-1.7060666698	 0.0164951529	 0.102324
H	-2.7059033876	-2.0401070593	-2.6911118995	 0.102691
H	-3.3194356025	-0.4398962639	-2.2373756221	 0.111625
H	 0.3591773895	-1.6860663178	-1.4461065302	 0.075569
93.6016	192.1771	197.6631	239.5691	344.6542	357.313	474.0346	550.5464	661.9331	751.0238	771.7916	780.2987	799.9784	840.8491	866.5932	919.1277	937.5268	956.9963	967.6924	984.1865	1013.9753	1026.6141	1048.8021	1075.8971	1103.1687	1105.701	1133.7277	1178.3333	1185.8034	1197.0934	1231.202	1234.2991	1293.6231	1340.4477	1369.9901	1379.94	1464.7975	1482.6065	1503.2221	1516.4804	1729.5738	2970.9054	2985.8385	3030.9149	3046.2923	3106.1727	3121.64	3126.9942	3201.085	3212.9287	3217.1706
C1CC11CC2=CCOC12	C1CC21C[C]1[CH]CO[C@@H]21	
InChI=1S/C8H10O/c1-4-9-7-6(1)5-8(7)2-3-8/h1,7H,2-5H2	InChI=1S/C8H10O/c1-4-9-7-6(1)5-8(7)2-3-8/h1,7H,2-5H2/t7-/m1/s1
