15
gdb 125776	3.23095	1.3889	0.97714	2.0683	74.05	-0.2274	-0.0435	0.1839	1140.2252	0.11219	-453.939231	-453.931233	-453.930289	-453.971685	30.286	
C	-0.0352338487	 1.4720068071	 0.0413139597	-0.450125
C	-0.0085441046	-0.0267802618	 0.0257410028	 0.354539
N	-0.0395911937	-0.566509988	-1.1418055326	-0.15552
O	-0.0158792092	-1.9822773839	-1.2001252585	-0.290743
C	 0.0367934775	-2.7093194494	-0.072781508	 0.499084
O	 0.0514983555	-4.019812557	-0.333290948	-0.396987
C	 0.0708448497	-2.1895906197	 1.1699877321	-0.367068
C	 0.0499707603	-0.7572507166	 1.3173666315	 0.252489
N	 0.0747968033	-0.0509398101	 2.393919122	-0.539453
H	 0.8519716682	 1.8494105903	 0.5571704313	 0.15541
H	-0.0779594363	 1.8624804291	-0.9758232368	 0.136393
H	-0.8972863053	 1.8176210712	 0.6184530759	 0.15541
H	 0.0200796526	-4.1378576433	-1.2925708852	 0.316846
H	 0.1127874215	-2.8515785439	 2.0246346849	 0.117505
H	 0.1145867292	-0.6582931438	 3.215478649	 0.212219
95.1866	169.6765	179.6096	306.8246	335.3565	355.4678	368.4861	429.3834	456.057	514.9241	565.3921	675.7652	718.387	745.9671	771.0811	809.8595	894.6285	895.2402	992.6273	1045.6387	1059.0561	1130.1306	1205.9223	1233.9037	1281.9818	1391.7498	1412.6844	1450.1687	1461.4994	1463.9522	1649.0971	1668.632	1727.6611	3057.7119	3120.5378	3158.3376	3220.9821	3443.41	3782.612
CC1=NOC(O)=CC1=N	CC1=NO[C](O)C=C1[NH]	
InChI=1S/C5H6N2O2/c1-3-4(6)2-5(8)9-7-3/h2,6,8H,1H3	InChI=1S/C5H6N2O2/c1-3-4(6)2-5(8)9-7-3/h2,6,8H,1H3
