15
gdb 27560	4.3965	1.11458	0.95505	1.5637	68.45	-0.2191	0.0236	0.2427	1189.4895	0.113519	-453.941398	-453.933898	-453.932954	-453.973877	28.214	
O	 0.0652901968	 1.2947247966	 0.1700550818	-0.402588
C	-0.0196368312	-0.0313337707	 0.0900529068	 0.483541
N	-1.060446074	-0.7511938076	 0.3264625454	-0.394496
C	-0.6061724005	-2.0588753961	 0.0959485219	 0.318735
C	 0.6942369892	-2.0307725952	-0.2670077893	-0.144647
O	 1.0928804412	-0.6984190342	-0.2753029502	-0.202759
N	-1.4038638617	-3.2032763463	 0.2302880697	-0.200374
C	-2.4253633213	-3.1731037363	 1.2932990874	-0.223477
C	-2.8269020486	-3.0603756915	-0.1285020126	-0.22345
H	 0.9643166759	 1.5579391438	-0.062536512	 0.318079
H	 1.4324645732	-2.7643375179	-0.5319791204	 0.150476
H	-2.5456879848	-4.1104931594	 1.8277860549	 0.119068
H	-2.4850178547	-2.2712345553	 1.894759455	 0.141381
H	-3.1534594916	-2.0836193231	-0.4719759019	 0.14145
H	-3.2461987778	-3.9138883968	-0.6524926864	 0.11906
61.7962	159.7681	177.2581	299.5422	347.3623	396.4226	453.1087	504.9915	594.094	665.3567	731.1754	752.7529	758.8166	825.1572	847.7103	908.1878	985.9486	1013.0783	1044.2711	1094.763	1112.2629	1136.2054	1156.4085	1185.3079	1209.6362	1228.3702	1253.1008	1352.5557	1429.2195	1479.969	1507.0497	1657.1137	1706.3123	3118.005	3120.645	3206.8587	3220.7796	3317.1654	3810.3967
OC1=NC(=CO1)N1CC1	Oc1nc(co1)N1CC1	
InChI=1S/C5H6N2O2/c8-5-6-4(3-9-5)7-1-2-7/h3H,1-2H2,(H,6,8)	InChI=1S/C5H6N2O2/c8-5-6-4(3-9-5)7-1-2-7/h3H,1-2H2,(H,6,8)
