23
gdb 113954	3.99019	0.68724	0.66239	1.3271	86.52	-0.2563	0.0783	0.3346	1792.4219	0.205241	-388.254618	-388.244597	-388.243653	-388.290669	36.964	
O	-0.0983986757	 1.2888569362	-0.7613666352	-0.421165
C	-0.0154262717	 0.1252894937	 0.0543826184	-0.095728
C	-1.355638073	-0.5598231081	 0.0179151575	-0.004078
C	-1.7060790068	-1.5096959389	-1.1018513787	-0.279312
C	-1.5306098259	-2.0358831685	 0.3014200838	 0.001619
C	-0.3886200405	-2.9660909282	 0.673256395	-0.239514
C	-0.7517860387	-4.4294950772	 0.5073897917	 0.045155
C	-0.5731829437	-5.1258945978	-0.8176911432	-0.249518
C	 0.3226887605	-5.4739840879	 0.3472011358	-0.281416
H	 0.7287612333	 1.7719040527	-0.6736146596	 0.282798
H	 0.7726649208	-0.5520486295	-0.3085267247	 0.079774
H	 0.239634117	 0.3934916545	 1.0928420675	 0.08353
H	-2.159167448	 0.0834166466	 0.3669089709	 0.086745
H	-2.6998068309	-1.4673439614	-1.5335984747	 0.108258
H	-0.9218158587	-1.7321356673	-1.8193665205	 0.107988
H	-2.4548189869	-2.2776109126	 0.8226381662	 0.079101
H	 0.4952407149	-2.7487120707	 0.0617761964	 0.089186
H	-0.0913986837	-2.7857108655	 1.7162413081	 0.095173
H	-1.6218312748	-4.7359382708	 1.0841330071	 0.078674
H	-1.3182822632	-5.8492873852	-1.130022137	 0.108625
H	-0.1414163461	-4.5571526542	-1.6346644122	 0.10895
H	 1.3540138959	-5.1372837789	 0.3104379737	 0.10664
H	 0.1895314659	-6.4347164411	 0.8324291235	 0.108514
44.3563	72.5319	97.203	103.6917	201.5199	246.3184	271.709	313.4734	359.6376	398.555	448.0815	555.1927	772.2666	784.2203	802.7643	835.5672	837.4782	871.9397	887.7916	922.7179	942.9896	972.449	1037.7782	1048.9237	1053.8987	1065.963	1069.9869	1078.1302	1098.8641	1138.1722	1143.4442	1176.9958	1198.0248	1201.7644	1229.4282	1239.9628	1258.1935	1274.7294	1283.3857	1326.0873	1383.3615	1409.1975	1430.9099	1469.7024	1470.7677	1483.2573	1496.5381	1508.1604	1520.0764	2962.1701	2993.74	3004.4425	3052.8529	3119.7995	3126.5773	3127.3147	3128.6025	3134.045	3143.1785	3204.4938	3211.0523	3219.9987	3824.1689
OCC1CC1CC1CC1	OC[C@H]1C[C@H]1CC1CC1	
InChI=1S/C8H14O/c9-5-8-4-7(8)3-6-1-2-6/h6-9H,1-5H2	InChI=1S/C8H14O/c9-5-8-4-7(8)3-6-1-2-6/h6-9H,1-5H2/t7-,8-/m1/s1
