16
gdb 60770	4.43705	0.90433	0.75486	5.8456	71.92	-0.2542	-0.0294	0.2248	1424.8617	0.123737	-471.256664	-471.247211	-471.246267	-471.292085	32.441	
C	-0.1063966809	 1.4491179097	-0.0655504413	-0.378758
N	-0.029117463	-0.0039039928	 0.0352497663	-0.189493
C	 0.0230314261	-0.5672484678	 1.3105207888	 0.178486
O	 0.0069620097	 0.0854653713	 2.3268416576	-0.324892
C	-0.0025675701	-0.8843273429	-1.0758306078	 0.551223
O	 0.0611613994	-2.0803588322	-0.9511116518	-0.345409
N	-0.0577046619	-0.2152419163	-2.2934784958	-0.392247
C	-0.0521984143	-0.7714430216	-3.5748556992	 0.08869
N	 0.0079755167	-2.0092268492	-3.825899102	-0.389777
H	 0.7607682304	 1.8619400018	-0.5926579948	 0.139592
H	-1.0291608946	 1.7687710139	-0.5621089355	 0.139569
H	-0.1089260568	 1.8322470834	 0.9551303078	 0.186011
H	 0.0794163126	-1.6612435353	 1.2674987092	 0.148158
H	-0.1100427051	 0.788452586	-2.2715570605	 0.25729
H	-0.1076564307	 0.0296414366	-4.3231392589	 0.097999
H	-0.0029263675	-2.1539385446	-4.8343498021	 0.233559
40.4082	56.2274	160.1586	163.4158	198.5528	229.0864	285.9074	319.2639	344.7568	401.6748	513.7644	529.1948	585.1078	760.656	818.8683	824.0369	917.7546	984.0079	1058.7381	1063.4081	1082.3984	1151.9239	1171.7514	1251.809	1281.677	1326.0445	1411.6625	1435.936	1443.9353	1509.3784	1512.3383	1549.1502	1741.75	1801.815	1837.5282	3025.801	3031.942	3085.2518	3086.6654	3152.0673	3500.0793	3668.4638
CN(C=O)C(=O)NC=N	CN(C=O)C(=O)NC=N	
InChI=1S/C4H7N3O2/c1-7(3-8)4(9)6-2-5/h2-3H,1H3,(H2,5,6,9)	InChI=1S/C4H7N3O2/c1-7(3-8)4(9)6-2-5/h2-3H,1H3,(H2,5,6,9)
