14
gdb 61349	3.21864	0.93548	0.80619	4.0089	70.1	-0.317	-0.0739	0.243	1370.3953	0.099484	-432.884408	-432.875332	-432.874388	-432.919129	31.241	
C	-0.0189062757	 1.5673073512	 0.0149384326	-0.407793
C	-0.0097903598	 0.0385804311	 0.0083454326	-0.026293
O	 0.5973148558	-0.4670509262	-1.2047899067	-0.238255
C	-0.2225870138	-0.6393668758	-2.2532247658	 0.340322
N	-1.4586266845	-0.3661462384	-2.2398076236	-0.51647
C	 0.5022346858	-1.1753520312	-3.3906464034	 0.263688
N	 1.0150436306	-1.5969842455	-4.3362773643	-0.30446
C	 0.7761792731	-0.5145658275	 1.1171532022	 0.297206
N	 1.3679697738	-0.9225667534	 2.0204210664	-0.301983
H	 0.9952537764	 1.9540201708	-0.1055019897	 0.153425
H	-0.6509654093	 1.9266531949	-0.79876257	 0.155947
H	-0.4244858741	 1.9285133802	 0.9633518206	 0.151666
H	-1.0323019233	-0.3456339929	 0.0676806077	 0.170585
H	-1.908239075	-0.5813283872	-3.1259489387	 0.262415
60.7638	73.822	122.2761	194.1336	219.3001	234.9394	313.2182	323.278	400.1338	482.5723	552.9241	566.7906	627.4178	729.7351	834.0928	848.5257	882.187	944.5853	1045.4716	1095.4652	1113.5004	1138.5688	1327.9774	1345.1774	1388.8109	1403.711	1485.0593	1494.0617	1705.3818	2360.2846	2373.0004	3060.7066	3082.0549	3141.1057	3154.536	3542.6614
CC(OC(=N)C#N)C#N	C[C@@H](O[C]([NH])C#N)C#N	
InChI=1S/C5H5N3O/c1-4(2-6)9-5(8)3-7/h4,8H,1H3	InChI=1S/C5H5N3O/c1-4(2-6)9-5(8)3-7/h4,8H,1H3/t4-/m1/s1
