20
gdb 115545	2.65197	1.10903	1.06404	3.6656	80.53	-0.2337	0.0245	0.2582	1277.9132	0.170822	-399.309402	-399.299572	-399.298628	-399.344262	35.62	
C	 0.1660408825	 1.5144522987	 0.097675273	-0.323026
N	-0.1604949181	 0.1175526453	-0.1746244688	-0.28423
C	 0.6477278466	-0.4766110151	-1.2097959351	 0.01782
C	 2.0381813874	-1.0636084184	-0.8109743621	-0.200081
N	 1.4080317423	-2.402026996	-0.7187143325	-0.336502
C	 0.2511069738	-1.9706715799	-1.5462239828	 0.121002
C	-1.1070482676	-2.503515239	-1.1022219694	-0.427345
C	 0.456574989	-2.2384257224	-2.9810307338	 0.253653
N	 0.6500993604	-2.4661715598	-4.0988462585	-0.346628
H	 1.2184183576	 1.6930959463	 0.3768803999	 0.102937
H	-0.0500384878	 2.1172788836	-0.7909996928	 0.130026
H	-0.467264432	 1.8800709217	 0.9106270216	 0.125411
H	-0.0782798583	-0.425288823	 0.6790415283	 0.228298
H	 0.6530166103	 0.1921973184	-2.0721770463	 0.09958
H	 2.7855863428	-0.9619572341	-1.6084068652	 0.111543
H	 2.4683475751	-0.7081969115	 0.1316238389	 0.103243
H	 1.9455881876	-3.1806678084	-1.0855600824	 0.230818
H	-1.2672262647	-2.2866256499	-0.0456634124	 0.125332
H	-1.9115623502	-2.0428059459	-1.6813299138	 0.138628
H	-1.1502742667	-3.5870480704	-1.2476308856	 0.129522
68.1161	99.9479	129.4355	168.5619	198.2171	205.8133	240.992	298.315	361.6992	410.4748	436.352	546.9548	592.5341	643.3766	722.813	776.4123	844.7972	905.438	913.6742	958.8911	992.502	1032.4277	1055.2091	1131.0015	1133.4375	1155.4826	1160.6565	1170.0183	1212.4081	1228.498	1261.1678	1306.9386	1367.0732	1377.3868	1411.9016	1458.671	1474.3678	1483.4516	1488.6009	1501.0145	1511.6895	1521.8177	2336.611	2958.446	3014.0528	3052.2187	3063.2334	3067.7979	3099.7492	3110.6697	3123.3447	3149.4782	3519.7538	3528.5015
CNC1CNC1(C)C#N	CN[C@H]1CN[C@]1(C)C#N	
InChI=1S/C6H11N3/c1-6(4-7)5(8-2)3-9-6/h5,8-9H,3H2,1-2H3	InChI=1S/C6H11N3/c1-6(4-7)5(8-2)3-9-6/h5,8-9H,3H2,1-2H3/t5-,6+/m0/s1
