20
gdb 116582	3.55341	0.9377	0.79333	3.3892	85.45	-0.2185	0.0057	0.2242	1506.0649	0.170495	-399.367184	-399.357416	-399.356472	-399.403367	34.929	
C	 0.1291295649	 1.5354079276	 0.0553585567	-0.358583
C	-0.027591945	 0.015313339	-0.0645157107	-0.147895
N	 0.6926302189	-0.4942563004	-1.2185680471	-0.326422
C	 1.7849768927	-1.116868949	-1.0695575925	 0.394922
C	 2.6522077124	-1.6971078607	-2.1846396618	-0.260457
N	 3.8049002754	-2.3314225229	-1.5347069438	-0.291188
C	 3.6507603709	-2.1588621416	-0.2770004314	 0.376885
C	 4.5900335455	-2.6391851901	 0.7799728159	-0.492234
N	 2.4975645206	-1.4601059263	 0.0855168739	-0.388723
H	 1.1721246417	 1.8086361555	 0.2463167675	 0.111397
H	-0.178453706	 2.0201448542	-0.8752516302	 0.131666
H	-0.4843493169	 1.9274968311	 0.8729999152	 0.108229
H	 0.2638391439	-0.4611436179	 0.8882902666	 0.059963
H	-1.0894215755	-0.2215586339	-0.2050920346	 0.108706
H	 2.0911756274	-2.4278357895	-2.7775295226	 0.139541
H	 2.9809785825	-0.9136992513	-2.8765484523	 0.138781
H	 5.4264474733	-3.154417945	 0.3081765071	 0.160297
H	 4.9731565775	-1.8014479953	 1.3734720509	 0.137305
H	 4.0863053585	-3.3273592119	 1.4680299618	 0.138274
H	 2.2370580972	-1.2238933815	 1.0262444813	 0.259536
15.7126	88.1241	125.7855	153.8734	185.7722	255.3893	257.575	327.309	361.5436	395.7482	495.7572	578.6523	621.3251	655.6772	711.6136	808.7176	876.3883	914.6434	970.5016	978.1974	981.1033	1054.5681	1065.625	1068.1869	1115.2741	1161.1731	1183.4331	1207.2257	1261.1681	1289.3269	1313.066	1367.0352	1397.3997	1402.0742	1434.3386	1457.6994	1480.7672	1482.079	1488.4402	1497.1755	1522.6821	1714.963	1783.0567	2939.1762	3034.3554	3037.6861	3037.794	3046.3612	3076.3984	3091.9426	3104.8469	3119.5172	3159.7045	3684.6321
CCN=C1CN=C(C)N1	CCN=C1CN=C(C)N1	
InChI=1S/C6H11N3/c1-3-7-6-4-8-5(2)9-6/h3-4H2,1-2H3,(H,7,8,9)	InChI=1S/C6H11N3/c1-3-7-6-4-8-5(2)9-6/h3-4H2,1-2H3,(H,7,8,9)
