19
gdb 75368	2.64844	1.78141	1.39504	1.6412	75.56	-0.2339	0.0155	0.2494	1001.1518	0.161431	-423.044473	-423.036998	-423.036054	-423.076207	29.635	
C	-0.059945073	 1.4983415735	 0.0678816025	-0.498122
C	 0.0252690356	 0.0064735867	-0.047848097	 0.343581
C	 0.0155539273	-0.6769370008	-1.1939480603	-0.168645
C	 0.0453873582	-2.187748676	-1.2133144163	-0.266826
C	-0.1116985127	-2.7206280421	 0.2166261448	 0.042974
C	-1.4935547042	-2.3731384679	 0.8414819803	-0.099557
O	-1.2413620362	-1.2013557802	 1.6236077763	-0.259097
C	 0.0717299691	-0.7958605059	 1.2494768082	 0.071546
O	 0.7826690217	-1.9985979935	 1.0692246116	-0.242573
H	 0.815866817	 1.9097691567	 0.586208027	 0.126031
H	-0.1307213962	 1.975242179	-0.9133188338	 0.122471
H	-0.9390200794	 1.7921579927	 0.6554490785	 0.137636
H	-0.0166645994	-0.1563566501	-2.1484623817	 0.084641
H	-0.7586218867	-2.581378769	-1.8491493011	 0.106196
H	 0.9869635625	-2.5496639857	-1.6491216432	 0.113902
H	 0.1325854104	-3.782028732	 0.2895676859	 0.086101
H	-2.251910473	-2.1754601429	 0.0748488016	 0.102897
H	-1.8571026883	-3.160255276	 1.5090981392	 0.111011
H	 0.5130439973	-0.2404501264	 2.0810856073	 0.085833
115.192	183.3596	220.6938	280.3514	326.8298	355.5307	458.519	510.7359	584.1779	650.6401	765.4367	797.0171	816.4802	835.7959	896.2601	921.9655	942.4037	962.4339	1006.5603	1014.0896	1053.0973	1062.1359	1070.7757	1087.9831	1118.8861	1186.466	1199.9964	1216.8467	1292.3909	1304.6054	1330.5013	1355.9339	1362.3168	1379.822	1393.336	1411.2636	1472.1274	1478.0575	1490.9034	1518.993	1736.0866	3010.8211	3015.9787	3030.515	3042.7455	3064.3597	3078.2116	3088.3369	3100.2355	3111.7833	3150.1287
CC1=CCC2COC1O2	CC1=CC[C@@H]2CO[C@H]1O2	
InChI=1S/C7H10O2/c1-5-2-3-6-4-8-7(5)9-6/h2,6-7H,3-4H2,1H3	InChI=1S/C7H10O2/c1-5-2-3-6-4-8-7(5)9-6/h2,6-7H,3-4H2,1H3/t6-,7+/m1/s1
