16
gdb 56407	3.28625	0.73594	0.64649	1.6169	81.5	-0.2431	0.0017	0.2448	1702.2922	0.122212	-400.63777	-400.628173	-400.627229	-400.67391	33.843	
O	 0.7742237147	 1.5862927606	-0.2153463938	-0.387632
C	 0.1861792799	 0.3108427396	 0.0220711256	-0.236944
C	 0.4453291744	-0.6300726971	-1.0795381634	 0.328516
C	 0.6764187732	-1.3766220082	-1.9917676949	-0.453759
C	 0.6002773251	-0.2697495992	 1.3067274585	 0.096889
C	 0.9579916858	-0.7288376822	 2.3626129578	 0.078805
C	 1.4001479987	-1.263530935	 3.6182247303	-0.163418
C	 1.3027214766	-2.7340085615	 3.8722394642	-0.224634
N	 2.6152517803	-2.114802038	 3.6787079008	-0.305071
H	 1.7305267346	 1.46207627	-0.2303154228	 0.289772
H	-0.8918985485	 0.5154725163	 0.057538388	 0.150819
H	 0.8726247573	-2.0377283085	-2.7996984787	 0.204992
H	 1.3076907665	-0.592698533	 4.4683416563	 0.122231
H	 1.1006878659	-3.0787649213	 4.882237676	 0.128896
H	 0.8859067066	-3.3492752854	 3.0806456167	 0.128332
H	 2.938968159	-2.2894864069	 2.7300275797	 0.242207
26.0834	62.0359	99.1986	169.0228	204.3038	223.3192	289.5439	347.8744	426.0249	486.4852	541.0479	587.7621	602.6401	642.1873	673.8639	752.0711	814.4545	858.9111	928.1142	964.4263	998.3954	1039.5086	1090.3682	1119.1831	1155.3648	1216.0214	1256.5436	1258.6652	1298.4507	1309.2354	1393.6446	1412.5384	1505.4798	2237.7799	2354.8268	3028.3205	3116.4351	3141.3501	3207.8448	3502.727	3503.2127	3799.7126
OC(C#C)C#CC1CN1	O[C@@H](C#C)C#C[C@H]1CN1	
InChI=1S/C7H7NO/c1-2-7(9)4-3-6-5-8-6/h1,6-9H,5H2	InChI=1S/C7H7NO/c1-2-7(9)4-3-6-5-8-6/h1,6-9H,5H2/t6-,7-/m0/s1
