16
gdb 82039	2.80677	1.40973	1.26279	3.8898	66.44	-0.2455	-0.0406	0.2049	1029.1826	0.123088	-474.974415	-474.966254	-474.96531	-475.007037	31.122	
O	 0.0542409856	 1.3505053829	 0.17252936	-0.41664
C	 0.0204458372	-0.0251340294	 0.0472300917	 0.059083
C	-1.3430791532	-0.7226162401	 0.0497305468	-0.071821
N	-2.0821737644	-0.0705305746	-1.0508993876	-0.348811
C	-1.1707900937	-1.1975628157	-1.3553883642	-0.125682
C	 0.2294243831	-0.5907584498	-1.4746396189	 0.316348
O	 0.4115885258	 0.3625518233	-2.4606188408	-0.46737
C	 1.339402455	-1.6003710179	-1.4792013539	 0.095677
O	 2.3088848506	-1.4776664107	-2.1918948175	-0.281225
H	-0.5557178428	 1.6941894271	-0.4955274672	 0.305359
H	 0.7330995216	-0.4492748863	 0.7585220269	 0.094254
H	-1.8581337741	-1.1872826627	 0.8807648395	 0.102901
H	-3.0322239921	-0.4374813668	-1.0545918419	 0.241011
H	-1.5441876778	-2.0932922088	-1.8368021687	 0.105026
H	 1.3092974156	 0.2221523042	-2.8031501049	 0.294638
H	 1.2418855636	-2.4456531249	-0.7678378393	 0.097253
101.6394	125.4764	215.9085	234.9684	308.2488	317.2575	416.5046	421.9405	464.388	531.8018	578.0173	657.8917	734.0854	798.6605	838.4813	847.9148	874.8786	926.0905	964.7104	1013.3966	1045.0497	1065.8366	1105.5431	1129.632	1154.3409	1199.2249	1224.0321	1296.953	1311.5479	1333.6092	1368.2788	1387.1305	1442.3922	1454.8635	1798.2492	2927.3948	3088.3478	3186.0196	3203.0137	3493.8192	3684.4759	3757.4171
OC1C2NC2C1(O)C=O	O[C@H]1[C@H]2N[C@H]2[C@]1(O)C=O	
InChI=1S/C5H7NO3/c7-1-5(9)3-2(6-3)4(5)8/h1-4,6,8-9H	InChI=1S/C5H7NO3/c7-1-5(9)3-2(6-3)4(5)8/h1-4,6,8-9H/t2-,3+,4-,5+/m0/s1
