22
gdb 117166	2.54616	0.93981	0.73926	3.2416	81.24	-0.2371	0.0373	0.2744	1631.6348	0.191852	-441.518502	-441.507241	-441.506296	-441.556577	39.018	
C	-0.8793559325	 0.9416778924	-0.527108915	-0.371303
C	-0.2153869024	-0.3273462906	 0.0121401666	-0.14469
N	 0.3244525965	-1.1697913563	-1.0398341643	-0.303251
C	 1.6506522382	-1.3817729111	-1.2108183352	 0.373026
O	 2.5290389698	-0.9121965657	-0.5049899021	-0.398689
C	 2.0164414989	-2.2812205955	-2.4058475424	 0.037307
C	 2.9572451453	-3.3997368761	-1.9543575274	-0.398156
O	 0.8258365106	-2.7709019227	-3.0103413611	-0.260679
C	 0.9707031292	-3.1900181654	-4.3497155099	-0.240499
H	-0.1577282478	 1.5521378496	-1.0776188061	 0.130259
H	-1.7077575113	 0.7018658123	-1.2028111145	 0.111453
H	-1.2817834839	 1.5412200267	 0.2956517209	 0.118306
H	 0.6256942626	-0.0761050625	 0.6622109357	 0.147139
H	-0.9351842115	-0.9052063325	 0.6057088888	 0.104321
H	-0.2884681215	-1.6165747212	-1.7044990175	 0.256431
H	 2.5445079985	-1.6276416282	-3.1191360977	 0.094662
H	 3.3625166351	-3.9509334001	-2.8070712428	 0.110903
H	 3.7834426224	-2.9614908393	-1.3917314525	 0.152075
H	 2.4220202197	-4.1009765151	-1.3069733965	 0.124331
H	 1.3667441808	-2.3823941823	-4.9840596277	 0.110968
H	 1.6324465227	-4.0617708549	-4.4439207439	 0.116722
H	-0.0229442892	-3.4675120715	-4.7097894351	 0.129366
32.9497	50.187	63.9433	93.2453	162.9135	196.5935	223.3144	242.9089	281.4479	322.8316	354.2031	403.4845	451.7643	490.1205	582.5664	633.0135	750.4309	785.6536	855.5339	900.8845	924.5685	1030.7912	1082.1747	1087.0125	1114.1931	1139.3473	1152.4584	1179.1115	1184.1442	1224.0282	1258.0343	1322.091	1336.924	1364.9077	1390.2447	1393.6112	1410.7353	1478.5372	1484.8487	1486.5226	1493.1884	1494.9704	1500.6974	1503.5243	1512.	1557.859	1773.6829	2976.4503	2986.289	3024.9515	3034.1658	3040.1261	3050.0914	3096.0206	3114.8264	3115.2612	3119.9094	3123.6127	3146.833	3626.4737
CCNC(=O)C(C)OC	CCNC(=O)[C@@H](C)OC	
InChI=1S/C6H13NO2/c1-4-7-6(8)5(2)9-3/h5H,4H2,1-3H3,(H,7,8)	InChI=1S/C6H13NO2/c1-4-7-6(8)5(2)9-3/h5H,4H2,1-3H3,(H,7,8)/t5-/m1/s1
