21
gdb 105111	3.33079	1.11238	0.96147	2.8236	78.4	-0.2446	0.0673	0.3119	1287.3306	0.18191	-424.185289	-424.175922	-424.174978	-424.219864	34.577	
O	-0.0953911554	 1.5433923489	-0.1709566431	-0.420014
C	 0.0152080717	 0.1325549897	-0.272677411	-0.154408
C	-1.3231006052	-0.5068204135	 0.0451154326	 0.324274
C	-2.2186764293	 0.1322396299	 1.0733923978	-0.301248
C	-2.586569423	 0.1878053102	-0.3928977037	-0.30506
C	-1.276082657	-2.0153172792	-0.0421778041	 0.069631
C	-0.6294670465	-2.8107878682	 1.1210261664	-0.288222
C	-1.9898701508	-3.5275191595	 1.1920627243	-0.065458
O	-2.5570573253	-2.6436297638	 0.2005657486	-0.293177
H	 0.7596718534	 1.926651299	-0.3838185303	 0.290347
H	 0.3254933605	-0.1645583252	-1.2891688998	 0.086531
H	 0.7805630167	-0.2496339251	 0.4245913158	 0.086243
H	-2.8055048846	-0.5255407334	 1.7043987911	 0.110645
H	-1.8710757893	 1.0467574739	 1.5379260532	 0.120433
H	-2.4802369715	 1.1386459628	-0.9008133743	 0.121241
H	-3.4085217086	-0.4368994877	-0.7220487864	 0.123875
H	-0.8898466136	-2.3141998968	-1.029703028	 0.067565
H	 0.2338450765	-3.428641173	 0.8702123456	 0.106292
H	-0.3998430071	-2.1958029769	 1.9933100565	 0.114021
H	-1.9834659346	-4.5693591785	 0.8466389455	 0.100538
H	-2.5293911467	-3.4728730535	 2.144340923	 0.10595
72.0245	87.5338	105.55	176.0126	220.0817	250.6671	260.8717	318.7822	377.4624	453.6531	577.1471	673.3022	767.9666	797.3386	828.5874	875.4339	884.79	930.9412	954.5153	960.5275	1012.4958	1029.2274	1056.0069	1063.5349	1085.3276	1090.0683	1101.2448	1124.1047	1170.0821	1200.0167	1216.5092	1217.9274	1253.9744	1261.7329	1271.3369	1287.4957	1355.6549	1372.9333	1393.9799	1439.8718	1462.3336	1486.5969	1497.2938	1521.052	1531.9468	2944.2383	2964.8893	2972.3386	3014.8253	3059.0866	3077.836	3135.0252	3141.9697	3146.3431	3230.7356	3243.6427	3842.5105
OCC1(CC1)C1CCO1	OCC1(CC1)[C@H]1CCO1	
InChI=1S/C7H12O2/c8-5-7(2-3-7)6-1-4-9-6/h6,8H,1-5H2	InChI=1S/C7H12O2/c8-5-7(2-3-7)6-1-4-9-6/h6,8H,1-5H2/t6-/m1/s1
