16
gdb 72009	2.76087	1.64608	1.19675	3.854	70.41	-0.2359	-0.0249	0.2109	1012.8647	0.123701	-437.806798	-437.799208	-437.798264	-437.838789	29.265	
O	-0.1429190979	 1.3395610948	 0.1210362298	-0.450829
C	 0.018577573	-0.0245907227	 0.0950700545	 0.31113
C	 1.1256605581	-0.9067269045	 0.6502149785	-0.235453
N	 0.5227949399	-2.0569798675	-0.1406884892	-0.165109
C	-0.7857764307	-2.277954633	 0.6060760561	-0.236625
C	-1.255076495	-0.9252847793	 0.115172976	 0.200053
C	-2.6082256038	-0.3656581422	 0.031177603	 0.04639
O	-3.5849967059	-0.9193234782	 0.4832101332	-0.272182
C	-0.2033534081	-1.007325556	-1.0011089231	-0.160766
H	 0.5545458134	 1.7437736098	-0.4077616489	 0.297468
H	 2.1068211812	-0.6573865805	 0.2352841669	 0.111317
H	 1.2043016869	-1.0767949275	 1.728331829	 0.114185
H	-1.3368573966	-3.1038420596	 0.1520058991	 0.127644
H	-0.6708255027	-2.4537858559	 1.6798457284	 0.112415
H	-2.6820595675	 0.6118357014	-0.4914786841	 0.080702
H	-0.2838928445	-0.9930060091	-2.0787524493	 0.119658
108.5474	160.9292	221.2318	277.5485	323.6264	370.0744	427.6297	481.7545	532.974	614.1523	689.5052	721.4965	804.7408	842.0122	848.7105	920.4183	927.555	984.0297	1031.2014	1052.7148	1068.1115	1100.0234	1115.3221	1142.1376	1175.049	1233.0273	1248.8966	1281.0376	1292.4522	1375.2297	1420.8643	1439.6003	1502.0294	1522.4452	1794.1095	2903.1384	3045.5499	3057.8322	3104.6082	3120.7548	3222.0718	3793.4543
OC12CN3CC1(C=O)C23	O[C@@]12CN3C[C@]1(C=O)[C@@H]23	
InChI=1S/C6H7NO2/c8-3-5-1-7-2-6(5,9)4(5)7/h3-4,9H,1-2H2	InChI=1S/C6H7NO2/c8-3-5-1-7-2-6(5,9)4(5)7/h3-4,9H,1-2H2/t4-,5-,6+/m0/s1
