18
gdb 71949	2.7542	1.9597	1.46151	1.4981	69.92	-0.2169	0.0571	0.2739	921.2008	0.149008	-439.031647	-439.024427	-439.023483	-439.063113	28.933	
O	-0.0172392936	 1.4048620645	 0.0747833139	-0.48699
C	 0.0364675684	 0.0029230768	 0.0011735356	 0.364029
C	 0.2019029049	-0.6265350942	-1.4156967017	-0.234152
N	-1.1249722713	-1.3270442769	-1.3297955014	-0.140905
C	-1.0111642777	-2.6756868124	-0.679956305	-0.192165
C	-1.00680445	-2.0535332908	 0.7386308818	 0.097977
O	 0.3003867153	-1.9641203312	 1.3066724265	-0.275333
C	 0.8340077202	-0.6566422533	 1.1332934067	-0.13787
C	-1.3282570668	-0.710373675	 0.0466803643	-0.071345
H	 0.8602617567	 1.7542567045	-0.1156471956	 0.282935
H	 0.1843880168	 0.1335027296	-2.2026128515	 0.109558
H	 1.0620170111	-1.2882443909	-1.56639346	 0.100949
H	-1.9089956526	-3.2641646613	-0.8925203173	 0.108677
H	-0.1225521106	-3.2561759583	-0.9448594136	 0.108069
H	-1.6984828611	-2.4659185969	 1.4781522043	 0.082702
H	 1.9048473048	-0.748951613	 0.9140183897	 0.099103
H	 0.7132322686	-0.0538486403	 2.0459065155	 0.100833
H	-2.237243143	-0.1479698809	 0.2583262877	 0.083928
101.2561	205.6275	258.2846	294.503	377.457	397.3899	445.6323	564.1333	616.4937	644.8931	790.1618	804.3852	837.9576	880.3552	911.7094	920.8648	937.1559	970.8569	979.1863	1013.0048	1055.4193	1084.0041	1109.0283	1168.9856	1181.076	1194.534	1208.6895	1217.8634	1235.2898	1250.0215	1267.7677	1297.8066	1302.4811	1339.974	1344.7182	1409.909	1473.148	1489.0056	1520.3392	2991.9373	3032.0366	3044.5085	3051.0581	3069.1309	3090.8097	3103.6078	3119.9812	3802.3532
OC12CN3CC(OC1)C23	O[C@@]12CN3C[C@@H](OC1)[C@@H]23	
InChI=1S/C6H9NO2/c8-6-2-7-1-4(5(6)7)9-3-6/h4-5,8H,1-3H2	InChI=1S/C6H9NO2/c8-6-2-7-1-4(5(6)7)9-3-6/h4-5,8H,1-3H2/t4-,5+,6+/m1/s1
