21
gdb 75602	2.30709	1.57244	1.08943	2.0154	81.03	-0.2399	0.0096	0.2495	1176.9626	0.183883	-424.223028	-424.21439	-424.213446	-424.255946	33.427	
C	 0.0669154923	 1.5329076932	-0.0026874595	-0.480251
C	 0.067046555	 0.0279535455	 0.0153266451	 0.297237
C	 0.0596113817	-0.7058435937	-1.1034082599	-0.144174
C	-0.0172166278	-2.2122656633	-1.1734325955	-0.267994
C	-1.4018067359	-2.7883265836	-0.8136868774	-0.06788
O	-1.7389940844	-2.6790376177	 0.5611575283	-0.240886
C	-2.2382631663	-1.4403561729	 1.0027794274	 0.030011
O	-1.3583919257	-0.7565836453	 1.8552435446	-0.245108
C	-0.0140815054	-0.6222465046	 1.3766580015	-0.157839
H	 0.9548481927	 1.9349659752	 0.5022660324	 0.123643
H	 0.045451263	 1.9302679696	-1.0210786486	 0.117279
H	-0.8025810402	 1.9252537443	 0.5390972876	 0.135472
H	 0.0632217607	-0.1837477005	-2.0591166043	 0.081147
H	 0.2213273358	-2.5431052502	-2.1906986087	 0.099428
H	 0.7207447123	-2.6827793453	-0.5134572686	 0.120334
H	-2.1762160716	-2.313817048	-1.4338872861	 0.096333
H	-1.4131799168	-3.8614537743	-1.0309143138	 0.108012
H	-2.5152299536	-0.8260370626	 0.1320720235	 0.079051
H	-3.1222940026	-1.6266130752	 1.6218771749	 0.10704
H	 0.4650622893	-1.6071804102	 1.3703090594	 0.105662
H	 0.4818092776	-0.0070287001	 2.1330154578	 0.103484
120.4839	167.757	171.1399	203.008	256.1987	315.4053	345.2678	378.4454	418.8915	500.2812	527.1226	564.6714	628.0644	779.9651	848.075	866.3805	922.5411	934.6804	966.4912	987.1913	1024.4917	1060.3713	1070.5117	1082.9867	1112.7803	1141.3425	1177.2221	1192.9634	1261.0732	1287.3303	1309.528	1322.4191	1352.1941	1367.6571	1398.7307	1408.943	1411.9518	1454.5543	1474.3392	1477.821	1490.7144	1492.781	1509.8881	1515.7278	1727.4093	2977.2497	2999.515	3016.5553	3032.0842	3042.4958	3065.8373	3068.5025	3072.7266	3075.9893	3090.9097	3110.4759	3135.024
CC1=CCCOCOC1	CC1=CCCOCOC1	
InChI=1S/C7H12O2/c1-7-3-2-4-8-6-9-5-7/h3H,2,4-6H2,1H3/b7-3-	InChI=1S/C7H12O2/c1-7-3-2-4-8-6-9-5-7/h3H,2,4-6H2,1H3/b7-3-
