16
gdb 54783	3.90133	1.28308	1.16673	2.6634	68.76	-0.2341	-0.0221	0.2119	1054.7035	0.125336	-437.865123	-437.857719	-437.856774	-437.897551	28.949	
N	 0.6039223894	 0.3800123924	-0.8138344458	-0.526109
C	-0.0296721916	 0.0458726744	 0.3403200021	 0.3623
O	 0.2651252407	 0.5112875055	 1.4270204767	-0.367792
C	-1.166934532	-0.971042754	 0.2263189782	-0.06518
C	-2.2117285716	-0.801823104	-0.9333099226	-0.010113
O	-1.2268354543	-1.4161845606	-1.8423370408	-0.294725
C	-0.9454711996	-2.2488349189	-0.658593912	-0.010178
C	-2.2853778862	-2.9790794889	-0.4770837789	-0.074672
C	-3.1555009227	-1.9847202459	-0.6658270716	-0.074694
H	 1.3558425541	 1.0471522345	-0.769580353	 0.255855
H	 0.3159880761	-0.0376303869	-1.6850790828	 0.270178
H	-1.5633559021	-1.1276629673	 1.2281370341	 0.10367
H	-2.5978866108	 0.1603738797	-1.2648653156	 0.094455
H	-0.0076649397	-2.7996783171	-0.7029058553	 0.094445
H	-2.4327212591	-4.0239061155	-0.2495338477	 0.121279
H	-4.2344422205	-1.9649380575	-0.6403654849	 0.12128
39.9117	180.7248	219.5947	350.6337	360.5228	394.2621	521.5593	563.4983	636.0781	666.6095	718.4653	739.9151	763.0231	852.3748	856.267	883.7253	904.1849	914.8405	921.5275	962.7811	970.1923	1029.652	1112.8491	1146.4236	1153.7545	1188.8185	1219.434	1240.0941	1292.9314	1299.7436	1330.1578	1367.3449	1586.1683	1615.9112	1789.1237	3136.0088	3144.2854	3147.3417	3238.9122	3265.5034	3569.1526	3721.8636
NC(=O)C1C2OC1C=C2	NC(=O)[C@H]1[C@H]2O[C@@H]1C=C2	
InChI=1S/C6H7NO2/c7-6(8)5-3-1-2-4(5)9-3/h1-5H,(H2,7,8)	InChI=1S/C6H7NO2/c7-6(8)5-3-1-2-4(5)9-3/h1-5H,(H2,7,8)/t3-,4+,5-
