13
gdb 48458	2.0402	1.53796	1.34177	2.7581	67.12	-0.2577	-0.0714	0.1863	1024.3437	0.084384	-456.514277	-456.505537	-456.504593	-456.548444	30.339	
O	-0.8995788118	 1.1655596137	 0.63685249	-0.217061
C	 0.1389574301	 0.8856337597	 0.1125926692	 0.125621
C	 1.351695696	 1.8251289007	 0.0367657947	-0.028097
O	 2.5319114931	 1.102695134	-0.3960695169	-0.30357
C	 2.670894113	 1.8115386869	-1.6439412295	-0.189182
C	 1.4167213631	 2.622753807	-1.3317509224	 0.308905
O	 0.7654932858	 3.4648468996	-1.8489890441	-0.233409
C	 1.5351402077	 2.6394345574	 1.2144405701	 0.340424
C	 1.6920216896	 3.3331277533	 2.1824202652	-0.422912
H	 0.3313506703	-0.0796150187	-0.4031553307	 0.105059
H	 3.5951999588	 2.399094872	-1.7020336685	 0.153077
H	 2.5946243812	 1.1574890449	-2.5213004466	 0.147069
H	 1.8224550931	 3.9396682595	 3.0450441594	 0.214078
64.1108	91.0911	113.9941	153.2491	193.0877	289.1309	368.3917	443.2218	488.5709	529.8788	573.0099	627.453	687.4059	692.2917	747.3338	862.1079	944.5507	999.9887	1022.3266	1047.9469	1080.4058	1137.2278	1190.8578	1300.4923	1381.5549	1478.1285	1838.4825	1945.6988	2237.4548	2909.7782	3026.0069	3075.8367	3499.0292
O=CC1(OCC1=O)C#C	O=C[C@]1(OCC1=O)C#C	
InChI=1S/C6H4O3/c1-2-6(4-7)5(8)3-9-6/h1,4H,3H2	InChI=1S/C6H4O3/c1-2-6(4-7)5(8)3-9-6/h1,4H,3H2/t6-/m1/s1
