17
gdb 83913	2.4966	1.52476	1.23953	3.6687	73.48	-0.246	0.0125	0.2585	1051.2487	0.138109	-418.002159	-417.994437	-417.993493	-418.034319	30.028	
O	 0.0324319258	 1.3700910012	-0.0162825816	-0.419491
C	-0.0259838129	-0.0056878258	 0.0423894878	 0.089095
C	-1.3479124224	-0.7423553618	 0.0515895712	-0.139813
C	-2.6131797703	 0.0482598395	-0.2852659689	-0.237821
C	-2.5974055721	 0.1492760528	-1.8250196922	-0.162364
N	-1.152824911	 0.1780779753	-2.1421758388	-0.379272
C	-0.4932227099	-0.7384005764	-1.2174236359	 0.148451
C	 0.1646840232	-1.8982279208	-1.7348575914	 0.200254
N	 0.7078295559	-2.8264913488	-2.1646675236	-0.347962
H	-0.2860458208	 1.5990002966	-0.9093309699	 0.292609
H	 0.7897476426	-0.4458148643	 0.6074679126	 0.122953
H	-1.4186529666	-1.6511841249	 0.6365188576	 0.116714
H	-3.5101064732	-0.4558235795	 0.0780521589	 0.116957
H	-2.5686680138	 1.0424467874	 0.1702129303	 0.129819
H	-3.0995266497	-0.7236645703	-2.2681839638	 0.108757
H	-3.0830250842	 1.053892693	-2.2019720357	 0.115151
H	-0.9406153506	-0.0345377434	-3.1087649565	 0.245965
123.8056	155.5716	174.6997	226.0266	314.4451	446.6755	475.386	536.4166	566.5716	595.9681	611.1377	664.4143	724.7346	778.8772	830.5461	875.3973	909.7842	954.3264	992.7172	1015.4179	1057.9928	1081.9784	1109.7934	1137.6737	1189.3885	1217.4115	1227.3991	1249.7068	1319.0138	1326.0932	1334.6975	1378.4725	1420.8218	1465.1654	1489.3699	1516.7655	2338.4767	2992.6636	3060.6051	3087.0519	3122.108	3166.3466	3191.436	3571.6259	3597.8976
OC1C2CCNC12C#N	O[C@H]1[C@H]2CCN[C@@]12C#N	
InChI=1S/C6H8N2O/c7-3-6-4(5(6)9)1-2-8-6/h4-5,8-9H,1-2H2	InChI=1S/C6H8N2O/c7-3-6-4(5(6)9)1-2-8-6/h4-5,8-9H,1-2H2/t4-,5+,6-/m1/s1
