21
gdb 60888	2.72972	1.25971	1.03907	2.6698	83.43	-0.2445	-0.0204	0.2241	1231.4601	0.181776	-387.054735	-387.045812	-387.044868	-387.089342	33.468	
C	-0.002289543	 1.5289785685	 0.0504948406	-0.418847
C	 0.0172798112	-0.0064308083	-0.0303846614	-0.197899
C	-1.4008338925	-0.5469463799	-0.0087158377	 0.163663
O	-1.8091115736	-1.3978974686	 0.7382371093	-0.252044
C	 0.7203959674	-0.5008530686	-1.2864762569	 0.358854
C	 2.1892244435	-0.1904562911	-1.7184809149	-0.2665
C	 1.616572445	-1.1272574475	-2.8191840256	-0.045952
C	 1.0038035068	-1.9853653	-1.6786036703	-0.260274
C	 0.321090792	-0.2696090054	-2.7834380358	-0.259174
H	 1.0152233007	 1.9271666971	 0.0072660674	 0.129934
H	-0.5665345862	 1.9609795833	-0.7831486883	 0.124408
H	-0.4611835732	 1.8704898852	 0.9830881076	 0.126986
H	 0.5305648874	-0.4256908147	 0.8427067333	 0.09403
H	-2.0713970814	-0.086857758	-0.773792038	 0.070223
H	 2.4090028213	 0.8387225657	-2.0163060618	 0.090526
H	 2.9794716974	-0.6016576715	-1.0835429261	 0.09186
H	 2.1374316581	-1.4877789243	-3.7060770309	 0.075586
H	 1.7043311969	-2.5306369322	-1.0398343326	 0.092968
H	 0.13607088	-2.5999065955	-1.9341078072	 0.097129
H	-0.5958024382	-0.7546378737	-3.1304525019	 0.093712
H	 0.3993003005	 0.7532942195	-3.162802249	 0.090809
42.7278	53.2173	178.5616	184.4198	208.8224	289.1955	367.3271	405.0222	475.3131	543.8394	549.7424	674.1906	790.6322	800.3436	877.5974	896.28	937.289	945.1122	949.2576	960.2993	970.7063	997.5785	1054.9557	1075.3776	1101.0069	1105.7976	1139.8136	1145.4542	1148.2625	1167.5831	1177.1893	1225.9014	1235.8809	1239.704	1286.0995	1302.2723	1338.9729	1404.314	1427.8958	1496.3212	1497.4373	1498.2042	1500.2342	1554.0167	1833.1023	2843.7569	3036.6094	3042.418	3044.5273	3049.0486	3052.3294	3105.4357	3107.0498	3111.215	3113.8977	3114.2643	3116.497
CC(C=O)C12CC(C1)C2	C[C@@H](C=O)[C@@]12C[C@@H](C1)C2	
InChI=1S/C8H12O/c1-6(5-9)8-2-7(3-8)4-8/h5-7H,2-4H2,1H3	InChI=1S/C8H12O/c1-6(5-9)8-2-7(3-8)4-8/h5-7H,2-4H2,1H3/t6-,7-,8-/m0/s1
