21
gdb 81769	2.11296	1.69684	1.29153	1.5177	78.22	-0.2441	0.0676	0.3118	1100.3792	0.180106	-424.202457	-424.192732	-424.191788	-424.235931	37.771	
C	-0.0030064932	 1.5235000988	 0.0210242266	-0.514727
C	 0.0372238655	 0.0226032139	-0.0047301743	 0.327218
C	-0.8461860343	-0.8534955113	 0.8397987053	-0.345844
C	 0.6453672523	-0.9575164965	 1.0094290067	-0.113903
C	 1.2417186033	-1.7903761829	-0.1121771846	 0.084372
O	 0.8238585606	-3.1386676745	-0.112675875	-0.431278
C	 0.6316151626	-0.8018290653	-1.1740304114	 0.277363
C	-0.3068491185	-1.3671798389	-2.228847969	-0.458802
O	 1.7355835073	-0.1385269871	-1.7833415209	-0.477816
H	 0.9508191008	 1.9431956027	-0.3150449114	 0.122591
H	-0.7969672518	 1.9194166272	-0.6251244806	 0.113299
H	-0.1942593738	 1.8940575562	 1.0333020968	 0.120433
H	-1.3622822114	-0.3377873655	 1.6442690596	 0.107449
H	-1.4060012021	-1.6836665204	 0.4212177196	 0.118756
H	 1.1318447362	-0.749746024	 1.9549000002	 0.081862
H	 2.3336539014	-1.7015991849	-0.157659443	 0.081194
H	 1.2847454485	-3.5946890198	-0.8240836961	 0.283834
H	-1.1015474103	-1.971801755	-1.7881743067	 0.131271
H	-0.7759893268	-0.5588169775	-2.8039485737	 0.104263
H	 0.2531363595	-1.9954332357	-2.9296050128	 0.113149
H	 1.3859698441	 0.5406273404	-2.3707735353	 0.275316
115.7352	186.8068	198.4126	209.4134	235.9054	247.6513	296.462	301.2533	311.2918	377.9013	403.1079	453.5187	519.9283	569.9556	632.3852	673.9581	772.2328	837.2348	897.0083	912.454	952.9873	977.5552	983.2672	1029.9241	1052.0259	1075.9358	1091.1198	1110.3412	1131.2506	1153.3319	1181.8179	1222.0649	1255.5728	1295.7714	1318.9539	1358.2545	1387.3574	1404.5991	1422.0205	1424.9805	1485.7249	1486.5758	1490.1514	1503.8389	1507.428	3018.6244	3025.2237	3036.5222	3079.4842	3088.1067	3100.6979	3122.4345	3132.1443	3180.3397	3202.9422	3798.5182	3816.9607
CC12CC1C(O)C2(C)O	C[C@]12C[C@H]1[C@@H](O)[C@]2(C)O	
InChI=1S/C7H12O2/c1-6-3-4(6)5(8)7(6,2)9/h4-5,8-9H,3H2,1-2H3	InChI=1S/C7H12O2/c1-6-3-4(6)5(8)7(6,2)9/h4-5,8-9H,3H2,1-2H3/t4-,5+,6-,7-/m0/s1
