19
gdb 46380	3.59991	0.91087	0.79537	3.52	76.14	-0.2455	-0.0249	0.2206	1451.589	0.157966	-423.011094	-423.002244	-423.0013	-423.045881	32.091	
O	-0.0057153925	 0.1231266891	-0.4898165287	-0.29605
C	 0.0015388739	 1.288982207	-0.2135691901	 0.392684
C	-1.0927476407	 2.3484113196	-0.012420223	-0.332605
C	-0.0313287281	 3.204152061	 0.7435363481	-0.259662
C	 1.1094068393	 2.2587465774	 0.2429417851	-0.086397
C	 2.1611980644	 1.7372309004	 1.2216093607	-0.260707
C	 3.0809537458	 0.71813924	 0.5862380976	 0.094019
C	 4.3791359905	 1.0987422871	 0.0135266136	-0.175746
O	 4.2988538607	 0.4455068722	 1.2814932633	-0.239463
H	-1.4092475388	 2.7869285981	-0.9645047997	 0.134295
H	-1.9827475377	 2.0222777589	 0.5309266186	 0.132328
H	 0.0484646281	 4.2500356139	 0.4459315213	 0.11146
H	-0.1558948604	 3.1532507459	 1.8279360538	 0.116853
H	 1.5966337828	 2.6816445078	-0.6458034799	 0.103426
H	 2.7612661015	 2.5687449178	 1.6092066108	 0.109655
H	 1.6603935095	 1.2778135839	 2.0835937439	 0.110474
H	 2.5835288398	-0.1633376161	 0.1831148997	 0.12078
H	 4.8137521854	 0.5082961776	-0.7917849954	 0.116866
H	 4.6964915967	 2.1411001285	 0.0463387501	 0.107789
61.8025	65.8858	94.9327	137.2322	221.3302	306.9115	372.0184	412.6561	463.2525	544.9893	686.9947	742.7684	757.7503	817.6153	865.6943	875.4774	927.7018	932.7896	958.3938	1010.8654	1041.8115	1067.2731	1098.0684	1126.5248	1148.0206	1154.6341	1186.4229	1197.376	1202.6776	1230.1736	1254.5334	1262.9705	1290.9501	1312.1283	1359.1644	1441.1851	1443.0055	1486.9528	1493.9286	1529.0713	1880.6224	3020.922	3028.631	3059.3568	3068.1287	3075.7972	3077.7254	3114.9795	3128.0315	3136.3622	3164.6158
O=C1CCC1CC1CO1	O=C1CC[C@H]1C[C@H]1CO1	
InChI=1S/C7H10O2/c8-7-2-1-5(7)3-6-4-9-6/h5-6H,1-4H2	InChI=1S/C7H10O2/c8-7-2-1-5(7)3-6-4-9-6/h5-6H,1-4H2/t5-,6-/m0/s1
