20
gdb 115001	2.44991	1.36371	1.11082	0.3475	74.71	-0.2498	0.0179	0.2676	1182.505	0.170363	-440.303081	-440.29377	-440.292826	-440.337623	34.9	
C	 0.0027864427	 1.5227311217	-0.2140750281	-0.418936
C	 0.0111224843	 0.0045496397	 0.0035155803	 0.247318
C	-1.4294448721	-0.525150088	 0.0582536433	-0.409274
N	 0.7048168393	-0.6439490841	-1.1393847862	-0.281458
C	 1.5876480393	-1.4018148945	-0.6458711543	 0.103816
O	 1.7516188846	-1.4689555701	 0.6984861447	-0.249157
C	 0.8271834728	-0.4819707178	 1.2525088593	 0.039535
C	 1.6735263395	 0.5285687461	 2.0179987918	-0.07686
O	 2.3913236833	-0.098570688	 3.0624738784	-0.423509
H	 1.0135018677	 1.9247518085	-0.3167140197	 0.121719
H	-0.5375705662	 1.7487863739	-1.1369719416	 0.129811
H	-0.498378069	 2.0408430937	 0.6098801226	 0.114523
H	-1.9497320039	-0.3021043436	-0.8770829671	 0.12834
H	-1.4402597144	-1.6096605382	 0.2031208894	 0.120619
H	-1.981398832	-0.0614566106	 0.8832908073	 0.113393
H	 2.2587619651	-2.0413149184	-1.2093750798	 0.140315
H	 0.1945700141	-1.0174693536	 1.9668682968	 0.097295
H	 2.3490898619	 1.0510415174	 1.3241318637	 0.096182
H	 1.0275616219	 1.2781641019	 2.4855117814	 0.115633
H	 2.897880851	-0.8112887659	 2.6562739877	 0.290696
27.615	125.6011	193.5175	229.7909	263.0809	288.3579	296.5875	326.9636	344.4262	425.328	460.8184	518.9961	597.5992	615.2508	800.3549	827.2555	867.2926	934.2082	941.507	963.5663	987.6025	1013.5806	1029.6253	1077.976	1098.3776	1120.9189	1195.4755	1202.0358	1227.5556	1253.5916	1312.4314	1327.9619	1360.7853	1396.212	1401.2007	1418.6448	1431.4884	1476.6664	1486.6644	1494.2142	1498.8997	1510.8695	1709.5896	2993.0159	3032.5544	3044.0345	3065.4437	3087.8935	3104.1534	3115.3876	3121.0435	3126.0863	3209.6873	3801.0451
CC1(C)N=COC1CO	CC1(C)N=CO[C@H]1CO	
InChI=1S/C6H11NO2/c1-6(2)5(3-8)9-4-7-6/h4-5,8H,3H2,1-2H3	InChI=1S/C6H11NO2/c1-6(2)5(3-8)9-4-7-6/h4-5,8H,3H2,1-2H3/t5-/m0/s1
