16
gdb 30623	4.5161	0.99882	0.8295	3.0238	73.19	-0.2366	-0.016	0.2206	1337.5246	0.125042	-437.943547	-437.934982	-437.934038	-437.977963	30.175	
C	-0.0790957673	 1.4552871169	-0.0019132785	-0.333952
N	-0.0461533116	 0.0092133455	-0.0989727283	-0.331383
C	 0.7856240618	-0.640605623	-0.9712637803	 0.323039
O	 1.5822498556	-0.0594356254	-1.6905555955	-0.382441
C	 0.6692594818	-2.1202205729	-0.9807231869	 0.151074
C	 0.1257998692	-2.9669376181	-0.0579314811	-0.107238
O	 0.2640774859	-4.2543283144	-0.4497374453	-0.144194
C	 0.9136938876	-4.235877853	-1.6505740138	 0.005
C	 1.1919382098	-2.9634770776	-2.0200626077	-0.264985
H	 0.8063451682	 1.8364609164	-0.5111937282	 0.172177
H	-0.9687890433	 1.8792891771	-0.4837566134	 0.124793
H	-0.0621278517	 1.7745728893	 1.0451527325	 0.123874
H	-0.7938916496	-0.5153060675	 0.3231965557	 0.243174
H	-0.3419470168	-2.8221986179	 0.9025598519	 0.139654
H	 1.0951313511	-5.2006274052	-2.0938105048	 0.143998
H	 1.7013424293	-2.6245546502	-2.906914436	 0.137408
51.9886	71.4208	109.9091	147.6463	228.8519	311.1793	381.1799	460.5266	494.3005	620.8932	626.116	739.8455	766.9403	803.8281	807.3995	870.9934	893.7287	958.6152	1021.6446	1057.5741	1107.1693	1152.1942	1168.4591	1193.1032	1208.8576	1264.7563	1322.8713	1403.3926	1438.9679	1491.0527	1500.6946	1534.4187	1564.2596	1609.0695	1762.67	3022.6968	3079.0583	3156.366	3266.1484	3272.3637	3293.8782	3649.8822
CNC(=O)C1=COC=C1	CNC(=O)c1cocc1	
InChI=1S/C6H7NO2/c1-7-6(8)5-2-3-9-4-5/h2-4H,1H3,(H,7,8)	InChI=1S/C6H7NO2/c1-7-6(8)5-2-3-9-4-5/h2-4H,1H3,(H,7,8)
