21
gdb 99845	2.04305	1.25719	1.17901	3.6191	78.26	-0.2572	0.0277	0.2849	1239.0947	0.180886	-420.415117	-420.404355	-420.403411	-420.450277	39.682	
C	 0.0036857547	 1.5461041054	-0.0479535035	-0.397965
C	 0.0061453263	 0.0133642043	 0.0476530846	-0.004452
C	 0.810131632	-0.4495908604	 1.2715244275	-0.414494
C	-1.4391858384	-0.5666658166	 0.0049884391	 0.068109
N	-2.1207977789	-0.1023079638	-1.2111753661	-0.524779
C	-1.4529490128	-2.122797603	 0.0953540633	-0.102708
O	-2.7585121033	-2.6360354816	-0.0891180862	-0.419918
C	-2.2193975237	-0.0812292999	 1.1667580606	 0.31159
N	-2.8365469063	 0.2199748536	 2.0969445581	-0.359765
H	 1.0300515284	 1.9174179535	-0.1250329881	 0.11193
H	-0.5624291661	 1.8949410941	-0.9129190468	 0.137272
H	-0.446575239	 1.9881233036	 0.847203302	 0.136766
H	 0.4933601853	-0.3884544982	-0.8530450104	 0.077207
H	 0.971823983	-1.5305628345	 1.2891900613	 0.119121
H	 1.7946520346	 0.0272343996	 1.2664782091	 0.121677
H	 0.3093944186	-0.163662675	 2.202721123	 0.140918
H	-1.5148807669	-0.2869906099	-2.0071509086	 0.23021
H	-2.9498768175	-0.6781440051	-1.3408360307	 0.2454
H	-0.8464857026	-2.5139412471	-0.728809791	 0.112063
H	-1.0187215913	-2.4686289125	 1.040610736	 0.111127
H	-3.264838176	-2.4543496765	 0.7114724569	 0.30069
75.2746	113.6423	147.8456	176.8511	204.0108	217.6507	250.2593	291.1581	306.4225	343.6568	352.344	408.3858	412.7808	460.1934	464.6563	603.5798	625.5261	716.0844	864.5136	878.5768	934.7047	938.3688	967.1221	994.226	1031.6762	1088.9531	1102.3409	1151.3365	1170.7771	1200.9682	1245.7092	1317.2455	1344.6884	1368.5464	1385.7796	1406.6627	1413.9334	1429.1943	1488.1563	1491.2493	1493.7722	1508.4824	1515.1419	1658.7896	2347.2323	2995.4872	3028.3132	3040.4797	3044.6925	3084.8	3105.3049	3111.3109	3116.3234	3139.9851	3473.8576	3554.9222	3795.9178
CC(C)C(N)(CO)C#N	CC(C)[C@@](N)(CO)C#N	
InChI=1S/C6H12N2O/c1-5(2)6(8,3-7)4-9/h5,9H,4,8H2,1-2H3	InChI=1S/C6H12N2O/c1-5(2)6(8,3-7)4-9/h5,9H,4,8H2,1-2H3/t6-/m0/s1
