13
gdb 25356	4.53006	0.99735	0.81739	5.8777	81.72	-0.237	-0.066	0.171	1293.2489	0.089149	-415.621335	-415.613653	-415.612709	-415.653776	28.194	
O	-0.1656612937	 0.0173642366	-0.0000102684	-0.242698
C	-0.0049550035	 1.2116292546	 0.0077768275	 0.079875
C	 1.2912959282	 1.8965172871	-0.0019202001	 0.249124
N	 2.4986759242	 1.3633913563	-0.0206378104	-0.317119
C	 3.3739034185	 2.4182199681	-0.0221995527	 0.146093
C	 2.6724943559	 3.6184913383	-0.0039339458	-0.172405
N	 1.3602428146	 3.2717670881	 0.0081817696	-0.265292
C	 4.7815071128	 2.261627424	-0.039954225	 0.225562
C	 5.979041306	 2.1473883897	-0.0548923626	-0.393342
H	-0.8704486193	 1.9170481133	 0.0238035165	 0.059689
H	 3.006843746	 4.6423904859	 0.0006626093	 0.155514
H	 0.578415428	 3.9078032548	 0.0224579231	 0.280248
H	 7.0348013223	 2.0341953231	-0.0681700911	 0.194752
122.332	127.8598	157.4092	227.9915	282.771	470.3388	474.8237	536.5297	581.3735	587.9128	595.9461	669.3157	684.9728	717.8342	796.2331	802.6345	995.8031	1013.9041	1035.7923	1121.4769	1205.3434	1280.2708	1350.5143	1434.2906	1461.8778	1514.6295	1557.0547	1812.69	2242.1922	2839.4944	3280.4929	3503.8986	3645.8092
O=CC1=NC(=CN1)C#C	O=Cc1nc(c[nH]1)C#C	
InChI=1S/C6H4N2O/c1-2-5-3-7-6(4-9)8-5/h1,3-4H,(H,7,8)	InChI=1S/C6H4N2O/c1-2-5-3-7-6(4-9)8-5/h1,3-4H,(H,7,8)
