17
gdb 53751	4.76174	0.60408	0.55351	3.8093	80.5	-0.2552	-0.0473	0.2078	1943.0106	0.132645	-421.791412	-421.781518	-421.780573	-421.829106	33.346	
C	 0.1102019115	 0.5871567462	-1.1626283891	-0.47704
C	-0.2485997192	 0.3185194771	 0.2847585722	 0.247451
O	 0.1954122745	 0.9689716683	 1.2068534391	-0.276237
C	-1.1716102234	-0.7808001323	 0.5026801794	 0.067811
C	-1.9459015759	-1.6886018112	 0.6847619248	 0.042882
C	-2.872739183	-2.7926313204	 0.8972139691	-0.388305
C	-3.1850474839	-3.5634021892	-0.3749649812	 0.106674
C	-4.4806231816	-4.222890066	-0.5682898012	-0.180044
O	-4.1672262931	-2.9973123054	-1.2351996678	-0.222606
H	 0.8062523749	 1.4253911587	-1.2175016074	 0.142074
H	 0.5602540151	-0.305394652	-1.6106162926	 0.144503
H	-0.7946833727	 0.8102866051	-1.7381046418	 0.15004
H	-2.4513065079	-3.4809660726	 1.6424799696	 0.146555
H	-3.8096665752	-2.408117911	 1.3182278525	 0.149958
H	-2.3136328889	-3.9669739158	-0.8913024248	 0.105974
H	-4.5513701297	-5.1015421086	-1.2070618756	 0.122141
H	-5.2416922914	-4.1503219207	 0.2078322448	 0.118168
15.6259	46.8762	72.447	118.3827	143.513	170.6221	322.5632	337.2271	377.5231	410.7938	528.6245	589.3908	603.0782	693.3003	789.7681	858.9666	930.5581	948.5246	966.4711	1042.7477	1052.2651	1095.1512	1105.6373	1160.0056	1168.3316	1241.831	1247.1046	1293.4085	1319.2754	1380.8726	1437.446	1443.0451	1460.437	1467.9216	1530.8085	1769.2037	2334.9961	3021.0857	3039.3401	3063.1407	3085.4985	3103.579	3112.1265	3151.8816	3173.1989
CC(=O)C#CCC1CO1	CC(=O)C#CC[C@H]1CO1	
InChI=1S/C7H8O2/c1-6(8)3-2-4-7-5-9-7/h7H,4-5H2,1H3	InChI=1S/C7H8O2/c1-6(8)3-2-4-7-5-9-7/h7H,4-5H2,1H3/t7-/m0/s1
