25
gdb 85973	3.30851	0.9722	0.92661	0.1253	93.12	-0.261	0.0847	0.3457	1456.2486	0.228385	-352.341019	-352.331146	-352.330201	-352.37576	38.474	
C	-0.7553332434	 0.7627200232	-1.1383685162	-0.408834
C	 0.3039555924	-0.1493692868	-0.5374861417	 0.063781
C	 1.7444170436	-0.0973354125	-1.1197136927	-0.271723
C	 2.3268209789	-0.137996098	 0.3340467899	 0.336038
C	 3.4018468566	 0.9021637329	 0.6344375784	-0.481514
C	 0.8918272708	 0.2134890424	 0.8551246064	-0.271722
C	 2.7048842037	-1.5609832755	 0.7212385624	 0.001784
C	 4.0941930388	-2.1307029079	 0.5789962483	-0.285924
C	 3.5011502701	-1.9145376662	 1.9524785762	-0.285924
H	-0.4130296368	 1.804081959	-1.1544893809	 0.107837
H	-0.9922871429	 0.4751225264	-2.169149009	 0.111482
H	-1.6864897133	 0.728201996	-0.5611998228	 0.111482
H	-0.066690359	-1.1801642805	-0.5352648825	 0.068274
H	 2.0488072683	-0.9032227659	-1.7935897818	 0.091345
H	 1.9478582876	 0.8600188002	-1.6117167631	 0.085902
H	 3.0588442399	 1.8960233077	 0.3299817816	 0.108603
H	 3.6367344996	 0.9531272803	 1.7031600726	 0.114925
H	 4.3320165434	 0.6996759911	 0.0924775652	 0.114927
H	 0.789320125	 1.2823819763	 1.0717913406	 0.085902
H	 0.5316907741	-0.3501372269	 1.7204819589	 0.091345
H	 1.9125126684	-2.2703511442	 0.4907574002	 0.076772
H	 4.1973874423	-3.1465140955	 0.212895104	 0.106864
H	 4.8989294694	-1.4713511094	 0.2737254223	 0.110756
H	 3.9144850939	-1.1125278769	 2.5537029454	 0.110757
H	 3.1975616388	-2.7820825291	 2.5284578781	 0.106864
54.6436	70.0582	185.6033	212.1428	237.1535	250.9063	306.3782	308.3374	343.0615	403.5963	425.8081	487.4214	600.4004	692.5977	787.3172	816.5255	823.3885	828.8016	896.4634	902.4473	902.831	938.5599	945.9414	959.0808	1002.7973	1055.1699	1057.0612	1063.9312	1079.6077	1111.3262	1127.9211	1149.7171	1176.1101	1182.0477	1200.5835	1220.9393	1236.7051	1237.2402	1281.1455	1289.6742	1329.5883	1372.1516	1397.5671	1409.5399	1418.907	1464.7243	1472.4416	1489.5362	1494.7648	1496.8743	1501.3678	1501.5791	1509.8828	3019.5772	3027.2481	3035.5929	3036.2196	3043.0567	3086.1393	3087.1843	3092.496	3092.839	3094.297	3099.8145	3120.0452	3133.4361	3138.2276	3209.033	3223.8752
CC1CC(C)(C1)C1CC1	C[C@H]1C[C@@](C)(C1)C1CC1	
InChI=1S/C9H16/c1-7-5-9(2,6-7)8-3-4-8/h7-8H,3-6H2,1-2H3	InChI=1S/C9H16/c1-7-5-9(2,6-7)8-3-4-8/h7-8H,3-6H2,1-2H3/t7-,9-
