15
gdb 28277	5.35682	1.26755	1.0316	3.6641	75.3	-0.1942	-0.0037	0.1906	1099.3144	0.114842	-416.847457	-416.840212	-416.839268	-416.879082	27.773	
C	-0.0211171753	 1.485366614	 0.0330035992	-0.503698
C	-0.0020697058	-0.004343873	-0.0397374829	 0.325627
N	-0.0467066674	-0.7021896921	-1.1431288733	-0.388518
C	-0.0056480925	-2.0259059327	-0.7176746854	 0.216049
C	-0.0081923048	-3.3160361436	-1.1625045201	-0.117276
O	 0.0575592562	-4.1486275599	-0.0844190366	-0.156137
C	 0.1035470914	-3.4048831328	 1.0693226599	-0.136762
C	 0.0663754433	-2.0948237441	 0.7127061172	 0.264606
N	 0.0676112295	-0.7743969179	 1.1204499871	-0.472637
H	 0.8807965171	 1.8724895375	 0.5207505952	 0.137234
H	-0.0742014089	 1.8875689064	-0.9784774216	 0.16327
H	-0.8853556958	 1.8458369882	 0.6025855999	 0.137358
H	-0.0486870073	-3.7934209051	-2.1256882994	 0.137753
H	 0.1571642354	-3.9616327184	 1.9873309917	 0.130793
H	 0.1067965648	-0.4177980364	 2.058529789	 0.262337
104.9	148.4995	286.1746	289.2309	356.588	368.5141	530.3573	576.5958	587.9415	635.9477	665.8445	707.1483	752.7985	767.9479	819.761	945.2941	967.312	1020.6837	1038.3834	1060.2362	1151.4419	1189.1603	1233.4041	1260.085	1309.0867	1382.2834	1411.3618	1427.7692	1480.4647	1483.9327	1571.837	1619.6349	1707.1377	3034.4888	3085.8162	3159.0092	3290.7001	3296.3323	3685.8278
CC1=NC2=COC=C2N1	Cc1nc2cocc2[nH]1	
InChI=1S/C6H6N2O/c1-4-7-5-2-9-3-6(5)8-4/h2-3H,1H3,(H,7,8)	InChI=1S/C6H6N2O/c1-4-7-5-2-9-3-6(5)8-4/h2-3H,1H3,(H,7,8)
