18
gdb 32411	3.21072	1.14976	0.85585	1.7607	76.53	-0.1789	0.0542	0.2331	1325.0446	0.146158	-439.112112	-439.101909	-439.100965	-439.148476	35.607	
C	 0.045861555	 1.5038715286	 0.052794716	-0.511926
C	 0.0402333297	 0.0153153331	-0.0385942707	 0.195794
C	 0.0330610977	-0.8324226805	-1.1268749027	 0.140452
O	 0.0229731719	-0.5228834058	-2.4621923338	-0.456378
C	 0.0329783838	-2.179575635	-0.6670277888	 0.20665
C	 0.0232830308	-3.4056485423	-1.5206609889	-0.188347
O	 0.1255330839	-4.5457608208	-0.676658684	-0.424203
C	 0.0414545792	-2.1206258188	 0.7066842048	-0.164421
N	 0.046458537	-0.8023129949	 1.0785529725	-0.318022
H	 0.9601118379	 1.8986976991	 0.5157877411	 0.128752
H	-0.0209218116	 1.9519190941	-0.9444058526	 0.112772
H	-0.8057235553	 1.8918042145	 0.626895375	 0.128699
H	 0.0679911095	 0.4325628586	-2.5629995906	 0.2889
H	-0.901162434	-3.4424902564	-2.1216693289	 0.095661
H	 0.857484507	-3.3677616475	-2.2411675021	 0.09675
H	 0.0753864007	-5.3280240023	-1.2324740981	 0.286057
H	 0.0482129993	-2.9176690249	 1.4300064467	 0.129275
H	 0.0606125175	-0.470825579	 2.0261540653	 0.253535
25.2068	52.8098	136.7004	160.9934	195.3566	230.2745	264.5076	273.0983	300.5734	337.8418	377.1511	513.1964	615.1252	623.4601	682.4667	734.7736	742.8428	765.8791	963.5609	1001.8885	1049.1438	1056.3401	1081.5299	1118.9005	1203.8129	1229.7257	1238.1478	1255.9283	1273.4286	1350.581	1419.9825	1449.5885	1472.1293	1472.6219	1501.6044	1514.7494	1520.2729	1583.266	1664.818	2951.7412	2965.2162	3004.4227	3046.6843	3085.0707	3285.9888	3690.3833	3831.8349	3840.4689
CC1=C(O)C(CO)=CN1	Cc1c(O)c(CO)c[nH]1	
InChI=1S/C6H9NO2/c1-4-6(9)5(3-8)2-7-4/h2,7-9H,3H2,1H3	InChI=1S/C6H9NO2/c1-4-6(9)5(3-8)2-7-4/h2,7-9H,3H2,1H3
