23
gdb 93911	2.50803	1.25501	0.99129	1.1668	87.03	-0.2386	0.0209	0.2595	1301.2528	0.20708	-388.304445	-388.295146	-388.294202	-388.338369	36.28	
C	-0.424823415	 1.4505733148	-0.0079438918	-0.384346
C	-0.0218840313	-0.0401611074	-0.0110498377	-0.014827
C	 0.6666474111	-0.4627886222	-1.3250274054	-0.218602
C	 2.0202485603	 0.1745476869	-1.6555884812	-0.185724
C	 3.1831024623	-0.3079739062	-0.7917121827	 0.131738
O	 4.3652925362	 0.1456973515	-1.448730781	-0.439911
C	 3.1545810346	 0.2126840532	 0.6531706448	-0.268161
C	 2.0289386256	-0.2696299912	 1.5362192016	-0.066344
C	 0.7287563358	-0.383304333	 1.2589328138	-0.062624
H	 0.4514119161	 2.1051745273	-0.0238372099	 0.121997
H	-1.0432439721	 1.688423861	-0.8806025505	 0.109195
H	-0.9992844928	 1.6960383833	 0.8905808161	 0.113115
H	-0.959251139	-0.6111164649	 0.0223411798	 0.073055
H	 0.7831261811	-1.5541236651	-1.3189177495	 0.093387
H	-0.0264686913	-0.2355945754	-2.1445936769	 0.091056
H	 2.2783090566	-0.0652316844	-2.6928860837	 0.104898
H	 1.9679335581	 1.2688802443	-1.6010267323	 0.098349
H	 3.1645726784	-1.4109009263	-0.7657600254	 0.061769
H	 5.1227459727	-0.1304878577	-0.9229765524	 0.277046
H	 4.1041697353	-0.0708045086	 1.1265576576	 0.082931
H	 3.1648683935	 1.3116696937	 0.612248155	 0.116891
H	 2.3333945881	-0.5325508231	 2.5475396063	 0.083275
H	 0.0898187056	-0.7184994	 2.0750331255	 0.081836
54.1827	119.757	218.8829	242.1568	260.9092	288.9754	314.6924	334.9744	395.3218	405.2211	449.887	520.9522	580.793	706.4136	727.7079	757.8768	848.8209	884.5227	911.821	917.6321	987.0525	996.2431	1010.0665	1029.7137	1055.7805	1076.4413	1096.2278	1116.2569	1162.9466	1189.3274	1230.7863	1260.4633	1280.6782	1298.4241	1336.8641	1338.978	1361.0756	1376.0485	1389.4322	1398.4235	1404.9811	1435.2487	1446.3419	1473.7152	1480.0412	1494.0254	1495.2663	1506.2504	1728.0579	2952.5741	3000.8946	3004.2983	3021.2077	3030.6987	3033.0875	3035.069	3055.4305	3075.2441	3099.4811	3111.1543	3120.025	3146.9763	3814.8714
CC1CCC(O)CC=C1	C[C@H]1CC[C@@H](O)CC=C1	
InChI=1S/C8H14O/c1-7-3-2-4-8(9)6-5-7/h2-3,7-9H,4-6H2,1H3	InChI=1S/C8H14O/c1-7-3-2-4-8(9)6-5-7/h2-3,7-9H,4-6H2,1H3/t7-,8+/m1/s1
