16
gdb 32650	1.96947	1.87993	1.03642	5.7833	78.52	-0.2452	-0.0366	0.2086	1129.371	0.126197	-396.985752	-396.977557	-396.976612	-397.019344	29.488	
C	-0.0102948607	 1.5581307942	 0.0690254245	-0.37889
C	-0.0262821141	 0.0350730277	-0.0692135037	-0.175019
N	-1.3762527751	-0.5233645876	-0.0153798305	-0.036384
C	-2.0907234456	-0.8354651459	 1.1079571059	-0.113402
C	-3.3239080823	-1.2679006353	 0.6725717322	-0.098763
N	-3.3926713463	-1.2285310002	-0.6876182022	-0.298301
C	-2.2118299674	-0.7748013569	-1.0771209037	 0.24661
C	-1.8001949862	-0.5608070285	-2.4178575801	 0.240855
N	-1.4199140268	-0.3681683727	-3.4949324354	-0.354217
H	 1.0205480908	 1.9219401576	 0.0336337794	 0.133715
H	-0.5676004641	 2.0275708098	-0.745917459	 0.148786
H	-0.4539752036	 1.8721912186	 1.0180372772	 0.132095
H	 0.4154146946	-0.2680955973	-1.0216527899	 0.155606
H	 0.5563043419	-0.4363873636	 0.7271586157	 0.132064
H	-1.6644500604	-0.7306816348	 2.0925066202	 0.141247
H	-4.1562404245	-1.6091936652	 1.2686931793	 0.123998
45.9829	130.2686	151.4687	175.8209	227.4469	355.7977	384.0239	518.1316	558.1294	607.2904	647.8973	695.661	729.3567	771.1997	798.8628	867.3001	933.6062	969.7915	1083.9754	1105.6813	1114.4019	1174.5394	1219.457	1284.3725	1316.1755	1390.4215	1414.8907	1424.7802	1429.5371	1475.5257	1491.3959	1498.8449	1511.6475	1534.802	2343.0824	3048.1241	3067.6591	3109.2917	3125.4017	3134.8057	3251.9556	3275.3632
CCN1C=CN=C1C#N	CCn1ccnc1C#N	
InChI=1S/C6H7N3/c1-2-9-4-3-8-6(9)5-7/h3-4H,2H2,1H3	InChI=1S/C6H7N3/c1-2-9-4-3-8-6(9)5-7/h3-4H,2H2,1H3
