17
gdb 6509	2.9684	1.82153	1.40278	3.6547	69.74	-0.2748	0.0173	0.2921	937.5135	0.139782	-363.867564	-363.858728	-363.857783	-363.900188	32.775	
C	-0.0363822889	 1.5158256961	 0.0746429283	-0.444535
C	-0.0042359163	 0.000487427	 0.0056958182	 0.276269
C	-1.2475326332	-0.6272559086	-0.5954361413	-0.455549
C	 1.3221996371	-0.6790586796	-0.2371873406	-0.377878
C	 0.6945355344	-0.7246605396	 1.1509498621	 0.221028
O	 1.2306986132	 0.0765188428	 2.1625440768	-0.444495
C	 0.1652922485	-1.9868178276	 1.6240441151	 0.25323
N	-0.2329085438	-2.9984788734	 2.0201912841	-0.355674
H	 0.8512560331	 1.9191778259	 0.5627409945	 0.134926
H	-0.099801567	 1.9309697486	-0.9370875412	 0.119896
H	-0.9134849225	 1.8587701822	 0.6334327257	 0.127078
H	-1.3720012556	-0.2905942675	-1.6303964228	 0.122444
H	-1.1993680477	-1.7189266887	-0.5993201595	 0.137972
H	-2.1420711547	-0.3334247236	-0.0362516361	 0.130318
H	 1.3452406594	-1.5943902876	-0.8184026623	 0.13205
H	 2.2078277726	-0.0572599279	-0.3157511586	 0.125624
H	 2.0308119114	-0.3485063785	 2.4926306678	 0.297296
125.5094	147.7302	186.2443	202.3492	259.0146	278.6298	315.2998	355.7171	388.1409	420.2573	460.8459	579.2643	586.1205	670.1263	733.7888	879.1015	909.565	927.4229	977.8829	999.5069	1040.0448	1059.5246	1151.0456	1155.1099	1214.7647	1306.7047	1316.5659	1387.1711	1411.1236	1426.1213	1472.2688	1481.5659	1488.4319	1503.2615	1510.7279	2343.0479	3034.4672	3039.8315	3096.315	3099.5469	3120.9432	3131.4056	3146.1515	3225.3241	3793.2902
CC1(C)CC1(O)C#N	CC1(C)C[C@]1(O)C#N	
InChI=1S/C6H9NO/c1-5(2)3-6(5,8)4-7/h8H,3H2,1-2H3	InChI=1S/C6H9NO/c1-5(2)3-6(5,8)4-7/h8H,3H2,1-2H3/t6-/m0/s1
