19
gdb 126142	3.80259	0.9309	0.90204	4.1854	78.19	-0.2664	-0.0323	0.2341	1384.0255	0.158227	-419.20063	-419.191448	-419.190504	-419.23537	33.071	
C	-0.0756605811	 1.5333703974	 0.0914725047	-0.397305
C	 0.0090886292	 0.0083631974	-0.0111751848	-0.168821
C	 0.7750617574	-0.4966070503	-1.2586070154	-0.10191
C	 2.2620846484	-0.0926195337	-1.2562733752	-0.396937
C	 0.6345021188	-1.9804937466	-1.3845441069	 0.441538
C	 0.0437382719	-2.7904482684	-2.3074446874	-0.233156
N	 0.2287188872	-4.0862860116	-1.890133242	-0.108077
N	 0.8700787683	-4.1225042789	-0.8129636438	-0.015117
O	 1.1612138351	-2.7583511882	-0.4379788173	-0.229618
H	 0.9081518942	 1.993520512	 0.2216383698	 0.124462
H	-0.5328122242	 1.9675340111	-0.8049079111	 0.116799
H	-0.6885993938	 1.8247605769	 0.949515752	 0.122328
H	 0.4863224302	-0.4047961813	 0.8850167221	 0.118772
H	-1.00471144	-0.4078041795	-0.0383545332	 0.107328
H	 0.2981042428	-0.0662187721	-2.1481799536	 0.093997
H	 2.7714719597	-0.4984220947	-0.3773136476	 0.13825
H	 2.7713542604	-0.4715084386	-2.1469235245	 0.126696
H	 2.3673122946	 0.9946465313	-1.2455876321	 0.124463
H	-0.484502959	-2.5495490324	-3.2137371038	 0.13631
50.3399	80.3899	116.5676	180.2488	220.2147	268.4137	285.3121	344.7904	385.1676	461.8974	616.3913	698.1917	710.0672	751.5221	783.1294	820.0096	847.588	962.436	983.5848	988.0068	1027.245	1048.8807	1083.1436	1122.3421	1130.4441	1181.7387	1251.0974	1281.6115	1303.6779	1349.3455	1367.799	1392.743	1409.7608	1415.8991	1461.8937	1485.9474	1493.544	1499.9853	1506.351	1511.4479	1600.4926	3029.4935	3034.6668	3036.9522	3047.4379	3071.1983	3103.6887	3112.7983	3118.6003	3129.3618	3289.9555
CCC(C)C1=CN=NO1	CC[C@@H](C)c1cnno1	
InChI=1S/C6H10N2O/c1-3-5(2)6-4-7-8-9-6/h4-5H,3H2,1-2H3	InChI=1S/C6H10N2O/c1-3-5(2)6-4-7-8-9-6/h4-5H,3H2,1-2H3/t5-/m1/s1
