14
gdb 129399	2.79729	1.58441	1.01384	4.1176	67.16	-0.2357	-0.05	0.1856	1078.3807	0.102252	-466.162225	-466.154276	-466.153332	-466.194596	30.223	
N	-0.0569179947	 1.3023885487	-0.1334836168	-0.553777
C	 0.0487367709	-0.0574380834	-0.0291008939	 0.298034
N	 1.1202938326	-0.7652211198	 0.0429665861	-0.55322
C	-1.233028011	-0.77974241	-0.0269344954	 0.32514
N	-2.3934179447	-0.1839456022	 0.0313588224	-0.177042
O	-3.3256965539	-1.1589613457	 0.0571358509	-0.163272
N	-2.7446017583	-2.420742896	 0.0142170679	-0.186266
C	-1.4507874445	-2.2008106317	-0.0440850663	 0.303732
N	-0.4930166111	-3.156532474	-0.1530835919	-0.590356
H	 0.7462436185	 1.8696065692	 0.0807054228	 0.256605
H	-0.9637341907	 1.7203804965	 0.0036112302	 0.280178
H	 1.960873125	-0.1873743941	 0.0417928614	 0.212082
H	-0.7401171216	-4.0934483755	 0.11975518	 0.264324
H	 0.4437292735	-2.8237083918	 0.0411812527	 0.283838
83.5133	194.9599	211.9299	311.0365	333.8428	342.652	421.7744	426.1399	463.8633	526.1192	570.5152	615.5635	652.7535	669.7142	759.0514	810.0864	844.6779	906.3546	962.7165	1059.0396	1092.7154	1136.5264	1168.1042	1240.9536	1440.988	1476.9352	1556.1292	1599.1297	1635.7464	1657.2567	1711.4457	3476.571	3527.9751	3591.058	3690.6807	3714.8917
NC(=N)C1=NON=C1N	NC(=N)c1nonc1N	
InChI=1S/C3H5N5O/c4-2(5)1-3(6)8-9-7-1/h(H3,4,5)(H2,6,8)	InChI=1S/C3H5N5O/c4-2(5)1-3(6)8-9-7-1/h(H3,4,5)(H2,6,8)
