18
gdb 88291	3.29703	1.04773	1.01981	4.3179	74.68	-0.2525	-0.0134	0.2391	1267.2288	0.146065	-439.059675	-439.0507	-439.049756	-439.094114	32.231	
C	 0.4096146607	 1.4445351399	-0.6379655331	-0.433831
C	-0.0034872456	 0.10236584	-0.0945145652	 0.081109
O	 1.014758069	-0.8667085534	 0.113377628	-0.231509
C	 0.3315510167	-0.3924540265	 1.2673443973	-0.048018
C	 1.1245800306	 0.4410825902	 2.2391953053	 0.351293
O	 2.1378078013	 1.0402852365	 1.9590733685	-0.337554
N	 0.6008672536	 0.39787261	 3.5325276559	-0.081378
C	-0.6906540579	 0.9517768136	 3.9139292537	-0.234563
C	 0.5972317827	 1.5500187301	 4.3996178261	-0.215064
H	 1.3053838588	 1.8076849879	-0.133657447	 0.16779
H	 0.6169335001	 1.3583106044	-1.7096944748	 0.130923
H	-0.4013597212	 2.1706383975	-0.5138282385	 0.114453
H	-0.9191216066	-0.3127386639	-0.5229868745	 0.09515
H	-0.3425489308	-1.1114915741	 1.7318291879	 0.10294
H	-1.2476842628	 1.5052424662	 3.1617156804	 0.132732
H	-1.2948516754	 0.3394834132	 4.577334861	 0.132152
H	 0.9167513199	 1.3738549187	 5.4223049594	 0.132307
H	 0.922381757	 2.4915742295	 3.9655493196	 0.141068
48.59	88.7192	165.7485	176.4418	203.4872	245.6588	282.863	364.0393	431.4695	455.8098	607.689	750.0385	783.1207	816.1263	835.0846	857.4815	925.1643	972.9296	1000.1195	1037.4156	1046.7849	1086.4831	1118.053	1130.9148	1135.8221	1169.241	1171.647	1174.8367	1181.9677	1285.8542	1360.3502	1398.5826	1422.2371	1452.5686	1493.5561	1496.6129	1503.1883	1523.5183	1791.7895	3039.3319	3078.3972	3098.9135	3107.5086	3117.7338	3119.0143	3157.8241	3193.6913	3210.6936
CC1OC1C(=O)N1CC1	C[C@H]1O[C@H]1C(=O)N1CC1	
InChI=1S/C6H9NO2/c1-4-5(9-4)6(8)7-2-3-7/h4-5H,2-3H2,1H3	InChI=1S/C6H9NO2/c1-4-5(9-4)6(8)7-2-3-7/h4-5H,2-3H2,1H3/t4-,5-/m1/s1
