18
gdb 18351	3.40777	2.11913	1.55755	1.6378	71.91	-0.2417	0.0113	0.253	853.1981	0.15575	-347.799443	-347.792439	-347.791495	-347.830566	27.697	
O	 0.4670583936	 0.9464671605	-0.8790729175	-0.430966
C	 0.077004498	-0.2134529329	-0.154809383	 0.083493
C	 0.6365570105	-0.2835661363	 1.2536057754	-0.12034
C	-0.2794059011	-0.6308591208	 2.1579485147	-0.077975
C	-1.6374074737	-0.8690971591	 1.5492747913	-0.058815
C	-2.692070539	 0.2515451468	 1.7886733562	-0.223687
C	-2.2571191298	 0.9094283439	 0.448590358	-0.225474
C	-1.4454741255	-0.3714248165	 0.0807777153	-0.028931
H	 0.2461714376	 1.7143887738	-0.341465783	 0.277357
H	 0.4597009172	-1.0400874071	-0.7671745203	 0.089764
H	 1.6815707794	-0.0719532176	 1.4548530079	 0.096365
H	-0.0955274438	-0.7412193783	 3.2225055973	 0.094187
H	-1.9884763728	-1.893594763	 1.7092345281	 0.073468
H	-3.7155812591	-0.1309706208	 1.7553169711	 0.100842
H	-2.5758613715	 0.8517986068	 2.6952728516	 0.095415
H	-3.0575221775	 1.1824598374	-0.2415935264	 0.105351
H	-1.6322798433	 1.794494671	 0.5978757907	 0.082909
H	-1.9317124591	-0.9697854677	-0.6906327773	 0.067037
86.4707	203.9618	247.2024	286.0467	355.7907	464.0313	531.4687	659.0213	685.3909	757.6133	760.6319	801.2177	851.7543	879.2185	905.7711	956.0691	961.7349	985.6234	1021.3491	1046.7945	1072.3275	1084.6983	1120.8277	1142.8342	1184.9067	1221.6812	1243.6924	1253.4309	1266.0968	1269.5509	1294.2471	1309.4702	1337.9959	1372.2199	1427.7069	1474.6881	1492.2325	1674.1029	3022.3935	3047.3579	3054.4864	3060.549	3095.1384	3101.9806	3119.2183	3169.9022	3198.5325	3806.8576
OC1C=CC2CCC12	O[C@H]1C=C[C@H]2CC[C@@H]12	
InChI=1S/C7H10O/c8-7-4-2-5-1-3-6(5)7/h2,4-8H,1,3H2	InChI=1S/C7H10O/c8-7-4-2-5-1-3-6(5)7/h2,4-8H,1,3H2/t5-,6-,7+/m1/s1
