19
gdb 120839	4.30149	0.61099	0.57807	3.3287	73.93	-0.2516	-0.0265	0.2251	1889.1361	0.156036	-460.140964	-460.130739	-460.129795	-460.178224	34.836	
O	 0.0124990736	 1.3396797032	 0.3819824667	-0.420898
C	-0.0813036161	-0.0750579377	 0.3913283239	-0.066125
C	-1.3089724813	-0.4573074583	-0.432578583	-0.218697
C	-1.4778941504	-1.9524279307	-0.5177130905	 0.055662
O	-1.9246511801	-2.6397384342	 0.6615701975	-0.263042
C	-2.7640441889	-2.6711800124	-0.4991267487	 0.038566
C	-4.124912225	-2.0167386458	-0.3825818392	-0.312437
C	-5.0468564426	-2.8275034832	 0.5112205635	 0.160341
O	-6.1528890453	-3.187215941	 0.2020928572	-0.235575
H	 0.7525498097	 1.5964926615	 0.9395620057	 0.288652
H	 0.8188136345	-0.5402301605	-0.0434072752	 0.086398
H	-0.1948536199	-0.4687743684	 1.4124193071	 0.106818
H	-2.1851799148	 0.0175435614	 0.0162836749	 0.114531
H	-1.1970879228	-0.0482252866	-1.4441652071	 0.115853
H	-0.655830719	-2.4667343808	-1.0219096656	 0.09411
H	-2.7847815153	-3.6450183815	-0.993076375	 0.10284
H	-4.0235222481	-1.0229903002	 0.0685229737	 0.129499
H	-4.5940125888	-1.9102144142	-1.3653844122	 0.12703
H	-4.6143915294	-3.0711667106	 1.5065716564	 0.096475
38.0785	58.9869	74.0299	90.5109	132.4512	190.9119	256.5793	261.0975	346.4796	432.5142	496.0225	503.0312	543.732	764.5745	801.9291	816.4461	871.9037	935.9358	999.1804	1021.5479	1051.7845	1073.661	1094.7972	1117.5722	1157.9379	1174.6129	1229.2238	1235.5913	1243.6605	1285.6595	1304.8354	1313.5664	1332.3792	1409.2997	1422.4773	1445.9956	1459.5799	1476.0437	1491.4322	1529.0466	1835.1232	2896.6372	2964.8298	3007.6354	3043.6763	3047.7143	3072.4305	3087.7167	3105.7647	3112.0976	3833.0021
OCCC1OC1CC=O	OCC[C@H]1O[C@H]1CC=O	
InChI=1S/C6H10O3/c7-3-1-5-6(9-5)2-4-8/h3,5-6,8H,1-2,4H2	InChI=1S/C6H10O3/c7-3-1-5-6(9-5)2-4-8/h3,5-6,8H,1-2,4H2/t5-,6+/m0/s1
