17
gdb 63122	2.26009	1.68472	1.20141	3.3051	74.64	-0.2393	0.0131	0.2524	1060.953	0.135361	-417.970965	-417.962305	-417.961361	-418.003833	32.819	
C	 0.0096695821	 1.5557103697	-0.0332233199	-0.468381
C	 0.0948363184	 0.0496971215	-0.0113577024	 0.348565
O	-0.9798051532	-0.6194327812	-0.6026745991	-0.451748
C	 1.3504058691	-0.7239837496	-0.2159143186	-0.097242
N	 2.5053665053	 0.0132277536	 0.3052706789	-0.334253
C	 1.9717280256	-0.1047603157	 1.7027629018	-0.242188
C	 0.6743491708	-0.7426821279	 1.1832499258	 0.102393
C	-0.105792572	-1.7215061243	 1.8516975211	 0.186479
N	-0.7591336405	-2.5009145051	 2.4077900235	-0.362966
H	 0.9536576133	 2.0127189924	 0.2679588392	 0.148864
H	-0.2207146344	 1.8828251908	-1.051582241	 0.136834
H	-0.7867222024	 1.9124668075	 0.6289973896	 0.118766
H	-1.7361935521	-0.5864068887	-0.0044153993	 0.298228
H	 1.42207005	-1.5121886222	-0.955792327	 0.126218
H	 3.3608733351	-0.5193102721	 0.1997140411	 0.238087
H	 2.5412497955	-0.8063003455	 2.3177093503	 0.13178
H	 1.8812285795	 0.8495738666	 2.2308636759	 0.120564
117.0358	142.6582	186.1508	232.3293	253.0603	290.3886	344.7935	382.1637	408.8304	485.6819	536.6488	583.6634	620.1921	672.1351	742.1976	782.7355	923.9245	968.2023	985.3124	991.2729	1018.945	1031.1262	1081.5206	1094.7597	1152.2039	1197.3086	1221.4989	1268.4587	1312.9991	1355.6067	1366.1626	1409.9311	1457.8306	1481.8342	1501.9341	1513.3784	2332.893	3040.4094	3049.4808	3102.7511	3105.8687	3142.609	3196.5474	3548.4001	3782.9092
CC1(O)C2NCC12C#N	C[C@@]1(O)[C@H]2NC[C@@]12C#N	
InChI=1S/C6H8N2O/c1-5(9)4-6(5,2-7)3-8-4/h4,8-9H,3H2,1H3	InChI=1S/C6H8N2O/c1-5(9)4-6(5,2-7)3-8-4/h4,8-9H,3H2,1H3/t4-,5-,6-/m1/s1
