19
gdb 110892	2.83311	1.52102	1.20643	2.2834	75.89	-0.2196	-0.0129	0.2066	1085.7916	0.160174	-423.019309	-423.011304	-423.01036	-423.051931	30.668	
C	-0.1092831386	 1.3626793431	-0.0792456371	-0.248768
O	 0.1216436431	-0.0310150528	 0.0457496823	-0.259278
C	 0.7187622621	-0.6140156524	-1.0882601364	 0.046635
C	 1.0929606087	-2.078249847	-0.8282680405	-0.060717
C	 1.2811719217	-2.6127528347	-2.2769482057	-0.247926
C	-0.2659093003	-2.3816711223	-2.369916112	-0.128212
C	-0.2948306351	-2.7835777292	-0.853480475	-0.232948
C	-0.3046984775	-0.8713506116	-2.2414495301	 0.416741
O	-0.9749639503	-0.062679584	-2.8285972686	-0.344179
H	 0.8345987044	 1.9063770591	-0.2410760283	 0.103149
H	-0.7914540748	 1.5896307208	-0.9055260381	 0.142466
H	-0.5512547717	 1.6940167998	 0.8632894774	 0.124747
H	 1.5724395197	-0.010490571	-1.436699848	 0.077113
H	 1.8221000941	-2.2631391711	-0.0412298209	 0.077646
H	 1.9308170008	-2.06035493	-2.9625171706	 0.105248
H	 1.5301870573	-3.6755303026	-2.296422988	 0.113671
H	-0.9019988813	-2.8374034068	-3.1254770097	 0.083908
H	-0.2147385334	-3.8654195781	-0.7282646069	 0.107696
H	-1.0876141389	-2.3777934791	-0.2233293939	 0.123007
97.7749	129.8625	178.0416	209.5296	257.8557	365.7121	442.1913	462.1206	506.3166	616.455	695.5118	798.2927	817.9938	845.8379	873.5403	893.1727	941.5913	997.6624	1010.6269	1014.0913	1028.3358	1069.706	1092.4032	1102.8475	1149.3427	1171.0879	1186.6807	1220.4938	1225.8813	1242.1627	1245.6774	1255.7779	1300.2506	1317.0758	1375.4347	1477.9867	1484.3634	1487.131	1516.2408	1519.1423	1859.7667	2975.3622	2986.0134	3055.9753	3072.4786	3073.5654	3121.7342	3124.1718	3130.7598	3139.1269	3147.2459
COC1C2CC(C2)C1=O	CO[C@H]1[C@@H]2C[C@@H](C2)C1=O	
InChI=1S/C7H10O2/c1-9-7-5-2-4(3-5)6(7)8/h4-5,7H,2-3H2,1H3	InChI=1S/C7H10O2/c1-9-7-5-2-4(3-5)6(7)8/h4-5,7H,2-3H2,1H3/t4-,5+,7-/m0/s1
