16
gdb 56099	4.03323	0.77714	0.65684	2.5106	74.68	-0.2586	-0.033	0.2256	1631.0151	0.120338	-437.900302	-437.890134	-437.88919	-437.937763	34.446	
C	-0.0179544493	 1.4616079846	 0.0092051962	-0.477185
C	 0.0362039631	-0.0489754367	 0.002065823	 0.366753
O	 1.0760092359	-0.6686910545	-0.0115754434	-0.2945
C	-1.3047665862	-0.7735867761	 0.0133604694	-0.236849
N	-1.0892200139	-2.1949152093	 0.0050497318	-0.331901
C	-2.1251584474	-3.0742049374	 0.0063762601	 0.291086
O	-3.2951699031	-2.7309132363	 0.0161746181	-0.371223
C	-1.7102408746	-4.4713083956	-0.0061277138	 0.215549
C	-1.4025390113	-5.6333670133	-0.0163154373	-0.389505
H	 0.9938273028	 1.8676408437	 0.0013735575	 0.152364
H	-0.569500579	 1.8267543439	-0.8641945233	 0.150315
H	-0.5530151188	 1.8192516424	 0.8958461231	 0.150245
H	-1.8811220127	-0.4584046073	 0.8951234047	 0.147563
H	-1.8999403083	-0.4513083082	-0.8531849044	 0.147716
H	-0.1262319663	-2.5012833646	-0.0062854787	 0.270457
H	-1.1396354109	-6.6627630253	-0.0251364732	 0.209115
20.2985	44.8904	91.9178	92.256	154.6296	195.0055	274.1805	290.9717	356.4731	465.3201	545.1698	552.7283	582.6133	622.9497	656.6405	674.7754	768.9233	812.0936	855.0583	938.6573	1001.6056	1088.2818	1141.6379	1192.1771	1239.2091	1242.5507	1364.3542	1390.1938	1461.0802	1475.2577	1483.0095	1517.2926	1749.1614	1811.5659	2228.5466	3010.3699	3028.4899	3041.6051	3102.2189	3157.9847	3498.6729	3601.5071
CC(=O)CNC(=O)C#C	CC(=O)CNC(=O)C#C	
InChI=1S/C6H7NO2/c1-3-6(9)7-4-5(2)8/h1H,4H2,2H3,(H,7,9)	InChI=1S/C6H7NO2/c1-3-6(9)7-4-5(2)8/h1H,4H2,2H3,(H,7,9)
