14
gdb 28650	5.95051	1.0402	0.88583	2.6653	86.66	-0.2173	-0.0444	0.1729	1228.6563	0.102132	-395.752267	-395.744619	-395.743675	-395.78422	29.44	
N	 0.0068316425	 1.3806149918	 0.1329510488	-0.568982
C	-0.0033400078	 0.012157462	 0.0542048868	 0.388094
C	-1.2094074446	-0.725298589	 0.0425420132	-0.080895
N	-1.2283139752	-2.042657485	 0.0122951439	-0.286755
C	-0.0371770624	-2.6798843457	-0.0032515657	 0.13624
C	 1.1523418972	-1.942208535	 0.0064164141	-0.0613
N	 1.1786036461	-0.6127021545	 0.030575057	-0.311264
C	-0.0152589994	-4.1042478862	-0.0329953339	 0.227606
C	 0.0408287051	-5.3066408224	-0.0579670352	-0.386119
H	 0.8885565523	 1.8182821182	-0.0858052768	 0.263661
H	-0.8151840279	 1.8816558669	-0.1615429805	 0.260945
H	-2.1698405081	-0.2129204269	 0.0585115676	 0.103736
H	 2.1109589635	-2.4532409397	-0.0115439796	 0.121593
H	 0.0760721687	-6.3676727745	-0.0799085497	 0.193441
92.4931	147.3613	242.9631	365.618	399.5146	431.1275	447.6476	459.6453	488.2702	543.6585	574.097	601.3504	660.0376	666.6778	743.9402	811.3435	885.8795	917.7157	968.8137	1032.628	1064.594	1249.8751	1266.5959	1321.6357	1358.7405	1411.5967	1515.6736	1569.034	1611.7046	1644.0932	2228.0747	3137.0656	3169.8491	3503.2027	3589.2715	3708.952
NC1=CN=C(C=N1)C#C	Nc1cnc(cn1)C#C	
InChI=1S/C6H5N3/c1-2-5-3-9-6(7)4-8-5/h1,3-4H,(H2,7,9)	InChI=1S/C6H5N3/c1-2-5-3-9-6(7)4-8-5/h1,3-4H,(H2,7,9)
