22
gdb 12962	2.1738	2.09161	1.69436	0.2278	82.25	-0.2384	0.0842	0.3226	978.876	0.199627	-313.05229	-313.043399	-313.042455	-313.084843	34.248	
C	 0.1310887063	 1.635447975	-0.3694632912	-0.422707
C	 0.2449840046	 0.1343149288	-0.1831613975	-0.036888
C	 1.4803530082	-0.6938670792	-0.4211271283	-0.120746
C	 2.7346081109	 0.0092671012	 0.1136556787	-0.261763
C	 2.1189444798	-0.0238625674	 1.5530662177	-0.003936
C	 2.0740234422	 1.2247029604	 2.4297453242	-0.42015
C	 0.8284134081	-0.6419455297	 0.9757172074	 0.322659
C	 0.0311212509	-1.6855328465	 1.7101746766	-0.49471
H	 1.0682578384	 2.1629262763	-0.1814226985	 0.121471
H	-0.1653432754	 1.8633511281	-1.3999038219	 0.111147
H	-0.6293777029	 2.0632972173	 0.2935941508	 0.113642
H	-0.6414235893	-0.3819481716	-0.5524905016	 0.07727
H	 1.4892941566	-1.5132818476	-1.1318463621	 0.075703
H	 3.6425745896	-0.5917470176	 0.029024237	 0.096969
H	 2.9447691881	 0.9990548404	-0.3058580699	 0.092373
H	 2.6324512889	-0.8128659243	 2.11579059	 0.069261
H	 1.5883473184	 2.0688671176	 1.935046999	 0.117326
H	 1.5259852502	 1.0268839042	 3.3581996418	 0.111737
H	 3.0863932623	 1.5391567072	 2.7086448605	 0.110265
H	-0.5444566765	-1.2442044787	 2.5339143538	 0.116076
H	-0.6824968974	-2.185062124	 1.0462261435	 0.114086
H	 0.6820354881	-2.4560029798	 2.1410740101	 0.110917
137.0635	182.3371	193.3117	196.1899	221.4816	236.1483	290.1744	322.6777	375.3229	486.5949	560.4	622.7196	675.4987	731.9412	813.9774	859.4636	891.2151	924.9241	943.5009	988.0206	1003.0924	1049.0596	1069.4279	1096.7513	1115.8728	1119.0862	1129.6416	1169.0364	1181.2306	1240.5742	1246.802	1266.8501	1307.0865	1347.9076	1379.95	1403.4225	1410.3751	1416.9973	1464.3224	1485.9059	1489.5721	1494.7591	1498.3758	1502.5631	1504.927	1508.043	3012.7583	3021.31	3028.5717	3030.8419	3044.3296	3067.9285	3081.9278	3085.5637	3088.7982	3100.1076	3101.4808	3116.387	3127.0979	3164.3443
CC1C2CC(C)C12C	C[C@H]1[C@H]2C[C@@H](C)[C@@]12C	
InChI=1S/C8H14/c1-5-4-7-6(2)8(5,7)3/h5-7H,4H2,1-3H3	InChI=1S/C8H14/c1-5-4-7-6(2)8(5,7)3/h5-7H,4H2,1-3H3/t5-,6+,7-,8+/m1/s1
