15
gdb 33476	2.24079	1.78282	1.21647	4.9161	75.64	-0.2617	-0.0138	0.2479	1024.8211	0.111642	-379.589052	-379.581084	-379.58014	-379.621415	30.263	
C	-0.0191893653	-1.2491839245	-0.0952452904	-0.430332
C	-0.0162034376	-0.0487164336	-0.0514461471	 0.333712
C	-0.0012879575	 1.4026534025	 0.0376241495	-0.026812
C	-0.2555657085	 2.0425966058	 1.455990641	-0.301636
C	 1.1553728915	 2.6057444021	 1.3614782088	-0.006085
C	 2.1454706684	 1.5459748523	 1.1093353641	-0.241
N	 1.3797049908	 2.0636515217	-0.0447661638	-0.145664
C	-0.8648282608	 1.9862752043	-0.9944519803	 0.27663
N	-1.5650510877	 2.4595318729	-1.781510354	-0.335302
H	-0.0272731845	-2.3102585032	-0.1529963337	 0.214164
H	-1.0408937719	 2.7967720072	 1.4196670376	 0.148162
H	-0.4570930803	 1.3376089265	 2.264687935	 0.129833
H	 1.433159902	 3.6221755069	 1.6157889376	 0.11294
H	 3.189887605	 1.8350519387	 1.0553872086	 0.137818
H	 1.9683073365	 0.5291764102	 1.4488980271	 0.133572
129.394	143.5118	158.5777	184.0037	306.428	408.6185	474.9541	497.8057	546.1588	565.2263	588.2302	648.6546	674.2877	759.9279	769.577	847.0813	892.0351	936.7475	964.3556	1005.9258	1058.0941	1094.1009	1111.4413	1132.9036	1147.4055	1225.8315	1250.7323	1279.6432	1368.4266	1482.3973	1501.0493	2237.906	2365.2771	3083.1291	3121.5138	3151.164	3181.6427	3213.7751	3497.0859
C#CC1(CC2CN12)C#N	C#C[C@]1(C[C@H]2CN12)C#N	
InChI=1S/C7H6N2/c1-2-7(5-8)3-6-4-9(6)7/h1,6H,3-4H2	InChI=1S/C7H6N2/c1-2-7(5-8)3-6-4-9(6)7/h1,6H,3-4H2/t6-,7-,9?/m0/s1
