14
gdb 26046	3.3385	1.14589	1.05231	3.6155	67.77	-0.2594	-0.0264	0.2329	1140.3515	0.102807	-432.892235	-432.884329	-432.883385	-432.925532	28.065	
N	 0.0507833652	 1.4495030156	 0.1392370127	-0.492194
C	-0.029040087	-0.0096978384	-0.0128628427	-0.258956
C	-1.4474037766	-0.4161248677	 0.0303164482	 0.306037
N	-2.5539295782	-0.7454015261	 0.0482744417	-0.312464
C	 0.6468681446	-0.5771072665	-1.2259238687	 0.354636
C	 1.6954596732	-1.4104842125	-1.4336541058	-0.198583
N	 1.9198366921	-1.5385428886	-2.7990537563	-0.250493
C	 1.0139724081	-0.791226473	-3.3364211787	 0.080926
O	 0.1978052095	-0.1675563046	-2.4547255284	-0.178519
H	 1.0297936129	 1.7221752582	 0.1465657716	 0.243572
H	-0.3715962906	 1.8957124023	-0.6703960946	 0.252366
H	 0.4590022122	-0.4621064834	 0.8587269991	 0.154196
H	 2.3005077399	-1.9288814364	-0.7066085802	 0.137486
H	 0.8286512646	-0.6047903988	-4.3825040678	 0.161989
56.7357	101.4696	170.753	208.986	259.2314	341.7731	401.0318	475.6277	587.5678	665.1416	711.2046	747.4176	849.7228	867.6914	881.1852	908.5657	941.3206	982.0268	1109.2688	1119.5169	1137.7653	1193.7951	1240.6975	1244.2543	1304.4757	1366.3123	1389.0987	1544.8851	1625.8911	1660.0458	2368.4626	3052.7076	3264.7933	3281.1067	3491.4229	3575.3185
NC(C#N)C1=CN=CO1	N[C@@H](C#N)c1cnco1	
InChI=1S/C5H5N3O/c6-1-4(7)5-2-8-3-9-5/h2-4H,7H2	InChI=1S/C5H5N3O/c6-1-4(7)5-2-8-3-9-5/h2-4H,7H2/t4-/m0/s1
