19
gdb 103613	2.7943	1.19206	1.02215	1.9317	71.93	-0.2374	-0.0355	0.2019	1238.5413	0.156018	-460.162789	-460.152734	-460.15179	-460.197707	36.48	
C	 0.1239982805	 1.489146055	 0.1080935071	-0.413232
C	 0.0180828072	-0.0395601118	 0.0361004694	-0.23425
C	-1.4171219389	-0.548627633	 0.0462831952	 0.298231
O	-2.199458191	-0.0633281851	-1.0412209795	-0.482034
C	-1.677982931	-2.0784903897	 0.1470158406	-0.313691
C	-2.8695687639	-1.8176623175	 1.1441716412	 0.069249
O	-3.0986426385	-2.6371747806	 2.2476384028	-0.43215
C	-2.2081410665	-0.4605410316	 1.3846830133	 0.283593
O	-2.079531088	 0.1883652443	 2.3883489066	-0.317966
H	 1.1710957042	 1.8041507894	 0.1188174687	 0.122809
H	-0.3415628943	 1.9656796691	-0.762106839	 0.110159
H	-0.3553638736	 1.8717611608	 1.0136727979	 0.146913
H	 0.5056567598	-0.4114450022	-0.8734199559	 0.10988
H	 0.5475737918	-0.4831108076	 0.8872127593	 0.104302
H	-2.2513287558	 0.8959166888	-0.966629011	 0.288843
H	-1.9388157471	-2.5620521712	-0.7941585152	 0.125088
H	-0.8540833907	-2.6016016754	 0.6377818266	 0.114672
H	-3.7948726061	-1.7161901789	 0.5670502392	 0.125553
H	-2.6511173581	-2.2386183228	 3.0041951228	 0.294031
74.6418	95.1366	123.9196	161.0004	218.3442	251.0975	270.8661	294.879	336.2934	354.7581	377.806	405.9137	551.1527	598.0449	751.9904	754.3871	778.2766	844.5913	913.829	935.61	962.5993	998.7138	1034.1986	1071.4076	1112.403	1140.6054	1151.4337	1204.0544	1239.3117	1262.8434	1311.9102	1323.026	1329.3988	1388.6005	1406.7524	1408.725	1462.9313	1472.4437	1505.971	1510.1224	1856.1381	3029.7187	3035.3621	3058.8146	3068.9753	3079.9757	3101.5912	3122.8828	3153.2274	3779.787	3807.3899
CCC1(O)CC(O)C1=O	CC[C@@]1(O)C[C@@H](O)C1=O	
InChI=1S/C6H10O3/c1-2-6(9)3-4(7)5(6)8/h4,7,9H,2-3H2,1H3	InChI=1S/C6H10O3/c1-2-6(9)3-4(7)5(6)8/h4,7,9H,2-3H2,1H3/t4-,6-/m1/s1
