12
gdb 25148	3.7176	1.21284	0.91449	3.1537	71.87	-0.2642	-0.1043	0.1599	1141.9292	0.078713	-435.553802	-435.546807	-435.545863	-435.585607	25.725	
O	-0.054963882	-0.0530327503	 0.0042407887	-0.322816
C	 0.0168991069	 1.1422748368	 0.0091816053	 0.453811
O	-1.1912853793	 1.8743101492	 0.029656016	-0.214703
C	-1.2192011299	 3.2123306515	 0.036617009	 0.104885
C	-0.113358581	 3.9823472307	 0.0249309958	-0.261428
C	 1.1588485521	 3.3141697796	 0.0038413101	 0.199594
C	 1.2198774697	 1.9536101609	-0.0036954426	-0.346652
C	 2.3603037487	 4.0945471704	-0.0091552052	 0.234057
N	 3.3203889278	 4.7398429124	-0.0194387626	-0.307037
H	-2.231899402	 3.5977906541	 0.0526756898	 0.160606
H	-0.1855764549	 5.0599000237	 0.0312361297	 0.143574
H	 2.1590343439	 1.4173970511	-0.019488554	 0.15611
136.014	145.5115	152.5631	360.8543	418.8742	451.4701	463.1754	559.8205	599.367	697.738	717.9231	738.3	806.385	817.3868	903.8099	955.0754	988.0819	1081.0108	1129.3433	1197.42	1292.1318	1333.0397	1464.3049	1569.2042	1669.9077	1853.0805	2351.5396	3212.7359	3234.5399	3250.2261
O=C1OC=CC(=C1)C#N	O=c1occc(c1)C#N	
InChI=1S/C6H3NO2/c7-4-5-1-2-9-6(8)3-5/h1-3H	InChI=1S/C6H3NO2/c7-4-5-1-2-9-6(8)3-5/h1-3H
