16
gdb 25878	4.36754	1.01421	0.82814	3.2996	74.8	-0.2012	-0.0333	0.1679	1332.2488	0.123726	-437.936961	-437.928171	-437.927226	-437.970865	31.846	
C	-0.0507645791	 1.4991984693	 0.003181983	-0.495755
C	 0.0262813725	-0.0195575083	-0.004969266	 0.297532
O	 1.0932823257	-0.6012386622	-0.0394953993	-0.315667
C	-1.2425476791	-0.7688547494	 0.0308017729	 0.188217
C	-2.5137642062	-0.277019448	 0.0589455896	-0.11754
O	-3.4133259346	-1.300773816	 0.0838215247	-0.17722
C	-2.6983483395	-2.4630910216	 0.0665187562	 0.407872
N	-3.4610943367	-3.6143246625	 0.1667321221	-0.592822
C	-1.3649091008	-2.205916776	 0.0316173145	-0.396184
H	 0.9589119276	 1.9092958724	-0.0302078403	 0.141141
H	-0.6214282919	 1.8616291474	-0.8586340671	 0.136001
H	-0.56017196	 1.8541666624	 0.9055104405	 0.137645
H	-2.9366268683	 0.7132008444	 0.0601093764	 0.143882
H	-4.3487061599	-3.5449948273	-0.3148495789	 0.258473
H	-2.9579472306	-4.4421998994	-0.1200156153	 0.261162
H	-0.5510941491	-2.9105376653	 0.0059722269	 0.123263
68.622	109.7372	143.5828	158.2193	195.3746	318.9938	333.4697	404.6228	513.9293	558.5814	601.4274	639.8092	676.2273	703.5825	718.7342	752.2827	798.9524	935.3025	952.875	987.2687	1044.0571	1075.8496	1114.8819	1161.1753	1231.9172	1265.876	1347.9481	1379.52	1448.7442	1469.4973	1476.2381	1589.2927	1622.9052	1678.3215	1770.7638	3039.2379	3101.9505	3154.5881	3280.7596	3285.5586	3548.0221	3650.7613
CC(=O)C1=COC(N)=C1	CC(=O)c1coc(N)c1	
InChI=1S/C6H7NO2/c1-4(8)5-2-6(7)9-3-5/h2-3H,7H2,1H3	InChI=1S/C6H7NO2/c1-4(8)5-2-6(7)9-3-5/h2-3H,7H2,1H3
