15
gdb 27996	2.55212	1.39876	0.9064	5.3257	72.92	-0.1941	-0.0248	0.1693	1195.6746	0.113015	-453.987939	-453.979493	-453.978548	-454.020813	31.358	
N	 0.0941127538	 1.3854055312	-0.0764090373	-0.604432
C	-0.0163746984	-0.0119020622	-0.0270599408	 0.351967
C	-1.102731031	-0.8391079038	-0.0809283304	-0.38692
C	-0.606824859	-2.1921208061	-0.0686164887	 0.33568
O	-1.3509657201	-3.3279083439	-0.1035167255	-0.438702
C	 0.751921525	-2.1603877967	 0.0046612385	-0.193956
N	 1.128680744	-0.808391792	 0.0101068777	-0.085816
C	 2.4375337979	-0.3544110524	-0.0422267881	 0.166045
O	 3.4012140639	-1.0784387343	-0.0028997879	-0.305661
H	 0.4202019794	 1.7947599395	 0.79344789	 0.254963
H	-0.7931139389	 1.8082427339	-0.3170279047	 0.254549
H	-2.1376258655	-0.5292090386	-0.100976889	 0.094559
H	-2.280857116	-3.0894601928	-0.1530211696	 0.299946
H	 1.498138518	-2.9320032892	 0.0433945934	 0.150554
H	 2.4885921368	 0.7420338673	-0.1329556874	 0.107224
128.0872	195.0196	195.9702	206.9665	230.5176	244.6571	312.0259	407.2413	437.8467	575.8436	610.6083	614.3495	666.1949	693.5046	702.3583	753.3345	801.9344	897.1455	994.7615	1032.6268	1118.788	1165.7805	1186.5428	1198.1366	1278.974	1380.8865	1391.3573	1449.9921	1470.839	1591.7201	1650.3597	1688.9853	1808.8529	3017.5037	3232.5342	3313.0973	3505.5539	3609.8864	3847.0432
NC1=CC(O)=CN1C=O	Nc1cc(O)cn1C=O	
InChI=1S/C5H6N2O2/c6-5-1-4(9)2-7(5)3-8/h1-3,9H,6H2	InChI=1S/C5H6N2O2/c6-5-1-4(9)2-7(5)3-8/h1-3,9H,6H2
