20
gdb 12277	2.89109	1.48944	1.26728	1.5615	70.41	-0.2528	0.0588	0.3116	1059.5135	0.176155	-386.120588	-386.111472	-386.110528	-386.15419	33.681	
C	 0.670723454	 1.4662924125	-0.0698288991	-0.420866
C	 0.0285393161	 0.0835899441	 0.0123440743	-0.009936
C	 0.6517155426	-1.0029225063	-0.9172373259	-0.24463
C	 1.2938540272	-1.7101541601	 0.3117054785	-0.014798
C	 2.8000734853	-1.5612884828	 0.4361984558	-0.093073
O	 3.3938381044	-2.3361244422	-0.5956885139	-0.422296
C	 0.4441273234	-0.7874042747	 1.2445294098	 0.1094
O	 1.0457566551	-0.1744223162	 2.3633918293	-0.427133
H	 1.7663743742	 1.4212897129	-0.0334526175	 0.107469
H	 0.4089715912	 1.9539790449	-1.0144696315	 0.12143
H	 0.3314279864	 2.1121702188	 0.7469390736	 0.124071
H	-1.0554902224	 0.1956852028	-0.0866629734	 0.069423
H	-0.0907419808	-1.6165354953	-1.4317676883	 0.099656
H	 1.3640968251	-0.637061297	-1.6617263033	 0.103671
H	 1.0598518253	-2.77511191	 0.3999825839	 0.075795
H	 3.0979003957	-0.5024432081	 0.34324716	 0.067713
H	 3.1199770049	-1.9009842741	 1.4329997287	 0.098
H	 4.3492652296	-2.2631536134	-0.5142216954	 0.285357
H	-0.4125579152	-1.3321222599	 1.6502060169	 0.08826
H	 1.7165658179	 0.4403506742	 2.0506445377	 0.282486
71.6991	107.2053	168.2983	222.014	247.1892	261.6189	295.1613	312.1638	345.6683	414.7187	528.6998	543.3735	731.8393	790.0085	825.9596	845.2481	905.9771	938.2466	971.886	1035.4278	1069.5816	1074.3423	1091.0249	1137.2191	1164.8106	1169.9295	1203.6013	1240.077	1253.3709	1267.1243	1277.618	1292.3728	1312.3882	1353.9473	1371.6065	1405.0692	1437.0078	1459.6641	1489.8093	1497.6092	1503.6066	1522.285	2948.8115	2997.5957	3021.8816	3046.2375	3059.4179	3062.3311	3076.6897	3086.7339	3101.0846	3114.4466	3824.0865	3827.4665
CC1CC(CO)C1O	C[C@H]1C[C@@H](CO)[C@H]1O	
InChI=1S/C6H12O2/c1-4-2-5(3-7)6(4)8/h4-8H,2-3H2,1H3	InChI=1S/C6H12O2/c1-4-2-5(3-7)6(4)8/h4-8H,2-3H2,1H3/t4-,5-,6-/m0/s1
