15
gdb 54806	2.54476	1.65251	1.13445	2.5016	65.9	-0.2428	-0.0341	0.2087	1035.5184	0.112525	-453.941759	-453.933734	-453.93279	-453.97479	29.828	
N	 0.0653085619	 1.1670605659	 0.4815754602	-0.530449
C	 0.1446180274	-0.0537160398	-0.1172469104	 0.41149
O	 1.1176751142	-0.4671264428	-0.7115567361	-0.364224
C	-1.1516737508	-0.8503096751	-0.0201645659	-0.250627
C	-1.0734495676	-2.3758052573	 0.101765138	-0.042848
N	-0.4055691491	-2.6347262213	 1.3762021481	-0.315676
C	-1.8925210777	-2.3751183395	 1.3652471096	-0.186089
C	-1.967809279	-0.8664318482	 1.3063954327	 0.44468
O	-2.4910777683	-0.0014504774	 1.9486612103	-0.328496
H	 0.8989121416	 1.7311263994	 0.521249682	 0.261985
H	-0.7077777406	 1.3918692148	 1.0893613219	 0.275506
H	-1.8330089991	-0.5348162632	-0.8197524695	 0.136976
H	-1.0919637969	-3.0974029387	-0.7024952056	 0.118281
H	-0.2984226414	-3.643588161	 1.4842869754	 0.246137
H	-2.5868329748	-3.0953866357	 1.7763159893	 0.123352
67.0158	115.4409	156.377	194.7842	348.6904	371.9162	443.7888	480.3928	555.941	590.9684	641.8624	680.0825	723.3251	789.4731	826.9096	883.3541	898.0842	948.0858	992.1192	1030.8022	1054.0192	1094.7443	1100.9602	1120.1124	1159.7374	1227.2681	1287.8953	1317.3954	1353.9383	1365.0211	1627.1254	1810.4242	1884.439	3054.9725	3212.8154	3228.0976	3473.4091	3571.2423	3709.6324
NC(=O)C1C2NC2C1=O	NC(=O)[C@H]1[C@H]2N[C@H]2C1=O	
InChI=1S/C5H6N2O2/c6-5(9)1-2-3(7-2)4(1)8/h1-3,7H,(H2,6,9)	InChI=1S/C5H6N2O2/c6-5(9)1-2-3(7-2)4(1)8/h1-3,7H,(H2,6,9)/t1-,2+,3+/m0/s1
