21
gdb 94018	4.28436	0.95747	0.83128	0.8891	91.27	-0.242	0.0176	0.2596	1428.3827	0.182752	-349.944492	-349.935495	-349.934551	-349.978009	35.106	
C	-0.018728235	 1.5850981115	-0.0029119458	-0.400108
C	 0.0108651232	 0.0491319761	-0.0000908725	-0.003035
C	 0.6640992507	-0.5110843168	-1.2744651467	-0.217688
C	 0.9542978677	-2.0093243952	-1.1504984837	-0.217194
C	 1.953486816	-2.2779159687	-0.0011057892	-0.195793
C	 1.5699107004	-1.4914857866	 1.2420127002	-0.066896
C	 0.7030293353	-0.4814163555	 1.2331455177	-0.056546
C	 2.0674264501	-3.706686445	 0.2904475258	 0.304887
C	 2.1506242743	-4.881814477	 0.5303384948	-0.457988
H	 0.9970158098	 1.9957012891	-0.013109499	 0.117308
H	-0.5454943622	 1.9645843617	-0.8848168653	 0.111858
H	-0.527473526	 1.9739261962	 0.8854646576	 0.112101
H	-1.0352707048	-0.2959800958	 0.0289263315	 0.083719
H	 0.0195488685	-0.3195358604	-2.1396333409	 0.091812
H	 1.6039987402	 0.0272674955	-1.4596833201	 0.095509
H	 0.0261937417	-2.5533018409	-0.9403444546	 0.110661
H	 1.3552264177	-2.4122931161	-2.0855293309	 0.102471
H	 2.9479460851	-1.9323437209	-0.3273807456	 0.111735
H	 2.0403738821	-1.805227865	 2.1694360635	 0.097377
H	 0.4696109377	 0.0209977754	 2.1705149698	 0.08425
H	 2.2292546474	-5.9192089417	 0.7419912233	 0.191559
62.4138	133.4211	173.5982	236.1181	273.5189	295.6343	334.3232	390.7983	442.231	492.8468	542.4262	596.0031	619.1502	635.1354	679.258	742.8349	779.1066	852.0057	912.7881	946.3566	973.9891	1001.6071	1013.5117	1034.4444	1062.7687	1088.8447	1113.8846	1131.6974	1214.7064	1226.9983	1247.8614	1297.6748	1317.8857	1325.6475	1345.5858	1363.8734	1376.6219	1403.1117	1422.4157	1487.497	1492.7192	1496.8289	1501.057	1720.176	2234.6245	2967.3229	2970.2732	3013.9522	3027.6616	3040.004	3065.4424	3086.9817	3097.8882	3099.1556	3135.2346	3173.2895	3505.5085
CC1CCC(C=C1)C#C	C[C@H]1CC[C@@H](C=C1)C#C	
InChI=1S/C9H12/c1-3-9-6-4-8(2)5-7-9/h1,4,6,8-9H,5,7H2,2H3	InChI=1S/C9H12/c1-3-9-6-4-8(2)5-7-9/h1,4,6,8-9H,5,7H2,2H3/t8-,9-/m1/s1
