15
gdb 48339	2.13573	1.46027	1.0222	2.885	73.08	-0.2566	-0.0455	0.2112	1150.8482	0.108365	-420.604846	-420.595974	-420.59503	-420.639438	32.007	
O	-0.3511618381	 0.0571521417	-0.06384333	-0.243746
C	-0.0814269562	 1.1629418106	 0.3217912178	 0.109485
C	 1.234515193	 1.8755866228	 0.0115082554	 0.024632
C	 2.3220609973	 0.9564580264	-0.6436617569	-0.397027
C	 2.3319817297	 1.8858806409	-1.8581247726	 0.430321
O	 3.0305169747	 1.9873493564	-2.8209125538	-0.277909
C	 1.1345882523	 2.7045839064	-1.3439040749	-0.399038
C	 1.6675891295	 2.6610220475	 1.1496916404	 0.263146
C	 1.9985130021	 3.3021741452	 2.1115378529	-0.436733
H	-0.7959969745	 1.7681202485	 0.9178013709	 0.10443
H	 3.2652344986	 0.8476197385	-0.1063922195	 0.146676
H	 1.9078259765	-0.0306483658	-0.8741917894	 0.165897
H	 0.2147456032	 2.5162267859	-1.9062574503	 0.150182
H	 1.2932976793	 3.7806043898	-1.2552611953	 0.152347
H	 2.3037692526	 3.8692699353	 2.9563961453	 0.207338
35.2996	72.3816	154.7645	175.4937	247.7949	284.7104	413.1787	448.7847	466.8468	508.8553	548.4606	626.3398	647.613	656.169	679.872	746.2905	852.9575	887.786	910.7545	1030.2733	1050.2042	1095.0332	1124.6819	1148.1642	1208.5602	1231.1777	1262.8194	1411.4946	1417.1938	1433.3164	1827.4732	1905.5934	2234.3427	2918.8289	3062.5992	3066.2525	3136.4306	3139.0962	3498.8126
O=CC1(CC(=O)C1)C#C	O=CC1(CC(=O)C1)C#C	
InChI=1S/C7H6O2/c1-2-7(5-8)3-6(9)4-7/h1,5H,3-4H2	InChI=1S/C7H6O2/c1-2-7(5-8)3-6(9)4-7/h1,5H,3-4H2
