17
gdb 25631	3.50333	0.95489	0.75745	0.6949	88.75	-0.204	0.0053	0.2093	1488.0977	0.13479	-384.712148	-384.702812	-384.701868	-384.748691	32.536	
C	-0.0699815593	 1.4914185499	-0.0450471873	-0.50936
C	-0.0292853606	 0.037206632	-0.02956656	 0.191515
C	 0.0048817145	-1.1693418187	-0.0168812213	-0.125402
C	 0.023204843	-2.5835880805	-0.0021596412	 0.076856
C	 1.1334435089	-3.3912070264	 0.0049960103	 0.253175
C	 2.5878879056	-3.0983914779	 0.0003934353	-0.506359
O	 0.7546095434	-4.6964522905	 0.0189930407	-0.175941
C	-0.6089433417	-4.7301430149	 0.0208263587	-0.013464
C	-1.1138405028	-3.4755198157	 0.0083268835	-0.310595
H	 0.9395438681	 1.9160424281	-0.0128048538	 0.148254
H	-0.5578819484	 1.8694403233	-0.9509045539	 0.148234
H	-0.6211774821	 1.8859061619	 0.8163488015	 0.14836
H	 3.0835989737	-3.5091299781	 0.8875125944	 0.139042
H	 3.0817230153	-3.5275593256	-0.8790076157	 0.139043
H	 2.7369643465	-2.016925399	-0.0110366344	 0.147176
H	-1.0515510181	-5.7121313795	 0.0314306849	 0.134899
H	-2.1530524858	-3.1889782984	 0.0064925482	 0.114568
9.3391	85.457	104.027	119.6312	228.014	258.5099	287.2893	352.5868	469.1788	477.9138	534.9901	614.8306	690.9288	690.9606	745.2251	824.4434	908.6142	949.1589	982.6181	1050.9708	1053.2074	1062.0719	1085.6808	1136.5546	1174.0782	1253.7769	1315.028	1402.4884	1413.0944	1439.7408	1474.5588	1476.0612	1478.706	1483.1183	1555.3273	1635.1105	2357.3087	3022.6449	3029.5499	3079.2752	3079.7129	3085.7228	3136.1669	3263.1591	3289.0095
CC#CC1=C(C)OC=C1	CC#Cc1c(C)occ1	
InChI=1S/C8H8O/c1-3-4-8-5-6-9-7(8)2/h5-6H,1-2H3	InChI=1S/C8H8O/c1-3-4-8-5-6-9-7(8)2/h5-6H,1-2H3
