16
gdb 124712	5.08254	1.03727	0.86612	11.5568	80.56	-0.2019	-0.0398	0.162	1280.1724	0.125065	-430.242363	-430.234241	-430.233297	-430.275629	29.755	
C	 0.078326663	 1.4182911381	 0.1177396161	-0.497052
C	 0.0266961597	-0.0743499435	-0.0029872571	 0.43385
N	 0.0674852611	-0.8515327591	 1.0661241575	-0.499718
N	-0.0619626811	-0.6347007736	-1.2019614166	-0.382433
H	-0.0918768759	-0.022619351	-2.0021414511	 0.279215
C	-0.1184729861	-2.0181811308	-1.4518355212	 0.371479
C	-0.2105847106	-2.7163301631	-2.6440229912	-0.188263
N	-0.230336641	-4.0231883537	-2.3165686882	-0.205482
N	-0.1541227168	-4.1224868124	-0.9901257081	-0.16003
N	-0.084704611	-2.9107893312	-0.4367733041	-0.316106
H	 1.0030966366	 1.726115072	 0.6158188662	 0.169494
H	 0.0356211634	 1.9029610194	-0.8591989041	 0.149154
H	-0.7621940215	 1.778706558	 0.7191232296	 0.169547
H	 0.1346616338	-0.4409701748	 1.9818156935	 0.270616
H	 0.023958383	-1.8962619162	 0.8668087494	 0.31845
H	-0.2610926966	-2.3687721482	-3.6648889906	 0.08728
67.8265	103.7493	126.3664	208.0467	350.0449	365.3545	397.0438	449.0978	521.982	584.3684	643.977	688.4992	722.6594	792.2238	810.26	941.4001	955.2309	993.0941	1029.1555	1058.011	1077.4506	1107.3667	1125.2237	1179.3397	1213.6861	1320.7269	1338.3605	1415.2134	1445.8434	1470.4838	1473.7896	1495.8889	1542.3606	1616.9021	1713.1239	2695.0444	3047.6423	3110.1654	3141.1871	3242.3655	3641.5472	3675.2892
CC(N)=[NH+]C1=CN=N[N-]1	CC(=[NH2])Nc1cnnn1	
InChI=1S/C4H6N5/c1-3(5)7-4-2-6-9-8-4/h2H,1H3,(H2-,5,6,7,8,9)/q-1/p+1	InChI=1S/C4H8N5/c1-3(5)7-4-2-6-9-8-4/h2H,5H2,1H3,(H2,6,7,8,9)
