16
gdb 50171	3.8313	1.37939	1.29523	2.6339	71.17	-0.2381	-0.0403	0.1978	993.3604	0.123099	-437.703393	-437.69624	-437.695296	-437.735038	27.93	
O	-0.1468873373	-0.0803238921	-0.1630081666	-0.238948
C	-0.038704905	 1.0884900227	 0.0948287302	 0.155576
C	 1.2223030842	 1.9085577665	-0.0105930957	-0.051662
O	 2.4362848246	 1.177362012	-0.4044076131	-0.332787
C	 2.3501224286	 1.8919740814	-1.6624126638	 0.361877
C	 2.8659303263	 2.9013315324	-2.7435790144	-0.238825
N	 1.3038084175	 3.0388253836	-2.7659908575	-0.167108
C	 1.2873738842	 1.5083480224	-2.7074227754	-0.214042
C	 1.4655101473	 2.9707750006	-1.1764670643	-0.077319
H	-0.8990960457	 1.6964311311	 0.4603240577	 0.08446
H	 1.3720959717	 2.418683253	 0.949553045	 0.123865
H	 3.384876443	 3.7953995352	-2.3956657493	 0.124093
H	 3.253726332	 2.5299209618	-3.6953960525	 0.123757
H	 1.6243638713	 1.0358533367	-3.631528354	 0.110785
H	 0.3399786016	 1.0927772421	-2.3721071741	 0.133395
H	 1.8709765156	 3.9052526507	-0.793010832	 0.102883
104.4308	154.3402	207.1702	321.6581	368.0753	452.6182	527.3084	577.8676	664.0977	699.6276	723.8629	789.1473	812.2933	859.4552	898.943	910.3104	980.4593	993.6435	1011.9312	1029.28	1056.7163	1072.9588	1115.6391	1151.3658	1155.0024	1176.515	1196.0097	1238.4422	1286.3065	1311.8468	1366.6039	1417.991	1505.1775	1551.224	1833.9483	2863.9044	3036.0606	3067.3937	3091.2493	3122.3894	3152.6614	3178.3884
O=CC1OC23CN(C2)C13	O=C[C@H]1O[C@@]23CN(C2)[C@@H]13	
InChI=1S/C6H7NO2/c8-1-4-5-6(9-4)2-7(5)3-6/h1,4-5H,2-3H2	InChI=1S/C6H7NO2/c8-1-4-5-6(9-4)2-7(5)3-6/h1,4-5H,2-3H2/t4-,5+/m1/s1
