17
gdb 85802	2.60853	1.23321	1.17524	2.7743	78.08	-0.2287	0.0155	0.2442	1164.7856	0.133296	-417.954574	-417.944817	-417.943872	-417.989346	34.869	
C	-0.0193897034	 1.3381914229	 0.6882992615	-0.347012
N	 0.0044200421	 0.1590982885	-0.134866775	-0.070183
C	-1.0977854154	-0.7285461482	-0.5209179597	-0.212332
C	-0.0146274901	-1.7797069276	-0.9361464015	 0.140358
O	-0.113412313	-2.9590530856	-0.1685186679	-0.45001
C	 0.1029422705	-2.0377070731	-2.3655312053	 0.326208
C	 0.2053183044	-2.2581120667	-3.5423853973	-0.487383
C	 0.9990754142	-0.7694648174	-0.3524141763	 0.314123
N	 2.23731713	-0.9054467658	-0.1349999931	-0.572988
H	 0.994619323	 1.7409473761	 0.7629833885	 0.140077
H	-0.6565932075	 2.1082499193	 0.2404489718	 0.137008
H	-0.3856918039	 1.1315291864	 1.7044691517	 0.128601
H	-1.7037097422	-1.0894850714	 0.3177263534	 0.121337
H	-1.7341571769	-0.3433086737	-1.3221740758	 0.120048
H	 0.7823329143	-3.3127366587	-0.0956932133	 0.29859
H	 0.3038226893	-2.4572402546	-4.5810156546	 0.201139
H	 2.6427126047	-0.1111190804	 0.3615906028	 0.212419
74.219	96.2906	116.3851	157.1474	189.4451	193.673	260.8729	332.3701	377.9505	415.8204	488.8163	601.0547	611.8558	630.5783	668.339	703.2586	776.9304	804.5409	842.9017	937.7553	968.6599	1021.1168	1115.1966	1124.3963	1161.8666	1207.489	1235.5127	1262.4731	1295.2468	1368.2774	1411.6433	1453.7899	1479.7869	1505.6079	1521.4421	1792.4227	2235.8275	2997.7666	3036.5229	3068.4555	3099.2017	3113.2913	3468.6575	3501.3985	3783.8661
CN1CC(O)(C#C)C1=N	CN1C[C@@](O)(C#C)[C]1[NH]	
InChI=1S/C6H8N2O/c1-3-6(9)4-8(2)5(6)7/h1,7,9H,4H2,2H3	InChI=1S/C6H8N2O/c1-3-6(9)4-8(2)5(6)7/h1,7,9H,4H2,2H3/t6-/m0/s1
