17
gdb 94531	2.51421	1.29793	1.10314	1.05	69.13	-0.2538	-0.1035	0.1503	1150.078	0.133428	-458.95986	-458.950709	-458.949765	-458.995134	31.737	
C	-0.6571687239	 1.4574502559	 0.6085127764	-0.422514
C	-0.1523079513	 0.0754600215	 0.2484991855	 0.159876
O	 0.784297934	 0.0950865951	-0.8460685728	-0.282769
C	 1.7704120379	-0.6477041314	-0.100146599	-0.094675
C	 0.901300079	-0.6476205522	 1.1671830745	-0.18375
C	 1.4155528719	 0.1548247265	 2.3289658252	 0.281256
O	 2.3978056599	 0.861885886	 2.3119666298	-0.278611
C	 0.6022505192	 0.0860598414	 3.6298048852	 0.092899
O	-0.4127528163	-0.5498517299	 3.7426666485	-0.220547
H	 0.168565158	 2.1295788164	 0.8593124017	 0.135249
H	-1.1901309837	 1.88120175	-0.2480893604	 0.136129
H	-1.3530513859	 1.40713216	 1.452509507	 0.129085
H	-0.9975534542	-0.5899867993	 0.0281365501	 0.09017
H	 1.9532279515	-1.6387519584	-0.531321107	 0.10456
H	 2.7135106545	-0.1003889507	-0.0075193741	 0.12789
H	 0.548922566	-1.6155879194	 1.5252515963	 0.113029
H	 1.0442609734	 0.6905571483	 4.4493965331	 0.112722
35.2522	68.816	120.3823	139.6716	193.2476	253.513	297.1125	341.7308	439.0453	502.4145	563.5757	651.7182	734.8642	755.1854	879.8185	889.0697	960.3595	1003.2332	1025.4303	1063.4973	1101.777	1105.3494	1144.5299	1168.8463	1179.1752	1210.7069	1280.8522	1357.3712	1362.792	1368.3583	1393.0573	1410.3322	1486.7413	1498.3202	1523.4324	1794.8306	1821.425	2929.1156	3011.3316	3030.0053	3039.0558	3087.3317	3111.2391	3113.3331	3120.7807
CC1OCC1C(=O)C=O	C[C@H]1OC[C@H]1C(=O)C=O	
InChI=1S/C6H8O3/c1-4-5(3-9-4)6(8)2-7/h2,4-5H,3H2,1H3	InChI=1S/C6H8O3/c1-4-5(3-9-4)6(8)2-7/h2,4-5H,3H2,1H3/t4-,5-/m1/s1
