14
gdb 132431	3.23719	1.36683	0.96674	0.5535	67.28	-0.2442	-0.0431	0.2011	1115.9614	0.101686	-478.054472	-478.04693	-478.045986	-478.086701	27.883	
C	-0.0249134478	 1.5156351152	 0.0040687601	-0.477219
C	-0.0061749831	 0.0170456592	-0.0236368388	 0.123055
C	-0.0506826429	-0.7261324196	-1.1626403924	-0.070293
N	-0.0349939922	-2.1034267782	-1.225295204	-0.360025
C	 0.0270540971	-2.6906436617	-0.0925011379	 0.424974
F	 0.0481749182	-4.0082787846	-0.023139511	-0.052515
N	 0.0764491689	-2.0831838208	 1.1114474802	-0.418097
C	 0.0644335121	-0.6723743025	 1.2579533995	 0.382759
O	 0.1105804372	-0.1735356821	 2.3641069372	-0.36973
H	 0.8706335274	 1.9068404475	 0.4983255792	 0.145924
H	-0.0781191324	 1.9288128081	-1.0060732334	 0.122066
H	-0.8801207572	 1.8834235378	 0.5808720886	 0.145906
H	-0.1033195307	-0.2348777363	-2.1302063138	 0.123941
H	 0.1244629253	-2.6311051321	 1.9609747864	 0.279255
124.7314	141.2835	175.888	271.7566	344.0703	365.7202	434.7324	462.3627	556.8499	600.2548	671.4359	737.837	751.51	773.7559	794.6881	963.8082	992.8316	1045.5636	1071.8229	1133.193	1231.6651	1272.116	1304.9286	1396.1258	1417.0248	1469.5535	1487.3452	1511.2719	1620.5312	1690.7065	1797.4946	3038.3021	3092.9342	3124.5101	3171.3246	3595.1851
CC1=CN=C(F)NC1=O	Cc1cnc(F)[nH]c1=O	
InChI=1S/C5H5FN2O/c1-3-2-7-5(6)8-4(3)9/h2H,1H3,(H,7,8,9)	InChI=1S/C5H5FN2O/c1-3-2-7-5(6)8-4(3)9/h2H,1H3,(H,7,8,9)
