16
gdb 9192	8.01361	0.83026	0.7629	1.7493	67.69	-0.2633	0.0105	0.2738	1434.3561	0.127409	-383.743667	-383.734285	-383.733341	-383.779721	31.504	
C	-0.0641851131	 1.357281509	-0.0774810859	-0.242246
O	 0.0264129037	-0.069368253	 0.0329931292	-0.235572
C	 0.6710571004	-0.5239287884	 1.124641784	 0.45124
O	 1.1500761505	 0.1932015215	 1.9676341301	-0.354529
C	 0.7052216035	-2.0382168747	 1.1360656299	-0.321881
C	 1.4420454987	-2.5864309476	 2.3686475883	-0.352078
C	 1.4775161806	-4.0433252575	 2.3868343284	 0.282982
C	 1.4939033323	-5.2450349622	 2.3791403287	-0.42539
H	 0.9320416686	 1.8049148392	-0.1169413633	 0.141704
H	-0.6062528534	 1.5489655821	-1.0033966592	 0.134853
H	-0.6031012868	 1.776559267	 0.7758654094	 0.141643
H	-0.3240270326	-2.4104633422	 1.0985690243	 0.145596
H	 1.1791381334	-2.3837581168	 0.2112888205	 0.145507
H	 2.4607896296	-2.1836930777	 2.389916777	 0.146785
H	 0.9584637514	-2.2091858538	 3.2765342816	 0.146968
H	 1.5178009632	-6.3063413348	 2.3870430471	 0.194418
17.2099	59.0972	107.4512	114.7492	173.6059	218.2975	311.364	346.3826	396.0277	512.5341	584.8607	621.1697	645.5623	707.2219	782.9878	895.6266	970.203	1012.5187	1040.0379	1071.6517	1178.4907	1181.0644	1199.3694	1216.339	1299.6355	1309.5071	1390.1897	1457.0089	1471.7418	1474.3726	1482.0359	1497.7642	1817.2913	2241.5145	3044.3705	3052.3259	3058.9346	3071.9464	3097.9478	3127.0135	3160.047	3508.5077
COC(=O)CCC#C	COC(=O)CCC#C	
InChI=1S/C6H8O2/c1-3-4-5-6(7)8-2/h1H,4-5H2,2H3	InChI=1S/C6H8O2/c1-3-4-5-6(7)8-2/h1H,4-5H2,2H3
