19
gdb 41213	2.78179	1.8607	1.62683	0.9014	85.25	-0.186	-0.0492	0.1368	916.2013	0.16093	-385.797229	-385.790331	-385.789387	-385.827844	29.506	
C	-0.2856552128	 1.2363044866	-0.1277296655	-0.22277
C	 1.264785449	 1.231391134	 0.3548040834	-0.268885
C	 1.400700491	 0.0739941049	 1.3352102481	 0.084918
C	 1.224860573	-1.3655272987	 0.7936409322	-0.316766
C	-0.2476775622	-1.0712821103	 0.6432318212	 0.158888
C	-0.9241854842	-1.061745214	 1.9950102502	-0.12576
O	 0.002332583	-0.6687784636	 3.0613161625	-0.226291
C	 0.8503682326	 0.2647711203	 2.5562232301	 0.057155
C	-0.4875020382	-0.2360432988	-0.419112369	-0.199614
H	-0.8930661802	 1.6153586047	 0.6985166892	 0.10407
H	-0.4212123626	 1.8961596923	-0.9907216522	 0.098552
H	 1.9099496418	 1.1296717674	-0.5232116813	 0.103209
H	 1.5005096895	 2.1818717088	 0.8426273369	 0.110102
H	 1.7506403827	-1.5038284372	-0.1515403658	 0.112503
H	 1.513989571	-2.1285433742	 1.5223395447	 0.108057
H	-1.7858145965	-0.3830835714	 2.0211839247	 0.114849
H	-1.2685216854	-2.0669033014	 2.2638766116	 0.125128
H	 0.8926071577	 1.1937838325	 3.1220801242	 0.107907
H	 0.0955040807	-0.5125980218	-1.3047411954	 0.074748
208.8704	248.445	324.1573	367.141	408.3912	466.8927	505.1238	510.0217	570.7614	624.9761	708.5862	728.9819	758.6293	848.2508	853.8353	866.9719	890.0693	916.3861	960.5474	984.7033	1022.5219	1047.4744	1072.3276	1097.3053	1144.4879	1155.2131	1170.885	1193.1769	1218.7203	1235.599	1265.7233	1292.3228	1333.1188	1367.5248	1399.9641	1473.6193	1477.7822	1484.7244	1496.3695	1545.9584	1620.5191	3026.5232	3036.1855	3045.8839	3051.8892	3054.5961	3073.0005	3096.4474	3109.9738	3135.3288	3143.3427
C1CC23CC4(COC24)C13	C1C[C]2C[C](CO[CH]2)[CH]1	
InChI=1S/C8H10O/c1-2-7-3-8(5(1)7)4-9-6(7)8/h5-6H,1-4H2	InChI=1S/C8H10O/c1-2-7-4-8(3-1)6-9-5-7/h2,6H,1,3-5H2
