19
gdb 96193	2.22636	1.91035	1.22915	1.7113	70.32	-0.2407	0.0634	0.3041	1035.0807	0.161004	-460.134925	-460.126973	-460.126029	-460.167519	30.483	
O	-0.0128571318	 1.401200715	-0.0499018379	-0.432626
C	 0.0320103138	-0.0148416495	 0.057480391	 0.089868
C	 0.6749994017	-0.4892129564	 1.3675796677	-0.116928
O	 0.7736559361	-1.9005596145	 1.3560527282	-0.258709
C	-0.4705107672	-2.5886181136	 1.3528298244	-0.082456
C	-1.6579175891	-1.805428372	 0.8030773045	 0.084119
O	-2.3257034823	-1.024485753	 1.8239225876	-0.294033
C	-2.3746003292	 0.1323361963	 0.9582664211	-0.080148
C	-1.4050391069	-0.5256961265	-0.0426762333	-0.071077
H	 0.8916375581	 1.7303090081	-0.0642070638	 0.287289
H	 0.622313941	-0.4514268626	-0.762779161	 0.074047
H	 1.7020346304	-0.1146451863	 1.4442310164	 0.093378
H	 0.1091947615	-0.1205915848	 2.2352490497	 0.11339
H	-0.3120061641	-3.4955656694	 0.7585108591	 0.105833
H	-0.7396260145	-2.8964023116	 2.3755721906	 0.110651
H	-2.3665720026	-2.5039417498	 0.3365559961	 0.075261
H	-3.3837167267	 0.2983617382	 0.5603043488	 0.098678
H	-2.0250344239	 1.0414460227	 1.4543673774	 0.12239
H	-1.7407121742	-0.5535374603	-1.0801393068	 0.081074
81.7247	129.0498	247.9442	262.771	279.1786	331.2145	365.1162	422.488	494.1131	574.1381	700.972	768.4604	822.4959	886.1816	898.3909	924.6209	979.6986	999.1464	1018.7398	1046.0374	1082.6224	1102.2726	1108.2693	1148.8341	1162.4043	1178.9711	1216.6075	1255.096	1261.4624	1273.4604	1300.5593	1340.931	1349.408	1356.5884	1373.9551	1403.7526	1420.9737	1439.2866	1492.1644	1503.3352	1530.5103	2981.725	2985.9554	3000.4019	3007.9019	3021.0851	3060.5164	3067.6817	3094.1298	3101.4442	3817.5811
OC1COCC2OCC12	O[C@H]1COC[C@H]2OC[C@@H]12	
InChI=1S/C6H10O3/c7-5-2-8-3-6-4(5)1-9-6/h4-7H,1-3H2	InChI=1S/C6H10O3/c7-5-2-8-3-6-4(5)1-9-6/h4-7H,1-3H2/t4-,5-,6+/m0/s1
