23
gdb 117774	2.45736	0.97289	0.83521	1.1915	87.93	-0.262	0.0369	0.2989	1548.8339	0.20166	-388.267433	-388.255894	-388.25495	-388.303906	42.107	
C	 2.1335926164	 1.658190526	-1.2638092472	-0.380871
C	 2.1776271157	 0.127530079	-1.2541955427	-0.195456
C	 0.7916303067	-0.5015704865	-1.4222395211	-0.181445
C	 0.7749544366	-2.0505895108	-1.4159542726	 0.169333
O	 1.3168834631	-2.548396873	-0.1843821082	-0.454531
C	-0.6820443729	-2.5593004449	-1.4674256424	-0.183481
C	-0.819501936	-4.0819904162	-1.4624798921	-0.395944
C	 1.5508337908	-2.5695658829	-2.5546084671	 0.338594
C	 2.2103757669	-2.9805650031	-3.4728760642	-0.511353
H	 1.7303759342	 2.0370405145	-2.2095210715	 0.115194
H	 1.4994654814	 2.0426163807	-0.4572149651	 0.115505
H	 3.132890992	 2.0850412716	-1.1335062103	 0.111871
H	 2.8386785035	-0.2271269552	-2.0539511951	 0.107399
H	 2.6144998227	-0.2142005761	-0.3075515301	 0.0924
H	 0.1391788823	-0.1725074393	-0.6041992921	 0.099056
H	 0.3379354215	-0.1530529791	-2.3582530554	 0.09865
H	 2.2764266307	-2.5072674973	-0.2437586398	 0.286984
H	-1.1892807441	-2.1366335462	-0.5923869131	 0.104375
H	-1.1614248293	-2.1328494611	-2.355183786	 0.100995
H	-1.8747275871	-4.3708661997	-1.450012566	 0.10687
H	-0.35784708	-4.5244159677	-2.350132045	 0.12317
H	-0.3350182123	-4.507059703	-0.5804393473	 0.132978
H	 2.7859332769	-3.3520451494	-4.2848227657	 0.19971
73.8037	93.2763	105.9506	135.7098	158.1615	192.4482	228.0749	245.7215	262.7168	286.9079	321.7867	378.2388	409.2056	436.7097	570.7217	627.3267	640.641	660.9856	718.8926	752.3561	794.2905	868.376	897.0153	956.5903	974.9494	1027.8524	1048.0946	1070.6714	1097.6397	1120.5294	1165.7218	1201.1715	1269.8382	1295.238	1312.0659	1337.7457	1363.4966	1375.5494	1397.7134	1410.5876	1413.7182	1465.0373	1477.7368	1494.7813	1495.4234	1499.6188	1510.8119	1511.3124	2223.3497	3020.7972	3026.5182	3030.6156	3038.6163	3046.3573	3053.9813	3072.6586	3081.5231	3098.3422	3101.9709	3112.0218	3131.451	3498.5333	3828.4826
CCCC(O)(CC)C#C	CCC[C@@](O)(CC)C#C	
InChI=1S/C8H14O/c1-4-7-8(9,5-2)6-3/h2,9H,4,6-7H2,1,3H3	InChI=1S/C8H14O/c1-4-7-8(9,5-2)6-3/h2,9H,4,6-7H2,1,3H3/t8-/m0/s1
