14
gdb 131744	4.7589	0.93054	0.79249	2.7122	76.1	-0.2476	-0.0433	0.2043	1359.5477	0.099612	-436.639114	-436.63078	-436.629836	-436.672749	29.91	
O	 0.0929920539	 1.3336065266	 0.4222202049	-0.415708
C	 0.0148723671	 0.0080984731	-0.0771178557	-0.198712
C	-1.4051500929	-0.4482971586	 0.0576990418	 0.392273
N	-1.6799525232	-1.6951701347	 0.3640098345	-0.190076
O	-3.0595518575	-1.7959091235	 0.3692108737	-0.212629
C	-3.590395901	-0.58314301	 0.0731601088	 0.304009
C	-2.585265208	 0.3159190671	-0.1363512837	-0.417402
C	-4.9934338448	-0.4709757552	 0.0380436659	 0.244247
C	-6.1917874579	-0.3681565483	 0.0052892902	-0.384107
H	 0.9815109266	 1.6620154192	 0.2560967319	 0.295979
H	 0.3044896798	-0.0333991195	-1.1393434782	 0.112657
H	 0.6645464152	-0.6885508053	 0.4700207795	 0.123599
H	-2.6683058976	 1.3611353195	-0.3765221547	 0.140429
H	-7.2499531796	-0.2784948803	-0.0223161988	 0.205441
55.8025	112.0262	137.7303	209.4748	243.0664	307.3529	426.7627	465.4286	533.8437	560.1486	606.2383	666.6949	687.3827	709.7127	744.3977	845.8151	966.3634	1011.2946	1016.4535	1036.9123	1090.6855	1140.0656	1229.5574	1244.4604	1258.7618	1431.3243	1468.0966	1508.6349	1516.2394	1616.4229	2240.9305	2975.0473	3028.8693	3298.3601	3500.6841	3833.5629
OCC1=NOC(=C1)C#C	OCc1noc(c1)C#C	
InChI=1S/C6H5NO2/c1-2-6-3-5(4-8)7-9-6/h1,3,8H,4H2	InChI=1S/C6H5NO2/c1-2-6-3-5(4-8)7-9-6/h1,3,8H,4H2
