16
gdb 66301	2.63513	1.50291	1.19562	4.7433	66.19	-0.2434	-0.0436	0.1997	1048.1611	0.124088	-475.072583	-475.064158	-475.063214	-475.105818	30.929	
O	-0.2505570303	 1.2239047918	-0.3446598209	-0.471543
C	-0.0034480809	-0.1048632195	 0.0405312156	 0.19935
C	-1.3055590535	-0.9191808257	 0.1061355191	-0.261883
C	-1.4825374467	-1.471930833	-1.3246563218	-0.175707
N	-0.1086711467	-1.5792284577	-1.7852296649	-0.316398
C	 0.7946713631	-0.816985621	-1.1058283266	 0.383941
O	 1.9698877238	-0.6746195677	-1.3509857954	-0.374077
C	 0.8075046936	-0.134483061	 1.3186982075	 0.123109
O	 1.2273277758	 0.8771216823	 1.8213605313	-0.265593
H	 0.3446785971	 1.7652870322	 0.1991567891	 0.29932
H	-1.1911452519	-1.7535560527	 0.8063477784	 0.114956
H	-2.1394606452	-0.2963284991	 0.430811477	 0.133504
H	-1.9798573968	-2.4462625757	-1.331654244	 0.119633
H	-2.0666953135	-0.7842022045	-1.9489614331	 0.128784
H	 0.1490012683	-1.9945725826	-2.6671946353	 0.259166
H	 1.0032171438	-1.1349618062	 1.7537078141	 0.103438
81.351	100.5927	177.6607	222.7166	288.7263	300.6005	350.3149	427.1684	431.3127	523.4304	554.572	675.1272	703.7789	733.6803	815.323	845.187	926.8452	962.2435	1022.5799	1051.543	1070.7872	1113.4317	1182.5468	1225.9565	1249.7012	1272.8852	1321.898	1359.6168	1389.5737	1435.5201	1445.6483	1472.3762	1533.1057	1808.7461	1839.5261	2937.8534	3025.5168	3052.6895	3080.7669	3136.2773	3633.9751	3685.0486
OC1(CCNC1=O)C=O	O[C@]1(CCNC1=O)C=O	
InChI=1S/C5H7NO3/c7-3-5(9)1-2-6-4(5)8/h3,9H,1-2H2,(H,6,8)	InChI=1S/C5H7NO3/c7-3-5(9)1-2-6-4(5)8/h3,9H,1-2H2,(H,6,8)/t5-/m1/s1
