18
gdb 105495	2.00829	1.64239	1.16973	4.6995	67.39	-0.2549	0.0049	0.2598	1109.8855	0.147551	-476.219802	-476.210857	-476.209913	-476.254076	32.266	
C	-1.5364644109	-0.4325574849	-0.0497011845	-0.344205
N	-0.1301281472	-0.0142594568	-0.0683069024	-0.373801
H	-0.1389435687	 1.4487093884	-1.3653191236	 0.305862
H	 0.2885098383	-0.1638101867	 0.8428925633	 0.237873
C	 0.6863335756	-0.6351698616	-1.1038848851	 0.090007
C	 2.2007977501	-0.6847366583	-0.7541482415	-0.114111
O	 2.206144375	-2.1170062105	-0.7365528317	-0.26542
C	 0.8290519778	-2.1800013548	-1.1649617363	-0.108762
C	 0.4172394595	 0.0483991384	-2.4531875551	 0.409567
O	-0.0331204642	 1.306857174	-2.3292141955	-0.373648
O	 0.635882365	-0.4665952186	-3.5159165336	-0.337147
H	-2.0173310024	-0.1418264892	-0.9886727466	 0.148987
H	-1.6754183299	-1.5149493212	 0.0842996253	 0.123514
H	-2.0500372517	 0.084614579	 0.7644230761	 0.135041
H	 2.866852305	-0.2736206983	-1.5210758627	 0.128374
H	 2.4559894209	-0.2443681506	 0.2196394954	 0.102411
H	 0.2059722282	-2.7414196825	-0.4591034397	 0.099512
H	 0.7295246696	-2.5919938656	-2.1727272319	 0.135945
62.661	77.194	149.1755	207.9162	224.6215	230.5034	292.5147	375.466	428.5472	495.7192	550.6414	715.2146	743.3051	768.2106	845.2029	846.7747	897.2936	964.865	982.4016	1049.2477	1053.5455	1076.1853	1120.0756	1156.9692	1159.7596	1170.3052	1191.5887	1221.0765	1300.624	1311.3427	1373.7261	1400.505	1463.8857	1474.1994	1496.9311	1501.0352	1519.7533	1527.7735	1869.8163	3000.1168	3003.011	3032.5126	3064.1189	3083.7002	3101.2139	3123.357	3525.3307	3537.448
C[NH2+]C1(COC1)C([O-])=O	CNC1(COC1)C(=O)O	
InChI=1S/C5H9NO3/c1-6-5(4(7)8)2-9-3-5/h6H,2-3H2,1H3,(H,7,8)	InChI=1S/C5H9NO3/c1-6-5(4(7)8)2-9-3-5/h6H,2-3H2,1H3,(H,7,8)
