21
gdb 95911	2.01917	1.5256	1.23535	3.4557	82.59	-0.2383	0.0325	0.2708	1161.0858	0.183484	-383.296848	-383.287525	-383.286581	-383.331126	35.469	
C	-0.3457074143	 1.4444754826	-0.0614605522	-0.417546
C	 0.0854619399	-0.0200161823	-0.0834066549	-0.005012
C	 1.0580732874	-0.3922114745	-1.2181599827	-0.20786
C	 1.6840356959	-1.6898385558	-0.7126250402	-0.170502
N	 1.9294823789	-1.3671554534	 0.6933822802	-0.32255
C	 0.8092752512	-0.5579797413	 1.2185896708	 0.140653
C	 1.3654121113	 0.5236474023	 2.1603759034	-0.409693
C	-0.1418504119	-1.3995494702	 1.9793062989	 0.245993
N	-0.8585538793	-2.0853400877	 2.5750811616	-0.352989
H	 0.5070307085	 2.1223175046	 0.0393968032	 0.122109
H	-0.8553527994	 1.6924281038	-0.9979261918	 0.120978
H	-1.0436729643	 1.6504078529	 0.7559738296	 0.127011
H	-0.813998904	-0.6309068682	-0.2141590416	 0.101088
H	 0.5460106012	-0.5034190697	-2.1770571808	 0.104586
H	 1.8317036557	 0.3756531686	-1.3306335075	 0.107805
H	 0.9886189288	-2.533197255	-0.8609543161	 0.096037
H	 2.6263258161	-1.940266064	-1.2098067776	 0.108181
H	 2.1261684158	-2.1757401449	 1.2703319425	 0.231549
H	 2.0656518424	 1.1571315549	 1.6120392143	 0.126177
H	 0.5706519689	 1.1403274633	 2.5882604965	 0.126634
H	 1.9105279309	 0.0503309938	 2.9815036844	 0.12735
31.5967	152.1399	174.7818	242.0837	253.6827	271.6696	282.4025	336.0065	381.4497	459.6845	482.3791	558.5342	571.8812	613.9304	664.2185	765.606	859.8344	889.0816	916.9941	946.2732	969.0867	994.1726	1043.8918	1089.5744	1099.1382	1134.8076	1164.1907	1172.1152	1192.5241	1223.3444	1239.1237	1318.3979	1352.5114	1361.9737	1380.7888	1405.4509	1418.067	1447.2563	1479.964	1487.2089	1487.8668	1504.927	1505.6836	1523.2766	2335.8741	2958.9687	3037.9303	3040.4805	3049.5445	3049.8952	3073.3187	3104.035	3106.7358	3113.7139	3123.2652	3137.5141	3559.4427
CC1CCNC1(C)C#N	C[C@H]1CCN[C@]1(C)C#N	
InChI=1S/C7H12N2/c1-6-3-4-9-7(6,2)5-8/h6,9H,3-4H2,1-2H3	InChI=1S/C7H12N2/c1-6-3-4-9-7(6,2)5-8/h6,9H,3-4H2,1-2H3/t6-,7+/m0/s1
