19
gdb 34294	3.28533	1.41186	1.26457	1.2458	80.51	-0.2438	0.0478	0.2916	1054.7229	0.161089	-385.87185	-385.864281	-385.863337	-385.903552	30.85	
C	-0.0220324396	-1.1546689757	-0.0213082799	-0.349049
C	-0.0031913519	 0.0476537769	-0.0034635448	 0.077887
C	-0.0008586032	 1.4937547357	 0.0158294976	 0.193155
C	-0.6783570402	 2.1456513728	 1.2614653128	-0.256779
C	-0.1833170545	 3.6243794882	 1.1931885739	-0.224056
C	 0.708648632	 3.6049538013	-0.0622496386	 0.081893
C	 1.3704617667	 2.2248416812	 0.0062768657	-0.256333
O	-0.1426497744	 3.5013330243	-1.2142239053	-0.279729
C	-0.6338279113	 2.1539720008	-1.2369767727	-0.100839
H	-0.0332086045	-2.2162687037	-0.0357771454	 0.181557
H	-1.7660037688	 2.0520894049	 1.2138374363	 0.108901
H	-0.3429614719	 1.6440658811	 2.1724920183	 0.110144
H	-0.9977848781	 4.3412361729	 1.0697325081	 0.110697
H	 0.3846792305	 3.9051051216	 2.0854241979	 0.099401
H	 1.3564875833	 4.4715037385	-0.1970718583	 0.074907
H	 1.9485924752	 2.0499663133	 0.9165108929	 0.106424
H	 1.9761233127	 1.9926202379	-0.8721853578	 0.112267
H	-0.3164083208	 1.6557722838	-2.1610742458	 0.106009
H	-1.729358291	 2.1468784243	-1.1927445049	 0.103543
136.9707	149.2355	189.2451	344.4541	403.1968	441.753	509.0667	515.6403	527.0928	580.8816	630.3563	634.9977	777.6896	778.3599	820.5213	873.281	917.2687	925.5735	953.1874	972.9634	978.4738	1020.8263	1038.8718	1062.5149	1128.515	1157.305	1175.1648	1203.91	1231.8308	1253.6458	1261.0665	1270.778	1305.4423	1322.255	1343.1256	1386.7182	1478.1626	1487.0292	1504.3666	1532.472	2237.743	3018.3443	3054.5121	3059.6333	3066.5499	3073.5073	3101.6977	3118.691	3120.5217	3131.7622	3502.8975
C#CC12CCC(C1)OC2	C#C[C@@]12CC[C@@H](C1)OC2	
InChI=1S/C8H10O/c1-2-8-4-3-7(5-8)9-6-8/h1,7H,3-6H2	InChI=1S/C8H10O/c1-2-8-4-3-7(5-8)9-6-8/h1,7H,3-6H2/t7-,8+/m0/s1
