16
gdb 131855	5.60527	0.76688	0.69501	5.6254	68.52	-0.2165	-0.0276	0.189	1540.7364	0.124203	-471.162016	-471.153497	-471.152553	-471.196307	30.312	
O	-0.0503920214	 1.403145578	-0.2912217237	-0.41899
C	-0.0168534738	 0.0244088966	 0.0536177877	-0.09262
C	-1.4572735231	-0.4600167179	 0.0886505187	-0.133509
N	-2.0655414531	-0.2581305268	-1.2149334221	-0.39298
C	-3.3905798964	-0.5900283906	-1.3791062948	 0.333199
C	-4.2330202998	-1.4001513466	-0.6766868973	-0.063307
O	-5.4182591883	-1.4180131253	-1.3174200712	-0.160209
N	-5.2912967432	-0.5847226027	-2.4320249371	-0.002588
N	-4.1162552146	-0.1166840664	-2.4529387675	-0.206142
H	 0.8439232302	 1.6930189932	-0.4914141003	 0.29715
H	 0.544402072	-0.5577993225	-0.6910823643	 0.106738
H	 0.4452152473	-0.1350295983	 1.0388411509	 0.098878
H	-1.4665315872	-1.529021398	 0.3345048529	 0.112559
H	-2.0021184928	 0.0695945501	 0.8879964755	 0.109258
H	-1.8276205159	 0.6408891839	-1.6143092614	 0.259006
H	-4.1490583797	-1.9883446266	 0.219213604	 0.153558
59.0864	69.0989	126.1824	174.7314	259.8702	293.3618	352.0696	443.6918	488.4177	613.8072	647.1795	713.1446	748.5756	764.4087	782.665	900.5891	929.1868	997.9415	1053.0213	1092.3914	1103.1825	1120.8551	1148.7307	1210.1687	1260.6316	1284.454	1301.9493	1328.575	1393.0191	1429.7999	1459.4759	1505.6345	1510.304	1514.1655	1671.1038	2967.1541	2990.9924	3031.6806	3050.417	3306.1222	3579.7743	3841.3682
OCCNC1=CON=N1	OCCNc1conn1	
InChI=1S/C4H7N3O2/c8-2-1-5-4-3-9-7-6-4/h3,5,8H,1-2H2	InChI=1S/C4H7N3O2/c8-2-1-5-4-3-9-7-6-4/h3,5,8H,1-2H2
