18
gdb 78298	2.81527	1.38029	1.12543	1.9234	72.87	-0.203	0.0621	0.2651	1133.0156	0.144902	-438.974389	-438.965728	-438.964784	-439.006919	34.085	
C	-0.1147063646	 1.3491118189	-0.042270907	-0.32059
N	 0.0891523438	-0.0958435906	 0.0302003358	-0.099419
C	 1.506281801	-0.4970885186	-0.0968473819	-0.116321
C	 0.8472246387	-0.5205615213	 1.2278091835	-0.124869
C	 0.9527932134	-2.0811653188	 1.2754038338	 0.320013
O	 1.1781065233	-2.8010116933	 2.429263804	-0.446563
C	 0.278570467	-2.7222104393	 0.0921503718	-0.38788
C	 1.628725518	-2.0574177635	-0.0913622086	 0.270505
O	 2.76350593	-2.7099044052	-0.5288854187	-0.455701
H	 0.7148919055	 1.9394925018	 0.3827915869	 0.097691
H	-0.2393884371	 1.6396750588	-1.090129212	 0.124783
H	-1.0308973728	 1.6076102078	 0.4976685936	 0.126905
H	 2.2584566014	 0.1830670635	-0.478540864	 0.093439
H	 0.9734676179	 0.1425237002	 2.0758872277	 0.091023
H	 2.0528099325	-2.5729311596	 2.7643477679	 0.290675
H	 0.3688922499	-3.804453847	 0.1341077941	 0.11473
H	-0.6308762871	-2.3276631239	-0.3433828764	 0.132704
H	 2.6092877392	-3.0234029098	-1.4273452106	 0.288874
155.43	202.538	202.7848	238.1252	282.7503	284.9018	319.8526	384.6751	393.624	419.2775	504.8741	576.1802	607.0904	752.5214	776.1142	783.0841	835.4984	844.4883	883.0027	908.6436	977.9691	1009.4311	1076.0567	1107.3209	1122.0172	1131.0141	1135.1052	1162.3447	1218.3249	1244.8711	1278.9357	1304.7581	1332.1832	1370.2102	1404.1572	1449.8598	1491.2981	1498.7081	1506.9187	2957.77	3067.2705	3105.5449	3130.068	3177.407	3191.2125	3230.0125	3781.1911	3787.215
CN1C2C1C1(O)CC21O	CN1[C@H]2[C@@H]1[C@@]1(O)C[C@@]21O	
InChI=1S/C6H9NO2/c1-7-3-4(7)6(9)2-5(3,6)8/h3-4,8-9H,2H2,1H3	InChI=1S/C6H9NO2/c1-7-3-4(7)6(9)2-5(3,6)8/h3-4,8-9H,2H2,1H3/t3-,4+,5+,6-,7?
