15
gdb 7063	6.44641	0.92076	0.8591	4.0784	66.23	-0.2717	0.0005	0.2722	1258.141	0.118904	-358.86718	-358.858535	-358.857591	-358.900917	30.024	
N	-0.0880404622	 1.4962045343	 0.0232109915	-0.492583
C	-0.0117673562	 0.0478247459	 0.0020080145	 0.025958
C	 0.6668472887	-0.5620240895	-1.2620992535	-0.358978
C	 0.0180096186	-0.1017710953	-2.4852452362	 0.25645
N	-0.5207033626	 0.2905223094	-3.4293675472	-0.296706
C	 0.7414395747	-0.4501830745	 1.2540736021	-0.349405
C	 0.056971269	-0.1099853596	 2.4985962004	 0.28466
N	-0.4835065843	 0.1284820909	 3.4909017134	-0.297694
H	 0.8273319076	 1.9170146708	-0.1108509878	 0.232018
H	-0.6894358476	 1.8385447814	-0.719054763	 0.256413
H	-1.0376099754	-0.3329417336	 0.0445440098	 0.130119
H	 1.724219297	-0.2698771979	-1.2932250958	 0.149499
H	 0.6358365959	-1.6575697358	-1.2330610606	 0.155744
H	 0.8683878222	-1.537755657	 1.213718062	 0.15407
H	 1.7485703246	-0.0145988895	 1.2749519304	 0.150433
61.0976	93.0283	107.7696	186.2063	281.9519	303.4153	376.8542	391.6985	399.69	430.704	486.6901	621.8799	827.5973	859.8215	886.3834	914.9938	984.974	989.6616	1032.9748	1142.5709	1170.702	1209.2239	1280.6319	1324.5303	1344.1229	1372.2134	1420.8747	1457.6668	1468.6271	1665.3573	2362.2402	2370.7045	3031.4125	3034.3273	3061.5833	3075.264	3086.2338	3495.0433	3582.0731
NC(CC#N)CC#N	NC(CC#N)CC#N	
InChI=1S/C5H7N3/c6-3-1-5(8)2-4-7/h5H,1-2,8H2	InChI=1S/C5H7N3/c6-3-1-5(8)2-4-7/h5H,1-2,8H2
