19
gdb 82562	2.74034	1.74286	1.35544	0.653	75.02	-0.2467	0.0723	0.319	988.7273	0.161076	-422.953228	-422.946098	-422.945154	-422.984352	29.628	
O	-0.0382589259	 1.3992843403	 0.0759418036	-0.440855
C	-0.0219415798	-0.0130672647	 0.0261702935	 0.06722
C	-1.4628618217	-0.5762166643	-0.1440810279	-0.034793
C	-1.8185701057	-0.4791486204	-1.6901306276	-0.334976
C	-0.6130627221	-1.4479296121	-1.7712609365	 0.2814
C	 0.4820094495	-2.1924426218	-2.5539271603	-0.223805
O	 1.4704212143	-1.6444175713	-1.6159275831	-0.320022
C	 0.5324559514	-0.5666559351	-1.3200997778	 0.11432
C	-1.1087426501	-2.0537491202	-0.4330756399	-0.249333
H	 0.8682028031	 1.7096732803	 0.1694171684	 0.284554
H	 0.4521257779	-0.4426243263	 0.9189104288	 0.080889
H	-2.190547459	-0.2846078819	 0.6127595117	 0.074682
H	-2.7976167228	-0.922397065	-1.8851945973	 0.102257
H	-1.725188396	 0.4892164523	-2.1861109708	 0.110823
H	 0.4673619778	-3.2860742872	-2.5401449521	 0.110316
H	 0.6670538574	-1.8269639249	-3.5723873692	 0.104013
H	 0.7423370729	 0.2845746922	-1.9845568908	 0.072288
H	-0.3771336569	-2.5490725311	 0.2104005371	 0.103921
H	-1.9889281843	-2.6862450186	-0.5720144497	 0.097101
162.5127	264.1747	279.7538	292.0875	338.1705	401.008	497.0011	516.5933	570.7352	627.1066	761.5495	807.7937	839.8174	880.1488	892.5827	919.3004	953.4364	972.7492	992.7185	993.8913	1043.0204	1057.0007	1065.5438	1086.5349	1124.5983	1139.9478	1157.4225	1191.4419	1202.728	1228.6653	1233.6643	1262.8404	1281.7659	1300.9443	1304.2028	1330.3895	1362.7838	1423.0987	1486.667	1508.5302	1520.5178	2992.6	3012.3131	3018.3354	3058.4762	3067.5337	3090.5271	3118.1788	3124.274	3131.1015	3815.4294
OC1C2CC3(COC13)C2	O[C@H]1[C@H]2C[C@]3(CO[C@H]13)C2	
InChI=1S/C7H10O2/c8-5-4-1-7(2-4)3-9-6(5)7/h4-6,8H,1-3H2	InChI=1S/C7H10O2/c8-5-4-1-7(2-4)3-9-6(5)7/h4-6,8H,1-3H2/t4-,5-,6+,7+/m0/s1
