21
gdb 83111	2.6825	1.48822	1.19334	0.4209	90.55	-0.2104	-0.0177	0.1928	1134.5108	0.184744	-349.955637	-349.947449	-349.946505	-349.988142	32.615	
C	-0.3256899193	 1.2777441785	 0.5019909763	-0.410234
C	-0.0757773975	-0.1349118044	 0.0195739009	-0.03296
C	 0.6091519987	-0.4608593118	-1.2944774015	-0.037885
C	 1.1194626722	 0.626964325	-2.2303805044	-0.292346
C	 2.5625311776	 0.4783247917	-2.6490595416	-0.072984
C	 3.5942940748	 0.4167824295	-1.796535176	-0.065946
C	 3.5242964278	 0.4310015291	-0.3358461347	-0.081184
C	 2.5360150892	-0.0338753579	 0.4455450312	-0.089754
C	 1.3152452284	-0.7554387967	 0.0073536061	-0.08182
H	 0.5480581286	 1.9206909213	 0.3716882279	 0.126089
H	-1.16767995	 1.7394979474	-0.0263179461	 0.114118
H	-0.5679858134	 1.2770116078	 1.5706195048	 0.113647
H	-0.8655165723	-0.8280824529	 0.2979220631	 0.081042
H	 0.2276180328	-1.3342228978	-1.8161114012	 0.079876
H	 0.4771039447	 0.6621686306	-3.1163467342	 0.099571
H	 1.0104208761	 1.6063248727	-1.7479503775	 0.120335
H	 2.7733214253	 0.4775098785	-3.7156294485	 0.086946
H	 4.6002243485	 0.3921462511	-2.211813805	 0.083296
H	 4.4009008795	 0.8421122742	 0.1630060458	 0.083888
H	 2.6738023396	 0.0347660176	 1.5243365987	 0.085703
H	 1.3294633689	-1.8033557836	 0.307242626	 0.090605
87.9115	155.4078	179.3564	268.1056	309.2705	343.3803	381.1046	441.886	511.1446	569.9128	674.9535	694.9674	752.063	777.6641	810.8795	855.5476	883.8763	921.5907	926.6871	957.9511	982.0044	996.4548	1010.468	1046.6075	1090.8908	1104.1446	1108.9727	1148.0507	1157.3296	1235.8099	1242.3368	1256.8017	1270.9272	1339.8579	1372.7379	1379.8544	1415.463	1417.8418	1442.8085	1457.9249	1477.3848	1498.4411	1504.9425	1676.1525	1704.7672	3027.93	3032.4612	3068.485	3083.9556	3094.2071	3111.693	3116.5214	3131.1179	3132.0089	3144.1382	3144.839	3163.1085
CC1C2CC=CC=CC12	C[C@H]1[C@H]2CC=CC=C[C@@H]12	
InChI=1S/C9H12/c1-7-8-5-3-2-4-6-9(7)8/h2-5,7-9H,6H2,1H3	InChI=1S/C9H12/c1-7-8-5-3-2-4-6-9(7)8/h2-5,7-9H,6H2,1H3/t7-,8+,9-/m1/s1
