23
gdb 86616	2.98649	1.11208	1.00091	1.6566	85.3	-0.2621	0.0782	0.3403	1325.1774	0.205194	-388.264042	-388.254543	-388.253599	-388.298302	36.147	
C	 0.0695998929	 1.5526160051	-0.2148910296	-0.41301
C	 0.0925570251	 0.0474045327	 0.0061561419	 0.04304
C	 1.0135377965	-0.8299160711	-0.8834051528	-0.262625
C	 1.2971246118	-1.7253422903	 0.3498730711	-0.002983
C	 2.6808908398	-2.2823665175	 0.5508567968	 0.059912
C	 3.5336507406	-2.6998334073	-0.5705721301	-0.183825
O	 3.7937401327	-1.482766811	 0.1315147183	-0.231031
C	 0.7805314175	-0.565870965	 1.2746554149	-0.026096
C	 1.868717301	 0.2885916319	 1.9224058884	-0.398205
H	 1.0746770523	 1.9842203317	-0.1773014059	 0.117609
H	-0.354214765	 1.7909945482	-1.1970893091	 0.111452
H	-0.5418635791	 2.0613708456	 0.539123336	 0.111265
H	-0.932442882	-0.3374646052	-0.0504735498	 0.066721
H	 0.5718327643	-1.2997138413	-1.766029118	 0.089011
H	 1.9172006163	-0.2899416643	-1.1819199691	 0.115245
H	 0.5918726406	-2.5642672656	 0.3899659289	 0.072812
H	 2.84614718	-2.7798991573	 1.5090946461	 0.088182
H	 4.272321291	-3.4876297639	-0.4293048154	 0.112397
H	 3.1729457143	-2.5793149807	-1.5910558079	 0.114506
H	 0.0765849027	-0.8903486956	 2.0480820519	 0.058965
H	 2.6325293056	 0.6000559632	 1.2052826702	 0.137723
H	 1.4376850269	 1.1870089302	 2.3767531131	 0.108334
H	 2.3787252844	-0.2682436326	 2.7156028701	 0.110602
71.7111	95.6047	159.6854	207.1022	238.9019	248.117	261.4025	319.459	339.0481	430.6762	497.1424	592.9205	640.052	735.2084	778.9936	829.5479	885.5186	896.3019	912.3755	940.4876	971.7159	996.1935	1015.9388	1041.1332	1083.8157	1103.5505	1126.7121	1149.9674	1164.1604	1167.2563	1176.5548	1181.2745	1244.5867	1254.0535	1280.049	1289.3593	1297.9961	1357.5145	1369.0799	1386.8422	1411.5627	1416.0523	1427.9719	1490.932	1491.5741	1491.7774	1503.8304	1506.3162	1526.6238	3024.2242	3026.5745	3030.3849	3035.1541	3047.8001	3052.8378	3081.3556	3086.4014	3086.7517	3094.4059	3101.1793	3107.82	3120.5383	3169.6655
CC1CC(C2CO2)C1C	C[C@H]1C[C@@H]([C@H]2CO2)[C@H]1C	
InChI=1S/C8H14O/c1-5-3-7(6(5)2)8-4-9-8/h5-8H,3-4H2,1-2H3	InChI=1S/C8H14O/c1-5-3-7(6(5)2)8-4-9-8/h5-8H,3-4H2,1-2H3/t5-,6-,7+,8+/m0/s1
