18
gdb 18880	3.2997	2.69483	2.42661	1.312	68.88	-0.2477	0.0856	0.3332	699.7888	0.158763	-347.814386	-347.809023	-347.808079	-347.843433	23.603	
C	-0.0303013333	 1.5659892128	 0.0603671454	-0.236666
C	 1.5150969378	 1.5184190087	-0.0228816973	-0.057136
C	 2.1499403935	 1.1544480478	 1.3408225139	-0.216586
C	 1.8697681314	-0.3648030274	 1.3899652666	 0.065029
C	 0.3422910206	-0.6006798152	 1.3753149947	-0.216586
C	-0.0296450497	 0.0185536025	 0.0065930621	-0.057136
C	 1.3992996486	 0.0796419799	-0.6506978902	 0.115531
O	 2.2516335699	-0.7840154888	 0.070944609	-0.255275
H	-0.4747242414	 2.0410109539	 0.9408539528	 0.089598
H	-0.4735362896	 2.0048215034	-0.8384526694	 0.096226
H	 2.037909801	 2.3103764949	-0.559722571	 0.064127
H	 3.2295763898	 1.3276087231	 1.3319956595	 0.10353
H	 1.7144698864	 1.7071418214	 2.1784092215	 0.094544
H	 2.4331639318	-0.9304713653	 2.1323305082	 0.072651
H	 0.1374469403	-1.6746764982	 1.3910059386	 0.10353
H	-0.1808543492	-0.1331094008	 2.2145729047	 0.094544
H	-0.846958231	-0.4906866577	-0.5046811251	 0.064127
H	 1.5106559732	-0.056142315	-1.724229684	 0.07595
312.2722	346.0199	442.3364	546.6518	603.6499	616.2061	762.0271	795.8789	822.7252	862.7794	867.4492	889.9386	913.9731	919.9322	941.7942	969.6432	994.42	997.8238	1047.8501	1074.2113	1077.0134	1095.8343	1116.9382	1179.7542	1183.9426	1218.0024	1230.188	1258.3657	1270.2448	1282.8818	1294.0781	1308.26	1344.3919	1349.2506	1366.293	1478.8889	1482.9452	1500.2978	3041.9301	3054.1292	3056.7037	3091.4628	3098.3521	3100.7661	3105.3335	3108.5986	3119.5698	3146.7381
C1C2CC3CC1C2O3	C1[C@H]2C[C@H]3C[C@@H]1[C@@H]2O3	
InChI=1S/C7H10O/c1-4-2-6-3-5(1)7(4)8-6/h4-7H,1-3H2	InChI=1S/C7H10O/c1-4-2-6-3-5(1)7(4)8-6/h4-7H,1-3H2/t4-,5+,6-,7+
