17
gdb 11724	4.88476	1.44757	1.25384	3.3943	71.32	-0.2222	-0.0215	0.2007	984.6133	0.141321	-363.825038	-363.817335	-363.816391	-363.856959	28.594	
C	-0.2076820385	 1.4829368289	 0.0480780928	-0.32622
N	 0.129237046	 0.0713338273	 0.026484544	-0.068368
C	 1.190774126	-0.409634869	-0.9043077177	-0.24678
C	 1.8969207893	-1.1107444898	 0.2546427642	 0.241863
C	 2.2360208017	-0.0962947135	 1.335181327	-0.34837
C	 0.8102263709	-0.5014319481	 1.1785822718	-0.04401
C	 2.3857920167	-2.4907897273	 0.2586071051	 0.056536
O	 2.4306325698	-3.2036426723	-0.7168405598	-0.268931
H	 0.6530294551	 2.152410385	 0.2236032256	 0.094981
H	-0.6620600035	 1.759530658	-0.9085287021	 0.127613
H	-0.9459014045	 1.666467057	 0.8356205881	 0.125292
H	 0.801122889	-1.0949994731	-1.6610144995	 0.133589
H	 1.7747436121	 0.3816277923	-1.3924352023	 0.09949
H	 2.7423672433	-0.506149306	 2.2045956364	 0.126719
H	 2.5847143069	 0.8863449468	 1.0299841532	 0.122996
H	 0.2490940067	-0.9868397154	 1.9710132694	 0.10988
H	 2.719968643	-2.8560889307	 1.2578813337	 0.063719
99.9562	169.6875	184.5504	211.2174	283.1154	344.3915	387.9772	477.2865	522.7614	643.947	751.7846	775.0821	858.26	904.0578	964.5297	976.0191	987.6317	1042.7384	1058.0549	1074.7564	1085.4847	1129.9311	1168.0728	1213.8501	1232.7962	1238.3352	1291.2599	1336.714	1387.4992	1437.3348	1451.2362	1475.2768	1487.1749	1502.0325	1511.0464	1801.2611	2855.7404	2949.8425	3016.8151	3062.6681	3096.8081	3105.0251	3115.0404	3160.5437	3202.9533
CN1CC2(CC12)C=O	CN1C[C@]2(C[C@@H]12)C=O	
InChI=1S/C6H9NO/c1-7-3-6(4-8)2-5(6)7/h4-5H,2-3H2,1H3	InChI=1S/C6H9NO/c1-7-3-6(4-8)2-5(6)7/h4-5H,2-3H2,1H3/t5-,6-/m1/s1
