18
gdb 68331	3.20791	1.2202	1.09281	3.6614	75.1	-0.2441	0.0321	0.2763	1170.589	0.146113	-439.013313	-439.004766	-439.003822	-439.046948	31.838	
C	-0.0387313781	 1.4013744905	 0.4726712563	-0.518601
C	-0.1472237622	-0.0303906237	 0.0631050193	 0.37611
C	 0.7088550856	-0.891861858	-0.9000891673	-0.267549
C	-0.2529579758	-1.8285952856	-0.1379802252	-0.020237
O	 0.0565120063	-1.0844335324	 1.10487525	-0.351639
C	-1.3970639368	-0.8255270272	-0.4294912418	 0.136813
O	-2.5705472123	-0.7536193468	 0.3309785899	-0.218248
C	-2.7459882323	-1.5310450124	 1.4260836143	 0.12617
N	-3.6920887101	-1.2644096452	 2.2167674327	-0.441477
H	 0.9379009647	 1.6001498816	 0.9233538921	 0.137587
H	-0.1601166261	 2.0525459399	-0.3985167605	 0.131604
H	-0.8191132468	 1.6449007178	 1.1991904874	 0.154597
H	 0.5797090836	-0.7632266863	-1.9777301796	 0.102426
H	 1.7509438524	-0.9955575636	-0.6001775411	 0.120082
H	-0.2559166331	-2.9169746264	-0.0911304449	 0.104167
H	-1.6836345554	-0.6885914292	-1.4749446333	 0.095815
H	-2.0454000041	-2.364760406	 1.5010412499	 0.105144
H	-3.7239512594	-1.9613312368	 2.9582176418	 0.227235
57.9213	102.4199	181.604	186.5446	235.194	306.5784	344.8583	435.7229	452.9675	599.1718	644.3832	744.8477	754.9518	772.1694	818.5237	876.377	911.4699	913.8293	959.1535	1015.7293	1020.4318	1025.5686	1043.4261	1110.5172	1140.6917	1170.0271	1182.8911	1206.4632	1229.9689	1252.3072	1290.8631	1349.2607	1406.6461	1415.3968	1433.1962	1476.3958	1487.3023	1495.0337	1734.598	3043.5451	3067.3234	3089.4614	3105.3044	3117.9731	3123.5938	3128.3596	3160.1556	3515.0732
CC12CC(O1)C2OC=N	C[C@@]12C[C@@H](O1)[C@H]2O[CH][NH]	
InChI=1S/C6H9NO2/c1-6-2-4(9-6)5(6)8-3-7/h3-5,7H,2H2,1H3	InChI=1S/C6H9NO2/c1-6-2-4(9-6)5(6)8-3-7/h3-5,7H,2H2,1H3/t4-,5-,6+/m1/s1
