15
gdb 56625	2.08228	1.28421	0.96425	3.2945	68.44	-0.2549	-0.0423	0.2126	1224.6004	0.107183	-457.72982	-457.719895	-457.718951	-457.765478	33.926	
O	 0.124563137	 1.4545601084	 0.1024399826	-0.419823
C	 0.1027780362	 0.0314826527	 0.0152938148	-0.104997
C	 0.6953930028	-0.450708611	-1.2350665524	 0.301331
C	 1.1718456265	-0.8276937338	-2.272474818	-0.429671
C	 0.8691612663	-0.458352753	 1.2503641148	-0.191522
C	 2.2490768718	 0.1785236486	 1.3923854333	 0.159174
O	 2.8997196241	 0.0891068363	 2.40183828	-0.255483
C	 0.0479822748	-0.283761499	 2.5328016127	 0.150966
O	-1.1517802473	-0.2205618974	 2.5444154685	-0.242423
H	-0.3169619636	 1.8124102843	-0.6746436452	 0.297905
H	-0.9274269967	-0.3417413333	 0.1002630403	 0.130076
H	 1.5895980163	-1.1646403521	-3.1894969099	 0.208093
H	 1.0457944833	-1.5408425348	 1.164351541	 0.153507
H	 2.6158936933	 0.7242694368	 0.5020474386	 0.116798
H	 0.6578698151	-0.2436645227	 3.455882439	 0.12607
53.9519	85.9125	108.5739	134.8503	177.5463	195.2712	258.0348	269.2816	284.6533	417.8612	516.9258	585.7635	618.9002	635.5735	682.2112	687.2595	802.6904	872.1458	950.8241	994.8957	1065.5412	1089.9932	1114.5755	1198.461	1230.6564	1298.6687	1350.2674	1393.2443	1403.6848	1422.2033	1813.0857	1836.7855	2231.9857	2952.5817	2956.4658	3012.1653	3020.1405	3499.5647	3824.602
OC(C#C)C(C=O)C=O	O[C@@H](C#C)C(C=O)C=O	
InChI=1S/C6H6O3/c1-2-6(9)5(3-7)4-8/h1,3-6,9H	InChI=1S/C6H6O3/c1-2-6(9)5(3-7)4-8/h1,3-6,9H/t6-/m0/s1
