20
gdb 9662	3.26222	1.31184	1.09471	2.7866	76.97	-0.2465	-0.0194	0.2272	1170.6268	0.17467	-349.016733	-349.007282	-349.006338	-349.050967	33.831	
C	 0.2773144705	 1.5395016383	-0.0430089426	-0.372037
C	-0.1550921507	 0.0770097602	-0.2118538644	-0.211813
C	 0.6507595126	-0.6287143019	-1.2822547751	 0.006095
C	 1.9443926741	-1.30957693	-0.9876646522	-0.31228
C	 0.7350063578	-2.1589041317	-1.3791271179	 0.206963
C	 0.0707492029	-3.0681430539	-0.3642575614	-0.487728
C	 0.7626585575	-2.6781758073	-2.7744140753	 0.099523
O	 1.2782670447	-2.1166116062	-3.7130641588	-0.275242
H	 1.3315682261	 1.6070644463	 0.2442847451	 0.120864
H	 0.1522142651	 2.0980655478	-0.9766918	 0.12034
H	-0.3170821472	 2.0391586148	 0.7280150491	 0.112584
H	-0.0515540983	-0.4427159857	 0.7470239711	 0.096224
H	-1.2214164906	 0.0398065782	-0.4692805853	 0.102255
H	 0.6067221457	-0.1587495954	-2.2622007657	 0.107167
H	 2.7420249255	-1.2417729872	-1.7189539347	 0.133352
H	 2.26231909	-1.3836019727	 0.0479720136	 0.111811
H	 0.1487115758	-2.6711771202	 0.6496654836	 0.125447
H	-0.9938291181	-3.2083359219	-0.5840128582	 0.124027
H	 0.542031105	-4.0575632291	-0.3622279528	 0.123892
H	 0.2543448115	-3.6604200123	-2.912032978	 0.068555
80.2437	100.071	121.3482	166.7329	178.8636	250.4008	258.5021	303.6507	345.1806	429.475	463.2559	617.007	730.1488	766.3788	798.6041	868.1359	920.0633	945.0254	959.7202	1004.0728	1030.6733	1070.0844	1076.505	1116.1499	1130.5515	1140.6921	1202.7408	1265.0629	1297.1055	1306.9917	1350.265	1407.831	1419.1567	1423.5656	1434.9777	1472.7566	1486.6682	1494.6262	1498.1141	1500.3291	1508.9284	1804.3109	2864.1164	3023.6169	3031.3011	3034.6986	3061.6446	3085.6736	3104.4617	3108.021	3124.4064	3127.6181	3139.4046	3221.4062
CCC1CC1(C)C=O	CC[C@H]1C[C@]1(C)C=O	
InChI=1S/C7H12O/c1-3-6-4-7(6,2)5-8/h5-6H,3-4H2,1-2H3	InChI=1S/C7H12O/c1-3-6-4-7(6,2)5-8/h5-6H,3-4H2,1-2H3/t6-,7+/m0/s1
