21
gdb 118041	2.04709	1.15019	0.84377	3.1078	76.54	-0.2574	-0.0289	0.2285	1450.5492	0.178308	-461.367935	-461.357018	-461.356074	-461.404855	38.219	
C	 0.1401065501	 1.4892732709	 0.0938323862	-0.383191
C	-0.1423324666	 0.0082828178	-0.0976524671	-0.038649
O	 0.7301723316	-0.4810193422	-1.1001487225	-0.263419
C	 0.7186395603	-1.8874544327	-1.2957971371	 0.11882
C	-0.5429656065	-2.3865117465	-1.9984039349	-0.408418
C	 1.9865055932	-2.203774944	-2.1130749246	 0.041494
O	 1.8909284718	-1.7877845182	-3.4450736248	-0.433577
C	 3.1836309088	-1.5533238285	-1.4420380905	 0.152518
O	 3.9280127111	-0.8193637984	-2.0426257756	-0.264101
H	 1.1778080966	 1.6466538622	 0.4009132226	 0.12767
H	-0.0259086238	 2.033001065	-0.8402735153	 0.131994
H	-0.5191015702	 1.9063751021	 0.8609499134	 0.115257
H	 0.0198875204	-0.5430940124	 0.8441304145	 0.083974
H	-1.1935745013	-0.1431252601	-0.3846214808	 0.095323
H	 0.8213439193	-2.3921168343	-0.3177056313	 0.060529
H	-0.4971540288	-3.4713177815	-2.1378258801	 0.116729
H	-1.4381168155	-2.1641030883	-1.4120624207	 0.116284
H	-0.6270511728	-1.9128965726	-2.9785014426	 0.14981
H	 2.1417692817	-3.2971190052	-2.0673711034	 0.091578
H	 2.5859945031	-1.1205584415	-3.558563426	 0.296898
H	 3.3398803975	-1.8004237116	-0.3721364497	 0.092477
48.599	67.7629	82.676	111.6799	179.6316	215.6221	236.7926	256.8922	295.3194	309.8583	336.5199	409.3667	434.9736	489.4844	669.1115	728.239	820.2742	829.3705	850.1121	927.9435	951.8938	995.3581	1026.1895	1081.6614	1124.4226	1149.6726	1151.8958	1188.2363	1197.6527	1261.7526	1296.8527	1338.1814	1349.3114	1367.6085	1399.9435	1403.3081	1408.1199	1433.8342	1442.0257	1483.1446	1491.547	1495.8083	1500.4723	1529.8179	1822.2246	2925.2422	2936.0206	2955.1586	2961.6297	3004.8607	3046.003	3049.6015	3115.2087	3120.7448	3124.0933	3143.5319	3695.1202
CCOC(C)C(O)C=O	CCO[C@@H](C)[C@@H](O)C=O	
InChI=1S/C6H12O3/c1-3-9-5(2)6(8)4-7/h4-6,8H,3H2,1-2H3	InChI=1S/C6H12O3/c1-3-9-5(2)6(8)4-7/h4-6,8H,3H2,1-2H3/t5-,6-/m0/s1
