18
gdb 16892	3.79686	1.82175	1.38991	1.8059	73.43	-0.2332	0.0299	0.2631	930.7568	0.154812	-347.811619	-347.80437	-347.803426	-347.842915	28.133	
C	 0.4015800777	 1.4518201691	 0.0765278971	-0.474328
C	-0.0482406464	 0.0185915973	-0.0096902762	 0.328864
C	 0.0081351725	-0.6769828022	-1.1465313594	-0.145758
C	-0.4250618012	-2.107036564	-1.317263328	-0.2892
C	-0.7261550667	-2.8134336553	-0.0167626854	 0.052752
O	 0.3398926289	-2.8702751441	 0.9373716115	-0.260339
C	-0.8021024313	-2.0639133704	 1.2439862657	 0.05552
C	-0.5789786821	-0.5706282201	 1.2766492536	-0.328476
H	 1.2220060233	 1.5645468784	 0.7973147165	 0.124336
H	 0.7447913867	 1.8265026979	-0.8912598182	 0.119943
H	-0.4093578501	 2.1043136539	 0.4263238644	 0.119001
H	 0.3921741895	-0.1901886321	-2.0406338142	 0.076816
H	-1.322016309	-2.1550124916	-1.9532879737	 0.109813
H	 0.3459331098	-2.6710761725	-1.8611858539	 0.117541
H	-1.2891436172	-3.7434492335	-0.1052229682	 0.08498
H	-1.4191071057	-2.4613900877	 2.0510649085	 0.084667
H	 0.1045513893	-0.3301933098	 2.1042214428	 0.114376
H	-1.530111558	-0.0820769234	 1.5380173768	 0.109493
100.2797	182.0723	254.7501	322.853	338.8692	352.	448.0025	489.8628	586.0579	719.3037	777.8668	805.3338	825.516	906.1292	927.3012	938.7313	962.8015	1026.0902	1033.4721	1068.2026	1085.5023	1097.2315	1151.2454	1172.5871	1235.9958	1249.5625	1295.9082	1327.0013	1371.9908	1384.4541	1405.705	1415.1357	1463.2469	1466.6053	1478.9922	1488.0726	1492.991	1751.4403	2994.1558	2996.529	3013.0952	3018.1872	3022.1266	3057.5026	3092.3384	3105.5942	3111.6638	3144.3625
CC1=CCC2OC2C1	CC1=CC[C@H]2O[C@H]2C1	
InChI=1S/C7H10O/c1-5-2-3-6-7(4-5)8-6/h2,6-7H,3-4H2,1H3	InChI=1S/C7H10O/c1-5-2-3-6-7(4-5)8-6/h2,6-7H,3-4H2,1H3/t6-,7+/m1/s1
