18
gdb 23469	3.08845	1.31754	1.00832	0.5305	76.29	-0.2295	0.0072	0.2368	1165.4664	0.148473	-439.033551	-439.025634	-439.02469	-439.066082	30.982	
O	-0.047095921	 1.3467527508	-0.057058835	-0.397707
N	 0.0364732038	-0.057386112	-0.0656162475	-0.218909
C	-1.1159486353	-0.611172013	-0.0099076046	 0.379215
C	-2.435972339	 0.1073039784	 0.132253896	-0.311454
C	-3.368386464	-0.7140009691	 1.0300741804	-0.083603
O	-3.597433359	-2.0048000189	 0.4842545512	-0.257196
C	-2.4440353934	-2.7834954223	 0.3418035739	 0.090978
C	-1.889039938	-2.9047793152	-1.0431608747	-0.312548
C	-1.137010884	-2.0938813044	 0.0112728786	-0.114267
H	 0.881834337	 1.5993713211	-0.0607754062	 0.306026
H	-2.2667243553	 1.1041004603	 0.5446191875	 0.135675
H	-2.9101150893	 0.2354075688	-0.8491452817	 0.124662
H	-2.947127454	-0.7886512579	 2.0443497195	 0.098161
H	-4.3519375382	-0.24273247	 1.1044116046	 0.112696
H	-2.4186447119	-3.6443697628	 1.0067415239	 0.096571
H	-1.4383704463	-3.8389097986	-1.3585809188	 0.118838
H	-2.4219011176	-2.3637398886	-1.8164441171	 0.126317
H	-0.2232457046	-2.5433207866	 0.3825717999	 0.106544
71.0315	165.1985	239.4732	271.1204	332.3986	378.207	405.8795	453.3	473.3233	552.0863	598.081	720.7641	748.6434	784.88	826.7527	873.5985	933.0359	953.8219	997.1269	1016.7002	1044.1001	1051.8077	1073.4747	1091.9411	1121.6567	1176.0706	1217.107	1232.2369	1275.7865	1282.3437	1339.8372	1353.753	1371.1567	1413.257	1432.3033	1465.994	1474.7902	1505.1358	1718.6696	2990.2178	3035.6272	3095.147	3116.5882	3122.4691	3140.1798	3177.7056	3233.5481	3823.7509
ON=C1CCOC2CC12	ON=C1CCO[C@H]2C[C@@H]12	
InChI=1S/C6H9NO2/c8-7-5-1-2-9-6-3-4(5)6/h4,6,8H,1-3H2	InChI=1S/C6H9NO2/c8-7-5-1-2-9-6-3-4(5)6/h4,6,8H,1-3H2/t4-,6-/m0/s1
