17
gdb 17102	4.92917	1.57974	1.47671	4.4032	70.08	-0.2318	0.0392	0.271	889.3775	0.144852	-363.870442	-363.863822	-363.862878	-363.9028	25.415	
O	-0.003959863	 0.0096575729	 0.0999609163	-0.347621
C	 0.0417541842	 1.2247131409	 0.0803455968	 0.128474
N	 1.178514181	 1.9507792746	 0.0881015366	-0.01292
C	 2.5478881217	 1.4112629391	 0.0502202714	-0.169625
C	 3.2888034738	 2.7600368541	-0.072058468	-0.052575
C	 2.5293723304	 3.6319027054	 0.9799379613	-0.221079
C	 1.3585076734	 3.4017989217	-0.0169611666	-0.005743
C	 2.4250521846	 3.4979015183	-1.1458244879	-0.222208
H	-0.8616487964	 1.8682937722	 0.062133972	 0.063488
H	 2.789633847	 0.8587162193	 0.9634487606	 0.123367
H	 2.6929703434	 0.7475428914	-0.8076162737	 0.125264
H	 4.37539299	 2.7197474649	-0.1228585497	 0.079343
H	 2.4101773221	 3.2411540712	 1.993271161	 0.105548
H	 2.8764237643	 4.6661311422	 0.9973689044	 0.107867
H	 0.424227442	 3.9606503476	-0.0056358854	 0.084947
H	 2.7631029621	 4.5193749545	-1.3273244667	 0.107905
H	 2.2101503494	 2.9836295097	-2.0856737526	 0.105569
13.3925	212.5844	290.1543	387.0923	448.7503	478.6034	548.5503	688.1585	819.9993	836.3619	847.1201	851.6758	887.6594	939.5128	944.3997	1028.1875	1029.773	1032.2786	1055.0247	1073.6384	1111.1424	1120.8883	1184.5162	1187.4001	1218.295	1242.838	1261.3127	1271.2667	1302.7784	1340.8039	1416.9065	1464.9364	1478.1773	1507.3094	1526.5528	1786.0749	2920.5654	3050.3336	3066.1704	3071.3622	3092.2365	3133.9423	3134.8318	3137.7599	3141.3312
O=CN1CC2CC1C2	O=CN1C[C@@H]2C[C@H]1C2	
InChI=1S/C6H9NO/c8-4-7-3-5-1-6(7)2-5/h4-6H,1-3H2	InChI=1S/C6H9NO/c8-4-7-3-5-1-6(7)2-5/h4-6H,1-3H2/t5-,6+
