17
gdb 33319	4.44445	0.82518	0.77976	1.5786	96.22	-0.2292	-0.0115	0.2177	1482.4099	0.135381	-347.472077	-347.463771	-347.462827	-347.505318	31.78	
C	 0.0238706544	-3.7789217744	-0.0382910523	-0.570071
C	 0.0358602976	-2.5710049418	-0.0127669509	 0.298614
C	 0.0483886079	-1.2116715172	 0.0152233411	-0.25455
C	 0.0586546694	 0.0005677333	 0.0396041288	 0.429765
C	 0.0640512141	 1.4301841722	 0.0638261943	-0.257192
C	 0.4876583651	 2.249884958	 1.2741454432	-0.057839
C	 1.6110636769	 1.5448347963	 2.0425569059	-0.234222
C	 2.4818283179	 1.5636052657	 0.740822967	-0.234222
C	 1.33337624	 2.2681129198	 0.0098512848	-0.057838
H	 0.0125795979	-4.8400499373	-0.0613316851	 0.187933
H	-0.7592283562	 1.8878615702	-0.4802891504	 0.11796
H	-0.1804223334	 3.00626362	 1.6688717361	 0.09361
H	 2.0346728924	 2.1701598989	 2.8307474537	 0.106759
H	 1.3641767919	 0.5647614891	 2.4588881738	 0.115462
H	 3.3636341243	 2.1988108431	 0.844037345	 0.106759
H	 2.7853760155	 0.5953978153	 0.3342994647	 0.115462
H	 1.4329975042	 3.0410387786	-0.7430833196	 0.09361
73.7098	90.5301	196.1066	202.641	310.5874	359.0378	485.4538	486.2452	520.4995	530.3697	588.8208	596.1513	733.701	740.3703	781.9965	782.2685	821.1675	935.2555	942.2296	957.1495	991.0004	1022.0321	1068.8651	1084.1928	1099.8969	1147.425	1224.8897	1225.6562	1244.0368	1257.9487	1303.7031	1336.7588	1409.4785	1476.5215	1498.931	2178.0887	2349.2151	3063.4443	3069.2256	3110.7644	3127.6797	3133.9202	3174.5813	3187.0223	3505.9789
C#CC#CC1C2CCC12	C#CC#C[C@H]1[C@H]2CC[C@@H]12	
InChI=1S/C9H8/c1-2-3-4-7-8-5-6-9(7)8/h1,7-9H,5-6H2	InChI=1S/C9H8/c1-2-3-4-7-8-5-6-9(7)8/h1,7-9H,5-6H2/t7-,8+,9-
