18
gdb 78679	3.18599	1.4528	1.1431	3.5244	77.47	-0.2445	-0.0101	0.2344	1099.8727	0.146302	-401.875081	-401.866854	-401.86591	-401.907572	31.408	
C	-0.1624066051	 1.575024485	 0.0281519407	-0.425988
C	-0.0165826197	 0.071267826	-0.0700619653	 0.060827
C	 0.9242596842	-0.5868968459	-1.0761312959	-0.10542
C	 2.1476455662	-0.2327080728	-0.1624476771	-0.176492
N	 1.0177903	-0.5778483111	 0.8658596546	-0.198322
C	 1.0651311728	-1.8254649952	-0.1029740052	 0.191232
C	 0.1795937217	-3.0179367086	 0.0671954248	-0.53007
C	 2.5786846131	-1.6878161059	-0.1654829586	 0.453876
O	 3.5586219395	-2.3640145664	-0.2370671149	-0.330295
H	 0.7907135185	 2.0963379891	-0.096690316	 0.121196
H	-0.8506945082	 1.9409211848	-0.741477793	 0.123325
H	-0.5752442643	 1.8499416956	 1.0043595988	 0.134041
H	-0.9969343782	-0.4076048434	 0.0392917034	 0.076886
H	 0.907262811	-0.6126676132	-2.1707972994	 0.08099
H	 2.7050210588	 0.6981381229	-0.1022839336	 0.10431
H	-0.8794228497	-2.7420439565	 0.0715485532	 0.131444
H	 0.3442970022	-3.727776259	-0.749436493	 0.140492
H	 0.4059357672	-3.5251312755	 1.0095233963	 0.147968
138.2614	165.9651	192.099	202.7697	225.0586	246.4716	351.7456	428.8245	568.5103	654.9384	678.5688	680.782	740.5466	789.2635	811.857	841.8311	848.2887	885.1624	1012.7635	1027.78	1046.4699	1069.3029	1087.8318	1106.2086	1123.5798	1140.9557	1188.9712	1216.5078	1247.4858	1274.4767	1349.6725	1404.9907	1414.6725	1422.9935	1480.5006	1485.0836	1492.2113	1492.7849	1916.5095	3033.206	3037.2533	3040.89	3049.9118	3101.8851	3109.8753	3115.7808	3116.5811	3161.2743
CC1C2C3N1C2(C)C3=O	C[C@H]1[C@H]2[C@H]3N1[C@]2(C)C3=O	
InChI=1S/C7H9NO/c1-3-4-5-6(9)7(4,2)8(3)5/h3-5H,1-2H3	InChI=1S/C7H9NO/c1-3-4-5-6(9)7(4,2)8(3)5/h3-5H,1-2H3/t3-,4-,5+,7-/m0/s1
