18
gdb 26254	3.8344	1.13364	0.89174	2.8909	77.67	-0.1872	0.0344	0.2216	1300.2935	0.14793	-435.290099	-435.28069	-435.279745	-435.324504	33.484	
C	 0.026720211	 1.3721106187	 0.0376765073	-0.331285
N	-0.028091936	-0.0673874022	-0.1520458573	-0.169747
C	 1.1634652476	-0.8204475926	 0.1950526988	-0.339105
C	-1.2556295935	-0.6583858372	-0.0536318619	 0.527252
N	-2.4163988876	-0.0641469665	-0.0094162178	-0.383654
C	-3.3228931829	-1.1186545318	 0.002613149	-0.115919
C	-2.6838288669	-2.3057757144	-0.018244751	 0.251351
N	-3.1024676838	-3.628414646	-0.0032153024	-0.604405
O	-1.3028704214	-2.0083643416	-0.0516010897	-0.236147
H	 0.9066187779	 1.7669085483	-0.479238823	 0.119421
H	-0.8739471666	 1.8212721137	-0.3797131093	 0.167313
H	 0.0914153942	 1.6507295322	 1.1005974196	 0.115511
H	 1.3602497685	-0.8237436395	 1.2790805762	 0.1163
H	 1.0641933404	-1.8519845785	-0.1419297083	 0.15034
H	 2.0257834903	-0.3705614935	-0.305874015	 0.126433
H	-4.3882127683	-0.9521329666	 0.0323100637	 0.117594
H	-2.7978992024	-4.1342759277	 0.8226231033	 0.244108
H	-2.8059004504	-4.1486891448	-0.8228022721	 0.244637
71.724	108.5575	155.4131	167.1522	188.6479	206.0954	245.3588	350.6961	372.5991	388.7232	548.7515	603.0466	608.8446	720.9618	757.2466	759.3388	875.2869	923.1084	952.9515	1026.2064	1088.4409	1130.8137	1159.3587	1175.6909	1182.7669	1214.0893	1245.9095	1282.8529	1309.382	1430.366	1444.8183	1466.8532	1485.7915	1496.6473	1502.1554	1516.4736	1649.473	1655.7643	1716.6877	2979.3072	2991.7602	3078.478	3079.7255	3152.1975	3157.5111	3263.7828	3490.9929	3555.1287
CN(C)C1=NC=C(N)O1	CN(C)c1ncc(N)o1	
InChI=1S/C5H9N3O/c1-8(2)5-7-3-4(6)9-5/h3H,6H2,1-2H3	InChI=1S/C5H9N3O/c1-8(2)5-7-3-4(6)9-5/h3H,6H2,1-2H3
