14
gdb 123327	4.29778	1.27294	1.06225	3.4694	73.76	-0.2604	0.002	0.2624	1077.9642	0.10246	-395.673088	-395.665923	-395.664979	-395.705301	26.517	
C	-0.584342383	-1.3483839221	-0.0842364805	-0.412204
C	-0.2560650289	-0.1942889147	-0.0346598534	 0.338817
C	 0.1130633748	 1.2034585364	 0.0314410479	-0.175757
C	-0.1388966533	 1.9822341784	 1.4102741565	-0.382679
C	 1.3628917034	 2.2148607179	 1.3903150422	 0.372546
N	 2.4803184698	 2.7894956355	 1.7905278148	-0.371492
C	 3.338300124	 2.3508891389	 0.8049758853	 0.02625
N	 2.8240282622	 1.5818236143	-0.1616468797	-0.283518
N	 1.5488214047	 1.5066373403	 0.2827092087	 0.09726
H	-0.8654464018	-2.3720445313	-0.1312271901	 0.215372
H	-0.2674173694	 1.7554113677	-0.8329315687	 0.144759
H	-0.7626403364	 2.8715701007	 1.3057023025	 0.14821
H	-0.5194752345	 1.3459940194	 2.20987919	 0.152142
H	 4.3876881983	 2.6070844586	 0.8038446245	 0.130294
58.8673	136.4267	196.9507	269.3436	384.5808	484.9758	547.4361	642.3746	663.2887	682.552	700.4845	736.7038	763.6096	857.0578	889.8721	967.8775	998.1648	1048.4157	1110.973	1122.9453	1156.5152	1188.2483	1222.2262	1246.9792	1287.5882	1342.8962	1400.4297	1468.4898	1505.0842	1575.3945	2245.8663	3073.3281	3089.8448	3150.3342	3258.5547	3500.122
C#CC1CC2=NC=NN12	C#C[C@H]1Cc2ncnn12	
InChI=1S/C6H5N3/c1-2-5-3-6-7-4-8-9(5)6/h1,4-5H,3H2	InChI=1S/C6H5N3/c1-2-5-3-6-7-4-8-9(5)6/h1,4-5H,3H2/t5-/m0/s1
