18
gdb 120434	3.18476	1.13048	0.88044	2.2241	77.15	-0.243	-0.0348	0.2082	1303.8677	0.147633	-439.094237	-439.085546	-439.084601	-439.128496	31.476	
C	-0.6901542528	 0.6398331824	-0.0378494383	-0.241092
O	 0.6919754769	 0.3812543955	-0.2153392033	-0.235549
C	 1.0134515003	-0.4012848839	-1.3367411785	-0.076636
C	 0.8477730958	-1.9123258612	-1.1105342514	 0.029506
O	-0.5427752738	-2.2796205203	-1.0647426844	-0.251524
C	-0.8186840337	-3.2112485111	-2.0406433923	 0.394167
N	-1.9540529349	-3.7246754627	-2.2619368886	-0.546576
C	 0.4334731972	-3.4886044782	-2.7568775706	-0.145319
C	 1.408425625	-2.7533504076	-2.223722552	-0.097004
H	-1.1293975511	 1.0911707751	-0.9403771434	 0.106473
H	-1.2549327308	-0.266460085	 0.2066818745	 0.130852
H	-0.7702794944	 1.3519107611	 0.7870327158	 0.125926
H	 0.4244880375	-0.1087716356	-2.2201769723	 0.100495
H	 2.0716023293	-0.2084782212	-1.5507809165	 0.108982
H	 1.2939448714	-2.1587847016	-0.13684277	 0.113734
H	-2.6503843931	-3.3524888551	-1.6147167933	 0.222638
H	 0.4861862908	-4.1947164977	-3.5719837189	 0.13493
H	 2.4498075603	-2.723579173	-2.5158303565	 0.125997
55.9157	84.7585	132.7295	164.1656	216.8829	301.245	359.7328	443.7766	458.2729	507.2774	661.2753	693.4304	798.5102	821.6094	870.7827	877.658	924.2632	945.6677	976.7837	1005.4303	1034.7688	1085.2967	1091.5873	1124.242	1161.2586	1185.477	1220.8995	1247.9123	1286.9457	1323.3377	1356.7144	1385.3931	1405.9041	1467.1067	1483.1244	1491.7557	1513.9736	1660.0224	1760.296	2984.4795	2993.0042	3018.0354	3062.3013	3070.6364	3120.5623	3224.5344	3261.5864	3482.0843
COCC1OC(=N)C=C1	COC[C@H]1OC(=C[CH]1)[NH]	
InChI=1S/C6H9NO2/c1-8-4-5-2-3-6(7)9-5/h2-3,5,7H,4H2,1H3	InChI=1S/C6H9NO2/c1-8-4-5-2-3-6(7)9-5/h2-3,5,7H,4H2,1H3/t5-/m0/s1
