24
gdb 22457	2.31399	0.94465	0.81137	0.5515	88.94	-0.2384	0.0173	0.2557	1596.4692	0.2147	-405.524972	-405.51352	-405.512576	-405.561778	41.556	
C	-0.092161924	 1.4262302677	 0.3090624184	-0.390589
C	 0.16351497	-0.0763194714	 0.1556567289	-0.167053
C	 0.7100280038	-0.4939655618	-1.2335020165	-0.040953
C	 2.1136659067	 0.0646960665	-1.495917629	-0.391639
C	 0.6305381274	-2.0037237583	-1.375369456	 0.345985
C	-0.7130945226	-2.6356385638	-1.6568937052	-0.263117
C	-0.8854517379	-2.9717881483	-3.1502137574	-0.37629
N	 1.7197881961	-2.6610624275	-1.2565772369	-0.182933
O	 1.520119542	-4.0501568896	-1.3899010226	-0.404009
H	 0.8286334044	 2.0102559539	 0.221994849	 0.121664
H	-0.7899307961	 1.7884819651	-0.4546541996	 0.112649
H	-0.5288641504	 1.6469882588	 1.2881337062	 0.113404
H	 0.8740289582	-0.4168199481	 0.9192801579	 0.105567
H	-0.7722415426	-0.6137195584	 0.3505942521	 0.097932
H	 0.0245553273	-0.078211778	-1.9884429861	 0.075388
H	 2.1068204903	 1.1578685451	-1.4755545296	 0.105145
H	 2.823336941	-0.292307253	-0.7450411351	 0.128482
H	 2.4840804995	-0.2553040663	-2.4732408767	 0.116629
H	-0.8085440309	-3.5524038307	-1.0684644942	 0.126056
H	-1.5082951881	-1.952954757	-1.340850731	 0.095997
H	-0.7983568572	-2.0750841841	-3.7725590259	 0.115092
H	-0.1225743257	-3.6852929084	-3.4691846239	 0.140461
H	-1.8700161532	-3.4126235047	-3.3338562707	 0.112969
H	 2.4119859019	-4.3906104376	-1.2667770962	 0.303163
56.0386	73.4456	92.6755	148.9581	196.238	211.4318	225.7446	243.2448	270.4606	299.738	331.0997	361.8819	394.7042	428.451	474.7895	609.6332	711.3965	749.6196	783.3143	813.3297	848.6451	955.6951	970.3791	979.0565	996.6235	1038.262	1061.7502	1086.8304	1108.6054	1139.8039	1176.0705	1225.9851	1284.0452	1293.55	1323.5731	1347.1806	1362.5733	1379.656	1403.8072	1408.0285	1408.4379	1415.2654	1481.1734	1485.5169	1489.882	1496.2008	1498.7614	1504.0536	1508.5948	1509.8297	1725.7235	2984.4975	3026.5522	3032.2262	3040.1648	3049.0407	3049.8472	3060.7874	3092.9686	3097.5786	3107.896	3108.5455	3119.7068	3123.7363	3133.9649	3825.2436
CCC(C)C(CC)=NO	CC[C@@H](C)C(=NO)CC	
InChI=1S/C7H15NO/c1-4-6(3)7(5-2)8-9/h6,9H,4-5H2,1-3H3	InChI=1S/C7H15NO/c1-4-6(3)7(5-2)8-9/h6,9H,4-5H2,1-3H3/t6-/m1/s1
