18
gdb 63311	2.61552	1.53069	1.27343	4.2726	71.86	-0.2423	0.0089	0.2512	1057.41	0.147112	-439.113859	-439.105485	-439.104541	-439.146418	32.465	
C	-0.0436027417	 1.5722468987	 0.0584633311	-0.416967
C	-0.0161112816	 0.0391320873	 0.0164419994	 0.2285
C	-1.433221884	-0.5525891147	-0.0137419612	-0.413429
N	 0.7757961757	-0.4458897088	-1.1200286561	-0.349819
C	 1.8058190396	-1.3050967447	-0.8399915042	 0.43294
O	 2.5169571305	-1.8755029821	-1.6364807321	-0.382545
C	 1.8578913285	-1.3901754486	 0.6747520778	-0.1045
O	 2.1192322071	-0.1003726191	 1.2661106581	-0.250993
C	 0.7724865918	-0.5513832047	 1.1930300762	 0.028139
H	 0.9729410905	 1.962669982	 0.1366214033	 0.146185
H	-0.5093907554	 1.9756122257	-0.8470022173	 0.1146
H	-0.6241528139	 1.925039154	 0.9164526528	 0.121688
H	-1.9690972098	-0.2209247078	-0.9085731677	 0.121559
H	-1.3988869557	-1.6459147563	-0.0247013833	 0.127145
H	-2.0079430402	-0.2297488018	 0.8607766244	 0.121232
H	 0.6199753575	-0.1280323051	-2.0641821327	 0.249565
H	 2.2943787093	-2.2505357969	 1.1688832412	 0.12176
H	 0.2697829318	-0.7291877171	 2.1397341602	 0.104939
92.1419	186.5422	229.2053	253.3019	271.4742	322.734	335.2832	408.1182	469.1653	478.5187	533.7961	592.3765	629.5658	753.8089	840.2663	868.0311	897.6022	900.7562	937.0937	946.5672	976.43	1015.2434	1044.2592	1100.4866	1201.7172	1209.3584	1234.2327	1251.7165	1286.858	1337.2701	1394.4133	1399.3638	1412.2737	1432.3821	1482.676	1484.1694	1501.2349	1508.9422	1834.902	3034.0265	3040.0652	3102.3993	3108.8969	3114.8615	3137.581	3156.5875	3193.2048	3632.8509
CC1(C)NC(=O)C2OC12	CC1(C)NC(=O)[C@H]2O[C@@H]12	
InChI=1S/C6H9NO2/c1-6(2)4-3(9-4)5(8)7-6/h3-4H,1-2H3,(H,7,8)	InChI=1S/C6H9NO2/c1-6(2)4-3(9-4)5(8)7-6/h3-4H,1-2H3,(H,7,8)/t3-,4+/m0/s1
