17
gdb 31745	6.34665	0.8701	0.7727	1.6837	72.92	-0.1883	0.0457	0.2339	1453.5539	0.134638	-458.964128	-458.955068	-458.954124	-458.998861	32.107	
C	-0.1117851156	 1.4029121176	 0.0098367594	-0.245377
O	-0.0207732692	-0.0204809048	 0.0036309863	-0.268914
C	-1.1670974066	-0.705632146	 0.0112777057	 0.50356
C	-1.3732113168	-2.0499479402	 0.0097952576	-0.481226
C	-2.8011192236	-2.1977786684	 0.0205938499	 0.367985
O	-3.4011277282	-3.4073273991	 0.0224737005	-0.256191
C	-4.8165572519	-3.3736654099	 0.0338002115	-0.248188
C	-3.3510480261	-0.9504430737	 0.027842594	-0.200263
O	-2.3239059912	-0.0151799011	 0.0219690482	-0.201566
H	 0.917372252	 1.7626707517	 0.0022921868	 0.137675
H	-0.6413740037	 1.7700485205	-0.8751144214	 0.135138
H	-0.625938385	 1.7632413063	 0.9066223226	 0.135094
H	-0.6317466317	-2.8295219478	 0.0022283169	 0.116377
H	-5.1572898553	-4.4100010184	 0.0341222053	 0.134573
H	-5.1919359173	-2.8636151755	 0.9312807393	 0.121612
H	-5.2061371288	-2.8595047885	-0.8552437674	 0.121616
H	-4.347452751	-0.5516298826	 0.0366680048	 0.128095
30.843	92.065	166.3632	177.339	209.5919	252.6697	275.8904	383.189	389.5646	561.0094	571.7937	630.3678	647.3041	688.619	728.5564	750.1546	948.8416	997.2789	1046.2231	1084.6306	1121.3473	1176.2073	1181.8965	1195.4207	1208.3659	1219.6321	1266.4239	1349.4263	1432.4672	1472.9211	1483.8617	1484.5461	1488.2541	1502.6583	1509.7763	1623.7329	1673.7798	2999.2104	3033.7575	3055.0918	3100.8998	3137.6597	3150.6146	3286.136	3313.036
COC1=CC(OC)=CO1	COc1cc(OC)co1	
InChI=1S/C6H8O3/c1-7-5-3-6(8-2)9-4-5/h3-4H,1-2H3	InChI=1S/C6H8O3/c1-7-5-3-6(8-2)9-4-5/h3-4H,1-2H3
