22
gdb 107879	2.34245	1.57527	1.12518	1.9742	86.4	-0.2246	0.0759	0.3004	1191.7656	0.193778	-367.122575	-367.113739	-367.112795	-367.15616	34.159	
C	 1.2364462114	-1.0734711415	 1.5505097211	-0.377761
C	 0.4262129337	-0.4586125399	 0.4016352424	-0.330925
C	 0.9578946108	-0.8489851028	-0.9601158565	 0.332535
C	 2.3436477003	-0.5533046963	-1.5348083855	-0.224571
N	 1.7292364837	-1.3031924883	-2.7057249733	-0.16299
C	 0.985308357	-2.2332158569	-1.7111011399	-0.070281
C	-0.3320874023	-2.0168029423	-2.4737049012	 0.026254
C	-1.6894864299	-2.2844649516	-1.8457087337	-0.442855
C	 0.3579799645	-0.6443287367	-2.3971441821	-0.085004
H	 1.19905463	-2.1675430993	 1.5190185589	 0.118389
H	 2.2889928052	-0.7763758961	 1.4976620782	 0.120758
H	 0.8484506414	-0.7530684063	 2.5219126356	 0.114366
H	-0.626790231	-0.7415491521	 0.5024252241	 0.104634
H	 0.4542272079	 0.636941476	 0.4789429624	 0.100392
H	 2.5934527209	 0.4888210021	-1.7664103922	 0.092816
H	 3.209816031	-1.0637862521	-1.0990948408	 0.094965
H	 1.4571169308	-3.1616055959	-1.3790055431	 0.073445
H	-0.2804332041	-2.4332604702	-3.4869125477	 0.081999
H	-1.7740092828	-1.8886686232	-0.8312102162	 0.121282
H	-2.4871370798	-1.8331186467	-2.4459546918	 0.120146
H	-1.8859686156	-3.3613100798	-1.7993585158	 0.119875
H	 0.0890947069	 0.3025127598	-2.8731225629	 0.07253
54.2661	150.843	186.5094	193.7099	229.7647	246.3948	323.6272	393.2525	453.3649	531.8089	625.0233	717.0541	733.5141	774.9386	841.2603	865.7378	868.9796	893.9034	916.413	967.9261	983.4868	1019.9279	1030.7371	1050.0675	1072.0178	1102.0919	1108.1185	1130.1428	1139.9449	1165.7185	1195.7631	1202.7439	1242.073	1251.5083	1274.065	1306.2891	1332.8376	1369.1778	1400.9668	1411.1259	1414.0463	1476.7149	1496.0023	1498.6553	1499.7416	1507.1535	1519.6637	3018.3503	3023.6271	3034.441	3035.2708	3040.1293	3068.1629	3076.2476	3080.0818	3083.8395	3091.7441	3103.7958	3108.1106	3125.8284
CCC12CN3C1C(C)C23	CC[C@@]12CN3[C@@H]1[C@@H](C)[C@@H]23	
InChI=1S/C8H13N/c1-3-8-4-9-6(8)5(2)7(8)9/h5-7H,3-4H2,1-2H3	InChI=1S/C8H13N/c1-3-8-4-9-6(8)5(2)7(8)9/h5-7H,3-4H2,1-2H3/t5-,6-,7+,8-
