19
gdb 81948	2.28329	1.81874	1.19543	2.8346	74.46	-0.245	-0.0197	0.2253	1080.1276	0.158458	-423.049241	-423.040638	-423.039694	-423.082455	32.474	
C	 0.2946307732	 1.6410219321	 0.001757516	-0.39632
C	 0.0821925171	 0.1260925366	-0.0206375775	-0.130352
C	 0.7127127579	-0.6100358711	-1.18292994	 0.031174
O	 2.1477782408	-0.6130226238	-1.1230559545	-0.262122
C	 1.4448932592	-1.7951465696	-0.7088781381	 0.031174
C	 1.3439452215	-1.9161877771	 0.7962871318	-0.130352
C	 2.6581863079	-2.1846445041	 1.5320472851	-0.39632
C	 0.7028809739	-0.5736779446	 1.2069721649	 0.38674
O	 0.6957067967	-0.1307193091	 2.3254318788	-0.317932
H	 1.3546412698	 1.8736246122	-0.1323719901	 0.137346
H	-0.2713153665	 2.1327915898	-0.7946057386	 0.113062
H	-0.0267418222	 2.0457304482	 0.9645052973	 0.139735
H	-0.9960187414	-0.0958241867	-0.0006313761	 0.102764
H	 0.2884840692	-0.5462803948	-2.1817472345	 0.099249
H	 1.6020407382	-2.6724083354	-1.3312825253	 0.099249
H	 0.6153489526	-2.7039940505	 1.0426521708	 0.102764
H	 3.4227437106	-1.4738178153	 1.2066329731	 0.137346
H	 2.5116557197	-2.0629465104	 2.6079984233	 0.139735
H	 3.0219282417	-3.1976649163	 1.3376032936	 0.113062
65.3926	173.5341	210.0513	213.2396	220.326	233.6335	279.0917	455.4028	506.105	549.9695	552.9399	633.9552	700.9143	795.4997	829.2517	845.0377	905.8946	925.7074	984.6959	1015.9191	1016.5496	1044.7022	1085.1218	1106.0115	1131.8768	1142.8669	1164.5465	1251.4989	1265.0118	1288.6443	1303.9964	1332.9117	1359.6382	1399.7864	1403.7029	1433.9014	1492.6058	1493.4745	1503.0117	1504.1766	1846.3641	2997.5151	3001.0311	3046.5769	3046.997	3119.166	3119.4778	3130.9511	3131.1664	3141.5716	3153.6369
CC1C2OC2C(C)C1=O	C[C@H]1[C@H]2O[C@H]2[C@@H](C)C1=O	
InChI=1S/C7H10O2/c1-3-5(8)4(2)7-6(3)9-7/h3-4,6-7H,1-2H3	InChI=1S/C7H10O2/c1-3-5(8)4(2)7-6(3)9-7/h3-4,6-7H,1-2H3/t3-,4+,6-,7+
