15
gdb 48877	3.4372	1.61264	1.3657	2.941	69.28	-0.2407	-0.0445	0.1962	930.8568	0.112029	-420.580518	-420.573666	-420.572722	-420.612013	26.935	
O	-0.1268020221	 0.0129075953	-0.0092553202	-0.245658
C	 0.0586093733	 1.1805961336	 0.2156888951	 0.058837
C	 1.3772746141	 1.8663727856	-0.0088016782	 0.308836
O	 1.5233552557	 3.0502001903	 0.8964941923	-0.32427
C	 1.9399981641	 3.8184183326	-0.2050783307	 0.096583
C	 3.0284101202	 3.0712199915	-1.0701639922	-0.138192
C	 3.6297899387	 1.8638066949	-0.4562677503	-0.068095
C	 2.6707329036	 1.1077222476	 0.0976022123	-0.145256
C	 1.5449147342	 2.8314688763	-1.2390122851	-0.203544
H	-0.7399683207	 1.8517086069	 0.5971090123	 0.096428
H	 1.8913745144	 4.8970550533	-0.121819111	 0.11886
H	 3.5513911272	 3.6796255197	-1.7983179973	 0.098137
H	 4.696514916	 1.6867464574	-0.3990612697	 0.113349
H	 2.7880619361	 0.2117019449	 0.6902310839	 0.120106
H	 0.9694002353	 2.8747568	-2.1545926912	 0.113879
70.6325	180.4383	248.6269	388.3835	419.8714	477.369	608.6311	647.2356	682.4614	735.1669	765.9944	790.5764	804.1397	829.7436	858.9052	925.6289	942.913	951.7195	1001.863	1039.8431	1049.6953	1071.8061	1090.7453	1117.4004	1164.3931	1210.857	1250.222	1312.0479	1360.3796	1367.7105	1402.4253	1622.9919	1829.072	2914.6595	3188.9575	3190.4502	3204.9047	3211.6196	3244.5893
O=CC12OC3C(C=C1)C23	O=C[C@@]12O[C@H]3[C@@H](C=C1)[C@@H]23	
InChI=1S/C7H6O2/c8-3-7-2-1-4-5(7)6(4)9-7/h1-6H	InChI=1S/C7H6O2/c8-3-7-2-1-4-5(7)6(4)9-7/h1-6H/t4-,5+,6-,7-/m0/s1
