19
gdb 72361	2.39051	1.87963	1.43011	1.3465	80.06	-0.2355	0.0177	0.2532	986.6487	0.160705	-385.911107	-385.90351	-385.902566	-385.943159	30.765	
O	-0.1131037242	 1.3296307901	-0.0792913585	-0.482181
C	 0.0302050715	-0.0832041718	 0.0239487448	 0.394223
C	 0.7250656064	-0.7090191524	-1.2196264275	-0.340058
C	-0.1908470615	-1.8404630781	-1.6165821491	-0.062475
C	-1.3398875382	-1.8275854887	-0.9431587711	-0.080716
C	-1.4071100032	-0.7001805395	 0.0625754583	-0.107474
C	-1.5997909598	-1.1192379474	 1.5011987862	-0.079487
C	-0.4836234432	-0.9935712107	 2.2143628086	-0.061374
C	 0.6707016457	-0.4825601777	 1.3896303136	-0.313229
H	 0.7677480597	 1.7188166723	-0.0596536578	 0.273037
H	 0.7886890168	 0.0442086926	-2.0162455155	 0.107971
H	 1.7499374875	-1.0420671018	-1.0150961067	 0.095509
H	 0.0701960796	-2.5554674901	-2.3899152467	 0.090544
H	-2.1545473993	-2.5303690804	-1.0811519285	 0.090565
H	-2.1477027295	 0.0528742158	-0.2391478865	 0.094743
H	-2.5476386617	-1.4890389167	 1.8769065662	 0.08922
H	-0.3795952253	-1.2444300089	 3.2646265773	 0.090543
H	 1.4418047472	-1.2553409575	 1.2739988105	 0.104566
H	 1.1624150316	 0.3863470607	 1.8459010125	 0.096073
57.9157	188.2656	284.2067	320.9906	360.1345	383.9223	434.4641	482.8908	597.8301	611.5172	704.8369	714.2146	770.0369	803.8128	833.8523	915.7606	931.4072	962.8498	970.6672	975.8715	977.176	990.572	1050.1801	1051.915	1093.1336	1103.2581	1125.9575	1136.3437	1197.9308	1220.3037	1273.0447	1286.1826	1296.163	1309.9404	1349.4782	1362.4737	1397.811	1465.1978	1483.172	1679.4784	1696.2846	3011.3875	3013.5167	3016.531	3041.848	3050.7617	3173.8628	3176.7778	3199.6717	3202.7699	3802.5617
OC12CC=CC1C=CC2	O[C@]12CC=C[C@H]1C=CC2	
InChI=1S/C8H10O/c9-8-5-1-3-7(8)4-2-6-8/h1-4,7,9H,5-6H2	InChI=1S/C8H10O/c9-8-5-1-3-7(8)4-2-6-8/h1-4,7,9H,5-6H2/t7-,8-
