20
gdb 78424	5.00168	1.27546	1.24865	1.1381	83.54	-0.2151	0.0932	0.3084	1086.5597	0.173291	-365.931376	-365.924567	-365.923623	-365.962116	28.949	
C	-0.0876818965	 1.442069096	-0.0133800191	-0.315444
N	 0.0373840885	-0.0092432593	 0.0339048592	-0.102158
C	 1.4091057804	-0.5129347669	-0.1836162595	-0.052613
C	 0.8201906451	-0.519326594	 1.1783112539	-0.052615
C	 0.6501039833	-2.0116960926	 1.4246293533	-0.032781
C	 0.1874438218	-2.6757100051	 0.086276304	-0.035798
C	 1.012686798	-3.9370642456	 0.4371979388	-0.257926
C	 1.912784927	-2.7471612696	 0.83199731	-0.060505
C	 1.4771680017	-2.0027175606	-0.4880502119	-0.032782
H	 0.7959214326	 1.9807878547	 0.371285013	 0.094412
H	-0.2522864599	 1.7561576305	-1.0492894364	 0.121438
H	-0.9563103396	 1.7485272379	 0.5785848796	 0.121438
H	 2.1849289154	 0.1810264396	-0.4910089499	 0.081542
H	 1.1252573081	 0.1695218086	 1.9595898473	 0.081543
H	 0.2232710894	-2.3603995935	 2.3662595338	 0.061667
H	-0.810418543	-2.621654055	-0.3449567884	 0.079179
H	 0.6341467101	-4.5608888359	 1.2521184364	 0.08756
H	 1.3492704913	-4.5531234182	-0.4016869666	 0.08756
H	 2.9152744246	-2.7770248963	 1.2653432301	 0.064616
H	 1.8720482018	-2.3425005146	-1.4467290375	 0.061667
184.1359	221.5337	265.8593	375.8576	382.6196	438.0392	492.7697	698.0459	750.3962	776.76	804.0987	828.6397	832.4976	869.3979	891.7104	909.9415	915.7782	964.1418	977.3217	1003.9016	1013.2614	1052.5461	1063.2732	1084.031	1100.2413	1123.5474	1132.1837	1136.599	1158.5524	1173.6411	1189.8551	1226.4835	1228.8937	1240.7449	1262.8244	1269.5002	1322.3701	1334.5266	1391.304	1454.4868	1493.5483	1498.7571	1520.3841	2952.0484	3045.1892	3061.792	3081.917	3099.3984	3101.7653	3104.9189	3105.7512	3131.8284	3157.9747	3168.1842
CN1C2C1C1C3CC1C23	CN1[C@H]2[C@@H]1[C@H]1[C@@H]3C[C@H]1[C@H]23	
InChI=1S/C8H11N/c1-9-7-5-3-2-4(5)6(3)8(7)9/h3-8H,2H2,1H3	InChI=1S/C8H11N/c1-9-7-5-3-2-4(5)6(3)8(7)9/h3-8H,2H2,1H3/t3-,4+,5-,6+,7-,8+,9?
