19
gdb 79266	2.52406	1.59546	1.27626	2.9189	79.63	-0.2473	-0.0284	0.219	1059.1303	0.158869	-385.851388	-385.84333	-385.842386	-385.884133	31.158	
C	-0.0097402153	 1.5984368423	 0.0063611888	-0.424273
C	 0.1029096974	 0.0797910119	-0.0092704121	-0.020787
C	 0.8011908546	-0.6591872087	-1.1487570897	-0.076768
C	 2.2959453369	-0.7798104129	-0.791165306	-0.066067
C	 2.5178609699	-0.1093823798	 0.5633201089	-0.286602
C	 1.1203496835	-0.6563931344	 0.9410569575	 0.228758
C	 0.7433814994	-0.9576357544	 2.3469020143	 0.033266
O	 1.4413969614	-0.7451217052	 3.3086579394	-0.250076
C	 1.2844196724	-1.7423972387	-0.2220659785	-0.139014
H	 0.9477526008	 2.0851872538	-0.1957870826	 0.124344
H	-0.7164175811	 1.9323334315	-0.7614357363	 0.118545
H	-0.377297681	 1.959270861	 0.9734674939	 0.120847
H	-0.8853531751	-0.3705082343	 0.1456475673	 0.076595
H	 0.4646970886	-0.7692000988	-2.1723203853	 0.087151
H	 3.0301397869	-0.991460754	-1.5580711851	 0.090519
H	 3.2938265146	-0.6182540372	 1.1394431666	 0.11775
H	 2.6775586132	 0.9716438333	 0.6143782112	 0.097636
H	-0.2671965014	-1.4153056697	 2.4648735653	 0.067975
H	 1.2009441842	-2.8190808458	-0.2368225474	 0.100201
62.8311	167.3109	196.8833	210.2832	265.8576	301.9912	434.9967	495.3763	551.9546	672.5639	701.0868	766.9164	778.1923	796.5397	803.7713	898.7708	927.7403	961.0812	984.6911	997.3327	1018.4494	1035.3638	1046.1593	1090.0581	1105.177	1116.8526	1124.8977	1160.7292	1176.9952	1216.0802	1244.3459	1287.3104	1328.3539	1361.9305	1389.0324	1410.4696	1425.23	1488.4721	1494.143	1514.5336	1810.7444	2852.2068	3029.2663	3034.4744	3056.6236	3093.693	3114.2576	3120.5184	3188.3041	3197.8889	3226.8505
CC1C2C3CC1(C=O)C23	C[C@H]1[C@H]2[C@H]3C[C@]1(C=O)[C@@H]23	
InChI=1S/C8H10O/c1-4-6-5-2-8(4,3-9)7(5)6/h3-7H,2H2,1H3	InChI=1S/C8H10O/c1-4-6-5-2-8(4,3-9)7(5)6/h3-7H,2H2,1H3/t4-,5+,6-,7+,8+/m0/s1
