13
gdb 15308	4.74619	1.10253	0.96893	2.9008	60.07	-0.2677	-0.0452	0.2225	1122.8714	0.093315	-398.588878	-398.580994	-398.58005	-398.622538	26.494	
O	-0.5031343795	 0.2681843541	 0.0822993907	-0.22606
C	 0.0303535779	 1.3448916884	 0.1115126682	 0.159851
C	 1.4429255066	 1.611028072	-0.3884118719	-0.325199
C	 1.4708774025	 2.7602220759	-1.3694451926	 0.055984
O	 1.220691534	 4.0665421269	-0.8477010253	-0.225497
C	 2.5234417846	 3.8024571216	-1.3690033072	-0.099872
C	 3.6097278155	 3.7633421502	-0.4139829574	 0.305996
N	 4.4901857717	 3.7275349989	 0.3338650007	-0.319217
H	-0.4835650719	 2.2400657423	 0.52406916	 0.103474
H	 2.0661826412	 1.8598130044	 0.479713866	 0.154679
H	 1.8317141271	 0.699162718	-0.8502685599	 0.139728
H	 0.9910416901	 2.5730512318	-2.3307693427	 0.127244
H	 2.7618298704	 4.3123062856	-2.3002719986	 0.14889
53.6363	63.6285	119.9217	191.6414	251.1365	348.5975	441.1491	494.7944	579.9993	609.0851	781.1388	814.3318	857.3955	956.2734	978.6701	1051.9011	1069.7395	1131.2892	1151.043	1235.7951	1274.5347	1299.1771	1378.4421	1420.8104	1445.8276	1450.9805	1838.5822	2361.821	2904.1217	3041.0777	3105.1507	3118.4242	3140.518
O=CCC1OC1C#N	O=CC[C@H]1O[C@H]1C#N	
InChI=1S/C5H5NO2/c6-3-5-4(8-5)1-2-7/h2,4-5H,1H2	InChI=1S/C5H5NO2/c6-3-5-4(8-5)1-2-7/h2,4-5H,1H2/t4-,5+/m1/s1
