14
gdb 125745	3.42482	1.28781	0.94224	5.6622	74.21	-0.2383	-0.0534	0.1849	1164.4671	0.101107	-432.877867	-432.86951	-432.868566	-432.910861	30.18	
C	-0.0405394085	 1.4782891637	-0.0676678695	-0.512763
C	-0.0132837518	-0.0101539117	 0.0412573792	 0.3643
N	-0.009684269	-0.77502384	-1.0251146483	-0.177493
O	 0.0060880961	-2.0789083869	-0.5976248744	-0.221379
C	 0.021649584	-2.085589172	 0.7675319876	 0.296172
C	 0.0532230072	-3.3116043233	 1.4558041162	 0.213865
N	 0.0858267875	-4.2900898244	 2.0776611523	-0.343811
C	 0.0059731363	-0.798056614	 1.2377488958	 0.009725
N	-0.063036858	-0.3332410242	 2.5332611995	-0.614555
H	 0.8540660258	 1.9264872296	 0.3802764719	 0.137378
H	-0.0821644872	 1.7728393586	-1.1174464513	 0.1641
H	-0.913025183	 1.8914646117	 0.4496637279	 0.149222
H	 0.1737128896	-1.0072002857	 3.2478050816	 0.272145
H	 0.3766549411	 0.5609790288	 2.6944489115	 0.263093
109.7413	131.1802	137.3414	235.8016	263.1908	288.5363	360.442	408.7413	506.376	509.9246	586.7964	600.9357	644.7714	717.159	742.8269	758.5291	978.8167	997.8371	1046.5667	1066.331	1204.8492	1215.8233	1308.2104	1414.2419	1462.4374	1479.8833	1501.4764	1546.7224	1642.2701	1686.5682	2330.8977	3034.5384	3089.7058	3144.6477	3563.7096	3662.8981
CC1=NOC(C#N)=C1N	Cc1noc(C#N)c1N	
InChI=1S/C5H5N3O/c1-3-5(7)4(2-6)9-8-3/h7H2,1H3	InChI=1S/C5H5N3O/c1-3-5(7)4(2-6)9-8-3/h7H2,1H3
