21
gdb 110555	3.10847	1.24227	1.04982	1.4464	83.77	-0.2599	0.0768	0.3366	1221.6309	0.182027	-387.010662	-387.001989	-387.001045	-387.043986	33.589	
C	-0.1012209856	 1.5120790229	-0.3347159909	-0.526344
C	-0.0713129532	 0.0137597884	-0.1714791541	 0.354521
C	 0.3386890039	-0.988092449	-1.2754417451	-0.305378
C	 0.0026748176	-1.8771432921	-0.072909356	-0.037677
C	 0.6099843629	-0.862931515	 0.9559295998	-0.120074
C	-0.6600062816	-0.9420070587	 1.8327169176	 0.026853
C	-1.0329657132	 0.1562106936	 2.8075950647	-0.128894
O	-2.3586047252	-0.1094997632	 3.2541506688	-0.422343
C	-1.1871732836	-0.9642717235	 0.380279454	-0.088796
H	 0.8902474397	 1.8850648937	-0.6172768011	 0.118079
H	-0.7972473222	 1.7951516975	-1.1329326235	 0.120208
H	-0.4072344074	 2.0379637938	 0.573123299	 0.122464
H	-0.3254720017	-1.0576711395	-2.1443038391	 0.086133
H	 1.3864697705	-0.96217458	-1.595998979	 0.084418
H	 0.0350436904	-2.9633520177	 0.0228004026	 0.067244
H	 1.6580793079	-0.8151423671	 1.2617553443	 0.06139
H	-0.7769094219	-1.9069611759	 2.3431330264	 0.069273
H	-0.3220119613	 0.1469283259	 3.6511049449	 0.080859
H	-0.9682418657	 1.1484093523	 2.3410334889	 0.084024
H	-2.5981038213	 0.5627352111	 3.898597606	 0.284828
H	-2.2169162593	-1.0312145176	 0.0250222019	 0.069213
68.0287	140.8945	171.0417	212.313	264.3911	292.9033	318.9427	377.3065	453.5095	520.4327	638.3016	712.2601	751.5258	835.0593	853.3842	858.3693	891.039	925.0945	946.0132	986.9634	1017.0105	1025.3574	1052.7238	1060.0677	1071.4832	1102.7484	1128.6813	1150.3276	1154.3391	1157.8416	1189.5516	1206.4824	1224.9067	1242.2562	1261.7345	1273.0417	1288.2669	1341.9952	1399.2235	1411.3786	1463.6923	1485.232	1491.5919	1511.1431	1519.2515	2959.9033	3014.3757	3024.0464	3028.0529	3033.8749	3079.4824	3080.0748	3084.0161	3096.8739	3108.3704	3114.2137	3829.2776
CC12CC3C1C(CO)C23	C[C@@]12C[C@H]3[C@@H]1[C@@H](CO)[C@@H]23	
InChI=1S/C8H12O/c1-8-2-4-6(8)5(3-9)7(4)8/h4-7,9H,2-3H2,1H3	InChI=1S/C8H12O/c1-8-2-4-6(8)5(3-9)7(4)8/h4-7,9H,2-3H2,1H3/t4-,5+,6+,7-,8+
