16
gdb 51767	2.23858	1.42602	0.94761	4.7493	72.19	-0.2476	0.0014	0.249	1204.8599	0.122466	-437.835349	-437.826482	-437.825538	-437.869928	31.412	
O	 0.2856298151	-0.0284653233	-0.2258409687	-0.27111
C	 0.3020566394	 1.1625008452	-0.2854604314	 0.178608
O	 1.0317602751	 1.9215608479	 0.5619047347	-0.18257
C	 0.987998971	 3.3268267423	 0.3792476843	 0.113378
C	 1.7328286931	 4.0408453919	 1.5221511408	-0.196866
N	 2.917759349	 4.1833798284	 0.6448680529	-0.29444
C	 2.1020255603	 3.9033728828	-0.5647705439	-0.224348
C	 2.6846132438	 3.0294037821	-1.5652142485	 0.346518
C	 3.1298291504	 2.296750152	-2.40763792	-0.411487
H	-0.2797222048	 1.7630756479	-1.0105210263	 0.078929
H	-0.0309355196	 3.6526619958	 0.1570403276	 0.099795
H	 1.2423646768	 4.9806850272	 1.8085710266	 0.101745
H	 1.9046747603	 3.4332672756	 2.4146214459	 0.132884
H	 3.373652234	 5.088657048	 0.6530523374	 0.226642
H	 1.7140069637	 4.8108813181	-1.0528267595	 0.095825
H	 3.5363869125	 1.642624398	-3.1393286919	 0.206497
49.3854	84.2169	125.5526	159.3721	210.5758	243.0148	342.4806	400.4522	522.0598	560.9607	612.6579	634.6623	672.9294	695.2211	796.0343	908.319	946.544	989.4992	1008.7839	1038.4192	1045.2201	1101.6268	1130.1795	1152.2654	1182.8682	1222.7591	1254.7823	1323.9866	1357.5964	1380.9839	1388.5526	1438.6367	1506.8199	1872.1038	2237.4515	2955.6587	2975.9787	3013.1461	3080.2022	3092.8949	3501.3401	3540.0584
O=COC1CNC1C#C	O=CO[C@H]1CN[C@H]1C#C	
InChI=1S/C6H7NO2/c1-2-5-6(3-7-5)9-4-8/h1,4-7H,3H2	InChI=1S/C6H7NO2/c1-2-5-6(3-7-5)9-4-8/h1,4-7H,3H2/t5-,6-/m0/s1
