16
gdb 20900	5.0345	1.41211	1.18494	2.2007	67.58	-0.2081	0.0226	0.2308	1021.9512	0.133028	-376.137201	-376.129502	-376.128558	-376.169538	28.102	
C	-0.1565400926	 1.5115612702	 0.0914292847	-0.372483
C	 0.1250786459	 0.0116936258	 0.0010682045	-0.142999
N	 0.7451615674	-0.5112039613	 1.2034958972	 0.060215
C	 0.2625181246	-1.3638129447	 2.1200246375	 0.005748
N	 1.139923374	-1.5697442177	 3.0877869702	-0.331986
C	 2.1851302165	-0.7832235077	 2.6999296083	 0.404994
N	 3.3222011403	-0.651567302	 3.4725224219	-0.58068
N	 2.0060880633	-0.1207340147	 1.5624478241	-0.339815
H	 0.7711119215	 2.0572873654	 0.2767182532	 0.152523
H	-0.5932912161	 1.8682917533	-0.8460783025	 0.119376
H	-0.8543941762	 1.7295554638	 0.9051034865	 0.126583
H	-0.7989336513	-0.554176367	-0.1512670503	 0.120041
H	 0.789184184	-0.2011318343	-0.8431345188	 0.130665
H	-0.7183727189	-1.8099984975	 2.0448997819	 0.135606
H	 3.4974768771	-1.4589622508	 4.0523036529	 0.257122
H	 4.1352156404	-0.3566408607	 2.9519523886	 0.255089
63.7464	115.4176	200.4253	286.3413	292.0688	339.403	411.7428	464.594	616.2805	634.2144	657.948	768.0015	789.0416	802.0196	850.5268	971.2129	1023.711	1041.4817	1087.1359	1116.9195	1142.5296	1230.4736	1267.7605	1352.2246	1379.2305	1398.4194	1408.8621	1480.4757	1484.3554	1487.7665	1508.5383	1523.7545	1592.6022	1648.6518	3047.4286	3050.0534	3094.773	3120.153	3140.0624	3249.2042	3573.4973	3679.5302
CCN1C=NC(N)=N1	CCn1cnc(N)n1	
InChI=1S/C4H8N4/c1-2-8-3-6-4(5)7-8/h3H,2H2,1H3,(H2,5,7)	InChI=1S/C4H8N4/c1-2-8-3-6-4(5)7-8/h3H,2H2,1H3,(H2,5,7)
