22
gdb 59096	2.0624	1.38694	1.05029	2.5299	83.53	-0.2289	-0.0222	0.2066	1285.8136	0.191473	-404.349658	-404.339469	-404.338525	-404.38471	37.405	
C	 0.0297974085	 1.5612021131	-0.0643732644	-0.39668
C	 0.0186664579	 0.0256745716	-0.0413276712	 0.015562
C	 0.5560806903	-0.5698428114	-1.3482107347	-0.401729
C	 0.793434479	-0.4788164907	 1.1824750824	-0.071142
N	 0.9273691137	-1.9484487821	 1.3597026018	-0.087215
C	 0.054598083	-2.5973522661	 2.3147640188	-0.32991
C	 2.367603381	-1.8672840113	 1.6871823493	-0.283334
C	 2.330882344	-0.4095666928	 1.20876743	 0.387068
O	 3.1495729699	 0.4187117401	 0.9400146682	-0.297825
H	 1.0548955178	 1.9379513691	-0.1376315426	 0.142611
H	-0.5347227119	 1.9398066013	-0.9220230013	 0.111958
H	-0.4177190252	 1.9804121405	 0.8435181623	 0.108136
H	-1.0202874464	-0.3120432349	 0.0858212898	 0.075263
H	 1.5714923711	-0.2126454357	-1.5532725539	 0.125236
H	 0.5822164455	-1.6610918703	-1.2935112457	 0.125449
H	-0.0753478469	-0.278744449	-2.1933593293	 0.108606
H	 0.4034375962	 0.0157051882	 2.0927475331	 0.078486
H	-0.9865258543	-2.5027570392	 1.9905074791	 0.126779
H	 0.2895190771	-3.6649881571	 2.3707262165	 0.126025
H	 0.1366580271	-2.1742964203	 3.3346704949	 0.093394
H	 2.5948175888	-1.9264248975	 2.7653678862	 0.112657
H	 3.0172187837	-2.5653567755	 1.1485568009	 0.130605
71.0809	90.9434	133.5714	170.6344	224.1598	227.8259	248.9363	257.5964	341.7694	351.7182	417.9936	431.8307	498.8103	612.0822	635.4693	744.9102	828.7368	882.6316	932.2101	957.5489	965.4327	981.8794	1026.6573	1069.6802	1086.9516	1124.4034	1139.8699	1171.7187	1198.0855	1201.8593	1214.0462	1281.7483	1289.2437	1320.9888	1350.2796	1375.537	1397.7916	1419.6458	1451.2958	1473.6802	1489.7865	1494.3579	1496.1665	1496.5135	1503.0874	1515.9913	1907.3131	2920.3252	2923.8988	2967.3696	2996.4885	3031.5281	3036.2906	3062.5968	3066.7114	3098.1821	3100.5028	3103.9678	3112.8593	3121.6093
CC(C)C1N(C)CC1=O	CC(C)[C@H]1N(C)CC1=O	
InChI=1S/C7H13NO/c1-5(2)7-6(9)4-8(7)3/h5,7H,4H2,1-3H3	InChI=1S/C7H13NO/c1-5(2)7-6(9)4-8(7)3/h5,7H,4H2,1-3H3/t7-/m1/s1
