16
gdb 54237	2.40289	1.51782	1.27627	1.4085	66.26	-0.2413	-0.0004	0.2409	1035.6258	0.124941	-471.225705	-471.21685	-471.215906	-471.259679	32.4	
N	 0.2602821775	 0.8456585201	 0.8305437744	-0.526246
C	-0.014519261	 0.0465652266	-0.2273822693	 0.323409
O	 0.635065444	 0.0056915017	-1.2570422649	-0.380626
C	-1.2986005957	-0.7876229532	-0.093157068	 0.074127
N	-2.3883003624	-0.2315278696	-0.8909862416	-0.559944
C	-1.115540426	-2.3123205857	-0.2713044606	-0.09253
O	-1.5837743153	-2.5231473764	 1.1100196129	-0.255736
C	-1.7323532474	-1.1818689273	 1.3066023108	 0.438069
N	-2.0669471386	-0.5102428076	 2.3156403679	-0.572192
H	 1.0430673513	 1.4766942048	 0.7709191212	 0.263251
H	-0.3283523363	 0.8381477528	 1.6519870631	 0.284546
H	-2.7354196616	 0.6112620903	-0.4401191417	 0.246607
H	-2.0128176303	 0.0479367384	-1.7950968372	 0.248448
H	-1.798761789	-2.7694108065	-0.9870593252	 0.1341
H	-0.0925077709	-2.6692965255	-0.3935480903	 0.138964
H	-2.2838440383	-1.100958573	 3.1195046686	 0.235752
40.9541	116.9685	174.8575	217.4708	235.3755	277.918	347.162	379.8258	399.5415	473.1355	588.5799	638.3656	657.6948	703.0639	776.8703	794.824	863.6975	907.6065	923.9715	943.0807	986.6717	1042.813	1127.4014	1138.4121	1169.8014	1227.4536	1243.4953	1314.2258	1363.4631	1383.9437	1501.5223	1622.9506	1643.5261	1789.8292	1812.8532	3089.3895	3163.1006	3474.4313	3483.1187	3545.988	3559.0713	3698.2051
NC(=O)C1(N)COC1=N	NC(=O)[C@@]1(N)CO[C]1[NH]	
InChI=1S/C4H7N3O2/c5-2(8)4(7)1-9-3(4)6/h6H,1,7H2,(H2,5,8)	InChI=1S/C4H7N3O2/c5-2(8)4(7)1-9-3(4)6/h6H,1,7H2,(H2,5,8)/t4-/m0/s1
