17
gdb 48793	2.78441	1.48567	1.15821	3.2734	74.16	-0.2403	-0.0481	0.1922	1073.1968	0.135531	-417.930928	-417.92299	-417.922046	-417.96352	30.006	
O	-0.0409391542	 0.0337043334	-0.5348267712	-0.251168
C	 0.1115505915	 0.9732257704	 0.2072088809	 0.074922
C	 1.2275213862	 1.9396602494	 0.1027028591	 0.149946
C	 2.0692853736	 2.0295756302	-1.1247265546	-0.268788
N	 2.6981339961	 1.4532452588	 0.05425821	-0.141413
C	 3.0616799059	 2.6156217123	 0.9533269971	-0.234415
C	 1.6007541583	 3.0536666656	 1.0591824302	 0.273749
C	 0.9600418489	 4.3726277324	 1.2490564714	-0.308282
N	 0.974769834	 3.3675401859	 2.3353886188	-0.364522
H	-0.6055782367	 1.1696508082	 1.0363694948	 0.065165
H	 1.8518966506	 1.2952455953	-1.8939995925	 0.151678
H	 2.3774792582	 3.0137916074	-1.4732800886	 0.120235
H	 3.4598523048	 2.2476124055	 1.9001435965	 0.135424
H	 3.7704314704	 3.3107812266	 0.4919375317	 0.114276
H	 1.5676312934	 5.2532356886	 1.4390881399	 0.127341
H	 0.0272746156	 4.5678545683	 0.7249861083	 0.117418
H	 0.0632148634	 2.9255795116	 2.4250997181	 0.238435
100.6772	124.773	182.2101	209.5271	295.404	329.8344	451.3868	479.844	511.4429	579.5379	695.3498	757.2024	821.3889	852.9637	865.4607	908.9991	937.7637	981.5272	995.7722	1038.7519	1040.4723	1087.9416	1111.1663	1128.0318	1143.3421	1174.7477	1199.5991	1253.8823	1277.4771	1295.315	1341.829	1422.122	1446.7494	1478.9063	1496.7181	1515.9387	1806.4961	2865.6547	3052.6304	3099.5314	3103.6265	3128.3456	3190.1194	3208.5062	3502.305
O=CC12CN1CC21CN1	O=C[C@]12CN1C[C@]12CN1	
InChI=1S/C6H8N2O/c9-4-6-3-8(6)2-5(6)1-7-5/h4,7H,1-3H2	InChI=1S/C6H8N2O/c9-4-6-3-8(6)2-5(6)1-7-5/h4,7H,1-3H2/t5-,6-,8?/m0/s1
