14
gdb 9090	6.4733	0.98641	0.89906	5.1081	61.52	-0.2764	0.0079	0.2843	1202.623	0.104064	-419.651054	-419.642388	-419.641444	-419.684779	29.968	
O	-0.3254921658	 1.1012230156	-0.4852079841	-0.413809
C	-0.0099510863	-0.2524523085	-0.1825245768	-0.037842
C	 0.9014043484	-0.8556669015	-1.2678772924	-0.101303
O	 0.238594407	-0.8407870374	-2.5251869589	-0.174455
C	 0.4074858425	 0.2462746316	-3.3121734897	 0.187502
O	-0.1786752639	 0.387527467	-4.3405112694	-0.271201
C	 0.6043107173	-0.4046501169	 1.1350666875	 0.276032
C	 1.1600519305	-0.4991802936	 2.196605331	-0.436525
H	 0.3808980102	 1.6557695374	-0.1354052619	 0.292302
H	-0.9651819451	-0.789243611	-0.2168384537	 0.140029
H	 1.8444247482	-0.2952651263	-1.3111188309	 0.115495
H	 1.1269465571	-1.9000529505	-1.0408582563	 0.138942
H	 1.154835571	 0.9541210978	-2.909472262	 0.072628
H	 1.627758479	-0.5900073737	 3.1464617976	 0.212206
66.2593	75.7471	152.8983	184.9869	230.2373	289.47	312.9175	369.4956	443.6588	510.3983	568.4175	652.3324	679.914	691.8717	876.2315	961.665	1031.6353	1051.2276	1074.7588	1096.811	1161.1041	1257.9354	1285.9848	1337.6298	1390.4913	1418.3345	1431.5725	1489.1248	1873.378	2235.7006	2969.5736	3027.7103	3054.7429	3115.619	3500.0746	3808.7885
OC(COC=O)C#C	O[C@@H](COC=O)C#C	
InChI=1S/C5H6O3/c1-2-5(7)3-8-4-6/h1,4-5,7H,3H2	InChI=1S/C5H6O3/c1-2-5(7)3-8-4-6/h1,4-5,7H,3H2/t5-/m1/s1
