23
gdb 119354	4.71528	0.78707	0.7691	1.392	86.86	-0.2544	0.0823	0.3367	1604.3455	0.205125	-388.255006	-388.245484	-388.24454	-388.289492	36.674	
C	-0.0357887805	 1.5465855683	 0.0258216141	-0.379379
C	 0.0003695863	 0.0162760492	 0.0030243254	-0.164806
C	-1.3987737733	-0.6141457476	 0.0057059249	-0.321283
C	-1.3906464972	-2.1213746342	-0.0104484513	 0.365727
C	-0.7613815858	-3.0835860811	 1.0529886429	-0.287604
C	-1.3957858249	-3.9931500112	-0.0188124187	 0.395367
O	-1.3552017543	-5.3735057721	 0.0492390285	-0.469777
C	-2.6409467194	-3.0549419285	-0.0025123853	-0.339108
C	-0.7803984337	-3.0575448096	-1.1036235664	-0.322173
H	 0.9731899114	 1.9706589415	 0.0220226142	 0.110558
H	-0.5671109891	 1.9433970125	-0.8465964953	 0.112992
H	-0.5494057851	 1.9173996643	 0.9199630613	 0.113548
H	 0.5487394867	-0.3258805728	-0.8836735779	 0.099141
H	 0.5633022596	-0.3514153846	 0.8701271026	 0.100166
H	-1.9505598758	-0.2703068584	 0.8916199198	 0.095209
H	-1.963524328	-0.2505374362	-0.8640892376	 0.093805
H	 0.3296887017	-3.0991333366	 1.1214190988	 0.090575
H	-1.230155084	-3.0926328446	 2.0411377587	 0.088726
H	-1.8080889685	-5.7288428633	-0.7230298988	 0.280393
H	-3.245143422	-3.0567926591	 0.9092569192	 0.08882
H	-3.2642426516	-3.0398482107	-0.9026233647	 0.079226
H	-1.2700629618	-3.0440328317	-2.0829469146	 0.07914
H	 0.3090344396	-3.0677484937	-1.1957420099	 0.090735
73.5676	79.7034	110.3889	232.2295	247.9079	265.2677	301.7399	322.4014	407.9765	430.6244	550.1848	554.4241	635.1609	682.3907	735.3042	768.0865	787.8775	879.4191	901.7971	936.941	958.1434	981.5819	1010.5779	1034.5159	1048.3867	1088.0043	1103.504	1109.121	1119.7579	1130.4356	1138.6328	1157.7718	1177.8662	1199.053	1274.6588	1294.9696	1305.7802	1332.0989	1342.5929	1380.1726	1399.3311	1411.7738	1478.1368	1492.0847	1492.9788	1495.4645	1497.7729	1509.5966	1563.6364	3003.7603	3023.6318	3028.2912	3032.3593	3035.0978	3039.9649	3051.4722	3059.7168	3095.0447	3100.7243	3103.7232	3109.3936	3114.6982	3809.7377
CCCC12CC(O)(C1)C2	CCC[C@@]12C[C@@](O)(C1)C2	
InChI=1S/C8H14O/c1-2-3-7-4-8(9,5-7)6-7/h9H,2-6H2,1H3	InChI=1S/C8H14O/c1-2-3-7-4-8(9,5-7)6-7/h9H,2-6H2,1H3/t7-,8-
