15
gdb 45294	3.07778	1.68291	1.28839	2.8346	64.79	-0.2705	-0.0086	0.262	948.8784	0.113594	-457.736941	-457.73024	-457.729296	-457.768162	25.916	
O	-0.1711886279	 0.0454491854	 0.0796312975	-0.325799
C	-0.0280219248	 1.2219176089	 0.0126440756	 0.389654
O	-1.0112613878	 2.2022372609	 0.0825139084	-0.268292
C	-0.0657968463	 3.2788256474	-0.2182320168	 0.083579
C	 0.4201412683	 4.0439752122	 1.033533639	-0.274688
C	 1.5688370934	 3.0189523781	 1.1590517661	 0.089319
O	 2.7671609957	 3.3736090079	 0.4333308761	-0.291649
C	 2.4854216069	 2.4210889976	-0.6283763211	-0.193277
C	 1.0756824319	 2.2384286813	-0.1086880069	 0.073568
H	-0.3477520541	 3.7986112549	-1.1330221717	 0.10664
H	 0.7754155358	 5.0577087964	 0.838240026	 0.130676
H	-0.3018960191	 4.0525145803	 1.852785483	 0.12986
H	 1.7856093641	 2.5485494587	 2.1210758506	 0.100387
H	 2.6032162884	 2.8582813212	-1.6251109571	 0.121623
H	 3.1129302754	 1.5252985887	-0.541306929	 0.128399
140.9768	158.4448	263.7534	299.1409	409.5069	437.9517	590.7344	665.1679	719.676	730.4347	806.4011	851.887	890.0185	901.7766	956.8718	983.6024	995.932	1039.541	1050.605	1072.9997	1121.2961	1156.9463	1168.1211	1199.6464	1231.3537	1260.9609	1299.268	1311.2833	1341.8996	1375.3781	1443.8456	1517.2643	1938.6025	3023.9248	3075.0294	3080.6114	3086.0192	3124.5537	3140.5049
O=C1OC2CC3OCC123	O=C1O[C@H]2C[C@@H]3OC[C@]123	
InChI=1S/C6H6O3/c7-5-6-2-8-3(6)1-4(6)9-5/h3-4H,1-2H2	InChI=1S/C6H6O3/c7-5-6-2-8-3(6)1-4(6)9-5/h3-4H,1-2H2/t3-,4-,6+/m0/s1
