19
gdb 97332	4.35746	0.77374	0.66527	1.8749	80.37	-0.2491	0.0098	0.2588	1710.6245	0.156712	-456.382784	-456.372041	-456.371097	-456.419522	35.99	
C	-0.0013950651	 1.3656194608	 0.1290030834	-0.317378
N	 0.058828604	-0.0828238219	 0.0931670777	-0.206188
C	 0.5450676172	-0.6059389565	-0.9379713412	 0.120102
O	 0.6163180555	-1.9723337823	-1.0030438703	-0.246723
C	 1.1551807416	-2.521076367	-2.1498450458	 0.545936
O	 1.5590580369	-1.858815036	-3.0799862026	-0.414727
N	 1.1624585267	-3.8767293569	-2.0761045443	-0.152571
C	 1.6957039514	-4.6292089487	-3.1984614452	-0.34141
C	 0.6719162185	-4.6538290803	-0.9499015869	-0.345822
H	 0.5599305338	 1.7301261159	 0.9964090698	 0.131413
H	 0.3950854435	 1.854440859	-0.7743495665	 0.105123
H	-1.0412589417	 1.681592841	 0.2674398567	 0.131408
H	 0.9352879829	-0.1063435047	-1.8269326543	 0.135841
H	 2.0242419614	-3.9309972487	-3.9657427333	 0.171663
H	 2.5446232075	-5.2455594093	-2.8777025472	 0.126303
H	 0.9277818892	-5.2935787899	-3.6136254689	 0.126286
H	-0.1364520947	-5.3212304645	-1.2742655315	 0.127443
H	 1.4781548442	-5.2743092527	-0.5387471369	 0.127458
H	 0.2975872974	-3.9969015671	-0.1700867828	 0.175845
62.0119	84.3078	93.6597	120.5226	126.2092	149.5017	212.9963	236.6752	277.7923	324.0664	363.907	407.4154	449.2243	601.8096	655.4304	759.8571	856.9213	994.2792	1020.8164	1067.3336	1087.7728	1136.6279	1137.8022	1142.4199	1182.9962	1184.9637	1209.2335	1289.9384	1359.9538	1429.2276	1441.017	1449.159	1472.5624	1481.9987	1490.4297	1501.852	1502.6708	1503.0553	1545.4553	1778.7756	1812.7507	2982.3102	3014.5155	3021.2637	3060.6176	3066.4637	3067.1797	3084.6508	3117.3084	3174.645	3194.4366
CN=COC(=O)N(C)C	CN=COC(=O)N(C)C	
InChI=1S/C5H10N2O2/c1-6-4-9-5(8)7(2)3/h4H,1-3H3	InChI=1S/C5H10N2O2/c1-6-4-9-5(8)7(2)3/h4H,1-3H3
