18
gdb 70704	2.30527	1.93183	1.23493	3.5848	73.28	-0.2651	0.0025	0.2676	1036.1505	0.148353	-439.088318	-439.080263	-439.079319	-439.120855	30.922	
C	 0.0006119635	 1.5356293711	 0.0282339486	-0.463881
C	 0.1282487048	 0.0353539442	-0.0166814112	 0.306925
O	-0.7584728296	-0.6951193134	 0.8588325743	-0.274967
C	 0.6388590615	-0.7409229505	 1.1353441062	-0.020657
C	 1.3000361726	-2.089013548	 0.9151317655	-0.244407
C	 1.7364855516	-2.2317094176	-0.538409051	-0.092775
O	 0.6996968975	-1.8655871261	-1.4597901445	-0.251503
C	 0.2160393448	-0.5920256058	-1.3820860864	 0.357959
N	-0.2185710071	 0.0250373657	-2.3977569045	-0.512543
H	 0.886940854	 2.0125889761	-0.4005578242	 0.125906
H	-0.8633842924	 1.8559349283	-0.5572329612	 0.155837
H	-0.11895866	 1.8671970457	 1.0626294821	 0.119596
H	 0.9337362161	-0.1817088554	 2.0234783065	 0.095253
H	 2.1751590985	-2.1999870138	 1.5639689518	 0.10956
H	 0.5857415074	-2.8746324446	 1.1815053743	 0.132222
H	 2.620399342	-1.6091446088	-0.7339835625	 0.109822
H	 1.9885154548	-3.2646288653	-0.7876498867	 0.123705
H	-0.1041961302	-0.5541979418	-3.2324774972	 0.223948
75.1846	179.1523	211.8603	230.9418	297.8594	319.7135	414.6522	440.6245	492.869	529.3778	620.4858	686.4696	737.0522	778.5316	873.5388	893.6792	932.0046	943.932	960.3576	1028.7734	1060.2621	1068.9143	1114.2812	1126.1868	1149.9395	1213.5088	1250.7252	1284.9412	1319.1643	1367.0944	1369.3942	1412.8329	1432.9937	1452.7426	1468.4389	1476.4131	1495.6212	1510.872	1745.77	3013.654	3048.5347	3051.4732	3092.6747	3107.955	3110.351	3122.7369	3141.5015	3463.5713
CC12OC1CCOC2=N	C[C@]12O[C@H]1CCO[C]2[NH]	
InChI=1S/C6H9NO2/c1-6-4(9-6)2-3-8-5(6)7/h4,7H,2-3H2,1H3	InChI=1S/C6H9NO2/c1-6-4(9-6)2-3-8-5(6)7/h4,7H,2-3H2,1H3/t4-,6-/m0/s1
