21
gdb 89404	2.78321	1.40217	1.17517	1.6953	77.51	-0.2535	0.0705	0.3239	1139.1051	0.183239	-424.230621	-424.221867	-424.220923	-424.263341	34.885	
C	-0.2319147691	 1.4778951896	 0.1793513028	-0.483613
C	 0.1071570488	 0.0309482769	-0.0882802235	 0.351532
C	-0.8042718325	-1.0604666364	 0.4152590618	-0.349738
C	 0.5928657298	-0.9039096316	 0.9982559429	-0.131299
C	 1.6701038169	-1.8045650419	 0.4330738941	 0.111815
O	 1.5755976569	-3.1752285722	 0.8295764333	-0.450112
C	 1.562238359	-1.6634005924	-1.1226185688	 0.064444
O	 0.7534711521	-2.6981410998	-1.657145122	-0.433688
C	 0.8931865816	-0.2988447904	-1.3588825868	-0.275469
H	 0.6682936545	 2.1039082574	 0.1847612225	 0.114086
H	-0.9047791811	 1.8735618597	-0.5905422823	 0.120207
H	-0.7307773971	 1.5979588975	 1.1463359761	 0.113404
H	-1.6281722186	-0.7578695807	 1.053582121	 0.105174
H	-1.011311869	-1.9015685874	-0.2361467208	 0.131727
H	 0.688870854	-0.5677944647	 2.0255858202	 0.082945
H	 2.6570160295	-1.4596175292	 0.7628361419	 0.083339
H	 0.6728605841	-3.3128816219	 1.1358049594	 0.291343
H	 2.560752155	-1.703010464	-1.581282733	 0.066746
H	 0.9975908599	-3.4867423727	-1.1509113183	 0.279581
H	 0.2717760802	-0.328483554	-2.2597843283	 0.112983
H	 1.6608833452	 0.4687271882	-1.5151718422	 0.094594
128.7553	160.0542	218.6222	224.6376	253.3231	313.8068	337.2404	382.9389	401.8421	490.0384	526.0796	583.5288	605.1718	683.7739	790.8748	803.1256	863.365	894.5174	925.9362	937.8304	969.2115	992.6289	1024.6122	1053.0506	1075.5913	1079.9697	1092.7231	1101.7647	1154.1922	1210.0037	1240.2445	1260.2365	1280.0898	1302.1267	1330.8609	1346.4028	1371.8109	1403.5645	1408.5357	1423.4147	1428.3816	1476.5068	1488.0889	1492.1162	1505.3466	2986.4375	3020.2042	3033.6225	3042.3592	3079.256	3082.4489	3096.7167	3131.1302	3159.6727	3224.2915	3726.4467	3812.9124
CC12CC1C(O)C(O)C2	C[C@]12C[C@H]1[C@@H](O)[C@@H](O)C2	
InChI=1S/C7H12O2/c1-7-2-4(7)6(9)5(8)3-7/h4-6,8-9H,2-3H2,1H3	InChI=1S/C7H12O2/c1-7-2-4(7)6(9)5(8)3-7/h4-6,8-9H,2-3H2,1H3/t4-,5-,6+,7+/m0/s1
