21
gdb 119089	2.14559	1.23239	0.93369	2.7045	74.81	-0.2499	0.0626	0.3125	1348.9428	0.180553	-461.326201	-461.316164	-461.31522	-461.361936	35.97	
C	-1.5534755207	 1.5478040399	-1.2320088564	-0.382807
C	-1.7430692585	 0.0440538375	-1.3385278191	-0.07015
O	-1.2870373008	-0.5419218718	-0.1218307023	-0.307076
C	-1.5564842793	-1.921062501	 0.0447370126	 0.320404
C	-0.6917249254	-2.7635421813	-0.8880946632	-0.106401
O	 0.6761808701	-2.4522606476	-0.7181146296	-0.428039
C	-1.4769705619	-2.3438990394	 1.5225925926	-0.121182
O	-2.7762139503	-2.9729085083	 1.4399652701	-0.274546
C	-3.0328150276	-2.3731615931	 0.1554002412	-0.130363
H	-1.8859868568	 2.038581126	-2.1513980749	 0.120182
H	-2.1288296018	 1.9486428069	-0.3931287866	 0.130933
H	-0.4994351234	 1.7921259182	-1.0714955891	 0.127783
H	-2.8036695284	-0.2001643769	-1.4988838431	 0.099511
H	-1.1826386224	-0.3518656741	-2.1978536735	 0.101825
H	-0.8251196423	-3.8237598783	-0.6494626301	 0.11906
H	-1.0144058409	-2.6214218328	-1.9330894747	 0.085644
H	 0.7196693107	-1.4932084172	-0.6161600669	 0.287862
H	-0.6855879952	-3.0482313429	 1.7957565505	 0.1179
H	-1.4739369784	-1.4861637933	 2.2059176888	 0.105721
H	-3.7416398781	-1.5368935304	 0.2235024084	 0.099437
H	-3.3953936984	-3.10271659	-0.5785185846	 0.104301
53.6772	80.0707	97.3822	147.4423	175.5071	217.4305	249.8806	337.0642	352.6759	396.0864	422.5075	438.6644	549.1531	726.7606	821.9307	827.2905	878.4134	910.063	951.592	984.7829	1001.1484	1027.0531	1074.5884	1084.6573	1118.1295	1149.5671	1154.6769	1165.1678	1173.0809	1186.8878	1264.3626	1274.8117	1297.8078	1304.9595	1354.7586	1380.4123	1402.2966	1424.9318	1438.9091	1484.0513	1498.3046	1499.7788	1515.0545	1526.0657	1528.4741	2964.7515	2989.341	3004.5365	3021.6522	3029.3169	3046.5194	3058.2241	3075.3289	3091.997	3120.7702	3125.3144	3777.4289
CCOC1(CO)COC1	CCOC1(CO)COC1	
InChI=1S/C6H12O3/c1-2-9-6(3-7)4-8-5-6/h7H,2-5H2,1H3	InChI=1S/C6H12O3/c1-2-9-6(3-7)4-8-5-6/h7H,2-5H2,1H3
