19
gdb 73332	2.76114	1.98573	1.41986	0.8797	81.03	-0.2169	-0.0181	0.1988	961.0854	0.160574	-385.839717	-385.832499	-385.831554	-385.870799	29.77	
C	 0.1665860886	 1.445816759	-0.0171654216	-0.461529
C	-0.1184266137	-0.0319115975	-0.0161246605	 0.440756
O	 0.6906521486	-0.7056259563	-0.9931117316	-0.313774
C	-0.1535348722	-1.6735671559	-1.68547492	-0.134994
C	-1.0572044749	-2.0076854247	-0.5271158592	 0.075427
C	-0.6372822398	-2.8390041665	 0.4383018216	-0.078092
C	-0.5120624404	-2.1174948903	 1.7675365066	-0.272718
C	-0.6655131076	-0.660218209	 1.3258774805	-0.107317
C	-1.4602370032	-0.6548008959	 0.043168505	-0.203382
H	 1.2136701444	 1.635157899	 0.2413906201	 0.129309
H	-0.0150796791	 1.8692167535	-1.0104016383	 0.120814
H	-0.4634871164	 1.9706391578	 0.7062846375	 0.115644
H	-0.6385139955	-1.1938995247	-2.5445086817	 0.098097
H	 0.4800666644	-2.4958256873	-2.0227192285	 0.112983
H	-0.1120730807	-3.7694712772	 0.245724379	 0.098488
H	-1.2605909788	-2.3801452222	 2.5297277396	 0.107128
H	 0.4692371717	-2.3464852274	 2.2037956659	 0.115011
H	-0.8579822965	 0.0872686457	 2.0914624803	 0.075232
H	-2.4179904688	-0.1836047102	-0.1545780948	 0.082918
198.7505	206.3657	241.4576	281.018	344.8903	375.6844	480.3779	543.7542	678.7962	686.018	725.9843	773.1333	813.1463	825.0952	859.1324	870.9858	915.2473	936.1619	960.554	992.1331	1004.059	1041.2303	1059.4685	1081.3027	1111.2711	1123.4317	1178.7516	1184.9115	1205.6772	1223.0841	1266.4725	1309.096	1320.6514	1338.1914	1405.3267	1419.0923	1472.9842	1478.8621	1497.6832	1509.4139	1649.8889	2994.1394	3025.0279	3034.9075	3036.334	3099.0457	3114.5879	3118.3567	3141.1333	3152.28	3178.4609
CC12OCC3=CCC1C23	C[C@@]12OC[C]3[CH]C[C@@H]1[C@@H]23	
InChI=1S/C8H10O/c1-8-6-3-2-5(4-9-8)7(6)8/h2,6-7H,3-4H2,1H3	InChI=1S/C8H10O/c1-8-6-3-2-5(4-9-8)7(6)8/h2,6-7H,3-4H2,1H3/t6-,7+,8-/m1/s1
