21
gdb 91352	1.90061	1.59182	1.48909	2.5093	77.8	-0.2345	0.063	0.2975	1098.2765	0.180532	-424.194941	-424.185395	-424.184451	-424.229208	35.88	
C	-1.035175622	 1.0063753658	 0.0181803039	-0.425218
C	-0.1162867446	-0.2088379805	 0.0326758257	-0.031201
C	 1.2017108064	-0.2242288011	-0.8081995329	-0.270427
C	 1.9461181251	-0.8639403673	 0.3928607144	 0.084074
O	 2.7006916746	 0.0968423983	 1.1520777289	-0.312594
C	 1.6057966601	 0.3019663898	 2.0867849226	 0.102427
C	 1.3147517923	 1.7681954063	 2.3369176858	-0.416855
C	 0.6913291972	-0.6747087678	 1.283258383	 0.28834
O	 0.1520264821	-1.7347487111	 2.0242603362	-0.474699
H	-0.4959501957	 1.9422664748	 0.1781439476	 0.12351
H	-1.5441051767	 1.0834306487	-0.9489021506	 0.119697
H	-1.8123507049	 0.9324966514	 0.7884170403	 0.106334
H	-0.7031193884	-1.0920095674	-0.2465052559	 0.085276
H	 1.1576152704	-0.8187560577	-1.7235032537	 0.101798
H	 1.6061692035	 0.7635211818	-1.0413516697	 0.109265
H	 2.4658815795	-1.8144173909	 0.2551104269	 0.081915
H	 1.8379006422	-0.1952668517	 3.0398053087	 0.082
H	 0.4196653355	 1.887673184	 2.9571618391	 0.112311
H	 2.155819495	 2.2220773736	 2.8713573568	 0.127717
H	 1.1774392251	 2.3201139372	 1.4053336773	 0.126262
H	-0.7185872666	-1.4708917461	 2.3419064956	 0.28007
54.8927	118.2385	157.6326	194.0685	221.1902	246.7845	280.6544	330.0687	372.8294	432.2892	448.3681	568.0674	594.7801	625.9494	724.5093	833.0567	867.0811	870.2796	925.681	942.1845	963.2187	1011.8832	1063.0687	1087.3804	1113.5934	1124.1549	1131.637	1155.169	1175.2751	1203.2653	1227.6461	1249.1529	1268.3588	1304.6389	1319.905	1369.2578	1379.1845	1400.7601	1411.7243	1414.187	1473.4743	1476.0867	1489.6749	1495.841	1511.1466	2996.3094	3027.5521	3033.095	3038.9892	3063.6261	3085.1921	3089.8346	3100.8487	3121.2937	3123.4579	3137.8122	3798.1556
CC1CC2OC(C)C12O	C[C@H]1C[C@H]2O[C@@H](C)[C@@]12O	
InChI=1S/C7H12O2/c1-4-3-6-7(4,8)5(2)9-6/h4-6,8H,3H2,1-2H3	InChI=1S/C7H12O2/c1-4-3-6-7(4,8)5(2)9-6/h4-6,8H,3H2,1-2H3/t4-,5-,6+,7-/m0/s1
