23
gdb 58190	2.25396	1.25094	1.00335	1.9025	77.74	-0.2459	0.0594	0.3052	1317.9471	0.201784	-462.568145	-462.556903	-462.555959	-462.603704	42.566	
C	-0.0806099745	 1.631046479	 0.0773211517	-0.379461
C	 0.0050954273	 0.1079091444	 0.0486020925	 0.109045
O	 0.7025923996	-0.293289218	 1.2112589987	-0.45334
C	-1.3961527814	-0.537465722	-0.054201706	 0.066252
O	-2.0830805285	-0.0628748362	-1.2090325774	-0.428995
C	-1.4243858746	-2.0982893927	-0.0181121847	 0.309549
C	-2.8748600973	-2.5870966608	-0.0665056569	-0.418535
C	-0.5982209365	-2.7268281759	-1.1414783374	-0.412549
O	-0.8066719649	-2.5655938317	 1.2034474435	-0.460571
H	 0.9264516812	 2.0525834438	 0.1350824919	 0.120256
H	-0.5813337829	 2.0184528965	-0.8123416791	 0.112902
H	-0.6370313708	 1.9574281285	 0.9619453213	 0.117227
H	 0.5685870321	-0.1883294211	-0.858820397	 0.047173
H	 0.5105242211	-1.2328249232	 1.3502095983	 0.286616
H	-1.9893929574	-0.1828914436	 0.800833146	 0.07754
H	-1.4788108775	-0.1262128314	-1.9570590686	 0.284856
H	-3.36552084	-2.2527155044	-0.9822339403	 0.138907
H	-2.9072880469	-3.6789366755	-0.013517009	 0.118602
H	-3.4465268773	-2.1832026688	 0.7782591265	 0.104728
H	 0.4597735068	-2.4685866155	-1.0492454806	 0.132735
H	-0.6832159024	-3.8157239432	-1.0989445192	 0.127906
H	-0.9576237499	-2.3980858616	-2.1208285834	 0.113039
H	-1.3814803252	-2.3203453265	 1.9380993892	 0.28612
54.5206	98.1169	206.1884	210.5709	215.0051	228.9141	272.6942	286.1184	297.3097	319.9064	326.9604	358.8078	394.1729	407.6674	467.3561	481.7149	541.1614	563.6246	659.3908	766.735	866.319	915.3144	934.5268	951.4721	1002.5712	1010.8402	1056.6486	1081.1152	1094.946	1138.612	1162.0213	1205.635	1238.7301	1246.8905	1303.282	1341.9173	1369.6023	1381.5676	1397.0485	1404.0209	1406.8976	1420.8286	1467.3848	1481.306	1485.5051	1486.5596	1498.5373	1502.5618	1508.0715	2895.2074	3010.4664	3030.2675	3045.488	3047.2293	3100.7229	3115.8549	3119.2012	3125.0046	3136.395	3143.0447	3690.1673	3794.8841	3801.3044
CC(O)C(O)C(C)(C)O	C[C@@H](O)[C@@H](O)C(C)(C)O	
InChI=1S/C6H14O3/c1-4(7)5(8)6(2,3)9/h4-5,7-9H,1-3H3	InChI=1S/C6H14O3/c1-4(7)5(8)6(2,3)9/h4-5,7-9H,1-3H3/t4-,5-/m1/s1
