13
gdb 20986	3.48558	2.23861	1.37491	3.2592	57.05	-0.2197	0.0313	0.251	826.9604	0.095792	-431.914112	-431.906662	-431.905718	-431.946519	26.324	
C	 0.0501384159	 1.4186310663	 0.0283299025	-0.335771
N	 0.0198178837	-0.0294543329	 0.0254777578	-0.155156
C	 0.0379683661	-0.8180486471	-1.1190366384	 0.49709
N	 0.0693099956	-0.3781973248	-2.3040688218	-0.60998
O	 0.0117689717	-2.112192064	-0.6811984643	-0.252012
N	-0.0158352768	-2.1397014233	 0.7580202463	-0.267059
C	-0.0067267324	-0.8892456225	 1.0790591194	 0.496988
O	-0.0256988343	-0.4114267019	 2.3223984428	-0.410866
H	 1.0572819514	 1.7901905738	-0.1843664541	 0.15101
H	-0.6254970505	 1.7834553679	-0.7477564882	 0.168198
H	-0.2723044219	 1.7768446775	 1.0062251094	 0.154321
H	 0.0656747084	-1.1391786506	-2.9782795999	 0.23496
H	-0.0589026469	-1.1665336084	 2.9257121985	 0.328278
42.4889	142.0041	171.9852	263.495	343.8736	348.2562	440.1396	568.4151	623.472	673.55	734.3633	741.3875	759.8945	779.3109	921.6251	1015.0106	1035.5868	1161.6069	1209.5155	1225.632	1288.9083	1368.6173	1447.1413	1483.968	1509.8447	1601.4797	1696.0309	1785.2561	3051.641	3122.4049	3162.6577	3542.2205	3786.2061
CN1C(=N)ON=C1O	CN1[C@H]([NH])ON=C1O	
InChI=1S/C3H5N3O2/c1-6-2(4)8-5-3(6)7/h4H,1H3,(H,5,7)	InChI=1S/C3H6N3O2/c1-6-2(4)8-5-3(6)7/h2,4H,1H3,(H,5,7)/t2-/m0/s1
