18
gdb 19046	4.119	2.02766	1.81649	0.9446	78.22	-0.2067	-0.028	0.1787	810.916	0.154623	-310.568686	-310.562142	-310.561197	-310.598917	26.993	
C	 0.0500971168	 1.5671673902	-0.119206259	-0.397264
C	-0.0088665718	 0.0400661219	-0.0050513308	-0.017007
C	 0.8148374353	-0.621697389	-1.1150963943	-0.105648
C	 1.5531783519	-1.6263527221	-0.6049482509	 0.042341
C	 2.9814403493	-1.2747148273	-0.1682102044	-0.258235
C	 2.2518587965	-1.0175081607	 1.2048246951	-0.0674
C	 0.7275792325	-0.5696075559	 1.2089557623	-0.044311
C	 1.1310571276	-1.9488408532	 0.8426563911	-0.119283
H	 1.0856662771	 1.9159539082	-0.1913763179	 0.118223
H	-0.4919172731	 1.9219834578	-1.0019002546	 0.115337
H	-0.4005254372	 2.0346265235	 0.762706235	 0.114254
H	-1.0656487954	-0.2631121407	 0.0479404516	 0.078158
H	 1.1672307956	-0.0125169587	-1.9446655239	 0.09018
H	 3.6814483601	-2.1090745312	-0.0409706659	 0.103026
H	 3.470409169	-0.4479565754	-0.6918228465	 0.098627
H	 2.776541206	-0.989782287	 2.157344134	 0.08809
H	 0.3684155701	-0.3542452483	 2.2152701341	 0.073637
H	 0.8414982495	-2.902098412	 1.2646068152	 0.087276
139.5933	233.7205	283.4232	375.4027	436.6723	520.2112	592.0863	655.384	715.0622	759.9123	794.0006	804.0452	869.4402	886.7378	902.4277	934.1194	970.2541	998.8125	1023.6472	1034.6821	1048.8184	1061.7642	1089.023	1107.7183	1119.5211	1132.0485	1214.1193	1225.5473	1264.9905	1273.3588	1287.4935	1338.1127	1372.9513	1405.7745	1493.6813	1497.5787	1500.6008	1593.3138	2978.8172	3023.6083	3029.8548	3088.3975	3099.5778	3102.8274	3114.9204	3133.8694	3147.1233	3196.8228
CC1C=C2CC3C1C23	C[C@H]1[CH][C]2C[C@H]3[C@@H]1[C@@H]23	
InChI=1S/C8H10/c1-4-2-5-3-6-7(4)8(5)6/h2,4,6-8H,3H2,1H3	InChI=1S/C8H10/c1-4-2-5-3-6-7(4)8(5)6/h2,4,6-8H,3H2,1H3/t4-,6-,7+,8-/m0/s1
