15
gdb 12446	3.80677	2.01171	1.38976	1.4426	66.09	-0.2347	-0.0013	0.2335	855.9992	0.122133	-395.998117	-395.991297	-395.990353	-396.029418	25.543	
N	 0.0100323048	 1.2428921298	 0.6253175165	-0.557177
C	 0.0342938415	 0.1469327775	-0.0151899119	 0.443056
N	-1.1448237489	-0.2822831846	-0.6283409441	-0.340436
C	-1.5946620934	-1.5293353843	-1.0548783154	 0.101387
N	-1.0056694853	-2.6319787795	-1.2575260258	-0.245288
C	 0.4190377026	-2.7914677171	-1.0546498092	-0.157547
C	 1.2659662997	-1.5378064168	-1.2258791211	-0.110018
O	 1.1314763358	-0.6281120692	-0.1243843889	-0.243105
H	 0.9437708077	 1.4674123017	 0.9619703767	 0.227811
H	-1.8661512262	 0.4147897994	-0.5123944221	 0.269727
H	-2.6664779632	-1.4864066025	-1.2569458564	 0.118737
H	 0.6047241471	-3.2064306106	-0.0541694712	 0.125862
H	 0.7760399642	-3.544699105	-1.7689047663	 0.113931
H	 2.3273882027	-1.797682707	-1.2360140353	 0.126773
H	 1.0261947009	-1.0260328816	-2.1654538355	 0.126288
87.1353	123.4142	287.7133	330.831	413.6562	480.1145	495.8247	612.8903	644.8986	727.8111	765.9938	827.9829	870.7354	893.4143	933.4806	959.5325	1012.3889	1065.204	1104.973	1155.1796	1193.0826	1260.2272	1312.4701	1339.1782	1387.2632	1429.8245	1460.3506	1473.3114	1485.6763	1501.9175	1742.0211	1767.4811	3013.4341	3035.5019	3050.9496	3108.084	3113.8837	3527.2901	3615.0289
N=C1NC=NCCO1	[NH][C]1NC=NCCO1	
InChI=1S/C4H7N3O/c5-4-7-3-6-1-2-8-4/h3H,1-2H2,(H2,5,6,7)	InChI=1S/C4H7N3O/c5-4-7-3-6-1-2-8-4/h3H,1-2H2,(H2,5,6,7)
