17
gdb 110658	3.68975	1.4626	1.25163	1.3774	74.11	-0.2374	-0.0461	0.1913	1028.2268	0.136132	-417.889264	-417.881829	-417.880885	-417.921462	28.276	
C	 0.0483032503	 1.2041756278	 0.4473581849	-0.246136
O	-0.0142256318	-0.1083442646	-0.0854021078	-0.223974
C	-1.29147436	-0.6038133702	-0.1664887586	 0.1365
C	-1.4994109182	-2.0777901982	-0.6378896174	-0.129591
C	-1.5739472624	-3.2167178229	 0.3954914341	-0.0462
C	-1.0791752117	-3.09062862	 1.8425685821	-0.185861
N	-1.1830404134	-1.6209468421	 2.0440257414	-0.186195
C	-1.9281701275	-1.2254730555	 1.0915929461	 0.070902
N	-2.667747987	-2.2527042888	 0.2850557513	-0.134618
H	 1.0926057849	 1.5174610588	 0.4002555227	 0.135522
H	-0.565559824	 1.9045424469	-0.138635535	 0.109344
H	-0.2888531609	 1.217131126	 1.491538778	 0.138177
H	-1.9562313724	 0.0404768241	-0.7620654228	 0.097317
H	-1.6139520388	-2.3135420441	-1.6944776678	 0.111609
H	-1.7499088233	-4.2020007517	-0.0320668983	 0.103293
H	-1.7064323171	-3.6997236593	 2.5089743688	 0.121307
H	-0.0341824867	-3.3690766863	 2.0079651182	 0.128603
71.1867	153.4251	179.425	253.958	348.6225	368.358	512.0222	570.0736	659.0301	694.3791	773.0788	800.8978	832.0771	866.6119	919.6173	943.4772	978.9204	1000.0555	1008.4626	1044.84	1067.0037	1101.2816	1147.767	1163.2732	1174.1811	1193.6485	1219.5371	1248.7373	1281.2535	1318.7632	1343.2727	1384.4949	1483.2802	1484.1374	1488.0094	1503.7907	1632.0306	2988.9947	2995.24	3009.8824	3059.1783	3083.78	3127.1581	3134.0596	3143.8977
COC1C2C3CN=C1N23	CO[C@H]1[C@H]2[C@H]3C[N][C]1N23	
InChI=1S/C6H8N2O/c1-9-5-4-3-2-7-6(5)8(3)4/h3-5H,2H2,1H3	InChI=1S/C6H8N2O/c1-9-5-4-3-2-7-6(5)8(3)4/h3-5H,2H2,1H3/t3-,4-,5+,8?/m1/s1
