16
gdb 46263	3.03917	1.51079	1.25905	3.8084	69.42	-0.2402	-0.0305	0.2097	1009.7625	0.123603	-437.825843	-437.81834	-437.817396	-437.858107	28.625	
O	-0.0421558132	 0.0226600206	-0.2713479178	-0.27979
C	-0.0514927267	 1.197472657	-0.0660950674	 0.334694
C	-1.1283853241	 2.2425209069	 0.278632349	-0.285417
N	-0.0224669439	 3.1935179621	 0.5815864303	-0.379499
C	 1.0118370999	 2.3017687513	 0.0065882974	 0.222611
C	 2.4058143458	 2.2060210275	 0.7096455594	-0.320798
C	 3.0576309425	 2.6482472573	-0.6090934624	 0.037883
O	 2.6753381286	 1.6934770648	-1.6067880872	-0.223176
C	 1.7546765273	 2.7317815633	-1.2881310626	-0.06483
H	-1.7567660589	 2.4950721538	-0.5861215622	 0.125396
H	-1.7750299222	 2.013558868	 1.1317594686	 0.13622
H	-0.1032495884	 4.0927663164	 0.1192010547	 0.22422
H	 2.4670893586	 2.9497856989	 1.5073708399	 0.124109
H	 2.7092156548	 1.2236175705	 1.0776943597	 0.128381
H	 3.9776037451	 3.1954430262	-0.7762104511	 0.112624
H	 1.3868376546	 3.3589129153	-2.0943432084	 0.107373
98.821	112.2678	157.2553	308.7187	337.2351	441.0825	450.7338	538.4485	600.6225	676.4138	748.3192	790.4539	842.4167	850.923	882.309	914.2087	967.0209	986.7924	991.6526	1025.3199	1045.94	1067.8056	1104.1963	1140.9919	1167.2286	1195.9524	1224.86	1254.316	1262.8797	1276.8643	1359.2451	1383.6384	1461.0574	1476.3284	1915.2508	3017.2275	3072.6147	3079.0286	3136.9147	3165.588	3195.9248	3530.5304
O=C1CNC11CC2OC12	O=C1CN[C@]21C[C@H]1O[C@@H]21	
InChI=1S/C6H7NO2/c8-4-2-7-6(4)1-3-5(6)9-3/h3,5,7H,1-2H2	InChI=1S/C6H7NO2/c8-4-2-7-6(4)1-3-5(6)9-3/h3,5,7H,1-2H2/t3-,5-,6+/m1/s1
