12
gdb 5340	6.05524	1.60911	1.27128	0.0375	73.11	-0.2552	-0.0642	0.191	877.5911	0.085425	-340.395789	-340.389547	-340.388602	-340.426168	23.373	
C	 0.0038788324	-1.1928841968	-0.0035569144	-0.366719
C	 0.0266713334	 0.0100901916	 0.0025029693	 0.236291
C	 0.005293816	 1.4369850976	 0.0102871631	 0.156733
C	-1.2191813539	 2.1267803428	 0.0304395347	-0.052573
N	-1.2871313817	 3.4545765569	 0.0383436027	-0.230263
C	-0.1215912881	 4.105358219	 0.0260435524	-0.002708
C	 1.0967836775	 3.4284726366	 0.0060466518	-0.021602
N	 1.1741795111	 2.1001868591	-0.0019890785	-0.293052
H	-0.0007057137	-2.2551458202	-0.0091445292	 0.204094
H	-2.1553883873	 1.5760066731	 0.0401764315	 0.126746
H	-0.1590309264	 5.1912562313	 0.0322619888	 0.122769
H	 2.0368401808	 3.9743547888	-0.0037626021	 0.120285
134.9566	156.7695	324.9202	425.0587	496.7251	544.0793	571.8402	631.747	639.3615	662.5485	786.5478	824.2479	881.1858	972.6941	997.2158	1025.8996	1078.0391	1195.3666	1234.4096	1259.9159	1319.0409	1422.7244	1495.7078	1569.715	1603.6992	2232.4316	3157.6077	3173.0478	3178.4833	3501.0477
C#CC1=CN=CC=N1	C#Cc1cnccn1	
InChI=1S/C6H4N2/c1-2-6-5-7-3-4-8-6/h1,3-5H	InChI=1S/C6H4N2/c1-2-6-5-7-3-4-8-6/h1,3-5H
