15
gdb 15473	3.38767	1.8019	1.2516	2.3417	67.18	-0.2253	-0.0259	0.1994	935.3085	0.118906	-362.64072	-362.633239	-362.632295	-362.672729	27.863	
O	-0.0833863712	 0.0659006964	 0.3204750477	-0.290857
C	-0.105194091	 1.2589431237	 0.215189124	 0.386936
C	-1.3503546663	 2.1507343645	 0.0757488636	-0.283718
N	-0.8843633973	 3.5139180451	-0.1837823336	-0.290581
C	 0.4527465953	 3.5988597641	 0.4217979298	-0.194383
C	 1.1232496567	 2.2161976748	 0.1945734621	-0.304717
C	 2.1824139139	 1.8545108192	 1.1116679483	 0.330056
C	 3.050462358	 1.5784393457	 1.8955332209	-0.437478
H	-2.0229437956	 1.7783595149	-0.7004853413	 0.137528
H	-1.8977873659	 2.1046053278	 1.0283242671	 0.143437
H	-0.8026011693	 3.6532448482	-1.1858096781	 0.226071
H	 1.0219650944	 4.4247226114	-0.0073489738	 0.121819
H	 0.3543848249	 3.7800989914	 1.4982304208	 0.126915
H	 1.498095545	 2.1801949137	-0.8402472461	 0.129348
H	 3.8194130685	 1.3231007591	 2.5818108987	 0.199625
73.5968	133.2142	176.3882	265.8677	387.9428	437.3515	486.9014	558.4848	567.2837	628.4885	641.0453	663.9853	720.5532	810.3081	912.03	955.7606	981.0272	1017.7894	1049.9811	1102.2954	1122.1459	1173.7833	1231.9865	1274.9441	1300.8901	1321.1567	1362.6543	1459.9519	1466.5878	1500.6925	1863.1246	2240.284	2991.201	3012.623	3047.7544	3107.5559	3123.3863	3504.8086	3518.091
O=C1CNCC1C#C	O=C1CNC[C@H]1C#C	
InChI=1S/C6H7NO/c1-2-5-3-7-4-6(5)8/h1,5,7H,3-4H2	InChI=1S/C6H7NO/c1-2-5-3-7-4-6(5)8/h1,5,7H,3-4H2/t5-/m1/s1
