20
gdb 39669	3.87303	1.06099	1.02929	1.3842	78.83	-0.2464	0.022	0.2684	1248.1245	0.173359	-403.152205	-403.144134	-403.14319	-403.185822	30.17	
C	-0.0691369856	 1.5236144188	-0.070095643	-0.209485
C	 1.4831104454	 1.4988370215	-0.0522145908	-0.235107
C	 1.412967235	 0.0787081993	 0.5741556895	 0.034117
C	-0.0610762523	-0.0219648909	 0.0832154775	-0.228991
C	 2.4334794966	-0.9685490206	 0.1357500327	-0.015718
C	 2.1781415664	-2.3857435697	 0.722232465	-0.123008
O	 2.1600183272	-3.2564294995	-0.436427876	-0.221375
C	 2.2830917573	-2.4295979501	-1.5008121413	 0.122882
N	 2.4312067032	-1.1842393629	-1.3280243928	-0.270106
H	-0.4794261782	 2.0176214247	 0.81558654	 0.097764
H	-0.5571666377	 1.9378221142	-0.9551393436	 0.097634
H	 1.8982155668	 1.4528497558	-1.0618281924	 0.126381
H	 2.0020946496	 2.2770075579	 0.5131777658	 0.089323
H	 1.4420835801	 0.1474401252	 1.6686221458	 0.067595
H	-0.7962926948	-0.4730999827	 0.7544369779	 0.08895
H	-0.1144971119	-0.5189083061	-0.8890652643	 0.113072
H	 3.4316159011	-0.6069540717	 0.4168805761	 0.087383
H	 2.962684866	-2.7346483566	 1.3973458108	 0.120205
H	 1.2088594881	-2.4703269145	 1.2247128886	 0.117706
H	 2.2472087375	-2.9329335322	-2.4611135958	 0.14078
57.7957	86.4497	115.3941	196.5182	251.1184	368.4207	449.7875	564.5942	676.3252	709.6451	769.4787	787.7748	869.7113	883.6565	911.3259	936.0375	947.5627	962.4768	965.3688	978.8429	990.6281	1009.1751	1090.8002	1129.396	1140.0356	1148.2601	1204.1288	1219.9915	1246.7199	1260.2385	1262.0704	1275.9467	1285.723	1304.1475	1318.3619	1354.8226	1370.4613	1384.2719	1477.1576	1484.7862	1508.8742	1515.7996	1706.5961	3008.6818	3028.9021	3048.0901	3054.1805	3057.9959	3064.4505	3100.0505	3105.0056	3114.3142	3125.9505	3211.452
C1CC(C1)C1COC=N1	C1CC(C1)[C@H]1COC=N1	
InChI=1S/C7H11NO/c1-2-6(3-1)7-4-9-5-8-7/h5-7H,1-4H2	InChI=1S/C7H11NO/c1-2-6(3-1)7-4-9-5-8-7/h5-7H,1-4H2/t7-/m1/s1
