16
gdb 7656	4.71782	1.28781	1.11391	3.4298	62.38	-0.236	0.0556	0.2917	1049.2632	0.13087	-417.073955	-417.06575	-417.064806	-417.106995	29.693	
N	-0.0671721135	 1.372425424	 0.1953440863	-0.555181
C	 0.0314806478	-0.0120649823	 0.1868862321	 0.413416
O	 1.093134749	-0.606699346	 0.1592471805	-0.392339
N	-1.1823228583	-0.6618429582	 0.1883742697	-0.113117
C	-2.4620743574	-0.2223149881	-0.3950481448	-0.196119
C	-2.8108321958	-1.7075452757	-0.6489154463	 0.108626
O	-3.1876090902	-1.9360640827	-1.9821577074	-0.423908
C	-1.3465416559	-2.0564098462	-0.2381227565	-0.193255
H	 0.8027299953	 1.8257086337	 0.4298054061	 0.260161
H	-0.8823055959	 1.785810846	 0.6219928446	 0.251239
H	-3.1183020104	 0.327826747	 0.287832681	 0.106138
H	-2.3522211833	 0.335244059	-1.3322382744	 0.130687
H	-3.5543500588	-2.0987712154	 0.0563399475	 0.07996
H	-3.3569060755	-2.8768898117	-2.0955383055	 0.289384
H	-0.7149072268	-2.3204787128	-1.0932868664	 0.123274
H	-1.2112037102	-2.7928640107	 0.5593906335	 0.111032
58.0976	105.7613	180.5045	194.4204	272.3685	382.0986	397.3806	420.4195	470.2555	538.421	565.3224	664.4895	778.068	797.0419	883.0899	942.82	980.1067	1055.7944	1079.17	1131.2793	1138.1515	1183.2309	1192.0352	1202.8568	1242.1587	1286.1821	1316.1454	1329.2943	1420.0411	1446.8267	1499.0624	1521.3844	1621.8454	1793.4643	3022.7036	3028.1244	3042.2704	3080.0674	3094.4294	3577.3362	3693.9016	3816.951
NC(=O)N1CC(O)C1	NC(=O)N1CC(O)C1	
InChI=1S/C4H8N2O2/c5-4(8)6-1-3(7)2-6/h3,7H,1-2H2,(H2,5,8)	InChI=1S/C4H8N2O2/c5-4(8)6-1-3(7)2-6/h3,7H,1-2H2,(H2,5,8)
