18
gdb 71793	3.02054	1.94436	1.75947	2.3132	73.88	-0.2095	0.0649	0.2744	856.6854	0.149755	-401.855403	-401.848983	-401.848039	-401.885687	27.61	
O	-0.0269765021	 1.4302895852	 0.0424185448	-0.488055
C	 0.0050862326	 0.039521676	-0.0262603693	 0.391069
C	 0.4653801078	-0.727400187	-1.2789821826	-0.244233
N	-0.5151174883	-1.8173166273	-0.9355758717	-0.163012
C	-0.098963629	-2.563210267	 0.3336691108	 0.001888
C	 1.199180799	-2.0371237147	 0.981740157	-0.249063
C	 0.4185033553	-0.744390408	 1.2946115474	-0.124371
C	-0.9259144315	-1.5615820602	 1.2044853207	-0.047739
C	-1.2938711842	-0.8143204048	-0.0872759776	-0.042886
H	 0.8482042989	 1.7455438758	 0.2958974024	 0.276605
H	 0.1283880665	-0.2314447643	-2.1949824491	 0.110275
H	 1.5088677472	-1.033330893	-1.3985652844	 0.096703
H	-0.2761461634	-3.636686458	 0.2566299826	 0.074836
H	 1.3955651067	-2.5976827573	 1.9021176909	 0.102652
H	 2.1225442377	-1.9913952626	 0.3963881884	 0.096976
H	 0.6876021491	-0.1066293021	 2.1374234221	 0.065003
H	-1.5635843825	-1.8170078866	 2.048031301	 0.069663
H	-2.2677778397	-0.4717373539	-0.4378575033	 0.07369
198.1127	265.3445	337.5936	426.4181	432.6982	471.3138	576.9765	663.1662	702.1176	742.402	766.8432	835.1831	838.6023	888.9694	903.9968	933.2537	943.6022	965.6465	974.4367	993.9516	1015.7157	1074.9542	1099.5913	1118.3605	1133.0419	1160.8501	1176.8713	1193.0164	1201.5154	1203.7891	1217.0748	1244.7007	1270.6304	1282.3909	1296.7753	1308.8588	1380.6389	1477.6303	1517.2078	3039.6977	3046.1726	3088.7975	3094.8716	3098.308	3103.0297	3104.8798	3135.1605	3789.6832
OC12CN3C4CC1C4C23	O[C@@]12CN3[C@H]4C[C@@H]1[C@H]4[C@@H]23	
InChI=1S/C7H9NO/c9-7-2-8-4-1-3(7)5(4)6(7)8/h3-6,9H,1-2H2	InChI=1S/C7H9NO/c9-7-2-8-4-1-3(7)5(4)6(7)8/h3-6,9H,1-2H2/t3-,4+,5-,6+,7+/m1/s1
