20
gdb 32830	5.0503	0.7326	0.67993	1.9905	83.98	-0.1928	0.049	0.2419	1688.8502	0.171005	-403.188069	-403.178268	-403.177324	-403.2236	35.321	
C	-0.1121831497	 1.5610395549	-0.0968565916	-0.499411
C	-0.0220982038	 0.0678488473	 0.0028644017	 0.295646
C	 0.0981892701	-0.8178515898	-1.0432961623	-0.18573
N	 0.1450265009	-2.0907596179	-0.5255259259	-0.299946
C	 0.0504912183	-2.0468347453	 0.8467497381	 0.309369
C	 0.1069325281	-3.2841042057	 1.6835439303	-0.301554
C	 1.5313199022	-3.8112783446	 1.886228145	-0.059992
O	 1.446022998	-4.9963749003	 2.6614316961	-0.418425
C	-0.0510836515	-0.7175270494	 1.1951789822	-0.329549
H	 0.7061273434	 2.0558752565	 0.4398793502	 0.120588
H	-0.0678061276	 1.8908689329	-1.1392274116	 0.114808
H	-1.0479353688	 1.9419734656	 0.3294292222	 0.121681
H	 0.1464249054	-0.6457829476	-2.1072193811	 0.108234
H	 0.2083504617	-2.9339033853	-1.0688404312	 0.254075
H	-0.3272448738	-3.0776253709	 2.6662606561	 0.121788
H	-0.4941983756	-4.0884325661	 1.2399484974	 0.105529
H	 1.9982719198	-4.0051468503	 0.9066007844	 0.078402
H	 2.1351291064	-3.0389419488	 2.3862413087	 0.095223
H	 2.3388217741	-5.3059042322	 2.8390644158	 0.286384
H	-0.1410175476	-0.344000193	 2.2052943357	 0.082879
45.8739	90.0422	97.1072	111.3621	236.3961	254.0674	257.8519	340.3975	355.7198	390.4515	464.8614	621.5104	639.3719	684.7699	715.463	770.2053	794.3636	809.4677	983.6186	991.5496	1003.8567	1009.111	1049.0862	1064.3746	1076.7345	1135.0825	1171.7633	1209.6677	1239.5046	1273.3478	1307.8222	1313.8237	1343.2723	1418.2449	1422.1159	1453.6191	1460.2468	1483.7357	1486.8601	1503.897	1526.4966	1546.0541	1636.7208	2965.0164	3002.2438	3021.3231	3028.6919	3067.9956	3092.2693	3100.2594	3231.9808	3253.833	3678.3135	3830.781
CC1=CNC(CCO)=C1	Cc1c[nH]c(CCO)c1	
InChI=1S/C7H11NO/c1-6-4-7(2-3-9)8-5-6/h4-5,8-9H,2-3H2,1H3	InChI=1S/C7H11NO/c1-6-4-7(2-3-9)8-5-6/h4-5,8-9H,2-3H2,1H3
