17
gdb 132509	3.01972	1.34842	0.94301	1.2838	79.63	-0.2387	-0.0228	0.2158	1208.9506	0.135044	-426.051132	-426.042536	-426.041592	-426.085003	31.292	
C	-0.0415883085	 1.5003711387	 0.0302257997	-0.466409
C	-0.0221746486	-0.0056759078	-0.0236099191	 0.314252
C	-0.0659653916	-0.6985788072	-1.2331707272	-0.166707
C	-0.0452032199	-2.0905025846	-1.2191550481	-0.19897
C	 0.0185002015	-2.7170752055	 0.0088881385	 0.218687
F	 0.0410949144	-4.0552737984	 0.0815382551	-0.078367
C	 0.0604159537	-1.9755584353	 1.1920764474	 0.19631
C	 0.1298062715	-2.6632401348	 2.5279976156	-0.485093
N	 0.0395388272	-0.6422166942	 1.1564030108	-0.35981
H	 0.8556261981	 1.8772730091	 0.5315641777	 0.138821
H	-0.0922508025	 1.939711013	-0.9690216002	 0.116262
H	-0.9014490997	 1.8518366239	 0.6094536391	 0.13882
H	-0.1155742931	-0.1606037623	-2.1732478406	 0.101652
H	-0.0771283067	-2.6799283094	-2.1284100028	 0.118094
H	 1.0222829791	-3.2939372226	 2.6031175514	 0.136366
H	 0.1541107946	-1.912198848	 3.318128893	 0.139727
H	-0.7339071394	-3.3193224046	 2.6812694197	 0.136366
59.0598	84.7414	134.0577	211.717	264.9485	309.1391	363.37	461.3613	467.0048	499.799	582.6806	600.2156	717.054	761.8572	776.1053	851.1549	943.1825	963.2877	984.3879	1044.0033	1054.3478	1064.376	1138.7441	1185.8884	1271.5393	1289.2496	1322.4498	1400.9293	1409.5477	1429.1253	1476.293	1477.3484	1481.5821	1494.2505	1503.6991	1627.2279	1636.2858	3038.5818	3040.4666	3091.1983	3100.0939	3123.8618	3149.7599	3186.8599	3204.7091
CC1=CC=C(F)C(C)=N1	Cc1ccc(F)c(C)n1	
InChI=1S/C7H8FN/c1-5-3-4-7(8)6(2)9-5/h3-4H,1-2H3	InChI=1S/C7H8FN/c1-5-3-4-7(8)6(2)9-5/h3-4H,1-2H3
