19
gdb 119516	4.11829	0.93356	0.87309	1.794	75.47	-0.1995	0.0678	0.2673	1363.0904	0.158773	-419.083528	-419.074991	-419.074047	-419.11715	32.6	
O	-0.105379869	 1.4676348193	-0.0905626735	-0.420289
C	-0.0253118016	 0.0539142065	-0.1828636427	-0.065212
C	-1.3930252114	-0.5107700366	 0.1996532804	-0.325714
C	-1.4210396575	-2.0068233212	 0.1943022625	 0.362436
N	-1.4371059214	-2.8217788034	-1.0473028546	-0.351611
C	-2.5103035197	-2.9832846309	-0.0321940704	-0.144186
C	-1.9705424981	-3.874427779	 1.1316849318	-0.055395
N	-0.5726206586	-4.2672806417	 0.828335508	-0.307747
C	-0.8694271027	-2.9143298338	 1.3566428826	-0.114599
H	 0.7479393744	 1.8341871553	-0.339523283	 0.286977
H	 0.2370005938	-0.2714213496	-1.2012925414	 0.097822
H	 0.7441733507	-0.3506112017	 0.4940596077	 0.092085
H	-1.6569163304	-0.1324230579	 1.1954887369	 0.111128
H	-2.1461356581	-0.1184074344	-0.4947638191	 0.10422
H	-1.8290599536	-2.2197185467	-1.7738036251	 0.222983
H	-3.5530668093	-2.8230246879	-0.2756170503	 0.093881
H	-2.5787946859	-4.4215693605	 1.8396662031	 0.0943
H	-0.2557383308	-4.8192711865	 1.6269103474	 0.226961
H	-0.4355519309	-2.5488183493	 2.2789277595	 0.091964
74.5884	100.2127	109.2779	264.5804	289.6999	306.8129	342.3738	422.581	452.3743	618.4571	687.0996	742.0843	779.3852	804.2686	823.4016	833.7812	878.2273	906.2425	919.5224	939.8885	993.5434	1016.7535	1026.8774	1066.4147	1083.7459	1092.5303	1106.2459	1150.0252	1205.8374	1229.854	1243.326	1247.2731	1294.2436	1302.5685	1328.4385	1347.9724	1363.9552	1445.058	1462.038	1480.1396	1526.5593	2971.3525	3000.4994	3023.6983	3066.8118	3187.2764	3192.4789	3205.81	3449.5804	3456.4999	3831.1724
OCCC12NC1C1NC21	OCC[C@]12N[C@H]1[C@H]1N[C@@H]21	
InChI=1S/C6H10N2O/c9-2-1-6-4-3(7-4)5(6)8-6/h3-5,7-9H,1-2H2	InChI=1S/C6H10N2O/c9-2-1-6-4-3(7-4)5(6)8-6/h3-5,7-9H,1-2H2/t3-,4+,5-,6+/m0/s1
