17
gdb 41250	2.95767	2.15242	1.72547	1.2297	70.56	-0.2454	0.0483	0.2937	830.6229	0.138199	-421.720936	-421.714978	-421.714034	-421.750878	25.688	
C	-0.0940524389	 1.5774970385	 0.0012902548	-0.247933
C	 1.4479838935	 1.4973349952	-0.0225826365	-0.163916
C	 1.2886880295	 0.0459358721	 0.8107665126	 0.069297
O	 1.7985089772	-1.0863226646	 0.0545502699	-0.341179
C	 1.0044363568	-0.478547009	-0.9956799123	 0.366947
C	 0.709941649	-0.5921858345	-2.4909178974	-0.203876
O	 0.9491640499	 0.8522791933	-2.5791728183	-0.315791
C	 1.7382056057	 0.7916406992	-1.3386707966	 0.1467
C	-0.0393915686	 0.0477106301	 0.0540395261	-0.10032
H	-0.4789364609	 1.9904754315	 0.9374946134	 0.101028
H	-0.5723696776	 2.0577707898	-0.8531256584	 0.120871
H	 2.0822992522	 2.3092909396	 0.3266269457	 0.071466
H	 1.4608812939	 0.0001681304	 1.8838296023	 0.097254
H	 1.4493747819	-1.159553106	-3.0696795104	 0.117735
H	-0.3057322289	-0.8594337091	-2.7960263743	 0.11692
H	 2.7993171882	 0.6670609954	-1.5712512973	 0.084421
H	-0.8657049029	-0.6159866319	 0.3050234268	 0.080377
252.9585	266.9872	381.4435	452.8702	485.4221	587.3731	642.7359	668.3223	738.378	779.5944	848.1616	861.3569	900.7737	910.3627	939.4244	940.6959	954.0755	987.6833	1020.6902	1026.271	1049.762	1075.0013	1116.3336	1123.5814	1148.0579	1181.7696	1188.6651	1220.6747	1242.565	1245.4521	1277.8794	1296.6131	1331.5964	1335.3568	1364.2167	1492.6163	1505.9587	3025.869	3069.5202	3071.9229	3095.6349	3128.5427	3133.659	3140.6745	3154.7815
C1C2C3OC4(COC24)C13	C1[C@H]2[C@@H]3O[C@@]4(CO[C@@H]24)[C@H]13	
InChI=1S/C7H8O2/c1-3-5-4(1)7(9-5)2-8-6(3)7/h3-6H,1-2H2	InChI=1S/C7H8O2/c1-3-5-4(1)7(9-5)2-8-6(3)7/h3-6H,1-2H2/t3-,4+,5-,6-,7-/m0/s1
