16
gdb 24012	4.12241	1.24517	1.03094	1.7058	82.92	-0.2013	0.0197	0.2209	1135.8986	0.125248	-363.575288	-363.567741	-363.566797	-363.607767	29.043	
C	-0.6432151388	-1.3309846347	-0.1022054871	-0.430628
C	-0.3079219572	-0.1793341626	-0.0319761111	 0.333065
C	 0.0751346197	 1.2176958152	 0.0548898261	-0.170645
C	-0.1527387704	 1.9720256159	 1.4390338521	-0.397666
C	 1.3448628856	 2.2147712725	 1.4010436282	 0.333552
C	 2.5421489206	 2.7989376017	 1.7412543125	-0.328577
C	 3.4576097827	 2.383176018	 0.718951655	-0.125585
C	 2.796819396	 1.5941597348	-0.2096985928	-0.159583
N	 1.5142974035	 1.4960227096	 0.2572441023	 0.040881
H	-0.9334342382	-2.3510250405	-0.1626570927	 0.206556
H	-0.334383437	 1.7782153024	-0.7926146229	 0.127064
H	-0.7969727643	 2.8511340971	 1.3581554821	 0.127221
H	-0.5235641995	 1.321107487	 2.2338255103	 0.131985
H	 2.7655349588	 3.4289212345	 2.5874068303	 0.096291
H	 4.5097468622	 2.6257281288	 0.6823807629	 0.093929
H	 3.1453846563	 1.0907403301	-1.0959596553	 0.122139
53.5172	130.8598	188.4412	260.2832	391.4862	483.4627	547.2792	601.9239	628.4975	652.6265	670.2182	694.8463	736.0639	755.684	764.9321	827.76	854.8525	931.9456	994.7696	1022.4916	1035.3743	1073.1775	1108.8621	1117.8411	1198.8177	1218.8859	1250.1806	1292.0386	1342.764	1413.7876	1430.4798	1474.1592	1497.0587	1585.2626	2240.7046	3047.2349	3066.2624	3117.0739	3236.6692	3260.4943	3276.3746	3502.0183
C#CC1CC2=CC=CN12	C#C[C@H]1Cc2cccn12	
InChI=1S/C8H7N/c1-2-7-6-8-4-3-5-9(7)8/h1,3-5,7H,6H2	InChI=1S/C8H7N/c1-2-7-6-8-4-3-5-9(7)8/h1,3-5,7H,6H2/t7-/m0/s1
