18
gdb 28004	3.42792	1.10815	0.84619	2.9112	84.65	-0.221	-0.0288	0.1922	1345.7969	0.147173	-402.021316	-402.012326	-402.011382	-402.055008	32.771	
C	 0.0068801041	 1.5192178256	 0.0089272307	-0.498959
C	 0.0131863347	 0.0225344289	 0.0014484266	 0.183898
C	 0.0017411593	-0.7917932256	-1.0911944089	-0.178618
N	 0.012986371	-2.1152695912	-0.6573529798	-0.045345
C	 0.0061237448	-3.230599395	-1.4790742348	 0.181352
O	 0.016199325	-4.3683445335	-1.0841013491	-0.300047
C	 0.0323337181	-2.1258712316	 0.7325848539	-0.173837
C	 0.0328659714	-0.8345853238	 1.1719198692	 0.183615
C	 0.0503637623	-0.3720197431	 2.5953189927	-0.499352
H	 0.891938842	 1.9245293214	 0.5139582538	 0.129809
H	-0.0081874257	 1.9207283848	-1.0079247795	 0.124526
H	-0.8680357404	 1.9170288865	 0.5370769544	 0.129822
H	-0.0135386268	-0.5630490289	-2.1453947437	 0.13412
H	-0.0097512019	-2.9474799503	-2.5474155912	 0.092112
H	 0.0435067304	-3.0666454584	 1.2567494971	 0.150277
H	 0.9304202274	 0.2468017293	 2.8082281528	 0.128816
H	-0.829693177	 0.2377952008	 2.8328342013	 0.128836
H	 0.0643408115	-1.2193623258	 3.2857551344	 0.128976
105.2216	138.228	142.1211	186.4142	208.3351	230.7765	282.4657	337.4655	399.7014	509.1387	602.2473	615.9137	652.0089	720.999	729.6005	794.6913	816.2022	1000.593	1018.4813	1024.2503	1026.7239	1052.0269	1074.0511	1171.9144	1186.0252	1236.8323	1325.8063	1373.0427	1414.2137	1416.5874	1437.5537	1448.1922	1477.5885	1485.6854	1485.9472	1504.2146	1575.2981	1655.5843	1818.8971	2972.0708	3022.78	3024.1038	3069.853	3070.1303	3110.603	3113.8443	3254.3853	3282.8861
CC1=CN(C=O)C=C1C	Cc1cn(C=O)cc1C	
InChI=1S/C7H9NO/c1-6-3-8(5-9)4-7(6)2/h3-5H,1-2H3	InChI=1S/C7H9NO/c1-6-3-8(5-9)4-7(6)2/h3-5H,1-2H3
