16
gdb 67931	1.98627	1.88005	1.26229	4.809	70.29	-0.2453	-0.0461	0.1992	1034.6172	0.122899	-437.888933	-437.880596	-437.879652	-437.922066	30.622	
C	 0.0622672607	 1.5824867383	 0.0814060674	-0.482968
C	 0.1102833217	 0.085908491	 0.0403919509	 0.340108
N	-1.1268792293	-0.6956206625	-0.1580025047	-0.382289
C	-0.7271850539	-1.67217178	 0.7783924524	 0.442677
O	-1.2426787662	-2.6871059368	 1.1442383978	-0.333391
C	 0.5584557069	-0.9186076427	 1.0926768132	-0.304326
C	 1.3285476315	-0.7381182449	-0.2444055949	-0.16415
C	 1.41703877	-1.8206500664	-1.2741065234	 0.150831
O	 0.5698123642	-2.0693138996	-2.0969591616	-0.258026
H	 1.0091413287	 1.9928086105	 0.4442304046	 0.127068
H	-0.1186420109	 1.993263787	-0.9178210895	 0.137201
H	-0.7440500434	 1.9199021358	 0.7386941711	 0.141918
H	-1.4215553301	-0.9782992376	-1.0870027773	 0.256609
H	 1.0475481652	-0.7743988081	 2.0462062025	 0.122675
H	 2.2824623193	-0.2392137119	-0.0746447914	 0.116142
H	 2.3606876856	-2.407919242	-1.2328365672	 0.089922
74.9571	131.4344	177.6418	209.5923	222.7995	298.0624	364.6198	420.3114	478.8416	590.2306	649.7889	699.7282	733.955	812.1126	824.1334	871.8805	895.2445	936.4993	975.9229	1030.1759	1061.9986	1086.6536	1104.2239	1141.6489	1198.295	1266.1478	1290.5474	1344.8329	1414.1812	1429.6529	1467.2816	1480.068	1499.539	1809.9901	1906.7697	2891.4398	3038.5265	3103.5212	3120.8984	3123.6453	3218.5471	3549.8971
CC12NC(=O)C1C2C=O	C[C@]12NC(=O)[C@H]1[C@H]2C=O	
InChI=1S/C6H7NO2/c1-6-3(2-8)4(6)5(9)7-6/h2-4H,1H3,(H,7,9)	InChI=1S/C6H7NO2/c1-6-3(2-8)4(6)5(9)7-6/h2-4H,1H3,(H,7,9)/t3-,4-,6-/m1/s1
