20
gdb 81543	4.07066	1.22732	1.08007	2.6088	79.24	-0.2342	0.0739	0.3081	1169.5552	0.171402	-403.042848	-403.034855	-403.033911	-403.075293	31.16	
C	-0.1483570535	 1.5982794199	 0.1410547684	-0.449766
C	 0.0304188435	 0.1035366805	-0.0408156631	 0.097485
C	 0.8474378318	-0.5418593006	-1.1931596608	-0.159338
C	 2.0959424675	-0.0845905284	-0.4099392069	-0.190364
N	 1.1852703316	-0.6036371457	 0.7227333498	-0.196914
C	 0.9079736946	-1.7560376539	-0.2510991983	 0.365677
C	-0.1915297111	-2.789234928	 0.0278035503	-0.175912
O	 0.7500710605	-3.8700780335	-0.1349963584	-0.280006
C	 1.852294389	-2.961683696	-0.3386296105	-0.178616
H	 0.7308715305	 2.1895634787	-0.1225028997	 0.122991
H	-0.9803558005	 1.9453558285	-0.4809969958	 0.122861
H	-0.4004108326	 1.8156091281	 1.184204297	 0.134552
H	-0.9227989704	-0.3932097586	 0.1721677485	 0.076706
H	 0.6579544277	-0.5229897501	-2.2726401491	 0.066379
H	 3.0149434191	-0.6644279642	-0.5260915791	 0.107057
H	 2.3259531784	 0.9783608352	-0.3474847654	 0.104782
H	-0.6067774698	-2.7514665793	 1.0430560153	 0.11267
H	-1.0107735245	-2.8436199414	-0.7004561389	 0.103435
H	 2.3490884388	-3.1266391499	-1.3032071954	 0.103454
H	 2.5930225694	-3.0219612613	 0.4690124223	 0.112871
97.0156	163.9972	182.9409	210.4827	264.7795	378.7652	391.1187	428.6472	561.8396	637.5268	720.0875	782.3681	788.0409	821.8952	858.4997	911.8263	943.6765	980.8645	1020.9106	1034.4641	1039.4681	1068.447	1072.8205	1098.2214	1130.4724	1149.45	1158.8911	1177.0995	1184.6858	1187.4117	1211.9974	1238.6197	1268.1761	1291.6574	1305.9514	1387.5435	1406.7352	1436.2873	1493.2818	1493.585	1496.4725	1522.2656	1547.6235	3002.3654	3013.8175	3033.5462	3039.4018	3045.8087	3053.323	3053.9263	3076.3474	3101.9519	3124.1256	3145.3472
CC1C2CN1C21COC1	C[C@H]1[C@H]2CN1C12COC1	
InChI=1S/C7H11NO/c1-5-6-2-8(5)7(6)3-9-4-7/h5-6H,2-4H2,1H3	InChI=1S/C7H11NO/c1-5-6-2-8(5)7(6)3-9-4-7/h5-6H,2-4H2,1H3/t5-,6+/m0/s1
