16
gdb 26494	3.74988	1.32289	1.06985	1.7664	71.51	-0.2301	0.0039	0.234	1103.6736	0.124643	-437.897877	-437.8901	-437.889155	-437.930788	29.426	
O	-0.2196698361	 1.3002540172	-0.4050429101	-0.450732
C	-0.0354892049	-0.0433090449	-0.0776601561	 0.272971
C	-0.3302944681	-0.4959969526	 1.3469252522	-0.312027
C	-1.2855795752	-0.8149149562	 0.2264160061	-0.289668
C	 1.0558693388	-0.7263499159	-0.8050141568	 0.366498
N	 1.2924165437	-1.9964619371	-0.9149053403	-0.326359
C	 2.4709949097	-2.0674901508	-1.6476099018	-0.113473
C	 2.8870490193	-0.8167071996	-1.9448801135	-0.049259
O	 1.9838355495	 0.0624346337	-1.4047788384	-0.190521
H	 0.6042798306	 1.7672535702	-0.2260952435	 0.290474
H	 0.2717666476	-1.2990732427	 1.7555620808	 0.132702
H	-0.6100306093	 0.2902356352	 2.0390755754	 0.122388
H	-2.2056035801	-0.2449531997	 0.1703871235	 0.130584
H	-1.3340068427	-1.8348531206	-0.1347724111	 0.145308
H	 2.9224740616	-3.0116958477	-1.9076698572	 0.125653
H	 3.7113604057	-0.3876462087	-2.4869408391	 0.145462
40.1237	159.9819	175.5092	283.7412	330.688	336.9441	454.759	490.9847	554.6531	624.9823	738.2517	763.1715	781.1987	862.872	865.6085	900.2592	932.8405	936.2919	951.3872	1003.9531	1058.5084	1089.8851	1101.2048	1142.0972	1153.1875	1183.32	1200.561	1261.7485	1306.4781	1371.1655	1413.7362	1442.2306	1487.8616	1559.6663	1614.2991	3138.8675	3148.3724	3233.0712	3248.8343	3263.8308	3304.0782	3800.7765
OC1(CC1)C1=NC=CO1	OC1(CC1)c1ncco1	
InChI=1S/C6H7NO2/c8-6(1-2-6)5-7-3-4-9-5/h3-4,8H,1-2H2	InChI=1S/C6H7NO2/c8-6(1-2-6)5-7-3-4-9-5/h3-4,8H,1-2H2
