17
gdb 25960	4.71413	0.99213	0.83986	2.4738	75.03	-0.2133	-0.029	0.1843	1345.3333	0.136453	-418.075698	-418.067245	-418.066301	-418.109748	30.647	
C	 0.0785682337	 1.4530873584	-0.0670419796	-0.474094
C	-0.0935054032	 0.0240281613	 0.4014076591	 0.391965
O	 0.494513933	-0.4008572582	 1.3743754296	-0.311594
C	-1.0765242801	-0.8223485367	-0.4001670201	-0.432286
C	-0.9223037409	-2.3073055463	-0.2983506265	 0.357678
N	-1.3241363922	-3.1649599271	-1.21434847	-0.314978
C	-1.0234927171	-4.407151447	-0.7051401255	-0.093304
C	-0.4342472293	-4.2938610898	 0.52670607	-0.115421
N	-0.3839521616	-2.9431863075	 0.7793375875	-0.259793
H	 0.6308121265	 2.027958774	 0.676920925	 0.147393
H	 0.6321118688	 1.4586132207	-1.0136627681	 0.154518
H	-0.8919088821	 1.9200607602	-0.2651424434	 0.143068
H	-2.0743790246	-0.513197608	-0.0456196027	 0.153392
H	-1.0534300877	-0.5383312859	-1.4562955517	 0.149406
H	-1.2472472777	-5.3086168966	-1.2549266478	 0.102541
H	-0.0531579126	-5.019735995	 1.2253702192	 0.123714
H	 0.0555409871	-2.4528446562	 1.5441144649	 0.277797
48.5829	75.2386	143.7058	174.4932	260.2643	316.9028	348.4283	467.8153	577.735	619.8934	677.6139	717.3037	739.6635	761.8218	819.3006	854.1777	867.7908	935.271	975.3582	997.4783	1047.6444	1104.3723	1136.7008	1167.1177	1190.3621	1207.9284	1282.6577	1341.5898	1386.2222	1397.3834	1438.26	1461.6436	1475.4605	1475.8295	1505.6573	1582.7639	1796.1713	2979.9516	3037.7256	3091.3686	3100.0325	3155.8194	3248.1705	3280.6007	3625.6108
CC(=O)CC1=NC=CN1	CC(=O)Cc1ncc[nH]1	
InChI=1S/C6H8N2O/c1-5(9)4-6-7-2-3-8-6/h2-3H,4H2,1H3,(H,7,8)	InChI=1S/C6H8N2O/c1-5(9)4-6-7-2-3-8-6/h2-3H,4H2,1H3,(H,7,8)
