19
gdb 124522	4.04995	0.96607	0.94595	1.6266	78.05	-0.2736	-0.0112	0.2624	1369.0652	0.158438	-419.237439	-419.228059	-419.227115	-419.272394	33.549	
C	-0.0294638433	 1.5226901901	-0.027891032	-0.39395
C	-0.0208038259	-0.0159676557	 0.0398268418	-0.090695
C	 0.709707396	-0.5234489439	 1.2970218209	-0.393998
C	-1.4132836586	-0.5596285314	-0.0246495353	 0.428066
N	-1.9421922482	-1.3272771833	-0.9300624481	-0.357967
C	-3.2314349856	-1.4925692387	-0.4638275346	 0.348156
C	-4.2557372143	-2.3103707624	-1.1705905187	-0.488456
N	-3.4843419455	-0.8688824518	 0.6565557523	-0.172482
O	-2.2662235529	-0.2392944027	 0.9590942455	-0.211368
H	 0.9965964848	 1.9018971766	-0.0254173767	 0.120871
H	-0.5226252546	 1.8777697443	-0.9372562309	 0.129006
H	-0.553775285	 1.9478188573	 0.8328867107	 0.137203
H	 0.4824963136	-0.4090510824	-0.8485507094	 0.113697
H	 0.2123698588	-0.171319308	 2.2054627321	 0.137302
H	 0.7394099678	-1.6163993785	 1.3260308837	 0.128894
H	 1.7391349342	-0.1535365774	 1.3049649495	 0.120833
H	-3.9100331397	-3.3431768966	-1.2749584912	 0.147948
H	-5.197000039	-2.3002056517	-0.6192339841	 0.149003
H	-4.4240451426	-1.918627304	-2.1782545855	 0.147938
29.467	118.6532	139.6362	174.649	225.4812	259.2696	260.7202	286.6222	364.3785	415.7881	496.6387	626.1364	688.7641	722.9412	786.5654	886.6068	929.2467	937.7704	970.5768	994.8093	1033.9022	1054.9518	1071.8609	1073.5356	1119.278	1192.0165	1303.1935	1339.8862	1343.6515	1372.4528	1398.3563	1418.3175	1426.8141	1474.633	1475.6644	1488.5753	1490.2444	1501.6847	1511.2753	1570.1443	1627.4328	3041.102	3043.6873	3051.6538	3070.0704	3111.3283	3115.1168	3117.5862	3118.324	3124.2123	3150.6052
CC(C)C1=NC(C)=NO1	CC(C)c1nc(C)no1	
InChI=1S/C6H10N2O/c1-4(2)6-7-5(3)8-9-6/h4H,1-3H3	InChI=1S/C6H10N2O/c1-4(2)6-7-5(3)8-9-6/h4H,1-3H3
