15
gdb 7621	4.84412	1.32239	1.18345	4.5827	62.4	-0.2523	-0.0306	0.2217	1010.5463	0.117238	-399.840512	-399.832354	-399.83141	-399.874068	28.493	
C	-0.0032439946	 1.5150566185	-0.0209964742	-0.484495
C	 0.0696070924	 0.0014913344	-0.0504259599	 0.36839
O	 1.1129091227	-0.6063244928	-0.1030882317	-0.2905
C	-1.2645874945	-0.7337811267	 0.0089463485	-0.063809
C	-2.0155215257	-0.8646861721	-1.3601507416	-0.399404
C	-1.7143825968	-2.3794353972	-1.2240969844	 0.433143
O	-1.8675234472	-3.349534425	-1.9097467968	-0.339062
N	-1.1648679358	-2.1904784235	 0.0297936754	-0.309386
H	 0.9838901157	 1.9372364409	-0.2109618236	 0.151646
H	-0.7218515811	 1.8910126902	-0.7569468458	 0.143684
H	-0.3539513912	 1.8469498454	 0.9634871023	 0.148546
H	-1.8812987737	-0.3185147626	 0.8153923749	 0.099869
H	-3.0713595915	-0.5916307034	-1.3510638815	 0.139743
H	-1.5179269359	-0.3997905398	-2.2135737656	 0.141303
H	-0.4651277029	-2.7496953661	 0.4977176542	 0.260331
50.9146	79.2918	99.2539	187.1209	296.9992	349.4714	403.7961	482.1014	562.494	580.589	601.8889	728.5195	772.3551	916.0505	941.9578	962.8884	990.822	1045.1246	1060.2919	1117.1323	1172.6244	1191.3381	1202.7225	1264.6609	1353.4306	1377.4051	1387.8634	1456.6138	1462.7204	1474.268	1815.0804	1907.286	3031.3403	3039.1608	3087.3267	3098.2398	3149.0048	3156.2789	3605.3175
CC(=O)C1CC(=O)N1	CC(=O)[C@H]1CC(=O)N1	
InChI=1S/C5H7NO2/c1-3(7)4-2-5(8)6-4/h4H,2H2,1H3,(H,6,8)	InChI=1S/C5H7NO2/c1-3(7)4-2-5(8)6-4/h4H,2H2,1H3,(H,6,8)/t4-/m1/s1
