20
gdb 9338	7.68889	0.73334	0.6836	1.4617	72.92	-0.2453	-0.01	0.2353	1680.1526	0.173579	-386.156382	-386.146039	-386.145095	-386.193304	34.518	
C	 0.1419885105	 1.5043603017	 0.0075952927	-0.374998
C	-0.0502452132	-0.0100549566	 0.0020847553	-0.274627
C	-1.5120449878	-0.4393220231	 0.0139075974	 0.371509
O	-2.416892996	 0.3662140927	 0.0270995666	-0.300518
C	-1.7749753419	-1.9371722506	 0.0083775542	-0.313185
C	-3.2553121573	-2.2868916468	 0.0205711891	-0.05069
O	-3.36579881	-3.6943609227	 0.0141608216	-0.235951
C	-4.7022629283	-4.1343967953	 0.0245034747	-0.227927
H	 1.2053976395	 1.7590373528	-0.0008237023	 0.10964
H	-0.3309625622	 1.9606191462	-0.8656571672	 0.131167
H	-0.3150622389	 1.9521581266	 0.8935910222	 0.131211
H	 0.4266437251	-0.4685727903	-0.8753090816	 0.121122
H	 0.4429833676	-0.4769043878	 0.8659682778	 0.121156
H	-1.291927645	-2.382449311	-0.8711258049	 0.129061
H	-1.275407142	-2.391694413	 0.8738227473	 0.129074
H	-3.7415094457	-1.8578312509	 0.9105143181	 0.100081
H	-3.7582663146	-1.8484815904	-0.8553993834	 0.100066
H	-5.2396302003	-3.7905212801	 0.9227038301	 0.104379
H	-5.2565356066	-3.781065013	-0.8596437993	 0.104377
H	-4.6880732231	-5.2271306484	 0.0185712815	 0.125053
35.6925	49.39	83.4465	107.2125	118.7373	184.112	232.4644	245.5552	305.8683	337.1906	471.6505	495.3718	647.6745	717.3667	820.1932	830.4069	983.1012	987.8919	992.1306	1022.2183	1098.0893	1127.4631	1131.4567	1165.8269	1181.7446	1220.7631	1231.3257	1280.3955	1306.9872	1325.089	1376.5247	1413.4545	1423.1446	1448.8484	1462.623	1482.8596	1484.7256	1491.4732	1497.5888	1505.1794	1526.3679	1800.5284	2966.2957	2982.8478	3006.7518	3012.8437	3016.8158	3032.8246	3043.2806	3051.6941	3065.8528	3112.4111	3122.7989	3127.6623
CCC(=O)CCOC	CCC(=O)CCOC	
InChI=1S/C6H12O2/c1-3-6(7)4-5-8-2/h3-5H2,1-2H3	InChI=1S/C6H12O2/c1-3-6(7)4-5-8-2/h3-5H2,1-2H3
