18
gdb 92952	2.10873	1.55301	1.42016	2.0794	72.15	-0.247	-0.0322	0.2147	1053.9603	0.14624	-439.116544	-439.107583	-439.106639	-439.150742	32.642	
C	-0.4416107086	 1.2505683214	-0.1317377432	-0.412958
C	 0.1631750332	-0.1407906294	-0.0658497079	 0.063245
O	 1.2007064704	-0.2436527479	-1.0930277008	-0.227557
C	 2.3288561993	-0.5829386496	-0.448852388	 0.117635
N	 2.3228462619	-0.7673619291	 0.8081189919	-0.309785
C	 0.9183783347	-0.5589654111	 1.2341578143	 0.150838
C	 0.8705076628	 0.4256147118	 2.4107139926	-0.43872
C	 0.4327473414	-1.9198910824	 1.7508882094	 0.153816
O	-0.5599476264	-2.4881767415	 1.378910952	-0.251541
H	 0.2996164957	 2.0256387001	 0.0814557606	 0.126139
H	-0.8444170922	 1.4289649982	-1.1322504177	 0.134614
H	-1.262420796	 1.3448533446	 0.5850425371	 0.129236
H	-0.5916979092	-0.8952835835	-0.3010514328	 0.124111
H	 3.2037661555	-0.6717353146	-1.0843469	 0.145039
H	 1.3214912588	 1.3802314074	 2.1297861952	 0.133111
H	-0.1558938009	 0.6029146235	 2.7453274435	 0.127589
H	 1.4449604782	 0.0226573017	 3.2495983966	 0.134778
H	 1.1017481815	-2.3531313198	 2.5244188971	 0.100411
43.1951	77.0312	205.8369	220.9056	259.9581	286.2795	287.0114	321.6881	390.8183	479.8042	531.5667	591.5344	661.1056	743.3283	843.9396	882.5497	904.8242	940.663	970.2426	995.1428	1046.5474	1064.2053	1120.5865	1149.9284	1166.6493	1192.1939	1235.4361	1322.32	1352.2146	1393.6975	1401.1536	1412.2101	1417.0394	1476.5656	1486.3571	1496.4061	1507.0779	1688.6771	1831.2841	2912.9337	3043.5329	3049.0068	3083.9148	3118.3256	3122.5471	3123.7155	3130.2318	3209.8495
CC1OC=NC1(C)C=O	C[C@H]1OC=N[C@]1(C)C=O	
InChI=1S/C6H9NO2/c1-5-6(2,3-8)7-4-9-5/h3-5H,1-2H3	InChI=1S/C6H9NO2/c1-5-6(2,3-8)7-4-9-5/h3-5H,1-2H3/t5-,6-/m1/s1
