17
gdb 113750	3.56382	0.86456	0.76444	2.9852	69.59	-0.2675	0.0018	0.2693	1451.6518	0.135145	-455.108923	-455.09931	-455.098366	-455.144666	33.819	
O	-0.046273207	 1.373981387	-0.6559278096	-0.419444
C	 0.039870267	 0.2250623372	 0.1676789909	-0.0647
C	-1.3002585759	-0.4688638145	 0.2582430309	-0.041146
N	-1.7199957883	-1.2028896144	-0.9516766031	-0.3389
C	-1.4993749288	-1.941402617	 0.2976106292	-0.062777
C	-0.3378945961	-2.926739194	 0.3023097131	-0.011065
O	 0.3581901411	-2.9603951987	 1.5339449492	-0.409038
C	-0.8213036525	-4.2722341108	-0.0761770798	 0.255195
N	-1.2276134489	-5.3231831773	-0.3323678763	-0.313049
H	-0.3345949321	 1.0670592892	-1.5233976932	 0.290846
H	 0.8122563035	-0.4679816087	-0.1920498625	 0.094796
H	 0.3472176799	 0.5747566493	 1.1581003894	 0.120949
H	-2.0646008437	 0.1206235761	 0.7621449396	 0.100646
H	-2.7127656068	-1.0883907091	-1.1330586559	 0.246173
H	-2.3758916199	-2.2964070754	 0.8381206827	 0.103521
H	 0.3906547028	-2.6113807754	-0.4483945138	 0.151119
H	-0.2383120742	-3.2907045235	 2.215688759	 0.296873
31.0193	72.7838	112.7242	157.7731	207.1853	240.8753	286.701	339.1103	383.7857	420.693	492.742	516.8308	582.1954	622.8657	816.5559	857.8961	914.063	952.3439	963.7806	997.0936	1042.0196	1073.7243	1080.0477	1139.4001	1177.9329	1214.4295	1265.4213	1266.2151	1275.7982	1304.0163	1369.812	1401.8625	1410.9424	1437.7737	1481.4719	1494.7034	2355.3252	3016.6434	3085.566	3095.9685	3115.9935	3128.6344	3519.7163	3796.2719	3803.2391
OCC1NC1C(O)C#N	OC[C@H]1N[C@H]1[C@@H](O)C#N	
InChI=1S/C5H8N2O2/c6-1-4(9)5-3(2-8)7-5/h3-5,7-9H,2H2	InChI=1S/C5H8N2O2/c6-1-4(9)5-3(2-8)7-5/h3-5,7-9H,2H2/t3-,4+,5-/m1/s1
