21
gdb 78517	2.36238	1.74063	1.16565	1.6599	83.16	-0.2212	0.0919	0.3131	1138.9513	0.180032	-387.021137	-387.0121	-387.011156	-387.054115	35.209	
C	-0.2932507781	 1.6178815745	-0.1899521049	-0.428024
C	-0.0841811743	 0.1124267641	-0.1133887553	-0.00927
C	 1.1073773329	-0.5570575707	-0.8406279103	-0.198613
C	 2.111142467	-0.2666245793	 0.3309050959	 0.46412
C	 3.1664570617	 0.778206053	 0.5159109926	-0.52981
O	 2.54184647	-1.6621925936	 0.4490358169	-0.394743
C	 1.1129499111	-1.7541852893	 0.1676013196	 0.475544
C	 0.4776159082	-3.1036346495	 0.0730600707	-0.527748
C	 0.7337839106	-0.5131340482	 1.0426705114	-0.19859
H	 0.6306030515	 2.1775989334	-0.0193604606	 0.11632
H	-0.6786299149	 1.9082962028	-1.1737602656	 0.116458
H	-1.0227639113	 1.9485787065	 0.5578369728	 0.116456
H	-1.0361151605	-0.4039313967	-0.2901755342	 0.065908
H	 1.3436804573	-0.6038267855	-1.9055449845	 0.069941
H	 2.7577384396	 1.7859820139	 0.4115736662	 0.130573
H	 3.6139880471	 0.6864796052	 1.5106811541	 0.133904
H	 3.958664464	 0.6462750487	-0.2279076672	 0.133895
H	 0.5983239142	-3.6507973491	 1.0132257465	 0.133194
H	-0.5922857189	-3.0101205512	-0.1381834047	 0.127415
H	 0.9387928263	-3.6895479199	-0.7281141754	 0.133119
H	 0.5455161965	-0.5099317291	 2.1181333959	 0.069951
156.4272	182.8129	186.942	193.5829	215.3354	240.2229	242.5771	344.1466	382.3815	540.9436	551.749	592.0125	663.4913	729.655	735.1107	775.6858	819.1428	831.936	892.2611	905.7915	992.8748	1034.6326	1055.5957	1075.1974	1075.3122	1079.0341	1118.7457	1129.0325	1141.7132	1171.205	1217.16	1246.0668	1258.3154	1277.3228	1389.2372	1403.8326	1408.2522	1416.8603	1443.1332	1471.069	1473.7681	1488.1566	1493.3331	1494.5982	1501.367	3020.7525	3032.0226	3037.3131	3041.408	3088.7939	3096.2287	3101.8555	3107.8709	3109.4114	3110.6712	3111.9896	3128.7114
CC1C2C3(C)OC2(C)C13	C[C@H]1[C@H]2[C@]3(C)O[C@@]2(C)[C@H]13	
InChI=1S/C8H12O/c1-4-5-7(2)6(4)8(5,3)9-7/h4-6H,1-3H3	InChI=1S/C8H12O/c1-4-5-7(2)6(4)8(5,3)9-7/h4-6H,1-3H3/t4-,5-,6+,7-,8+
