21
gdb 110826	3.38611	1.08755	0.98397	1.9504	78.61	-0.2364	0.0737	0.3101	1294.5912	0.180522	-424.18288	-424.17336	-424.172416	-424.216861	36.277	
C	 1.011978138	 0.7145643882	-1.8153682246	-0.442648
C	 1.3626367136	-0.6434881694	-1.2260705715	 0.403691
C	 0.6811046219	-1.7683506303	-2.0020264214	-0.413212
O	 2.8130693659	-0.9073486825	-1.1983423608	-0.332095
C	 2.7217568102	-1.3426192254	 0.1615381811	 0.058769
C	 2.3931940586	-0.2053272196	 1.0789748935	-0.060508
C	 2.9633101756	 1.1888249957	 0.9268247234	-0.107376
O	 4.121362615	 1.3525396983	 1.7378356529	-0.420944
C	 1.2845445412	-0.8884838014	 0.2883945204	-0.204033
H	 1.3697381004	 0.7762639366	-2.8486976953	 0.125364
H	-0.075287075	 0.8442128253	-1.8287416471	 0.118832
H	 1.4446378759	 1.5413144227	-1.2524796368	 0.126942
H	 0.9790942816	-1.7337763262	-3.0542888237	 0.123057
H	 0.9594633068	-2.7437112506	-1.5949200702	 0.120262
H	-0.408721248	-1.6685171088	-1.9495008431	 0.112548
H	 3.2249360973	-2.2644535966	 0.4320117945	 0.099744
H	 2.354066999	-0.5149295513	 2.1229521145	 0.097624
H	 3.1896726625	 1.3925749729	-0.1256709576	 0.107379
H	 2.2499412147	 1.9423596352	 1.2767542858	 0.108933
H	 4.7914450186	 0.7484737563	 1.4013592152	 0.282897
H	 0.4476091859	-1.365543829	 0.7827114308	 0.094775
76.6304	141.2919	165.7867	180.5843	242.3954	252.7453	284.5336	335.3949	358.9282	383.1679	431.3416	565.6729	620.2589	643.3354	750.6961	799.1331	848.1063	878.7566	928.7531	936.626	976.6709	988.6114	1002.4214	1034.7844	1049.036	1059.5431	1066.8563	1077.5075	1165.8828	1180.8915	1218.752	1227.0435	1254.9519	1303.1048	1335.9267	1373.4952	1397.977	1410.8828	1414.2673	1444.977	1475.5184	1478.9059	1495.0724	1503.0403	1506.0753	3033.6167	3034.2461	3044.1809	3080.4454	3100.6186	3108.7588	3122.0611	3124.9108	3152.0974	3168.517	3190.8869	3813.375
CC1(C)OC2C(CO)C12	CC1(C)O[C@H]2[C@@H](CO)[C@@H]12	
InChI=1S/C7H12O2/c1-7(2)5-4(3-8)6(5)9-7/h4-6,8H,3H2,1-2H3	InChI=1S/C7H12O2/c1-7(2)5-4(3-8)6(5)9-7/h4-6,8H,3H2,1-2H3/t4-,5+,6-/m0/s1
