17
gdb 18446	3.28716	1.723	1.405	3.4756	70.	-0.2464	-0.0347	0.2117	929.8775	0.141641	-363.818197	-363.810577	-363.809633	-363.850182	28.443	
C	-0.5864204157	 1.5173525547	 0.0613677206	-0.413792
C	-0.0986748731	 0.0807640697	 0.0438599686	 0.088962
C	 0.9523075543	-0.4556190376	-0.9718378377	-0.297604
C	 1.7065270916	-0.9842772153	 0.2510238216	-0.040035
C	 2.111468413	 0.0890851473	 1.1995442776	-0.080071
C	 2.601896368	 1.4299384609	 0.7777623088	 0.137623
O	 3.3742051987	 2.0725618918	 1.4493047643	-0.262904
N	 0.7040884116	-0.4257381303	 1.2241191048	-0.161848
H	 0.2193091474	 2.2530264216	 0.0128445085	 0.123815
H	-1.2517417684	 1.6953381898	-0.7905341851	 0.12413
H	-1.1569352274	 1.7044466205	 0.9769567798	 0.137808
H	-0.9758373169	-0.5733506652	 0.0219211368	 0.100767
H	 0.5637247236	-1.2458157162	-1.6161333946	 0.118384
H	 1.47662244	 0.2697816988	-1.5987094121	 0.115173
H	 2.1042839141	-1.9892300982	 0.354409694	 0.108104
H	 2.6252146595	-0.2454449478	 2.0966306491	 0.120429
H	 2.2688658697	 1.8041420656	-0.209758985	 0.081059
80.24	167.5243	199.9385	252.3333	279.4665	333.223	422.758	467.3245	573.6882	681.812	747.9106	793.0081	831.8708	861.4544	933.3392	965.979	989.7595	1045.1147	1074.8083	1096.0427	1108.573	1131.9559	1143.3086	1197.7902	1240.7227	1266.2112	1291.7705	1325.704	1363.0313	1391.0033	1411.4881	1445.7262	1492.0002	1494.4637	1500.5029	1798.733	2934.5241	3040.5142	3052.6759	3070.5554	3104.0413	3122.1254	3129.2201	3154.6412	3164.3388
CC1CC2C(C=O)N12	C[C@H]1C[C@H]2[C@@H](C=O)N12	
InChI=1S/C6H9NO/c1-4-2-5-6(3-8)7(4)5/h3-6H,2H2,1H3	InChI=1S/C6H9NO/c1-4-2-5-6(3-8)7(4)5/h3-6H,2H2,1H3/t4-,5-,6+,7?/m0/s1
