19
gdb 37982	3.12555	1.74133	1.34214	1.9759	74.99	-0.2514	0.0921	0.3435	978.6599	0.162911	-422.969549	-422.962948	-422.962004	-423.000364	27.472	
C	-0.018520994	 1.6522645495	-0.0157810812	-0.228517
C	 1.4767124918	 1.2161555103	 0.0063157076	-0.100807
C	 1.0517293441	 0.1809258783	 1.0962270895	 0.017723
C	 1.9295474856	-0.9875119601	 1.5233806295	-0.143373
O	 2.7568149474	-1.5531390982	 0.5224456751	-0.223447
C	 2.0546399156	-1.9320915525	-0.6221908792	 0.003979
O	 1.848489697	-0.877433989	-1.519067018	-0.262757
C	 1.0510541225	 0.1976888054	-1.1063852589	 0.178198
C	-0.0576965217	 0.0943849925	-0.0117730271	-0.131842
H	-0.3895319133	 2.1395590949	 0.8873989646	 0.098453
H	-0.3757198965	 2.152242598	-0.9192390169	 0.095349
H	 2.3534135824	 1.864249621	 0.0099836003	 0.076632
H	 0.6782290155	 0.6476195681	 2.0170975491	 0.067778
H	 2.6154397361	-0.6495555448	 2.3072482318	 0.113329
H	 1.2872403291	-1.7679223659	 1.9676208082	 0.092338
H	 2.6733439916	-2.6554980097	-1.1582699172	 0.114584
H	 1.0906832496	-2.394359538	-0.3432930327	 0.078882
H	 0.7306863941	 0.6760456391	-2.0356407226	 0.081077
H	-0.949559657	-0.5346588389	-0.011290172	 0.072422
138.5971	239.5777	335.492	390.6563	394.9453	450.5879	527.9802	640.3624	703.2215	746.184	791.9212	831.4725	886.9407	895.5525	941.5134	978.9548	991.2783	1000.4311	1022.3925	1049.6481	1079.5554	1086.34	1100.6177	1111.506	1162.7682	1175.2698	1176.4717	1215.7111	1218.4638	1227.8243	1242.0177	1292.3489	1301.897	1340.0846	1387.857	1418.6362	1453.4395	1456.3891	1490.229	1509.6206	1525.1845	2942.609	2958.0259	3019.6798	3062.6331	3071.4494	3075.5118	3098.4595	3103.8769	3115.1159	3132.2166
C1C2C3COCOC2C13	C1[C@H]2[C@@H]3COCO[C@H]2[C@H]13	
InChI=1S/C7H10O2/c1-4-6-2-8-3-9-7(4)5(1)6/h4-7H,1-3H2	InChI=1S/C7H10O2/c1-4-6-2-8-3-9-7(4)5(1)6/h4-7H,1-3H2/t4-,5+,6-,7+
