16
gdb 48785	3.01765	1.51525	1.25936	2.9348	69.35	-0.2484	-0.0381	0.2102	1007.4662	0.124635	-437.850206	-437.843039	-437.842095	-437.881852	27.911	
O	-0.7934193954	 0.9231039821	 0.4683446569	-0.26359
C	 0.2247038125	 0.9138924146	-0.1789068311	 0.084223
C	 1.3588256631	 1.8434237343	 0.0476923362	 0.348459
O	 2.2412618919	 2.035881322	-1.0667695161	-0.266351
C	 2.7743194609	 1.3634463548	 0.0591118235	-0.02657
C	 3.5734162871	 2.2152643795	 1.0431523411	-0.249581
C	 2.587910547	 3.244369668	 1.6003269637	-0.040348
N	 2.0460111634	 4.1810315656	 0.6018190783	-0.317787
C	 1.2437487492	 3.009511427	 1.0030267421	-0.156713
H	 0.4000856456	 0.1944431917	-1.0080458508	 0.090146
H	 3.0501472258	 0.3238371094	-0.1112514954	 0.106346
H	 3.9435212003	 1.5736846763	 1.8501218288	 0.113268
H	 4.4356401996	 2.6818509748	 0.5570999749	 0.133807
H	 2.7086538338	 3.5831689423	 2.6244671869	 0.096395
H	 1.6834313174	 5.0038487732	 1.0787600742	 0.236437
H	 0.3130099878	 3.1288878244	 1.5429996666	 0.111861
109.9584	184.2093	229.8501	267.3267	356.7623	432.0675	473.7565	580.1221	641.9332	704.9699	751.8382	815.1301	844.426	862.9041	877.3915	904.1919	949.0153	987.7952	1001.8419	1037.8964	1058.8675	1104.7829	1145.0173	1164.6241	1209.5579	1229.0485	1244.6845	1284.1549	1322.0789	1356.6618	1399.8565	1425.7617	1435.2733	1462.6398	1813.9645	2904.0408	3052.5229	3099.4313	3126.6475	3158.7229	3203.1236	3493.7195
O=CC12OC1CC1NC21	O=C[C@]12O[C@H]1C[C@H]1N[C@@H]21	
InChI=1S/C6H7NO2/c8-2-6-4(9-6)1-3-5(6)7-3/h2-5,7H,1H2	InChI=1S/C6H7NO2/c8-2-6-4(9-6)1-3-5(6)7-3/h2-5,7H,1H2/t3-,4+,5-,6+/m1/s1
