21
gdb 115861	2.662	1.25997	1.10676	1.5213	77.65	-0.247	0.0684	0.3154	1198.9396	0.183732	-424.214352	-424.205433	-424.204489	-424.247782	34.281	
O	-0.0918288894	 1.4718036287	 0.1133166085	-0.427712
C	 0.0224660574	 0.0535708042	 0.0572639672	-0.097654
C	-1.3877621503	-0.5238164961	 0.0381783163	 0.040734
C	-2.2097353688	-0.1262702155	-1.2130479506	-0.212805
C	-3.1955028384	-1.2929735144	-1.4574194672	-0.230278
C	-2.5617310331	-2.5232242855	-0.8173225765	-0.106376
C	-1.12396656	-2.8508619746	-1.1382885828	 0.088757
O	-0.429703576	-2.2559552736	-2.201810806	-0.414305
C	-1.4346578571	-2.0486975096	 0.0938287541	-0.108554
H	 0.7911350273	 1.8452794363	 0.0430896809	 0.28393
H	 0.5607529865	-0.2726592404	-0.8436248831	 0.107698
H	 0.5702167918	-0.3311803876	 0.9335385726	 0.074396
H	-1.901054645	-0.1512641159	 0.9350654461	 0.076285
H	-2.7215062727	 0.8283500096	-1.0746246439	 0.100237
H	-1.5377726227	-0.0173581982	-2.0662169691	 0.109209
H	-4.1547951499	-1.101935594	-0.962639578	 0.100252
H	-3.4156177653	-1.4292097021	-2.5228854667	 0.086709
H	-3.2119773937	-3.3445169181	-0.5328391992	 0.078247
H	-0.8291326806	-3.8842955774	-0.9510316863	 0.083043
H	-0.7974670784	-2.5966050272	-3.024089629	 0.287755
H	-1.2452351215	-2.5214809085	 1.0523268527	 0.080433
96.128	130.6269	183.3718	193.1182	246.6475	257.7654	283.1823	372.947	423.1392	492.7627	541.7703	685.8804	710.1	769.615	780.0735	829.6794	844.7443	945.223	953.1428	987.6609	1032.0287	1037.3872	1045.9112	1063.5379	1081.9305	1095.0709	1118.8739	1149.6401	1199.2817	1223.6808	1237.8493	1249.9367	1265.0798	1288.2813	1316.4686	1328.6927	1331.5299	1343.6426	1367.4006	1387.5056	1453.6463	1457.4105	1488.1363	1506.0123	1527.1791	2962.3682	3007.5024	3029.0593	3031.6562	3059.2417	3078.6054	3086.3966	3123.3814	3150.1312	3160.7608	3803.5047	3832.5481
OCC1CCC2C(O)C12	OC[C@H]1CC[C@H]2[C@@H](O)[C@@H]12	
InChI=1S/C7H12O2/c8-3-4-1-2-5-6(4)7(5)9/h4-9H,1-3H2	InChI=1S/C7H12O2/c8-3-4-1-2-5-6(4)7(5)9/h4-9H,1-3H2/t4-,5-,6+,7-/m1/s1
