23
gdb 81702	2.60275	1.5013	1.26109	1.2002	84.7	-0.2466	0.0828	0.3294	1132.8767	0.208673	-388.288837	-388.280786	-388.279841	-388.320748	33.111	
C	-0.0789659415	 1.5082709775	 0.0806398037	-0.422649
C	 0.0118317569	-0.0130465477	-0.0006113789	 0.026679
C	 0.7570868507	-0.5474861614	-1.263800253	 0.004342
C	 2.0557608393	-0.6252458371	-0.4066286222	-0.231344
C	 1.1575999933	-0.6302885617	 0.8614037877	-0.015225
C	 0.8847821311	-2.0505953175	 1.3733676489	-0.101883
O	 0.8793854197	-3.0569563391	 0.3741971767	-0.241993
C	-0.1145032578	-2.907264047	-0.6259349353	-0.069442
C	 0.2635868881	-1.91956817	-1.7431138435	-0.226923
H	 0.8954753554	 1.9814354311	-0.0837923684	 0.115003
H	-0.7687640126	 1.9017580883	-0.6743342809	 0.11177
H	-0.4407439328	 1.829975065	 1.0636958121	 0.111139
H	-0.9837450103	-0.4370776185	 0.1737660213	 0.055898
H	 0.7945198879	 0.1422504587	-2.1133625407	 0.057376
H	 2.696008817	-1.4967247057	-0.5577446414	 0.103702
H	 2.6591880329	 0.2817552502	-0.486087133	 0.092509
H	 1.4850151496	-0.0144638403	 1.7065326415	 0.059119
H	 1.680141259	-2.3507607396	 2.0638975407	 0.104621
H	-0.0676325427	-2.0665347654	 1.931756592	 0.083989
H	-0.2581884339	-3.9025324204	-1.0602008551	 0.101541
H	-1.0710013006	-2.6178107666	-0.1625784633	 0.089386
H	-0.6224036118	-1.7941257887	-2.3803668161	 0.091445
H	 1.0406779831	-2.372885004	-2.3712151827	 0.100939
174.6536	227.3966	230.6593	238.1854	301.8175	341.5675	358.7127	383.4841	408.7934	565.9567	617.7247	761.2181	792.7151	803.275	829.0584	875.7577	890.4272	909.6527	961.5349	967.5026	1018.9464	1039.3658	1060.4219	1069.2353	1100.1816	1121.7549	1126.9526	1138.2751	1176.562	1185.8219	1228.7404	1248.8869	1279.3006	1284.7092	1301.0834	1310.4311	1330.6968	1342.5081	1375.0569	1384.2453	1404.5884	1410.4517	1422.621	1473.3511	1485.1908	1487.9263	1496.6872	1498.175	1506.3929	2953.4882	2978.6013	3012.5459	3023.7572	3031.709	3039.0004	3045.5499	3053.2106	3066.443	3067.3828	3071.4058	3089.6035	3094.0546	3121.3529
CC1C2CC1COCC2	C[C@H]1[C@H]2C[C@@H]1COCC2	
InChI=1S/C8H14O/c1-6-7-2-3-9-5-8(6)4-7/h6-8H,2-5H2,1H3	InChI=1S/C8H14O/c1-6-7-2-3-9-5-8(6)4-7/h6-8H,2-5H2,1H3/t6-,7+,8+/m0/s1
