23
gdb 117680	2.94748	0.94799	0.87027	1.0858	82.56	-0.2548	0.0806	0.3354	1474.2255	0.202789	-425.396751	-425.386059	-425.385115	-425.432423	38.944	
C	-0.0742637825	 1.3766126282	-0.2085983555	-0.228546
O	-0.0040288621	-0.0185876465	-0.0433334989	-0.241305
C	 0.6115097472	-0.6723315102	-1.1323615955	-0.06164
C	 0.6242507106	-2.1931425955	-0.8834571626	 0.20426
C	 1.3988282705	-2.5036717153	 0.410538858	-0.417272
C	-0.8214018802	-2.7067666999	-0.7884339605	-0.440092
C	 1.3805855368	-2.8109312236	-2.0548234693	 0.076533
C	 1.0627749897	-4.1038419818	-2.6728620313	-0.191464
O	 0.7251564621	-2.876436149	-3.3251785913	-0.247381
H	 0.9264866984	 1.8280825387	-0.3010395382	 0.103537
H	-0.6571063682	 1.6537339797	-1.1012048654	 0.106237
H	-0.5661146088	 1.7877332128	 0.6764717227	 0.126027
H	 0.070620034	-0.4557170808	-2.068087992	 0.101448
H	 1.6452999324	-0.3043969789	-1.2584430402	 0.077427
H	 0.9294316773	-2.003943798	 1.2604513444	 0.135366
H	 1.4176473467	-3.5808632308	 0.6044687413	 0.109741
H	 2.4358204305	-2.1538385097	 0.3475293084	 0.106357
H	-1.3112402467	-2.659454843	-1.7653524791	 0.128376
H	-0.8560239479	-3.7407468221	-0.4320098827	 0.105636
H	-1.3849914952	-2.0880345019	-0.0872021099	 0.132207
H	 2.4199420049	-2.4794002606	-2.1265617929	 0.085539
H	 1.8561316081	-4.6803358313	-3.146970765	 0.112999
H	 0.2171167425	-4.6873842505	-2.3167620444	 0.116009
68.8733	92.3519	117.1374	151.8278	218.3045	235.9643	242.4192	267.7756	290.1855	329.2499	338.091	377.7503	398.2357	512.8091	579.9136	741.6701	841.8201	868.3587	940.1227	948.2091	965.9651	968.7911	996.026	1026.8971	1064.0905	1103.8529	1157.342	1158.4684	1177.4416	1180.2499	1203.6496	1223.9643	1237.8764	1271.9576	1289.7362	1327.1153	1389.5688	1397.3643	1419.0078	1442.4127	1480.9382	1486.0194	1487.3189	1495.9485	1500.7525	1506.566	1517.7659	1529.0026	1529.9638	2943.7261	2970.8561	2988.4745	3014.1513	3031.186	3043.8107	3070.9054	3091.2472	3094.6155	3111.8289	3112.5321	3130.3125	3134.4043	3179.0835
COCC(C)(C)C1CO1	COCC(C)(C)[C@H]1CO1	
InChI=1S/C7H14O2/c1-7(2,5-8-3)6-4-9-6/h6H,4-5H2,1-3H3	InChI=1S/C7H14O2/c1-7(2,5-8-3)6-4-9-6/h6H,4-5H2,1-3H3/t6-/m1/s1
