20
gdb 126725	4.95613	0.85078	0.79136	2.506	84.51	-0.183	0.0303	0.2132	1530.8212	0.172166	-399.341765	-399.332303	-399.331358	-399.377027	34.152	
C	-0.1277208655	 1.5296082713	-0.3360966557	-0.371234
C	-0.0740857318	 0.080080541	 0.1508467056	-0.138661
N	-1.3701621597	-0.573686745	 0.1193419597	 0.069059
C	-1.8895532473	-1.3416089553	-0.8806443331	-0.152654
C	-3.1883581643	-1.6548994625	-0.5111456484	 0.20943
N	-4.0949064888	-2.4779087314	-1.1885111647	-0.389198
C	-5.4873891993	-2.4121765487	-0.7777876313	-0.322441
C	-3.3526507593	-1.0111951051	 0.7381371552	-0.066486
N	-2.2462335574	-0.3604940208	 1.1080717858	-0.275145
H	 0.8643898863	 1.98754412	-0.2731659425	 0.116606
H	-0.4663434745	 1.5821338665	-1.3751878847	 0.121827
H	-0.8188071029	 2.108371142	 0.2817699705	 0.144983
H	 0.6103398558	-0.5133942847	-0.4630644182	 0.114848
H	 0.2800493209	 0.0376002279	 1.1840645319	 0.132346
H	-1.3094090759	-1.6109230063	-1.7489058528	 0.115623
H	-3.9897876603	-2.4223138793	-2.1916146653	 0.22957
H	-6.0818067693	-3.0580341606	-1.4287237482	 0.119098
H	-5.5900886836	-2.7900153882	 0.2450718502	 0.133315
H	-5.914865374	-1.3961702434	-0.8056877399	 0.107724
H	-4.217654619	-1.0059164773	 1.3833695358	 0.101391
39.397	62.475	115.7092	180.1614	201.17	234.8732	306.5417	334.7934	405.0355	478.2447	554.4232	650.4063	668.2621	685.0061	727.1987	749.9827	794.3748	837.3774	960.4534	1004.2503	1023.598	1081.9391	1099.9288	1108.1184	1149.5007	1158.8952	1216.3312	1230.9706	1284.696	1374.6006	1383.8974	1397.0543	1407.3233	1418.6255	1456.2341	1466.8007	1481.196	1485.8637	1488.5457	1506.629	1512.5791	1525.0139	1633.5637	2966.6026	3042.6941	3059.2975	3063.8082	3102.3859	3114.9842	3117.2153	3133.4199	3253.7923	3255.689	3579.9956
CCN1C=C(NC)C=N1	CCn1cc(NC)cn1	
InChI=1S/C6H11N3/c1-3-9-5-6(7-2)4-8-9/h4-5,7H,3H2,1-2H3	InChI=1S/C6H11N3/c1-3-9-5-6(7-2)4-8-9/h4-5,7H,3H2,1-2H3
