17
gdb 70134	2.41298	1.9292	1.2442	2.3196	73.44	-0.2413	-0.0318	0.2095	1011.512	0.135391	-421.844918	-421.836972	-421.836028	-421.87723	30.532	
C	-0.0062614504	 1.5057861628	 0.000958771	-0.475214
C	 0.0907429074	 0.0037887322	-0.0131558557	 0.281757
O	-0.7278514239	-0.7112584606	 0.9278084495	-0.283798
C	 0.6943294852	-0.7637021419	 1.113534749	-0.064453
C	 1.3422824646	-2.0760801296	 0.8675980684	-0.038103
C	 1.1252911684	-2.7426695182	-0.2654784845	-0.094056
C	 0.262822706	-2.1845413467	-1.369122187	-0.380279
C	 0.1841782956	-0.6609207133	-1.3647348204	 0.355604
O	 0.2145998228	-0.0093446291	-2.3838746855	-0.308113
H	 0.863041131	 1.9503574803	-0.4904734354	 0.138869
H	-0.895347129	 1.8336191225	-0.544945875	 0.141293
H	-0.067329276	 1.871283139	 1.0285619173	 0.124253
H	 1.0456716998	-0.1834845306	 1.9653250046	 0.101696
H	 1.9722102489	-2.4830510608	 1.6517337392	 0.099923
H	 1.5628213061	-3.723770039	-0.424047338	 0.110051
H	 0.6086988653	-2.4956233955	-2.3581235242	 0.13428
H	-0.7630754518	-2.5662627713	-1.2569993432	 0.15629
92.6	159.015	195.547	250.7677	301.4411	359.5157	432.703	473.1106	489.8563	580.1561	611.6624	643.2841	722.7174	800.7175	833.7551	863.8329	939.8832	952.6533	981.7824	983.9101	1041.9415	1079.1466	1097.8621	1116.4594	1186.1233	1198.2755	1301.8824	1320.8569	1331.9401	1404.0256	1412.3057	1436.208	1444.3117	1475.8821	1489.8498	1712.5235	1804.586	3010.3821	3051.9868	3099.2923	3122.8097	3125.5916	3135.4491	3168.8558	3192.4074
CC12OC1C=CCC2=O	C[C@]12O[C@H]1C=CCC2=O	
InChI=1S/C7H8O2/c1-7-5(8)3-2-4-6(7)9-7/h2,4,6H,3H2,1H3	InChI=1S/C7H8O2/c1-7-5(8)3-2-4-6(7)9-7/h2,4,6H,3H2,1H3/t6-,7+/m0/s1
