14
gdb 25443	5.12815	1.06375	0.881	3.4112	77.28	-0.2408	-0.0676	0.1732	1206.2041	0.102872	-436.762391	-436.755294	-436.754349	-436.794182	26.688	
O	-0.1190674575	-0.0564409779	-0.0008003736	-0.285113
C	-0.0604417221	 1.142904214	 0.0082864745	 0.173703
N	 1.1379362483	 1.8714842392	 0.0006666503	-0.134639
C	 2.3581121204	 1.206998192	-0.0184855444	 0.053803
C	 3.5216170698	 1.8816367163	-0.0261419319	-0.279905
C	 3.5738889627	 3.3513175385	-0.0148253284	 0.386686
O	 4.6188234099	 3.9860630702	-0.0214371761	-0.37015
C	 2.2469611571	 3.9852519647	 0.0052949024	-0.279969
C	 1.116146128	 3.2579613387	 0.0121556241	 0.052151
H	-0.9398271899	 1.8096447425	 0.0235945914	 0.112383
H	 2.2650632096	 0.1291835857	-0.0261716884	 0.171153
H	 4.4618805096	 1.3439151444	-0.0411048105	 0.128111
H	 2.2021870942	 5.0672850609	 0.0145778117	 0.126202
H	 0.1243535997	 3.6961675707	 0.026899209	 0.145584
89.3462	189.0991	238.2245	290.8902	412.0803	424.345	461.2356	461.8914	623.9394	652.41	746.3807	800.6673	817.5378	851.3467	882.7191	972.336	995.6157	1000.0122	1022.5767	1101.912	1187.3679	1246.775	1258.2491	1355.9681	1416.8859	1443.2509	1465.7787	1626.5579	1690.8543	1744.3736	1831.6368	2992.3136	3191.1971	3212.5035	3219.6873	3237.509
O=CN1C=CC(=O)C=C1	O=Cn1ccc(=O)cc1	
InChI=1S/C6H5NO2/c8-5-7-3-1-6(9)2-4-7/h1-5H	InChI=1S/C6H5NO2/c8-5-7-3-1-6(9)2-4-7/h1-5H
