17
gdb 126090	3.12692	1.57384	1.11336	1.5394	74.27	-0.2291	0.0181	0.2472	1066.8116	0.138969	-418.020043	-418.012514	-418.011569	-418.052326	28.481	
C	 0.1059093585	 1.5682649011	-0.0864728477	-0.389527
C	-0.0419181044	 0.0573693288	 0.0820853607	 0.026168
O	 0.5118607911	-0.6147333544	-1.0657275664	-0.296512
C	 1.4647151124	-1.6410403501	-0.7138450856	-0.193915
C	 1.6011159428	-1.5180437755	 0.7700095483	 0.176542
C	 0.7356267479	-0.5524946233	 1.2052036882	 0.326556
N	 0.8644158485	-0.4698622088	 2.5454235765	-0.336635
N	 1.7883363541	-1.3450699179	 3.0169781681	-0.223748
C	 2.2381302697	-1.9867371961	 1.9361772669	-0.161921
H	 1.1620307948	 1.8468304492	-0.1327314875	 0.127166
H	-0.382277914	 1.8870983496	-1.0111324589	 0.13253
H	-0.3639075021	 2.0981584029	 0.7495712737	 0.108037
H	-1.1133593446	-0.1926854106	 0.1513221458	 0.090855
H	 1.0778977851	-2.6188792738	-1.0353916109	 0.111486
H	 2.3953112418	-1.4545103305	-1.2658392603	 0.115092
H	 0.3916491482	 0.1303289568	 3.1990909234	 0.273604
H	 2.9943776704	-2.7485472072	 2.0545587255	 0.114224
74.8836	147.7824	230.1286	234.6224	293.7293	443.0826	456.0615	498.1505	597.5979	665.7324	681.7876	726.3613	792.6158	857.9474	879.3421	974.9664	999.8463	1038.6974	1048.5965	1080.7166	1104.6035	1110.7775	1157.6772	1192.3779	1237.8004	1286.391	1336.0236	1350.0738	1369.636	1402.0177	1420.3525	1458.1056	1483.9735	1494.4836	1527.6753	1553.3822	1607.2755	2961.6137	2994.7669	3025.5338	3037.8305	3111.0227	3129.7621	3247.3039	3677.3468
CC1OCC2=C1NN=C2	C[C@H]1OCc2c1[nH]nc2	
InChI=1S/C6H8N2O/c1-4-6-5(3-9-4)2-7-8-6/h2,4H,3H2,1H3,(H,7,8)	InChI=1S/C6H8N2O/c1-4-6-5(3-9-4)2-7-8-6/h2,4H,3H2,1H3,(H,7,8)/t4-/m1/s1
