19
gdb 112656	2.6222	1.27171	1.02969	0.9516	71.27	-0.2536	-0.0334	0.2203	1204.9062	0.158077	-460.186563	-460.177436	-460.176492	-460.221088	33.591	
C	 0.2874967513	 1.3001494521	-0.5623637833	-0.402822
C	 0.0320918936	-0.1159190395	-0.0499141933	 0.028533
O	 0.2774507544	-1.1187278164	-1.0308385987	-0.299143
C	 1.4043786144	-1.9560510216	-0.6706933231	 0.077574
C	 2.6219846383	-1.510163693	-1.4834742982	-0.056988
O	 2.3150965201	-1.443091351	-2.8560872123	-0.421209
C	 1.5856442251	-1.8078253562	 0.8386635486	-0.368251
C	 0.9134867435	-0.4727179924	 1.1517754502	 0.371956
O	 1.0398539388	 0.1917762311	 2.1450122046	-0.30483
H	 1.3236265363	 1.4199927956	-0.8921410288	 0.127611
H	-0.3735729465	 1.5250893159	-1.4030955578	 0.128407
H	 0.0957835106	 2.0152850477	 0.2424201294	 0.142884
H	-1.0181662336	-0.1996824049	 0.2662179092	 0.113229
H	 1.1297112886	-2.9708100907	-0.9730465926	 0.096795
H	 2.9849164906	-0.5403789693	-1.0972641989	 0.081273
H	 3.4358650034	-2.234105456	-1.3612814686	 0.110623
H	 1.4588975433	-0.9985824924	-2.9068714871	 0.288829
H	 1.0578607848	-2.59238726	 1.392357878	 0.143823
H	 2.6257170429	-1.8069215589	 1.1731452029	 0.141705
54.9083	65.9044	145.4635	212.7568	230.5859	245.8807	346.4223	394.8041	446.2671	480.0635	511.8727	543.4949	651.213	708.6782	761.4663	801.6812	858.7998	923.3833	987.06	1008.1519	1035.1634	1080.185	1099.3541	1114.4208	1124.8199	1181.3583	1192.0324	1230.0152	1262.5891	1307.5663	1325.4147	1353.4712	1362.5519	1396.1669	1398.531	1442.1775	1451.4852	1485.4992	1495.0096	1504.3142	1856.1747	2941.9308	3000.2887	3045.4611	3052.6407	3059.2471	3074.7933	3114.0927	3122.5878	3130.3265	3769.1011
CC1OC(CO)CC1=O	C[C@H]1O[C@@H](CO)CC1=O	
InChI=1S/C6H10O3/c1-4-6(8)2-5(3-7)9-4/h4-5,7H,2-3H2,1H3	InChI=1S/C6H10O3/c1-4-6(8)2-5(3-7)9-4/h4-5,7H,2-3H2,1H3/t4-,5-/m1/s1
