20
gdb 80178	2.26825	1.62008	1.36181	3.5185	78.22	-0.2344	0.0286	0.263	1067.6703	0.172195	-403.187904	-403.179298	-403.178354	-403.22082	33.254	
C	 0.3094518825	 1.8104734411	-0.4279255084	-0.429492
C	 0.2901151247	 0.3055752583	-0.2718814112	-0.021121
C	 1.5253266928	-0.5615788163	-0.4092635636	-0.043439
N	 2.8002990876	 0.0636599045	-0.2029102571	-0.298788
C	 2.9711209765	 0.5974967191	 1.053382932	 0.380823
O	 3.8754991693	 1.3259492881	 1.3983805519	-0.382721
C	 1.7944619772	 0.1132717327	 1.924876296	-0.108497
C	 1.2948916152	 1.1972772213	 2.88253887	-0.397603
C	 0.8112657588	-0.4803069373	 0.924434801	-0.089123
H	 1.2405059154	 2.2600859651	-0.0756792485	 0.139939
H	 0.191702004	 2.083384782	-1.4827120005	 0.116798
H	-0.5134132158	 2.2739763239	 0.1259265389	 0.124885
H	-0.5971280504	-0.1580173446	-0.6986996065	 0.08943
H	 1.5235809808	-1.4545146738	-1.024788358	 0.098916
H	 3.3712333892	 0.4042984886	-0.961554185	 0.249145
H	 2.192667744	-0.7132391571	 2.5304055773	 0.105853
H	 0.8227861795	 2.024574104	 2.3470581993	 0.122464
H	 0.5638010647	 0.7889575813	 3.5863628157	 0.11038
H	 2.1398761971	 1.6002207133	 3.4470865402	 0.140505
H	 0.205677247	-1.3156937544	 1.2558731166	 0.091645
93.345	161.6368	188.0799	211.6634	236.7889	263.5764	314.0838	467.4414	510.6305	523.9379	573.8721	641.6513	703.8547	731.8479	768.8756	771.6455	809.1189	900.42	942.5372	992.6314	1028.9641	1048.6747	1079.6562	1092.5471	1118.9001	1132.1285	1143.1863	1147.2495	1230.6788	1255.7374	1290.952	1332.5766	1369.502	1373.035	1401.6291	1405.0764	1424.104	1442.0553	1489.1268	1497.9832	1501.045	1507.1859	1823.0506	3008.6493	3035.0203	3048.4519	3091.1405	3116.307	3118.9133	3129.6791	3132.7146	3161.6527	3175.6325	3624.1354
CC1C2NC(=O)C(C)C12	C[C@H]1[C@H]2NC(=O)[C@@H](C)[C@@H]12	
InChI=1S/C7H11NO/c1-3-5-4(2)7(9)8-6(3)5/h3-6H,1-2H3,(H,8,9)	InChI=1S/C7H11NO/c1-3-5-4(2)7(9)8-6(3)5/h3-6H,1-2H3,(H,8,9)/t3-,4+,5-,6-/m1/s1
