18
gdb 35850	3.21672	1.20804	0.91719	4.7563	78.51	-0.2604	0.0009	0.2613	1242.7931	0.148798	-401.957804	-401.949534	-401.94859	-401.991246	30.835	
N	-0.264257146	-1.0138206839	-0.5635926058	-0.317778
C	-0.1263793411	 0.0994935446	-0.2896550235	 0.289252
C	 0.0040164707	 1.5246273261	 0.0660482708	-0.041395
C	-0.814110397	 1.8467629717	 1.3273971724	-0.196503
C	-1.0700957764	 3.3433780362	 1.5347874654	-0.277485
C	 0.1072789305	 4.2859318748	 1.518520176	-0.051247
C	 1.2714340522	 4.1952491851	 0.8749061212	-0.059226
C	 1.7988250836	 3.1035954068	-0.0197524109	-0.134611
O	 1.3798746913	 1.7806684317	 0.2611792357	-0.240031
H	-0.3787739984	 2.1065885268	-0.7894766986	 0.11292
H	-1.7775481253	 1.3284892605	 1.2737832695	 0.119942
H	-0.2634384946	 1.4264300595	 2.1749103347	 0.131451
H	-1.7853955074	 3.6891303222	 0.7713723079	 0.120841
H	-1.598826864	 3.4635036787	 2.4874476584	 0.115873
H	-0.0633692208	 5.202851169	 2.0798822376	 0.096073
H	 1.9523895762	 5.0413733986	 0.9541126689	 0.095381
H	 1.5703437167	 3.353071732	-1.0725368459	 0.109037
H	 2.8897829999	 3.0683407398	 0.0602592863	 0.127508
47.0468	136.9099	163.448	205.8656	313.151	340.9118	384.6971	422.4612	506.2802	546.8062	564.0413	688.666	754.012	803.9025	883.5713	902.6317	907.5777	996.3236	1012.0724	1034.1791	1058.7585	1071.7529	1084.0118	1167.6394	1208.2205	1249.2144	1278.4768	1302.2746	1313.2625	1375.5461	1382.178	1390.4609	1411.5	1429.706	1469.9276	1476.8447	1479.2218	1738.0256	2366.2647	2937.1105	2967.2687	2986.7598	3045.0964	3056.8277	3076.4518	3097.4031	3128.3643	3151.8325
N#CC1CCC=CCO1	N#C[C@H]1CCC=CCO1	
InChI=1S/C7H9NO/c8-6-7-4-2-1-3-5-9-7/h1,3,7H,2,4-5H2	InChI=1S/C7H9NO/c8-6-7-4-2-1-3-5-9-7/h1,3,7H,2,4-5H2/t7-/m1/s1
