19
gdb 79296	2.57635	1.7467	1.49532	2.0331	73.14	-0.2454	0.0736	0.319	961.7602	0.161907	-423.028109	-423.020801	-423.019856	-423.059308	30.366	
O	-0.0712989347	 1.4711612519	 0.0192320279	-0.449333
C	 0.0067514767	 0.053932601	-0.0033344318	 0.146977
C	-1.3741810896	-0.5448053556	-0.205960975	-0.058824
C	-1.5927116661	-0.6562106273	-1.7011642594	-0.06267
C	-0.3358705657	-0.1120824876	-2.3803813999	-0.223982
C	 0.6592605479	-0.5416342166	-1.2825293798	-0.156446
C	 0.3197099314	-2.0460604257	-1.1199985426	 0.128731
O	 0.9144907487	-2.678882132	 0.0032135301	-0.444203
C	-1.1760447127	-1.8756346287	-0.9026939462	-0.07206
H	 0.8083519922	 1.8118853957	 0.2089175689	 0.278687
H	 0.4897285396	-0.3288226487	 0.9033495287	 0.074248
H	-2.183621973	-0.3703452089	 0.4892989859	 0.085716
H	-2.5791295902	-0.5728942052	-2.1374746988	 0.082453
H	-0.1289441619	-0.5864216197	-3.3455321978	 0.088082
H	-0.3640186762	 0.9722724616	-2.5111465999	 0.109777
H	 1.7116035124	-0.3007285785	-1.4452136379	 0.045641
H	 0.5400139544	-2.611123661	-2.0385702435	 0.061463
H	 1.8539360318	-2.7815274593	-0.1793429743	 0.279442
H	-1.8299718451	-2.7209277055	-0.7363554348	 0.086301
186.9689	229.1607	283.1219	294.3141	314.1276	342.2447	441.2017	529.9502	568.0797	696.8452	715.95	797.6734	821.2148	832.247	888.6587	915.3954	922.9466	940.6768	954.6054	1007.3607	1011.7708	1036.4017	1051.5721	1074.0442	1079.7836	1107.1175	1112.7484	1160.2312	1204.0256	1215.9904	1230.1047	1248.8412	1287.5871	1297.1244	1310.9288	1332.9269	1342.4924	1400.4285	1429.4329	1431.2937	1490.1496	2980.308	3038.029	3049.3494	3097.7051	3107.1242	3200.0186	3205.5952	3217.8913	3815.539	3819.6272
OC1C2C3CC1C(O)C23	O[C@H]1[C@H]2[C@H]3C[C@@H]1[C@@H](O)[C@@H]23	
InChI=1S/C7H10O2/c8-6-3-1-2-4(6)5(2)7(3)9/h2-9H,1H2	InChI=1S/C7H10O2/c8-6-3-1-2-4(6)5(2)7(3)9/h2-9H,1H2/t2-,3+,4+,5-,6-,7-/m1/s1
