19
gdb 114183	3.56982	1.06211	0.9022	3.2304	77.62	-0.2403	-0.0385	0.2019	1333.8831	0.157365	-423.014111	-423.005024	-423.00408	-423.04847	33.206	
C	-0.0028727015	 1.7522962145	 0.4347016564	-0.386324
C	-0.2503330369	 0.2571480901	 0.2091182654	-0.193522
C	 0.736920723	-0.6264327595	 0.9742574601	-0.097434
C	 0.6816432222	-2.1769076835	 0.7627828578	-0.376825
C	 2.1926306399	-2.1776163706	 0.4860699204	 0.353813
C	 3.2578941641	-3.0533044354	 1.0037346338	-0.247575
O	 2.9026361009	-3.0404450081	-0.3764034744	-0.254618
C	 2.1939123644	-0.6549550772	 0.4487691228	 0.324147
O	 2.9730752485	 0.1780626519	 0.0846881743	-0.306555
H	 1.0128992602	 2.0257955622	 0.137525482	 0.148986
H	-0.7066824174	 2.3570649101	-0.1449318327	 0.113401
H	-0.1264952753	 2.016551343	 1.4908985454	 0.112345
H	-1.2700882432	-0.0090496152	 0.5139733763	 0.102694
H	-0.1790961878	 0.0263248578	-0.8614548395	 0.104197
H	 0.7310705062	-0.3634238936	 2.0393999723	 0.102182
H	 0.3436817167	-2.7737302778	 1.6112157173	 0.11461
H	 0.1066617576	-2.453992986	-0.1252523697	 0.125472
H	 4.2321831021	-2.6288223793	 1.2401540854	 0.135603
H	 2.9759245162	-3.9491687732	 1.5554464465	 0.125404
46.6038	106.0015	158.5167	193.574	229.1136	247.0689	289.5923	318.0098	364.1909	523.443	568.9378	695.7622	716.3501	795.3022	809.9664	850.2064	899.5294	914.5109	965.1815	989.1313	1004.2866	1067.241	1088.0208	1117.4358	1133.2968	1151.9018	1164.7612	1180.9449	1226.3559	1239.5039	1280.7188	1331.5761	1363.7513	1411.528	1413.8122	1480.9508	1488.9788	1498.7809	1512.1848	1519.1315	1882.4707	3020.2374	3034.795	3036.6096	3057.2125	3068.6463	3083.874	3102.0873	3125.9554	3127.8058	3179.3395
CCC1CC2(CO2)C1=O	CC[C@H]1C[C@]2(CO2)C1=O	
InChI=1S/C7H10O2/c1-2-5-3-7(4-9-7)6(5)8/h5H,2-4H2,1H3	InChI=1S/C7H10O2/c1-2-5-3-7(4-9-7)6(5)8/h5H,2-4H2,1H3/t5-,7-/m0/s1
