14
gdb 54807	2.57762	1.66791	1.14482	2.4506	62.07	-0.249	-0.0463	0.2027	1012.8973	0.099771	-473.821845	-473.813909	-473.812965	-473.854923	29.011	
N	 0.0399257118	 1.1831807604	 0.4342907666	-0.529426
C	 0.1217980007	-0.051952273	-0.1324166104	 0.409934
O	 1.1016119088	-0.4880499835	-0.6980359365	-0.358712
C	-1.1785361504	-0.8425110265	-0.0310128598	-0.286223
C	-1.0775489165	-2.3640232203	 0.1257244458	 0.042715
O	-0.4442789377	-2.5942397595	 1.3764412065	-0.222496
C	-1.8728815897	-2.3724326168	 1.3814843141	-0.103893
C	-1.9804649751	-0.8515503976	 1.3067663972	 0.415404
O	-2.4931959868	 0.012179916	 1.9556321521	-0.315654
H	 0.8748727943	 1.7458023685	 0.4692103433	 0.265201
H	-0.7398267232	 1.4288590926	 1.0249823365	 0.276726
H	-1.8613729316	-0.5352776663	-0.8330790156	 0.140145
H	-1.0104392635	-3.1284312398	-0.6362538019	 0.131801
H	-2.5025303712	-3.1228979642	 1.8421914022	 0.134476
63.3428	111.0737	153.0583	195.3822	347.3533	374.9259	445.3934	490.5414	558.8491	598.8703	652.3352	695.0619	744.3971	816.2703	849.1756	898.0132	925.5634	957.58	1017.8572	1028.9741	1073.5985	1112.4301	1159.0639	1207.2505	1237.7744	1281.4641	1336.665	1365.1832	1627.5444	1811.4881	1889.7773	3051.1712	3206.8339	3226.9361	3573.0627	3710.0818
NC(=O)C1C2OC2C1=O	NC(=O)[C@H]1[C@H]2O[C@H]2C1=O	
InChI=1S/C5H5NO3/c6-5(8)1-2(7)4-3(1)9-4/h1,3-4H,(H2,6,8)	InChI=1S/C5H5NO3/c6-5(8)1-2(7)4-3(1)9-4/h1,3-4H,(H2,6,8)/t1-,3-,4+/m1/s1
