23
gdb 112641	1.95153	1.36909	0.91077	1.1233	88.23	-0.2222	0.0343	0.2566	1383.6911	0.205331	-388.308746	-388.298802	-388.297858	-388.34327	37.654	
C	-0.7077475384	 1.4075181713	 0.0063335241	-0.406893
C	-0.0540459789	 0.0193848164	-0.0342213461	-0.029143
C	 1.0378597717	-0.1311178606	-1.0720575853	-0.168259
C	 2.0513242506	-0.8916834357	-0.6545697882	 0.32422
C	 3.2648554777	-1.2989650622	-1.4286721011	-0.492935
C	 1.807770105	-1.3761376336	 0.7600632436	-0.307167
C	 0.6533603608	-0.4734542745	 1.2706119844	-0.000504
C	 1.2105355173	 0.6656586216	 2.125229975	-0.087357
O	 1.8296243157	 0.0841450369	 3.2675880263	-0.422775
H	 0.0231490739	 2.2020777296	 0.1862471831	 0.116013
H	-1.1938492969	 1.6226577449	-0.9512962842	 0.109609
H	-1.47597851	 1.4683140601	 0.7845067969	 0.112385
H	-0.856415473	-0.6980910772	-0.2697536233	 0.077332
H	 0.9566808905	 0.305821335	-2.0632035334	 0.076132
H	 3.2681886268	-0.8701783553	-2.434744067	 0.118987
H	 4.1847726112	-0.9852056723	-0.9186664165	 0.122416
H	 3.3244107542	-2.3910726182	-1.5251532022	 0.123251
H	 1.5199538134	-2.4374497791	 0.7546583086	 0.09567
H	 2.6897982686	-1.3038194594	 1.4053176851	 0.111963
H	-0.0395808973	-1.0354752687	 1.9047611892	 0.070969
H	 1.9354206028	 1.2528751924	 1.5387866078	 0.087331
H	 0.4007098254	 1.3442908606	 2.429204751	 0.084652
H	 2.2261873689	 0.7913024681	 3.7840831323	 0.284103
74.0605	138.402	154.6159	191.0159	215.7974	253.5425	260.9274	283.3342	325.5474	371.3626	420.0827	465.3252	509.4216	592.2497	682.1693	829.0297	839.0906	876.4294	882.8662	923.7185	967.317	995.5433	1017.26	1040.258	1056.8899	1066.5187	1105.957	1115.1351	1138.1207	1177.8148	1208.3842	1236.1566	1264.6471	1282.5167	1285.5981	1320.3582	1351.226	1358.9353	1374.5196	1407.79	1412.9179	1456.5124	1478.8769	1488.9141	1492.0262	1498.4578	1503.7977	1525.7747	1723.1782	2963.3097	2971.9208	3002.4172	3011.5305	3014.1845	3030.8975	3058.3718	3059.8481	3067.8875	3094.0266	3104.225	3106.5327	3171.115	3833.063
CC1C=C(C)CC1CO	C[C@H]1C=C(C)C[C@H]1CO	
InChI=1S/C8H14O/c1-6-3-7(2)8(4-6)5-9/h3,7-9H,4-5H2,1-2H3	InChI=1S/C8H14O/c1-6-3-7(2)8(4-6)5-9/h3,7-9H,4-5H2,1-2H3/t7-,8-/m0/s1
