21
gdb 78808	2.3353	1.6697	1.41778	1.3258	81.5	-0.2441	0.0716	0.3157	1062.1299	0.181894	-387.047567	-387.038954	-387.03801	-387.079953	34.617	
C	 0.0552719692	 1.6257280999	 0.0081474678	-0.430671
C	 0.1072619698	 0.1027962052	-0.016047797	-0.006556
C	 0.7965234271	-0.6662501071	-1.1479771707	-0.093058
C	 2.2733740215	-0.8493777904	-0.7653355513	-0.05999
C	 1.217454449	-1.7846488939	-0.230001225	-0.181481
C	 1.0511094077	-0.6840487068	 0.9282283224	 0.373759
O	 0.6183829544	-0.8581234581	 2.2290757576	-0.48215
C	 2.4940899799	-0.1911545107	 0.5993186827	-0.050086
C	 3.5674181399	-0.8722739337	 1.442984485	-0.434711
H	 1.0249173219	 2.0776918178	-0.2190605235	 0.116555
H	-0.6598666367	 1.9969072239	-0.7341101824	 0.111054
H	-0.2687422983	 1.9879160723	 0.9899090983	 0.122178
H	-0.900284423	-0.3074351029	 0.1198298488	 0.076074
H	 0.4748124978	-0.7504475364	-2.1783576973	 0.081569
H	 3.0249420068	-1.0676469058	-1.5139202083	 0.080755
H	 1.0812660011	-2.8544988199	-0.2900682223	 0.087443
H	 1.3198494877	-1.2862460513	 2.7323350068	 0.283684
H	 2.6439010495	 0.8949192983	 0.6193242	 0.060273
H	 3.4449250693	-1.9620406027	 1.4406572908	 0.115287
H	 4.5697796161	-0.6541733597	 1.0607441441	 0.119278
H	 3.5370020994	-0.5214707682	 2.4819902634	 0.110795
160.0722	190.6872	202.7907	227.6325	241.4041	276.4517	327.6842	385.5463	411.0106	532.4219	571.3813	646.4892	676.8686	756.1105	794.973	798.3294	852.4705	888.311	912.9167	919.2434	948.2994	993.0856	1022.8509	1025.7295	1064.681	1070.329	1110.0016	1114.9628	1129.1396	1141.7001	1162.9995	1205.9433	1249.5895	1275.1314	1324.4016	1342.5164	1360.5248	1389.6082	1402.1061	1406.9166	1418.5002	1494.6458	1499.6674	1501.1067	1504.5391	3017.5393	3029.9092	3034.7793	3041.8758	3080.4467	3094.5273	3095.2213	3112.3002	3186.6649	3194.472	3223.4759	3799.2873
CC1C2C3C2C1(O)C3C	C[C@H]1[C@H]2[C@@H]3[C@H]2[C@@]1(O)[C@H]3C	
InChI=1S/C8H12O/c1-3-5-6-4(2)8(3,9)7(5)6/h3-7,9H,1-2H3	InChI=1S/C8H12O/c1-3-5-6-4(2)8(3,9)7(5)6/h3-7,9H,1-2H3/t3-,4-,5-,6+,7-,8-/m0/s1
