13
gdb 132645	3.21366	1.42432	0.98742	3.2898	66.25	-0.2147	-0.0355	0.1792	1072.1119	0.090293	-494.097023	-494.089771	-494.088827	-494.128532	28.252	
N	-0.0857117849	 1.3546938318	 0.1137466539	-0.568985
C	-0.0368712258	-0.0106754591	 0.0265667452	 0.258609
N	-1.1695231036	-0.7084355594	-0.0314228305	-0.410046
C	-1.0716517552	-2.0382820544	-0.0609861904	 0.400242
O	-2.2164033689	-2.7489261795	-0.1159863977	-0.418935
C	 0.1522279908	-2.7028187052	-0.0428707578	-0.12452
N	 1.2896081912	-1.9944327594	 0.0030455805	-0.274137
C	 1.1927070958	-0.7014792743	 0.0378559956	 0.268681
F	 2.3160579767	 0.0323912331	 0.0762838547	-0.087829
H	 0.7551904611	 1.8557346186	-0.1217940663	 0.268695
H	-0.9567658515	 1.7843282085	-0.1549420007	 0.263165
H	-2.9393274809	-2.107622929	-0.1158397195	 0.299759
H	 0.2142684553	-3.7835484416	-0.0702841968	 0.1253
134.2001	240.7663	290.8764	353.7166	392.9593	431.8695	441.8262	471.4003	504.2551	519.0559	539.997	613.391	697.8826	740.6988	793.3839	801.0699	869.4978	1006.7683	1115.2534	1201.8919	1232.4983	1289.5467	1325.93	1411.6734	1502.218	1514.1356	1605.142	1631.2676	1661.73	3206.3067	3594.2022	3717.0938	3781.3501
NC1=NC(O)=CN=C1F	Nc1nc(O)cnc1F	
InChI=1S/C4H4FN3O/c5-3-4(6)8-2(9)1-7-3/h1H,(H3,6,8,9)	InChI=1S/C4H4FN3O/c5-3-4(6)8-2(9)1-7-3/h1H,(H3,6,8,9)
