16
gdb 34340	3.09828	1.60823	1.32157	0.3999	74.65	-0.2383	0.0028	0.2411	978.2085	0.123812	-400.624668	-400.617426	-400.616482	-400.656089	29.029	
C	-0.084366728	-1.1387945588	-0.0888605925	-0.362883
C	-0.0312126352	 0.0614462925	-0.0451956889	 0.223419
C	 0.0372275631	 1.4953559704	 0.0337368163	 0.23758
O	-0.4515527106	 2.1957247226	-1.1468259334	-0.336812
C	 0.7963298392	 2.9325021768	-1.2784005556	-0.114014
C	 1.3232706122	 2.3504419203	 0.0366391876	-0.076586
N	 0.9619753892	 3.0028178394	 1.3561823741	-0.154911
C	-0.3752219637	 3.6266684606	 1.2551693482	-0.252701
C	-0.3140718048	 2.1651241459	 1.3843983101	-0.072975
H	-0.1316093487	-2.1989250125	-0.13707656	 0.197699
H	 1.3576115663	 2.6013696601	-2.1603185835	 0.116579
H	 0.643136079	 4.0156301547	-1.330559028	 0.113892
H	 2.3269813316	 1.9337954782	 0.0751220127	 0.109871
H	-0.6194755138	 4.1921649273	 2.1489715773	 0.127528
H	-0.7230554141	 4.0671008638	 0.327827229	 0.139907
H	-0.6168622817	 1.6137752787	 2.2682369464	 0.104407
136.5727	145.806	251.0927	339.1246	389.3496	481.4147	508.0438	512.6571	605.5589	624.2964	673.9362	685.4641	735.6598	758.557	887.5303	900.0546	932.8754	976.4008	999.741	1025.0628	1053.7902	1075.8393	1089.2106	1105.7093	1140.887	1154.6014	1161.5906	1217.9448	1252.9567	1307.3417	1335.0259	1357.6322	1495.3971	1519.3647	2237.0744	3026.6818	3076.5149	3133.9931	3144.1078	3171.1127	3221.8675	3499.3992
C#CC12OCC1N1CC21	C#C[C@]12OC[C@H]1N1C[C@@H]21	
InChI=1S/C7H7NO/c1-2-7-5-3-8(5)6(7)4-9-7/h1,5-6H,3-4H2	InChI=1S/C7H7NO/c1-2-7-5-3-8(5)6(7)4-9-7/h1,5-6H,3-4H2/t5-,6+,7+,8?/m0/s1
