18
gdb 36549	3.76317	0.75804	0.6585	2.6247	81.4	-0.248	0.0202	0.2682	1689.5526	0.144735	-401.885259	-401.875658	-401.874714	-401.921099	34.255	
C	 0.6485399293	-0.6820571562	-0.9764263433	-0.471655
C	 0.4557411156	 0.2806630159	-0.2817268853	 0.287295
C	 0.2358287242	 1.4674302257	 0.5520297203	-0.256961
N	 0.9539385993	 2.6884060872	 0.209910382	-0.244442
C	 1.7382086439	 2.6902336311	-0.7749320368	 0.13631
O	 2.4051472853	 3.8221499338	-1.0913844522	-0.209989
C	 3.225913255	 3.7395501721	-2.2330967215	 0.121843
C	 4.4140114539	 4.6418393169	-2.2377950933	-0.28091
C	 4.6013050388	 3.1446306539	-2.0992913444	-0.285555
H	 0.8048880593	-1.543561002	-1.5775896519	 0.200453
H	-0.8364835395	 1.7044895448	 0.5570486108	 0.143949
H	 0.4799980208	 1.2200166116	 1.5938197808	 0.14352
H	 1.9465102954	 1.8355401002	-1.4281215815	 0.101478
H	 2.673921263	 3.5905246269	-3.1579127448	 0.104952
H	 4.6894392496	 5.1238834983	-3.1684406622	 0.121391
H	 4.5623022337	 5.2431530627	-1.3485799905	 0.136945
H	 4.8801849262	 2.7702555662	-1.1209729397	 0.130734
H	 5.0039753961	 2.5840727809	-2.9354874368	 0.12064
33.9247	69.1682	95.3307	155.9115	179.2792	269.6707	309.5337	330.8964	369.135	480.093	494.3187	614.8686	650.9346	667.0767	763.0276	820.669	850.1993	920.2526	957.4478	981.0631	984.3383	1022.9457	1054.1503	1058.6057	1076.5461	1126.4844	1189.8374	1193.3838	1215.7749	1262.0787	1266.1374	1347.28	1381.3936	1414.711	1455.6317	1468.6722	1496.8034	1772.6649	2226.3987	3016.4984	3035.1234	3062.964	3133.0065	3140.3949	3147.7754	3225.6407	3240.4195	3502.8566
C#CCN=COC1CC1	C#CCN=COC1CC1	
InChI=1S/C7H9NO/c1-2-5-8-6-9-7-3-4-7/h1,6-7H,3-5H2	InChI=1S/C7H9NO/c1-2-5-8-6-9-7-3-4-7/h1,6-7H,3-5H2
