16
gdb 49041	2.80997	1.64308	1.31569	1.4033	69.13	-0.2538	-0.041	0.2127	976.0203	0.124728	-437.896993	-437.889536	-437.888592	-437.929421	27.834	
O	-0.9379509078	 1.4361023423	 0.4092817935	-0.255923
C	 0.1326589338	 0.9843041682	 0.0903371421	 0.095733
C	 1.3889638352	 1.8021940557	 0.0058366428	 0.303634
C	 1.4657637913	 3.1192691563	 0.8098077456	-0.284501
C	 1.6781404309	 3.9345364495	-0.5027942101	-0.217497
C	 1.6691425173	 2.6196562591	-1.3256732261	-0.058721
N	 2.9844873798	 2.1507356894	-1.7571931248	-0.249807
C	 3.3479471879	 1.2689111503	-0.9241798727	 0.100218
O	 2.5337641985	 0.93398287	 0.1168725142	-0.266812
H	 0.2663493967	-0.0796869431	-0.2037115564	 0.092431
H	 0.5329659778	 3.3328382023	 1.3341645555	 0.136888
H	 2.296136265	 3.1360747279	 1.5175924098	 0.118727
H	 0.8544717498	 4.6095037384	-0.7434518085	 0.118096
H	 2.6196483804	 4.4811104321	-0.5760651753	 0.118971
H	 0.9457239132	 2.5574388713	-2.1413792382	 0.099618
H	 4.2814220101	 0.7185183103	-0.9525198913	 0.148946
74.9696	99.6997	231.1469	241.8436	305.743	406.5913	479.6458	568.3161	647.005	703.8013	738.5352	817.3372	838.8737	879.3844	918.7354	953.5613	959.7404	971.4333	1040.4441	1076.9906	1106.8461	1132.3352	1164.7698	1202.8421	1225.9412	1246.9751	1270.604	1294.0521	1308.8802	1333.4109	1404.8569	1461.0951	1481.9521	1692.6408	1821.3437	2899.7616	3076.156	3081.6938	3088.6154	3129.5328	3147.7896	3223.1742
O=CC12CCC1N=CO2	O=C[C@]12CC[C@H]1N=CO2	
InChI=1S/C6H7NO2/c8-3-6-2-1-5(6)7-4-9-6/h3-5H,1-2H2	InChI=1S/C6H7NO2/c8-3-6-2-1-5(6)7-4-9-6/h3-5H,1-2H2/t5-,6-/m1/s1
