27
gdb 59055	1.96847	1.22889	0.98433	0.1447	96.61	-0.2495	0.0753	0.3248	1448.7557	0.249344	-353.564268	-353.552564	-353.55162	-353.600308	43.876	
C	-2.4109430385	-0.1172143984	-3.6777623048	-0.386224
C	-1.3625453028	-0.1623706533	-2.5543981386	 0.013779
C	-0.7574094436	 1.2305932552	-2.3174199601	-0.386001
C	-1.9737334414	-0.7077764534	-1.2727949579	-0.028895
C	-2.1677579534	-2.187054004	-0.9850642595	-0.069956
C	-1.7471618969	-3.2878776341	-1.9374679027	-0.415605
C	-1.1886738217	-1.3739949275	-0.1547503103	 0.304589
C	 0.3059289281	-1.6109554389	-0.2849761684	-0.45514
C	-1.6056400917	-1.0424937952	 1.2681578505	-0.44819
H	-1.9784271971	 0.2704798355	-4.6065052165	 0.105148
H	-2.8202295512	-1.110941145	-3.8829274855	 0.114598
H	-3.2474979291	 0.5367114824	-3.4034746019	 0.109291
H	-0.5532102823	-0.8235188332	-2.8849084478	 0.066186
H	 0.022971444	 1.2029270309	-1.5509703089	 0.113795
H	-0.3162549267	 1.632058478	-3.2362031807	 0.105348
H	-1.5268073029	 1.9368664016	-1.9830969394	 0.10944
H	-2.7895986612	-0.0742988012	-0.9225402088	 0.066315
H	-3.0953412405	-2.4238297537	-0.4668445413	 0.072207
H	-0.8429680224	-3.0447942394	-2.4999510222	 0.115114
H	-1.5524508351	-4.2201381236	-1.3948198513	 0.113593
H	-2.5381601752	-3.4949030824	-2.6671520739	 0.115736
H	 0.6259632394	-1.8122830513	-1.3088868712	 0.11402
H	 0.8684715334	-0.7389776208	 0.0692601039	 0.113011
H	 0.6151928608	-2.4655090449	 0.3292223716	 0.110788
H	-1.3412160733	-1.8531076782	 1.9587085997	 0.108707
H	-1.1095908029	-0.1312369993	 1.624771137	 0.10929
H	-2.6860592256	-0.8826941357	 1.3416489988	 0.109054
67.7218	120.129	155.3223	165.8309	185.852	208.6187	222.1648	236.9609	245.0837	269.1304	295.8906	346.9386	372.9201	418.2307	460.9837	502.5326	557.3118	704.8705	773.9777	798.6752	889.313	928.4535	956.6148	966.0851	969.016	981.6625	996.0777	1021.1866	1060.1723	1093.3059	1127.1542	1148.5804	1156.3369	1168.9662	1191.7371	1210.5099	1265.5224	1316.7917	1334.7374	1346.3156	1392.0986	1397.1515	1409.7067	1415.6409	1419.0965	1427.9149	1458.3373	1480.3267	1486.5139	1488.5399	1492.3968	1494.0047	1500.1203	1502.8819	1504.9803	1509.5059	1520.3025	3013.4323	3022.9735	3023.964	3027.061	3030.0108	3038.565	3070.384	3074.3094	3080.4748	3085.8227	3087.2305	3093.486	3096.1883	3103.7369	3105.8744	3107.8049	3120.742	3129.8987
CC(C)C1C(C)C1(C)C	CC(C)[C@H]1[C@@H](C)C1(C)C	
InChI=1S/C9H18/c1-6(2)8-7(3)9(8,4)5/h6-8H,1-5H3	InChI=1S/C9H18/c1-6(2)8-7(3)9(8,4)5/h6-8H,1-5H3/t7-,8+/m1/s1
