23
gdb 121378	4.21526	0.78878	0.70134	1.2549	88.76	-0.2418	0.0221	0.2639	1688.5951	0.206542	-388.301799	-388.292371	-388.291427	-388.336508	35.38	
C	-0.0097409103	 1.6254551168	 0.1251681957	-0.379878
C	 0.0256750228	 0.0949647184	 0.0846470743	-0.173716
C	-1.3687381717	-0.5282068194	-0.0499914138	-0.177899
C	-1.381107666	-2.0686903756	-0.0902775375	-0.045584
C	-2.8070215688	-2.6044465414	 0.0995322526	-0.100048
O	-2.8794338312	-4.0037220381	-0.1078851589	-0.250223
C	-2.5920543157	-4.3700758094	-1.4424641692	-0.113845
C	-1.3989177949	-3.6518665218	-2.0081964709	-0.091011
C	-0.8287980831	-2.6253466571	-1.3814949275	-0.050127
H	 0.9954172633	 2.0458536456	 0.2288218292	 0.111944
H	-0.4494487233	 2.0352290153	-0.7909408227	 0.114614
H	-0.6101688792	 1.9855123166	 0.9680628332	 0.114096
H	 0.6634679462	-0.2286826184	-0.7471373755	 0.10035
H	 0.5022539518	-0.2861478825	 0.9973689528	 0.096909
H	-1.9840713394	-0.1950962569	 0.7978081488	 0.091323
H	-1.8596460705	-0.1404782032	-0.9532160907	 0.095161
H	-0.7672108608	-2.4324895516	 0.748066539	 0.084748
H	-3.1589477523	-2.429158566	 1.1206999775	 0.104028
H	-3.4901865149	-2.0772589747	-0.5890400388	 0.083891
H	-2.4180113308	-5.4530597198	-1.4305067281	 0.11527
H	-3.4730123102	-4.1997477876	-2.0904392445	 0.094299
H	-1.0195280563	-4.0144035079	-2.9603074414	 0.08944
H	 0.0490599151	-2.1468018611	-1.8078904635	 0.086258
72.4548	78.2164	110.8006	175.9383	247.9836	282.701	293.4695	317.4312	359.2763	480.2571	530.4097	545.186	705.2518	741.055	776.6423	849.6826	890.8524	905.7996	922.3765	980.2777	994.2253	1009.2528	1035.8134	1044.1719	1076.3061	1093.621	1125.0873	1142.66	1160.3785	1220.5811	1244.1762	1252.7951	1284.2366	1312.7687	1327.2318	1341.4923	1357.0086	1378.4171	1396.5626	1410.9638	1413.7982	1428.3137	1481.0739	1486.1731	1492.3328	1499.4151	1500.4629	1510.1759	1721.8414	2924.2673	2955.8945	2985.4801	3002.5733	3020.3519	3029.4499	3034.8223	3044.7118	3058.5944	3079.3491	3096.9155	3101.9519	3148.3968	3171.4456
CCCC1COCC=C1	CCC[C@H]1COCC=C1	
InChI=1S/C8H14O/c1-2-4-8-5-3-6-9-7-8/h3,5,8H,2,4,6-7H2,1H3	InChI=1S/C8H14O/c1-2-4-8-5-3-6-9-7-8/h3,5,8H,2,4,6-7H2,1H3/t8-/m1/s1
