20
gdb 96400	2.01733	1.6947	1.19704	4.374	78.8	-0.2632	0.0349	0.2981	1128.8127	0.172406	-403.183803	-403.175208	-403.174264	-403.216822	32.848	
C	-0.0284726923	 1.5267386485	-0.0824820009	-0.418092
C	 0.0499116378	 0.0106093402	-0.002933098	 0.134224
O	 0.6690844548	-0.450380166	-1.1874965756	-0.249985
C	 0.6854252062	-1.8659573063	-1.301988985	-0.067198
C	 1.4598800058	-2.5172732637	-0.1557353395	-0.208634
C	 0.8860209506	-2.0623451177	 1.1909854856	-0.228333
C	 0.8030975352	-0.5171398082	 1.2512713605	-0.164334
C	 2.139453927	 0.0752471926	 1.3627002855	 0.293585
N	 3.1955598845	 0.5344231462	 1.4637144342	-0.33984
H	 0.9731544945	 1.960123978	-0.1451002514	 0.15326
H	-0.5895950706	 1.8207722301	-0.9726899271	 0.129631
H	-0.5323533542	 1.9346281812	 0.7990575276	 0.11636
H	-0.9703009229	-0.4088848083	 0.064389033	 0.069398
H	-0.3494715864	-2.25011403	-1.3230457734	 0.085988
H	 1.1450877498	-2.0846267019	-2.2694683619	 0.11445
H	 1.4086320188	-3.6076755436	-0.244981287	 0.102614
H	 2.5150695299	-2.2304598234	-0.2260190268	 0.131507
H	-0.1322673497	-2.4519177726	 1.3132789929	 0.104801
H	 1.4805550761	-2.4427612218	 2.0261027098	 0.119833
H	 0.238087305	-0.2163680834	 2.1418194574	 0.120766
97.8923	144.5571	171.3899	217.6988	271.7106	305.6069	341.3258	400.5028	430.5356	455.6846	555.9143	621.6439	682.164	778.7813	847.8346	856.0106	880.5352	936.6594	956.0755	977.7543	1046.0778	1066.4494	1100.5423	1115.9214	1144.859	1168.7372	1213.6517	1240.067	1286.3493	1299.5503	1323.8487	1360.2486	1370.8179	1380.5718	1395.5372	1415.0502	1418.6294	1479.3772	1482.3395	1487.7096	1498.6989	1502.72	2353.3682	2939.1566	2957.1513	3031.7102	3043.5218	3044.1701	3049.3453	3086.5523	3092.0881	3096.3627	3123.0013	3133.1332
CC1OCCCC1C#N	C[C@H]1OCCC[C@H]1C#N	
InChI=1S/C7H11NO/c1-6-7(5-8)3-2-4-9-6/h6-7H,2-4H2,1H3	InChI=1S/C7H11NO/c1-6-7(5-8)3-2-4-9-6/h6-7H,2-4H2,1H3/t6-,7+/m1/s1
