21
gdb 104844	2.33515	1.31639	1.10643	3.7048	73.95	-0.2442	0.0564	0.3005	1216.6968	0.181712	-461.337871	-461.328139	-461.327195	-461.372716	36.086	
C	-0.2037813658	 1.4828667944	-0.0979302052	-0.419301
C	 0.0602627123	-0.0138525828	 0.0111205629	-0.102535
C	 1.3231226521	-0.555208081	-0.6959818912	-0.077294
O	 1.8869355525	-1.0348544032	 0.544453996	-0.33397
C	 0.713255429	-0.6032173092	 1.2986729517	 0.345604
C	 1.0813833095	 0.3666402312	 2.421334619	-0.078265
O	 1.9079325817	-0.1941501141	 3.4167234164	-0.438906
C	 0.0231834931	-1.8674296464	 1.82508302	-0.11821
O	 0.9461123957	-2.6669902955	 2.5578248819	-0.423208
H	 0.6910840074	 2.0753892654	 0.11401387	 0.129501
H	-0.5287247794	 1.7312143249	-1.1139161135	 0.121362
H	-0.9941105453	 1.8047456403	 0.5874381095	 0.125653
H	-0.8470663622	-0.5607188048	-0.2635902787	 0.079661
H	 1.1628752499	-1.3655495628	-1.4170422251	 0.103699
H	 1.961394934	 0.2084380157	-1.1575047075	 0.107161
H	 1.6260634183	 1.2192604231	 2.0033812159	 0.099433
H	 0.137549182	 0.7575600973	 2.8453433113	 0.077149
H	 1.6445802049	-1.1187367114	 3.5304138144	 0.289948
H	-0.7970751051	-1.6175317757	 2.5065313215	 0.116984
H	-0.3955837901	-2.4385033033	 0.9833078289	 0.093744
H	 1.7137259257	-2.7593952921	 1.9749704819	 0.301788
44.935	110.4969	133.9775	189.1324	218.922	253.6437	292.5128	325.8991	345.2023	418.4929	440.7611	480.7404	528.6617	668.1355	705.5353	791.9672	887.7281	916.1648	918.2751	947.9631	1010.8027	1016.5714	1041.0846	1066.5288	1103.5599	1119.7307	1146.9343	1162.4336	1180.5229	1205.0768	1259.1399	1273.2275	1300.2397	1343.1601	1358.6754	1389.773	1397.1248	1415.8073	1429.0857	1482.9071	1491.7475	1498.563	1505.0162	1509.5216	1528.4328	2931.876	2992.7455	3016.0542	3036.1408	3048.0752	3064.3915	3068.4637	3077.7298	3100.1529	3112.9602	3711.3539	3747.4544
CC1COC1(CO)CO	C[C@H]1COC1(CO)CO	
InChI=1S/C6H12O3/c1-5-2-9-6(5,3-7)4-8/h5,7-8H,2-4H2,1H3	InChI=1S/C6H12O3/c1-5-2-9-6(5,3-7)4-8/h5,7-8H,2-4H2,1H3/t5-/m0/s1
