15
gdb 51503	3.37417	1.06013	0.83715	5.0751	67.36	-0.2464	-0.0322	0.2142	1283.6448	0.112433	-453.997939	-453.989667	-453.988723	-454.032307	28.879	
O	-0.0886911628	-0.0978885771	-0.0805334894	-0.236352
C	-0.016394251	 1.1033712682	-0.1152984423	 0.149706
C	 1.2924632764	 1.8703655725	-0.1325720042	-0.276306
C	 1.3121274254	 2.9709204671	-1.2069211454	-0.14001
N	 0.3198878344	 4.0259132709	-0.9502584393	-0.246123
C	 0.9756278775	 5.1205135638	-0.904987052	 0.071674
N	 2.3471849641	 5.0173771825	-1.0994863669	-0.339177
C	 2.6796364791	 3.676125384	-1.2800908735	 0.429051
O	 3.7813512542	 3.2181411008	-1.4416515978	-0.355895
H	-0.9251316461	 1.7414046413	-0.1294000488	 0.104825
H	 1.4169307187	 2.3414913925	 0.8521584194	 0.129741
H	 2.121393607	 1.1760037701	-0.289636802	 0.146705
H	 1.1069604363	 2.5211874132	-2.1873595118	 0.138983
H	 0.5296742163	 6.0939609782	-0.7280607426	 0.148448
H	 3.0191398107	 5.7672841119	-1.0700592034	 0.274732
48.2001	69.6264	112.8551	160.6271	257.2549	315.5951	450.7001	501.7355	522.7091	603.9729	663.0464	696.8787	823.1218	859.3421	871.2615	928.6262	949.0468	1049.4396	1068.5503	1090.8811	1108.4923	1182.8556	1210.7946	1246.7363	1295.4412	1329.5802	1351.5351	1398.7461	1421.0627	1454.8258	1674.985	1833.0373	1857.3673	2918.2172	3022.8217	3035.7774	3117.5352	3195.5104	3653.5197
O=CCC1N=CNC1=O	O=CC[C@H]1N=CNC1=O	
InChI=1S/C5H6N2O2/c8-2-1-4-5(9)7-3-6-4/h2-4H,1H2,(H,6,7,9)	InChI=1S/C5H6N2O2/c8-2-1-4-5(9)7-3-6-4/h2-4H,1H2,(H,6,7,9)/t4-/m1/s1
