14
gdb 43554	2.29598	1.5452	1.01996	3.2759	74.47	-0.2613	-0.0017	0.2596	1117.8129	0.099947	-395.689233	-395.680725	-395.67978	-395.722785	30.855	
N	-0.1401886761	 1.1788153533	-0.746112928	-0.530478
C	-0.0287935732	 0.0780461851	-0.1492800341	 0.402743
N	 0.9747647943	-0.6422115617	 0.4907347295	-0.317149
C	 0.1835778817	-1.8571838995	 0.6809007737	-0.141512
C	 0.1127671398	-2.345346215	 2.0567724993	 0.314469
N	 0.0769866847	-2.7579876851	 3.1350095908	-0.315777
C	-1.0584805787	-1.0455982957	 0.1106486713	-0.307075
C	-2.1505321895	-0.7604386976	 1.0096282795	 0.366398
C	-3.0558857813	-0.5319581243	 1.7644977771	-0.439377
H	 0.7398678821	 1.6944547973	-0.7860955176	 0.22133
H	 1.9748073231	-0.5814574846	 0.3662847143	 0.256798
H	 0.4621269174	-2.6896427717	 0.0247224326	 0.134831
H	-1.4174504916	-1.4831306726	-0.8248215187	 0.143188
H	-3.8519603227	-0.3236557279	 2.4362352503	 0.21161
67.0403	101.1882	140.3182	196.6113	264.8207	356.1468	381.0345	438.1802	459.9586	526.6602	612.5501	639.9357	661.4188	667.5288	768.7208	806.563	837.3706	918.9937	978.4521	1041.8668	1070.1742	1096.3248	1141.09	1205.3801	1292.4239	1318.7679	1357.0473	1383.004	1817.2096	2248.207	2364.5077	3043.3107	3081.8603	3474.9343	3502.2435	3609.696
N=C1NC(C#N)C1C#C	[NH][C]1N[C@@H](C#N)[C@H]1C#C	
InChI=1S/C6H5N3/c1-2-4-5(3-7)9-6(4)8/h1,4-5H,(H2,8,9)	InChI=1S/C6H5N3/c1-2-4-5(3-7)9-6(4)8/h1,4-5H,(H2,8,9)/t4-,5+/m1/s1
