21
gdb 60264	3.64276	1.012	0.85616	0.8902	81.55	-0.2504	0.0107	0.2611	1416.1224	0.181117	-424.234814	-424.225366	-424.224422	-424.269831	34.825	
C	-0.2438770254	 1.4778346126	 0.2386285884	-0.386433
C	-0.0025384193	-0.0145789555	 0.0384562986	 0.152627
C	 0.836119761	-0.6270890664	 1.1619912378	-0.386734
O	-1.293704284	-0.6308927833	-0.0431377207	-0.266343
C	-1.3771021363	-1.8073169242	-0.797915269	 0.180171
O	-0.871644679	-2.9559802993	-0.1223751345	-0.264327
C	-1.9436491224	-3.8021177751	 0.2811631093	-0.121733
C	-3.1578370645	-3.2375154161	-0.3991760574	-0.087971
C	-2.8314525605	-2.1209191191	-1.0366270951	-0.105681
H	 0.705908664	 2.0187394809	 0.2911309589	 0.111054
H	-0.8351756958	 1.8877742132	-0.5846232049	 0.114932
H	-0.7902725257	 1.6507789826	 1.1713231693	 0.122957
H	 0.5152960509	-0.1700963738	-0.9223117106	 0.065798
H	 0.9782008903	-1.6967657169	 1.0002062504	 0.137698
H	 1.8163736312	-0.1411563858	 1.2145902294	 0.103402
H	 0.331628383	-0.4896762	 2.1241970099	 0.11537
H	-0.7757008493	-1.6872672457	-1.7139912668	 0.070128
H	-1.7167024708	-4.8301268075	-0.0333295305	 0.112479
H	-2.0518747218	-3.8096161411	 1.3771258071	 0.111733
H	-4.1368664458	-3.6955202315	-0.3388718135	 0.109959
H	-3.4779108196	-1.4634887079	-1.6012691062	 0.110915
41.2023	78.8397	118.3977	196.467	210.4796	259.4493	305.4514	326.3475	372.7863	455.8817	499.9169	586.8338	720.0723	778.9419	809.9456	849.5038	926.8348	931.2741	939.7331	943.9193	951.4891	959.9596	1015.2173	1039.5945	1072.4693	1107.1847	1134.2485	1149.0748	1161.2017	1200.654	1206.7066	1308.0995	1358.2439	1362.7879	1368.5376	1385.0343	1398.6713	1413.3441	1425.3654	1479.0028	1488.583	1492.8702	1512.7553	1512.9292	1692.5125	2962.6066	2970.2706	2984.8217	3023.14	3036.0367	3041.4809	3102.331	3113.8761	3118.7655	3142.817	3213.7717	3242.3754
CC(C)OC1OCC=C1	CC(C)O[C@H]1OCC=C1	
InChI=1S/C7H12O2/c1-6(2)9-7-4-3-5-8-7/h3-4,6-7H,5H2,1-2H3	InChI=1S/C7H12O2/c1-6(2)9-7-4-3-5-8-7/h3-4,6-7H,5H2,1-2H3/t7-/m1/s1
