19
gdb 98792	4.19303	0.91422	0.84108	2.9384	77.12	-0.2483	-0.0244	0.2239	1396.73	0.159006	-423.053521	-423.044633	-423.043689	-423.088666	32.39	
O	 0.4961231478	 1.1972473713	-0.068095788	-0.420558
C	 0.1690655298	-0.1581135836	-0.0442248258	-0.134191
C	-1.3380637092	-0.3724842793	-0.0535123838	 0.342234
O	-2.0655971924	 0.59558834	-0.1469231112	-0.331385
C	-1.8530457932	-1.7890262444	 0.0882297071	-0.082458
C	-2.0724830949	-2.1540037946	 1.5998392557	-0.269316
C	-3.3585976291	-2.943483978	 1.5775670516	-0.059029
C	-3.9713575262	-2.8846393787	 0.3984169613	-0.058524
C	-3.2205630768	-2.0404168888	-0.6005188416	-0.275385
H	-0.356691581	 1.6555798823	-0.1456967391	 0.293389
H	 0.5829113774	-0.6934085925	-0.9176051313	 0.114654
H	 0.5905913071	-0.6570176207	 0.8442825213	 0.117078
H	-1.1012318473	-2.4750981257	-0.3153289393	 0.08713
H	-1.2256725615	-2.7166600919	 2.0073348162	 0.112749
H	-2.1796254071	-1.2552375519	 2.2228428675	 0.124188
H	-3.7328027788	-3.4530679323	 2.4584291817	 0.097492
H	-4.9245362936	-3.3457231875	 0.1649313891	 0.098048
H	-3.7359095469	-1.0892717223	-0.7822124124	 0.136651
H	-3.101852774	-2.5299614415	-1.5734668291	 0.107234
26.5023	62.326	108.088	197.4864	238.576	325.1372	367.7063	384.1874	432.8477	554.4603	590.2809	721.6852	729.1091	784.3278	831.8393	918.0164	922.0567	932.6072	974.6353	982.3693	996.5163	1041.9975	1056.9879	1104.7486	1131.6177	1150.6598	1161.1294	1213.2337	1242.7484	1296.8379	1300.5082	1308.2818	1327.2412	1358.9201	1381.7177	1452.1333	1483.0707	1488.0064	1489.816	1694.8341	1789.3696	2955.7312	2983.6847	3015.1128	3033.6888	3044.6116	3063.1437	3072.782	3185.5608	3210.7422	3676.0441
OCC(=O)C1CC=CC1	OCC(=O)[C@H]1CC=CC1	
InChI=1S/C7H10O2/c8-5-7(9)6-3-1-2-4-6/h1-2,6,8H,3-5H2	InChI=1S/C7H10O2/c8-5-7(9)6-3-1-2-4-6/h1-2,6,8H,3-5H2
