14
gdb 28756	6.41875	0.84572	0.76568	2.0941	67.64	-0.2081	0.0058	0.2139	1390.7542	0.101816	-470.031867	-470.023862	-470.022918	-470.06519	29.033	
O	-0.077865218	 1.3856463976	-0.3360181401	-0.42293
C	 0.0331649334	 0.0709584531	-0.0882648312	 0.456679
N	 0.5574787745	-0.8354952816	-0.8618952768	-0.354034
C	 0.4138115244	-2.0323881627	-0.1651537905	-0.209307
C	-0.1927406856	-1.7967122081	 1.0307010742	 0.36206
N	-0.4382795701	-0.4312748194	 1.0851592584	-0.370379
O	-0.5945098079	-2.5729196573	 2.0710301419	-0.216083
C	 0.3140382594	-3.4636602735	 2.5717525918	 0.108279
N	-0.0680826729	-4.3146537905	 3.4136403756	-0.424798
H	 0.2979248062	 1.527252306	-1.2144351099	 0.316306
H	 0.7417439402	-2.9731219938	-0.5764581515	 0.1205
H	-0.8956492705	 0.0677055218	 1.8295881826	 0.283515
H	 1.3160496171	-3.3126072169	 2.1547403598	 0.110513
H	 0.7175845799	-4.8898015947	 3.7102271058	 0.23968
48.1645	114.4225	151.6924	256.9553	329.0336	398.7001	422.9071	456.165	461.2224	510.9956	648.8051	716.7347	730.8723	798.497	808.1703	829.3301	996.4554	1031.5168	1051.5458	1067.1887	1140.3927	1205.1167	1243.191	1278.6851	1293.5962	1397.0698	1411.8411	1556.1884	1624.4103	1635.0537	1750.4457	3064.7465	3264.7109	3524.3714	3671.749	3801.166
OC1=NC=C(N1)OC=N	Oc1ncc([nH]1)O[CH][NH]	
InChI=1S/C4H5N3O2/c5-2-9-3-1-6-4(8)7-3/h1-2,5H,(H2,6,7,8)	InChI=1S/C4H5N3O2/c5-2-9-3-1-6-4(8)7-3/h1-2,5H,(H2,6,7,8)
