24
gdb 5994	2.54882	1.35869	1.13961	0.981	82.11	-0.244	0.0802	0.3242	1246.2738	0.220099	-351.416092	-351.405285	-351.404341	-351.451706	39.444	
C	 0.0693436064	 1.5561227339	 0.1578071989	-0.377746
C	-0.077117876	 0.0463350425	 0.039036918	-0.043674
O	 0.6397754161	-0.5372639261	 1.1088353767	-0.287303
C	 0.7244477457	-1.968861914	 1.1833063865	 0.376504
C	-0.6689274705	-2.6201273483	 1.1784159793	-0.425606
C	 1.5744339675	-2.5191874941	 0.0255519169	-0.419192
C	 1.461145082	-2.2261067972	 2.5145055737	-0.174956
C	 0.7530655292	-1.696984325	 3.7647696682	-0.393661
H	 1.1224527964	 1.8451690127	 0.0974742772	 0.122946
H	-0.4775629352	 2.0584198612	-0.6460776709	 0.109911
H	-0.3248368845	 1.904035897	 1.1170386473	 0.123312
H	-1.14144014	-0.2305690126	 0.0772209403	 0.086124
H	 0.3109322417	-0.2916789852	-0.933818391	 0.084325
H	-1.1463629361	-2.546910123	 0.1970078856	 0.112331
H	-0.5880195848	-3.6837030634	 1.4239768439	 0.112965
H	-1.3259319714	-2.1479653148	 1.9132190483	 0.122657
H	 2.5473819389	-2.0196529731	-0.0006379386	 0.117161
H	 1.7415705562	-3.5935533413	 0.1515340574	 0.111809
H	 1.0873781029	-2.3765623037	-0.9435267565	 0.110846
H	 1.636387668	-3.3045858474	 2.6081413671	 0.086896
H	 2.4469117502	-1.7530955861	 2.4340641059	 0.097618
H	 0.5249850701	-0.6344148681	 3.6529100562	 0.130983
H	-0.1837217754	-2.2275104394	 3.9626240453	 0.109601
H	 1.3897738625	-1.8205781944	 4.6463499441	 0.106151
47.7731	94.4999	101.9489	164.2523	225.6296	239.7355	249.8821	263.2118	278.0094	332.7559	346.7306	369.6726	444.3549	485.4565	527.6498	729.1256	776.3392	824.0083	845.6933	914.4051	918.4965	972.7374	994.5877	1010.4174	1068.2292	1076.8274	1101.5324	1147.9477	1186.2212	1207.3635	1216.9645	1264.1235	1300.8443	1325.1267	1372.5706	1391.7655	1398.0764	1403.6036	1410.4948	1426.3027	1471.4593	1480.943	1483.522	1492.4098	1496.3	1500.9355	1504.1758	1509.1454	1515.6164	1532.4679	2979.7288	3007.706	3027.9496	3038.2305	3041.6266	3042.5707	3045.6041	3065.8265	3102.0336	3104.4753	3110.8266	3114.7737	3116.5964	3120.0414	3123.1544	3128.8057
CCOC(C)(C)CC	CCOC(C)(C)CC	
InChI=1S/C7H16O/c1-5-7(3,4)8-6-2/h5-6H2,1-4H3	InChI=1S/C7H16O/c1-5-7(3,4)8-6-2/h5-6H2,1-4H3
