19
gdb 90570	3.13161	1.00022	0.91333	4.2373	76.19	-0.2387	-0.0138	0.2248	1325.3515	0.158089	-422.997461	-422.988603	-422.987659	-423.032007	32.734	
O	 0.135665104	 1.4079457649	-0.0239731196	-0.424534
C	 0.0326791906	 0.0043634721	 0.1076921191	 0.116543
C	 0.0864549703	-0.6486193432	 1.53406274	-0.287251
C	-1.2933190422	-1.261191265	 1.2656048456	-0.069093
C	-2.3301320804	-0.2033900066	 1.002116643	-0.019454
C	-2.4379763971	 1.1426768168	 1.7053868521	-0.31146
C	-2.9617570356	 0.9920776693	 3.1156315685	 0.164319
O	-3.9031084229	 1.587167642	 3.5748271202	-0.24421
C	-1.3677075604	-0.55626623	-0.1035360852	-0.100491
H	 1.0616908	 1.6540318783	 0.0693864796	 0.285603
H	 0.7450980595	-0.4977661842	-0.5597269265	 0.079751
H	 0.8835513619	-1.3896318817	 1.6252671776	 0.104597
H	 0.1552369004	 0.0456672696	 2.3771343113	 0.098157
H	-1.5686639757	-2.2814388629	 1.5020806033	 0.091562
H	-3.3055553846	-0.6487680001	 0.8124262838	 0.099134
H	-1.4544974125	 1.6219488703	 1.7525726615	 0.138931
H	-3.1004801908	 1.8175228788	 1.155391274	 0.119603
H	-2.3950141876	 0.2574678514	 3.7358978584	 0.069498
H	-1.7312699571	-0.9378767397	-1.0502000466	 0.088796
50.4732	62.5503	133.1879	193.4012	241.2491	300.6797	334.8558	420.7382	469.0915	501.2531	603.8568	700.9793	741.6007	796.7249	816.045	855.1106	892.7228	961.6277	979.0765	1002.8942	1017.8371	1052.5378	1068.0135	1074.5905	1102.5461	1125.0603	1169.9003	1187.1849	1213.036	1247.1823	1250.8982	1278.3996	1291.5098	1330.8161	1356.5651	1424.5547	1426.7653	1444.7082	1460.0566	1492.1613	1833.1449	2849.9831	3012.1198	3050.5397	3055.5108	3101.4243	3109.6932	3124.8701	3178.0257	3191.1009	3814.4116
OC1CC2C(CC=O)C12	O[C@H]1C[C@H]2[C@@H](CC=O)[C@@H]12	
InChI=1S/C7H10O2/c8-2-1-4-5-3-6(9)7(4)5/h2,4-7,9H,1,3H2	InChI=1S/C7H10O2/c8-2-1-4-5-3-6(9)7(4)5/h2,4-7,9H,1,3H2/t4-,5+,6+,7-/m1/s1
