19
gdb 110136	1.87446	1.34025	1.03816	4.8182	73.25	-0.2498	-0.0277	0.2222	1247.7942	0.157318	-460.140235	-460.130167	-460.129223	-460.175981	35.471	
O	 0.4258716342	 0.539522082	-0.956169613	-0.414508
C	-0.1710476447	 0.1947168091	 0.2887943497	-0.103009
C	-1.4526269143	-0.5934488762	 0.0972811784	-0.07822
C	-1.4637913169	-2.0033933148	-0.3927997367	-0.048439
C	-0.208837151	-2.7925070792	-0.6985030749	-0.086914
O	-0.4201092243	-4.1933578284	-0.5856504304	-0.420464
C	-1.9020121649	-1.7061078972	 1.0523975195	-0.141884
C	-1.0914114881	-2.1699623087	 2.2030384187	 0.156315
O	 0.1133537457	-2.1080645257	 2.3090421669	-0.269842
H	-0.1849128873	 1.1114152681	-1.4322662668	 0.280109
H	 0.5685697812	-0.3899013324	 0.8338785261	 0.154352
H	-0.3847201009	 1.0914952959	 0.889876576	 0.090326
H	-2.284215503	 0.0180629195	-0.2503836914	 0.089265
H	-2.2991228107	-2.2647641524	-1.0410213155	 0.086686
H	 0.1479574533	-2.5152826542	-1.7012742841	 0.102446
H	 0.5836005457	-2.5566726788	 0.0117645158	 0.147929
H	-1.0502030806	-4.4554160189	-1.2643236914	 0.278768
H	-2.9700748224	-1.7678638344	 1.236459622	 0.094114
H	-1.6990140308	-2.6199368735	 3.0191127011	 0.08297
56.3421	62.39	130.3325	142.1753	178.7699	231.777	253.3226	291.2215	297.4553	349.3787	423.7339	470.8695	570.3734	729.6653	780.0445	809.1111	869.51	923.1034	967.3496	1006.0763	1031.6239	1048.6129	1061.6097	1068.1531	1099.4631	1110.3315	1141.0094	1189.8374	1251.4188	1270.8356	1351.2058	1369.748	1393.68	1396.1228	1413.1831	1427.7674	1439.231	1460.1279	1496.1367	1522.7971	1797.1425	2885.1638	2990.6806	3001.879	3104.2161	3115.6145	3138.0729	3152.2182	3158.6667	3810.3064	3814.5443
OCC1C(CO)C1C=O	OC[C@H]1[C@@H](CO)[C@H]1C=O	
InChI=1S/C6H10O3/c7-1-4-5(2-8)6(4)3-9/h1,4-6,8-9H,2-3H2	InChI=1S/C6H10O3/c7-1-4-5(2-8)6(4)3-9/h1,4-6,8-9H,2-3H2/t4-,5+,6-
