17
gdb 14704	3.88288	0.98621	0.8465	2.7477	73.69	-0.2474	0.0242	0.2716	1369.1548	0.139204	-363.822023	-363.812689	-363.811745	-363.856992	32.361	
C	-0.7372163975	 1.0757677025	 0.5167992199	-0.375642
C	 0.0213578056	-0.2036006845	 0.1904633261	-0.070299
O	-0.722678961	-1.048746782	-0.691878013	-0.201297
C	-1.5644840334	-1.9251194205	-0.1145304688	 0.139249
N	-2.3432625	-2.6120176219	-0.8277461799	-0.247502
C	-3.222665932	-3.5867874414	-0.1960984948	-0.256797
C	-3.1867268679	-3.7047628529	 1.2659221645	 0.288227
C	-3.1447104439	-3.7871049766	 2.4652055791	-0.473766
H	-0.1188680561	 1.7343935404	 1.1351849223	 0.120767
H	-1.0017880344	 1.607487416	-0.4012220075	 0.138051
H	-1.6591150673	 0.8579598633	 1.0650014128	 0.127909
H	 0.9520144392	 0.0184326675	-0.3385812961	 0.122409
H	 0.2795697476	-0.7539410236	 1.1050205517	 0.109321
H	-1.4891623037	-1.9855682781	 0.9788943568	 0.093639
H	-4.2505257187	-3.3569647492	-0.5072419364	 0.142655
H	-3.0026696506	-4.5687927366	-0.6363195539	 0.143114
H	-3.1234150258	-3.8764679823	 3.5233343873	 0.199963
44.8768	68.8745	114.0428	166.9938	207.2969	264.1318	268.0537	331.4249	393.8254	421.8191	519.1557	614.1281	649.9578	667.3122	803.7281	903.2881	921.9111	959.1236	1021.4287	1029.1799	1071.2857	1113.45	1173.493	1250.5497	1265.8728	1338.6643	1348.7864	1394.6291	1408.8922	1426.1177	1470.0184	1486.0084	1493.1785	1512.9189	1770.9927	2225.612	3014.9427	3019.8302	3033.4214	3038.874	3041.2822	3090.7555	3114.8565	3126.3929	3502.3242
CCOC=NCC#C	CCOC=NCC#C	
InChI=1S/C6H9NO/c1-3-5-7-6-8-4-2/h1,6H,4-5H2,2H3	InChI=1S/C6H9NO/c1-3-5-7-6-8-4-2/h1,6H,4-5H2,2H3
