14
gdb 43075	2.98066	2.13169	1.63287	3.4673	64.82	-0.2291	-0.0291	0.2	812.1017	0.102929	-436.655625	-436.649613	-436.648669	-436.685942	24.144	
O	 0.001613905	 0.0175824585	 0.2095950937	-0.299316
C	-0.0606442023	 1.1908246989	 0.0276176659	 0.411825
C	-1.1508799786	 2.2829075825	-0.0647158104	-0.038921
O	-1.3526235861	 2.8359634196	 1.2647727718	-0.311162
C	-0.2482402792	 3.8097357018	 1.0900463027	 0.061439
C	 1.0155094051	 3.4360174777	 1.8367070381	-0.096266
C	 1.665821355	 2.4977815386	 1.143464663	-0.071419
N	 1.0067993951	 2.1841514045	-0.1042579793	-0.163257
C	 0.0000659536	 3.2728378595	-0.3201732253	-0.057725
H	-2.0747754658	 2.14672168	-0.6267984924	 0.105103
H	-0.6173416343	 4.8254681775	 1.236957874	 0.097671
H	 1.3068339609	 3.8329694197	 2.798780821	 0.119068
H	 2.5563445591	 1.947121977	 1.4140714626	 0.1393
H	 0.1632759126	 3.8996775542	-1.1931966755	 0.103659
146.9283	238.8626	326.2652	424.1038	554.8295	620.5536	668.1351	719.254	759.1397	798.823	833.4329	861.8057	884.4893	921.2402	936.2948	951.2341	968.3176	982.0482	1026.7311	1032.9408	1100.5596	1154.9232	1186.1246	1231.2318	1252.908	1261.9612	1290.554	1301.6994	1344.5303	1636.1003	1912.7626	3108.9395	3117.6593	3149.4543	3226.0613	3249.9094
O=C1C2OC3C=CN1C23	O=C1[C@H]2O[C@H]3C=CN1[C@@H]23	
InChI=1S/C6H5NO2/c8-6-5-4-3(9-5)1-2-7(4)6/h1-5H	InChI=1S/C6H5NO2/c8-6-5-4-3(9-5)1-2-7(4)6/h1-5H/t3-,4+,5-/m0/s1
