20
gdb 16392	2.97787	2.24481	1.70066	1.6255	73.45	-0.2418	0.0851	0.327	868.7153	0.178384	-348.990977	-348.98355	-348.982605	-349.022133	29.703	
C	-0.1044946057	 1.5301925251	-0.1086408474	-0.410516
C	 0.0395335591	 0.0123306565	-0.0219555812	 0.013608
C	 0.9962154051	-0.5617853837	-1.0948488568	 0.080959
C	 1.203885078	-2.0309549954	-0.6755523384	-0.247155
C	 1.9348012795	-1.2760006357	 0.4528090408	 0.08096
O	 2.3130960232	-0.2571223464	-0.5296509728	-0.301911
C	 0.8033518402	-0.5689090107	 1.2375312951	 0.013609
C	 1.3303124733	 0.4383389022	 2.2572968113	-0.410516
H	 0.8744486478	 2.0157393257	-0.1406538566	 0.132134
H	-0.6479550972	 1.808820502	-1.0183419582	 0.106899
H	-0.6601630254	 1.9367428123	 0.7418144142	 0.112299
H	-0.9508693845	-0.4478840454	-0.110261439	 0.06692
H	 0.8729869547	-0.2393080245	-2.1298674833	 0.072779
H	 0.3332381148	-2.6457948209	-0.4312805069	 0.090799
H	 1.8953859066	-2.5543800428	-1.3364645507	 0.108102
H	 2.7772723955	-1.68837165	 1.0101538133	 0.072779
H	 0.1786072093	-1.307382344	 1.7521634149	 0.066921
H	 2.0501583106	 1.1210646573	 1.798148714	 0.132133
H	 0.5246014217	 1.0350789668	 2.6955393631	 0.112298
H	 1.8364788536	-0.0817062983	 3.0782038346	 0.106899
132.0718	213.924	249.5902	270.0065	276.2065	346.5892	460.0243	487.7471	608.7673	705.7491	745.819	803.4511	819.8754	862.8047	878.5888	916.3305	954.07	1004.2536	1017.5179	1020.3389	1040.7059	1054.6106	1087.1476	1111.4932	1155.6981	1156.9898	1200.8723	1227.6686	1230.0269	1269.8959	1299.4452	1304.503	1328.3216	1370.0037	1371.6168	1402.716	1413.3756	1485.3223	1487.3638	1497.9094	1506.6763	1515.7062	3031.0196	3034.7089	3036.7225	3047.6496	3063.2228	3093.7016	3098.7285	3109.1027	3112.6345	3116.1232	3124.4105	3141.5471
CC1C2CC(O2)C1C	C[C@H]1[C@@H]2C[C@@H](O2)[C@H]1C	
InChI=1S/C7H12O/c1-4-5(2)7-3-6(4)8-7/h4-7H,3H2,1-2H3	InChI=1S/C7H12O/c1-4-5(2)7-3-6(4)8-7/h4-7H,3H2,1-2H3/t4-,5+,6+,7-
