19
gdb 117973	2.97054	0.76442	0.63839	0.679	69.41	-0.268	-0.0429	0.225	1703.7545	0.155948	-497.301881	-497.291263	-497.290318	-497.338759	37.035	
O	 0.1344177029	 1.3742361411	-0.2768726319	-0.41768
C	 0.0639942416	-0.0121884957	 0.0118947619	-0.068536
C	-1.3523146673	-0.5684453959	-0.1715234469	-0.224977
C	-1.4095505753	-2.0843319164	 0.0881510846	 0.034136
O	-0.9486275987	-2.3803885859	 1.3814010735	-0.437596
C	-2.812266494	-2.6499678072	-0.1021102294	 0.331213
O	-3.3472940236	-3.2512131034	 0.8106620058	-0.344395
C	-3.5451361102	-2.4948035899	-1.4224015344	-0.129259
O	-4.7477177536	-3.2048447079	-1.4291779245	-0.418859
H	-0.3072543385	 1.8479306248	 0.4348273603	 0.283922
H	 0.7449050056	-0.4998830081	-0.695343481	 0.111476
H	 0.4226561338	-0.2406725123	 1.0231187738	 0.120127
H	-2.0380994734	-0.0666034755	 0.5237835187	 0.100957
H	-1.6859034196	-0.3426760481	-1.1903866406	 0.113236
H	-0.7682847453	-2.5852780329	-0.6605009467	 0.098107
H	-1.654484361	-2.895900836	 1.8021200932	 0.296892
H	-3.7149118708	-1.418756112	-1.5941694633	 0.128196
H	-2.882385873	-2.8333189141	-2.2344044711	 0.125511
H	-4.8495512897	-3.5566300545	-0.5317397921	 0.297529
40.4513	78.5395	100.5468	109.153	126.4049	228.3876	283.4899	297.4685	345.1966	351.9244	383.9665	410.8283	439.5018	489.6021	589.1771	726.8948	791.8927	856.3305	950.6466	970.135	1041.9024	1061.8629	1073.437	1094.2164	1141.8502	1158.3141	1194.4486	1247.6491	1268.1323	1305.0632	1313.3016	1317.3874	1365.1001	1398.4512	1416.6891	1436.2576	1450.5747	1472.8493	1489.2535	1513.3736	1773.9267	2939.7579	2976.7262	3000.9808	3021.5375	3028.9194	3065.0097	3089.4777	3694.1291	3711.6621	3820.4841
OCCC(O)C(=O)CO	OCC[C@@H](O)C(=O)CO	
InChI=1S/C5H10O4/c6-2-1-4(8)5(9)3-7/h4,6-8H,1-3H2	InChI=1S/C5H10O4/c6-2-1-4(8)5(9)3-7/h4,6-8H,1-3H2/t4-/m1/s1
