22
gdb 118552	1.54334	1.21327	0.7609	3.9446	80.35	-0.2457	0.0363	0.282	1574.5004	0.192644	-441.515423	-441.504383	-441.503438	-441.552723	38.577	
C	 0.1930646609	 1.3549729905	 0.0463243065	-0.382971
C	 0.0191409228	-0.164359806	-0.0294535814	-0.166897
C	-1.4506293188	-0.591504752	 0.0239106639	-0.163414
C	-1.6629449731	-2.1160038512	-0.002584702	 0.019041
C	-3.1407810919	-2.4901991084	 0.1181050765	-0.101312
O	-3.7928580954	-2.035695101	-1.0647455684	-0.427492
N	-1.128358362	-2.7302782702	-1.21327668	-0.267705
C	-0.0227275208	-3.51650145	-1.2329645336	 0.155347
O	 0.6920952114	-3.7517054278	-0.2797362434	-0.334703
H	 1.2494376579	 1.6371739414	 0.0003756179	 0.112962
H	-0.3216625853	 1.8553784384	-0.781839765	 0.111164
H	-0.2181092689	 1.7571522266	 0.9792372672	 0.111044
H	 0.4715109199	-0.5399647125	-0.9542126335	 0.103174
H	 0.5684516642	-0.6438725442	 0.7900640965	 0.108297
H	-1.908844542	-0.2062036243	 0.9450138567	 0.090491
H	-2.006145064	-0.1396311191	-0.8067365826	 0.105342
H	-1.1182260319	-2.5711043099	 0.8301896574	 0.116
H	-3.2328743827	-3.5807893299	 0.2229190122	 0.098416
H	-3.5691934538	-2.0202793361	 1.0157520531	 0.094479
H	-4.7035270252	-2.3424539803	-1.0507692418	 0.294697
H	-1.6912416608	-2.6467947456	-2.0460838641	 0.253203
H	 0.1677969595	-3.9296897584	-2.2440398621	 0.070836
41.089	73.5552	95.9166	112.5634	138.3247	215.7569	232.3277	239.0815	259.0181	278.8369	345.5747	369.6572	509.3891	589.0594	626.9591	742.779	762.9627	862.0495	895.6398	919.6065	953.7634	993.3671	1031.7684	1049.4982	1076.6413	1119.4685	1147.2599	1150.8714	1196.5989	1226.5127	1268.1052	1272.2011	1298.9493	1329.2	1354.504	1381.1504	1399.9467	1412.4669	1428.7463	1450.1093	1480.4392	1492.2533	1498.6789	1508.8601	1514.6755	1522.0308	1798.446	2928.6457	2986.391	3015.7797	3025.6661	3026.9497	3034.5568	3053.7364	3069.7697	3085.1982	3096.5379	3101.4748	3628.2781	3841.1873
CCCC(CO)NC=O	CCC[C@@H](CO)NC=O	
InChI=1S/C6H13NO2/c1-2-3-6(4-8)7-5-9/h5-6,8H,2-4H2,1H3,(H,7,9)	InChI=1S/C6H13NO2/c1-2-3-6(4-8)7-5-9/h5-6,8H,2-4H2,1H3,(H,7,9)/t6-/m0/s1
