17
gdb 66905	2.4262	2.10152	1.76388	1.2805	77.06	-0.2231	0.0135	0.2367	868.7926	0.137743	-384.680858	-384.67417	-384.673226	-384.711277	28.529	
O	-0.0722666303	 1.3882571707	 0.0494916057	-0.47483
C	 0.0109879502	 0.0052827577	 0.0117578889	 0.384584
C	-0.2068187852	-0.8422390188	-1.2041605195	-0.183003
C	 0.910248076	-1.7890312895	-1.299396544	-0.0574
C	 1.6958477594	-1.7187865305	-0.2099842451	-0.094975
C	 1.0940278862	-0.7812483763	 0.827169835	-0.222875
C	 0.2610145691	-1.7476002794	 1.6585077639	-0.083427
C	-0.9937940663	-1.8221019003	 1.1835972441	-0.058684
C	-1.1999208824	-0.8500585725	 0.1028777773	-0.133533
H	 0.6327507157	 1.7452041634	-0.5027279787	 0.282095
H	-0.7045084649	-0.4450005038	-2.0811264228	 0.092184
H	 1.040180274	-2.4812695476	-2.1232083919	 0.09282
H	 2.5523819101	-2.3490140037	-0.0018409357	 0.096472
H	 1.796843256	-0.1544496386	 1.3821083021	 0.072857
H	 0.6943240336	-2.3886745034	 2.4170365568	 0.096825
H	-1.7479361209	-2.531302636	 1.5035306695	 0.09298
H	-2.1771888502	-0.4492550612	-0.1370008956	 0.09791
222.5354	298.6065	320.914	345.589	370.4618	440.3608	567.9698	592.5695	648.7145	669.2067	757.0413	760.8115	786.3416	822.3078	852.1658	879.0689	918.9765	944.6794	957.3241	974.1003	977.0042	1025.4242	1047.4845	1075.3215	1115.3998	1126.8534	1165.1713	1191.0183	1239.9837	1250.0783	1298.15	1314.5082	1371.8016	1378.3203	1461.7913	1614.946	1626.5428	3074.9652	3180.6185	3188.6293	3191.177	3198.5179	3213.3871	3216.9893	3788.544
OC12C3C=CC1C=CC23	O[C@@]12[C@H]3C=C[C@@H]1C=C[C@@H]23	
InChI=1S/C8H8O/c9-8-5-1-3-6(8)7(8)4-2-5/h1-7,9H	InChI=1S/C8H8O/c9-8-5-1-3-6(8)7(8)4-2-5/h1-7,9H/t5-,6+,7-,8-
