15
gdb 33478	2.216	1.73836	1.18416	3.6689	75.54	-0.2557	0.0098	0.2655	1041.6111	0.111885	-379.591916	-379.583899	-379.582955	-379.624423	30.409	
C	 0.0442149026	-1.2292736218	-0.0728098638	-0.421358
C	 0.0293214299	-0.0296063202	-0.0299741008	 0.30417
C	 0.0097357729	 1.422946941	 0.0288858464	-0.015475
C	-0.2330325931	 2.1079232236	 1.4549353039	-0.270931
C	 1.1208696085	 2.8033504944	 1.3096864492	-0.03102
N	 2.1196176888	 1.716356548	 1.1910122717	-0.325247
C	 1.3831873493	 2.1616226819	-0.0021969183	-0.090622
C	-0.898604553	 1.9816936733	-0.9749921522	 0.236591
N	-1.6014272585	 2.4513802313	-1.7628944307	-0.337208
H	 0.0622804982	-2.2906018578	-0.111607996	 0.204518
H	-1.0917263235	 2.7783905559	 1.4313893912	 0.140689
H	-0.3133138167	 1.4007597735	 2.2808926263	 0.133934
H	 1.3961460058	 3.7873783805	 1.6646980013	 0.110763
H	 3.045038884	 2.1414239496	 1.1450323363	 0.241063
H	 1.8794325749	 2.5157414367	-0.8960306645	 0.120131
122.6925	128.0176	161.2199	179.2071	306.9567	416.5261	469.4223	491.7791	563.7676	570.4541	589.2729	643.2615	648.6518	763.3182	824.5345	844.2532	895.9139	940.358	946.2225	975.6038	1013.1959	1075.5105	1100.53	1125.5862	1143.9139	1220.5656	1243.1992	1286.6781	1313.9749	1378.1128	1467.9093	2245.142	2358.27	3092.1133	3161.8245	3202.5469	3215.298	3484.5131	3501.7065
C#CC1(CC2NC12)C#N	C#C[C@]1(C[C@H]2N[C@@H]12)C#N	
InChI=1S/C7H6N2/c1-2-7(4-8)3-5-6(7)9-5/h1,5-6,9H,3H2	InChI=1S/C7H6N2/c1-2-7(4-8)3-5-6(7)9-5/h1,5-6,9H,3H2/t5-,6-,7+/m1/s1
