16
gdb 30934	3.0622	1.21299	0.89523	4.0519	68.44	-0.2111	0.0178	0.2289	1241.112	0.124042	-475.079633	-475.070833	-475.069889	-475.113363	31.83	
C	-0.0723944671	 1.452544563	-0.3364294082	-0.512765
C	-0.0989991198	-0.0200253735	-0.1196855167	 0.20801
C	-1.1152303725	-0.8890299204	 0.0256124408	 0.213453
C	-2.6044382734	-0.7494507823	 0.0115305582	-0.170967
O	-3.0530253406	 0.2984687468	-0.8345943529	-0.400412
O	-0.6132100224	-2.1663679073	 0.2330666153	-0.245933
C	 0.7675480161	-2.1107113921	 0.2178524918	 0.469766
O	 1.4927803501	-3.0560819212	 0.3628295688	-0.401449
N	 1.0683189547	-0.7850954339	 0.0034844157	-0.413774
H	 0.4965880133	 1.714717362	-1.2368083484	 0.132243
H	-1.0918456912	 1.8219373324	-0.451048534	 0.166041
H	 0.3963871796	 1.9709815805	 0.5086307298	 0.138459
H	-3.0349652757	-1.7232283035	-0.2650997356	 0.123211
H	-2.9920154498	-0.5030458165	 1.007027053	 0.135207
H	-2.75320019	 0.0954498061	-1.7275609229	 0.286123
H	 2.0145864786	-0.4599903401	-0.0901998348	 0.272785
63.1652	150.331	176.3777	202.9382	222.3645	288.8928	303.5973	349.6449	399.6868	450.2763	562.2276	622.0747	623.877	725.5131	764.7648	812.6481	950.8224	970.2288	1006.1794	1064.9996	1073.3657	1085.9651	1201.9937	1230.3654	1262.1882	1298.9995	1383.6665	1411.0704	1427.267	1433.1876	1491.2852	1494.9129	1502.3748	1745.0552	1897.9167	3001.7774	3024.357	3054.7499	3071.1739	3151.7898	3689.1669	3804.8586
CC1=C(CO)OC(=O)N1	Cc1c(CO)oc(=O)[nH]1	
InChI=1S/C5H7NO3/c1-3-4(2-7)9-5(8)6-3/h7H,2H2,1H3,(H,6,8)	InChI=1S/C5H7NO3/c1-3-4(2-7)9-5(8)6-3/h7H,2H2,1H3,(H,6,8)
