22
gdb 119773	3.7666	0.82693	0.71453	0.9552	84.39	-0.2391	0.0329	0.272	1679.0545	0.193888	-404.387095	-404.377102	-404.376158	-404.423341	35.629	
C	-0.0300076834	 1.6241613139	 0.1166901852	-0.385645
C	-0.0614351798	 0.0968937846	 0.0259638935	-0.154952
C	 0.7713804401	-0.5686930748	 1.1237376871	-0.292781
C	 0.7655421381	-2.0634880183	 1.0697027396	 0.41892
N	 0.1614162077	-2.7971019017	 0.227396843	-0.321516
C	 0.4578083476	-4.1971507353	 0.5779167778	 0.026274
C	 1.0781549888	-4.9460530301	-0.6008948005	-0.385713
C	 1.3916087307	-4.0832683964	 1.8163279626	-0.122718
O	 1.4977894031	-2.6647651967	 2.0529114694	-0.261745
H	 0.9914577055	 2.0097232278	 0.0207990277	 0.112637
H	-0.6315771144	 2.0783221829	-0.6764108136	 0.114096
H	-0.4256271344	 1.9760269337	 1.0763423418	 0.112728
H	-1.0924459946	-0.2657882775	 0.0915345964	 0.113497
H	 0.3071649313	-0.2331069435	-0.9507676237	 0.113319
H	 1.8165946399	-0.2342561046	 1.0775568944	 0.1232
H	 0.4172733193	-0.2669641785	 2.118648537	 0.123513
H	-0.4845301451	-4.6897226039	 0.8483329886	 0.084929
H	 2.0228892338	-4.479222739	-0.8990848527	 0.117284
H	 1.2773024667	-5.9908619716	-0.3389136114	 0.11042
H	 0.4036929619	-4.9272893017	-1.460854974	 0.129837
H	 0.9889592739	-4.5546081638	 2.7170560555	 0.114382
H	 2.3959313533	-4.4788264254	 1.6289356164	 0.110034
45.8281	59.7281	74.7063	127.0937	188.6902	234.4589	248.4719	308.0167	339.3407	414.3936	437.0024	617.1018	707.5726	717.0706	746.0195	851.9919	879.1639	911.4348	928.6382	938.3272	965.5465	1018.1826	1053.4665	1079.9981	1117.7145	1128.8441	1133.1183	1161.7361	1202.281	1226.795	1251.5217	1305.3255	1319.0901	1332.7123	1363.362	1379.3889	1404.7162	1414.7695	1420.0739	1468.1001	1488.2557	1488.9822	1496.1009	1501.0609	1509.4931	1522.6386	1736.6522	3019.56	3021.6146	3028.3135	3032.7129	3040.8713	3046.3452	3053.0978	3077.3736	3090.9416	3102.364	3102.7125	3104.4142	3121.5352
CCCC1=NC(C)CO1	CCCC1=N[C@@H](C)CO1	
InChI=1S/C7H13NO/c1-3-4-7-8-6(2)5-9-7/h6H,3-5H2,1-2H3	InChI=1S/C7H13NO/c1-3-4-7-8-6(2)5-9-7/h6H,3-5H2,1-2H3/t6-/m0/s1
