19
gdb 71054	2.35563	2.15333	1.32555	3.9761	81.8	-0.2181	-0.0448	0.1733	996.9099	0.157969	-381.941346	-381.933141	-381.932197	-381.973357	32.548	
C	 0.1795455384	 1.4550680151	-0.1333380984	-0.494428
C	-0.0126384486	-0.0408599064	-0.0653360305	 0.27066
C	-0.427821353	-0.783239077	-1.3603448975	-0.220385
N	-0.4540178708	-2.1981806482	-0.9183784525	-0.163872
C	-0.5190520064	-2.1211081106	 0.3510889104	 0.129145
N	 0.7121765312	-2.4258461644	 1.0864991361	-0.376481
C	 0.6895934517	-0.8459554634	 1.1605018229	 0.285784
C	 1.686966825	-0.2470035203	 2.1092190404	-0.493958
C	-0.7800854888	-0.7295105395	 1.0145017208	-0.255053
H	 1.0732243651	 1.7152555812	-0.7115793346	 0.129707
H	-0.6809665314	 1.9174057235	-0.6311959859	 0.126729
H	 0.2693718587	 1.9175962606	 0.8526863416	 0.122755
H	-1.3760121499	-0.3764267804	-1.7476233808	 0.103482
H	 0.3110622518	-0.7266663777	-2.167993739	 0.121783
H	 0.4961853713	-2.6614041617	 2.0633446294	 0.215668
H	 2.7056891615	-0.4871562166	 1.7897481055	 0.145492
H	 1.590677488	 0.8393813258	 2.1622927951	 0.131634
H	 1.5478743201	-0.6463106244	 3.1209381202	 0.123425
H	-1.5748046142	-0.3903851457	 1.6687951169	 0.097911
164.6245	171.1743	188.0524	267.4486	290.3966	316.5953	342.9181	423.2017	461.318	571.0174	579.3971	638.2629	681.0989	714.0522	800.4592	834.2983	888.1145	958.5238	969.6742	974.9434	989.8268	1008.4446	1058.7185	1082.6907	1107.9397	1152.8522	1158.2971	1188.2692	1199.9402	1243.0488	1272.1112	1334.7756	1383.6399	1405.4874	1419.4723	1476.2857	1479.1893	1486.7985	1493.826	1503.449	1618.8356	2975.0388	3028.91	3032.8681	3058.0819	3085.6105	3095.1921	3111.8196	3131.3948	3174.8362	3347.1891
CC12CN=C3NC1(C)C23	C[C@@]12C[N][C]3N[C@]1(C)[C@@H]23	
InChI=1S/C7H10N2/c1-6-3-8-5-4(6)7(6,2)9-5/h4H,3H2,1-2H3,(H,8,9)	InChI=1S/C7H10N2/c1-6-3-8-5-4(6)7(6,2)9-5/h4H,3H2,1-2H3,(H,8,9)/t4-,6+,7-/m1/s1
