20
gdb 8359	5.19001	1.14812	1.12053	1.6915	75.74	-0.2305	0.0923	0.3228	1170.1916	0.176508	-348.947096	-348.938995	-348.938051	-348.979975	30.696	
C	 0.003157923	 1.5042827523	-0.0808843288	-0.383455
C	-0.0079955719	-0.0216130894	 0.0343830807	-0.164152
C	-1.4262924372	-0.6060772322	 0.0623392832	-0.330338
C	-1.4492892234	-2.105109322	 0.1091038044	 0.443294
C	-0.7511562003	-3.0955205914	 1.087363927	-0.255115
C	-1.3379490033	-3.8854316809	-0.1015620357	 0.054035
C	-2.6527468003	-3.0835454262	 0.0115279388	-0.266388
O	-0.8134296016	-2.8518414082	-1.0207768166	-0.347986
H	 1.0259120845	 1.8931825229	-0.0990656754	 0.112604
H	-0.4951597637	 1.8361298162	-0.9985308053	 0.115828
H	-0.5158329834	 1.9719097778	 0.7636055706	 0.111547
H	 0.5374616585	-0.4669388997	-0.8049036592	 0.121308
H	 0.525944966	-0.3267647102	 0.9430627357	 0.09729
H	-1.9787795038	-0.2254509896	 0.9319414473	 0.101238
H	-1.9819166627	-0.282400235	-0.8275408842	 0.10839
H	 0.3376347724	-3.0378334334	 1.1114732751	 0.105353
H	-1.1953653678	-3.2397431639	 2.0761065603	 0.090508
H	-1.1842637749	-4.927108937	-0.3823187985	 0.092393
H	-3.27395965	-3.226475551	 0.9000072322	 0.090338
H	-3.2321876101	-3.0108552989	-0.9100586315	 0.103308
77.6828	82.9957	136.1482	247.3824	312.7516	316.2481	372.809	519.3626	595.8972	682.9772	707.0456	748.2974	798.5778	854.9217	893.3054	910.1631	923.2971	944.2698	986.1035	994.6258	1046.2239	1054.9552	1079.8959	1102.9219	1132.3577	1156.156	1172.2617	1212.7807	1238.6704	1240.4509	1266.4686	1298.5464	1331.1565	1349.6295	1403.7386	1414.0212	1464.6485	1467.9849	1492.7079	1500.3492	1509.7542	1513.1329	3016.0185	3028.2988	3031.233	3050.5887	3053.9738	3062.7224	3072.9039	3098.5288	3102.9537	3121.3475	3140.1621	3145.4831
CCCC12CC(C1)O2	CCC[C@@]12C[C@@H](C1)O2	
InChI=1S/C7H12O/c1-2-3-7-4-6(5-7)8-7/h6H,2-5H2,1H3	InChI=1S/C7H12O/c1-2-3-7-4-6(5-7)8-7/h6H,2-5H2,1H3/t6-,7+
