19
gdb 67819	2.57446	2.24198	1.58503	1.5471	78.33	-0.2319	0.0088	0.2407	904.6296	0.161698	-385.873518	-385.866824	-385.86588	-385.903978	28.825	
C	 0.0163455752	 1.5305926142	 0.0026156886	-0.502673
C	 0.0208395099	 0.0179275949	-0.0859239895	 0.318563
C	 0.5843546515	-0.6295531371	-1.3180098657	-0.162222
C	 0.083215652	-1.8667736788	-1.420243457	-0.091357
C	-0.7221797046	-2.156852875	-0.1739882304	-0.115602
C	 0.3265979806	-2.2072960996	 1.0052226655	-0.215427
C	 0.2708479194	-0.7118067431	 1.3234424874	 0.020765
O	-1.1550795782	-0.5640509252	 1.6122863598	-0.303036
C	-1.3060380739	-0.7392708053	 0.1898585406	 0.062455
H	 1.0374082667	 1.9250217431	 0.0567595589	 0.114016
H	-0.4637014371	 1.9752116293	-0.8759646931	 0.115913
H	-0.5242589663	 1.8596393485	 0.8940617493	 0.13456
H	 1.2801915309	-0.1495961748	-1.9959318998	 0.095096
H	 0.3137769767	-2.6006172501	-2.1834176667	 0.098348
H	-1.4205258249	-2.9910631897	-0.214566758	 0.068416
H	-0.0306325274	-2.7765640642	 1.8661626043	 0.109041
H	 1.2999049232	-2.5837060929	 0.6851916022	 0.098052
H	 0.9258994785	-0.2869720542	 2.0839074474	 0.076823
H	-2.2751400524	-0.4423570503	-0.2152639038	 0.07827
235.7707	252.0297	282.5465	365.9538	392.5654	498.7812	538.8489	615.303	640.9346	712.4782	742.0991	801.3965	831.255	847.9922	879.5428	910.7657	925.4461	943.1492	949.8377	957.3778	965.2576	1018.9912	1030.3791	1081.8873	1091.0001	1122.6885	1164.2448	1191.6615	1215.886	1227.5964	1246.3354	1267.2384	1291.7521	1308.0223	1323.2253	1381.0706	1408.3653	1477.6441	1495.2029	1500.9892	1641.8225	3029.8846	3072.8937	3088.7949	3106.5419	3117.55	3123.7603	3128.0061	3132.1069	3188.7645	3213.7343
CC12C=CC3CC1OC23	C[C@@]12C=C[C@H]3C[C@@H]1O[C@@H]23	
InChI=1S/C8H10O/c1-8-3-2-5-4-6(8)9-7(5)8/h2-3,5-7H,4H2,1H3	InChI=1S/C8H10O/c1-8-3-2-5-4-6(8)9-7(5)8/h2-3,5-7H,4H2,1H3/t5-,6-,7+,8+/m0/s1
