22
gdb 121481	6.03612	0.58694	0.56076	2.764	88.86	-0.2392	0.026	0.2653	2063.3376	0.193081	-404.336896	-404.326838	-404.325894	-404.373562	35.765	
C	-0.0124097881	 1.2767332492	-0.3030634429	-0.383953
C	-0.2498480624	 0.0505560282	 0.5585790529	-0.053018
O	 1.001535906	-0.6225778604	 0.7176165505	-0.204908
C	 0.9716800823	-1.7554082739	 1.4492755612	 0.122198
N	 2.0298389219	-2.3965552377	 1.6745892728	-0.241315
C	 1.9718725334	-3.6093810124	 2.4467735808	 0.081386
C	 2.9050742404	-3.7059010728	 3.6828546937	-0.212786
C	 1.825659071	-4.5896693507	 4.3630082578	-0.219929
C	 0.7786717184	-4.0104341203	 3.3741342171	-0.241787
H	 0.378983237	 0.988013711	-1.2821944118	 0.135594
H	-0.9496803329	 1.8217894762	-0.448172679	 0.119508
H	 0.7103769929	 1.9454283743	 0.1719488648	 0.135913
H	-0.6462243604	 0.3364046787	 1.5427742133	 0.106064
H	-0.9777224184	-0.623528864	 0.0859516808	 0.106206
H	-0.0303866266	-2.0387875671	 1.8014028545	 0.076816
H	 2.1980076521	-4.4456694155	 1.7724895811	 0.085111
H	 3.906793042	-4.1160346904	 3.5374930869	 0.096805
H	 2.9872266429	-2.729069947	 4.1684100017	 0.103484
H	 2.0014407366	-5.6547691096	 4.187335208	 0.102572
H	 1.6474467665	-4.4390950193	 5.4295880054	 0.097493
H	 0.2922325934	-3.1261394296	 3.7989152019	 0.096093
H	 0.010929772	-4.678794787	 2.9761357485	 0.092451
28.0243	59.5771	99.2864	120.3792	168.9503	231.0693	242.8914	255.6263	356.0302	443.3121	491.2337	548.6531	674.9201	769.3285	792.012	817.2264	897.5591	923.5467	928.8921	952.0385	983.5444	986.5815	1040.1133	1074.4681	1107.9184	1141.2175	1162.3285	1183.011	1189.899	1237.5241	1247.2212	1251.1315	1256.9057	1271.0036	1289.5785	1301.7121	1368.2415	1391.6614	1410.5865	1435.8174	1475.5293	1483.1984	1488.1543	1499.1654	1509.9931	1523.7355	1772.3623	2994.7733	3014.1679	3019.9827	3036.0184	3047.6192	3049.0667	3059.2658	3062.5882	3099.2836	3109.9768	3123.9433	3123.9746	3128.8863
CCOC=NC1CCC1	CCOC=NC1CCC1	
InChI=1S/C7H13NO/c1-2-9-6-8-7-4-3-5-7/h6-7H,2-5H2,1H3	InChI=1S/C7H13NO/c1-2-9-6-8-7-4-3-5-7/h6-7H,2-5H2,1H3
