22
gdb 116137	2.54605	1.21611	0.87265	1.6481	85.01	-0.2379	0.0311	0.2689	1400.1346	0.194455	-404.386064	-404.376528	-404.375584	-404.420529	35.452	
C	 0.0803802927	 1.5357113503	-0.0100790625	-0.382146
C	 0.0223458566	 0.0071076035	-0.0134428722	-0.169169
C	-1.4084350192	-0.5474813453	 0.0498956102	 0.060008
C	-1.4478535366	-2.071578365	-0.111901913	-0.241207
C	-2.8497389018	-2.5647037631	 0.2121563614	-0.083429
O	-3.2633566512	-2.1283126461	 1.5128794475	-0.260621
C	-2.8382421914	-0.8927605984	 1.9048133896	 0.394438
C	-3.4606623044	-0.5252575534	 3.2204987371	-0.449699
N	-2.0379998536	-0.1175270476	 1.2995938999	-0.315236
H	 1.1152534099	 1.8918021437	-0.0130250513	 0.103953
H	-0.4171875922	 1.9516235236	-0.8938822508	 0.105017
H	-0.4221265751	 1.9329044252	 0.8750454786	 0.138599
H	 0.5085537932	-0.3865516891	-0.9156056258	 0.084403
H	 0.5816152316	-0.3886227806	 0.8440295329	 0.094774
H	-1.9767015849	-0.0927508208	-0.7772899416	 0.07654
H	-1.1710455702	-2.3726238485	-1.1277991158	 0.101222
H	-0.7301908119	-2.5346533644	 0.5765136694	 0.108177
H	-3.5722245012	-2.1919170326	-0.5265499058	 0.107975
H	-2.9152093457	-3.6556081095	 0.2308086647	 0.114194
H	-3.2182832445	-1.2788023626	 3.9767812156	 0.135929
H	-3.0932622516	 0.4492166252	 3.5389865866	 0.141249
H	-4.5514826284	-0.4989234045	 3.1305346351	 0.135027
82.6414	107.9885	136.0788	169.1697	194.3542	230.5378	268.6024	333.6889	392.7127	454.0911	490.9012	532.0522	622.0657	650.1759	776.0138	839.7166	860.7697	907.3547	930.227	963.5169	1007.0468	1035.5086	1052.1275	1061.9106	1095.9172	1126.9897	1149.9546	1181.3657	1216.6143	1262.0792	1268.7703	1287.5534	1314.7046	1359.1856	1367.6109	1384.991	1401.3483	1406.0023	1415.6065	1474.1931	1475.2992	1476.8539	1482.8411	1495.7162	1511.1267	1512.437	1746.4456	2971.5267	3015.6006	3016.3426	3033.2752	3033.6955	3046.8056	3054.4335	3082.3742	3094.2187	3096.428	3103.3813	3127.9623	3166.8837
CCC1CCOC(C)=N1	CC[C@H]1CCOC(=N1)C	
InChI=1S/C7H13NO/c1-3-7-4-5-9-6(2)8-7/h7H,3-5H2,1-2H3	InChI=1S/C7H13NO/c1-3-7-4-5-9-6(2)8-7/h7H,3-5H2,1-2H3/t7-/m0/s1
