21
gdb 36805	7.69621	0.48158	0.47279	4.3612	84.99	-0.2464	0.0235	0.2699	2279.3185	0.182513	-383.257517	-383.247502	-383.246558	-383.294034	35.365	
N	-0.0273410503	-1.1337303085	-0.0106830646	-0.298187
C	-0.0058259404	 0.0186408614	 0.0634165057	 0.25524
C	 0.0275334729	 1.478648027	 0.187774526	-0.259541
N	 1.3467709775	 2.0056443677	-0.1356680554	-0.29984
C	 1.4281411046	 3.4552402709	 0.0333204678	-0.116188
C	 2.8395620999	 3.9618267081	-0.2693585071	-0.228623
C	 2.9568515213	 5.4664109525	-0.1569808941	 0.035285
C	 3.2054551423	 6.1198848791	 1.1812740443	-0.255211
C	 4.2873374254	 6.1128596958	 0.129306165	-0.27701
H	-0.7029712579	 1.9007291799	-0.5141587579	 0.156205
H	-0.3301321042	 1.7409295669	 1.2012857537	 0.129684
H	 2.0415430107	 1.5516082968	 0.4495990601	 0.229213
H	 0.7166054822	 3.9131159234	-0.6672992242	 0.106198
H	 1.1251151169	 3.7847981433	 1.044618132	 0.086549
H	 3.5488418512	 3.4921616396	 0.4267938973	 0.090333
H	 3.1240626234	 3.6281082645	-1.2744113607	 0.115205
H	 2.304840126	 6.0145497054	-0.8334066187	 0.083424
H	 2.7071196564	 7.0567801974	 1.4040056628	 0.112732
H	 3.3364219867	 5.4731685088	 2.043263894	 0.10858
H	 5.1422144283	 5.4630349197	 0.2863390265	 0.112233
H	 4.5265733571	 7.0446546502	-0.3708342326	 0.113717
40.6478	64.7905	82.4426	123.6471	140.3239	175.833	287.6227	310.7027	394.3266	403.8546	452.8852	575.1855	772.8914	775.6462	783.4824	826.8967	842.1886	916.5821	936.2338	967.5586	993.3716	1040.447	1052.9616	1068.2993	1078.6459	1097.1439	1139.8301	1145.712	1184.0126	1198.736	1228.2407	1236.7208	1276.1477	1300.615	1319.9755	1360.1755	1410.7365	1427.7076	1469.4292	1486.7065	1491.3952	1495.208	1509.2876	1521.0529	2368.3611	2929.4418	2931.316	3008.5975	3027.7655	3044.6327	3062.6754	3128.2207	3130.0607	3134.7633	3206.4901	3221.7474	3513.5706
N#CCNCCC1CC1	N#CCNCCC1CC1	
InChI=1S/C7H12N2/c8-4-6-9-5-3-7-1-2-7/h7,9H,1-3,5-6H2	InChI=1S/C7H12N2/c8-4-6-9-5-3-7-1-2-7/h7,9H,1-3,5-6H2
