15
gdb 72844	2.76917	1.6069	1.29791	5.5967	60.5	-0.2585	-0.014	0.2445	973.2327	0.112363	-494.904184	-494.896453	-494.895509	-494.937092	28.253	
O	 0.0413551419	 1.4191957525	-0.1283177757	-0.468385
C	 0.0219088541	 0.0267251413	 0.0184171322	 0.289176
C	 0.2347905139	-0.8317795648	-1.2528815013	-0.123832
O	-1.0687021808	-1.4405211299	-1.1007879435	-0.281517
C	-1.3691610512	-0.6178408057	 0.0495369731	-0.055836
C	-1.4090640303	-1.4742950464	 1.3148784212	 0.441703
O	-2.3151013008	-2.1190528233	 1.7471032931	-0.32432
O	-0.1786214009	-1.4457533847	 1.9078610347	-0.223816
C	 0.6962030006	-0.4779406175	 1.3130382078	-0.13922
H	 0.9532101223	 1.7104197921	-0.2419513333	 0.289571
H	 0.299366374	-0.2343642608	-2.1692587252	 0.115006
H	 1.0416686351	-1.5732191766	-1.227367769	 0.111299
H	-2.2548858486	 0.0069547859	-0.080314013	 0.121594
H	 1.6656715584	-0.9564480755	 1.145606552	 0.12185
H	 0.8191519324	 0.3590372234	 2.008500537	 0.126726
49.4614	127.0067	217.583	221.2	301.6319	360.5176	389.1405	499.684	582.7144	651.8962	685.9329	747.3681	865.1829	882.4848	922.7521	958.9991	997.4081	1024.4447	1061.4706	1073.1877	1141.6882	1164.9809	1187.9033	1204.7814	1246.9976	1273.4683	1308.7481	1329.9405	1356.2544	1423.5896	1507.0162	1517.8021	1893.9555	3023.8324	3043.4959	3079.517	3096.2692	3104.2144	3797.1674
OC12COC1C(=O)OC2	O[C@]12CO[C@H]1C(=O)OC2	
InChI=1S/C5H6O4/c6-4-3-5(7,1-8-3)2-9-4/h3,7H,1-2H2	InChI=1S/C5H6O4/c6-4-3-5(7,1-8-3)2-9-4/h3,7H,1-2H2/t3-,5-/m0/s1
