14
gdb 124343	2.87083	1.71461	1.08058	2.9264	64.92	-0.2606	-0.0585	0.202	1030.2017	0.101884	-470.069101	-470.061527	-470.060582	-470.101604	27.378	
C	-0.0286093551	 1.4604762753	 0.0009517511	-0.485725
C	 0.0158491188	-0.0381356863	 0.0367131011	 0.450736
O	 0.0468308341	-0.7104170701	 1.056517022	-0.366467
N	 0.0215600142	-0.6858539448	-1.1937460334	-0.125904
N	-0.0105772201	-0.0522058051	-2.4228322586	-0.262839
C	 0.0107234119	-1.0743345424	-3.2439563172	 0.05586
N	 0.0539858594	-2.3259213368	-2.678940698	-0.350476
C	 0.0600919212	-2.0593641291	-1.4016023733	 0.501662
O	 0.0965252764	-2.9193178919	-0.4081860365	-0.393198
H	 0.8327902095	 1.848327264	-0.549363716	 0.173045
H	-0.9193549773	 1.7971117991	-0.5360749919	 0.17309
H	-0.0314686599	 1.8345497648	 1.0238922843	 0.154343
H	-0.0052184864	-0.9313036073	-4.3147013893	 0.143705
H	 0.0899273132	-2.3883812795	 0.4218718158	 0.332167
97.6948	119.4888	153.2039	229.8252	322.9487	355.0222	489.6348	543.4483	583.6498	659.4821	670.3209	756.7055	759.6629	770.1007	936.9796	954.3932	972.3661	1060.9448	1112.8769	1172.2708	1221.8044	1259.0688	1299.5767	1382.6203	1418.6463	1455.7419	1465.1123	1471.2276	1543.713	1658.2056	1774.4776	3063.5199	3129.612	3175.1037	3257.8364	3424.6221
CC(=O)N1N=CN=C1O	CC(=O)n1ncnc1O	
InChI=1S/C4H5N3O2/c1-3(8)7-4(9)5-2-6-7/h2H,1H3,(H,5,6,9)	InChI=1S/C4H5N3O2/c1-3(8)7-4(9)5-2-6-7/h2H,1H3,(H,5,6,9)
