18
gdb 22221	3.27502	0.82512	0.69889	3.0252	72.64	-0.2498	-0.0189	0.2309	1569.8164	0.143127	-476.187384	-476.176821	-476.175877	-476.224103	36.578	
C	-1.3427547884	 0.8844357017	 0.5255542758	-0.47912
C	-0.112093987	 0.2247846815	-0.0320262913	 0.33628
N	 0.9748616084	 0.0367337296	 0.6119874891	-0.157028
O	 0.8946191645	 0.5062944485	 1.9271924629	-0.398871
C	-0.1525989673	-0.2528116106	-1.4720901054	 0.023317
O	-0.5263129057	 0.8191954464	-2.3407404788	-0.422671
C	 1.1294039538	-0.9341451575	-1.9579926325	-0.299471
C	 0.9863268238	-1.3845960034	-3.3959571707	 0.166669
O	 1.7989679153	-1.1846288329	-4.2599721676	-0.242259
H	-1.8689700857	 0.1989934232	 1.2001774379	 0.144592
H	-1.0723085741	 1.7631228547	 1.1160365904	 0.150063
H	-2.0152639769	 1.1773373694	-0.2813922335	 0.142912
H	 1.7768928153	 0.3194920637	 2.2660482657	 0.308532
H	-0.9889573679	-0.960698818	-1.5634536863	 0.104173
H	 0.1917283693	 1.4635283513	-2.3354383058	 0.289273
H	 1.9949791838	-0.2723732001	-1.8696645713	 0.126454
H	 1.3290853297	-1.8159550914	-1.3355980899	 0.13565
H	 0.0496925291	-1.9515216461	-3.6094432288	 0.071506
55.858	69.0436	82.6732	89.8151	148.6134	209.6386	261.43	311.7306	348.3391	365.853	394.3075	443.055	466.5976	553.3902	579.1667	687.201	766.9224	839.8685	930.8245	990.4698	1022.9141	1033.6515	1055.6251	1068.0741	1126.384	1181.4712	1232.6208	1265.9129	1296.7932	1378.2193	1396.6304	1401.4712	1415.5721	1431.9189	1453.1711	1477.2641	1489.1335	1731.7426	1840.8766	2855.914	3012.7526	3041.4675	3043.4552	3108.6553	3110.2892	3152.8045	3790.385	3815.7187
CC(=NO)C(O)CC=O	CC(=NO)[C@@H](O)CC=O	
InChI=1S/C5H9NO3/c1-4(6-9)5(8)2-3-7/h3,5,8-9H,2H2,1H3	InChI=1S/C5H9NO3/c1-4(6-9)5(8)2-3-7/h3,5,8-9H,2H2,1H3/t5-/m0/s1
