17
gdb 8233	5.0336	1.25003	1.06635	5.9484	64.81	-0.2498	0.0237	0.2734	1086.0645	0.143871	-401.017104	-401.009482	-401.008538	-401.050025	27.653	
O	 0.0587738931	 0.2264592212	-1.0019267215	-0.374165
C	 0.0190728588	 1.2790186239	-0.1645892399	 0.39395
O	 0.984242271	 1.6311263793	 0.4584177301	-0.325636
C	-1.3346171374	 1.9915868841	-0.1166844955	-0.338598
C	-2.5263074171	 1.0639827119	 0.1408229681	 0.053194
C	-3.9197802417	 1.5604486452	-0.3336467034	-0.259482
C	-4.0219462803	 0.2598458237	-1.1685784806	-0.157476
N	-2.6096716873	-0.0832832714	-0.8258477262	-0.34292
H	-0.8550537589	 0.0533865842	-1.3328800936	 0.299867
H	-2.5127979209	-0.9904990501	-0.3818998175	 0.238907
H	-1.2805333596	 2.7695635358	 0.6474938757	 0.131353
H	-1.4765794943	 2.4819245668	-1.0886449044	 0.122326
H	-2.5208433756	 0.7325536171	 1.185142939	 0.092098
H	-4.6712898383	 1.682388665	 0.4470948284	 0.117591
H	-3.8783806796	 2.4759257889	-0.9273907711	 0.116902
H	-4.7518678116	-0.458795249	-0.7827545581	 0.111794
H	-4.1872534803	 0.3777957135	-2.2431087296	 0.120297
50.6849	101.6727	129.6925	220.5347	335.5337	379.1336	472.4023	595.4541	670.5231	751.9341	765.2521	812.2763	889.1261	894.0557	905.7882	964.3814	975.3743	988.6493	1027.2284	1081.9175	1122.2527	1134.4856	1203.4265	1229.9331	1260.3028	1269.5038	1278.827	1300.7613	1354.4755	1365.1255	1393.7986	1462.204	1468.8983	1489.7343	1521.7376	1865.2578	3027.9419	3042.8795	3045.316	3079.1725	3089.8024	3119.4262	3135.8907	3352.4955	3526.7521
[O-]C(=O)CC1CC[NH2+]1	OC(=O)C[C@H]1CCN1	
InChI=1S/C5H9NO2/c7-5(8)3-4-1-2-6-4/h4,6H,1-3H2,(H,7,8)	InChI=1S/C5H9NO2/c7-5(8)3-4-1-2-6-4/h4,6H,1-3H2,(H,7,8)/t4-/m1/s1
