16
gdb 68732	3.14878	1.18577	0.87136	5.5446	79.62	-0.2177	-0.054	0.1637	1259.9356	0.125661	-396.955221	-396.947001	-396.946057	-396.988332	30.741	
N	 1.1778384244	 1.2453057376	 0.4553595101	-0.577709
C	 0.384744744	 0.3302519165	-0.2390652664	 0.331593
C	-0.8389044972	-0.1154428142	 0.512938704	-0.375105
C	-1.7044021483	-1.0487041723	-0.3093592889	 0.190471
C	-2.8845092326	-1.5389677932	 0.3762516898	 0.262966
N	-3.8058482983	-1.8966693647	 0.9770422829	-0.316973
N	-1.521195924	-1.4366573606	-1.504968304	-0.241801
C	-0.352280296	-0.9716999995	-2.2306329157	-0.213744
C	 0.6026201275	-0.0806465871	-1.4914425199	-0.18078
H	 1.2518980035	 1.0689075209	 1.4488445762	 0.245217
H	 2.0901857032	 1.399200256	 0.0470135424	 0.246941
H	-0.5612358763	-0.6214479139	 1.4504681971	 0.135463
H	-1.4366347499	 0.75312258	 0.8241162746	 0.152275
H	 0.1556991666	-1.8742949939	-2.6032010807	 0.131977
H	-0.7327054017	-0.4840025867	-3.1419536664	 0.133541
H	 1.4891190251	 0.2432754052	-2.0306925352	 0.075669
59.8997	146.5204	173.5666	238.7943	323.9458	375.0884	398.595	443.2805	477.6613	480.2761	579.2472	602.9996	665.1848	709.8486	816.4025	867.6342	885.6447	960.9994	971.8823	1005.0336	1084.2677	1128.718	1151.5717	1208.8166	1247.6282	1271.6841	1348.2446	1366.8245	1425.8098	1461.7248	1468.3415	1651.5997	1715.5347	1764.3724	2347.093	2988.7361	2993.6949	2998.9953	3022.8606	3156.76	3537.1489	3635.874
NC12CC1(C#N)N1CC21	NC1=CCN=C(C1)C#N	
InChI=1S/C6H7N3/c7-3-5-2-6(5,8)4-1-9(4)5/h4H,1-2,8H2	InChI=1S/C6H7N3/c7-4-6-3-5(8)1-2-9-6/h1H,2-3,8H2
