18
gdb 61781	2.08392	1.30611	0.84562	4.3434	75.14	-0.2662	0.0161	0.2823	1343.5248	0.146102	-435.26884	-435.258553	-435.257609	-435.305149	35.689	
C	-0.0032230492	 1.7948905602	 0.1113902347	-0.39609
C	-0.0464779769	 0.2841360439	-0.0664713706	 0.108114
O	 0.6112410908	-0.0403337384	-1.2880950508	-0.191422
C	 0.0113609594	-0.8988787017	-2.1458290588	 0.131949
N	 0.5698794587	-1.1762768503	-3.2397836352	-0.439597
C	 0.678911174	-0.462249025	 1.0845800075	-0.128815
N	 0.1032979434	-0.1031411505	 2.3803187581	-0.500421
C	 0.6590217021	-1.9196204414	 0.8340695922	 0.265249
N	 0.5861566347	-3.06482257	 0.6913336056	-0.324891
H	 1.0322934615	 2.1469503982	 0.0837008002	 0.134944
H	-0.5500659753	 2.2781118074	-0.7019123793	 0.129686
H	-0.4441069886	 2.0786981242	 1.0677447179	 0.143962
H	-1.0889757528	-0.0637771227	-0.1021009388	 0.09221
H	-0.9518141788	-1.2789526789	-1.7811323654	 0.09619
H	-0.0036856063	-1.8307202507	-3.7673127854	 0.234053
H	 1.7234802818	-0.1326656614	 1.0683784365	 0.146396
H	-0.8101982336	-0.535556617	 2.4888565942	 0.245576
H	 0.6825058551	-0.465787096	 3.1308579674	 0.252907
42.1645	53.9312	114.6217	142.2829	201.2004	213.4401	246.2721	276.9493	290.5303	353.9551	388.8493	487.8954	551.3468	591.4122	647.1618	813.9061	838.8488	874.3099	912.8599	980.0268	1033.6352	1037.4609	1079.4403	1133.5197	1136.8969	1150.4259	1213.7283	1286.4366	1303.2293	1365.46	1372.696	1386.8266	1409.1327	1425.7825	1485.6286	1494.9634	1665.3802	1746.6372	2345.3556	3003.2201	3033.7188	3054.6689	3066.0506	3126.291	3154.2739	3497.5752	3523.7509	3577.3607
CC(OC=N)C(N)C#N	C[C@@H](O[CH][NH])[C@@H](N)C#N	
InChI=1S/C5H9N3O/c1-4(9-3-7)5(8)2-6/h3-5,7H,8H2,1H3	InChI=1S/C5H9N3O/c1-4(9-3-7)5(8)2-6/h3-5,7H,8H2,1H3/t4-,5+/m1/s1
