19
gdb 53538	3.7925	0.80793	0.78314	2.8882	80.08	-0.2451	0.0391	0.2842	1547.4864	0.156752	-422.980399	-422.970385	-422.969441	-423.016937	35.195	
C	 0.0179082406	 1.4690299321	-0.103207905	-0.499017
C	 0.0046617267	 0.0145243015	-0.0269280798	 0.111825
C	 0.0296185623	-1.1897232028	 0.0238853845	-0.003544
C	-0.0232507165	-2.6460752057	 0.1103269338	-0.404709
C	-1.4748532301	-3.1578447064	 0.0702366173	 0.357892
O	-2.2463163464	-2.6035909842	 1.1007258931	-0.473524
C	-2.0905824686	-3.1899501699	-1.3545592591	-0.120229
O	-1.8812469714	-4.6166918005	-1.4335327115	-0.275544
C	-1.5899897916	-4.6904344124	-0.0228188236	-0.116593
H	 0.8461736855	 1.8221159802	-0.7270978455	 0.154403
H	-0.9107852466	 1.8541207621	-0.5380585248	 0.151354
H	 0.1332789307	 1.9200900757	 0.8882960974	 0.151525
H	 0.5432716351	-3.1050683418	-0.7086838608	 0.139185
H	 0.4373791252	-2.9831320763	 1.0479779983	 0.133291
H	-2.0353567071	-1.6614953436	 1.1441004373	 0.282191
H	-3.1560714001	-2.9266944643	-1.3532842597	 0.100302
H	-1.5710832816	-2.6479205076	-2.1524317324	 0.103173
H	-0.6906828072	-5.2811606084	 0.1871425694	 0.100361
H	-2.4345556187	-5.0790981478	 0.5600213612	 0.10766
29.3975	56.9811	80.3967	108.4553	213.4496	249.0815	298.4229	350.4604	387.32	392.0335	418.264	430.2498	509.6448	699.9726	770.8902	829.5669	893.7923	935.5824	962.4318	1003.0989	1023.015	1049.6922	1053.9692	1067.404	1138.5765	1148.5089	1162.6915	1165.2726	1237.2848	1285.7726	1299.8392	1311.3675	1359.7441	1415.1941	1425.3464	1465.7969	1477.5679	1478.7958	1500.82	1527.5694	2363.7185	3010.3801	3020.1885	3023.7319	3029.8146	3062.6239	3068.4624	3074.3743	3091.4855	3092.1824	3755.2798
CC#CCC1(O)COC1	CC#CCC1(O)COC1	
InChI=1S/C7H10O2/c1-2-3-4-7(8)5-9-6-7/h8H,4-6H2,1H3	InChI=1S/C7H10O2/c1-2-3-4-7(8)5-9-6-7/h8H,4-6H2,1H3
