18
gdb 108844	2.35364	1.31589	0.89021	2.6711	75.95	-0.2415	-0.0172	0.2243	1299.3771	0.147204	-439.134964	-439.12565	-439.124706	-439.16954	33.604	
C	-0.0835558679	 1.5962651377	-0.0158416272	-0.388859
C	 0.009098516	 0.0641572623	 0.004639597	-0.006426
N	 0.8106897865	-0.4749540544	-1.0781473466	-0.341463
C	 1.855435048	-1.2589836661	-0.6497619822	 0.359779
O	 2.6643534116	-1.8466860659	-1.3411289907	-0.392781
C	 1.7768306993	-1.2267790065	 0.8445224658	 0.18616
C	 2.7720087813	-1.9553321192	 1.6780125705	-0.171008
O	 2.464908285	-1.760621604	 3.04697101	-0.423662
C	 0.7315066714	-0.4841714356	 1.2127342979	-0.194092
H	 0.9144863544	 2.0397807372	 0.0358200187	 0.131782
H	-0.5730493768	 1.9437160014	-0.9312943131	 0.117971
H	-0.6713381162	 1.9532734261	 0.8355597887	 0.123798
H	-1.0121620642	-0.3479919603	-0.0319549812	 0.099537
H	 0.6044974533	-0.3510928597	-2.0549237739	 0.249834
H	 2.7564005647	-3.0214132233	 1.3981624748	 0.11566
H	 3.781429949	-1.5912097896	 1.425577717	 0.115277
H	 3.1144637446	-2.2402495148	 3.5683368345	 0.292103
H	 0.4163372601	-0.2717466153	 2.2250953601	 0.126389
68.5239	81.0936	136.6174	168.9195	237.041	254.968	311.8124	344.8663	362.1227	409.5574	504.4114	590.0232	613.9875	716.3924	771.5165	823.0393	870.0607	899.8729	969.228	1038.9066	1042.0768	1070.0418	1095.0566	1139.6707	1162.4052	1201.1691	1239.4107	1243.2792	1294.7117	1332.9974	1372.744	1401.6582	1417.5447	1467.9819	1493.1495	1495.8705	1501.1562	1716.0788	1810.7516	2970.1869	2975.9633	2987.097	3037.5544	3107.7561	3124.0717	3234.7405	3666.5162	3840.5596
CC1NC(=O)C(CO)=C1	C[C@H]1NC(=O)C(=C1)CO	
InChI=1S/C6H9NO2/c1-4-2-5(3-8)6(9)7-4/h2,4,8H,3H2,1H3,(H,7,9)	InChI=1S/C6H9NO2/c1-4-2-5(3-8)6(9)7-4/h2,4,8H,3H2,1H3,(H,7,9)/t4-/m1/s1
