13
gdb 130894	7.40747	0.86879	0.77759	5.0159	79.35	-0.2513	-0.055	0.1963	1346.7707	0.089532	-415.605698	-415.597996	-415.597052	-415.638202	27.991	
O	-0.0139814719	-0.0647356732	-0.0031629788	-0.254197
C	 0.0256337627	 1.1404652606	 0.0064028224	 0.090849
C	 1.2511298057	 1.9588324102	-0.000212848	 0.244966
N	 2.4775451507	 1.4132864932	-0.0182747579	-0.238131
N	 3.3017690377	 2.4523617555	-0.0185663888	-0.262664
C	 2.6679620657	 3.6691201493	-0.0013446028	 0.266847
C	 1.3158684861	 3.3702349697	 0.0107703116	-0.405797
C	 3.3743600057	 4.8883658064	 0.0012127908	 0.272862
C	 3.9940670158	 5.920388676	 0.0031174532	-0.415494
H	-0.9046485297	 1.7521462449	 0.0215817907	 0.073455
H	 4.2982271067	 2.2971073231	-0.0308051199	 0.28927
H	 0.5013584634	 4.0756309825	 0.0255243747	 0.131823
H	 4.5332734513	 6.8356677518	 0.0049032827	 0.206211
84.7168	126.9137	176.5089	227.0698	286.6668	424.8287	465.6088	531.919	584.4883	603.7851	639.8465	688.9075	693.0181	719.1171	796.1139	845.9361	1009.7334	1035.6012	1039.4542	1145.4778	1238.7495	1276.6626	1393.8931	1418.4766	1433.7771	1480.5201	1583.4915	1814.9649	2238.0743	2876.7885	3275.566	3499.2951	3644.2221
O=CC1=NNC(=C1)C#C	O=Cc1n[nH]c(c1)C#C	
InChI=1S/C6H4N2O/c1-2-5-3-6(4-9)8-7-5/h1,3-4H,(H,7,8)	InChI=1S/C6H4N2O/c1-2-5-3-6(4-9)8-7-5/h1,3-4H,(H,7,8)
