14
gdb 12759	3.44813	1.79962	1.51403	2.3	63.35	-0.2357	0.0153	0.2511	854.1154	0.104888	-382.446192	-382.438827	-382.437883	-382.47756	28.116	
O	-0.0176559995	 1.4342468677	 0.058476859	-0.451522
C	-0.0200036594	 0.0607634323	 0.0116114058	 0.309359
C	-0.3413519207	-0.7666433821	-1.2114875988	-0.365591
C	-1.1580469256	-0.9179782973	 0.0474585741	 0.047804
O	-0.4941835262	-1.7810851622	 0.9752133372	-0.290586
C	 0.6187621212	-0.836422114	 1.0919022547	-0.114494
C	 1.9276378796	-1.4160664801	 0.8586823965	 0.324898
C	 3.0199122697	-1.8746399804	 0.6534736713	-0.445667
H	 0.6625836122	 1.7594204509	-0.5421341804	 0.295399
H	-0.8315555615	-0.195246334	-1.9944716946	 0.120201
H	 0.3084563316	-1.5714965112	-1.5427997024	 0.128962
H	-2.2323989893	-0.8101143138	 0.1251594714	 0.118355
H	 0.5730870295	-0.3452526587	 2.0712005705	 0.11924
H	 3.9831372683	-2.2871643271	 0.4793073557	 0.203641
123.4314	134.7281	272.0738	305.921	340.6505	380.2959	441.7075	514.5441	559.9023	621.0873	669.6832	678.5216	729.0362	862.4217	904.6948	932.0828	983.7282	993.6535	1012.9695	1028.9955	1076.099	1110.8219	1192.1422	1228.681	1258.2863	1325.1556	1350.0438	1415.5928	1494.7997	2233.6188	3041.1992	3116.9932	3200.2056	3214.0591	3501.4963	3791.1015
OC12CC1OC2C#C	O[C@]12C[C@H]1O[C@H]2C#C	
InChI=1S/C6H6O2/c1-2-4-6(7)3-5(6)8-4/h1,4-5,7H,3H2	InChI=1S/C6H6O2/c1-2-4-6(7)3-5(6)8-4/h1,4-5,7H,3H2/t4-,5+,6-/m0/s1
