17
gdb 32667	2.93261	1.5166	1.08374	5.5017	78.09	-0.2323	-0.0533	0.179	1110.3725	0.138023	-418.07762	-418.069733	-418.068789	-418.110363	29.569	
C	-0.0857278675	 1.5572829691	 0.0032711142	-0.380512
C	 0.0778304424	 0.0376632066	-0.017902823	-0.156609
N	 0.782016595	-0.4685120268	 1.1677855588	-0.109064
C	 2.0971298617	-0.7680978484	 1.1245146101	 0.059836
C	 2.7470358834	-1.2252505407	 2.2331863238	-0.206481
C	 1.957636756	-1.3663195708	 3.4001574651	 0.031829
N	 0.684728734	-1.0855721995	 3.4823885059	-0.324527
C	 0.017311653	-0.6014268118	 2.374108772	 0.448895
O	-1.1562180449	-0.2897105225	 2.3589739061	-0.396605
H	 0.8858848856	 2.060828363	 0.0266931588	 0.117286
H	-0.619196766	 1.8842313338	-0.8941759289	 0.124732
H	-0.6644390757	 1.8574466584	 0.8787364283	 0.163159
H	-0.9020035548	-0.4426388455	-0.031712753	 0.151764
H	 0.641689991	-0.287385256	-0.8972894738	 0.107816
H	 2.5871131065	-0.626511226	 0.1665735465	 0.135284
H	 3.7983863527	-1.4733009908	 2.2121808115	 0.112298
H	 2.4246882875	-1.7398233621	 4.3123705677	 0.120898
86.1526	100.1717	171.9874	232.9093	341.0427	368.2349	449.0317	517.6148	538.0006	572.9245	609.0538	735.0277	775.3807	791.0609	817.1448	896.3004	964.1086	980.2814	1011.493	1016.9639	1076.5919	1111.6393	1121.0599	1180.5556	1205.9574	1288.2421	1374.6608	1390.4377	1408.9297	1428.1208	1465.9854	1489.6624	1501.1387	1509.4474	1557.8288	1677.4477	1783.5255	3045.4416	3061.3646	3109.8102	3122.4203	3128.9982	3147.5254	3184.7914	3238.7481
CCN1C=CC=NC1=O	CCn1cccnc1=O	
InChI=1S/C6H8N2O/c1-2-8-5-3-4-7-6(8)9/h3-5H,2H2,1H3	InChI=1S/C6H8N2O/c1-2-8-5-3-4-7-6(8)9/h3-5H,2H2,1H3
