12
gdb 25548	4.97715	0.94189	0.81746	4.6128	58.58	-0.2326	-0.0258	0.2068	1275.9155	0.076578	-509.821448	-509.813623	-509.812679	-509.85582	26.972	
O	-0.0964075321	 0.0426059114	 0.1121408241	-0.230866
C	 0.070547582	 1.190160557	-0.1306390642	 0.167111
O	 0.9073304507	 1.9715367021	 0.6449067611	-0.217206
C	 0.9917954886	 3.2807789841	 0.3320053251	 0.402726
C	 2.0209714362	 4.0281465073	-0.0759769157	-0.213541
N	 1.5278989482	 5.3379860541	-0.1316213585	-0.364439
C	 0.2032451471	 5.3768984385	 0.2304882833	 0.500989
O	-0.5631353315	 6.2933223718	 0.2945308601	-0.38294
O	-0.1274746024	 4.0508075405	 0.5309553517	-0.236301
H	-0.380952934	 1.7612538047	-0.9580959731	 0.119452
H	 3.0353672261	 3.761750355	-0.3108673637	 0.169311
H	 2.0355768712	 6.1643153037	-0.3940243402	 0.285707
17.4641	113.831	124.3552	202.2243	335.6256	386.324	449.2313	469.6753	570.022	629.6438	722.4131	737.1486	764.3407	832.3549	917.6343	985.1711	1029.963	1069.6676	1080.2568	1133.9312	1307.2385	1349.1118	1402.2092	1413.2062	1737.3842	1899.4409	1918.4715	3015.7632	3304.0949	3695.8447
O=COC1=CNC(=O)O1	O=COc1c[nH]c(=O)o1	
InChI=1S/C4H3NO4/c6-2-8-3-1-5-4(7)9-3/h1-2H,(H,5,7)	InChI=1S/C4H3NO4/c6-2-8-3-1-5-4(7)9-3/h1-2H,(H,5,7)
