19
gdb 26341	4.08368	1.0251	0.83899	1.8566	80.82	-0.1678	0.0505	0.2184	1378.0439	0.159157	-419.216948	-419.207505	-419.206561	-419.251097	35.017	
C	 0.042396372	 1.4061147921	 0.2091660199	-0.331147
N	 0.0004706788	 0.0414235128	-0.289509596	-0.156356
C	 1.2045247762	-0.7240442483	-0.0342349138	-0.328334
C	-1.19304718	-0.6581349261	-0.1077485153	 0.334937
C	-1.3451646394	-1.9863813179	 0.1664097954	-0.157506
O	-2.6953954203	-2.3055424618	 0.1930231941	-0.189657
C	-3.3721670319	-1.1670240033	-0.0434738704	 0.414761
N	-4.7521126572	-1.300334041	-0.1215804988	-0.595055
C	-2.527111444	-0.1151504143	-0.2330598222	-0.408913
H	 0.9495044398	 1.8944461296	-0.1596879369	 0.118181
H	-0.8144530934	 1.9718477147	-0.162213716	 0.128849
H	 0.042106937	 1.4674645548	 1.3115351077	 0.103561
H	 1.3103846486	-1.0258461882	 1.0232766515	 0.101536
H	 1.1980619625	-1.6308117146	-0.6470598761	 0.129343
H	 2.0795818772	-0.1299225805	-0.3114985788	 0.11662
H	-0.6736080542	-2.8040348587	 0.3488027512	 0.119316
H	-5.1004853973	-2.042468879	 0.4721459215	 0.25368
H	-5.2401973847	-0.4352435449	 0.0638525678	 0.253069
H	-2.8104345495	 0.9002779248	-0.4541111747	 0.093114
60.0475	134.6676	178.4251	192.8869	203.8815	250.915	270.9856	359.1465	389.9934	398.1613	513.708	560.8706	584.427	639.5014	677.6037	706.0515	722.8325	762.5938	928.4809	976.5651	1013.0937	1077.986	1091.4865	1125.374	1143.6371	1169.5931	1181.1405	1233.7239	1270.2058	1309.0514	1387.284	1444.3822	1464.8379	1476.192	1483.3408	1491.2873	1505.0396	1515.8351	1607.9738	1638.2627	1676.866	2944.9147	2954.7549	3064.6898	3074.3521	3111.1518	3124.4963	3265.288	3310.3566	3546.1101	3647.4983
CN(C)C1=COC(N)=C1	CN(C)c1coc(N)c1	
InChI=1S/C6H10N2O/c1-8(2)5-3-6(7)9-4-5/h3-4H,7H2,1-2H3	InChI=1S/C6H10N2O/c1-8(2)5-3-6(7)9-4-5/h3-4H,7H2,1-2H3
