21
gdb 82547	3.37896	1.27166	1.22852	1.2938	82.15	-0.2205	0.0811	0.3016	1144.5982	0.182928	-387.065838	-387.057573	-387.056629	-387.098761	32.87	
C	 0.1151027779	 1.6580900427	 0.0112691468	-0.412561
C	 0.0853301287	 0.1475492146	-0.021681026	-0.035413
C	 0.6309212167	-0.6832056388	-1.1780385225	-0.090236
C	 1.6039589378	-0.0330200607	-2.1609030507	-0.336512
C	 2.8971134416	 0.0598503511	-1.3503052207	 0.4674
C	 4.1834024924	-0.5955644678	-1.7764214307	-0.322693
C	 4.0648521162	 0.920573207	-1.6943679802	-0.332884
O	 2.5587872986	-0.0092548661	 0.0277902486	-0.296298
C	 1.3316494784	-0.6853881009	 0.1535558417	 0.058115
H	 1.0969079975	 2.0462213069	-0.2682922052	 0.134169
H	-0.6322356528	 2.0884220571	-0.6644490626	 0.112492
H	-0.1015437816	 2.0209697398	 1.021562325	 0.117455
H	-0.8014118472	-0.291140913	 0.4312211881	 0.081582
H	 0.0541649416	-1.5373981029	-1.512115213	 0.087343
H	 1.7326984008	-0.6504385735	-3.0537008892	 0.107017
H	 1.2654829834	 0.9555561665	-2.4918800279	 0.106945
H	 4.7636118222	-1.0867618847	-1.0034787366	 0.12014
H	 4.2360127515	-1.0588303567	-2.7564950767	 0.107615
H	 4.0321420361	 1.491565733	-2.6166206931	 0.112077
H	 4.5708890205	 1.4138009944	-0.8719777709	 0.1244
H	 1.3609201297	-1.539217718	 0.823419926	 0.089849
51.7622	163.5116	187.9674	237.4762	286.3354	322.3749	433.0926	452.0559	507.4998	605.9674	716.1592	743.4134	767.0175	778.6021	788.701	853.9538	890.7225	912.249	927.6071	974.9602	979.9641	988.4455	1028.557	1046.7984	1066.7419	1073.7212	1099.92	1106.0482	1134.5512	1152.2055	1189.6852	1202.0092	1218.7518	1244.2025	1284.8542	1336.1983	1348.764	1370.0883	1418.2129	1427.4887	1450.4185	1487.9376	1497.4977	1500.901	1507.3077	3034.1004	3036.9749	3089.7097	3090.8393	3119.8011	3127.5488	3131.6365	3133.7367	3150.6849	3177.0072	3213.5681	3227.8697
CC1C2CC3(CC3)OC12	C[C@H]1[C@H]2CC3(CC3)O[C@@H]12	
InChI=1S/C8H12O/c1-5-6-4-8(2-3-8)9-7(5)6/h5-7H,2-4H2,1H3	InChI=1S/C8H12O/c1-5-6-4-8(2-3-8)9-7(5)6/h5-7H,2-4H2,1H3/t5-,6+,7-/m0/s1
