15
gdb 42806	2.76096	1.53805	1.25065	2.3232	70.33	-0.2543	-0.0211	0.2332	1007.9941	0.112128	-420.575048	-420.567615	-420.566671	-420.607143	28.604	
O	-0.0624702559	-0.0325337685	-0.157219503	-0.303757
C	-0.0474197041	 1.1432934485	 0.0105019185	 0.453376
C	-1.0420471349	 2.3301047668	 0.01409131	-0.041528
C	-0.8303822321	 2.9611789655	 1.3993428666	-0.252285
C	 0.7517129489	 2.9572301452	 1.4135940064	-0.178308
C	 1.359821877	 2.2247449211	 2.5096206203	 0.306712
C	 1.8633157174	 1.5965637184	 3.4022164118	-0.450148
C	 0.9716992353	 2.3068405901	 0.0165832119	-0.054929
O	-0.0193031745	 2.9975086905	-0.8015665342	-0.289063
H	-2.0330877517	 2.3029298489	-0.4332833612	 0.110313
H	-1.2328834867	 3.9744888287	 1.4441498089	 0.125135
H	-1.2578976324	 2.3671058141	 2.2095046243	 0.132884
H	 1.1325808458	 3.9821640919	 1.3857415236	 0.122091
H	 2.3104448823	 1.0446237567	 4.1917375666	 0.203902
H	 1.9743084457	 2.2673593322	-0.4019657803	 0.115608
83.962	145.8119	185.9499	278.873	438.1081	452.458	490.9586	508.6031	625.4954	643.4955	648.7814	680.2256	762.3855	826.9767	870.088	878.203	923.0927	949.2514	981.1334	1041.9073	1047.4223	1068.2658	1125.9581	1152.3132	1216.4026	1222.2684	1267.7075	1290.6768	1309.5776	1335.278	1484.3422	1932.7304	2238.6151	3064.9572	3080.9606	3136.1351	3158.6844	3166.5254	3503.7577
O=C1C2CC(C#C)C1O2	O=C1[C@H]2C[C@@H](C#C)[C@@H]1O2	
InChI=1S/C7H6O2/c1-2-4-3-5-6(8)7(4)9-5/h1,4-5,7H,3H2	InChI=1S/C7H6O2/c1-2-4-3-5-6(8)7(4)9-5/h1,4-5,7H,3H2/t4-,5-,7+/m1/s1
