20
gdb 18479	2.94515	1.90951	1.46304	1.0611	74.94	-0.2371	0.0802	0.3173	957.7116	0.17681	-348.963836	-348.95556	-348.954616	-348.996261	31.212	
C	 0.1703431548	 1.1029942319	-0.2328230935	-0.237207
O	-0.4415034841	 0.0249905316	 0.4454766107	-0.240712
C	 0.4282573883	-0.6233188808	 1.323051564	 0.148124
C	 0.0946289113	-1.9627026497	 1.8634339006	-0.122677
C	-0.5682265752	-2.8364912055	 0.7902635341	-0.250339
C	 0.7195900306	-2.7202267278	-0.0918738079	 0.045755
C	 0.6000569655	-2.2945128512	-1.5511474977	-0.412395
C	 1.3356199382	-1.7627358542	 0.9441115773	-0.136202
H	 1.0103399428	 0.7686355816	-0.8582357453	 0.110726
H	-0.5913447861	 1.5586461669	-0.870064401	 0.124995
H	 0.543486269	 1.86175656	 0.472143611	 0.105301
H	 0.8789560425	 0.0526909292	 2.0544017767	 0.07971
H	 0.0538682798	-2.1521002981	 2.92987563	 0.084575
H	-0.7667403138	-3.8572146021	 1.1224398109	 0.096684
H	-1.4809407731	-2.4175625446	 0.3587745776	 0.10914
H	 1.2606018889	-3.6709829456	-0.040261378	 0.072682
H	-0.0165141493	-1.3988764285	-1.6526781801	 0.132527
H	 1.5858727226	-2.0852945366	-1.9825487329	 0.105537
H	 0.141267126	-3.0895206599	-2.1503245025	 0.107611
H	 2.3871685014	-1.7485392766	 1.212506966	 0.076164
108.7061	146.2266	171.1041	192.1653	229.749	301.0927	320.8613	413.7479	514.1903	603.8412	704.562	736.1649	794.9121	850.5055	873.7638	935.8681	967.5861	982.4358	993.9328	1030.4489	1074.3459	1092.8952	1106.9504	1122.9812	1145.1182	1182.6199	1195.0101	1201.8323	1249.069	1252.739	1280.5007	1300.4822	1349.9109	1376.1749	1402.8422	1435.0849	1481.9174	1486.1428	1488.9472	1495.8951	1504.4367	1513.1187	2981.637	3027.5491	3033.4629	3041.7993	3065.1674	3070.2907	3084.1585	3115.4598	3117.7963	3130.4122	3155.9895	3176.1971
COC1C2CC(C)C12	CO[C@H]1[C@H]2C[C@@H](C)[C@@H]12	
InChI=1S/C7H12O/c1-4-3-5-6(4)7(5)8-2/h4-7H,3H2,1-2H3	InChI=1S/C7H12O/c1-4-3-5-6(4)7(5)8-2/h4-7H,3H2,1-2H3/t4-,5+,6-,7+/m1/s1
