17
gdb 54339	1.88106	1.72364	1.24471	1.5436	75.01	-0.2403	-0.0303	0.21	1096.8593	0.132276	-421.787722	-421.77819	-421.777246	-421.822934	33.826	
C	 0.187893874	 1.5056297428	-0.0049357115	-0.486757
C	-0.0203512387	 0.0153299214	 0.1262324166	 0.342177
O	-0.1562325638	-0.5562179688	 1.1794352776	-0.29678
C	-0.1015101792	-0.7613410853	-1.21658358	 0.160651
C	-0.8237946556	-2.1278590582	-1.1255271552	-0.338443
C	-1.9335845532	-1.4452030752	-1.9452092827	-0.071163
O	-1.1929112722	-0.1988943139	-2.0055242456	-0.316898
C	 1.1803502452	-0.7313511472	-1.9011630546	 0.292424
C	 2.256487408	-0.7072821266	-2.4378173937	-0.451712
H	 1.1641829046	 1.7021356442	-0.4599741203	 0.155902
H	-0.568679717	 1.9222620238	-0.6760523525	 0.164076
H	 0.1323716573	 1.9756097353	 0.9771290472	 0.140141
H	-0.3067992926	-2.9455235222	-1.625148496	 0.124989
H	-1.0723732115	-2.4045718907	-0.1019019189	 0.145279
H	-2.1038524803	-1.8530936629	-2.9469400578	 0.115195
H	-2.8956829749	-1.316080245	-1.4380865858	 0.114578
H	 3.2022502101	-0.6893090515	-2.9216132868	 0.206339
40.9081	78.1556	119.4859	132.746	176.0374	220.4562	285.1365	371.2131	453.2117	510.6208	555.8766	591.6954	615.6092	623.9676	670.8394	785.6337	845.9117	883.6597	950.1942	965.1256	1000.4119	1018.0737	1052.6302	1111.2667	1158.827	1193.8612	1214.2015	1240.5681	1259.0047	1345.0019	1376.4539	1463.8436	1469.8077	1486.7327	1528.2953	1821.3684	2225.1053	3036.3165	3050.8615	3081.9248	3106.0403	3118.0848	3160.8815	3168.7459	3497.8116
CC(=O)C1(CCO1)C#C	CC(=O)[C@]1(CCO1)C#C	
InChI=1S/C7H8O2/c1-3-7(6(2)8)4-5-9-7/h1H,4-5H2,2H3	InChI=1S/C7H8O2/c1-3-7(6(2)8)4-5-9-7/h1H,4-5H2,2H3/t7-/m1/s1
