17
gdb 20892	5.47514	1.28065	1.13841	2.4216	72.15	-0.19	0.0308	0.2208	1080.5778	0.143919	-360.060761	-360.052603	-360.051658	-360.093923	29.56	
C	-0.2428368432	 1.5054563008	 0.1746339135	-0.371223
C	 0.1731387794	 0.0458588526	-0.0194899921	-0.139547
N	 0.7827473532	-0.5288011227	 1.1662113571	 0.067021
C	 0.1760297716	-1.2663196953	 2.1421019981	-0.114035
C	 1.1319021603	-1.506655079	 3.1129725997	 0.160476
N	 0.9790924181	-2.1719938561	 4.3429989676	-0.608479
C	 2.2877097998	-0.8575628538	 2.6242169328	-0.051746
N	 2.0652194084	-0.2677571557	 1.4484240574	-0.269212
H	 0.6265927422	 2.1106917976	 0.442657166	 0.145607
H	-0.6740138756	 1.9026333014	-0.749665921	 0.115972
H	-0.9872868458	 1.5985292545	 0.970969104	 0.124123
H	-0.6896859838	-0.5746535686	-0.2803129088	 0.113949
H	 0.9028786865	-0.0380448392	-0.8292574015	 0.131092
H	-0.8588665162	-1.5607627831	 2.0683747385	 0.114645
H	 0.2723925031	-2.8956116605	 4.3102060199	 0.240212
H	 1.8467238993	-2.5837678317	 4.6622675541	 0.242788
H	 3.2670398227	-0.8072365412	 3.0785254348	 0.098358
41.8198	111.0069	149.2174	210.6035	296.4707	300.1991	401.6236	434.5318	607.8637	639.4692	672.1984	721.003	741.5567	779.536	794.1604	844.8215	960.3978	1013.4835	1032.7462	1096.1879	1102.1839	1112.5524	1203.9875	1235.3913	1283.7931	1382.1879	1392.4587	1404.3652	1408.6693	1440.5767	1479.212	1488.1674	1491.9065	1507.1224	1631.3425	1659.1773	3043.0486	3058.0775	3101.225	3117.0883	3134.3024	3236.0688	3256.2063	3534.2795	3620.9726
CCN1C=C(N)C=N1	CCn1cc(N)cn1	
InChI=1S/C5H9N3/c1-2-8-4-5(6)3-7-8/h3-4H,2,6H2,1H3	InChI=1S/C5H9N3/c1-2-8-4-5(6)3-7-8/h3-4H,2,6H2,1H3
