15
gdb 28390	3.23368	1.46001	1.00854	2.6834	78.42	-0.1799	-0.0304	0.1495	1107.65	0.114381	-450.160936	-450.152918	-450.151973	-450.193129	31.171	
N	 0.1396522089	 1.376367226	-0.1583363774	-0.570653
C	-0.0586284555	 0.0169263759	 0.0391495491	 0.367248
C	-1.1914847446	-0.7000995155	-0.1016803039	-0.16335
N	-1.2107637594	-2.0790913753	-0.0045787979	-0.332575
C	-0.0981909414	-2.6846133291	 0.2565992041	 0.329293
N	-0.0066004548	-4.0478438981	 0.3067264561	-0.552737
C	 1.1700016596	-1.9687257293	 0.4998218177	 0.349795
N	 2.2336913491	-2.5728630416	 0.8444741562	-0.549446
O	 1.1194985161	-0.607404404	 0.3418686815	-0.242583
H	 0.7805778785	 1.7862063991	 0.5106920665	 0.255403
H	-0.7256347794	 1.8967940386	-0.2011402228	 0.258635
H	-2.1329252067	-0.2089948951	-0.3151455308	 0.096554
H	-0.8748066305	-4.5494921036	 0.4000876728	 0.25645
H	 0.8082251994	-4.4147626223	 0.7735962258	 0.273121
H	 3.007266181	-1.9220364456	 0.9786439629	 0.224843
108.7982	162.6599	231.8905	318.2777	341.92	374.927	399.3816	469.4674	492.3188	505.4767	523.5751	573.7992	623.5469	701.9794	721.9682	785.9055	808.3105	816.1529	848.7993	982.1194	1036.0059	1098.8525	1147.5098	1261.0971	1284.0156	1301.8089	1399.2335	1436.7679	1582.538	1626.0947	1659.8552	1679.5905	1735.4484	3197.2333	3494.186	3534.2698	3583.7106	3643.9523	3713.9496
NC1=CN=C(N)C(=N)O1	NC1=C[N]C(=C([NH])O1)N	
InChI=1S/C4H6N4O/c5-2-1-8-3(6)4(7)9-2/h1,7H,5H2,(H2,6,8)	InChI=1S/C4H6N4O/c5-2-1-8-3(6)4(7)9-2/h1,7H,5H2,(H2,6,8)
