18
gdb 16572	2.97685	2.58299	2.11623	2.1224	65.23	-0.2498	0.077	0.3268	750.2047	0.158073	-384.960439	-384.954366	-384.953422	-384.990312	25.156	
C	-0.0387428295	 1.5815385512	-0.0542547207	-0.232587
C	 1.4655994676	 1.96129757	-0.0566751453	-0.255265
C	 2.1673042717	 0.5853779868	 0.0201519442	 0.196493
O	 1.2530735006	-0.2959281486	-0.6004952693	-0.250873
C	 0.0059775289	 0.036446429	 0.0311163348	 0.088661
C	 0.082574795	-0.4888261386	 1.471724013	-0.217653
C	 1.2891415822	 0.1524661951	 2.176079488	-0.080198
O	 2.4450441625	 0.1728415534	 1.3419878693	-0.25857
H	-0.5898001585	 2.0266385714	 0.7784612237	 0.102102
H	-0.5267929721	 1.8935265083	-0.9801101339	 0.108436
H	 1.7482066525	 2.4601157301	-0.986190484	 0.109513
H	 1.7588326311	 2.6083450928	 0.7728961275	 0.112601
H	 3.1173239158	 0.5259700036	-0.5125929972	 0.08803
H	-0.7920363246	-0.4513371743	-0.5326033647	 0.077502
H	-0.8357976854	-0.2720973465	 2.0290428062	 0.094971
H	 0.2084422484	-1.5752347497	 1.4302384757	 0.113059
H	 1.0379259628	 1.1754504864	 2.4976187784	 0.091817
H	 1.5716619209	-0.4075610004	 3.0713922143	 0.111962
183.1263	267.9348	349.3999	409.1954	462.9132	511.3026	617.9269	758.1788	793.2802	799.0178	820.8562	851.4661	897.9635	916.9921	954.7734	971.0521	997.4056	1012.0918	1040.7527	1077.437	1102.371	1139.1915	1186.2799	1229.7628	1244.7384	1260.0655	1278.0567	1293.5753	1320.0409	1345.0424	1365.7018	1369.2158	1395.3005	1418.7811	1472.7386	1484.87	1500.7764	1516.9909	2976.7108	3041.509	3062.8066	3075.089	3085.0386	3088.2889	3095.1884	3104.9237	3113.7757	3126.2956
C1CC2OC1CCO2	C1C[C@@H]2O[C@H]1CCO2	
InChI=1S/C6H10O2/c1-2-6-7-4-3-5(1)8-6/h5-6H,1-4H2	InChI=1S/C6H10O2/c1-2-6-7-4-3-5(1)8-6/h5-6H,1-4H2/t5-,6+/m1/s1
