23
gdb 114080	3.26497	1.10235	0.98958	1.3621	85.11	-0.2503	0.0785	0.3288	1320.8902	0.206876	-388.289988	-388.281187	-388.280243	-388.323068	35.315	
C	-0.0399647311	 1.5784355592	 0.057618393	-0.381849
C	-0.0003908022	 0.0469103326	 0.090620988	-0.201058
C	-1.3825039961	-0.5968104802	-0.0405886331	 0.065488
C	-2.075292267	-0.4471929217	-1.4379260976	-0.297387
C	-2.3477096431	-1.9364230567	-1.7411809948	 0.426368
O	-3.0659386855	-2.255978467	-2.8923513808	-0.48641
C	-2.8668187618	-2.463214421	-0.3818341769	-0.265926
C	-1.4082898528	-2.1432945796	 0.0581975576	-0.043353
C	-0.9831806857	-2.6000755096	-1.3670349244	-0.291268
H	 0.9626059611	 2.0049948821	 0.1608038785	 0.110839
H	-0.4626867626	 1.9486426007	-0.8826290929	 0.11653
H	-0.6559274225	 1.9739843548	 0.8731048278	 0.113509
H	 0.6593856298	-0.3194564027	-0.7059953248	 0.093377
H	 0.4528826076	-0.2821381874	 1.0352321419	 0.091836
H	-2.0268728283	-0.1755391218	 0.7414561788	 0.064262
H	-2.999894867	 0.1362019063	-1.4083222559	 0.098653
H	-1.412872782	 0.0040187467	-2.1872469586	 0.083172
H	-2.6809240497	-1.7763462172	-3.6336032624	 0.27631
H	-3.6862590463	-1.9225964446	 0.1015244666	 0.086386
H	-3.0776417897	-3.5342033607	-0.41312885	 0.100235
H	-0.9733530169	-2.5899062155	 0.9520748037	 0.058999
H	-1.0158660137	-3.684894034	-1.4873356665	 0.098824
H	-0.0643946145	-2.1962420827	-1.8022425173	 0.082461
98.1267	145.6941	172.0771	240.8047	250.3594	331.7027	356.7529	406.8072	446.7366	456.8884	533.6655	591.1537	677.098	775.2417	819.986	825.6233	839.9818	906.4459	933.8426	945.9387	960.1168	987.5025	998.1038	1008.4903	1027.9322	1059.0198	1086.1864	1122.9034	1130.8983	1151.6636	1166.0884	1212.2966	1215.1782	1237.0535	1243.224	1271.9411	1291.6062	1307.5425	1329.2816	1350.058	1387.5691	1396.482	1411.6273	1482.9967	1489.3853	1494.4438	1500.0268	1506.9403	1531.0629	3014.2519	3017.0359	3025.9398	3030.087	3048.4786	3052.8349	3058.5711	3087.0822	3095.983	3101.6587	3114.711	3119.0768	3125.2387	3804.642
CCC1CC2(O)CC1C2	CC[C@H]1C[C@]2(O)C[C@H]1C2	
InChI=1S/C8H14O/c1-2-6-3-8(9)4-7(6)5-8/h6-7,9H,2-5H2,1H3	InChI=1S/C8H14O/c1-2-6-3-8(9)4-7(6)5-8/h6-7,9H,2-5H2,1H3/t6-,7-,8-/m0/s1
