15
gdb 48721	3.90665	1.34951	1.16027	2.385	65.23	-0.2616	-0.0443	0.2173	1021.2387	0.111797	-457.733036	-457.725976	-457.725032	-457.764632	27.116	
O	-0.706093469	 0.8810913645	 0.556536433	-0.258009
C	 0.2782813795	 0.9122700524	-0.1385689077	 0.101605
C	 1.376828401	 1.9040188059	 0.0167100361	 0.290692
C	 1.4443199057	 2.8354430215	 1.2190746288	-0.335272
C	 2.1228256579	 4.1027274441	 0.7104954501	 0.031014
O	 3.464241339	 3.9222986286	 0.2521374041	-0.229404
C	 2.4296412292	 3.9597090175	-0.7260060558	 0.010602
C	 1.9689383353	 2.5829916475	-1.1758747163	-0.052018
O	 2.6316503863	 1.5002066675	-0.5525303313	-0.258056
H	 0.4486930823	 0.1958906967	-0.971565807	 0.092307
H	 0.4237609756	 3.0446697508	 1.5542580033	 0.138936
H	 1.9886553757	 2.386288317	 2.0548493394	 0.139501
H	 1.9215615982	 5.0599286933	 1.185528904	 0.108346
H	 2.4557630233	 4.7808359477	-1.4361976562	 0.10744
H	 1.62454443	 2.4193981849	-2.1937143445	 0.112315
107.6481	184.9172	220.4338	314.6674	330.559	407.5122	500.6707	601.0265	675.8333	717.0726	747.4872	814.6167	849.1257	877.7303	903.1456	931.3734	966.8393	1012.0187	1032.371	1041.5488	1078.033	1103.3875	1197.4011	1232.5533	1252.5361	1271.1363	1319.3407	1340.9046	1369.0419	1420.1471	1430.7155	1462.0468	1817.3702	2904.1052	3065.5185	3111.6067	3143.0192	3150.5129	3167.1623
O=CC12CC3OC3C1O2	O=C[C@]12C[C@H]3O[C@H]3[C@H]1O2	
InChI=1S/C6H6O3/c7-2-6-1-3-4(8-3)5(6)9-6/h2-5H,1H2	InChI=1S/C6H6O3/c7-2-6-1-3-4(8-3)5(6)9-6/h2-5H,1H2/t3-,4-,5-,6-/m1/s1
