17
gdb 29542	3.07495	1.73599	1.12501	3.9833	81.02	-0.2131	-0.0079	0.2052	1049.3005	0.138836	-380.925159	-380.917947	-380.917003	-380.956645	28.188	
C	-0.0232004926	 1.5134868576	 0.0847090124	-0.49604
C	-0.0103206227	 0.0290628867	-0.0348994275	 0.363735
C	-0.0276124348	-0.7719644339	-1.1101547482	-0.213333
C	-0.0019779404	-2.2365130398	-0.702987777	-0.414658
C	 0.0329506626	-2.1268519366	 0.7960188713	 0.29573
C	 0.068704024	-2.7886263558	 1.993732728	-0.216732
N	 0.083937032	-1.8824047907	 3.0375400965	-0.282069
C	 0.0579937112	-0.6872329329	 2.4844827307	-0.020129
N	 0.0264254302	-0.7829561136	 1.1241194715	-0.059184
H	 0.8694374674	 1.8760821504	 0.6076658536	 0.143617
H	-0.0539497724	 1.9745290405	-0.9041736501	 0.141094
H	-0.8949678407	 1.8570412669	 0.6536786338	 0.143574
H	-0.0560480175	-0.4299817488	-2.1349324842	 0.106994
H	-0.883776925	-2.7777429344	-1.0698983691	 0.13654
H	 0.8726471638	-2.7587151043	-1.1122175103	 0.136534
H	 0.084542058	-3.8513874427	 2.1798153725	 0.106888
H	 0.0605421968	 0.2555591817	 3.009285986	 0.127439
158.772	176.212	215.2445	244.579	278.2244	498.7831	531.4079	600.6092	665.0101	667.7382	681.3448	760.5332	765.6616	784.4254	835.284	948.0631	955.8062	957.4968	1016.8767	1069.7425	1090.715	1128.9739	1144.0074	1172.8234	1241.7378	1249.4566	1288.8256	1316.6119	1373.7738	1414.3482	1429.1955	1461.7948	1475.1255	1490.2202	1493.8164	1593.7048	1706.7159	3021.9048	3030.996	3043.3555	3081.7375	3135.7298	3237.2219	3250.7075	3256.6915
CC1=CCC2=CN=CN12	CC1=CCc2cncn12	
InChI=1S/C7H8N2/c1-6-2-3-7-4-8-5-9(6)7/h2,4-5H,3H2,1H3	InChI=1S/C7H8N2/c1-6-2-3-7-4-8-5-9(6)7/h2,4-5H,3H2,1H3
