15
gdb 11365	6.2936	1.30895	1.09963	4.1904	64.12	-0.2276	0.0084	0.236	1036.0096	0.120204	-396.035309	-396.027555	-396.026611	-396.067531	27.856	
C	-0.0090979886	 1.4466180481	 0.0080591983	-0.317597
N	-0.0181508692	-0.0070537026	 0.1011368595	-0.381359
C	-1.2180812252	-0.6578055095	 0.0289080271	 0.491083
N	-2.3766714457	-0.1045065896	 0.0528381103	-0.335873
C	-3.3455564617	-1.1972138277	 0.0387242346	-0.294581
C	-2.5416286915	-2.5047172722	-0.0017187455	 0.40025
O	-2.9073130717	-3.6531121688	 0.0024577761	-0.360571
N	-1.2239316142	-2.0567612261	-0.0376954702	-0.401131
H	 0.999608908	 1.8054121265	 0.2230668603	 0.123458
H	-0.3238740844	 1.8117981976	-0.9778159726	 0.129941
H	-0.6993185016	 1.8511770044	 0.7498554875	 0.162923
H	 0.7558994552	-0.4783910415	-0.3414337192	 0.243204
H	-3.9910526148	-1.1872536994	 0.9255647642	 0.139894
H	-4.0078492082	-1.1380137823	-0.8334584962	 0.139941
H	-0.4295412465	-2.669098317	 0.0553334859	 0.260417
88.8482	119.1735	191.8202	205.7894	282.3192	372.8443	415.4193	484.3444	530.1714	563.0963	681.4066	728.205	732.1646	889.4092	963.495	987.5334	1051.3907	1100.3789	1151.0912	1181.9671	1183.8369	1213.6873	1266.2292	1294.3093	1408.8614	1450.0247	1457.7637	1481.4192	1509.1455	1557.2527	1719.9802	1857.6433	3024.0533	3035.3881	3064.4172	3105.5214	3148.6289	3616.2831	3648.1537
CNC1=NCC(=O)N1	CNC1=NCC(=O)N1	
InChI=1S/C4H7N3O/c1-5-4-6-2-3(8)7-4/h2H2,1H3,(H2,5,6,7,8)	InChI=1S/C4H7N3O/c1-5-4-6-2-3(8)7-4/h2H2,1H3,(H2,5,6,7,8)
