15
gdb 130293	3.35159	1.5442	1.07313	4.7108	67.44	-0.2126	0.0273	0.2399	1054.4724	0.115201	-453.928977	-453.921638	-453.920694	-453.961175	27.59	
N	-0.051786275	 1.4231696309	 0.032004855	-0.588833
C	 0.0393979846	 0.0431902725	-0.0074864111	 0.259884
N	-1.0690302256	-0.6877248744	-0.0505760373	-0.250923
O	-0.628014458	-2.0634938156	 0.0239967508	-0.244607
C	 0.6831192072	-2.0086693732	 0.0777648569	 0.533444
C	 1.2055123773	-0.7637796973	 0.0561327764	 0.023797
C	 2.6950763373	-0.8797243588	 0.2036255457	-0.397738
C	 2.8462219093	-2.4472025873	 0.161219838	-0.08713
O	 1.5044203626	-3.052329366	 0.1826264364	-0.275646
H	 0.6676556473	 1.9006579188	-0.4918593832	 0.253532
H	-0.975708541	 1.7589724687	-0.2080487942	 0.260753
H	 3.2742818649	-0.4200867325	-0.6043709609	 0.118369
H	 3.0731827682	-0.46983706	 1.1473335816	 0.126152
H	 3.3290795355	-2.7852675743	-0.7586690766	 0.133452
H	 3.3873874854	-2.8496187714	 1.0187855424	 0.135494
64.5419	181.4887	210.1547	260.8463	330.1754	396.683	532.517	600.6202	626.1851	651.4401	698.2475	755.3009	765.7576	781.0235	839.5982	885.7977	925.279	973.7989	1076.8156	1116.1967	1135.5557	1206.7222	1240.8264	1242.8766	1309.4434	1364.1976	1422.7955	1499.6934	1518.3246	1547.9372	1562.7437	1646.6713	1697.5631	3029.5671	3057.7832	3075.6386	3131.7602	3551.6831	3653.0416
NC1=NOC2=C1CCO2	Nc1noc2c1CCO2	
InChI=1S/C5H6N2O2/c6-4-3-1-2-8-5(3)9-7-4/h1-2H2,(H2,6,7)	InChI=1S/C5H6N2O2/c6-4-3-1-2-8-5(3)9-7-4/h1-2H2,(H2,6,7)
