18
gdb 96996	3.57585	1.3249	1.25813	1.9542	73.96	-0.2484	0.0284	0.2768	1075.02	0.149796	-439.103158	-439.095593	-439.094649	-439.135742	28.816	
C	 0.0263037739	 1.4314624013	 0.0072138072	-0.337035
N	 0.0907661001	-0.0225208523	 0.0292030298	-0.355832
C	 0.5689118394	-0.6367919766	-0.9556812596	 0.480464
O	 1.0683057331	-0.0711484296	-2.1218777313	-0.267151
C	 1.5306848266	-1.1883823979	-2.9101151768	 0.20349
C	 0.4682180008	-2.2544896224	-2.6366670369	-0.263521
C	 0.7429847003	-2.1332548138	-1.1186768635	-0.177729
C	 2.2713110449	-2.376171552	-1.1253568943	-0.083528
O	 2.7051082185	-1.7047876502	-2.3322299235	-0.260758
H	 0.6397506413	 1.8276828326	 0.8245186691	 0.126795
H	 0.359535458	 1.8850260669	-0.9325916513	 0.126254
H	-1.0048759392	 1.7429413389	 0.2068900816	 0.124506
H	 1.7363620309	-0.8416970566	-3.9197931608	 0.103837
H	-0.5375508996	-1.9518835062	-2.9308045042	 0.123214
H	 0.7228123072	-3.2267300181	-3.0624574242	 0.116398
H	 0.169534926	-2.7339845427	-0.4185429866	 0.104245
H	 2.7798124616	-1.9397658344	-0.2613292883	 0.127216
H	 2.5168555963	-3.4426573166	-1.1910947565	 0.109136
62.144	108.2457	218.2939	234.6485	327.5678	422.9844	500.2229	522.9073	598.8087	719.5712	762.8006	820.0107	848.2179	890.8478	896.2688	926.6735	956.595	976.1017	1014.2211	1032.1725	1049.4009	1086.5683	1107.5294	1133.1588	1156.5278	1179.5692	1197.233	1224.9951	1277.3365	1292.7336	1314.2735	1354.2807	1382.3097	1439.2882	1490.7474	1495.2437	1496.3299	1526.0451	1822.9148	3019.9562	3032.8409	3080.128	3083.5612	3092.7543	3094.2357	3146.7226	3166.1827	3170.5829
CN=C1OC2CC1CO2	CN=C1O[C@@H]2C[C@H]1CO2	
InChI=1S/C6H9NO2/c1-7-6-4-2-5(9-6)8-3-4/h4-5H,2-3H2,1H3	InChI=1S/C6H9NO2/c1-7-6-4-2-5(9-6)8-3-4/h4-5H,2-3H2,1H3/t4-,5+/m0/s1
