15
gdb 10966	2.77172	2.64416	1.89531	1.3658	66.52	-0.247	-0.001	0.246	759.715	0.119071	-362.636502	-362.629636	-362.628692	-362.667314	26.4	
C	 0.0128278735	 1.5567324177	-0.0231141197	-0.518263
C	-0.006610016	 0.0543495965	 0.0254124159	 0.158903
N	 0.3672401125	-0.7481922809	-1.2100138157	-0.31436
C	-0.2878301688	-1.9159753325	-0.5117485684	-0.183815
C	 0.570653928	-2.0115738279	 0.7270161141	-0.062615
C	 0.7554551424	-0.7279562549	 1.0759083672	-0.094221
C	-1.3342946187	-0.8314902355	-0.0079115821	 0.379947
O	-2.5083664962	-0.665580062	 0.0327348006	-0.312708
H	 1.0129137024	 1.9239987497	-0.2729188764	 0.138258
H	-0.6929240463	 1.9380627809	-0.7673550574	 0.129167
H	-0.2722681285	 1.9715399979	 0.9482255693	 0.136287
H	-0.2328816139	-0.4499772247	-1.9860164444	 0.222165
H	-0.5427016448	-2.7990512733	-1.0920799083	 0.090807
H	 0.8633005487	-2.9198107235	 1.2320335536	 0.117235
H	 1.2418405456	-0.3048461476	 1.9428727817	 0.113212
135.0594	165.9922	209.095	305.8173	394.099	512.6518	544.8864	591.7928	653.6717	729.256	778.2447	785.6212	846.4853	883.7629	904.3749	910.5114	953.3347	990.883	1056.6575	1082.6341	1097.4252	1142.511	1165.4271	1238.8031	1283.02	1317.7228	1388.3601	1416.2056	1487.0744	1490.4272	1594.6371	1892.5089	3041.0866	3111.2004	3115.7357	3162.207	3230.4317	3256.0988	3400.6188
CC12NC(C=C1)C2=O	C[C@@]12N[C@@H](C=C1)C2=O	
InChI=1S/C6H7NO/c1-6-3-2-4(7-6)5(6)8/h2-4,7H,1H3	InChI=1S/C6H7NO/c1-6-3-2-4(7-6)5(6)8/h2-4,7H,1H3/t4-,6+/m0/s1
