18
gdb 65586	3.40044	1.25133	1.20164	4.3402	75.14	-0.2375	0.0265	0.264	1090.1003	0.14948	-398.109721	-398.101535	-398.100591	-398.142265	31.656	
N	-0.3004020429	 1.2165895222	-0.3759951625	-0.538443
C	 0.0193039386	-0.1620511775	 0.0191789073	 0.075354
C	-1.2862927965	-1.0078827188	 0.1388408295	-0.258764
C	-1.3139938788	-1.8794718141	-1.1055942738	-0.016621
C	-1.0949705055	-1.2624027923	-2.4398222095	-0.249357
N	 0.017565805	-1.9223942458	-1.7411159477	-0.088648
C	 0.8894544479	-1.0186498923	-0.9835170688	-0.202371
C	 0.7175185078	-0.0781685951	 1.314105016	 0.297779
N	 1.2941335057	-0.0307890253	 2.3144946988	-0.343494
H	 0.5402674955	 1.7156877569	-0.6502301825	 0.240317
H	-0.9370756167	 1.2280281136	-1.1632932267	 0.237784
H	-1.2444043792	-1.6437830603	 1.0262518042	 0.137914
H	-2.1521881635	-0.3495722458	 0.2462511228	 0.132331
H	-1.8482443331	-2.8230102491	-1.0401117165	 0.103395
H	-1.4327504511	-1.7826428526	-3.3316836057	 0.125249
H	-1.0882758902	-0.1809192621	-2.5386397187	 0.100193
H	 1.4633313354	-0.3700991647	-1.6530019802	 0.11363
H	 1.5979332616	-1.6366184469	-0.4240207759	 0.133751
97.8189	155.6174	166.2252	255.5059	268.7859	358.1734	397.3184	409.4847	527.2811	552.8571	619.3825	655.1356	755.071	787.1512	810.073	836.5269	889.4139	909.7985	940.856	1004.3373	1029.0666	1030.6656	1055.9022	1109.5257	1112.0701	1149.4362	1181.2896	1211.1771	1263.7133	1295.1711	1300.3187	1319.4336	1360.315	1397.7318	1483.2348	1490.1557	1511.4339	1650.1291	2356.1822	3049.4588	3071.1154	3097.4527	3114.4865	3115.7052	3149.9708	3195.199	3509.93	3607.0788
NC1(CC2CN2C1)C#N	N[C@]1(C[C@H]2CN2C1)C#N	
InChI=1S/C6H9N3/c7-3-6(8)1-5-2-9(5)4-6/h5H,1-2,4,8H2	InChI=1S/C6H9N3/c7-3-6(8)1-5-2-9(5)4-6/h5H,1-2,4,8H2/t5-,6+,9?/m0/s1
