16
gdb 45683	3.59632	1.48425	1.13024	3.8261	72.15	-0.2424	0.0049	0.2473	1040.1317	0.127204	-434.057873	-434.050775	-434.049831	-434.089512	27.609	
N	-0.0525703907	 1.0504074463	-0.7686931911	-0.505976
C	 0.0151718075	 0.0246409664	-0.0344231746	 0.381194
C	-1.2465896489	-0.6998854439	 0.4269402216	-0.255383
N	-1.1207491343	-2.1706837791	 0.4338070061	-0.322612
C	 0.0052063922	-2.483345167	 0.9093539649	 0.400455
N	 0.767262307	-3.6409370308	 1.001261918	-0.368633
C	 2.0324253381	-2.8510234071	 0.9312910668	-0.199798
C	 1.1723100198	-1.5910697548	 1.2535307118	 0.003982
O	 1.2324775308	-0.4812149837	 0.3763512714	-0.256469
H	 0.8824246252	 1.4180909163	-0.9571501178	 0.220683
H	-1.5149477614	-0.3317123752	 1.4284564806	 0.128118
H	-2.0480460074	-0.4003369689	-0.2473805141	 0.148511
H	 0.5837734511	-4.4528087774	 0.4251321689	 0.252129
H	 2.7858741407	-3.1449338476	 1.6646444402	 0.123733
H	 2.4666561847	-2.7934439716	-0.0712089164	 0.133019
H	 1.2505336856	-1.265078472	 2.2950755035	 0.117047
96.2775	155.2882	275.6898	342.4836	379.8238	446.1574	462.6916	538.6343	579.7862	662.1272	740.7087	770.5125	828.4649	882.0629	910.0828	954.6082	975.0321	996.6477	1042.3861	1062.7732	1078.7418	1143.5585	1172.9554	1207.0931	1222.3574	1242.4052	1297.2731	1316.4452	1324.3979	1361.2431	1392.783	1481.2812	1510.2473	1755.8887	1811.6921	2999.3701	3057.2162	3063.3855	3122.9309	3137.5521	3462.2496	3572.737
N=C1CN=C2NCC2O1	[NH][C]1C[N][C]2NC[C@H]2O1	
InChI=1S/C5H7N3O/c6-4-2-8-5-3(9-4)1-7-5/h3,6H,1-2H2,(H,7,8)	InChI=1S/C5H7N3O/c6-4-2-8-5-3(9-4)1-7-5/h3,6H,1-2H2,(H,7,8)/t3-/m1/s1
