18
gdb 39945	2.99881	1.60878	1.24836	2.3551	78.2	-0.2304	0.0017	0.2321	1028.1867	0.148958	-401.905009	-401.897713	-401.896768	-401.936704	29.236	
C	-0.2871009584	 1.473145875	 0.0245712731	-0.23548
O	 1.0496946705	 0.9908728148	-0.0657745765	-0.286965
C	-0.0273554238	 0.022758349	 0.0286969216	 0.427429
C	-0.0569765509	-0.7478295981	 1.2918243106	-0.142162
C	-0.0318402558	-2.0792952311	 1.2975336511	-0.06782
C	 0.0486920762	-2.9128825013	 0.0457498772	-0.218115
N	-0.2252049511	-2.229230863	-1.2201373386	-0.108391
C	-1.5194571826	-1.5671280826	-1.3521652361	-0.259968
C	-0.2702147286	-0.7628791975	-1.226402862	-0.103828
H	-0.5471023216	 1.9767438744	 0.9560431688	 0.111169
H	-0.6815630394	 1.9413425061	-0.8774068169	 0.112961
H	-0.066975554	-0.1787855995	 2.2165726309	 0.096541
H	-0.02968354	-2.6217721386	 2.2400484013	 0.098577
H	 1.0587443926	-3.3428132934	-0.0219406049	 0.127328
H	-0.6333142019	-3.7699851361	 0.1179264506	 0.116369
H	-2.0058197767	-1.6788067573	-2.3175175314	 0.11637
H	-2.1909848784	-1.5685203266	-0.4954320905	 0.113873
H	 0.161722524	-0.3008097943	-2.1114628882	 0.102112
78.9237	225.0188	268.642	321.0478	340.6177	412.9853	455.9336	525.3215	562.3675	684.412	721.9019	731.3485	831.4689	852.153	899.0853	914.912	923.1884	970.8767	998.0645	1008.3314	1042.2278	1072.931	1101.8246	1120.5258	1131.2871	1159.1381	1162.9086	1193.4195	1272.4887	1304.8205	1311.5169	1330.2707	1370.8267	1407.2289	1446.0331	1477.7324	1503.5201	1524.963	1720.7486	3001.462	3037.4079	3069.3333	3095.9543	3131.8099	3151.6535	3154.8265	3178.8958	3182.825
C1OC11C=CCN2CC12	C1O[C@]21C=CCN1C[C@@H]21	
InChI=1S/C7H9NO/c1-2-7(5-9-7)6-4-8(6)3-1/h1-2,6H,3-5H2	InChI=1S/C7H9NO/c1-2-7(5-9-7)6-4-8(6)3-1/h1-2,6H,3-5H2/t6-,7-,8?/m0/s1
