14
gdb 51978	5.40224	0.70798	0.64371	5.8987	64.69	-0.2904	-0.0619	0.2285	1601.8537	0.097741	-473.859659	-473.8504	-473.849456	-473.895504	30.664	
O	 0.2748499028	 0.1362845034	-0.0326899571	-0.257872
C	 0.4402057	 1.2934130344	-0.2523848703	 0.191107
O	 0.4049662638	 2.2251724818	 0.7384725641	-0.164429
C	 0.6918770464	 3.5569168395	 0.3796586704	-0.203296
C	 2.1840959124	 3.7786658836	 0.1188466749	 0.374416
O	 2.9299019823	 2.8719172393	-0.1263034121	-0.245312
C	 2.6272786698	 5.2491453773	 0.1827598262	-0.461612
C	 3.9331801534	 5.4912031716	-0.4153994554	 0.293491
N	 4.9616532503	 5.7023998391	-0.8945417042	-0.28212
H	 0.6042221892	 1.7344808761	-1.2523027187	 0.089013
H	 0.1448388248	 3.8682962981	-0.5246038551	 0.146432
H	 0.342810323	 4.1896579862	 1.2007953342	 0.153741
H	 1.8736219897	 5.8882887661	-0.2935044334	 0.175024
H	 2.6465074622	 5.5428775036	 1.2410564365	 0.191418
39.2124	65.4228	71.1158	147.9226	177.6977	270.5105	298.0614	368.5165	372.726	428.3387	452.7957	642.3784	734.8776	794.331	896.9658	938.6064	1007.0857	1031.0736	1060.95	1077.3277	1170.5163	1224.051	1297.501	1331.9615	1388.2937	1427.4228	1435.163	1468.5936	1848.4666	1884.9953	2378.9509	2975.1284	2995.876	3033.5937	3070.552	3096.4311
O=COCC(=O)CC#N	O=COCC(=O)CC#N	
InChI=1S/C5H5NO3/c6-2-1-5(8)3-9-4-7/h4H,1,3H2	InChI=1S/C5H5NO3/c6-2-1-5(8)3-9-4-7/h4H,1,3H2
