20
gdb 110040	2.27387	1.51344	1.07341	2.3294	75.07	-0.2143	-0.0252	0.189	1188.6634	0.170213	-440.28855	-440.27912	-440.278176	-440.322924	34.538	
C	 0.2020947071	 1.6611433462	-0.3369683559	-0.246421
O	 0.4708472759	 0.315806177	 0.0265194675	-0.242189
C	 0.6976781796	-0.545757025	-1.0519106976	 0.030402
C	 1.3164797855	-1.8981818526	-0.6308136701	-0.054043
C	 0.7566173935	-2.4161129582	 0.6944463466	-0.36575
N	 0.9915973918	-2.8167729278	-1.7487579462	-0.29851
C	-0.3390442784	-2.4387714491	-2.246442352	-0.28382
C	-0.5724651041	-0.9886939495	-1.8095036883	 0.372103
O	-1.5653270081	-0.3315858785	-1.9888940823	-0.312729
H	 1.0323520391	 2.0830242095	-0.9254074146	 0.099767
H	-0.7242995906	 1.7471465737	-0.9120764598	 0.144999
H	 0.1099080258	 2.2239206132	 0.594748382	 0.126237
H	 1.3652682391	-0.0746022164	-1.799715209	 0.078236
H	 2.404011049	-1.8208486148	-0.5523347913	 0.082541
H	-0.3320363015	-2.5295021892	 0.6556410045	 0.118387
H	 1.1908652449	-3.3932175697	 0.9196970533	 0.119735
H	 0.9857844001	-1.7193287579	 1.5033793463	 0.133987
H	 1.6732482726	-2.690427954	-2.4883162272	 0.223449
H	-0.4205904767	-2.5413266813	-3.3324141205	 0.132236
H	-1.1268531847	-3.0673116955	-1.8105464754	 0.141383
63.2937	117.1404	152.1156	183.9912	189.9795	224.8891	264.993	333.5922	409.8692	446.7515	461.8301	577.2313	623.9045	706.1094	729.7926	791.2639	837.6367	930.5607	989.5614	999.8053	1031.9573	1066.1815	1102.0115	1117.6098	1143.3314	1177.3994	1181.2099	1228.1366	1238.9188	1258.6943	1289.7408	1333.0169	1365.5756	1375.7317	1404.204	1462.1924	1466.0988	1477.3838	1482.4988	1490.9489	1495.0901	1518.7054	1847.7291	2912.4467	2982.3533	3023.7052	3046.116	3072.2462	3084.1351	3089.6235	3115.2665	3129.3064	3139.2372	3531.7901
COC1C(C)NCC1=O	CO[C@H]1[C@@H](C)NCC1=O	
InChI=1S/C6H11NO2/c1-4-6(9-2)5(8)3-7-4/h4,6-7H,3H2,1-2H3	InChI=1S/C6H11NO2/c1-4-6(9-2)5(8)3-7-4/h4,6-7H,3H2,1-2H3/t4-,6+/m1/s1
