18
gdb 31007	3.61932	1.13351	0.8869	3.3989	77.17	-0.1755	0.0448	0.2203	1309.7464	0.148569	-439.120747	-439.112013	-439.111068	-439.154052	32.719	
C	 0.2448153473	 1.4783466154	 0.2288982983	-0.486621
C	-0.0681131602	 0.0365884742	 0.06613764	 0.360223
C	-1.1809847974	-0.7187178142	 0.2453340233	-0.397585
C	-0.8357375277	-2.079650164	-0.0795369305	 0.119693
C	-1.6487799707	-3.3370275197	-0.0323626317	-0.28957
N	-1.086854124	-4.3217413073	-0.9891194432	-0.523967
H	-1.3507354676	-4.0642834309	-1.9361920842	 0.244467
H	 0.7661293331	-3.7628698034	-0.9512894575	 0.303129
H	-1.4704106295	-5.2451597693	-0.8157458963	 0.239867
C	 0.4813713263	-2.0265461442	-0.4354944112	 0.342805
O	 1.3359341917	-2.9664401716	-0.843710911	-0.419242
O	 0.9689530361	-0.7733742812	-0.3637409457	-0.204418
H	 1.039048404	 1.6436842163	 0.9671038424	 0.132636
H	 0.5765101224	 1.9346963293	-0.7117202637	 0.131713
H	-0.6480042548	 2.0097810608	 0.5672482034	 0.129654
H	-2.1431884325	-0.3546117951	 0.5745636951	 0.097802
H	-1.6059750061	-3.8052884141	 0.961123678	 0.11769
H	-2.7102752404	-3.117167581	-0.2226698754	 0.101723
91.294	139.9813	178.8212	214.6281	242.8424	286.8841	316.0054	338.0185	421.3313	500.4182	614.7149	626.2579	681.8792	707.7454	790.7852	794.6157	806.3094	912.4084	964.6267	1001.0976	1015.8995	1026.4375	1064.8287	1156.511	1160.8285	1177.3122	1256.7084	1279.4161	1327.1797	1380.969	1412.9194	1430.4044	1469.9393	1491.0786	1508.985	1524.4521	1639.8069	1644.1899	1683.9984	2981.4166	3012.0387	3020.2345	3065.3737	3122.1107	3239.4281	3421.6625	3493.2775	3575.9932
CC1=CC(C[NH3+])=C([O-])O1	Cc1cc(CN)c(O)o1	
InChI=1S/C6H9NO2/c1-4-2-5(3-7)6(8)9-4/h2,8H,3,7H2,1H3	InChI=1S/C6H9NO2/c1-4-2-5(3-7)6(8)9-4/h2,8H,3,7H2,1H3
