17
gdb 18995	4.2964	2.27215	2.09077	1.2155	66.18	-0.2308	0.0779	0.3087	717.8026	0.14614	-363.796134	-363.790651	-363.789707	-363.825393	23.332	
C	-0.0158570726	 1.5087694818	-0.2283415575	-0.110485
O	 1.3591211603	 1.635318605	 0.211134842	-0.303164
C	 1.4645036194	 0.2099570409	 0.4498664378	 0.130941
C	 1.4123396857	-0.2482160636	 1.9161795594	-0.070352
C	 0.4522617037	-1.4659400535	 1.7501399273	-0.178731
N	-0.6184159584	-0.4321465887	 1.4054431104	-0.139896
C	 0.1255325853	 0.4462840264	 2.4031943293	-0.18592
C	-0.0391182235	 0.0103376468	 0.1047813387	-0.031128
H	-0.7031359525	 2.1529373804	 0.3321018563	 0.109974
H	-0.112237243	 1.7262974959	-1.2988667477	 0.105249
H	 2.2568090323	-0.2501006132	-0.1469562081	 0.075361
H	 2.3391752713	-0.2768528967	 2.4901955395	 0.068894
H	 0.6510162759	-2.2024470889	 0.9651343649	 0.102765
H	 0.2091750582	-1.9680559471	 2.6883753167	 0.112732
H	-0.1699617334	 0.1592599383	 3.4138867847	 0.107174
H	 0.0257245885	 1.5237854534	 2.2752034065	 0.121525
H	-0.3403768074	-0.6736746073	-0.6879929702	 0.08506
237.2643	332.3413	401.5081	501.3723	576.6828	639.4384	772.4974	834.7793	839.2696	853.7595	865.0712	870.0149	921.4777	932.372	987.2937	1002.2174	1022.5874	1025.9205	1046.0433	1069.2135	1082.2787	1130.9636	1170.7699	1189.3444	1204.7317	1217.9427	1230.6586	1234.4686	1274.1955	1298.0912	1327.6258	1342.4597	1359.7324	1498.8808	1518.6782	1537.2024	3021.5442	3053.6023	3066.6041	3071.812	3084.6236	3111.0202	3117.1979	3125.8344	3146.5264
C1OC2C3CN(C3)C12	C1O[C@H]2[C@@H]3CN(C3)[C@@H]12	
InChI=1S/C6H9NO/c1-4-2-7(1)5-3-8-6(4)5/h4-6H,1-3H2	InChI=1S/C6H9NO/c1-4-2-7(1)5-3-8-6(4)5/h4-6H,1-3H2/t5-,6-/m0/s1
