17
gdb 83440	3.10183	1.28507	1.12248	1.9927	67.94	-0.2411	0.0509	0.292	1111.1145	0.135217	-458.878794	-458.870837	-458.869893	-458.911638	30.041	
O	-0.2291139885	 1.5083638598	-0.0271443641	-0.44212
C	-0.2557508931	 0.1249808171	-0.1722551289	 0.062657
C	-0.3865529305	-0.7777077832	 1.0074680445	-0.025231
O	-1.1700286557	-0.1102228706	 2.0083242883	-0.306508
C	-2.332842097	-0.1226926483	 1.128958796	-0.157507
C	-1.5200480227	-0.7081746393	-0.021272822	 0.233129
C	-2.0049135821	-1.6821265681	-1.0288313538	-0.070758
C	-2.1459979541	-1.327098617	-2.4510610158	-0.175815
O	-1.0459327393	-2.1173782972	-1.9968606688	-0.229825
H	-0.3585848266	 1.6803278263	 0.9157724088	 0.296615
H	 0.3913135938	-0.2335937533	-0.9669969198	 0.129637
H	 0.2907380218	-1.5602591755	 1.331175427	 0.113659
H	-3.0956597	-0.8021119207	 1.5245836295	 0.116773
H	-2.7566832638	 0.8769915083	 0.9837680879	 0.117114
H	-2.636639106	-2.4852857878	-0.6432456104	 0.093424
H	-2.8715984374	-1.8521789408	-3.0701748711	 0.119067
H	-1.8930792089	-0.3174378599	-2.7693805573	 0.12569
70.6979	138.77	184.6613	231.0411	262.7956	358.983	421.3493	449.8366	521.6516	637.9327	673.5923	797.2874	829.1097	856.3055	878.3052	928.4414	950.4688	990.1251	1012.0643	1033.1143	1054.7631	1083.339	1097.7965	1136.7423	1154.9677	1163.3665	1172.0657	1214.6274	1256.1735	1277.845	1292.2246	1319.9801	1391.9957	1432.2116	1477.1863	1510.5011	1522.0187	3031.2387	3081.3851	3084.2633	3089.6038	3171.3246	3179.8318	3181.0301	3750.3912
OC1C2OCC12C1CO1	O[C@H]1[C@H]2OC[C@@]12[C@H]1CO1	
InChI=1S/C6H8O3/c7-4-5-6(4,2-9-5)3-1-8-3/h3-5,7H,1-2H2	InChI=1S/C6H8O3/c7-4-5-6(4,2-9-5)3-1-8-3/h3-5,7H,1-2H2/t3-,4+,5-,6-/m1/s1
