15
gdb 35145	4.52189	0.95496	0.87292	2.1453	75.28	-0.2944	-0.0298	0.2646	1272.8296	0.114238	-379.70859	-379.700695	-379.699751	-379.741824	28.626	
N	-0.0663123447	-1.2284073032	-0.1034014932	-0.314849
C	-0.0396669616	-0.0731649673	-0.1044029094	 0.2647
C	-0.0013055563	 1.3894984282	-0.1003348697	-0.178735
C	-0.7068189436	 2.010724556	 1.1420559701	-0.245148
C	 0.1444851495	 3.2654970721	 1.5041890566	-0.201678
C	 1.4808077573	 2.9759061975	 0.8362668611	-0.075941
C	 1.4041977784	 1.963995403	-0.0196045712	-0.052547
C	-0.4389496545	 4.5162097021	 1.0026134561	 0.269261
N	-0.8964215971	 5.4980020363	 0.5991640578	-0.315303
H	-0.481743029	 1.7279066919	-1.0288235948	 0.150869
H	-1.7543034465	 2.2463287274	 0.9543418012	 0.145436
H	-0.65896279	 1.305332275	 1.9736945829	 0.144365
H	 0.243554979	 3.3682334759	 2.5905358273	 0.140887
H	 2.3575442747	 3.5811502439	 1.0286159769	 0.133032
H	 2.2119975244	 1.5850432114	-0.6327107818	 0.135651
49.6506	117.453	165.7075	202.9424	273.4064	390.8258	457.0723	521.6689	550.6071	581.6599	664.7902	750.5865	799.8203	836.5871	863.3728	953.507	974.1308	996.3301	1039.481	1048.5924	1071.7289	1139.4524	1197.995	1243.1233	1275.1557	1302.4931	1314.9973	1344.4839	1373.1556	1488.9322	1692.3008	2355.579	2361.1752	3016.4553	3049.4894	3089.7732	3146.4323	3210.256	3233.3332
N#CC1CC(C=C1)C#N	N#C[C@H]1C[C@@H](C=C1)C#N	
InChI=1S/C7H6N2/c8-4-6-1-2-7(3-6)5-9/h1-2,6-7H,3H2	InChI=1S/C7H6N2/c8-4-6-1-2-7(3-6)5-9/h1-2,6-7H,3H2/t6-,7-/m1/s1
