13
gdb 23709	5.81813	1.50079	1.19445	4.1883	63.97	-0.2135	-0.0259	0.1876	911.5025	0.097284	-402.809186	-402.802757	-402.801813	-402.839599	24.889	
N	-0.0137260396	 1.4107353038	 0.1521843936	-0.593979
C	 0.0154711228	 0.0182013703	 0.0463769583	 0.274677
C	-1.1624993563	-0.7368585065	 0.0243832969	-0.05436
N	-1.1908264188	-2.071170866	-0.0120188401	-0.305112
C	-0.042139961	-2.702660464	-0.0308898671	 0.321654
F	-0.0929889731	-4.0361003628	-0.0697229489	-0.081791
C	 1.2017483803	-2.0794236841	-0.0172959419	-0.250612
C	 1.2227282725	-0.6946277737	 0.0230443926	-0.129842
H	 0.7865263256	 1.8802307725	-0.2469145656	 0.249349
H	-0.8746347387	 1.8347562163	-0.1635724964	 0.250731
H	-2.1284833048	-0.2352879007	 0.0392174956	 0.10198
H	 2.1111098285	-2.667007	-0.0384949901	 0.115231
H	 2.1690494927	-0.1624267449	 0.040221203	 0.102074
147.968	260.1742	332.3992	373.7252	442.1085	449.2693	499.892	534.539	630.9779	654.0593	764.638	782.8885	852.2482	881.9256	924.1946	959.4012	1029.8645	1099.9113	1149.7849	1293.6455	1322.5429	1324.5712	1335.8868	1451.6876	1530.5725	1624.9462	1644.7804	1662.4806	3140.918	3175.1181	3212.3044	3558.7874	3654.449
NC1=CN=C(F)C=C1	Nc1cnc(F)cc1	
InChI=1S/C5H5FN2/c6-5-2-1-4(7)3-8-5/h1-3H,7H2	InChI=1S/C5H5FN2/c6-5-2-1-4(7)3-8-5/h1-3H,7H2
