12
gdb 21363	5.48716	2.21161	1.57629	3.6123	60.96	-0.217	-0.0003	0.2166	725.9104	0.087163	-377.520646	-377.515168	-377.514224	-377.549981	21.658	
N	-0.0365879491	 1.3326461238	 0.0099715238	-0.409125
C	 1.271773821	 1.8380793512	 0.0000418194	-0.050741
C	 2.1729511061	 0.8043199817	-0.0145183228	-0.340348
C	 1.399362853	-0.4037665163	-0.0137254406	 0.180739
C	 0.0774201722	-0.0160498877	 0.0013137247	 0.484219
O	-0.7854166777	-1.0253203203	 0.0040746399	-0.251193
N	 0.0172356687	-2.2158380231	-0.0104438151	-0.153691
C	 1.2711171956	-1.8193003082	-0.0203695482	-0.114325
H	-0.8824357451	 1.8742760161	 0.0212555627	 0.277886
H	 1.4314622495	 2.9041469108	 0.0044476672	 0.131579
H	 3.2457628984	 0.9113652506	-0.0243708642	 0.111211
H	 2.0324301676	-2.5874258987	-0.0320753168	 0.133789
220.8861	321.6751	396.9555	462.4108	597.8526	606.7504	688.9116	690.1828	746.7738	762.8045	814.9088	821.5008	903.1236	923.6113	972.9976	1058.9321	1103.1834	1196.9578	1208.2969	1292.547	1348.4302	1447.9692	1486.6538	1527.0968	1569.114	1626.6147	3236.8938	3257.4545	3276.7931	3692.022
N1C=CC2=C1ON=C2	[nH]1ccc2c1onc2	
InChI=1S/C5H4N2O/c1-2-6-5-4(1)3-7-8-5/h1-3,6H	InChI=1S/C5H4N2O/c1-2-6-5-4(1)3-7-8-5/h1-3,6H
