23
gdb 40354	3.56533	1.22654	1.13792	0.0752	88.69	-0.2596	0.0878	0.3474	1200.8764	0.208807	-351.138194	-351.130377	-351.129432	-351.170469	32.461	
C	-0.2473695719	 1.3132066324	-0.3451147982	-0.278848
C	 1.1592060219	 1.1206710773	 0.1665237279	-0.268632
C	 0.2166929623	-0.0568569494	 0.0815346288	-0.107912
C	-0.2988804899	-0.7270385528	 1.3184780955	 0.381391
C	-0.7133696902	 0.0399103819	 2.6156930875	-0.270002
C	-1.4739566319	-1.2816523147	 2.9222816606	-0.018249
C	-1.7203612026	-1.3756291708	 1.3911893288	-0.261541
C	-0.3165809398	-2.2781340502	 3.1241617356	-0.213769
C	 0.5756359799	-1.8602338396	 1.911118183	-0.248489
H	-0.9480709863	 1.8389555663	 0.2942612247	 0.108203
H	-0.38988287	 1.4980336357	-1.4042011021	 0.107435
H	 1.9809422751	 1.1794270167	-0.5386097027	 0.107714
H	 1.391289046	 1.5101317091	 1.1521655341	 0.110806
H	 0.4162999912	-0.7515592602	-0.732348801	 0.075138
H	 0.0765551501	 0.3527212347	 3.3063804079	 0.084057
H	-1.391980653	 0.8735137367	 2.4182520168	 0.094198
H	-2.295279658	-1.3124415562	 3.6387009471	 0.055095
H	-2.5016084499	-0.6954989864	 1.0431128003	 0.092581
H	-1.8581466964	-2.3677697823	 0.9486652797	 0.081437
H	 0.1871428858	-2.1409734913	 4.0857596062	 0.092283
H	-0.6491903791	-3.3188598906	 3.0662776466	 0.092498
H	 0.7252546747	-2.6737770912	 1.1941794599	 0.090261
H	 1.5625767521	-1.496315295	 2.2121645829	 0.094345
72.3547	166.5929	190.087	286.8654	366.7942	408.5389	449.9849	515.7	574.4842	661.4181	786.9324	821.4586	829.2917	830.4287	840.8591	877.5057	895.9874	913.391	926.0471	946.3931	970.983	980.4777	998.6267	1009.6262	1057.6336	1066.5893	1078.562	1089.4777	1115.1492	1138.2961	1146.8439	1179.1815	1195.691	1206.5101	1208.7979	1228.939	1241.2718	1248.1842	1269.4233	1294.7379	1319.0373	1344.7132	1421.0561	1468.7798	1484.3928	1491.883	1500.6269	1506.5308	1530.6028	3039.514	3042.2512	3044.7502	3053.9559	3079.2722	3097.8536	3105.7964	3106.9841	3113.423	3118.191	3131.2366	3136.3999	3208.5263	3223.6581
C1CC1C12CC(C1)CC2	C1CC1[C@@]12C[C@@H](C1)CC2	
InChI=1S/C9H14/c1-2-8(1)9-4-3-7(5-9)6-9/h7-8H,1-6H2	InChI=1S/C9H14/c1-2-8(1)9-4-3-7(5-9)6-9/h7-8H,1-6H2/t7-,9-
