18
gdb 31864	4.69287	0.95248	0.80857	0.6388	85.34	-0.1941	0.0097	0.2039	1392.4748	0.149397	-402.009394	-402.000832	-401.999888	-402.042931	32.661	
N	 0.0704888338	 1.4135148002	 0.1978012374	-0.590332
C	 0.01584782	 0.0233529914	 0.0587466959	 0.303878
C	-1.189825282	-0.6693912901	 0.2255236885	-0.172066
C	-1.2244085958	-2.0560715124	 0.1388617058	-0.186191
C	-0.0684994564	-2.7978766469	-0.1038131177	 0.27702
C	-0.1051163814	-4.3046890137	-0.1445273437	-0.182502
O	 0.8093349632	-4.7735804476	-1.1289741525	-0.413565
C	 1.1323642528	-2.1040890242	-0.2728064729	-0.161799
C	 1.1774072737	-0.7189849042	-0.197437789	-0.172801
H	 0.837020511	 1.852860621	-0.2915414747	 0.244282
H	-0.8005558781	 1.8880184021	 0.0076230584	 0.243684
H	-2.104179532	-0.1145167153	 0.4157379109	 0.077374
H	-2.17523348	-2.5685824176	 0.2587354156	 0.082929
H	 0.1606858585	-4.7138014287	 0.8452122946	 0.09478
H	-1.1319905643	-4.6403773936	-0.3605456625	 0.087988
H	 0.9107362968	-5.7223051379	-1.009058891	 0.286055
H	 2.0365475546	-2.6631574995	-0.4849870346	 0.102808
H	 2.1215184357	-0.1993971229	-0.3362505286	 0.078458
41.8987	125.7771	210.9816	259.3119	293.7283	321.3665	371.4016	414.7237	418.767	501.985	561.3542	624.2716	653.1949	730.2908	762.9604	833.6708	842.785	852.8039	932.974	953.6298	1023.4983	1029.2503	1062.9797	1094.113	1151.6447	1192.7683	1209.9611	1253.0625	1256.3428	1309.2746	1341.553	1357.186	1451.2492	1473.1314	1514.3494	1553.7454	1620.734	1651.3268	1666.8979	2948.2375	2980.4201	3153.1183	3159.5753	3171.4169	3200.2318	3558.9677	3656.373	3828.4337
NC1=CC=C(CO)C=C1	Nc1ccc(CO)cc1	
InChI=1S/C7H9NO/c8-7-3-1-6(5-9)2-4-7/h1-4,9H,5,8H2	InChI=1S/C7H9NO/c8-7-3-1-6(5-9)2-4-7/h1-4,9H,5,8H2
