16
gdb 78999	3.98583	1.71332	1.53059	1.5994	73.94	-0.2212	-0.04	0.1812	865.7866	0.125424	-400.622613	-400.616298	-400.615354	-400.652865	26.688	
O	 0.3201339627	 1.1962155675	 0.4449872658	-0.423321
C	 0.2396184938	-0.0362857607	-0.207791367	 0.109861
C	-1.2662880694	-0.5612237307	-0.3293783061	 0.001083
C	-1.4298085503	 0.0474759136	-1.7402026834	-0.11898
C	-2.0027994984	-1.2917379777	-2.1865855802	-0.041461
C	-0.8135323905	-2.167738196	-2.2167633953	-0.057601
C	 0.4174879463	-1.3905044286	-2.1535947095	-0.097451
C	 0.1084202008	-0.1254001448	-1.7422118108	-0.081392
N	-1.6357458269	-1.9380226214	-0.8831115731	-0.192187
H	-0.1195012314	 1.8608616253	-0.0961887484	 0.288394
H	 0.9726831035	-0.6940049908	 0.2616346757	 0.106871
H	-1.9229574583	-0.3221500373	 0.5089597823	 0.109901
H	-1.8896418408	 1.0078973971	-1.9569461749	 0.078859
H	-2.9374785385	-1.494243813	-2.6948222111	 0.101467
H	-0.883258724	-3.2016789433	-2.530092421	 0.109551
H	 1.3643023112	-1.8675736291	-1.9200306429	 0.106407
187.6625	249.8889	330.3841	441.0146	465.2471	525.0607	581.8862	693.3417	727.623	761.2054	778.394	809.0914	854.3149	860.9159	866.8148	911.4792	917.395	962.1709	970.7543	1012.2108	1026.3375	1078.3598	1092.5139	1109.1829	1147.8692	1161.2857	1189.2635	1197.9919	1241.9941	1255.7532	1276.1638	1326.5135	1351.7795	1425.5201	1519.8764	3106.3678	3112.7619	3144.4652	3175.0929	3189.0847	3206.8212	3812.7035
OC1C2C3C4C(C=C13)N24	O[C@H]1[C@H]2[C@@H]3[C@H]4[C@@H]([CH][C]13)N24	
InChI=1S/C7H7NO/c9-7-2-1-3-5-4(2)6(7)8(3)5/h1,3-7,9H	InChI=1S/C7H7NO/c9-7-2-1-3-5-4(2)6(7)8(3)5/h1,3-7,9H/t3-,4+,5-,6-,7-,8?/m1/s1
