18
gdb 48737	3.40653	1.3713	1.18075	3.3411	77.39	-0.2282	-0.0238	0.2044	1075.2659	0.148286	-401.887932	-401.880506	-401.879562	-401.919829	29.189	
O	-0.1513290035	-0.0022084919	 0.0659678432	-0.27123
C	-0.0391170115	 1.196640888	-0.0462968202	 0.050411
C	 1.2324583872	 1.9194774447	 0.0299259246	 0.245206
C	 1.3193246083	 3.399576776	 0.3486591321	-0.35973
C	 1.7985614159	 2.9606839626	-0.9898477364	-0.048691
N	 3.099647206	 2.2718435245	-1.0316985757	-0.123023
C	 4.1551947057	 2.7581665544	-0.0722884144	-0.175198
C	 3.7318602518	 1.697444451	 0.9847786307	-0.265926
C	 2.6197821316	 1.2707813952	-0.0083244645	-0.035158
H	-0.9264494393	 1.8460959583	-0.2329987659	 0.063735
H	 0.3627909125	 3.9143700594	 0.3367401865	 0.129163
H	 1.9922880473	 3.7389459426	 1.1284424928	 0.127136
H	 1.3396286491	 3.3147399973	-1.9067449837	 0.112207
H	 5.1557437383	 2.6182227531	-0.4888702431	 0.113561
H	 4.0475672832	 3.8058469352	 0.2244658809	 0.107465
H	 4.4771278237	 0.9214312716	 1.1675971998	 0.115622
H	 3.3891498863	 2.0827775515	 1.9480956219	 0.110351
H	 2.5915938775	 0.2271576468	-0.3258829885	 0.104099
105.1051	163.4648	206.853	253.1598	331.7407	412.8024	477.1366	554.6147	665.5254	688.5997	739.553	763.5201	814.9025	866.9194	908.9644	930.8998	942.6901	969.858	989.7416	1011.8029	1025.8392	1046.5689	1077.1529	1118.2616	1125.6101	1177.7502	1200.6571	1222.07	1241.0745	1255.2414	1273.7559	1299.3732	1325.4551	1388.8601	1435.7131	1478.1158	1484.0773	1510.7922	1797.4358	2853.7918	3051.0457	3069.6852	3096.0704	3099.6589	3127.3263	3130.2595	3168.5479	3211.892
O=CC12CC1N1CCC21	O=C[C@]12C[C@H]1N1CC[C@@H]21	
InChI=1S/C7H9NO/c9-4-7-3-6(7)8-2-1-5(7)8/h4-6H,1-3H2	InChI=1S/C7H9NO/c9-4-7-3-6(7)8-2-1-5(7)8/h4-6H,1-3H2/t5-,6+,7-/m0/s1
