20
gdb 30304	2.82332	1.5915	1.07007	1.7243	86.26	-0.188	0.0495	0.2375	1148.0673	0.174326	-366.06399	-366.056089	-366.055145	-366.09619	31.441	
C	-0.0573454119	 1.5903010875	-0.0084797866	-0.396582
C	 0.0136895207	 0.05985784	 0.0538770561	-0.1113
C	 0.7486550265	-0.5806881795	-1.1726741718	-0.200991
C	 1.5335801523	-1.833176112	-0.664838024	-0.354717
C	 1.6637604365	-1.5447240584	 0.8054683029	 0.288017
C	 0.833711284	-0.5168729403	 1.1670118341	 0.304655
N	 0.928377189	-0.3328811262	 2.5198455582	-0.379522
C	 1.8373081621	-1.2432608099	 3.0233237158	-0.076716
C	 2.3082592962	-2.0168917223	 1.9819707984	-0.329175
H	 0.9470249243	 2.0252676616	-0.0478191267	 0.11795
H	-0.6065505595	 1.9201292078	-0.8968012519	 0.114021
H	-0.5713475793	 2.0060786483	 0.8658569041	 0.101392
H	-1.0180181411	-0.3233129653	 0.1028489562	 0.075812
H	 0.0565623499	-0.8169677668	-1.9860604205	 0.091747
H	 1.4636940106	 0.1531180171	-1.5614661103	 0.101679
H	 0.9679264715	-2.7569244964	-0.8493432643	 0.100124
H	 2.4891499425	-1.9465313239	-1.1889250776	 0.099183
H	 0.4528975978	 0.3656167896	 3.0634458079	 0.255413
H	 2.0812414579	-1.2524651037	 4.073991446	 0.111052
H	 3.0301324898	-2.8144508472	 2.0740128738	 0.087957
105.0315	151.6615	224.9563	242.1803	277.5868	420.1773	453.0458	471.2029	557.6141	629.0346	637.8292	689.4047	706.0969	724.9462	814.6025	823.6558	899.8143	927.1257	952.9986	978.7489	1011.8631	1067.2457	1087.5559	1099.128	1108.2354	1149.0938	1190.1404	1217.5251	1255.3856	1286.0216	1312.695	1317.1454	1353.2293	1370.759	1405.9621	1442.0153	1481.2703	1487.0867	1495.2714	1498.9931	1506.0711	1520.3164	1614.8451	2965.6248	3006.925	3024.0822	3038.9372	3054.8964	3087.6397	3092.1975	3101.8468	3238.4296	3262.4909	3681.4634
CC1CCC2=C1NC=C2	C[C@H]1CCc2c1[nH]cc2	
InChI=1S/C8H11N/c1-6-2-3-7-4-5-9-8(6)7/h4-6,9H,2-3H2,1H3	InChI=1S/C8H11N/c1-6-2-3-7-4-5-9-8(6)7/h4-6,9H,2-3H2,1H3/t6-/m0/s1
