21
gdb 102124	2.39533	1.09775	0.80044	3.9345	79.78	-0.2406	-0.0147	0.2259	1448.7614	0.180887	-424.217163	-424.207217	-424.206273	-424.252965	35.473	
O	 0.0189671258	 1.4668641015	 0.0232513614	-0.419568
C	 0.0408495548	 0.0501408183	 0.104674909	-0.096749
C	-1.4036352385	-0.4322670964	 0.0224330766	-0.089507
C	-2.0260758959	 0.0020455751	-1.2932832064	 0.181094
O	-3.1606720326	 0.379760438	-1.4249109794	-0.258994
C	-1.5006968963	-1.9605320273	 0.1349809767	 0.029197
C	-1.1448077616	-2.6370215161	 1.4927018048	-0.234443
C	-2.3355077359	-3.6087418375	 1.2733813593	-0.219447
C	-2.907931679	-2.6166903834	 0.2255393684	-0.230609
H	 0.9250961052	 1.7891245904	 0.0301826589	 0.290364
H	 0.6217963412	-0.3891382663	-0.7242281814	 0.087507
H	 0.4973193777	-0.2962895764	 1.0437100987	 0.098334
H	-1.9876537929	 0.0266480435	 0.8280282138	 0.098631
H	-1.3491396229	-0.1034180624	-2.1754265494	 0.065792
H	-0.9233919227	-2.4260311213	-0.6739472294	 0.071608
H	-0.1458750679	-3.0659694417	 1.6035423545	 0.097312
H	-1.3274316492	-1.9574840707	 2.3316251628	 0.104581
H	-2.0130967735	-4.546811781	 0.8127630529	 0.103633
H	-2.9582296988	-3.8453525586	 2.1387717047	 0.101301
H	-3.6362006041	-1.9289550342	 0.6646277705	 0.116344
H	-3.3349834229	-3.0279287034	-0.6916092871	 0.10362
63.1823	73.7049	95.0881	126.2791	157.6022	219.715	259.7987	303.8282	356.7994	371.8071	468.9749	552.0753	654.2057	781.0545	783.4808	889.7829	895.1874	935.7401	948.9693	961.4543	993.8508	1015.1877	1056.8137	1084.2867	1102.4442	1131.5385	1162.129	1206.4241	1216.4022	1244.2423	1256.7976	1258.3716	1264.4752	1275.1986	1292.4709	1299.3036	1334.4376	1375.442	1426.9474	1453.0154	1478.4852	1487.5294	1510.3677	1520.2268	1834.7397	2838.1481	2959.5128	3005.1598	3022.3092	3047.7599	3059.6946	3060.1814	3065.7894	3099.013	3109.3975	3123.7474	3829.6282
OCC(C=O)C1CCC1	OC[C@@H](C=O)C1CCC1	
InChI=1S/C7H12O2/c8-4-7(5-9)6-2-1-3-6/h4,6-7,9H,1-3,5H2	InChI=1S/C7H12O2/c8-4-7(5-9)6-2-1-3-6/h4,6-7,9H,1-3,5H2/t7-/m1/s1
