19
gdb 22599	2.33648	1.37567	1.28558	0.4596	81.	-0.2253	0.0269	0.2522	1128.6677	0.157159	-419.088003	-419.078854	-419.077909	-419.121406	34.658	
C	 0.0280245701	 1.4965355492	-0.1097645367	-0.340997
N	 0.0103660341	 0.0392231449	 0.0304171692	-0.12814
C	-1.1404236398	-0.5721069711	 0.827502587	-0.111296
C	-0.2116249565	-1.8034246482	 1.0139148964	-0.252788
C	 0.6836082218	-0.5537159132	 1.2869357124	 0.248177
C	 2.1565371601	-0.4693700682	 1.5436111194	-0.522335
C	-0.4932795627	-0.0009501122	 2.0829523328	 0.441943
N	-0.6652538948	 0.6985679398	 3.1173331246	-0.32233
O	-2.0374687587	 1.0160237216	 3.2979241447	-0.405148
H	 1.0110629203	 1.7966800804	-0.4861033814	 0.122337
H	-0.7161039675	 1.781370615	-0.860099368	 0.124213
H	-0.1773824762	 2.0534458259	 0.8170165017	 0.121813
H	-2.1717008311	-0.5304703467	 0.4856870951	 0.100659
H	-0.4172092176	-2.4619824273	 1.8587043274	 0.108164
H	 0.0249366405	-2.3284103345	 0.0867238415	 0.107207
H	 2.7146665912	-0.9203394493	 0.7178760253	 0.132943
H	 2.4758801288	 0.571495958	 1.6542798878	 0.135288
H	 2.4114536973	-0.9982575816	 2.4667650536	 0.136528
H	-2.0134177392	 1.5243616076	 4.1153896472	 0.303763
104.548	151.9521	179.6413	200.7307	212.4867	280.5005	289.5203	339.9507	364.9701	424.9359	510.4309	570.6598	653.2755	710.8174	715.8133	762.7307	793.8677	881.9349	913.3615	940.0954	1003.4596	1023.6711	1057.186	1094.3691	1139.7124	1153.2673	1160.9905	1187.411	1207.5419	1214.9636	1223.4739	1342.5374	1402.244	1421.2864	1444.1421	1480.1966	1483.1359	1487.1337	1492.1733	1500.3643	1807.9871	2990.7906	3041.8027	3075.0242	3075.603	3104.8222	3112.9979	3118.4368	3156.3802	3157.7719	3821.5405
CN1C2CC1(C)C2=NO	CN1[C@H]2C[C@]1(C)C2=NO	
InChI=1S/C6H10N2O/c1-6-3-4(8(6)2)5(6)7-9/h4,9H,3H2,1-2H3	InChI=1S/C6H10N2O/c1-6-3-4(8(6)2)5(6)7-9/h4,9H,3H2,1-2H3/t4-,6+/m0/s1
