18
gdb 126801	3.07598	1.26437	0.97285	1.8864	75.34	-0.2057	0.0416	0.2473	1234.9638	0.149117	-435.282884	-435.273814	-435.27287	-435.317189	33.282	
C	-0.0145639529	 1.5715656101	 0.1856531375	-0.375604
C	-0.0380952649	 0.061911057	-0.0585985244	-0.144921
N	-1.3847706837	-0.4791535507	-0.0827436864	-0.03428
N	-2.0707466495	-0.6831297901	 1.0815630123	-0.293648
C	-3.2635804129	-1.12882322	 0.7032416987	-0.049962
C	-3.3763427843	-1.2175978467	-0.7038051508	-0.033784
N	-4.3970559287	-1.6272252628	-1.6105982061	-0.628628
C	-2.1428208868	-0.7840212004	-1.1542770239	 0.460183
O	-1.689901161	-0.6599598301	-2.4149775643	-0.439468
H	 1.0182005914	 1.9303284756	 0.234557169	 0.116131
H	-0.5268364653	 2.1054582407	-0.6201686815	 0.126526
H	-0.5113777416	 1.8080689513	 1.129883388	 0.143576
H	 0.4269205426	-0.1875101703	-1.0159551524	 0.13208
H	 0.5056889891	-0.4630571389	 0.7316164824	 0.128852
H	-4.0020221765	-1.3777302734	 1.4532004092	 0.101748
H	-5.2353810118	-1.0615750366	-1.5216844123	 0.242164
H	-4.6742979479	-2.5924164334	-1.461562425	 0.242267
H	-2.4240411254	-0.9611945013	-2.9727651399	 0.306768
39.0667	95.8626	209.3945	219.2578	238.3022	254.2089	298.9145	316.5584	401.9881	522.2521	534.3904	596.8545	666.8576	709.859	755.344	760.7464	801.3452	857.8012	871.194	964.7236	1016.671	1090.5687	1112.8066	1209.2463	1213.9191	1219.793	1282.8402	1304.1454	1357.4919	1394.1723	1403.2898	1409.1186	1466.1501	1480.7445	1490.2497	1506.39	1607.0332	1631.5002	1675.6935	3043.6652	3065.1603	3107.8923	3118.0217	3135.388	3227.8918	3492.2356	3555.4774	3722.2639
CCN1N=CC(N)=C1O	CCn1ncc(N)c1O	
InChI=1S/C5H9N3O/c1-2-8-5(9)4(6)3-7-8/h3,9H,2,6H2,1H3	InChI=1S/C5H9N3O/c1-2-8-5(9)4(6)3-7-8/h3,9H,2,6H2,1H3
