18
gdb 20139	5.12322	1.36672	1.2305	1.8051	71.49	-0.2501	0.0876	0.3377	1014.8795	0.154606	-347.746145	-347.73903	-347.738086	-347.777867	27.36	
C	 0.1834665782	 1.515669271	-0.0137922684	-0.185262
O	 1.247969627	 0.5681461082	-0.0955324647	-0.239164
C	-0.0973858055	 0.0744668333	-0.0602521037	 0.082943
C	-0.4947894706	-0.6990206326	 1.1659019727	-0.003873
C	-2.0190741659	-0.9738738924	 1.4306983176	-0.266128
C	-1.7171020477	-2.4760606858	 1.511236846	-0.035169
C	-1.1210378853	-2.9436632506	 0.2159421071	-0.276734
C	-0.2417164215	-2.2165629521	 1.1975112483	-0.056721
H	 0.1027512476	 2.0474249512	 0.934104262	 0.109095
H	 0.0298658939	 2.1287035578	-0.9011298435	 0.111838
H	-0.4338511461	-0.3373409351	-1.0132559882	 0.087974
H	-0.0403597063	-0.2160781246	 2.0354906366	 0.079847
H	-2.3572346539	-0.5345059479	 2.3711556501	 0.106001
H	-2.714980807	-0.6749329658	 0.6386744007	 0.094454
H	-2.1506891107	-3.1644303247	 2.2259262556	 0.085328
H	-0.9342248718	-4.0103350103	 0.1442627585	 0.112392
H	-1.4194022751	-2.4878110662	-0.725713001	 0.104389
H	 0.6407794504	-2.6842344036	 1.6166322742	 0.088791
68.5173	150.4224	179.0077	320.3933	369.3018	415.5705	523.4032	687.4879	779.3855	793.371	804.557	858.5982	900.3406	936.6207	943.5744	969.0653	982.8316	1018.3269	1031.5978	1056.4379	1070.4705	1086.7694	1098.5971	1134.6337	1152.9592	1166.8798	1184.2729	1215.5495	1242.3779	1259.1774	1292.5369	1301.3857	1308.3133	1364.2759	1456.3985	1483.172	1499.4723	1529.8613	3040.2261	3065.54	3077.3365	3095.4959	3107.811	3109.8946	3162.5391	3180.6762	3187.1843	3201.5913
C1OC1C1CC2CC12	C1O[C@H]1[C@H]1C[C@H]2C[C@@H]12	
InChI=1S/C7H10O/c1-4-2-6(5(1)4)7-3-8-7/h4-7H,1-3H2	InChI=1S/C7H10O/c1-4-2-6(5(1)4)7-3-8-7/h4-7H,1-3H2/t4-,5-,6+,7-/m1/s1
