23
gdb 59550	2.46315	1.31065	1.02484	1.4613	85.62	-0.237	0.0716	0.3086	1285.3081	0.204474	-388.269337	-388.259505	-388.258561	-388.303628	37.768	
C	 0.0617226909	 1.5255847185	-0.0474508545	-0.404083
C	 0.0301276003	 0.0045357756	 0.1068499389	 0.115171
O	 0.6075383976	-0.4036563533	 1.3497479364	-0.431707
C	-1.3744833251	-0.5734655146	-0.0431568405	-0.046998
C	-2.103610846	-0.5394608444	-1.4309714525	-0.265386
C	-2.3025453458	-2.0567958706	-1.3374949936	-0.098547
C	-0.9605685807	-2.7289404007	-1.2394760923	-0.326141
C	-1.5477443985	-2.1037320828	-0.0019960329	 0.37708
C	-1.8144238541	-2.8793372192	 1.2560097513	-0.505595
H	 1.0796590027	 1.9008473212	 0.0892567886	 0.121992
H	-0.2927724355	 1.8332147356	-1.0365709837	 0.119608
H	-0.5832624739	 2.0051264134	 0.7002582884	 0.102581
H	 0.6862865656	-0.4414019726	-0.6499945898	 0.084789
H	 0.0864054715	-0.0039632731	 2.0553423136	 0.273487
H	-2.0185044247	-0.1107892546	 0.7178787025	 0.053832
H	-3.0300185205	 0.0380159847	-1.4058006705	 0.100394
H	-1.5065110567	-0.1974858489	-2.2846610703	 0.091745
H	-3.1940673049	-2.594774498	-1.6384403691	 0.080355
H	-0.9806254592	-3.8145880103	-1.2470846734	 0.106479
H	-0.0947018623	-2.3057449334	-1.7444516169	 0.101241
H	-0.921683667	-2.8975099382	 1.891005842	 0.131484
H	-2.6291061496	-2.4299528555	 1.8373316287	 0.106204
H	-2.0944855641	-3.9152031988	 1.0372702495	 0.112014
69.7378	126.6892	149.7509	209.5228	237.3949	266.2307	272.3041	286.4325	361.4893	399.443	416.3921	459.6201	519.961	642.8949	721.364	794.8366	819.9968	873.9787	896.3117	947.6487	969.1648	978.9907	996.4294	1016.6404	1040.9456	1047.0274	1076.6455	1095.1811	1097.289	1119.8605	1164.88	1185.0633	1223.2754	1247.7483	1256.8591	1274.7931	1306.0101	1329.6358	1379.1968	1400.5043	1404.9574	1415.3751	1424.6286	1483.8308	1485.4894	1491.4169	1494.0746	1502.5173	1507.9221	3000.3259	3018.8792	3021.3528	3031.7984	3044.6194	3079.0466	3091.9907	3095.956	3102.399	3103.6809	3116.4734	3173.876	3191.5886	3793.3212
CC(O)C1CC2CC12C	C[C@@H](O)[C@H]1C[C@H]2C[C@@]12C	
InChI=1S/C8H14O/c1-5(9)7-3-6-4-8(6,7)2/h5-7,9H,3-4H2,1-2H3	InChI=1S/C8H14O/c1-5(9)7-3-6-4-8(6,7)2/h5-7,9H,3-4H2,1-2H3/t5-,6+,7-,8-/m1/s1
