25
gdb 119908	2.56853	0.9627	0.88862	0.9089	90.8	-0.2312	0.0824	0.3135	1540.2736	0.22566	-389.484078	-389.472624	-389.47168	-389.520524	41.669	
C	-0.1341258136	 1.4970251974	 0.0741713301	-0.387108
C	-0.2142111122	 0.0069064337	 0.3573439213	-0.032935
O	-1.2495411129	-0.5454544222	-0.4421880388	-0.251746
C	-1.4016088356	-1.9206958935	-0.2754564388	 0.081589
C	-2.3658228906	-2.4523506403	 0.7735028651	-0.085863
C	-3.0876209423	-1.5209362319	 1.7240643004	-0.417189
C	-2.7035911786	-2.5336530905	-0.714421645	 0.262939
C	-3.7767561032	-1.6337764402	-1.2984562722	-0.448801
C	-2.6368378259	-3.9070423621	-1.3579378787	-0.450176
H	 0.6647125628	 1.9552006404	 0.6649974978	 0.114106
H	 0.0701235935	 1.6756548676	-0.9853360713	 0.127054
H	-1.0780073476	 1.9884437718	 0.327610603	 0.124916
H	 0.7430075506	-0.4847122209	 0.1173773557	 0.087181
H	-0.415113425	-0.1794190706	 1.4231874615	 0.092637
H	-0.4839500268	-2.4844368214	-0.4589968915	 0.071836
H	-2.0791156444	-3.4021436744	 1.22067976	 0.072787
H	-3.1587018554	-0.5089224813	 1.3198079156	 0.128734
H	-4.1038787734	-1.8719750905	 1.9353344221	 0.113474
H	-2.5573765207	-1.4581413564	 2.6808106488	 0.111385
H	-3.720107768	-0.6174194858	-0.9086133214	 0.130288
H	-3.6677262588	-1.5721287437	-2.3873922952	 0.112501
H	-4.7762611356	-2.0328567334	-1.0895720806	 0.107813
H	-3.578484022	-4.4514826627	-1.2171896857	 0.112341
H	-2.4555639954	-3.8300633769	-2.4367431399	 0.113309
H	-1.8358351889	-4.516667402	-0.9275075122	 0.108929
61.2925	94.7943	116.6789	162.1336	173.5073	195.8933	215.0626	228.9788	249.9769	279.1127	299.557	344.6446	395.1911	472.1697	512.2739	616.4286	701.7211	780.956	818.4788	862.4388	903.1137	971.6096	976.8618	985.6475	1016.5323	1047.1667	1079.0244	1096.2352	1122.1118	1145.5307	1157.6238	1176.3632	1188.9069	1196.5966	1266.1782	1293.6032	1330.8365	1358.9681	1398.2253	1405.9151	1412.4326	1420.2787	1424.3603	1464.7819	1481.2088	1483.157	1488.2157	1495.5697	1498.112	1500.7209	1509.3879	1519.887	1528.3103	2967.9042	3004.3793	3017.6042	3028.542	3032.319	3043.9252	3066.2162	3077.2091	3081.4127	3083.5449	3094.6833	3115.8496	3117.9235	3120.6597	3130.681	3145.6981
CCOC1C(C)C1(C)C	CCO[C@H]1[C@@H](C)C1(C)C	
InChI=1S/C8H16O/c1-5-9-7-6(2)8(7,3)4/h6-7H,5H2,1-4H3	InChI=1S/C8H16O/c1-5-9-7-6(2)8(7,3)4/h6-7H,5H2,1-4H3/t6-,7+/m1/s1
