18
gdb 76437	2.81423	1.17325	1.06318	1.5445	68.63	-0.2427	0.021	0.2637	1188.3196	0.145125	-476.220729	-476.210807	-476.209862	-476.255586	35.842	
C	 0.2149521189	 1.5966939375	-0.3220676308	-0.452008
C	 0.0403942965	 0.1139478625	-0.0766310795	 0.214398
N	-1.2152563573	-0.4485225565	-0.4942503136	-0.327688
C	-2.3580657896	-0.3102414084	 0.2352469588	 0.148876
O	-2.4282261487	 0.2285986352	 1.3198838354	-0.330199
C	 1.2423772645	-0.8235244234	-0.1641578163	 0.051977
O	 2.5005458434	-0.301568675	-0.4344734272	-0.434429
C	 0.6235355075	-0.5337470046	 1.1738357343	 0.032417
O	 1.44084958	 0.2212223794	 2.0165391016	-0.429693
H	 1.2072698414	 1.9312039214	-0.0180039154	 0.126168
H	 0.0991451002	 1.8213969926	-1.3873552692	 0.118604
H	-0.5390858086	 2.1631089362	 0.2330109438	 0.136384
H	-1.289579443	-0.8364935675	-1.4233522542	 0.248356
H	-3.2313424555	-0.7657179203	-0.2735937646	 0.078976
H	 1.0817393347	-1.8039840933	-0.6065256704	 0.10001
H	 2.8293449876	 0.0632687259	 0.3985161558	 0.302411
H	 0.0253512961	-1.298255392	 1.6626446727	 0.108108
H	 0.891629552	 0.8681638901	 2.4731213887	 0.307332
56.6933	112.3923	137.9094	185.9048	198.8472	224.0909	279.1041	300.0478	337.1981	386.5489	427.9127	499.3018	517.3641	535.4503	648.7209	706.5515	795.6592	863.088	936.1026	968.2478	1011.4326	1032.1141	1088.031	1108.0613	1151.8927	1172.811	1184.6978	1254.597	1287.0252	1311.6619	1341.0348	1396.8745	1409.2136	1428.0412	1460.765	1479.3043	1503.2052	1505.0121	1798.5713	2932.2219	3043.4273	3105.1828	3131.1152	3143.0737	3147.1468	3601.4571	3752.2632	3805.0741
CC1(NC=O)C(O)C1O	C[C@@]1(NC=O)[C@@H](O)[C@H]1O	
InChI=1S/C5H9NO3/c1-5(6-2-7)3(8)4(5)9/h2-4,8-9H,1H3,(H,6,7)	InChI=1S/C5H9NO3/c1-5(6-2-7)3(8)4(5)9/h2-4,8-9H,1H3,(H,6,7)/t3-,4+,5+
