19
gdb 90460	2.40486	1.53951	1.24565	3.0843	78.48	-0.2493	0.009	0.2583	1088.3328	0.161097	-382.071179	-382.063025	-382.062081	-382.104226	31.233	
C	 0.0511864621	 1.568704808	 0.0214689697	-0.413387
C	 0.0571955344	 0.0417032572	-0.0114609556	 0.053858
C	 0.8700436092	-0.5764674955	-1.1798652036	-0.274863
C	 1.3519511337	-1.9098220599	-0.6220250623	-0.031264
C	 2.5649196293	-1.9281384643	 0.2612188211	-0.163274
C	 3.4044525106	-0.7628181327	 0.3476364947	 0.305391
N	 4.0717849051	 0.1792977076	 0.4318131278	-0.352407
N	 1.1990555832	-1.9388776105	 0.8392461184	-0.107967
C	 0.6660659875	-0.6149541579	 1.2510532655	-0.198161
H	 1.0715705452	 1.959844677	 0.0975714508	 0.1365
H	-0.4029374336	 1.9829793255	-0.8844249858	 0.117668
H	-0.5190159149	 1.9443079237	 0.8775335775	 0.118428
H	-0.9761430087	-0.315247141	-0.1023669638	 0.083545
H	 0.2610107955	-0.7192159329	-2.0754338482	 0.11017
H	 1.7096444888	 0.0706106669	-1.4555437759	 0.13116
H	 1.1083518716	-2.8283095552	-1.1488853667	 0.106214
H	 3.1037781768	-2.8611534722	 0.4035792138	 0.135058
H	 1.4560623582	 0.0088922924	 1.6842166044	 0.128068
H	-0.0846621041	-0.7830143963	 2.0273964383	 0.115263
49.548	150.8682	170.0044	246.3964	310.3489	355.7824	383.086	416.7371	564.2966	591.1404	609.6479	688.5041	766.2962	807.1389	838.3805	895.5968	901.7101	939.0997	953.9673	993.8145	1021.9939	1079.0349	1095.7485	1122.7457	1152.5697	1164.3169	1198.2784	1257.3881	1273.5976	1299.7564	1322.1184	1348.5349	1359.3769	1369.9216	1395.0983	1415.5828	1496.6423	1499.6569	1501.5478	1515.8298	2343.644	3023.6393	3031.4962	3044.8385	3052.4237	3094.5654	3100.2064	3102.2602	3106.9466	3141.5396	3149.9326
CC1CC2C(C#N)N2C1	C[C@H]1C[C@H]2[C@@H](C#N)N2C1	
InChI=1S/C7H10N2/c1-5-2-6-7(3-8)9(6)4-5/h5-7H,2,4H2,1H3	InChI=1S/C7H10N2/c1-5-2-6-7(3-8)9(6)4-5/h5-7H,2,4H2,1H3/t5-,6-,7+,9?/m0/s1
