21
gdb 92903	2.40423	1.51582	1.10306	2.0231	79.81	-0.2401	0.026	0.2661	1170.1085	0.182991	-424.242638	-424.233578	-424.232634	-424.275795	35.5	
C	 0.0353206889	 1.5765718177	 0.0134490574	-0.397398
C	 0.0572690562	 0.0398906011	-0.0086652298	-0.044945
C	 0.684672622	-0.4951466128	-1.2750468422	-0.02729
C	 1.5263635737	-1.5254391244	-1.3214231992	-0.078582
C	 1.9700714252	-2.272109561	-0.0914588163	-0.275067
C	 1.0182370473	-2.0309795291	 1.0847882259	 0.084265
O	 1.5847378591	-2.4482951614	 2.3282956232	-0.458922
C	 0.7250278079	-0.5373102183	 1.2495629448	 0.125579
O	 1.9366266026	 0.1585492134	 1.5037173606	-0.446485
H	 1.0512012524	 1.9765110588	 0.0116554274	 0.141275
H	-0.495634549	 1.9650286441	-0.8615998578	 0.104359
H	-0.4727977868	 1.9468570203	 0.9097183984	 0.110279
H	-0.989826209	-0.3009170943	 0.0130335454	 0.082112
H	 0.4037476626	 0.0107515618	-2.1966235126	 0.082115
H	 1.9374140483	-1.8497032278	-2.2739428382	 0.084567
H	 2.0425336587	-3.3480767514	-0.3004305287	 0.089568
H	 2.9750367597	-1.9413533091	 0.2031787129	 0.117432
H	 0.0685644623	-2.55834162	 0.9033515576	 0.069277
H	 1.9719260292	-3.3210334493	 2.2086821503	 0.285326
H	 0.0392726989	-0.4157442098	 2.1038432013	 0.064303
H	 2.3780250598	-0.3419212386	 2.2010630396	 0.28823
96.3887	155.0004	230.1519	234.71	267.6074	277.0225	297.5117	365.5197	407.597	439.4566	464.233	479.7616	622.9882	648.5903	684.2568	780.3946	837.7059	902.1042	930.0144	982.1065	993.7308	1001.1113	1005.5079	1054.4087	1076.2421	1097.8992	1119.0603	1161.9961	1184.8644	1226.829	1252.3218	1253.5192	1319.3803	1321.0663	1341.0548	1373.0019	1392.6025	1402.8336	1405.6268	1431.3774	1445.9682	1473.8291	1492.7678	1503.2059	1724.8471	2963.239	2975.8145	2987.9005	3010.1977	3038.6606	3042.9581	3101.3641	3135.1768	3138.9295	3165.5566	3784.2803	3821.6931
CC1C=CCC(O)C1O	C[C@H]1C=CC[C@@H](O)[C@H]1O	
InChI=1S/C7H12O2/c1-5-3-2-4-6(8)7(5)9/h2-3,5-9H,4H2,1H3	InChI=1S/C7H12O2/c1-5-3-2-4-6(8)7(5)9/h2-3,5-9H,4H2,1H3/t5-,6+,7-/m0/s1
