18
gdb 56438	3.47213	0.97968	0.862	5.9979	77.93	-0.2648	-0.0344	0.2304	1370.9799	0.146234	-401.971788	-401.962301	-401.961357	-402.007206	33.585	
C	-0.0915967333	 1.4710662329	-0.0943301174	-0.394907
C	-0.0017391553	-0.0696291344	 0.0446316301	-0.269775
C	 0.7574703007	-0.4437871619	 1.2372492847	 0.297349
N	 1.390456944	-0.7208779579	 2.1625486434	-0.317862
C	-1.4260964746	-0.6674887372	 0.0696642831	 0.395782
O	-1.9564301408	-1.0005528052	 1.103558822	-0.315068
C	-2.1021855222	-0.7644369829	-1.2519277965	-0.110371
C	-3.0679632391	-1.9294873186	-1.4458828107	-0.249964
C	-3.6124104756	-0.5562078516	-1.2809525003	-0.249174
H	 0.9085038694	 1.9059317664	-0.149990905	 0.147746
H	-0.639355468	 1.7369648523	-1.0018995599	 0.134781
H	-0.6107587976	 1.8979335531	 0.7668736843	 0.1566
H	 0.5255518329	-0.469409941	-0.830253525	 0.136827
H	-1.5360374001	-0.4396932909	-2.117334547	 0.093597
H	-3.085177898	-2.3902260917	-2.4265121103	 0.125814
H	-3.152922542	-2.6070742104	-0.6043518166	 0.148166
H	-4.0661464864	-0.3087266306	-0.3283112541	 0.145624
H	-4.0184984442	-0.0421465702	-2.1442631749	 0.124836
36.5866	59.6585	131.8648	192.9663	214.7778	223.4683	264.9715	283.1372	351.1349	428.2299	554.1993	673.8087	737.5709	779.9404	812.6674	827.1303	843.0481	890.053	916.9415	1019.5312	1040.9428	1069.323	1078.743	1100.4416	1114.4779	1123.3877	1138.5153	1211.5534	1224.7771	1275.3548	1343.3133	1400.3069	1410.8862	1454.8659	1485.5824	1491.325	1500.3982	1800.8955	2368.2808	3041.1304	3054.7055	3133.8055	3140.8671	3143.9404	3145.8917	3174.3918	3232.4928	3246.9038
CC(C#N)C(=O)C1CC1	C[C@@H](C#N)C(=O)C1CC1	
InChI=1S/C7H9NO/c1-5(4-8)7(9)6-2-3-6/h5-6H,2-3H2,1H3	InChI=1S/C7H9NO/c1-5(4-8)7(9)6-2-3-6/h5-6H,2-3H2,1H3/t5-/m0/s1
