27
gdb 118572	2.44799	0.72905	0.59278	1.0755	94.4	-0.2515	0.0863	0.3378	2025.169	0.24961	-390.693357	-390.68114	-390.680196	-390.732035	42.894	
C	-0.6376874037	 1.1088356243	-0.9503876738	-0.378977
C	-0.3534998194	-0.3672631663	-0.6580208981	-0.173451
C	 0.2859261369	-0.5893226105	 0.7182038821	-0.18029
C	 0.6097126304	-2.0629260359	 1.0447023306	 0.003269
C	 1.8543469596	-2.5565759665	 0.2727045516	-0.166445
C	 1.9295962091	-4.0718733735	 0.0532210311	-0.384206
C	 0.7633556032	-2.2062368952	 2.5610150132	-0.05818
O	 0.9524897015	-3.5583131078	 2.9236280773	-0.229405
C	 1.1106534157	-3.7342443463	 4.3096992778	-0.228256
H	 0.2852700394	 1.6994549847	-0.9397647091	 0.113298
H	-1.1044413135	 1.2392148342	-1.931799742	 0.110782
H	-1.3119524001	 1.5390902364	-0.2012817532	 0.112506
H	-1.2893397954	-0.9389398849	-0.7127757015	 0.095284
H	 0.2944199327	-0.772555238	-1.4446189919	 0.100786
H	 1.2063648236	 0.0074195543	 0.793812546	 0.091012
H	-0.3954621856	-0.1880650639	 1.4809734306	 0.085949
H	-0.2528271377	-2.6766867942	 0.7476964575	 0.074143
H	 1.8826157645	-2.0620507491	-0.7054318515	 0.090739
H	 2.7528925147	-2.2137535935	 0.8043861011	 0.088732
H	 1.064812531	-4.4250860718	-0.5202817794	 0.105842
H	 2.8299944477	-4.3385535754	-0.5104216656	 0.099652
H	 1.9406526136	-4.6067528069	 1.0036411711	 0.138532
H	 1.6192175863	-1.597965468	 2.907533112	 0.079621
H	-0.1348270464	-1.8092071276	 3.0657425176	 0.079184
H	 1.9921685855	-3.195828891	 4.6935214596	 0.102305
H	 0.2282114606	-3.3838772327	 4.8691804396	 0.102069
H	 1.2426026058	-4.8033708149	 4.4935791472	 0.125505
47.9869	65.3928	76.3274	91.9518	120.3929	140.1083	218.085	237.5569	248.0152	255.5483	281.2885	315.1665	339.0172	376.3621	489.7754	561.7313	737.1895	774.8238	816.2519	884.3787	895.141	976.3463	991.9988	1006.7807	1020.1225	1050.9631	1054.2754	1084.6568	1136.1469	1157.4505	1174.0976	1182.4171	1195.5024	1227.926	1255.1092	1265.7788	1292.3903	1314.2561	1325.9951	1343.849	1359.1923	1388.3846	1401.0711	1409.0711	1413.0608	1429.2634	1477.7257	1483.1893	1484.8286	1487.5837	1493.5104	1497.0908	1500.095	1502.7749	1510.9404	1515.4684	1527.4273	2931.931	2960.7495	2967.2648	2999.5767	3004.8149	3008.4888	3015.9328	3020.148	3028.2612	3032.0091	3032.8554	3050.476	3059.7187	3090.8266	3095.1588	3100.6324	3112.0791	3145.9339
CCCC(CC)COC	CCC[C@@H](CC)COC	
InChI=1S/C8H18O/c1-4-6-8(5-2)7-9-3/h8H,4-7H2,1-3H3	InChI=1S/C8H18O/c1-4-6-8(5-2)7-9-3/h8H,4-7H2,1-3H3/t8-/m1/s1
