16
gdb 5563	3.23093	1.7549	1.20239	1.7544	68.09	-0.211	0.0237	0.2346	985.7206	0.130151	-383.767174	-383.759097	-383.758152	-383.800307	28.845	
C	 0.0775618882	 1.4754424436	-0.1618684257	-0.492966
C	-0.0763822511	 0.005119023	-0.0004096746	 0.261345
C	-1.1489755883	-0.8292887342	 0.1235368445	 0.194057
C	-2.5981547585	-0.472010957	 0.142928984	-0.211927
O	-3.2678188996	-1.2258021695	-0.8652869072	-0.415512
C	-0.6100078836	-2.1580674098	 0.2480775371	-0.255207
C	 0.7359337887	-2.0271781687	 0.1935343303	-0.020518
O	 1.0810803014	-0.7172667866	 0.0468600089	-0.182609
H	 0.6940201792	 1.7121604234	-1.0359497546	 0.140581
H	-0.8978762026	 1.9479958292	-0.2946044656	 0.134672
H	 0.5589792286	 1.9317411176	 0.7112192084	 0.137097
H	-3.0251445687	-0.6982380954	 1.1338763993	 0.094232
H	-2.7223491284	 0.6098526699	-0.0185691548	 0.08766
H	-4.2137002772	-1.0878139528	-0.7539136736	 0.285238
H	-1.1713766704	-3.0736577994	 0.3459635675	 0.113911
H	 1.5569053123	-2.7236477932	 0.235890896	 0.129946
45.2171	113.046	167.2224	231.7425	251.5348	288.2474	354.2307	463.0089	614.112	628.8961	673.6443	738.4868	756.7144	827.655	912.5518	960.2341	997.3982	1041.1978	1061.4714	1075.4895	1149.0629	1174.1511	1234.5781	1235.3889	1270.221	1296.3774	1410.0314	1437.8829	1464.9792	1471.898	1488.5644	1515.4099	1555.7062	1670.8819	2960.3149	2992.4856	3029.6254	3080.4171	3129.4363	3257.8089	3284.6077	3817.8214
CC1=C(CO)C=CO1	Cc1c(CO)cco1	
InChI=1S/C6H8O2/c1-5-6(4-7)2-3-8-5/h2-3,7H,4H2,1H3	InChI=1S/C6H8O2/c1-5-6(4-7)2-3-8-5/h2-3,7H,4H2,1H3
