14
gdb 125200	3.48895	1.67297	1.13881	4.0948	69.74	-0.2317	-0.0189	0.2127	995.3552	0.103989	-432.887876	-432.880832	-432.879888	-432.920579	25.877	
C	-0.0242071503	 1.5427749757	 0.0995461439	-0.514231
C	 0.0072978599	 0.0620574631	-0.0772286065	 0.168452
C	-0.0044297399	-0.7839802039	-1.1598484988	 0.2285
O	-0.0452962957	-0.8346241163	-2.5249966808	-0.229546
C	-0.0179454723	-2.1979965591	-2.7617354021	 0.050538
N	 0.033756176	-2.985244788	-1.7415633778	-0.326143
C	 0.0440555238	-2.0932544747	-0.671059494	 0.329628
N	 0.0862666418	-2.1465206317	 0.6551209683	-0.333035
N	 0.0623790296	-0.8255769401	 0.9760312703	-0.241159
H	 0.8738463837	 1.9116023438	 0.6078997674	 0.143212
H	-0.0784082685	 2.0302590844	-0.8757882851	 0.152275
H	-0.8943245519	 1.8646353821	 0.6827653931	 0.142884
H	-0.0431010312	-2.4756818373	-3.8047204484	 0.153043
H	 0.0857762351	-0.5777235983	 1.9513333006	 0.27558
22.9517	179.4228	243.718	276.7397	393.9653	467.2881	556.1415	605.0549	621.7229	648.0216	718.331	790.2782	817.1857	866.4866	919.4943	992.5889	1052.1045	1061.094	1100.8541	1176.9495	1225.362	1278.1668	1323.8663	1419.7202	1454.3455	1465.8282	1482.7226	1499.5967	1534.4697	1573.9147	1691.7944	3031.6883	3083.0742	3132.5131	3270.8019	3667.7245
CC1=C2OC=NC2=NN1	Cc1c2ocnc2n[nH]1	
InChI=1S/C5H5N3O/c1-3-4-5(8-7-3)6-2-9-4/h2H,1H3,(H,7,8)	InChI=1S/C5H5N3O/c1-3-4-5(8-7-3)6-2-9-4/h2H,1H3,(H,7,8)
