23
gdb 91909	2.31949	1.44188	0.99983	1.4548	84.72	-0.2561	0.0729	0.329	1263.0385	0.207481	-388.297758	-388.288913	-388.287969	-388.33075	35.479	
C	-0.0665485477	 1.5654515203	 0.0188401446	-0.394841
C	 0.040501307	 0.0352668243	 0.0139948792	 0.006398
C	 0.6436102544	-0.4963477272	-1.2971277095	-0.236383
C	 0.822709854	-2.016037531	-1.2533933976	 0.130777
O	 1.2784107651	-2.5431515873	-2.4942756531	-0.442812
C	 1.8584966147	-2.4221060993	-0.203163183	-0.217595
C	 1.6694606756	-1.7155074386	 1.1386329913	-0.053299
C	 2.2872758437	-0.3537166929	 1.3642794601	-0.28839
C	 0.7909740238	-0.4835075867	 1.2347026492	 0.001847
H	 0.9253038482	 2.0266172621	-0.0380943659	 0.11588
H	-0.6550984255	 1.924021259	-0.8328088829	 0.105886
H	-0.547909856	 1.9252727023	 0.9344092885	 0.109074
H	-0.980615384	-0.3699352555	 0.078713906	 0.069746
H	-0.0173782735	-0.2252808957	-2.1316003913	 0.078169
H	 1.6136885048	-0.0266728404	-1.5066516989	 0.099951
H	-0.1486398016	-2.4674095792	-0.9854178141	 0.058179
H	 0.6397186816	-2.2993898253	-3.1718539479	 0.276073
H	 1.8144620218	-3.5066171682	-0.0660111544	 0.102438
H	 2.8487999548	-2.2057175185	-0.6218921822	 0.107741
H	 1.6559476109	-2.3739566513	 2.0014171098	 0.080649
H	 2.7006885169	-0.1226401226	 2.3401065467	 0.104805
H	 2.843359586	 0.0797662106	 0.5382193623	 0.108729
H	 0.235796255	-0.3688922988	 2.1625082132	 0.076977
101.1645	164.9173	213.0557	246.6356	266.5928	292.3227	354.0105	392.5845	418.7181	424.5868	475.85	546.2911	628.217	741.8466	811.4692	848.6206	871.5152	887.8413	919.6659	941.5247	978.4117	1007.066	1043.6167	1052.9689	1065.0055	1083.5318	1113.137	1115.3022	1134.9097	1148.5916	1177.9978	1205.2007	1232.6488	1244.1361	1291.81	1298.3008	1332.3349	1354.7565	1369.7467	1378.286	1400.5706	1405.5839	1419.9399	1437.0927	1488.4112	1489.1835	1494.7014	1500.5976	1508.4544	2942.5728	2985.176	3010.9815	3027.4379	3035.3859	3052.7057	3081.7359	3094.7508	3099.4551	3123.6253	3129.1104	3149.8462	3206.5119	3814.4086
CC1CC(O)CC2CC12	C[C@H]1C[C@@H](O)C[C@H]2C[C@@H]12	
InChI=1S/C8H14O/c1-5-2-7(9)3-6-4-8(5)6/h5-9H,2-4H2,1H3	InChI=1S/C8H14O/c1-5-2-7(9)3-6-4-8(5)6/h5-9H,2-4H2,1H3/t5-,6-,7+,8-/m0/s1
