17
gdb 28222	4.69601	1.2467	1.00706	2.0416	77.13	-0.1836	0.0221	0.2057	1169.3826	0.138541	-418.035215	-418.027503	-418.026559	-418.067594	28.794	
C	 0.0881767474	 1.4266688017	-0.0202463741	-0.491543
C	-0.060432322	-0.0490754026	 0.0161063923	 0.335379
N	-1.1404894609	-0.7651036685	 0.0796742978	-0.372036
C	-0.6846861282	-2.074831915	 0.0163438462	 0.199876
C	 0.655771387	-2.065672048	-0.0577476746	 0.347753
N	 1.3125205836	-3.283331143	 0.0592381862	-0.41292
C	 0.1759438281	-4.2617312119	-0.1095407703	-0.168027
C	-1.1641068969	-3.4854705092	 0.1815424191	-0.345649
O	 1.1169234492	-0.7986847779	-0.0580948095	-0.232515
H	 0.7366677762	 1.7840336264	 0.7868622875	 0.140786
H	 0.5251414408	 1.7645388063	-0.96699749	 0.139135
H	-0.8986374508	 1.8774841015	 0.090858083	 0.155243
H	 2.0600713609	-3.4399278841	-0.6081305773	 0.239597
H	 0.1637144195	-4.6394695061	-1.1384836056	 0.112234
H	 0.3209686238	-5.1085304517	 0.5641577593	 0.119299
H	-1.5202930148	-3.6857262318	 1.2001239631	 0.117953
H	-1.9567431029	-3.798934356	-0.5050447631	 0.115435
113.2706	119.0772	157.9097	262.2875	272.6271	297.7948	484.2826	539.4677	655.2155	677.0359	689.4806	722.4097	781.3351	835.335	863.0105	908.3432	940.1289	997.139	1030.0713	1061.5213	1075.1529	1137.4001	1187.1012	1207.9478	1257.1516	1282.7471	1316.4262	1360.0374	1381.5382	1411.838	1472.7037	1476.3883	1488.8125	1500.9072	1520.6591	1612.9288	1693.8888	3020.2867	3032.7045	3034.3477	3067.4092	3084.9722	3106.1372	3151.9449	3523.2018
CC1=NC2=C(NCC2)O1	Cc1nc2c(NCC2)o1	
InChI=1S/C6H8N2O/c1-4-8-5-2-3-7-6(5)9-4/h7H,2-3H2,1H3	InChI=1S/C6H8N2O/c1-4-8-5-2-3-7-6(5)9-4/h7H,2-3H2,1H3
