19
gdb 66559	2.33453	2.19739	1.59422	1.067	78.04	-0.2234	0.0758	0.2991	926.3729	0.159402	-385.821583	-385.814126	-385.813182	-385.8528	30.951	
C	-0.0020956546	 1.4385270573	-0.0127503477	-0.521463
C	 0.004873902	-0.0578545582	-0.0486180534	 0.338384
C	-0.9443509113	-0.9707193905	 0.7277466181	-0.118187
C	 0.554914739	-1.0670372512	 0.9396602707	-0.160284
C	 0.5643115757	-2.1035827773	-0.2215923998	-0.135719
C	-1.0099193081	-2.1903221164	-0.2235981308	-0.060367
C	-1.0653851751	-1.6380694168	-1.6693684335	-0.31471
C	 0.2737746517	-0.9601189822	-1.279726563	 0.345636
O	 1.1766867	-0.4248205579	-2.186848709	-0.487454
H	 0.9451111357	 1.8431167947	-0.3838802828	 0.13202
H	-0.8072015382	 1.8523201535	-0.6315174484	 0.117474
H	-0.1477754915	 1.8033752162	 1.0097817174	 0.115152
H	-1.7050347912	-0.5853249321	 1.395406474	 0.080236
H	 1.1558284146	-0.9339719289	 1.8296777061	 0.082606
H	 1.2348890584	-2.9453686387	-0.3784509991	 0.063208
H	-1.5617200413	-3.0767512361	 0.0835716223	 0.06624
H	-0.9136973628	-2.4341019125	-2.4088825343	 0.083655
H	-1.9099296405	-1.0078626366	-1.9657353772	 0.093629
H	 1.3476043574	-1.0802977764	-2.8710055295	 0.279943
195.4989	200.65	213.7678	277.8184	359.6295	366.7297	439.3814	544.2959	595.2977	629.2802	745.9514	755.9161	803.6632	833.9996	855.2717	857.5452	886.7685	896.793	924.9087	950.6595	982.4688	1013.5544	1033.7618	1044.857	1073.4992	1094.7846	1115.1704	1156.4686	1169.771	1187.0715	1211.6663	1233.8445	1262.5797	1274.7537	1290.1417	1377.3175	1410.9152	1442.329	1482.758	1486.6559	1500.8949	3023.4157	3028.465	3084.3209	3088.9457	3098.2825	3128.589	3143.0169	3184.5428	3198.8268	3812.0071
CC12C3C1C1C3CC21O	C[C@]12[C@@H]3[C@H]1[C@H]1[C@@H]3C[C@@]21O	
InChI=1S/C8H10O/c1-7-4-3-2-8(7,9)5(3)6(4)7/h3-6,9H,2H2,1H3	InChI=1S/C8H10O/c1-7-4-3-2-8(7,9)5(3)6(4)7/h3-6,9H,2H2,1H3/t3-,4+,5-,6+,7+,8+/m1/s1
