15
gdb 26571	2.37142	1.90088	1.05512	3.8069	74.46	-0.1801	-0.0041	0.176	1052.3469	0.114486	-453.991477	-453.983741	-453.982797	-454.023254	30.446	
O	 0.1793921797	 1.3469860061	 0.0106441591	-0.430037
C	 0.0586216813	-0.001547329	 0.006875454	 0.36848
C	-1.111494247	-0.6825680491	-0.0219830347	 0.196956
O	-2.2970028997	-0.0230087029	-0.0504728041	-0.473301
C	-1.1587324098	-2.1307013754	-0.0236546541	 0.241927
N	-2.3552582647	-2.6373885202	-0.0536649959	-0.626613
C	 0.1387623163	-2.7750824312	 0.0078073478	-0.239104
C	 1.2819399556	-2.0444763532	 0.0360599363	 0.014039
N	 1.2548133044	-0.6777664243	 0.0357568017	-0.385577
H	-0.7168445712	 1.70771879	-0.0124824251	 0.323281
H	-2.946038156	-0.7619593588	-0.0663144233	 0.302643
H	-2.3480864346	-3.6547024784	-0.054224417	 0.203749
H	 0.2007240297	-3.8567681946	 0.008698817	 0.098897
H	 2.2681225849	-2.4896901313	 0.0600022639	 0.132269
H	 2.1017298911	-0.1344900276	 0.0568766443	 0.272391
143.4823	206.0263	268.9359	295.9733	322.977	362.9879	397.3675	509.3933	514.5374	544.9759	577.9824	579.5943	637.7157	710.7025	718.8844	760.2644	810.9625	869.9238	913.0035	1044.4569	1076.0436	1143.0221	1205.0607	1242.8187	1294.6454	1362.2755	1388.7926	1447.7398	1464.8665	1578.7884	1597.6415	1667.3636	1748.0453	3198.5043	3222.1127	3469.3811	3504.4709	3663.955	3787.7359
OC1=C(O)C(=N)C=CN1	O[C@@H]1C(=C([NH])C=CN1)O	
InChI=1S/C5H6N2O2/c6-3-1-2-7-5(9)4(3)8/h1-2,8H,(H3,6,7,9)	InChI=1S/C5H7N2O2/c6-3-1-2-7-5(9)4(3)8/h1-2,5-9H/t5-/m1/s1
