17
gdb 22680	2.40774	1.24132	0.99887	1.2955	79.69	-0.23	-0.0448	0.1852	1231.203	0.133652	-417.888105	-417.878824	-417.87788	-417.922761	33.887	
O	-0.18965245	 1.2283966256	 0.6593138694	-0.378881
N	 0.1519793409	 0.1525728137	-0.1441446787	-0.146622
C	-0.8190186348	-0.6792707902	-0.306920228	 0.126034
C	-0.5247717174	-1.8985444507	-1.1711515281	-0.215836
N	-0.1331533956	-3.1430073408	-0.5055608315	-0.075018
C	 0.7901602453	-3.090927387	 0.6198012718	-0.221068
C	-0.6367485699	-3.4725748632	 0.8238536088	-0.230015
C	-2.1168199174	-0.5113797024	 0.254688758	 0.355989
C	-3.2354398755	-0.4070033709	 0.6891462664	-0.466158
H	 0.6186227957	 1.754048838	 0.6587420583	 0.312445
H	-1.4134262513	-2.1165739983	-1.7724104098	 0.119186
H	 0.2888488408	-1.6273544587	-1.8496932419	 0.130535
H	 1.5699002855	-3.8478332901	 0.6147354924	 0.114023
H	 1.0994147836	-2.1160975805	 0.9895273062	 0.124311
H	-1.2726454414	-2.7596246295	 1.3411209482	 0.126606
H	-0.9146353499	-4.5136076123	 0.9655120624	 0.114947
H	-4.2166868686	-0.3042381727	 1.0832290362	 0.20952
43.8577	100.1226	123.026	158.4367	278.6387	289.129	289.6126	362.8976	436.8734	457.0356	476.7606	628.0848	639.5442	648.7727	725.3082	766.7655	793.035	828.3425	878.5135	966.1945	1023.9712	1034.4081	1071.882	1118.9056	1123.8268	1171.4216	1186.1187	1223.3122	1307.0156	1317.933	1370.915	1397.4763	1468.6186	1496.72	1524.1108	1665.7313	2215.1359	3050.0193	3103.0517	3104.3534	3111.519	3184.8953	3200.1178	3498.5716	3805.4137
ON=C(CN1CC1)C#C	ON=C(CN1CC1)C#C	
InChI=1S/C6H8N2O/c1-2-6(7-9)5-8-3-4-8/h1,9H,3-5H2	InChI=1S/C6H8N2O/c1-2-6(7-9)5-8-3-4-8/h1,9H,3-5H2
