17
gdb 55400	3.45826	1.20534	0.92053	14.7986	71.86	-0.1657	-0.0595	0.1062	1199.9468	0.138342	-455.155585	-455.147367	-455.146422	-455.189703	30.357	
O	-0.0465916793	-0.0738661465	 0.020020622	-0.47075
C	 0.0859256303	 1.1589876855	 0.0071074863	 0.378521
O	 1.0674540286	 1.9167819226	 0.005266148	-0.470758
C	-1.3132842268	 1.9420595135	 0.0092167557	-0.171437
C	-2.3723885188	 1.1020041748	 0.7016109672	-0.179133
N	-3.6075579745	 1.908493055	 0.9065015576	-0.256474
C	-3.5842085976	 3.2199560425	 0.9721146565	 0.162562
N	-2.4790549379	 3.9249296295	 0.8919096808	-0.256471
H	-2.5582612139	 4.9286450364	 0.9570232296	 0.282762
C	-1.1469491467	 3.2916353811	 0.6858149718	-0.179137
H	-1.6198241936	 2.106111053	-1.0316563696	 0.086958
H	-2.6202855365	 0.2284236656	 0.1014699663	 0.160385
H	-2.0256666702	 0.745153997	 1.6760839419	 0.1508
H	-4.5040534823	 1.4518535237	 0.9822301592	 0.282761
H	-4.5240061014	 3.7468668151	 1.1036113409	 0.168224
H	-0.6555218299	 3.1934284258	 1.6584472217	 0.150794
H	-0.5356798394	 3.9531106954	 0.0746174239	 0.160392
21.7648	122.9142	174.6473	190.8576	302.267	387.6781	414.6161	469.1688	515.322	536.0986	637.1854	665.7983	759.1753	793.6601	850.687	871.2601	898.4671	914.9274	977.8548	1003.393	1114.32	1154.1603	1175.0373	1192.7643	1216.1245	1258.8927	1268.2271	1300.1316	1323.1971	1364.9276	1372.6114	1466.1989	1476.571	1482.625	1586.5933	1729.8948	1799.3649	3030.0102	3070.8741	3077.3098	3159.0702	3160.8494	3197.5356	3617.2941	3622.8843
[O-]C(=O)C1CNC=[NH+]C1	[O]C(=O)C1CN[CH]NC1	
InChI=1S/C5H8N2O2/c8-5(9)4-1-6-3-7-2-4/h3-4H,1-2H2,(H,6,7)(H,8,9)	InChI=1S/C5H8N2O2/c8-5(9)4-1-6-3-7-2-4/h3-4,6-7H,1-2H2
