16
gdb 27184	3.17841	1.3049	0.99825	0.631	73.3	-0.2018	0.0042	0.206	1165.138	0.125352	-437.905075	-437.897276	-437.896332	-437.938002	29.207	
O	 0.3660838139	 1.3781341688	 0.0777434387	-0.43283
C	 0.1525948894	 0.0478899541	-0.0104581963	 0.22377
C	-0.0808292318	-0.6823955696	-1.1342426809	 0.263785
O	-0.2353759351	-1.9896015992	-0.7095024106	-0.18756
C	-0.084317228	-1.9467563453	 0.6268174794	 0.065211
N	 0.1485280477	-0.7651705772	 1.1047738167	-0.335799
C	-0.1870595332	-0.3700777531	-2.5589308551	-0.110407
C	 0.3145745902	-1.3322795813	-3.6183864333	-0.266679
C	-1.1633304649	-1.1038234833	-3.4581320863	-0.266648
H	 0.4976099975	 1.5759748336	 1.0124721259	 0.305502
H	-0.1693620802	-2.878802985	 1.1619917431	 0.150321
H	-0.0448994459	 0.6869984422	-2.7544861147	 0.107845
H	 0.8158978249	-0.9128022302	-4.483385092	 0.117049
H	 0.7182979456	-2.2776313459	-3.2743607109	 0.124706
H	-1.7494354966	-1.8961627256	-3.0067766085	 0.12468
H	-1.6860443435	-0.5260240932	-4.2120738153	 0.117054
55.2641	149.2279	149.3476	292.769	292.9198	331.1146	433.7094	520.0397	604.8534	660.0644	729.7749	733.2076	794.5108	803.8205	815.5718	904.2712	913.1058	958.3446	1046.026	1062.6643	1070.5722	1081.3583	1127.1281	1165.4204	1202.2404	1211.6573	1221.6529	1284.222	1320.5105	1390.3116	1452.746	1463.3518	1497.1429	1553.3409	1728.607	3137.1723	3140.7093	3176.024	3220.2043	3235.6377	3279.7788	3812.6576
OC1=C(OC=N1)C1CC1	Oc1c(ocn1)C1CC1	
InChI=1S/C6H7NO2/c8-6-5(4-1-2-4)9-3-7-6/h3-4,8H,1-2H2	InChI=1S/C6H7NO2/c8-6-5(4-1-2-4)9-3-7-6/h3-4,8H,1-2H2
