20
gdb 111818	2.37615	1.48407	1.06222	1.7939	78.92	-0.2272	-0.0253	0.2019	1196.4878	0.170705	-403.121961	-403.113182	-403.112238	-403.156149	32.533	
C	-0.1242618164	 1.5043816292	 0.1373598023	-0.3821
C	 0.004217995	-0.0222959611	 0.1066561087	-0.206309
C	 0.7305737582	-0.5348511543	-1.1289083322	-0.073523
N	 2.1835813828	-0.2029538018	-1.3892076358	-0.150904
C	 3.0869562766	-0.3040374477	-0.188877875	-0.172273
C	 3.5640777808	-1.7220813912	-0.5985442856	-0.250541
C	 2.4919719744	-1.6570264053	-1.7087123947	-0.095109
C	 1.0644130143	-2.0333028902	-1.2711616875	 0.358285
O	 0.4873872566	-3.057624779	-1.0529421419	-0.297678
H	 0.8579046972	 1.986863373	 0.1430529133	 0.130802
H	-0.6648312406	 1.8706616664	-0.7418132347	 0.120982
H	-0.6674611999	 1.8335196867	 1.0282466127	 0.116432
H	 0.4955489463	-0.3797901739	 1.0184013788	 0.10547
H	-0.9890880783	-0.4865229916	 0.1058860892	 0.121115
H	 0.1723793955	-0.2156978996	-2.0219851923	 0.110607
H	 3.8571034459	 0.4714535001	-0.2036130085	 0.113894
H	 2.5745081332	-0.2553588775	 0.7761958946	 0.107936
H	 4.5834667779	-1.7519558456	-0.9870233915	 0.119061
H	 3.4435337423	-2.5211379387	 0.135651188	 0.121815
H	 2.7720926681	-1.9227093879	-2.7318043378	 0.102038
54.0581	85.9955	126.0376	187.7101	211.5939	291.449	309.8954	450.3476	523.7993	563.9014	644.2025	724.7452	749.745	797.2013	822.2542	865.773	907.6954	932.6474	965.025	987.8675	998.7278	1033.2031	1063.2428	1087.984	1133.9072	1159.0267	1177.7675	1191.194	1222.0389	1243.6955	1247.034	1277.6944	1292.8098	1310.4174	1326.1239	1381.9522	1414.324	1481.3339	1488.6355	1497.4298	1502.6081	1519.216	1889.6728	2993.5187	3037.138	3041.198	3053.6505	3069.8185	3071.1028	3078.3978	3094.4423	3107.1772	3111.821	3130.593
CCC1N2CCC2C1=O	CC[C@H]1N2CC[C@H]2C1=O	
InChI=1S/C7H11NO/c1-2-5-7(9)6-3-4-8(5)6/h5-6H,2-4H2,1H3	InChI=1S/C7H11NO/c1-2-5-7(9)6-3-4-8(5)6/h5-6H,2-4H2,1H3/t5-,6+/m1/s1
