20
gdb 63036	3.26622	1.23166	1.16275	2.5451	79.59	-0.2345	0.0734	0.3078	1155.5567	0.170132	-403.084175	-403.075552	-403.074608	-403.116801	34.263	
C	-0.0202102565	 1.5729680387	 0.0475772086	-0.455999
C	 0.0830798329	 0.0649873099	 0.0700904755	 0.406297
O	-1.0827728323	-0.5756310891	-0.4003315452	-0.474587
C	 1.3357457198	-0.7288651747	-0.2182248901	-0.125535
C	 2.5991546626	-0.0683585399	 0.3521661507	-0.348115
C	 1.9279341404	-0.1004405155	 1.7442326506	 0.350278
C	 2.5992056627	-0.3963793011	 3.0250448027	-0.312463
N	 1.9507539503	 0.9147540209	 2.798992718	-0.36599
C	 0.6804388223	-0.7434393807	 1.1847120412	-0.153348
H	 0.8502676399	 2.0581964583	 0.4917250149	 0.124971
H	-0.1216951158	 1.9366863715	-0.9831401932	 0.100094
H	-0.9046043637	 1.8894185618	 0.6082471678	 0.132174
H	-1.172061766	-0.3663466759	-1.3367961034	 0.279349
H	 1.3217432092	-1.5169361021	-0.9609305622	 0.086748
H	 3.4804529845	-0.7133334475	 0.2976498596	 0.110223
H	 2.8612214187	 0.9162299694	-0.0516669373	 0.095685
H	 2.109840398	-1.0212889328	 3.7680352751	 0.119547
H	 3.6854885824	-0.4522184563	 3.0321184483	 0.107941
H	 2.6590843762	 1.6151530693	 2.5904071313	 0.227256
H	 0.0991050743	-1.5250852342	 1.6581274771	 0.095474
113.9023	185.2264	195.9102	230.5634	289.1133	296.1851	351.801	401.4371	424.8457	451.9808	499.3584	593.9814	676.5045	798.2041	829.3501	851.0505	880.7472	916.9979	934.5088	945.5001	971.2999	989.9419	992.6318	1012.76	1047.684	1080.1454	1092.9799	1118.1504	1146.6275	1172.1711	1219.6631	1249.0697	1264.5881	1272.5725	1291.5925	1307.2119	1409.7798	1420.4285	1440.1964	1479.6793	1490.6478	1500.8853	1515.3565	3024.7684	3034.6671	3090.2983	3096.5094	3097.8358	3137.7467	3181.954	3185.6531	3195.4485	3487.9835	3793.3068
CC1(O)C2CC3(CN3)C12	C[C@@]1(O)[C@H]2C[C@]3(CN3)[C@@H]12	
InChI=1S/C7H11NO/c1-6(9)4-2-7(3-8-7)5(4)6/h4-5,8-9H,2-3H2,1H3	InChI=1S/C7H11NO/c1-6(9)4-2-7(3-8-7)5(4)6/h4-5,8-9H,2-3H2,1H3/t4-,5+,6+,7-/m0/s1
