16
gdb 51105	4.60995	0.90916	0.83397	2.6189	70.24	-0.2581	-0.0421	0.216	1329.9737	0.122298	-437.872518	-437.864175	-437.863231	-437.906744	30.017	
O	-0.593626822	 0.5421260162	 0.6068458424	-0.225458
C	 0.2156342988	 0.8453037831	-0.2283665146	 0.159913
C	 1.2426329102	 1.955270216	-0.0703106286	-0.374595
C	 1.173659114	 2.9423693872	-1.2034580459	 0.312158
C	 1.8810715357	 2.7880112665	-2.4845411992	-0.285111
N	 2.3703649557	 3.8470112593	-1.5438878847	-0.206072
C	 1.4217127271	 4.9446408306	-1.6913672337	 0.41304
O	 1.638416964	 6.0854334196	-1.9451407917	-0.285513
C	 0.1914158231	 4.1172354284	-1.2835504076	-0.435069
H	 0.2666750772	 0.3110087286	-1.2049464965	 0.081493
H	 1.088669811	 2.4409423289	 0.8973624414	 0.133301
H	 2.2381294286	 1.4909737965	-0.0696498603	 0.14047
H	 2.5977454869	 1.9797410467	-2.5901303581	 0.141463
H	 1.4105346385	 3.0971797626	-3.4147240339	 0.138274
H	-0.6345825108	 4.0503853041	-1.9958141501	 0.139476
H	-0.1966644382	 4.436962626	-0.3126831889	 0.152231
45.3896	65.8339	112.0435	205.2075	301.3636	364.553	385.4118	467.6462	508.616	566.2995	648.979	683.1028	764.6966	820.3377	834.0852	934.7904	963.2321	987.1166	1021.5883	1029.6832	1059.806	1107.1848	1129.0712	1162.4659	1176.655	1217.1463	1286.3994	1326.4077	1381.0258	1424.4505	1453.5287	1457.8447	1510.2831	1840.3102	1926.5181	2868.7573	3028.6083	3069.2978	3103.4415	3114.1956	3123.8952	3205.3187
O=CCC12CN1C(=O)C2	O=CC[C@]12CN1C(=O)C2	
InChI=1S/C6H7NO2/c8-2-1-6-3-5(9)7(6)4-6/h2H,1,3-4H2	InChI=1S/C6H7NO2/c8-2-1-6-3-5(9)7(6)4-6/h2H,1,3-4H2/t6-,7?/m0/s1
