23
gdb 75358	2.07635	1.75159	1.35987	0.2131	90.78	-0.2246	0.0339	0.2585	1120.6386	0.206455	-351.174664	-351.165765	-351.164821	-351.207616	35.265	
C	 0.4555156921	 1.3519090247	-0.0124357881	-0.501263
C	 0.0806364599	-0.0991155831	 0.0204353329	 0.280646
C	-0.1859010336	-0.8745751436	-1.0347437928	-0.167405
C	-0.5422086414	-2.2967615768	-0.6684988332	-0.282963
C	-0.2232169273	-2.3419090948	 0.8362629472	-0.038532
C	 1.2585007167	-2.6166792811	 1.2278428154	-0.222565
C	 1.3237368395	-1.2518081255	 1.9651727103	-0.268675
C	-0.049727283	-0.8610350757	 1.3295188087	 0.266561
C	-1.0887954818	-0.267878499	 2.2768993434	-0.477331
H	 1.4110822601	 1.5292387529	 0.4973206307	 0.123725
H	 0.5470705222	 1.7185440224	-1.0384150553	 0.121011
H	-0.2894704926	 1.9722632864	 0.5011189073	 0.125437
H	-0.1642296289	-0.5275723749	-2.0638930864	 0.07878
H	-1.5976298114	-2.5145157796	-0.8858506554	 0.097274
H	 0.0430785116	-3.0362731353	-1.231579448	 0.097373
H	-0.9342233466	-2.9360760247	 1.4150663882	 0.056553
H	 1.4392059394	-3.5031747882	 1.8403488854	 0.093542
H	 1.9164203152	-2.6646693321	 0.3556337424	 0.099395
H	 1.2580160286	-1.3529035439	 3.0529561721	 0.091753
H	 2.1756430861	-0.6057334628	 1.7340839675	 0.090986
H	-0.7871734133	 0.7239889675	 2.63369116	 0.11296
H	-2.0625187917	-0.1632059115	 1.7848903081	 0.113444
H	-1.2215619597	-0.9057719515	 3.1574695493	 0.109296
98.7506	165.2921	193.3712	238.064	247.255	258.8452	270.8842	368.4819	417.762	532.0029	581.393	618.7547	696.1871	719.5701	795.4749	827.1638	829.1662	884.183	913.2837	940.3604	958.5938	970.2423	1011.6845	1024.8413	1058.3175	1066.2457	1103.5482	1118.7659	1159.8025	1169.2747	1201.0179	1218.0102	1238.8472	1253.7584	1274.3104	1279.9607	1314.387	1328.3825	1360.3639	1403.6828	1413.9421	1475.7531	1479.4687	1486.3574	1488.0709	1493.8544	1497.3149	1499.1468	1712.4544	3000.3913	3018.2643	3020.7234	3028.2213	3044.1224	3057.6991	3064.7241	3075.1182	3085.0245	3088.5183	3092.1536	3108.742	3112.5771	3170.5041
CC1=CCC2CCC12C	CC1=CC[C@H]2CC[C@@]12C	
InChI=1S/C9H14/c1-7-3-4-8-5-6-9(7,8)2/h3,8H,4-6H2,1-2H3	InChI=1S/C9H14/c1-7-3-4-8-5-6-9(7,8)2/h3,8H,4-6H2,1-2H3/t8-,9-/m0/s1
