17
gdb 40453	4.18744	1.2122	1.06644	3.2768	67.94	-0.2587	0.071	0.3297	1124.7862	0.135955	-458.914111	-458.906515	-458.905571	-458.946643	28.494	
C	-0.5342052506	 0.828520811	-0.6119698014	-0.167666
O	 0.126267661	 1.6534644095	 0.3505234526	-0.232033
C	 0.4369256978	 0.2557255408	 0.325503087	-0.064971
C	 0.0029323985	-0.5323831323	 1.5134115534	 0.398168
C	 0.7868930523	-0.4798657414	 2.813338123	-0.146182
O	 0.3406727472	-1.5893221967	 3.5840960589	-0.255855
C	-0.1924406639	-2.5899465792	 2.7256568659	-0.101797
C	-0.6187697283	-1.862464986	 1.470362928	-0.052523
O	-1.4017457694	-0.6942707852	 1.742011934	-0.280725
H	-1.5928344454	 0.6624653643	-0.4304755314	 0.135794
H	-0.2421568436	 0.9927783813	-1.6480629947	 0.115236
H	 1.4445138455	 0.0315875491	-0.0283769176	 0.100104
H	 1.8656877734	-0.5423435972	 2.5942450783	 0.094901
H	 0.5989162827	 0.4308639443	 3.3894447042	 0.133029
H	 0.5582675297	-3.3554247181	 2.4673855369	 0.096397
H	-1.0201206368	-3.0764380466	 3.2517657605	 0.124005
H	-0.8433708301	-2.3958627174	 0.5507693324	 0.104118
69.9525	147.7698	187.328	222.9287	299.0438	377.7503	455.0417	470.0982	673.0246	702.175	773.6206	852.7559	881.2401	907.5921	919.3234	933.2692	975.8307	986.6853	1045.507	1065.2131	1093.7637	1117.831	1127.627	1160.5715	1166.5813	1201.2399	1224.0695	1243.5104	1278.1503	1289.9871	1351.6554	1379.7388	1428.5242	1481.0894	1499.8061	1511.538	1522.1707	2969.0548	2976.0525	3074.9965	3087.136	3092.9524	3101.0955	3158.097	3194.0544
C1OC1C12COCC1O2	C1O[C@H]1[C@]12COC[C@H]1O2	
InChI=1S/C6H8O3/c1-5-6(9-5,3-7-1)4-2-8-4/h4-5H,1-3H2	InChI=1S/C6H8O3/c1-5-6(9-5,3-7-1)4-2-8-4/h4-5H,1-3H2/t4-,5-,6-/m1/s1
