20
gdb 62136	5.72655	0.55451	0.52706	1.7814	81.32	-0.2602	-0.0313	0.2289	2001.7698	0.168376	-403.182231	-403.171704	-403.170759	-403.219346	36.174	
C	 0.0684838867	 1.5580942478	-0.181411797	-0.401787
C	-0.02494722	 0.0382309104	-0.002489835	 0.022894
C	 0.7296552169	-0.4663210719	 1.2405461863	-0.201357
C	 2.2459103295	-0.2070736876	 1.2050573138	-0.289686
C	 2.9532606819	-0.9147258431	 2.3406036889	 0.16095
O	 3.6457225801	-0.3768799816	 3.1640624637	-0.231132
C	-1.5018183383	-0.4223587608	 0.0875442781	-0.34879
C	-2.2706449911	-0.1199735383	-1.1175455099	 0.264195
N	-2.8604478393	 0.1231757565	-2.0812502087	-0.309981
H	 1.1021826825	 1.8791744153	-0.331730353	 0.127842
H	-0.5102160928	 1.8862766882	-1.049297932	 0.146733
H	-0.3202767158	 2.0800044116	 0.7011574687	 0.120005
H	 0.4130469982	-0.4447733765	-0.885956835	 0.097859
H	 0.3043400881	 0.0018077116	 2.1384784033	 0.115049
H	 0.5588554751	-1.5463944284	 1.3455533311	 0.102094
H	 2.6559990717	-0.6038874854	 0.2643875687	 0.121649
H	 2.4870329729	 0.8568010842	 1.2617159128	 0.130635
H	 2.7788535863	-2.0169123815	 2.3702754604	 0.072153
H	-1.5513203193	-1.5031930416	 0.2627822858	 0.149197
H	-1.9922818934	 0.0586084713	 0.9430912291	 0.151478
44.7984	56.561	79.8484	104.0202	122.461	203.0562	238.3646	280.9049	333.7773	389.2389	399.4542	430.8291	528.0866	575.5262	770.0303	833.3652	848.5438	894.8853	923.9148	970.7128	986.2667	1026.384	1059.1832	1121.9094	1131.8434	1163.84	1206.6277	1253.237	1265.4036	1303.098	1322.365	1361.2522	1380.897	1389.0753	1421.9379	1430.9437	1461.8025	1466.8433	1490.3262	1498.4943	1506.9771	1839.6816	2360.7259	2848.7894	3006.6343	3012.9171	3019.1111	3034.1148	3037.8774	3050.4782	3076.9834	3106.0145	3113.7747	3124.118
CC(CCC=O)CC#N	C[C@@H](CCC=O)CC#N	
InChI=1S/C7H11NO/c1-7(4-5-8)3-2-6-9/h6-7H,2-4H2,1H3	InChI=1S/C7H11NO/c1-7(4-5-8)3-2-6-9/h6-7H,2-4H2,1H3/t7-/m0/s1
