25
gdb 99962	2.22049	1.18047	1.152	2.5705	84.39	-0.2607	0.0636	0.3243	1297.5653	0.224661	-426.626669	-426.614802	-426.613858	-426.662591	45.013	
C	 0.0171962243	 1.573017929	 0.1281025847	-0.428746
C	 0.0293092637	 0.0363580183	 0.0236416788	 0.339378
C	 0.6245473554	-0.5437185503	 1.3201615657	-0.432442
O	-1.3248607497	-0.4258801318	-0.0978508696	-0.469849
C	 0.7412618738	-0.4908651439	-1.2773449595	 0.27226
C	 0.8009595003	-2.0340892786	-1.262682623	-0.423014
C	-0.0420859975	-0.0541831043	-2.5347136366	-0.422518
C	 2.1743281384	 0.0688958596	-1.3719303599	-0.109239
O	 2.8116993885	-0.5145023915	-2.5024620336	-0.425474
H	 1.0194198281	 1.9861946309	 0.2752124011	 0.114158
H	-0.4255017847	 2.0343690685	-0.7563301861	 0.125866
H	-0.5836046958	 1.8723871926	 0.9950617714	 0.098034
H	 0.0819007938	-0.1386548926	 2.1831210156	 0.098106
H	 0.5302276665	-1.6302553999	 1.3467314869	 0.128714
H	 1.6778933483	-0.280825983	 1.4537845306	 0.114733
H	-1.7892086779	-0.179014124	 0.7084695276	 0.272534
H	-0.1906233724	-2.4482895522	-1.0671930787	 0.123927
H	 1.1529416741	-2.4015793122	-2.2281316037	 0.124279
H	 1.4914519457	-2.4124190767	-0.5028077733	 0.100474
H	-0.1124712402	 1.0344605671	-2.6204922935	 0.098228
H	 0.4745545702	-0.4186903202	-3.4251008653	 0.123936
H	-1.0551146674	-0.4580510323	-2.5175854071	 0.128201
H	 2.1429709288	 1.1631188268	-1.4753534707	 0.083279
H	 2.7368655801	-0.1647906078	-0.4550208486	 0.079272
H	 3.6861543658	-0.1246299914	-2.5845542332	 0.285904
50.3358	112.6097	198.4494	213.9092	225.1748	234.7865	245.8629	254.7089	260.3216	301.6314	320.5613	334.819	362.9552	385.1516	398.003	408.2252	470.8016	497.3472	561.1488	691.5508	814.7594	887.0006	913.5178	932.712	953.812	965.7102	984.8641	1004.574	1045.62	1066.7221	1127.6598	1167.4869	1188.7657	1197.9028	1232.2775	1252.0899	1280.3191	1311.5783	1361.5006	1391.435	1399.6296	1409.5273	1417.797	1462.9094	1477.7778	1482.7843	1491.5629	1499.2894	1500.792	1504.2287	1509.5423	1525.1252	1525.4718	2977.5656	3011.7348	3029.6399	3036.5293	3048.4081	3054.3587	3091.6965	3099.633	3114.9574	3118.6213	3136.2732	3139.1256	3140.8186	3148.7425	3812.8837	3838.55
CC(C)(O)C(C)(C)CO	CC(C)(O)C(C)(C)CO	
InChI=1S/C7H16O2/c1-6(2,5-8)7(3,4)9/h8-9H,5H2,1-4H3	InChI=1S/C7H16O2/c1-6(2,5-8)7(3,4)9/h8-9H,5H2,1-4H3
