19
gdb 109087	3.83389	1.06994	0.94547	1.9415	77.72	-0.2322	0.0253	0.2575	1272.7082	0.160043	-423.01269	-423.004442	-423.003498	-423.045891	31.009	
O	 0.0416147208	 1.4351250948	 0.1873794721	-0.413787
C	 0.0100266226	 0.0327141425	-0.0032473498	-0.174566
C	-1.4032094491	-0.4504104289	-0.0247935142	 0.309315
C	-2.5051613183	 0.2970368314	 0.0794272682	-0.174051
C	-3.7649444674	-0.5158312706	-0.0127013292	-0.119193
C	-4.3853239264	-0.6296065609	-1.4272671618	-0.074873
O	-3.6951809291	-1.874149517	-1.6675787843	-0.293815
C	-3.2448575632	-1.9511280403	-0.2947336601	 0.123881
C	-1.7160741377	-1.9275474424	-0.1646226101	-0.33043
H	 0.9598438967	 1.7185293556	 0.1706353883	 0.289915
H	 0.5014704926	-0.2568258187	-0.9494599432	 0.098868
H	 0.5590087092	-0.4955840171	 0.7976445887	 0.093514
H	-2.498492374	 1.3737687725	 0.1930238726	 0.107823
H	-4.4701394073	-0.353269065	 0.8061569657	 0.077552
H	-5.4758037345	-0.7625388398	-1.4367274128	 0.092403
H	-4.1073911163	 0.1444501819	-2.1517447889	 0.102174
H	-3.7209897486	-2.7863029215	 0.2307526128	 0.068501
H	-1.2603185873	-2.3802801129	-1.0542839613	 0.117542
H	-1.3624500828	-2.5016978438	 0.7032823475	 0.099227
77.5309	126.8138	157.7557	197.2842	230.9306	351.6578	370.5455	451.6203	467.1224	647.923	671.2618	816.6419	844.1581	863.3208	887.6325	894.3419	910.8837	995.4514	1004.4232	1022.9269	1055.7557	1059.7503	1077.6351	1083.9382	1149.7394	1167.7939	1184.2508	1215.8776	1233.0814	1254.8258	1259.7825	1287.6362	1314.9574	1330.1387	1359.4755	1364.9652	1464.7269	1469.5621	1505.9929	1521.0934	1715.4985	2935.8776	2949.3598	3002.9407	3007.3836	3042.1899	3052.3184	3059.6217	3078.0812	3216.563	3839.5566
OCC1=CC2COC2C1	OCC1=C[C@H]2CO[C@H]2C1	
InChI=1S/C7H10O2/c8-3-5-1-6-4-9-7(6)2-5/h1,6-8H,2-4H2	InChI=1S/C7H10O2/c8-3-5-1-6-4-9-7(6)2-5/h1,6-8H,2-4H2/t6-,7-/m0/s1
