20
gdb 68097	2.43153	1.61935	1.36064	3.1787	79.17	-0.2321	-0.0058	0.2264	1070.6054	0.170507	-403.155508	-403.146652	-403.145708	-403.188467	33.98	
C	 0.041531057	 1.5441027044	 0.0799342837	-0.495718
C	 0.0198550894	 0.0411310854	 0.031411739	 0.202839
C	 0.5496600902	-0.7021496386	-1.2262536173	-0.267859
C	 0.3799921485	-2.1806373655	-0.740595683	-0.267859
C	-0.2049577588	-1.9178974775	 0.6749190755	 0.202839
C	-0.4882348094	-3.0722439108	 1.5963232878	-0.495719
N	 0.5972759403	-0.7445573764	 1.1842235744	-0.382633
C	-1.2328248487	-0.8161729602	 0.3268510807	 0.422999
O	-2.4145771468	-0.6668104587	 0.368708515	-0.325301
H	 1.0580372385	 1.9317881152	-0.0515088078	 0.116936
H	-0.5800507376	 1.9580171311	-0.7204792628	 0.13053
H	-0.3436189923	 1.9050923411	 1.0369108248	 0.137121
H	-0.0295552452	-0.4765674301	-2.1267528666	 0.11276
H	 1.5930177715	-0.4361151817	-1.4246226532	 0.101263
H	-0.2923535947	-2.7666228089	-1.3745110821	 0.11276
H	 1.3310326497	-2.7190619807	-0.6747098246	 0.101263
H	 0.4161595007	-3.6613766559	 1.7856789494	 0.116936
H	-0.8738195677	-2.7156020094	 2.5547537269	 0.137121
H	-1.2338367441	-3.7385125087	 1.1507729606	 0.130531
H	 1.6026578395	-0.8947094339	 1.0783493296	 0.20919
137.3732	162.0131	165.1303	209.2864	217.2936	244.9632	263.0356	362.3822	460.4993	528.2579	587.516	596.039	682.6126	758.395	776.6768	825.6861	857.1736	874.935	887.2521	901.3791	952.1653	999.8781	1043.7505	1090.2728	1109.1263	1130.351	1142.6289	1206.8548	1233.4291	1234.2034	1275.5304	1294.6254	1350.0071	1373.1295	1411.0353	1422.58	1480.3134	1483.2086	1490.3228	1491.2433	1492.2256	1504.1981	1922.3039	3034.3562	3034.9879	3040.4408	3050.898	3081.8976	3098.0063	3099.1899	3100.7544	3122.2931	3122.4844	3427.4124
CC12CCC(C)(N1)C2=O	C[C@@]12CC[C@@](C)(N1)C2=O	
InChI=1S/C7H11NO/c1-6-3-4-7(2,8-6)5(6)9/h8H,3-4H2,1-2H3	InChI=1S/C7H11NO/c1-6-3-4-7(2,8-6)5(6)9/h8H,3-4H2,1-2H3/t6-,7+
