23
gdb 77922	2.10795	1.36224	1.32415	1.6117	86.25	-0.2434	0.073	0.3164	1195.8465	0.203776	-388.240291	-388.229971	-388.229026	-388.275268	38.569	
C	 0.4065536892	 1.4037139162	-1.2629956947	-0.454643
C	 0.3859690352	-0.0848769206	-0.9084548902	 0.007942
C	 1.6151908865	-1.0586751362	-0.9466606272	-0.148944
C	 2.1059999345	-0.4878159727	 0.4176223272	 0.03525
C	 2.9102139538	 0.8061841166	 0.5343790294	-0.451627
C	 0.5438410352	-0.612628805	 0.5630181316	 0.245147
C	-0.3046384126	-0.2677099523	 1.7573520674	-0.521877
C	 0.753882031	-2.0322299405	-0.0763630815	 0.15842
O	-0.3085789198	-2.782779943	-0.5906594958	-0.455774
H	 0.9176064505	 1.5801789153	-2.2164037598	 0.118334
H	-0.6207439401	 1.7652053053	-1.3793327966	 0.112561
H	 0.8776292791	 2.0327325454	-0.5082050386	 0.125929
H	-0.4852388422	-0.5057961206	-1.4287042687	 0.031576
H	 2.2279842261	-1.3136106721	-1.8138324283	 0.063994
H	 2.6114324465	-1.246159814	 1.0303472215	 0.061544
H	 2.6601814763	 1.3488509498	 1.45379706	 0.115462
H	 3.9765092497	 0.5620186104	 0.5893568833	 0.11486
H	 2.7866448045	 1.4896240623	-0.3044955436	 0.124224
H	-0.3170082492	 0.8118595688	 1.946577132	 0.117254
H	-1.3400380658	-0.5932822167	 1.6059655584	 0.120366
H	 0.0700114059	-0.7610781123	 2.6611986627	 0.119832
H	 1.3296320001	-2.7308504411	 0.5359975073	 0.076848
H	-0.8466689243	-2.2316118929	-1.1674162258	 0.283323
60.2686	113.3716	162.3999	167.3129	186.0189	192.9744	248.4954	260.9576	339.259	356.9924	394.7374	494.0386	528.0088	626.6956	658.7201	729.3924	779.1204	799.6851	808.5155	871.1521	941.1581	998.3113	1020.5867	1041.0225	1059.4162	1089.4593	1100.2595	1113.3096	1128.8373	1154.8741	1185.6218	1188.7195	1220.2306	1245.0364	1267.6199	1275.6714	1327.5823	1404.8008	1405.2629	1417.137	1421.6304	1464.6423	1476.3129	1487.8736	1489.1021	1495.3081	1500.0994	1501.8721	1528.9121	2985.2873	3004.0956	3022.2424	3034.7808	3037.0592	3080.8671	3084.7784	3087.2615	3088.0673	3090.9825	3093.6613	3137.1645	3157.9739	3814.3564
CC1C2C(C)C1(C)C2O	C[C@H]1[C@H]2[C@@H](C)[C@]1(C)[C@H]2O	
InChI=1S/C8H14O/c1-4-6-5(2)8(4,3)7(6)9/h4-7,9H,1-3H3	InChI=1S/C8H14O/c1-4-6-5(2)8(4,3)7(6)9/h4-7,9H,1-3H3/t4-,5+,6-,7-,8+/m0/s1
