21
gdb 77471	1.92252	1.45564	1.36108	2.2052	79.05	-0.2169	0.0723	0.2892	1154.1721	0.179814	-424.191142	-424.18101	-424.180066	-424.225292	38.114	
C	 0.1073715816	 1.616759301	-0.3746444182	-0.426589
C	 0.283576626	 0.122331308	-0.1741889607	-0.157444
C	 1.5415676223	-0.7002462406	-0.4067671198	 0.295111
O	 1.5792916962	-1.7588202317	-1.3003466984	-0.462274
C	 2.7867868468	 0.0153137218	 0.1292984458	-0.334122
C	 2.1594146655	-0.0163665685	 1.5704570875	 0.007962
C	 2.0936577838	 1.2377935577	 2.4357624204	-0.424822
C	 0.8929156952	-0.6342633036	 0.9848911049	 0.332136
O	 0.201772951	-1.5461454309	 1.7653018875	-0.465061
H	 1.0320459174	 2.1712666962	-0.2004641597	 0.125503
H	-0.2105860463	 1.8314969739	-1.4015544688	 0.109684
H	-0.655476157	 2.0242882695	 0.2979978049	 0.119786
H	-0.5674191289	-0.4536063929	-0.5478585738	 0.074361
H	 1.5383036674	-1.4056530821	-2.1962996975	 0.282209
H	 3.683756581	-0.6020743034	 0.0480070403	 0.108169
H	 3.0030533176	 1.0069315977	-0.2837068887	 0.0886
H	 2.6602533871	-0.8088263946	 2.137239719	 0.09014
H	 1.6280911237	 2.0805769064	 1.9189609975	 0.115059
H	 1.5144927702	 1.0433018227	 3.3446886769	 0.12428
H	 3.097937357	 1.5488240541	 2.743790789	 0.112556
H	-0.6207461074	-1.7778924306	 1.323266672	 0.284757
134.2531	144.8713	180.9996	188.8454	195.3463	207.4425	241.2696	270.6292	282.2233	358.6635	375.9045	445.5692	524.9793	573.1774	660.6327	678.1958	737.8292	781.6298	829.5229	896.0079	951.4825	971.9419	1036.9503	1084.2677	1096.773	1106.1007	1116.5709	1133.0139	1172.9837	1205.5586	1228.7774	1234.2832	1262.4821	1323.5436	1340.2931	1370.2378	1403.8666	1410.4452	1416.4623	1470.5908	1490.7821	1497.1671	1505.5964	1506.0039	1522.0708	3028.4819	3035.3324	3040.1105	3045.5197	3072.7369	3083.1698	3095.8998	3109.2581	3116.8803	3126.681	3781.2894	3827.7481
CC1C2(O)CC(C)C12O	C[C@H]1[C@@]2(O)C[C@@H](C)[C@@]12O	
InChI=1S/C7H12O2/c1-4-3-6(8)5(2)7(4,6)9/h4-5,8-9H,3H2,1-2H3	InChI=1S/C7H12O2/c1-4-3-6(8)5(2)7(4,6)9/h4-5,8-9H,3H2,1-2H3/t4-,5+,6+,7-/m1/s1
