15
gdb 97499	4.24088	0.69629	0.60156	2.6258	76.11	-0.2509	-0.0767	0.1741	1752.6168	0.110649	-453.924481	-453.91455	-453.913606	-453.960772	34.123	
N	-0.1035017182	 1.3159180142	 0.1968796482	-0.546576
C	 0.0886980663	-0.0282595458	 0.0758902724	 0.290945
N	 1.1711212578	-0.7053559608	-0.0077955324	-0.513625
C	-1.2274211015	-0.7879446743	 0.0668058547	 0.179333
O	-2.2861476804	-0.1866607786	 0.0626988511	-0.320385
C	-1.1514609701	-2.2231287072	 0.0522616472	 0.066685
C	-1.1709738274	-3.4305790759	 0.0559989361	 0.125768
C	-1.207807999	-4.8886405034	 0.0206300392	-0.206108
O	-2.497044481	-5.4395808574	 0.2220182724	-0.396174
H	 0.6483976006	 1.9526340507	-0.0026855325	 0.25492
H	-1.0518912328	 1.6433857336	 0.0893248489	 0.272596
H	 1.9964305513	-0.1014694564	-0.0030459483	 0.208467
H	-0.7600241839	-5.2231208973	-0.9297442578	 0.133916
H	-0.5757845334	-5.2902570441	 0.8207705854	 0.156573
H	-3.0978466684	-5.0214410374	-0.4038849648	 0.293664
40.2389	65.9827	67.7584	151.6649	168.7663	286.482	305.6989	314.3443	380.6832	398.7693	441.3883	477.046	540.6425	570.423	625.7175	706.9171	825.7127	885.8477	940.5903	979.5339	1062.3015	1088.7879	1136.1861	1214.1204	1227.0822	1354.9231	1414.0507	1432.7807	1474.6874	1599.3052	1719.6389	1739.5873	2327.0876	2974.9212	3065.8246	3445.006	3582.9359	3719.105	3816.5842
NC(=N)C(=O)C#CCO	NC(=N)C(=O)C#CCO	
InChI=1S/C5H6N2O2/c6-5(7)4(9)2-1-3-8/h8H,3H2,(H3,6,7)	InChI=1S/C5H6N2O2/c6-5(7)4(9)2-1-3-8/h8H,3H2,(H3,6,7)
