22
gdb 59119	3.2349	1.25593	1.09622	1.828	84.27	-0.2384	0.0696	0.3079	1214.7379	0.195075	-367.161092	-367.152599	-367.151655	-367.194258	33.318	
C	 0.0204898784	 1.5919468381	 0.1118920183	-0.390382
C	 0.0598575699	 0.0612479029	-0.0016252702	-0.004478
C	 0.79852921	-0.5640913338	 1.190118124	-0.389001
C	-1.3556398889	-0.5056316552	-0.1198069264	 0.061179
C	-2.2341167401	-0.2634224371	-1.3385196423	-0.082917
C	-2.0016108345	-1.3535646232	-2.3374367553	-0.036913
C	-0.9724623949	-2.3224923594	-1.7869622906	-0.240787
C	-1.630923692	-1.9981269369	-0.4314017462	-0.049468
N	-2.9406804176	-1.582084537	-1.1833208665	-0.167129
H	 1.031261331	 2.0085090199	 0.1722631013	 0.11068
H	-0.4771987615	 2.0463558711	-0.7509614201	 0.115101
H	-0.5215603414	 1.9038569841	 1.0127238376	 0.112718
H	 0.6116856945	-0.1911104714	-0.9162810222	 0.072926
H	 0.8667497281	-1.6531261063	 1.0972660545	 0.113994
H	 1.8174099398	-0.1720194688	 1.2724711847	 0.111237
H	 0.2807225315	-0.3422679053	 2.1310249512	 0.113324
H	-1.9339105972	-0.2374214935	 0.7743314299	 0.078449
H	-2.7888379942	 0.6321359315	-1.596869703	 0.090291
H	-2.3748135112	-1.2819868722	-3.353165458	 0.092841
H	-1.2064284789	-3.3450041689	-2.0947844645	 0.111324
H	 0.0960955663	-2.1317916935	-1.9279688982	 0.097156
H	-1.6855456472	-2.740283975	 0.3625911821	 0.079852
59.8155	156.883	166.5893	227.5025	250.4376	306.7999	365.4835	415.5165	498.7462	523.0306	736.2941	757.6718	778.8648	813.2597	827.7521	868.1342	919.7165	926.4736	934.4292	961.758	976.8264	1011.1505	1026.4514	1039.1693	1059.0782	1070.4599	1115.738	1131.2178	1143.0779	1169.7653	1198.0247	1206.3023	1224.0272	1265.4459	1270.9159	1309.6009	1349.0458	1355.8141	1377.492	1398.0859	1406.9897	1423.0327	1486.694	1492.5118	1500.5142	1505.2526	1509.8364	3014.6329	3023.5136	3025.3062	3031.4191	3046.1387	3088.7338	3094.6349	3098.2956	3101.1069	3101.896	3135.6348	3168.2812	3180.8826
CC(C)C1C2C3CC1N23	CC(C)[C@H]1[C@H]2[C@H]3C[C@@H]1N23	
InChI=1S/C8H13N/c1-4(2)7-5-3-6-8(7)9(5)6/h4-8H,3H2,1-2H3	InChI=1S/C8H13N/c1-4(2)7-5-3-6-8(7)9(5)6/h4-8H,3H2,1-2H3/t5-,6+,7+,8+,9?/m0/s1
