16
gdb 20276	5.34839	2.077	1.98569	2.119	66.29	-0.2293	0.0881	0.3173	718.3373	0.132858	-346.517376	-346.51206	-346.511116	-346.546397	23.056	
C	-0.015281803	 1.5226224349	 0.0532606819	-0.296071
C	 1.3123637075	 0.8013840878	 0.0112092805	-0.065894
C	 0.0134924183	 0.0117680272	 0.0203671108	-0.065893
C	 0.0680960855	-0.660036548	-1.3389092658	-0.041522
C	 0.7064070336	 0.307275292	-2.3798712896	 0.031539
O	 1.3754332303	-0.8012626112	-3.0716114758	-0.318308
C	 1.5524457723	-1.0759065718	-1.6458524982	 0.052276
C	 1.8696183103	 0.4351455534	-1.3516079706	-0.041522
H	-0.2868154767	 1.9802397633	 0.9990951946	 0.11288
H	-0.3581752687	 2.0765973623	-0.8145373686	 0.113904
H	 1.9700218211	 0.8377406765	 0.8715113476	 0.089635
H	-0.3126143076	-0.5499368719	 0.8876030054	 0.089635
H	-0.7340580319	-1.3168151523	-1.6725984082	 0.078552
H	 0.2365560807	 1.0729923364	-2.9977867429	 0.092148
H	 2.101344895	-1.9755392888	-1.3626746279	 0.090088
H	 2.8184219035	 0.8428108203	-1.6976404633	 0.078552
285.4273	330.918	496.3393	518.2381	658.0903	673.6862	763.937	786.778	813.0234	841.0715	882.4158	888.6919	897.57	903.6901	954.7374	982.2748	997.3458	1016.786	1063.4099	1070.2505	1077.7943	1098.1129	1127.7215	1157.6245	1162.3546	1185.461	1195.1619	1226.9903	1261.2319	1274.4474	1334.8561	1341.7403	1376.813	1490.2609	3103.5277	3108.142	3128.0677	3133.5145	3138.6109	3176.3007	3183.6868	3211.0053
C1C2C1C1C3OC1C23	C1[C@H]2[C@@H]1[C@H]1[C@@H]3O[C@H]1[C@H]23	
InChI=1S/C7H8O/c1-2-3(1)5-6-4(2)7(5)8-6/h2-7H,1H2	InChI=1S/C7H8O/c1-2-3(1)5-6-4(2)7(5)8-6/h2-7H,1H2/t2-,3+,4-,5+,6-,7+
