15
gdb 56736	2.11119	1.45684	1.28766	1.8547	67.52	-0.2614	-0.0533	0.2081	1066.7198	0.108801	-457.700756	-457.691781	-457.690837	-457.734542	32.552	
O	 0.3898356606	 1.5665613863	-0.0892444323	-0.412775
C	 0.1052313698	 0.1834327309	-0.0013324879	-0.160749
C	 0.4704386301	-0.5571870441	-1.2149438413	 0.321621
C	 0.784660097	-1.1554587487	-2.2080758493	-0.44831
C	 0.7883866427	-0.4185443643	 1.2292297251	 0.307671
C	 0.0743648004	-0.4977575499	 2.5211088068	-0.223974
O	 0.2755026625	-1.6567759221	 1.7255864842	-0.258262
C	 2.2806544659	-0.309493524	 1.2938500069	 0.125499
O	 2.930897255	 0.4537777203	 0.6210470104	-0.267102
H	 1.3478351572	 1.6354142881	-0.2115502682	 0.302443
H	-0.9774719296	 0.100587279	 0.147643371	 0.127539
H	 1.0572755712	-1.682671802	-3.0891158689	 0.205158
H	 0.6295970508	-0.4675150321	 3.4575166717	 0.131346
H	-0.943282933	-0.1134904161	 2.5622991944	 0.140993
H	 2.7490806993	-0.9994921114	 2.0273596774	 0.108902
72.0124	119.0176	144.2073	204.3199	221.1964	287.5858	325.08	351.7029	435.1089	512.2753	525.7588	557.1884	598.9773	646.8552	675.487	846.4379	879.6275	889.7894	921.4964	995.6432	1045.9235	1078.4532	1132.2295	1158.969	1249.068	1298.1493	1310.3641	1355.2464	1429.069	1442.6285	1521.3033	1809.4897	2237.6032	2918.1241	3049.9722	3088.1477	3180.6825	3501.6922	3741.1583
OC(C#C)C1(CO1)C=O	O[C@@H](C#C)[C@]1(CO1)C=O	
InChI=1S/C6H6O3/c1-2-5(8)6(3-7)4-9-6/h1,3,5,8H,4H2	InChI=1S/C6H6O3/c1-2-5(8)6(3-7)4-9-6/h1,3,5,8H,4H2/t5-,6+/m0/s1
