19
gdb 63405	3.04111	1.16421	1.03734	4.4595	79.51	-0.2534	-0.0241	0.2292	1235.9092	0.158143	-419.239787	-419.230316	-419.229371	-419.274086	34.336	
C	-0.4655443743	 1.5433691536	 0.1390710815	-0.438383
C	-0.0418714981	 0.0814787671	 0.0006783886	 0.20571
C	-1.2255444483	-0.877695766	 0.1217952119	-0.438391
C	 0.9180410895	-0.2111843408	-1.2104200632	-0.229887
N	 1.9653529175	-0.5470017904	-0.2291422586	-0.10459
C	 3.2646740015	-0.9537637497	-0.335921867	 0.136018
O	 3.9818499025	-1.1854353186	 0.6127725583	-0.30464
C	 1.1443386734	-0.2972601941	 0.8964882879	 0.374249
N	 1.3029221706	-0.3558763779	 2.1422289147	-0.548392
H	 0.3891938048	 2.2196016354	 0.0398372405	 0.122366
H	-1.204032691	 1.8085210331	-0.6252570355	 0.117353
H	-0.9125884766	 1.7130765825	 1.1226900114	 0.143047
H	-1.9800260893	-0.6632206453	-0.6428125906	 0.117354
H	-0.9102119901	-1.9197239455	 0.010178387	 0.122365
H	-1.6933035266	-0.7743274321	 1.104990261	 0.14305
H	 0.6241515369	-1.0532313698	-1.8433757578	 0.122234
H	 1.1606991781	 0.6559268977	-1.8311318012	 0.122236
H	 3.5925921763	-1.0489541202	-1.3898672362	 0.088812
H	 2.2512501832	-0.6552077587	 2.3751256972	 0.24949
59.3195	131.3558	168.8825	204.8658	228.1415	230.4384	243.0567	286.2289	322.9065	373.9571	487.2836	526.891	678.9647	697.7958	764.7498	840.2475	906.921	928.1593	934.9879	966.8933	994.0119	1029.2154	1038.9538	1151.5739	1155.009	1200.7225	1219.5783	1251.7949	1255.4498	1338.9371	1391.3247	1400.6451	1423.2872	1433.3653	1481.9595	1485.8129	1502.2004	1502.6054	1516.6065	1756.2038	1820.7245	2941.3082	3032.235	3035.6491	3049.0965	3101.0879	3103.5869	3104.6328	3115.6938	3118.8211	3482.7273
CC1(C)CN(C=O)C1=N	CC1(C)CN(C=O)[C]1[NH]	
InChI=1S/C6H10N2O/c1-6(2)3-8(4-9)5(6)7/h4,7H,3H2,1-2H3	InChI=1S/C6H10N2O/c1-6(2)3-8(4-9)5(6)7/h4,7H,3H2,1-2H3
