15
gdb 46454	3.87316	1.24322	1.11353	4.6014	72.57	-0.2565	0.0109	0.2674	1080.5462	0.112981	-416.786979	-416.779219	-416.778275	-416.819249	29.567	
O	-0.0186713349	-0.0529662197	 0.0254370046	-0.361313
C	-0.0117042923	 1.1487833565	 0.0190985413	 0.415547
N	-1.0961057619	 1.9826581469	 0.1325908951	-0.325553
C	-0.8048747301	 3.3911774542	-0.0082950015	-0.237634
C	 0.7312037937	 3.381419545	-0.0263497881	 0.118379
C	 1.421528043	 2.7401218742	 1.1275461745	-0.269524
N	 1.1848710708	 1.9613544961	-0.104887948	-0.176087
C	 1.3932349314	 4.3642905327	-0.8348179496	 0.196815
C	 1.9147118333	 5.2199466267	-1.4980776566	-0.355243
H	-2.0269793524	 1.600874061	 0.1582525632	 0.263131
H	-1.1822603972	 3.8055505769	-0.9505385306	 0.130745
H	-1.2097222664	 3.9883834711	 0.8170907001	 0.126007
H	 2.4624861072	 2.9803957648	 1.3144831656	 0.141175
H	 0.8279656266	 2.4948200393	 2.0049324051	 0.134869
H	 2.3894836192	 5.9631111042	-2.0902442252	 0.198687
103.1185	136.5442	154.6237	275.4253	354.9309	427.9982	462.6521	504.956	538.7544	592.8571	623.2761	668.583	688.5261	727.0287	808.8648	838.469	856.7656	926.5416	985.8923	1051.0534	1075.1638	1128.0304	1135.4922	1190.3269	1210.7002	1270.9637	1318.963	1371.9882	1441.8419	1499.1584	1533.2819	1869.9521	2245.9502	3024.7292	3059.8894	3114.3293	3214.7863	3500.4878	3659.8655
O=C1NCC2(CN12)C#C	O=C1NC[C@]2(CN12)C#C	
InChI=1S/C6H6N2O/c1-2-6-3-7-5(9)8(6)4-6/h1H,3-4H2,(H,7,9)	InChI=1S/C6H6N2O/c1-2-6-3-7-5(9)8(6)4-6/h1H,3-4H2,(H,7,9)/t6-,8?/m0/s1
