25
gdb 86462	1.59321	1.57701	0.84532	1.4601	89.21	-0.2571	0.0781	0.3352	1456.5976	0.229582	-389.526178	-389.516329	-389.515385	-389.560102	38.755	
C	-0.0278273032	 1.5737095008	 0.0186050522	-0.401685
C	 0.0159421302	 0.0424794004	 0.0102004787	 0.01707
C	 0.7000430184	-0.5028277569	-1.2543339238	-0.171131
C	 0.7738308498	-2.0389270643	-1.2775496778	 0.013816
C	 1.4762587175	-2.552564027	-2.5383292739	-0.40188
C	 1.4542644524	-2.5604876697	-0.0020961187	-0.174828
C	 0.7728205773	-2.0441707682	 1.2625677979	 0.106833
O	 1.5072134202	-2.5507614076	 2.3717146863	-0.441379
C	 0.7106202672	-0.5128986614	 1.2648405653	-0.210925
H	 0.984407883	 1.9949840223	 0.0148122321	 0.112812
H	-0.5515972501	 1.9607387205	-0.8620489933	 0.109456
H	-0.5419381246	 1.9533889114	 0.9081642201	 0.107933
H	-1.0217273528	-0.3250918018	 0.0110828513	 0.067919
H	 0.1718322285	-0.1426316209	-2.146242909	 0.08511
H	 1.72010665	-0.093780171	-1.3139662147	 0.087157
H	-0.2586985729	-2.4205167635	-1.2875539854	 0.067303
H	 2.5124455105	-2.1967846339	-2.5821216775	 0.112369
H	 1.5003726451	-3.647190295	-2.562099057	 0.110211
H	 0.9681267654	-2.2078419035	-3.4453059868	 0.107637
H	 1.461691159	-3.6560539088	 0.0129383046	 0.095609
H	 2.5043206388	-2.2372916351	 0.0179576168	 0.096228
H	-0.259765808	-2.4364262325	 1.286953452	 0.056826
H	 1.1091663836	-2.1996825922	 3.1748029165	 0.276049
H	 1.7381416745	-0.1276755579	 1.3229719482	 0.097127
H	 0.1903077303	-0.1632673941	 2.167704646	 0.074365
141.722	149.5785	163.2593	232.195	240.1919	246.8002	261.1169	291.7338	400.6512	405.3823	427.3252	432.2403	458.4168	496.2616	516.2289	852.8914	856.8907	860.9863	873.4163	907.4335	954.5986	973.3369	984.326	1014.2616	1047.3893	1058.185	1083.0646	1090.3508	1140.2395	1148.9116	1181.8087	1194.3574	1250.448	1279.2738	1288.1322	1298.3367	1303.32	1314.4958	1372.2865	1373.5824	1375.7354	1392.5769	1396.6831	1411.7417	1412.3505	1439.4707	1480.7564	1481.4082	1495.8973	1497.6636	1500.3392	1501.9136	1503.5494	2934.8383	2982.7528	2984.6477	2999.3654	3002.1808	3018.5809	3024.2298	3025.9358	3043.0009	3047.9641	3069.5803	3090.6	3091.4528	3095.2127	3096.4102	3812.7278
CC1CC(C)CC(O)C1	C[C@H]1C[C@@H](C)C[C@@H](O)C1	
InChI=1S/C8H16O/c1-6-3-7(2)5-8(9)4-6/h6-9H,3-5H2,1-2H3	InChI=1S/C8H16O/c1-6-3-7(2)5-8(9)4-6/h6-9H,3-5H2,1-2H3/t6-,7+,8-
