18
gdb 69615	3.43933	1.21036	1.14947	1.934	84.43	-0.2049	0.0366	0.2414	1150.6078	0.145952	-364.700935	-364.692619	-364.691675	-364.733303	33.219	
C	-0.054337305	 1.5278983837	 0.0407460869	-0.51044
C	 0.0874685133	 0.040320612	 0.0115990069	 0.350655
N	-0.8540180881	-0.8793646716	 0.7037870544	-0.380484
C	 0.6012929526	-0.926400301	 0.9984484979	-0.188865
C	 1.3212902477	-1.7539377066	-0.1175176456	 0.192283
C	 0.3521662681	-2.1950368414	-1.1986575924	-0.33639
C	 0.7572104771	-0.7548987499	-1.1531681656	-0.161487
C	 2.6457667333	-2.2423711985	 0.0171442333	 0.190974
C	 3.771512559	-2.6464934719	 0.1622261668	-0.416273
H	 0.8803549128	 2.0160455364	-0.2563210555	 0.131272
H	-0.8399814165	 1.8664603894	-0.6453146316	 0.130776
H	-0.3098906681	 1.8772967463	 1.046929711	 0.11901
H	-1.2904711219	-0.3490935847	 1.457974029	 0.227101
H	 0.9893910481	-0.7835916033	 1.998767618	 0.096186
H	 0.8180499866	-2.7729088193	-1.9896399991	 0.122341
H	-0.6512135068	-2.4916970276	-0.9222779242	 0.147417
H	 1.317651817	-0.2730151297	-1.9436975709	 0.103808
H	 4.7620649608	-3.0085740723	 0.2815503707	 0.182118
108.6247	148.6032	210.8223	244.4727	292.7962	388.0151	440.6859	471.1198	506.655	522.3109	537.9193	583.703	642.9557	649.9895	777.5663	785.3805	838.0309	862.6149	906.6186	937.0686	963.533	981.8624	997.2796	1008.1519	1074.6283	1103.0222	1110.7711	1118.256	1183.1887	1225.3883	1263.1107	1329.6803	1351.5696	1411.6646	1449.6905	1463.6328	1481.113	1499.5338	2226.09	3022.228	3084.2548	3096.6527	3146.1684	3199.5424	3201.7578	3242.0891	3469.9251	3504.6477
CC12NC1C1(CC21)C#C	C[C@]12N[C@H]1[C@]1(C[C@@H]21)C#C	
InChI=1S/C8H9N/c1-3-8-4-5(8)7(2)6(8)9-7/h1,5-6,9H,4H2,2H3	InChI=1S/C8H9N/c1-3-8-4-5(8)7(2)6(8)9-7/h1,5-6,9H,4H2,2H3/t5-,6+,7+,8-/m0/s1
