17
gdb 72446	2.43524	2.26313	1.5715	2.112	65.53	-0.2555	0.0825	0.338	883.6899	0.136883	-458.940729	-458.933904	-458.93296	-458.971555	27.857	
C	-0.0152406722	 1.4748057259	 0.0807771345	-0.497153
C	-0.0126402396	-0.0280941317	-0.018436673	 0.308048
C	 0.7974165071	-0.6920761091	-1.1679729726	-0.110852
O	 1.082269219	-1.998742085	-0.6358349257	-0.276949
C	 0.5115113196	-1.9680088042	 0.6793459035	 0.131592
O	 0.6526175974	-0.6384885921	 1.1042587237	-0.253698
C	-1.0057684361	-2.1120619662	 0.4637635909	 0.007487
O	-1.7905008309	-1.2205619758	 1.2602611268	-0.240846
C	-1.3604414689	-0.7802139201	-0.0259874342	-0.006575
H	 1.0065716818	 1.8580934257	 0.1512175242	 0.134234
H	-0.4910547636	 1.9154909993	-0.8008564544	 0.123799
H	-0.569827046	 1.793056047	 0.9673465566	 0.146885
H	 0.2308793051	-0.77918918	-2.101753837	 0.105039
H	 1.7351070474	-0.1579424273	-1.3572645554	 0.110052
H	 1.0347838348	-2.6625807945	 1.3339049828	 0.098858
H	-1.4604210879	-3.0404811073	 0.1377558254	 0.112415
H	-2.124338917	-0.5772333246	-0.7699353759	 0.107665
207.7862	213.7283	273.6091	320.7551	352.2059	413.0274	505.4443	619.8722	650.5892	679.1413	809.3131	839.778	868.2591	885.8202	897.5638	909.5906	915.7988	964.2433	989.9506	995.9579	1015.2445	1083.7946	1107.2059	1158.3691	1171.9753	1228.9442	1235.8111	1251.1459	1282.7876	1310.1702	1329.8153	1363.7091	1413.6449	1425.6753	1482.57	1495.6531	1514.7436	3030.2987	3045.2196	3077.5592	3116.4776	3126.5991	3147.3536	3166.6539	3191.0228
CC12COC(O1)C1OC21	C[C@@]12CO[C@@H](O1)[C@H]1O[C@@H]21	
InChI=1S/C6H8O3/c1-6-2-7-5(9-6)3-4(6)8-3/h3-5H,2H2,1H3	InChI=1S/C6H8O3/c1-6-2-7-5(9-6)3-4(6)8-3/h3-5H,2H2,1H3/t3-,4+,5-,6-/m0/s1
