18
gdb 44205	3.64033	1.24489	1.17316	3.943	76.44	-0.243	-0.0087	0.2342	1111.8437	0.147871	-401.921011	-401.913336	-401.912392	-401.953398	29.805	
O	 0.0284752159	 0.0484224092	-0.1336976683	-0.293871
C	-0.0116884146	 1.2369848645	-0.0785899276	 0.400419
C	-1.1220084655	 2.3034195598	-0.0677147947	-0.38479
C	 0.025423182	 3.3056097735	 0.0334484196	-0.115023
N	 1.0777647435	 2.1780211426	 0.1224502999	-0.230955
C	 1.0139476268	 3.1207847819	-1.0331448559	 0.368873
C	 0.7964450697	 2.8089097538	-2.5208174454	-0.303346
C	 1.6906394174	 4.0429117806	-2.8454753395	-0.218357
C	 2.1713026011	 4.064083772	-1.3636021467	-0.308419
H	-1.7797077531	 2.3551905506	-0.9391449223	 0.132942
H	-1.7294844852	 2.2329751277	 0.8383279588	 0.143996
H	 0.0716268898	 4.1287476327	 0.7374280606	 0.111419
H	 1.2664591429	 1.8642744064	-2.8083838646	 0.130089
H	-0.2307630857	 2.817601677	-2.8927819016	 0.110092
H	 2.4590477364	 3.9009186399	-3.6066107146	 0.110852
H	 1.0996008223	 4.9244509323	-3.1032269421	 0.110693
H	 2.1900953437	 5.0264744041	-0.8468844091	 0.108702
H	 3.1356594226	 3.5691606613	-1.2256306563	 0.126684
84.5581	119.6094	188.4327	231.0224	367.4048	425.0265	480.0783	506.9001	592.2575	676.4081	704.4056	780.6371	795.5666	821.9936	881.6488	891.775	931.0611	948.805	965.5309	1013.121	1024.9513	1045.5351	1056.1361	1112.135	1149.8181	1167.3558	1208.3325	1216.3509	1227.2143	1250.2875	1262.5286	1279.893	1296.7595	1433.8256	1455.2088	1471.2344	1481.5106	1505.5458	1914.5017	3062.0753	3066.7644	3067.6899	3076.3779	3110.3606	3117.7936	3122.02	3136.0297	3183.3366
O=C1CC2N1C21CCC1	O=C1C[C@H]2N1C12CCC1	
InChI=1S/C7H9NO/c9-6-4-5-7(8(5)6)2-1-3-7/h5H,1-4H2	InChI=1S/C7H9NO/c9-6-4-5-7(8(5)6)2-1-3-7/h5H,1-4H2/t5-,8?/m1/s1
