14
gdb 30982	2.41028	1.50617	0.96094	4.0155	61.5	-0.2265	0.0261	0.2525	1158.0475	0.099848	-510.989181	-510.980655	-510.979711	-511.022946	30.022	
C	-0.0088584605	 1.4121096878	 0.095672877	-0.260668
O	 0.6658789168	 0.1697884462	-0.168824664	-0.257985
C	 0.9272291803	-0.5793103145	 0.8912760721	 0.393946
C	 0.720905969	-1.8737419977	 1.1408077597	 0.126083
N	 0.1049312272	-2.8739766221	 0.418300224	-0.589446
O	 1.3260988589	-2.1481883107	 2.3982455018	-0.239358
C	 1.8480813359	-0.9935803148	 2.873528494	 0.504144
O	 2.4076668403	-0.8381781982	 3.911242698	-0.374047
O	 1.6216272621	-0.0035490982	 1.9446908135	-0.252514
H	 0.591928954	 2.0484160138	 0.7506444588	 0.153897
H	-0.1378616292	 1.8911937759	-0.8744894566	 0.148733
H	-0.9866179315	 1.2247383916	 0.5525692763	 0.133521
H	-0.647375461	-3.3254106406	 0.9277429963	 0.256211
H	 0.7488122778	-3.5849102987	 0.0863089591	 0.257483
61.3998	135.468	155.3491	200.0638	206.62	285.0437	301.0427	392.4571	437.7136	614.0542	626.7508	660.8058	689.0561	756.3208	779.2253	832.8723	920.2832	998.1291	1033.6533	1170.7185	1181.8748	1212.5078	1224.6711	1261.7563	1380.3117	1487.4962	1489.8981	1501.7323	1659.7129	1841.505	1944.3511	3036.0003	3116.2889	3160.9673	3501.8636	3570.1783
COC1=C(N)OC(=O)O1	COc1c(N)oc(=O)o1	
InChI=1S/C4H5NO4/c1-7-3-2(5)8-4(6)9-3/h5H2,1H3	InChI=1S/C4H5NO4/c1-7-3-2(5)8-4(6)9-3/h5H2,1H3
