23
gdb 103927	3.06579	1.10591	1.02712	1.1401	85.61	-0.2448	0.0815	0.3263	1311.4008	0.204014	-388.26665	-388.256875	-388.255931	-388.300522	38.273	
C	-0.1514698201	 1.5274661561	-0.069179183	-0.387133
C	 0.1167600712	 0.0177356159	-0.0646100422	-0.230533
C	 0.749859971	-0.522163693	 1.2248796824	 0.359287
C	 2.1353307497	 0.0779667086	 1.4786026029	-0.450513
C	-0.1371461197	-0.4752930617	 2.5303070573	-0.359941
C	 0.0055759078	-1.9979686829	 2.6504180349	 0.413729
O	 0.2748224001	-2.6618413956	 3.8362906685	-0.467225
C	-0.5699695292	-2.6854375697	 1.4478254284	-0.364739
C	 0.8090029412	-2.0603035586	 1.3648484115	-0.148536
H	 0.7729659521	 2.109719802	-0.0093665741	 0.117374
H	-0.6675639204	 1.8266132325	-0.9869122343	 0.110728
H	-0.7834196662	 1.8218297566	 0.7760123798	 0.11599
H	-0.8278766681	-0.5067648364	-0.2488787557	 0.090647
H	 0.7718389993	-0.2392599783	-0.908313552	 0.09114
H	 2.0852692427	 1.1596366145	 1.6381713971	 0.113316
H	 2.5938748046	-0.3687132109	 2.3667869566	 0.120276
H	 2.8031745791	-0.107714063	 0.6286727264	 0.108083
H	 0.3562192035	 0.057716961	 3.3462548085	 0.104488
H	-1.1596389685	-0.0958215968	 2.4232186182	 0.084381
H	-0.5640027304	-2.9050258156	 4.2433241207	 0.282805
H	-0.5517622066	-3.7694367372	 1.507851532	 0.11079
H	-1.4212005566	-2.2783311531	 0.9068088773	 0.101415
H	 1.6794212935	-2.6636316744	 1.1313659888	 0.084171
93.4497	130.8259	164.2911	226.6586	244.4215	260.5346	298.8807	340.5696	354.5342	396.6736	417.9516	436.1848	504.2576	579.3777	679.3325	778.9044	784.9361	844.3884	886.7113	893.3185	933.0134	966.1593	976.5786	999.3974	1008.7407	1016.4398	1054.1238	1069.5161	1078.8554	1106.0738	1175.5301	1189.7366	1220.5533	1251.0688	1269.5781	1282.4052	1306.9751	1338.7463	1368.0687	1401.8282	1408.3722	1413.9031	1475.9118	1479.3987	1491.6771	1499.144	1502.2265	1507.8417	1510.6233	3014.6387	3023.9497	3034.2061	3036.4993	3054.2382	3089.233	3099.4188	3099.5645	3103.6519	3107.7221	3109.3754	3172.0306	3197.1735	3791.3366
CCC1(C)CC2(O)CC12	CC[C@@]1(C)C[C@@]2(O)C[C@@H]12	
InChI=1S/C8H14O/c1-3-7(2)5-8(9)4-6(7)8/h6,9H,3-5H2,1-2H3	InChI=1S/C8H14O/c1-3-7(2)5-8(9)4-6(7)8/h6,9H,3-5H2,1-2H3/t6-,7-,8-/m0/s1
