18
gdb 85474	3.17807	1.21279	0.97224	2.8056	79.35	-0.2593	0.0223	0.2815	1217.5277	0.147137	-401.944203	-401.935462	-401.934518	-401.977628	33.098	
C	 0.4507693784	 1.3894225765	-0.4564771416	-0.399483
C	-0.0412303932	 0.0812633739	 0.1468817256	 0.105669
O	-0.1114283798	-0.9402449442	-0.8689906536	-0.243648
C	 0.9545987407	-1.7952984346	-0.7966703094	 0.403585
N	 1.1609104207	-2.7552086241	-1.5886890758	-0.543343
C	 1.8278810503	-1.4136728548	 0.376855985	-0.308536
C	 0.8813602676	-0.5475456972	 1.2351024722	-0.215666
C	 1.5335311526	 0.3982199521	 2.1238648348	 0.316755
C	 2.078686814	 1.1737232623	 2.8629688259	-0.44136
H	 1.4762369296	 1.2992090206	-0.8274113693	 0.126939
H	-0.1932161419	 1.6720459372	-1.2931963331	 0.130558
H	 0.4272809901	 2.1851889861	 0.2920979257	 0.135405
H	-1.0580913978	 0.2065440075	 0.5289482432	 0.100925
H	 0.4327229528	-2.7909412607	-2.3045116677	 0.221926
H	 2.21135901	-2.2935300671	 0.8923249532	 0.146161
H	 2.6855828473	-0.8296374521	 0.0289114328	 0.142179
H	 0.2570043601	-1.2210681449	 1.8350006891	 0.121174
H	 2.5599793982	 1.8576293036	 3.5176483531	 0.200759
93.1141	103.2833	140.1354	212.9999	229.9365	328.6345	402.271	428.9308	479.1629	520.0357	548.922	628.5087	643.0024	646.6998	686.574	790.225	844.3704	896.236	928.2945	972.9116	982.2031	1060.7808	1068.5839	1081.8904	1121.4758	1138.7233	1176.1455	1258.1446	1284.6779	1297.9213	1354.9855	1365.2763	1391.0389	1413.8498	1475.4535	1486.8471	1493.1787	1780.3032	2239.1806	3028.5399	3048.5292	3069.8744	3071.6774	3123.1228	3133.0274	3143.1318	3469.9682	3502.948
CC1OC(=N)CC1C#C	C[C@H]1O[C]([NH])C[C@H]1C#C	
InChI=1S/C7H9NO/c1-3-6-4-7(8)9-5(6)2/h1,5-6,8H,4H2,2H3	InChI=1S/C7H9NO/c1-3-6-4-7(8)9-5(6)2/h1,5-6,8H,4H2,2H3/t5-,6-/m1/s1
