16
gdb 88497	2.62364	1.28909	1.14312	2.2783	69.74	-0.2868	-0.0055	0.2813	1129.5245	0.122212	-437.848532	-437.839856	-437.838911	-437.882301	31.298	
C	 0.7888054524	 1.2503949403	-0.6777422161	-0.443196
C	 0.1014893611	 0.0727982537	-0.0398588346	 0.0892
O	 0.9046002812	-1.0670057577	 0.3271864626	-0.254955
C	 0.2535873357	-0.3541649366	 1.3627061243	-0.056063
C	 1.1466247222	 0.3107079542	 2.3832201949	 0.254861
C	 2.4399066347	-0.3090366148	 2.7517081834	-0.206819
O	 2.3825411323	 0.8709198149	 1.9543033989	-0.245347
C	 0.4283454943	 1.0848980055	 3.3824794728	 0.245008
N	-0.1765163448	 1.6853831958	 4.1627188122	-0.319649
H	 1.7406167985	 1.466163803	-0.1950166277	 0.163734
H	 0.9670380957	 1.0426850446	-1.7378026481	 0.132201
H	 0.1456752746	 2.1347581546	-0.6157500703	 0.13129
H	-0.8401017465	-0.2164824925	-0.5106884602	 0.102471
H	-0.5821481897	-0.875244062	 1.8353795692	 0.111965
H	 2.8312051104	-0.1764508763	 3.757389448	 0.142801
H	 2.7287646778	-1.2115325066	 2.2188798809	 0.152497
52.0749	136.9199	169.5065	200.3714	230.4973	244.8234	310.6914	390.637	481.0448	501.2141	569.0632	598.9788	722.2668	791.1179	834.4919	884.2284	928.8163	967.7369	1003.704	1050.5416	1097.2919	1131.1239	1158.7446	1171.3695	1182.276	1208.7749	1292.9376	1364.1752	1394.0282	1419.5448	1465.6077	1497.7056	1505.4638	1508.9367	2360.4457	3045.6504	3083.1803	3096.5826	3103.4907	3105.6464	3173.1345	3209.9956
CC1OC1C1(CO1)C#N	C[C@H]1O[C@H]1[C@]1(CO1)C#N	
InChI=1S/C6H7NO2/c1-4-5(9-4)6(2-7)3-8-6/h4-5H,3H2,1H3	InChI=1S/C6H7NO2/c1-4-5(9-4)6(2-7)3-8-6/h4-5H,3H2,1H3/t4-,5-,6-/m1/s1
