16
gdb 32382	6.2927	0.8894	0.78645	2.8892	86.52	-0.1835	-0.0101	0.1733	1412.6257	0.124731	-396.93106	-396.922351	-396.921407	-396.964404	32.288	
C	 0.0394950624	 1.3797238116	 0.1942256369	-0.326989
N	-0.0151870375	-0.0138309298	-0.1980467928	-0.387108
C	-1.2206120513	-0.6839692705	-0.0875742366	 0.324468
C	-2.5025706319	-0.1664655324	-0.0233251582	-0.188531
N	-3.3251382967	-1.2728955686	 0.0205837614	-0.293918
C	-2.533085371	-2.3829972744	-0.0050828775	 0.198397
N	-1.2490984586	-2.0496590828	-0.0695506207	-0.373058
C	-3.0691726381	-3.68882472	 0.0362790201	 0.261457
C	-3.5564141018	-4.7895416992	 0.0733222567	-0.409067
H	 1.0685121191	 1.7364305529	 0.1117558231	 0.126322
H	-0.5725778762	 1.984104054	-0.4855751221	 0.127632
H	-0.3163478051	 1.5643257071	 1.2213712325	 0.108378
H	 0.7552467097	-0.5814015726	 0.1240025561	 0.242965
H	-2.8905676406	 0.8365005989	-0.0130751437	 0.125269
H	-4.3295164522	-1.2722246207	 0.0731270739	 0.269539
H	-3.9708046401	-5.7666426936	 0.103610111	 0.194244
76.2792	128.2406	156.5111	183.3391	222.0423	335.3391	411.7067	437.074	517.2958	526.1408	550.6135	558.5122	636.4348	652.8144	683.4483	707.7187	735.3109	744.0328	995.1224	1017.1852	1096.2054	1116.2763	1158.1131	1173.4747	1261.8816	1298.0738	1373.6309	1439.9358	1459.3967	1475.3381	1485.6553	1519.1965	1555.2204	1622.3047	2232.1923	2967.1927	3052.6181	3119.7411	3289.0082	3502.7395	3603.6544	3673.5542
CNC1=CNC(=N1)C#C	CNc1c[nH]c(n1)C#C	
InChI=1S/C6H7N3/c1-3-5-8-4-6(7-2)9-5/h1,4,7H,2H3,(H,8,9)	InChI=1S/C6H7N3/c1-3-5-8-4-6(7-2)9-5/h1,4,7H,2H3,(H,8,9)
