21
gdb 114829	3.07669	1.34121	1.23521	1.7022	76.44	-0.2506	0.0827	0.3333	1131.0204	0.184952	-424.241822	-424.233854	-424.23291	-424.274581	31.216	
C	-0.1269448516	 1.6229427045	 0.0485947136	-0.389414
C	-0.0971253256	 0.0908022116	 0.0364619909	-0.189856
C	 0.734270034	-0.5128553066	 1.1704036402	 0.015622
C	 0.7920152535	-2.0763370333	 1.1945157208	-0.265452
C	 2.3174754741	-2.3153074162	 1.1882018595	 0.044004
C	 2.87770444	-1.9475191755	-0.1979717701	-0.082825
O	 2.7503885094	-0.5143005471	-0.1886331839	-0.275546
C	 2.2517668267	-0.2121097391	 1.1160022327	 0.175643
O	 2.8104437917	-1.2019281292	 1.9558610862	-0.25017
H	 0.8725470422	 2.042220891	-0.1052080282	 0.125168
H	-0.7713872223	 2.0101421782	-0.7465082632	 0.113168
H	-0.50790433	 2.0067721131	 1.0018390172	 0.11186
H	-1.1219801792	-0.2939749659	 0.1099321459	 0.092826
H	 0.3033710262	-0.2592998348	-0.9214351508	 0.107682
H	 0.3569109122	-0.1426172336	 2.1307157191	 0.075809
H	 0.3365434578	-2.4862945721	 2.0983560425	 0.106601
H	 0.2984063425	-2.5272186877	 0.3287491319	 0.10039
H	 2.6715346495	-3.2544104719	 1.6105134372	 0.086876
H	 3.9330887192	-2.2223635289	-0.3078659528	 0.106276
H	 2.3016749142	-2.375815332	-1.0253086248	 0.10094
H	 2.5828452154	 0.7830189856	 1.4108719261	 0.090399
68.5482	125.3901	194.5411	236.3431	293.3757	375.6999	395.3331	518.034	575.6358	625.1114	750.1508	797.4152	820.9018	834.0411	868.8283	890.782	934.2634	955.2236	972.6716	983.5922	1018.5756	1024.1203	1053.5539	1057.4346	1110.1346	1116.8991	1133.9348	1193.9274	1204.9883	1254.1512	1264.3995	1286.4216	1304.2901	1307.3531	1334.7186	1346.2279	1360.125	1376.405	1392.2543	1409.987	1481.1497	1491.5707	1499.2581	1505.9614	1523.4745	3026.5491	3028.3797	3031.2578	3034.77	3061.2246	3068.5369	3075.353	3099.9847	3106.2158	3111.0568	3134.2373	3139.7348
CCC1CC2COC1O2	CC[C@H]1C[C@H]2CO[C@@H]1O2	
InChI=1S/C7H12O2/c1-2-5-3-6-4-8-7(5)9-6/h5-7H,2-4H2,1H3	InChI=1S/C7H12O2/c1-2-5-3-6-4-8-7(5)9-6/h5-7H,2-4H2,1H3/t5-,6-,7+/m0/s1
