19
gdb 16500	3.58718	2.3153	1.95402	1.44	74.27	-0.2257	0.0988	0.3245	787.1226	0.168083	-327.875645	-327.869207	-327.868263	-327.90564	27.25	
C	 0.0732965402	 1.436654257	-0.0251392772	-0.467731
C	-0.0805535037	-0.0639303777	-0.0262259132	 0.344944
C	-0.6401348663	-0.7824453769	 1.1503037947	-0.30394
N	 0.8018736864	-0.8946444426	 0.8490663969	-0.145799
C	 1.1740274337	-1.9666849188	-0.1341457944	 0.018516
C	-0.0818513466	-2.3091838391	-0.984076035	-0.248989
C	 0.0466619391	-0.813091954	-1.368962708	-0.091149
C	 1.598334647	-1.0761004664	-1.3401601075	-0.21007
H	 0.8947026296	 1.75357101	-0.6770235941	 0.116897
H	-0.8430812655	 1.9217651272	-0.3810436865	 0.114514
H	 0.2838296136	 1.8030491429	 0.9832011693	 0.126046
H	-0.8362470069	-0.1994074009	 2.0467686435	 0.10985
H	-1.2946074477	-1.6389708852	 1.0417579859	 0.11221
H	 1.8174352444	-2.7292765257	 0.30359835	 0.07101
H	 0.1785216683	-2.9612275984	-1.819533706	 0.099842
H	-0.9933769798	-2.6819631989	-0.517099655	 0.09436
H	-0.4608813812	-0.385591613	-2.2338663511	 0.062644
H	 2.257914102	-0.2350740701	-1.1159949382	 0.102784
H	 1.9600254436	-1.6392679695	-2.2029113141	 0.094058
193.0612	230.8846	296.9711	416.321	475.321	527.4993	563.4593	597.1337	704.9538	764.1168	784.8899	839.1466	845.7465	882.8441	915.1134	929.4948	955.7894	1006.0213	1018.7638	1038.1939	1052.1383	1077.2855	1096.9171	1113.2173	1119.9766	1126.3723	1152.9055	1214.2599	1224.0102	1246.0501	1252.9001	1286.2491	1316.2845	1362.5407	1416.1488	1479.3751	1488.3195	1495.9352	1504.4983	1550.9364	3028.3346	3068.4129	3085.2715	3088.6762	3113.3339	3115.6707	3119.7077	3123.7128	3133.0337	3135.8055	3206.064
CC12CN1C1CC2C1	C[C@]12CN1[C@H]1C[C@@H]2C1	
InChI=1S/C7H11N/c1-7-4-8(7)6-2-5(7)3-6/h5-6H,2-4H2,1H3	InChI=1S/C7H11N/c1-7-4-8(7)6-2-5(7)3-6/h5-6H,2-4H2,1H3/t5-,6+,7-,8?/m1/s1
