26
gdb 5811	2.30715	1.64874	1.64873	0.0002	87.19	-0.2935	0.0697	0.3632	1076.0225	0.243736	-315.485896	-315.475287	-315.474343	-315.519483	42.103	
C	 0.0684888528	 1.5424849533	 0.1515788834	-0.419124
C	-0.0110077515	 0.0049766826	 0.025519618	 0.278523
C	 0.6152721431	-0.5995633331	 1.301625803	-0.419141
C	-1.5058222123	-0.3842779181	 0.0113703782	-0.419124
C	 0.7313412639	-0.5065575021	-1.2804494294	 0.278606
C	 2.1378450232	 0.1190393522	-1.4091773948	-0.419156
C	 0.904423977	-2.0414380048	-1.263826703	-0.419136
C	-0.0593072972	-0.1409311201	-2.5560812385	-0.419133
H	 1.0886407463	 1.8867275803	 0.3422640532	 0.1114
H	-0.2978484982	 2.0531916404	-0.7441395074	 0.10934
H	-0.5497751063	 1.8780138112	 0.9912937407	 0.105539
H	 0.1650133325	-0.1407375885	 2.1885858309	 0.105542
H	 0.4445908161	-1.6772767499	 1.3722124853	 0.111396
H	 1.693844288	-0.4244671585	 1.3591897432	 0.109342
H	-2.0609898003	 0.1460733299	-0.7671412526	 0.1114
H	-1.6550546189	-1.4576758636	-0.1398213722	 0.109344
H	-1.9653393469	-0.125548875	 0.9714932272	 0.105538
H	 2.746910973	-0.0384991359	-0.5139622658	 0.109349
H	 2.6717804828	-0.3390276606	-2.2488368855	 0.105543
H	 2.0931313861	 1.1945174441	-1.6013547489	 0.11139
H	-0.0437797178	-2.5655225272	-1.1105511132	 0.10934
H	 1.3096556385	-2.3792096357	-2.2238514298	 0.105531
H	 1.5995424175	-2.367931437	-0.4854999372	 0.111405
H	-0.2834536135	 0.9284415877	-2.6145358623	 0.109355
H	 0.529523392	-0.3974451422	-3.4434449189	 0.10553
H	-1.0038457596	-0.6874621794	-2.6245087236	 0.1114
92.4025	202.0838	239.6125	240.2156	260.9237	276.4716	276.8705	303.4306	304.0279	367.6842	368.2888	377.3846	386.7826	386.8801	469.0709	469.3502	479.4348	639.4158	799.8575	877.8475	928.8168	929.0896	936.7825	937.1241	953.9036	964.395	1015.8452	1016.088	1065.3096	1065.5537	1205.0732	1205.2312	1207.3308	1265.7157	1265.9378	1274.3291	1394.6921	1394.8295	1405.2798	1405.4671	1421.264	1443.2062	1474.8601	1484.203	1484.4619	1490.3317	1490.5613	1492.9472	1505.3445	1505.4389	1518.7707	1519.0856	1519.232	1526.0666	3031.084	3031.1736	3034.0079	3034.1312	3036.306	3045.1028	3090.3492	3090.4634	3093.8462	3094.0145	3099.2403	3102.3738	3104.0728	3112.8723	3113.1199	3114.0519	3115.4141	3115.6616
CC(C)(C)C(C)(C)C	CC(C)(C)C(C)(C)C	
InChI=1S/C8H18/c1-7(2,3)8(4,5)6/h1-6H3	InChI=1S/C8H18/c1-7(2,3)8(4,5)6/h1-6H3
