17
gdb 85470	2.42896	1.45874	1.08547	3.8872	74.3	-0.2495	0.0256	0.2751	1135.4179	0.136567	-418.025566	-418.016975	-418.016031	-418.058702	32.581	
C	-0.3933179878	 1.5434064077	-0.0641312067	-0.40825
C	 0.0635027886	 0.0926077189	-0.0741302033	 0.04531
N	 1.1534772724	-0.1685793563	-1.0043831678	-0.343556
C	 1.9494938593	-1.2196425139	-0.5746018306	 0.435308
O	 2.8103744645	-1.7899133421	-1.2021843698	-0.404085
N	 1.5536285475	-1.5027277044	 0.7360575893	-0.332839
C	 0.6969528436	-0.4357851811	 1.2564909749	-0.186422
C	 1.4388579359	 0.5711415699	 2.0205934752	 0.367521
C	 2.0584067383	 1.3630335855	 2.6793998156	-0.481704
H	 0.4412151202	 2.2119810876	 0.1566355938	 0.143973
H	-0.8125594313	 1.8146068713	-1.0382610562	 0.117896
H	-1.1740172659	 1.6952832811	 0.687839863	 0.12432
H	-0.7984153575	-0.5584566368	-0.288660247	 0.089828
H	 1.0178111683	-0.0744951838	-1.9986750503	 0.252259
H	 2.2658846204	-1.8938004745	 1.334727044	 0.25622
H	-0.091368668	-0.8503256039	 1.8938528102	 0.116882
H	 2.6102439815	 2.0658117147	 3.2540748057	 0.20734
87.6462	140.8373	151.063	223.3975	264.2498	290.8674	400.9606	469.9071	487.3899	524.9062	555.5115	606.8255	639.7361	664.3033	697.2685	732.5716	772.8022	854.6352	932.4781	976.9561	986.0444	1068.4875	1087.9762	1141.4056	1173.7904	1235.619	1272.2048	1350.998	1367.0602	1393.3187	1406.7002	1418.3011	1419.4559	1490.105	1496.2177	1856.7088	2231.5745	2973.8712	3043.0675	3047.3794	3107.7423	3138.1247	3500.0408	3624.9219	3640.7589
CC1NC(=O)NC1C#C	C[C@H]1NC(=O)N[C@H]1C#C	
InChI=1S/C6H8N2O/c1-3-5-4(2)7-6(9)8-5/h1,4-5H,2H3,(H2,7,8,9)	InChI=1S/C6H8N2O/c1-3-5-4(2)7-6(9)8-5/h1,4-5H,2H3,(H2,7,8,9)/t4-,5+/m1/s1
