16
gdb 39778	3.07449	1.88982	1.52696	1.3955	66.85	-0.2454	0.0548	0.3002	879.9381	0.125322	-437.774824	-437.76842	-437.767476	-437.805335	26.567	
C	-0.0026210626	 1.4981596334	-0.0303240225	-0.345257
N	 1.2975445475	 0.7920249699	 0.0733710525	-0.369634
C	 0.0860394697	 0.0301578813	 0.0145049661	 0.459422
C	-0.5174634959	-0.9759299688	 0.999248776	-0.074241
O	-1.6202722734	-1.1268201438	 0.0302097588	-0.295151
C	-0.556244017	-0.9623724383	-0.9728826796	-0.091383
C	 0.2498701884	-2.2668119098	-0.7476977429	 0.031079
O	 1.4882330663	-2.0789589474	-0.0491775587	-0.24181
C	 0.2875497866	-2.2715275533	 0.7157204946	 0.046089
H	-0.2818086477	 2.0680143778	 0.8515378444	 0.124918
H	-0.2825794877	 1.9589848145	-0.9750049483	 0.115621
H	 1.8038843987	 0.7717606798	-0.8072632396	 0.238402
H	-0.8385515971	-0.7459650196	 2.0131566106	 0.088683
H	-0.914668478	-0.708688979	-1.9698950182	 0.084231
H	 0.164772391	-3.139070238	-1.3854798002	 0.113805
H	 0.2439937213	-3.1508592087	 1.3476133569	 0.115226
180.8467	241.8028	283.7364	381.8533	450.5964	512.5718	606.0048	679.8346	728.8069	788.4444	836.0206	852.2831	853.0912	874.9637	899.3709	917.3856	923.2173	957.1086	979.2683	992.8701	1050.2307	1074.5182	1074.6917	1131.7578	1167.7401	1205.1611	1224.3236	1233.739	1238.9005	1247.047	1285.8619	1293.081	1389.7499	1456.6999	1531.8069	3103.3254	3131.7782	3149.0022	3181.007	3188.0686	3193.5298	3517.7791
C1NC11C2OC1C1OC21	C1N[C@]21[C@H]1O[C@@H]2[C@H]2O[C@@H]12	
InChI=1S/C6H7NO2/c1-6(7-1)4-2-3(8-2)5(6)9-4/h2-5,7H,1H2	InChI=1S/C6H7NO2/c1-6(7-1)4-2-3(8-2)5(6)9-4/h2-5,7H,1H2/t2-,3+,4+,5-,6-
