19
gdb 72184	3.07964	2.04115	1.6263	0.3743	77.53	-0.206	0.0675	0.2735	891.3158	0.161816	-381.999132	-381.992471	-381.991527	-382.029619	28.288	
C	 0.03215067	 1.5602468906	 0.0054715134	-0.480491
C	-0.0111842216	 0.0606656722	 0.1164467813	 0.361857
C	-1.2862303994	-0.7193930651	 0.4003199399	-0.220852
N	-0.4729370907	-1.7887606084	 1.0850525332	-0.133293
C	-0.0910741265	-2.7679902492	 0.053624614	-0.198722
C	 0.956180338	-2.0561547682	-0.7826047982	-0.037102
C	 1.7403163148	-1.1798201412	 0.0990819323	-0.050701
C	 0.7125286257	-0.8063889268	 1.1700966685	-0.087143
N	 0.864937217	-0.5751618004	-0.9802768093	-0.202158
H	 1.0649196301	 1.9210164434	-0.0236090805	 0.124427
H	-0.4587516649	 1.8860428298	-0.9182204216	 0.12738
H	-0.4782390052	 2.0281197575	 0.8537150663	 0.113924
H	-1.9433349241	-0.2171430714	 1.1192119453	 0.101881
H	-1.8820785064	-1.0648470413	-0.4514782456	 0.100991
H	 0.3542239599	-3.6639418166	 0.506116782	 0.104583
H	-0.9803845284	-3.0829844383	-0.5006404107	 0.109516
H	 1.4251223845	-2.5516939958	-1.627480204	 0.097528
H	 2.8178227106	-1.0644959582	 0.1235827921	 0.093873
H	 0.9907750964	-0.5095303125	 2.1797654017	 0.074502
216.5937	222.7139	269.5081	338.7249	461.408	482.7629	550.0408	667.1555	679.8564	735.4354	764.2242	785.0821	828.4194	859.5057	884.8409	914.0346	934.5082	936.4398	973.7532	991.0645	1018.2272	1038.211	1048.1222	1096.3683	1140.355	1165.1782	1183.3776	1214.0004	1223.7728	1233.9559	1257.2175	1265.8653	1290.3427	1322.4125	1354.3287	1389.4863	1413.0843	1482.1838	1488.2782	1492.4685	1510.6069	3016.684	3026.0512	3032.2568	3075.1047	3083.3038	3100.6089	3108.7345	3125.4387	3158.926	3177.9905
CC12CN3CC4C(C13)N24	C[C@]12CN3C[C@@H]4[C@H]([C@@H]13)N24	
InChI=1S/C7H10N2/c1-7-3-8-2-4-5(6(7)8)9(4)7/h4-6H,2-3H2,1H3	InChI=1S/C7H10N2/c1-7-3-8-2-4-5(6(7)8)9(4)7/h4-6H,2-3H2,1H3/t4-,5-,6+,7+,9?/m1/s1
