23
gdb 75204	3.40769	1.31143	1.13122	0.1523	91.4	-0.22	0.0323	0.2523	1204.1309	0.2069	-351.171764	-351.163251	-351.162307	-351.204031	34.86	
C	 0.009099518	 1.5134099192	 0.0400254618	-0.501583
C	-0.0019617011	 0.014985813	-0.0150798672	 0.354208
C	-0.0272140651	-0.7040629312	-1.1404487488	-0.176706
C	-0.036137061	-2.2132573272	-1.0700687842	-0.279432
C	-0.0129435443	-2.7050667677	 0.3921950023	 0.326828
C	-0.0213253074	-4.219988436	 0.4924922881	-0.477963
C	-1.0610008904	-1.8897035922	 1.2135695804	-0.246882
C	 0.0163752465	-0.7671687729	 1.2880796394	-0.11479
C	 1.0751003093	-1.904121424	 1.1748428877	-0.246879
H	 0.899426456	 1.8847192472	 0.5646630135	 0.121946
H	-0.0056121423	 1.9548751438	-0.9604400251	 0.117915
H	-0.8570872733	 1.8965370674	 0.5956730585	 0.121956
H	-0.0417196468	-0.2296300614	-2.1185628749	 0.074536
H	-0.924436845	-2.6150425685	-1.5806658391	 0.097388
H	 0.8275486759	-2.6268865057	-1.6124472981	 0.097386
H	 0.8510146092	-4.655562077	-0.0099124685	 0.110813
H	-0.0047319547	-4.5479890394	 1.5373902935	 0.106682
H	-0.9169341114	-4.6436946	 0.0218870091	 0.11081
H	-2.0160624776	-1.6455014793	 0.7402305816	 0.089009
H	-1.2375910367	-2.3510842558	 2.1902561697	 0.086955
H	 0.0366898457	-0.1209239219	 2.1680227855	 0.051839
H	 1.2807303449	-2.3680802376	 2.1446012913	 0.086955
H	 2.0155855415	-1.6727138329	 0.6671377534	 0.08901
129.9299	201.664	221.5634	254.7133	288.9912	334.6977	345.2731	380.7005	416.0461	445.3317	583.4285	629.9272	655.9575	756.463	813.1897	839.7559	859.2972	882.0567	903.8075	940.873	958.3546	1002.1407	1007.824	1015.6608	1049.8077	1065.6582	1090.8013	1115.8893	1129.2084	1158.5121	1185.5415	1217.4662	1240.7878	1259.3191	1268.4326	1280.9638	1318.4275	1360.7112	1374.1585	1410.7534	1413.0999	1472.1518	1473.6425	1477.9151	1489.482	1493.4627	1493.5529	1504.1698	1730.3961	2986.6856	3009.1178	3009.9437	3016.4732	3039.0728	3045.8362	3054.1125	3078.9239	3082.8314	3089.5226	3099.835	3102.9752	3106.8556	3154.5297
CC1=CCC2(C)CC1C2	CC1=CC[C@]2(C)C[C@H]1C2	
InChI=1S/C9H14/c1-7-3-4-9(2)5-8(7)6-9/h3,8H,4-6H2,1-2H3	InChI=1S/C9H14/c1-7-3-4-9(2)5-8(7)6-9/h3,8H,4-6H2,1-2H3/t8-,9+
