13
gdb 49963	2.46261	1.27112	0.99339	3.4515	68.09	-0.2672	-0.0802	0.187	1164.2487	0.083948	-456.506735	-456.497786	-456.496842	-456.541166	30.868	
O	-0.371959752	 0.5577122137	 0.5760706794	-0.23567
C	 0.293698278	 0.8440352084	-0.3860972003	 0.126306
C	 1.4504617503	 1.799653407	-0.2777945708	-0.096946
O	 2.4245231007	 1.7573697245	-1.3037290156	-0.243399
C	 1.6471541839	 2.9502506354	-1.2363403057	 0.109201
C	 0.6620328385	 3.1621060654	-2.3770712362	 0.095645
O	 0.2204590628	 2.2706029377	-3.0480182178	-0.237671
C	 2.3037531354	 4.1432814807	-0.7699417577	 0.25115
C	 2.8137159833	 5.1729665476	-0.4184411376	-0.365719
H	 0.1242101238	 0.4278113377	-1.3946933089	 0.133936
H	 1.8202589348	 1.956826258	 0.7349575504	 0.136028
H	 0.3879717572	 4.2244507761	-2.535853292	 0.111573
H	 3.2768532833	 6.0741420878	-0.0972825371	 0.215567
61.8901	101.2832	112.166	147.0498	228.8162	248.3835	313.0949	381.5267	461.5557	518.3768	554.2	564.4404	640.8163	688.5251	756.7237	825.7103	942.5098	989.1839	1038.0641	1076.4969	1098.7727	1184.6958	1274.8547	1343.4167	1412.4448	1431.3174	1816.8311	1835.3533	2239.5071	2937.3593	2992.6254	3134.2963	3496.499
O=CC1OC1(C=O)C#C	O=C[C@H]1O[C@]1(C=O)C#C	
InChI=1S/C6H4O3/c1-2-6(4-8)5(3-7)9-6/h1,3-5H	InChI=1S/C6H4O3/c1-2-6(4-8)5(3-7)9-6/h1,3-5H/t5-,6+/m1/s1
