17
gdb 38921	3.17372	1.76691	1.2643	1.4722	74.9	-0.2302	-0.0035	0.2267	974.9942	0.137037	-421.786797	-421.779927	-421.778983	-421.817875	27.8	
C	-0.0254575272	 1.5344998121	-0.0500849208	-0.277534
C	 1.5094781041	 1.5544560228	 0.0394015317	-0.071589
O	 2.0327951953	 0.757870884	-1.0400029194	-0.308498
C	 1.5678068128	 0.0777820832	 0.1254733447	 0.451033
C	 2.3093746612	-0.9265468129	 0.8780142234	-0.201452
C	 1.5882341007	-1.8068594913	 1.577854851	-0.09012
C	 0.0782429514	-1.7496983303	 1.6390495004	-0.131881
O	-0.4865906707	-0.5046445952	 1.2489206712	-0.264476
C	 0.0407015865	-0.0223226697	 0.0304464506	 0.038224
H	-0.5120320003	 1.9387183427	 0.8398683034	 0.124028
H	-0.4568680235	 1.9706705414	-0.9534622181	 0.111606
H	 2.1679802935	 2.3112021095	 0.4495737026	 0.107631
H	 3.3937075052	-0.9408530412	 0.8473152816	 0.106894
H	 2.062462302	-2.6061547077	 2.1401051011	 0.104397
H	-0.3436555674	-2.5720461068	 1.0331567074	 0.107191
H	-0.2583426373	-1.9151841861	 2.6685276742	 0.122672
H	-0.3441980864	-0.5830245646	-0.8323769548	 0.071872
137.5675	195.3232	266.2195	387.2672	422.7177	466.4595	475.7566	514.1146	645.3315	707.8451	745.7838	824.9762	851.8617	882.9489	906.7988	936.2664	953.9066	981.4646	1000.7095	1020.1999	1034.2789	1064.6498	1114.6013	1160.0569	1177.9742	1217.2713	1228.073	1263.8751	1268.844	1295.5405	1344.2079	1363.2304	1397.7183	1454.4635	1484.8361	1485.9684	1693.6429	2944.2035	3011.3922	3061.0309	3074.3076	3138.4317	3168.7023	3188.4157	3192.8811
C1C2OC22C=CCOC12	C1[C@@H]2O[C@]32C=CCO[C@@H]13	
InChI=1S/C7H8O2/c1-2-7-5(8-3-1)4-6(7)9-7/h1-2,5-6H,3-4H2	InChI=1S/C7H8O2/c1-2-7-5(8-3-1)4-6(7)9-7/h1-2,5-6H,3-4H2/t5-,6-,7+/m0/s1
