15
gdb 34990	2.79866	1.78435	1.53392	4.6881	68.47	-0.2508	0.0047	0.2555	892.8863	0.114065	-416.765742	-416.758917	-416.757972	-416.796993	26.499	
N	-0.3229470598	-1.2089746477	-0.1501063969	-0.350452
C	-0.1413642446	-0.0817307031	 0.0342646337	 0.320193
C	-0.0173359623	 1.3543854763	 0.0908968259	-0.158726
C	 0.5493210822	 2.1419486919	 1.2337125092	-0.067012
C	 1.377260746	 1.4646973282	 2.2955638792	 0.017399
O	 1.5824794134	 0.0671785796	 2.092869945	-0.226693
C	 2.6033667285	 0.9650650093	 1.6481559907	 0.041037
C	 2.5207801624	 1.303231623	 0.1664474346	-0.211535
N	 1.2671977004	 2.0712376436	-0.0535841492	-0.120012
H	-0.8110920345	 1.8349144898	-0.4789544593	 0.143419
H	 0.083703932	 3.0899747569	 1.4897745792	 0.108998
H	 1.3178830906	 1.7991961333	 3.3266351641	 0.115277
H	 3.5635588765	 0.8745815752	 2.1502938823	 0.112665
H	 3.3541587934	 1.9520596149	-0.1208310458	 0.127122
H	 2.548167636	 0.4091073888	-0.4639166026	 0.148322
116.2317	161.5719	251.9014	329.3916	388.4211	459.1501	597.8201	621.8008	700.2198	714.9797	772.7298	780.8106	858.5099	879.0176	888.9282	936.2895	970.4261	1018.5864	1052.4519	1064.3851	1092.5678	1120.6385	1122.3853	1229.3728	1252.4008	1280.3399	1319.911	1328.5474	1367.9362	1381.9841	1431.891	1484.0701	2352.1222	3055.0725	3100.8235	3120.1999	3146.1225	3147.5093	3171.3707
N#CC1C2C3OC3CN12	N#C[C@H]1[C@H]2[C@H]3O[C@H]3CN12	
InChI=1S/C6H6N2O/c7-1-3-5-6-4(9-6)2-8(3)5/h3-6H,2H2	InChI=1S/C6H6N2O/c7-1-3-5-6-4(9-6)2-8(3)5/h3-6H,2H2/t3-,4-,5-,6-,8?/m0/s1
