18
gdb 100426	3.12385	0.94011	0.79923	2.6723	71.93	-0.2317	0.0104	0.2421	1432.0227	0.147509	-472.442495	-472.432719	-472.431775	-472.47776	35.601	
N	 0.7989901792	 0.534799335	-0.5141242846	-0.499515
C	 0.011614376	-0.047138048	 0.4246779786	 0.413412
O	 0.2730250898	 0.0089708316	 1.6201567443	-0.373662
C	-1.2213416182	-0.7878373003	-0.1034459241	-0.275876
N	-1.0280108556	-2.2305690332	-0.1448895511	-0.320613
C	-1.0222323251	-2.8996743235	 0.9511926924	 0.34558
N	-1.1223663598	-2.4068372452	 2.2188981056	-0.5441
C	-0.9418790164	-4.413258664	 0.8066562293	-0.107781
O	-0.9986783123	-4.8082414565	-0.5308058095	-0.423064
H	 1.6746001761	 0.9377531638	-0.2197905562	 0.264934
H	 0.6490121294	 0.378285464	-1.4953409331	 0.27031
H	-2.0548503605	-0.5104375569	 0.5584905206	 0.125886
H	-1.4673573424	-0.4454805207	-1.1138489606	 0.101696
H	-0.7598706636	-1.4682570767	 2.3716282135	 0.282818
H	-0.9925041631	-3.0565731819	 2.9785141868	 0.251454
H	-0.0058921048	-4.7542194175	 1.2821888285	 0.100356
H	-1.7680596925	-4.8594224635	 1.3852180995	 0.103331
H	-1.0194908262	-3.9636798165	-1.0188516999	 0.284836
48.8485	74.0524	125.8796	170.9143	206.5254	260.3112	312.7115	341.6668	421.7925	466.544	479.6132	491.6293	543.7578	586.0027	607.1268	656.4613	703.2206	771.5459	847.7154	889.0638	1002.8738	1029.1507	1040.641	1117.9119	1137.008	1174.8488	1251.3066	1258.599	1315.2917	1335.0285	1385.0738	1402.2507	1488.4853	1496.0088	1515.9982	1621.8063	1656.9548	1727.6888	1768.7107	2956.9427	2976.7844	2999.3932	3066.0834	3450.2064	3585.1056	3597.4296	3652.0712	3734.0996
NC(=O)CN=C(N)CO	NC(=O)CN=C(N)CO	
InChI=1S/C4H9N3O2/c5-3(2-8)7-1-4(6)9/h8H,1-2H2,(H2,5,7)(H2,6,9)	InChI=1S/C4H9N3O2/c5-3(2-8)7-1-4(6)9/h8H,1-2H2,(H2,5,7)(H2,6,9)
