20
gdb 62897	2.97026	1.45048	1.1131	1.6419	87.01	-0.2276	0.0251	0.2526	1142.0651	0.169417	-365.887165	-365.878197	-365.877252	-365.920494	34.969	
C	-0.0696304383	 1.5430384401	 0.1701568109	-0.470356
C	 0.0156833436	 0.0245397437	-0.025844798	 0.381561
C	-1.3812760849	-0.5197882586	 0.28851638	-0.477173
C	 0.860878626	-0.5793521441	-1.1934896708	-0.134128
C	 2.0914785065	-0.0668072392	-0.4193075928	-0.175841
N	 1.2257882878	-0.6642460079	 0.7154408799	-0.194513
C	 1.0720060323	-1.8412610516	-0.3004905805	-0.131546
C	 0.1431790772	-2.92778778	-0.0708674235	 0.290372
C	-0.4908740613	-3.9384250976	 0.0885061798	-0.412181
H	 0.8702208834	 2.0883025244	 0.1052790108	 0.118648
H	-0.7494123173	 1.9656628435	-0.5774322971	 0.121716
H	-0.5005958244	 1.7512600577	 1.1551152085	 0.129515
H	-1.5916960485	-1.4967460388	-0.1358874102	 0.141535
H	-1.5115770067	-0.586479959	 1.3740630404	 0.130754
H	-2.1341531996	 0.1786716872	-0.0899129579	 0.10806
H	 0.6625184405	-0.5518247521	-2.2716735986	 0.066885
H	 3.0344140511	-0.6000077557	-0.5584577787	 0.101042
H	 2.2720311061	 0.9998300231	-0.3419873321	 0.104794
H	 2.048243584	-2.3113928265	-0.4574759459	 0.106152
H	-1.0894501178	-4.8029078185	 0.2378992057	 0.194706
82.9247	115.5792	154.0283	198.6137	231.1257	367.5428	373.5141	426.7136	460.245	491.823	566.1774	612.3434	625.9201	651.7117	662.358	733.4126	757.5215	840.317	872.9677	899.2256	963.5755	968.9096	998.8757	1037.9234	1061.3455	1095.2403	1125.6292	1147.38	1159.0199	1201.6497	1217.0332	1233.2501	1235.8699	1293.7698	1408.5453	1422.4759	1426.5061	1481.0989	1487.0639	1504.9526	1515.3272	1562.7807	2220.9352	3029.7416	3040.4072	3045.5778	3048.2879	3083.8315	3096.3319	3102.5179	3145.6603	3184.5568	3193.4262	3501.8613
CC1(C)C2CN1C2C#C	CC1(C)[C@H]2CN1[C@H]2C#C	
InChI=1S/C8H11N/c1-4-7-6-5-9(7)8(6,2)3/h1,6-7H,5H2,2-3H3	InChI=1S/C8H11N/c1-4-7-6-5-9(7)8(6,2)3/h1,6-7H,5H2,2-3H3/t6-,7-/m0/s1
