21
gdb 75253	2.9512	1.60693	1.27414	0.2559	89.09	-0.2289	0.0246	0.2535	1076.6286	0.184514	-349.899498	-349.892096	-349.891152	-349.930832	30.997	
C	-0.1682382767	 1.5794343272	-0.0771312232	-0.505363
C	 0.024295139	 0.096702835	-0.021714776	 0.261378
C	-0.0031192778	-0.7594334326	-1.0604331332	-0.132438
C	 0.1943678648	-2.2347238302	-0.6845507629	-0.409794
C	 0.706511456	-2.0348973996	 0.731669246	 0.342897
C	 0.7180170172	-2.5442928102	 2.2051810201	-0.313433
C	 1.2807958079	-1.069089253	 2.2414395774	-0.086667
C	 2.1316580198	-1.4493015886	 1.0137314629	-0.238627
C	 0.107623562	-0.7122803616	 1.2567558056	-0.06395
H	 0.7006231535	 2.1075786159	 0.3352642783	 0.12623
H	-0.3269439408	 1.9329244919	-1.1001585617	 0.119442
H	-1.0310502648	 1.8869883492	 0.5279820485	 0.123447
H	-0.161665217	-0.4535335909	-2.0909782198	 0.082415
H	-0.7541547646	-2.78789076	-0.7350107999	 0.106805
H	 0.9037355009	-2.7474256447	-1.344209156	 0.103538
H	-0.2551638476	-2.7112173607	 2.6756411755	 0.090019
H	 1.4303904022	-3.3327624973	 2.4638926363	 0.089027
H	 1.6034735808	-0.5296235063	 3.1340825544	 0.065593
H	 2.9266700127	-2.1821730731	 1.179228231	 0.081204
H	 2.4659046282	-0.6366418773	 0.3670862667	 0.093292
H	-0.8813872459	-0.785276543	 1.7316163902	 0.064984
164.973	188.6877	244.7101	300.2444	317.4121	447.392	501.7262	526.189	581.4523	596.2634	731.5245	777.9396	800.7788	841.4689	870.0179	890.4983	926.214	931.8673	969.0899	995.9797	1003.8408	1024.6214	1030.1997	1049.4633	1068.2502	1094.1882	1111.4745	1133.7522	1151.6394	1189.7173	1200.0621	1207.9311	1216.3184	1245.7662	1264.6353	1307.4115	1327.3389	1364.25	1413.6558	1476.3963	1478.6839	1488.6538	1496.8508	1537.2014	1666.0836	2994.4545	3009.5388	3015.4322	3044.9941	3055.0543	3058.5568	3061.5945	3090.3085	3103.5097	3111.8971	3126.3778	3167.9438
CC1=CCC23CC(C2)C13	CC1=CC[C@@]23C[C@@H](C2)[C@@H]13	
InChI=1S/C9H12/c1-6-2-3-9-4-7(5-9)8(6)9/h2,7-8H,3-5H2,1H3	InChI=1S/C9H12/c1-6-2-3-9-4-7(5-9)8(6)9/h2,7-8H,3-5H2,1H3/t7-,8-,9+/m1/s1
