15
gdb 15040	2.64764	1.83669	1.18787	3.3417	64.11	-0.2655	-0.0409	0.2246	986.7854	0.118305	-399.823482	-399.815728	-399.814784	-399.856208	27.533	
O	 0.0109539216	-0.0589172475	-0.2668517328	-0.306612
C	-0.000502301	 1.1417845735	-0.1523368605	 0.167025
N	 1.1474936554	 1.9088713101	 0.0783851422	-0.119892
C	 1.02353267	 3.2885077847	 0.195263669	 0.170247
O	-0.0145947425	 3.8987301308	 0.1139707096	-0.303837
C	 2.4179496391	 1.2151823667	 0.1841941791	 0.057066
C	 3.6997835042	 1.7856347139	-0.3542973433	-0.287378
C	 3.4964387001	 1.6410907436	 1.1401955461	-0.287419
H	-0.8984265719	 1.7699828582	-0.2134183167	 0.142757
H	 1.9912559125	 3.7862880542	 0.3761753588	 0.09936
H	 2.24288721	 0.1553962248	 0.0578752214	 0.14873
H	 4.3775777665	 1.107472617	-0.8602734479	 0.132991
H	 3.6855159773	 2.7877434658	-0.7688163041	 0.126975
H	 3.3473335929	 2.5473015033	 1.7170814694	 0.126993
H	 4.0332088758	 0.8626647509	 1.6705285196	 0.132992
54.6677	140.4203	204.8568	231.5845	255.4073	282.3449	378.5768	463.982	580.2545	688.1973	766.6394	821.8158	822.3052	942.26	957.2033	1031.9967	1050.9928	1058.9542	1077.3236	1094.0446	1152.1728	1197.4769	1204.0394	1260.977	1302.6666	1420.2168	1437.3807	1460.8758	1467.7289	1508.7768	1794.3365	1821.9532	2989.8368	3069.2479	3137.6274	3139.5184	3212.5373	3216.8951	3231.5831
O=CN(C=O)C1CC1	O=CN(C=O)C1CC1	
InChI=1S/C5H7NO2/c7-3-6(4-8)5-1-2-5/h3-5H,1-2H2	InChI=1S/C5H7NO2/c7-3-6(4-8)5-1-2-5/h3-5H,1-2H2
