22
gdb 13207	3.99811	1.15092	0.9545	1.3481	78.4	-0.262	0.0789	0.3409	1270.6587	0.199848	-350.194708	-350.185397	-350.184453	-350.228709	34.345	
C	 0.0511510634	 1.5069645296	 0.1138055939	-0.39686
C	-0.0774517035	-0.0187229981	 0.0154372189	 0.012883
C	-1.5447944171	-0.4473487451	-0.0234823358	-0.07803
O	-2.1701967832	-0.0268735339	 1.1819773341	-0.424239
C	 0.6787747885	-0.5749518339	-1.1884801664	 0.066254
C	 2.2277998155	-0.4304930391	-1.2385981825	-0.234018
C	 2.3044246822	-1.8505258853	-1.860518506	-0.217656
C	 0.8673797734	-2.1142268904	-1.3376144323	-0.234633
H	 1.0977004936	 1.8105043358	 0.2150035112	 0.110241
H	-0.3507254338	 1.9902407804	-0.7855469425	 0.10354
H	-0.5039800866	 1.8850326581	 0.9750591334	 0.131336
H	 0.3564037597	-0.4621316414	 0.9237675987	 0.072927
H	-2.0344990904	 0.004776616	-0.9030910334	 0.078682
H	-1.6098537777	-1.540770646	-0.13757782	 0.085593
H	-3.0998265559	-0.2675223204	 1.1386278568	 0.284958
H	 0.2453756107	-0.1672112076	-2.111696438	 0.06203
H	 2.6485020289	 0.4018502923	-1.8080426258	 0.094226
H	 2.6535672624	-0.410036069	-0.2295255118	 0.098127
H	 2.3361705329	-1.8123278929	-2.953254301	 0.099999
H	 3.1005598454	-2.5144361464	-1.5155211066	 0.094652
H	 0.8793972127	-2.6063211745	-0.3588328796	 0.098303
H	 0.1778070589	-2.6574911881	-1.9887905353	 0.091687
83.9596	100.0102	138.2861	156.1827	228.5426	242.8095	261.7029	325.57	386.2196	415.9751	496.1245	647.6132	770.9161	785.013	873.0586	897.2348	927.6443	936.0164	953.3959	959.0399	1002.8744	1022.6806	1063.3901	1098.1896	1114.9864	1169.279	1188.2642	1205.0658	1226.1999	1257.3581	1261.1987	1263.3223	1268.498	1282.8613	1293.6293	1317.2135	1362.6076	1391.6455	1403.3125	1458.2199	1478.1034	1486.6899	1493.4305	1504.5769	1510.7098	1519.8027	2953.35	2987.4459	3001.6889	3016.2363	3029.1386	3041.754	3047.0261	3056.9861	3092.7247	3093.4757	3098.2423	3115.0025	3127.7439	3833.011
CC(CO)C1CCC1	C[C@@H](CO)C1CCC1	
InChI=1S/C7H14O/c1-6(5-8)7-3-2-4-7/h6-8H,2-5H2,1H3	InChI=1S/C7H14O/c1-6(5-8)7-3-2-4-7/h6-8H,2-5H2,1H3/t6-/m0/s1
