19
gdb 10189	2.11359	1.57357	0.95693	3.4203	73.08	-0.2825	0.0212	0.3036	1251.2589	0.163326	-365.078194	-365.068447	-365.067502	-365.113279	33.655	
C	-0.001890273	 1.4966997044	 0.0103156052	-0.386481
C	 0.1814415492	-0.0079684237	 0.0880640896	-0.051877
O	 0.5053091772	-0.482172539	-1.2156502213	-0.24149
C	 0.6803763418	-1.8750667351	-1.3089183191	-0.007423
C	 0.7545341967	-2.2574830112	-2.7937775841	-0.188845
C	-0.5445703317	-1.9394387428	-3.535877461	-0.393846
C	 1.9038959466	-2.3099925301	-0.5918238863	 0.269396
N	 2.8575611206	-2.642871568	-0.0303216706	-0.327072
H	 0.9190220183	 1.9778602752	-0.33000451	 0.134792
H	-0.8035672835	 1.7530001792	-0.6880122696	 0.127835
H	-0.2582621948	 1.8957971537	 0.9959216125	 0.122434
H	 0.9850883561	-0.2674689621	 0.7924361996	 0.117062
H	-0.7398782637	-0.4990251938	 0.440575785	 0.093413
H	-0.1697582728	-2.3999049776	-0.8396577475	 0.108088
H	 1.595671585	-1.7155124302	-3.2383085559	 0.127852
H	 0.9886949	-3.3251644981	-2.8600484597	 0.119394
H	-1.3859878939	-2.5075252382	-3.1238116608	 0.115981
H	-0.7829387497	-0.8763023307	-3.4596381849	 0.139555
H	-0.4546072284	-2.1979869921	-4.5945056611	 0.12123
67.852	91.2326	102.3434	146.3355	166.6942	220.5053	245.3998	270.7564	330.6665	403.9081	445.7177	543.0642	614.5678	770.1657	824.3389	871.6212	894.6386	964.057	997.1235	1059.4458	1099.479	1120.787	1151.642	1177.8804	1188.3313	1286.2669	1301.67	1318.3589	1357.4912	1383.4005	1403.5973	1409.6637	1438.1555	1477.5777	1483.7647	1495.8023	1499.5227	1509.1138	1527.1329	2351.4802	2959.3048	2976.3358	3020.56	3041.0209	3047.6779	3051.5053	3090.3567	3110.62	3122.7199	3125.8802	3134.1918
CCOC(CC)C#N	CCO[C@@H](CC)C#N	
InChI=1S/C6H11NO/c1-3-6(5-7)8-4-2/h6H,3-4H2,1-2H3	InChI=1S/C6H11NO/c1-3-6(5-7)8-4-2/h6H,3-4H2,1-2H3/t6-/m0/s1
