13
gdb 20702	3.52231	2.06659	1.31312	3.5586	61.9	-0.2816	-0.0629	0.2187	862.2305	0.096576	-394.824781	-394.817823	-394.816879	-394.856244	24.324	
C	-0.0294687391	 1.4977389561	 0.0054573556	-0.507297
C	-0.0121919004	 0.0069750766	-0.0449147899	 0.386844
N	-0.0342218881	-0.7189936224	-1.1352575001	-0.30727
C	-0.0045924889	-2.0083116752	-0.6583537842	 0.047785
N	 0.0343068987	-2.1329241182	 0.6448073584	-0.210262
N	 0.0296056	-0.8256818825	 1.0561284691	-0.080195
C	 0.0637466592	-0.4648470059	 2.4142963007	 0.186195
O	 0.0992956027	-1.2393205933	 3.3237022514	-0.243185
H	 0.8642423708	 1.8992433348	 0.4938177549	 0.152693
H	-0.062031064	 1.8687555451	-1.0192196341	 0.170522
H	-0.9051394947	 1.877010537	 0.5419322765	 0.152741
H	-0.0123831001	-2.8697733799	-1.3098142303	 0.14246
H	 0.0532190239	 0.632743518	 2.528651822	 0.108968
123.6591	138.2227	212.5357	214.227	309.8337	345.4833	548.2307	661.4668	675.3384	695.1468	844.7427	929.7408	960.7874	1006.272	1026.5902	1066.198	1119.6355	1183.4503	1297.4118	1335.1926	1359.7565	1410.042	1451.5891	1481.1602	1484.1937	1499.7555	1598.9972	1852.2903	2994.4789	3045.8133	3102.5807	3155.6331	3261.4089
CC1=NC=NN1C=O	Cc1ncnn1C=O	
InChI=1S/C4H5N3O/c1-4-5-2-6-7(4)3-8/h2-3H,1H3	InChI=1S/C4H5N3O/c1-4-5-2-6-7(4)3-8/h2-3H,1H3
