17
gdb 76962	1.91491	1.66811	0.94027	5.5606	72.88	-0.2508	-0.019	0.2318	1219.9115	0.134997	-455.161124	-455.152321	-455.151376	-455.195089	31.841	
C	-0.2574638359	 1.5402778606	-0.0001657441	-0.412287
C	 0.1662308645	 0.0940669939	 0.0074054073	-0.000205
C	 0.8577370532	-0.5516143021	-1.1648392635	-0.166696
N	 1.5904551904	-0.218622206	 0.0452190266	-0.069646
C	 2.2328209855	-1.0426097733	 0.9272863309	 0.091937
N	 2.8392311633	-2.1079737953	 0.5632422609	-0.473322
H	 3.3381119493	-2.5513705096	 1.328704683	 0.240466
H	 1.9312830211	-2.7353905313	-0.710697663	 0.335656
C	 0.4424081229	-1.9349141659	-1.661583259	 0.386059
O	-0.5179482467	-2.0104154408	-2.3853062679	-0.334736
O	 1.1731854148	-2.9840772977	-1.3173366485	-0.37971
H	 0.4376546709	 2.1428215723	-0.5905221681	 0.134144
H	-1.2584318354	 1.6357640883	-0.4318485051	 0.143046
H	-0.2865124464	 1.9458163579	 1.0164362704	 0.128464
H	-0.4698076941	-0.5786167496	 0.5831782925	 0.117194
H	 1.088911765	 0.1072729843	-1.9994087125	 0.138769
H	 2.2285569376	-0.6540239157	 1.9508556502	 0.12087
55.1354	141.3165	161.0575	210.5514	216.6856	262.4392	308.3141	336.5227	395.8526	475.0769	592.9974	657.6188	738.4731	794.7789	845.4172	849.6517	898.1395	942.8266	1025.9456	1031.7394	1050.2372	1065.5619	1118.0059	1159.1085	1171.6435	1246.9617	1291.8244	1344.6977	1363.8486	1410.7259	1413.5655	1477.0126	1485.7362	1493.501	1503.172	1690.7925	1843.0542	3041.2715	3041.761	3079.5754	3107.6753	3111.7487	3129.982	3136.9742	3537.9221
CC1C(N1C=[NH2+])C([O-])=O	C[C@H]1[C@@H](N1[CH][NH])C(=O)O	
InChI=1S/C5H8N2O2/c1-3-4(5(8)9)7(3)2-6/h2-4,6H,1H3,(H,8,9)	InChI=1S/C5H8N2O2/c1-3-4(5(8)9)7(3)2-6/h2-4,6H,1H3,(H,8,9)/t3-,4+,7?/m0/s1
