16
gdb 97991	5.63539	0.46187	0.44142	4.7372	77.3	-0.2662	-0.0046	0.2616	2348.1022	0.121049	-437.831987	-437.82157	-437.820625	-437.869876	33.885	
O	 0.1044515503	 0.9142919228	 0.9877611105	-0.407382
C	-0.0700899961	 0.1256433432	-0.1810486779	-0.217406
C	-1.4115482695	-0.4417556862	-0.1955319024	 0.194745
C	-2.511240856	-0.9275230193	-0.2241163087	-0.006369
C	-3.8523227042	-1.4816572822	-0.2589290036	-0.212305
O	-3.8193785887	-2.8568323092	 0.1119305234	-0.233944
C	-5.1054159806	-3.4252209509	 0.1039581116	-0.176209
C	-5.0081778737	-4.8393398466	 0.4742224155	 0.270213
N	-4.9679280523	-5.9566768625	 0.7612183577	-0.289883
H	 1.0070796904	 1.2488585392	 0.9768469509	 0.292771
H	 0.0741677404	 0.7245366724	-1.0952052522	 0.120751
H	 0.6585114412	-0.7001180271	-0.2238832639	 0.127068
H	-4.5068521065	-0.9199846078	 0.4286788421	 0.13007
H	-4.2830122345	-1.375312984	-1.268991532	 0.125315
H	-5.7787862077	-2.9205991668	 0.8168274448	 0.142048
H	-5.5762980226	-3.3551957949	-0.8909789359	 0.140517
27.1135	64.0694	67.9133	88.7965	140.7007	166.6583	224.9999	293.0695	312.9523	350.8089	385.7442	454.5069	551.082	600.4807	790.8525	956.3368	1010.2475	1019.2523	1024.4793	1048.8286	1054.6015	1132.1633	1166.9012	1243.8462	1250.5179	1256.7924	1261.804	1374.6397	1442.352	1460.0568	1488.1774	1498.4676	1505.944	2375.4139	2379.2842	2956.5209	2965.7288	2967.2163	2978.9805	2985.951	2991.1943	3819.1236
OCC#CCOCC#N	OCC#CCOCC#N	
InChI=1S/C6H7NO2/c7-3-6-9-5-2-1-4-8/h8H,4-6H2	InChI=1S/C6H7NO2/c7-3-6-9-5-2-1-4-8/h8H,4-6H2
