17
gdb 10271	2.7149	1.62774	1.28947	2.0978	65.73	-0.2167	-0.0429	0.1738	1005.2112	0.138148	-400.991541	-400.982245	-400.981301	-401.02561	31.97	
C	 0.1625382793	 1.4846932197	-0.009908187	-0.32757
N	 0.0772951082	 0.0342117745	 0.1087298267	-0.060682
C	 0.8815691248	-0.4896271561	 1.2103417387	-0.33712
C	-1.2614273731	-0.5024527697	 0.0260235084	-0.176072
C	-1.2422260071	-1.9594328842	-0.4539313988	 0.138943
O	-2.1921643779	-2.6957530604	-0.4157767604	-0.244141
C	-2.1733362558	-0.3493815845	 1.2518010448	 0.158665
O	-1.9256282931	 0.3791961315	 2.1773540151	-0.246641
H	 1.2124978368	 1.7708620727	-0.1323805531	 0.120756
H	-0.3780725491	 1.8131881617	-0.9039996518	 0.115007
H	-0.2427953183	 2.0213093065	 0.860489657	 0.128601
H	 0.5884324165	-0.0986352455	 2.1947781299	 0.132995
H	 0.8079609931	-1.5821953052	 1.2407973634	 0.116531
H	 1.9319742032	-0.2366471575	 1.0337306492	 0.123336
H	-1.7962659725	 0.0253588834	-0.7830932471	 0.138179
H	-0.2599973786	-2.2654110722	-0.8747908358	 0.105536
H	-3.0917300264	-0.9717316347	 1.2171393009	 0.113674
70.9414	115.3304	136.9194	191.6375	204.5408	230.6952	238.4516	266.709	354.4938	371.7758	477.2278	562.9599	688.3043	750.2036	863.7018	922.4325	1045.4722	1069.8624	1076.1343	1116.6925	1118.5334	1185.1518	1198.9723	1230.8728	1325.7462	1343.5117	1389.4173	1398.3382	1443.5375	1473.4129	1474.8019	1489.1351	1513.3963	1528.1715	1814.6367	1836.969	2904.4174	2922.2564	2971.3907	2994.8826	3004.7483	3063.8394	3068.0362	3094.0542	3097.0826
CN(C)C(C=O)C=O	CN(C)C(C=O)C=O	
InChI=1S/C5H9NO2/c1-6(2)5(3-7)4-8/h3-5H,1-2H3	InChI=1S/C5H9NO2/c1-6(2)5(3-7)4-8/h3-5H,1-2H3
