22
gdb 110977	2.16757	1.35944	1.2673	1.9211	84.24	-0.1968	0.0733	0.27	1203.2156	0.192207	-404.273951	-404.264204	-404.26326	-404.308524	36.996	
C	 0.1557381366	 1.5780676783	 0.1147388382	-0.368655
C	-0.0319607595	 0.0607141778	 0.0680369267	-0.132856
N	 0.6324368064	-0.4720587853	-1.1286092937	-0.139037
C	-0.1153136813	-0.6158227868	-2.4389801138	-0.091635
C	 1.0607042819	-1.5263474521	-2.8770504104	-0.253717
C	 0.6495303921	-1.9677722698	-1.4393427695	 0.306566
C	 1.2917627593	-2.9780647411	-0.5343368577	-0.52329
C	-0.8183509884	-1.9303041284	-1.957577292	 0.108109
O	-1.8327085356	-1.9378231293	-0.9872286887	-0.431448
H	 1.2170168122	 1.8385623737	 0.0695247428	 0.116782
H	-0.3431208736	 2.0624072787	-0.7322599478	 0.10686
H	-0.2716245354	 1.993606336	 1.0333690696	 0.103156
H	 0.4719005505	-0.3911007383	 0.9324650493	 0.091465
H	-1.0929425505	-0.1925817282	 0.1497281222	 0.104403
H	-0.534902154	 0.2406204179	-2.9694335959	 0.074941
H	 0.8866238648	-2.2312573255	-3.6925449194	 0.08795
H	 2.0227438897	-1.0209798797	-2.935160589	 0.107741
H	 2.3241723999	-2.6921834366	-0.3104661131	 0.12866
H	 0.7424190328	-3.0616740639	 0.4089338141	 0.133373
H	 1.3008653433	-3.965608073	-1.0069763803	 0.121254
H	-1.049461966	-2.6495597228	-2.758444097	 0.063371
H	-2.6778301252	-1.8264699315	-1.4335853144	 0.286007
40.0449	149.5491	177.2188	198.753	212.6285	242.5107	245.9417	296.6115	335.2442	417.3601	454.529	527.7108	645.8489	671.0367	731.8507	756.3815	779.9074	823.1183	885.4637	894.8437	951.9568	968.0773	1006.0315	1030.9337	1084.9557	1101.5661	1124.4851	1154.7324	1159.6193	1172.5921	1182.7752	1201.7051	1225.3185	1249.3792	1281.5704	1303.8491	1344.4611	1375.9791	1402.5307	1408.248	1447.6169	1481.6303	1487.6723	1489.0476	1496.4198	1501.7637	1513.3159	2972.0758	3022.8728	3031.3685	3035.0483	3076.5295	3078.1815	3096.0317	3102.3372	3104.8146	3109.8609	3116.5947	3168.3263	3820.302
CCN1C2CC1(C)C2O	CCN1[C@H]2C[C@]1(C)[C@H]2O	
InChI=1S/C7H13NO/c1-3-8-5-4-7(8,2)6(5)9/h5-6,9H,3-4H2,1-2H3	InChI=1S/C7H13NO/c1-3-8-5-4-7(8,2)6(5)9/h5-6,9H,3-4H2,1-2H3/t5-,6-,7+/m0/s1
