19
gdb 117062	4.18426	0.80435	0.72355	1.3159	73.75	-0.2487	-0.0667	0.1819	1632.6429	0.155772	-460.21692	-460.206366	-460.205422	-460.254224	35.914	
C	 0.4292108643	 0.8915655638	 0.3147915926	-0.388039
C	-0.6134161117	 0.1984619573	-0.5484794143	-0.058072
O	-0.004153799	-0.4439983658	-1.6928621967	-0.220916
C	 0.467804807	-1.6745082855	-1.5035810698	 0.372108
O	 0.4304046074	-2.2966818568	-0.4689032581	-0.357964
C	 1.0897511197	-2.251146307	-2.8006587873	 0.26631
O	 1.1527922579	-1.5913214443	-3.8060826335	-0.274256
C	 1.5939250731	-3.6712867108	-2.673012061	-0.272837
C	 2.1975355455	-4.2100758852	-3.9663389451	-0.385223
H	 1.1103350396	 0.1619438869	 0.7590706994	 0.144119
H	 1.0088076339	 1.6069305726	-0.2751793899	 0.133763
H	-0.0674647068	 1.4347206288	 1.1249357538	 0.125154
H	-1.1643063002	-0.5525823057	 0.0227875657	 0.133902
H	-1.3145061898	 0.9138981194	-0.9829960588	 0.122813
H	 2.3106362502	-3.6941624819	-1.8418764228	 0.140903
H	 0.7580161408	-4.2891394799	-2.3195236646	 0.139613
H	 2.5437634029	-5.2377723155	-3.8288673249	 0.114809
H	 1.4636627381	-4.1978293728	-4.7765528015	 0.13193
H	 3.0455741971	-3.5996720375	-4.2878081533	 0.131884
31.5729	56.2788	74.7956	101.4929	149.1376	196.8527	228.0571	281.0749	318.5221	342.299	408.6339	472.1986	507.4344	679.4245	702.5633	784.9821	826.597	851.0576	868.3313	978.4465	1014.528	1063.9232	1082.7623	1115.0592	1120.9555	1196.7236	1261.7016	1287.5724	1330.6712	1375.9393	1401.2469	1416.3635	1421.3495	1435.8915	1485.4082	1487.6605	1494.4639	1498.1921	1506.5575	1797.5775	1824.3594	3035.9349	3047.564	3051.6843	3058.5278	3072.5497	3117.0474	3121.8103	3124.4498	3124.7314	3142.8387
CCOC(=O)C(=O)CC	CCOC(=O)C(=O)CC	
InChI=1S/C6H10O3/c1-3-5(7)6(8)9-4-2/h3-4H2,1-2H3	InChI=1S/C6H10O3/c1-3-5(7)6(8)9-4-2/h3-4H2,1-2H3
