18
gdb 55304	2.63574	1.45253	1.05334	3.3795	72.14	-0.2288	0.0224	0.2512	1145.3873	0.146599	-439.07917	-439.070135	-439.069191	-439.113861	33.03	
N	 0.157259084	 1.1116786219	-0.4304021446	-0.524158
C	-0.0990724595	 0.0465506339	 0.3806148931	 0.394196
O	 0.6111591209	-0.241066347	 1.3260529155	-0.365656
C	-1.3502314955	-0.7547832497	 0.0586194043	-0.251658
C	-1.8963861626	-0.8930667276	-1.382829934	-0.109025
O	-1.8267230763	-2.3294046365	-1.3159454957	-0.303833
C	-1.2036448514	-2.2763942816	-0.0260570747	 0.469858
C	-0.0570529778	-3.1590638195	 0.3335206696	-0.334938
C	-1.4185798041	-3.3329840323	 0.9990104423	-0.335321
H	 0.9455840957	 1.6979541742	-0.2087114929	 0.264244
H	-0.4500480228	 1.3821086531	-1.1829763386	 0.261989
H	-2.120022583	-0.4524692858	 0.7756144081	 0.119668
H	-2.9193467008	-0.5385344664	-1.550173758	 0.108911
H	-1.2420959713	-0.4961473467	-2.1710330631	 0.09643
H	 0.2333186929	-3.8998195059	-0.4038941252	 0.118099
H	 0.747679674	-2.728516877	 0.9167108554	 0.148236
H	-1.5262124008	-3.0307139081	 2.0357231262	 0.122014
H	-2.0176763017	-4.1877786691	 0.7034158523	 0.120945
37.6619	69.7775	149.8185	167.9773	218.8199	285.8207	322.3097	428.5203	455.1905	491.0977	585.2614	621.8696	687.9999	759.7985	781.8995	874.0889	876.0409	915.4134	961.4463	1003.4742	1021.0721	1047.6742	1055.2	1073.2054	1074.8844	1100.7869	1175.8809	1191.8309	1215.2559	1219.7772	1301.0947	1357.7902	1368.3901	1391.3866	1441.734	1493.3122	1526.4207	1616.8491	1784.9608	3004.1848	3053.6848	3069.3579	3128.3261	3139.9432	3216.6008	3239.8643	3603.9035	3741.7447
NC(=O)C1COC11CC1	NC(=O)[C@H]1COC21CC2	
InChI=1S/C6H9NO2/c7-5(8)4-3-9-6(4)1-2-6/h4H,1-3H2,(H2,7,8)	InChI=1S/C6H9NO2/c7-5(8)4-3-9-6(4)1-2-6/h4H,1-3H2,(H2,7,8)/t4-/m1/s1
