22
gdb 104117	3.43953	1.01392	0.97363	3.9048	81.93	-0.2354	0.0386	0.274	1337.8531	0.194678	-404.40952	-404.400029	-404.399085	-404.443554	36.256	
C	-0.2056998163	 1.774940098	-0.1464745371	-0.398255
C	-0.2388226149	 0.2439121073	-0.0670387203	-0.22575
C	 0.710902469	-0.4950504164	-1.0278198292	 0.308071
C	 0.3638292389	-0.211319353	-2.5003471481	-0.433246
C	 2.2062867757	-0.1360011642	-0.7658530172	-0.201543
N	 2.9051548644	-1.3643099761	-1.0920131187	-0.30172
C	 2.1307691374	-2.4939701071	-1.0603655827	 0.399767
O	 2.5226445151	-3.6306427043	-1.2068136511	-0.380685
C	 0.6995064248	-2.0238758699	-0.7878427605	-0.378723
H	 0.799395325	 2.1689756668	 0.0395033458	 0.118585
H	-0.5323248599	 2.1436830639	-1.123248402	 0.122093
H	-0.8705626654	 2.2105345652	 0.60548786	 0.118017
H	 0.0027731432	-0.0631955764	 0.9588060109	 0.094505
H	-1.2624186355	-0.1057243139	-0.2537046969	 0.099203
H	 0.4545471904	 0.8517023956	-2.742180694	 0.115302
H	 1.0326135064	-0.761968419	-3.1695145013	 0.127061
H	-0.6625620712	-0.5222876188	-2.7222192951	 0.11602
H	 2.5467558119	 0.6928737855	-1.3951551484	 0.108949
H	 2.3646922529	 0.1551513527	 0.2835445607	 0.099099
H	 3.9091045007	-1.4402325027	-1.1348440125	 0.248575
H	 0.461437334	-2.2695937127	 0.2542681956	 0.120214
H	-0.0081727768	-2.5653739603	-1.4194708079	 0.124463
80.7168	106.3161	161.6258	192.1381	229.6501	277.8711	331.7372	346.4993	367.2572	408.8211	492.2183	513.011	570.7112	615.2084	689.9148	782.8398	786.9648	869.1431	915.6038	924.1432	958.8352	965.5619	1018.1746	1041.7981	1065.0079	1085.6946	1139.6299	1186.2995	1203.0387	1223.8032	1258.2034	1274.2104	1315.2383	1337.4087	1347.1891	1374.3877	1409.1049	1414.9466	1450.1943	1466.7899	1483.3713	1495.3254	1498.8021	1505.5053	1511.457	1533.2451	1832.1212	2983.7122	3014.7864	3033.6498	3037.8548	3042.7456	3048.5344	3061.0598	3101.5725	3102.7822	3105.7597	3110.3225	3113.7035	3639.4791
CCC1(C)CNC(=O)C1	CC[C@@]1(C)CNC(=O)C1	
InChI=1S/C7H13NO/c1-3-7(2)4-6(9)8-5-7/h3-5H2,1-2H3,(H,8,9)	InChI=1S/C7H13NO/c1-3-7(2)4-6(9)8-5-7/h3-5H2,1-2H3,(H,8,9)/t7-/m1/s1
