21
gdb 104677	2.14567	1.74149	1.15679	1.2319	78.76	-0.2345	0.0796	0.314	1146.8673	0.180752	-424.139287	-424.130139	-424.129195	-424.173423	34.704	
C	 0.650130419	-0.8968424057	 1.6044104354	-0.377234
C	 0.3944545081	-0.3790627206	 0.1841770163	-0.245832
C	-1.0831734066	-0.4467500127	-0.210965817	 0.479541
O	-1.6826111805	 0.5432258117	 0.5721672156	-0.321756
C	-3.0894084465	 0.6824507547	 0.6921084217	-0.220994
C	-1.495415295	-0.6103066441	-1.7202451303	-0.035344
C	-0.9784757324	-2.0686059066	-1.7087360762	-0.232001
C	-1.8057265289	-1.8287450008	-0.4255259181	-0.035368
O	-2.809381862	-1.1380676677	-1.2750809532	-0.319203
H	 1.6986083879	-0.7617247497	 1.8862538322	 0.110925
H	 0.0294093598	-0.3592462551	 2.3250027661	 0.133557
H	 0.4200725946	-1.9650132042	 1.6874578116	 0.109946
H	 0.6839907446	 0.6755812029	 0.1220968322	 0.111452
H	 1.0216933468	-0.9174507056	-0.5285453586	 0.096683
H	-3.2342747671	 1.4542914996	 1.4543469818	 0.109796
H	-3.5626361674	 0.9982231694	-0.2417944228	 0.120921
H	-3.5736863978	-0.2418461577	 1.0251095875	 0.112242
H	-1.4997156844	 0.1186682343	-2.5316279659	 0.092677
H	-1.4938812832	-2.7036607511	-2.4286674195	 0.113878
H	 0.0879706579	-2.282153645	-1.6471391894	 0.102662
H	-2.1810273268	-2.5534823459	 0.2979697607	 0.093453
58.4865	77.1113	162.6852	209.2783	244.4539	276.7595	321.5752	371.6811	415.9848	445.576	546.1894	617.1102	678.9002	770.048	771.491	802.9309	876.681	895.7388	905.2649	957.2224	986.695	1021.7619	1038.7949	1092.8977	1116.6119	1123.3199	1128.9855	1167.3617	1175.8897	1179.6273	1203.9526	1218.703	1227.4127	1265.8695	1276.3703	1338.6072	1373.2211	1404.9111	1473.8203	1488.2773	1488.5841	1494.7284	1497.3583	1504.1691	1512.8325	3024.5558	3036.9535	3053.7902	3087.3319	3093.2827	3099.2544	3106.2236	3108.1328	3109.8744	3118.0708	3130.878	3166.609
CCC1(OC)C2CC1O2	CC[C@@]1(OC)[C@H]2C[C@@H]1O2	
InChI=1S/C7H12O2/c1-3-7(8-2)5-4-6(7)9-5/h5-6H,3-4H2,1-2H3	InChI=1S/C7H12O2/c1-3-7(8-2)5-4-6(7)9-5/h5-6H,3-4H2,1-2H3/t5-,6+,7-
