18
gdb 55704	2.46373	1.29192	1.0656	1.4417	79.68	-0.2424	0.0277	0.2701	1221.8592	0.144347	-401.905743	-401.896155	-401.895211	-401.940383	35.342	
C	 0.1333915085	 1.4468744019	-0.1448819893	-0.461046
C	-0.1923104116	-0.0113790907	 0.0517881504	 0.37043
N	-0.8213003956	-0.5688266977	 0.9983551636	-0.497092
O	 0.3101431355	-0.7266305426	-0.9918244507	-0.276819
C	 0.1568133917	-2.1356645355	-0.9669606768	 0.27462
C	-1.2040636007	-2.6873306523	-1.3128849997	-0.292142
C	-0.098979427	-2.7274574132	-2.3347192406	-0.322057
C	 1.0121490119	-2.8293893965	-0.0437424759	 0.332695
C	 1.747582633	-3.426270544	 0.6963604272	-0.488358
H	 1.2182355139	 1.5886268611	-0.1676539174	 0.150621
H	-0.2584072905	 1.7964751684	-1.1048459311	 0.144471
H	-0.2901547158	 2.0522573868	 0.6578739579	 0.126813
H	-1.1179993153	 0.1225884684	 1.68351165	 0.220461
H	-1.50586647	-3.605304704	-0.8239798428	 0.133704
H	-1.9912117265	-1.9547754983	-1.4410383659	 0.130416
H	-0.1361805825	-2.0173142726	-3.1527145945	 0.128119
H	 0.3745144302	-3.6746849837	-2.5617902104	 0.130384
H	 2.3834206909	-3.9468284253	 1.3685082861	 0.194779
70.269	84.4724	125.8272	156.0845	187.1631	216.3197	337.9069	364.0718	401.4333	526.5297	549.2357	575.9834	585.6062	595.9901	681.0653	730.414	764.5136	857.4726	868.2293	918.0891	931.2206	972.7226	997.129	1045.6727	1066.0826	1068.5632	1079.0682	1093.8069	1189.167	1249.9156	1317.1735	1364.6437	1411.316	1452.8337	1471.053	1482.1223	1485.9069	1738.05	2239.1443	3049.0155	3112.6763	3144.6809	3145.6036	3154.0526	3234.8628	3249.8976	3504.717	3513.2588
CC(=N)OC1(CC1)C#C	C[C]([NH])OC1(CC1)C#C	
InChI=1S/C7H9NO/c1-3-7(4-5-7)9-6(2)8/h1,8H,4-5H2,2H3	InChI=1S/C7H9NO/c1-3-7(4-5-7)9-6(2)8/h1,8H,4-5H2,2H3
