15
gdb 19650	5.19808	1.67935	1.59662	2.0529	63.14	-0.2182	0.0517	0.2699	821.9582	0.11861	-362.52301	-362.51634	-362.515396	-362.55403	25.363	
O	 0.1618565969	 1.3401809893	-0.3598590876	-0.407391
C	 0.0025722399	 0.0084885401	 0.114486467	-0.220892
C	-1.4067052003	-0.4764001168	 0.088897801	 0.325702
C	-1.9455811246	-1.9114376159	-0.0626376861	-0.175754
C	-3.1986963958	-1.5056233785	 0.7496925504	-0.04729
C	-2.6877295928	-0.1191814557	 0.9014438134	-0.131194
N	-3.5769730264	-0.4597058018	-0.2655645131	-0.174693
C	-2.3224246946	-0.8398449977	-1.0535680766	-0.061233
H	-0.3673172163	 1.9182709746	 0.1988557526	 0.28454
H	 0.6098432983	-0.6168330127	-0.5499600641	 0.115943
H	 0.4200955639	-0.1019837054	 1.1286826023	 0.094547
H	-1.3927546249	-2.8327741765	-0.1798387484	 0.099042
H	-3.9396680866	-2.0673193692	 1.3056484121	 0.099425
H	-2.9368798628	 0.6668542222	 1.6058441749	 0.092942
H	-2.2148210739	-0.7569083159	-2.1275703877	 0.106306
90.3216	142.6553	222.3574	305.2296	401.9677	619.9411	677.2072	759.7251	776.6557	788.627	835.6791	866.6096	870.5826	885.4796	941.3193	955.6381	985.0317	998.4266	1012.1963	1036.591	1058.7843	1113.3387	1133.6031	1192.5049	1213.4945	1243.8589	1299.0903	1318.9713	1372.8113	1399.7993	1440.1465	1488.7378	2970.416	3062.6586	3166.3062	3185.5086	3194.575	3218.9468	3817.9636
OCC12C3C4C1N4C23	OC[C@@]12[C@H]3[C@H]4[C@@H]1N4[C@@H]23	
InChI=1S/C6H7NO/c8-1-6-2-3-5(6)7(3)4(2)6/h2-5,8H,1H2	InChI=1S/C6H7NO/c8-1-6-2-3-5(6)7(3)4(2)6/h2-5,8H,1H2/t2-,3-,4+,5-,6-,7?/m0/s1
