16
gdb 27273	3.25361	1.48875	1.03545	2.2912	71.57	-0.1864	0.0492	0.2357	1086.2003	0.12609	-437.904227	-437.896293	-437.895349	-437.937007	29.367	
O	 0.0772615761	 1.3453775132	 0.214274759	-0.429993
C	 0.0569447857	 0.0037541592	-0.0072133468	 0.234481
C	 0.071590103	-0.7907656928	-1.1234240697	 0.081222
C	 0.1326753537	-0.7736595476	-2.6177830046	-0.203207
O	-0.0226889732	-2.149271887	-2.9960595951	-0.279753
C	 0.0658600709	-3.036090625	-1.8686386116	-0.18761
C	 0.0316389058	-2.1378521723	-0.6731823935	 0.234695
C	-0.0064073805	-2.1484316696	 0.6926554733	-0.263873
N	 0.010979589	-0.8149612488	 1.0896754063	-0.292795
H	 0.0695110158	 1.7947170894	-0.6355229737	 0.308741
H	-0.6715611789	-0.1977285323	-3.0979628563	 0.102153
H	 1.0897099639	-0.3892100827	-3.0079233479	 0.097138
H	-0.7750706481	-3.7398878642	-1.9224400248	 0.110292
H	 0.9948638518	-3.624124183	-1.9323029269	 0.102659
H	-0.042995032	-2.9396724485	 1.4221124104	 0.121085
H	-0.0341424531	-0.4765028279	 2.0353753018	 0.264762
67.7428	155.5598	174.2095	219.0076	276.2669	306.4211	444.6381	526.3351	597.0033	621.429	629.3722	639.0856	670.7204	802.7003	843.0247	902.0257	1026.359	1043.8655	1058.2166	1070.7236	1085.0884	1154.2653	1178.8706	1214.6241	1221.2672	1281.1033	1346.8298	1350.6777	1379.9974	1431.9515	1521.1126	1532.584	1539.1804	1601.8343	1674.9965	2955.5751	2974.8487	2997.9796	3022.4061	3272.8096	3679.064	3855.4792
OC1=C2COCC2=CN1	Oc1c2COCc2c[nH]1	
InChI=1S/C6H7NO2/c8-6-5-3-9-2-4(5)1-7-6/h1,7-8H,2-3H2	InChI=1S/C6H7NO2/c8-6-5-3-9-2-4(5)1-7-6/h1,7-8H,2-3H2
