19
gdb 117386	5.56697	0.68028	0.64162	2.7001	74.48	-0.2617	0.0155	0.2772	1785.7923	0.156226	-460.159264	-460.149232	-460.148288	-460.196524	34.236	
C	 0.020588137	 1.3651985892	-0.2045275906	-0.224073
O	-0.1047439687	-0.0358834213	-0.1294448176	-0.211096
C	 0.7469481684	-0.6983375304	-1.0135213171	-0.172989
C	 0.5533676653	-2.1996371856	-0.8717534596	 0.411169
O	-0.192350235	-2.7529593798	-0.1144135432	-0.330769
O	 1.3830291436	-2.8245128008	-1.7420223803	-0.253207
C	 1.330086515	-4.241030633	-1.7479214419	 0.153737
C	 0.6772074571	-4.9097258949	-2.9190816448	-0.278818
C	 2.1877138851	-4.9042994739	-2.7730156761	-0.298945
H	 1.0392944195	 1.6993047926	 0.0488921081	 0.106287
H	-0.2248202166	 1.7449077648	-1.20910397	 0.105955
H	-0.681199667	 1.7901555016	 0.5161442212	 0.135252
H	 0.5535367297	-0.4224554825	-2.0645134303	 0.115552
H	 1.8089242505	-0.4671732854	-0.8218545939	 0.11788
H	 1.2170688494	-4.6657712587	-0.7586442801	 0.124974
H	 0.1304325602	-5.8291396722	-2.7437540482	 0.124822
H	 0.2536893993	-4.264037418	-3.6797409804	 0.124452
H	 2.745943608	-4.2552732053	-3.4379746033	 0.127328
H	 2.6963725295	-5.8218175462	-2.500147512	 0.122489
25.5587	54.023	64.5178	113.7674	119.1672	233.9507	237.7797	314.8373	374.0648	404.6787	443.4313	598.9228	725.3094	753.0715	817.8813	838.2083	919.0124	967.2414	1001.0522	1031.2442	1037.7599	1058.3332	1075.0158	1116.3404	1174.1924	1175.5154	1184.2359	1192.0858	1205.468	1241.1961	1247.5819	1249.5882	1388.5813	1421.9306	1455.9985	1473.0988	1486.5476	1492.5282	1499.2051	1516.8286	1854.4877	2956.1916	2972.3854	2981.1742	3014.7462	3123.2266	3141.0006	3143.8823	3195.9496	3224.1888	3238.3857
COCC(=O)OC1CC1	COCC(=O)OC1CC1	
InChI=1S/C6H10O3/c1-8-4-6(7)9-5-2-3-5/h5H,2-4H2,1H3	InChI=1S/C6H10O3/c1-8-4-6(7)9-5-2-3-5/h5H,2-4H2,1H3
