16
gdb 15730	6.85223	1.03444	0.97206	2.8762	72.22	-0.2475	-0.015	0.2325	1197.4753	0.12814	-346.576368	-346.567945	-346.567001	-346.610013	30.236	
O	-0.1099103709	-0.1310678325	-0.0819787514	-0.310268
C	-0.0728674937	 1.0758687637	-0.0309654452	 0.389791
C	 1.2453789915	 1.8675283005	 0.0190584553	-0.497596
C	 2.4488203651	 1.0559382545	 0.0004426523	 0.326149
C	 3.4487645523	 0.3917770001	-0.0146303141	-0.424483
C	-1.305306369	 1.9151811079	-0.0117012084	-0.108246
C	-2.5070029539	 1.4014463429	-0.793865197	-0.247711
C	-2.5263523179	 1.3389418082	 0.693073643	-0.247724
H	 1.2372058249	 2.5728571492	-0.8243669319	 0.153774
H	 1.2149385628	 2.4998519941	 0.918033949	 0.153772
H	 4.3276297398	-0.2037751411	-0.0284387056	 0.197697
H	-1.1614751838	 2.9889844554	 0.0352734705	 0.08948
H	-3.1180865447	 2.1405486803	-1.2987402319	 0.120327
H	-2.3494778447	 0.4733007452	-1.3308480026	 0.142354
H	-2.3817679316	 0.3688331085	 1.1541673188	 0.142358
H	-3.1511905962	 2.0336692631	 1.2421862291	 0.120325
42.6883	79.4163	120.0875	243.0466	255.1692	324.5557	330.8261	406.4459	571.2454	626.3583	642.6368	671.161	789.0074	830.4314	835.4909	861.8768	893.5952	966.4561	983.911	1053.5875	1088.2307	1097.221	1112.9426	1127.5568	1208.8479	1217.171	1223.9453	1319.0953	1404.3915	1437.6517	1453.7703	1485.9348	1806.339	2250.2557	3009.023	3035.459	3142.8251	3144.3128	3170.3126	3230.7789	3245.1626	3507.8128
O=C(CC#C)C1CC1	O=C(CC#C)C1CC1	
InChI=1S/C7H8O/c1-2-3-7(8)6-4-5-6/h1,6H,3-5H2	InChI=1S/C7H8O/c1-2-3-7(8)6-4-5-6/h1,6H,3-5H2
