21
gdb 73282	2.35077	1.66622	1.3432	1.5309	77.72	-0.2394	0.0758	0.3151	1059.1361	0.184376	-424.223485	-424.215475	-424.21453	-424.255507	32.584	
O	-0.0513988202	 1.4000517593	 0.1284850643	-0.492405
C	 0.0257315323	-0.0032473575	-0.0229862864	 0.405067
C	 0.2077052402	-0.5896105559	-1.4536203387	-0.289532
C	-0.9020884565	-1.6227939043	-1.1110204767	-0.249372
C	-1.3782645038	-0.667496577	 0.0184795691	-0.009945
C	-1.8609683511	-1.1892611886	 1.3650867906	-0.119261
O	-0.8257548038	-1.7988485067	 2.1213784286	-0.246938
C	 0.2589711157	-0.9090780307	 2.3289633104	-0.074928
C	 0.9793797986	-0.6366399557	 1.0086721162	-0.26073
H	 0.8435030484	 1.7571788642	 0.1134046796	 0.271572
H	-0.1356844754	 0.1334213893	-2.1983317008	 0.104166
H	 1.1968631838	-0.9612262659	-1.7354575907	 0.088468
H	-1.6223588247	-1.8659436413	-1.8941196108	 0.098959
H	-0.4925712157	-2.5525562292	-0.7073719043	 0.112806
H	-2.1049792649	 0.0461522433	-0.382212526	 0.0832
H	-2.2968412193	-0.357190266	 1.943885493	 0.091593
H	-2.636834674	-1.951917165	 1.2386551373	 0.104335
H	-0.0989093124	 0.0355059523	 2.7710006281	 0.093669
H	 0.9237232664	-1.3942213489	 3.0495445826	 0.101996
H	 1.3678292074	-1.5890571312	 0.6326803019	 0.106521
H	 1.844121069	 0.0222358456	 1.1633965928	 0.080761
135.5836	166.5712	247.1777	287.8303	309.1637	350.8177	394.4395	436.0735	477.7818	510.0541	600.7759	692.4673	705.6797	793.6833	827.3386	875.6331	883.8085	928.5893	951.203	986.3641	1012.0796	1026.9554	1045.2556	1087.224	1124.8194	1145.9299	1172.7678	1173.1211	1200.3992	1228.9723	1241.6301	1256.478	1271.971	1302.3042	1329.3499	1353.9627	1373.5965	1376.6771	1392.1514	1422.8207	1466.709	1482.6506	1485.7897	1500.2754	1503.0104	2960.2355	2974.4066	3020.4354	3052.0591	3064.2132	3066.9902	3068.889	3073.5679	3085.4645	3107.1139	3125.1343	3795.3889
OC12CCC1COCC2	O[C@]12CC[C@H]1COCC2	
InChI=1S/C7H12O2/c8-7-2-1-6(7)5-9-4-3-7/h6,8H,1-5H2	InChI=1S/C7H12O2/c8-7-2-1-6(7)5-9-4-3-7/h6,8H,1-5H2/t6-,7-/m0/s1
