21
gdb 9688	4.48921	1.09469	1.01784	1.709	75.73	-0.2258	0.073	0.2989	1248.5555	0.186722	-366.234	-366.224322	-366.223377	-366.268265	35.377	
C	 0.3841090269	 1.5480526787	 0.0260427005	-0.372558
C	-0.1609567415	 0.1254995056	-0.0796172021	-0.114891
N	 0.4541065818	-0.5638294341	-1.2102395091	-0.108223
C	 1.6722123814	-1.3315970129	-0.9655285981	-0.303027
C	 0.3917012923	-2.0221460233	-1.320716377	 0.291744
C	-0.31700817	-2.8819540734	-0.2914888624	-0.466701
C	 0.2067519309	-2.4963879565	-2.754499615	-0.113902
O	 0.6968800454	-3.8137853546	-2.9636629204	-0.414225
H	 1.4625602227	 1.5384259269	 0.2158763102	 0.117142
H	 0.2110139646	 2.0960747881	-0.9042208945	 0.126199
H	-0.0990854889	 2.0876770335	 0.8464957427	 0.110073
H	-0.0058458227	-0.3973032242	 0.878354608	 0.08272
H	-1.2430093242	 0.1536733996	-0.2556951923	 0.102936
H	 2.4716936162	-1.2064258936	-1.6939595399	 0.103531
H	 2.0140877542	-1.4273200667	 0.0651051154	 0.10399
H	-0.023838962	-2.6487346793	 0.7338550765	 0.115787
H	-1.4047955211	-2.7686149878	-0.3717200384	 0.11924
H	-0.0818848984	-3.9320282344	-0.4855809392	 0.135922
H	-0.8609743588	-2.5380506482	-2.9994211645	 0.10681
H	 0.6738888941	-1.7685052277	-3.4321597476	 0.095375
H	 1.642147197	-3.8012784058	-2.7794589728	 0.282059
67.1243	96.4207	142.928	180.2916	217.7386	249.9655	291.1374	315.6362	345.6049	388.3342	394.9987	445.9657	604.2491	700.8512	785.7459	811.6763	895.2513	932.5717	950.5645	961.377	1018.0586	1061.5673	1070.4886	1093.6428	1105.9196	1121.484	1161.316	1194.5774	1219.3911	1298.6879	1309.7647	1354.8578	1379.8004	1396.7194	1408.8012	1413.4732	1419.3497	1484.1542	1488.7398	1491.2506	1500.2926	1506.1391	1508.5691	1517.6291	2963.2348	3008.6299	3035.1511	3038.1208	3047.7533	3066.3596	3075.5548	3102.7987	3106.9618	3119.6489	3131.571	3155.8585	3806.8749
CCN1CC1(C)CO	CCN1C[C@]1(C)CO	
InChI=1S/C6H13NO/c1-3-7-4-6(7,2)5-8/h8H,3-5H2,1-2H3	InChI=1S/C6H13NO/c1-3-7-4-6(7,2)5-8/h8H,3-5H2,1-2H3/t6-,7?/m1/s1
