19
gdb 67469	2.62223	1.67416	1.56411	2.731	74.46	-0.2245	0.0815	0.306	976.6056	0.160436	-422.985017	-422.977479	-422.976535	-423.016665	29.862	
C	 0.0050101217	 1.5503985532	-0.0119652411	-0.511832
C	 0.0025270116	 0.0517361247	-0.0134720069	 0.239365
C	 0.7154733669	-0.8592088318	-0.9876545526	-0.137263
C	 1.7828410675	-1.8207991819	-0.4958829489	-0.094239
O	 1.504428388	-2.436228157	 0.7501748359	-0.241282
C	 0.9324432311	-1.6011588826	 1.7349146137	-0.094732
C	-0.2850522972	-0.8594824052	 1.1972694155	 0.04399
O	-1.1123586247	-1.7458341999	 0.3891987835	-0.29417
C	-0.7778007372	-0.9910855622	-0.7739707472	 0.052081
H	 0.8864539669	 1.9518466206	 0.5031001546	 0.122183
H	 0.0190598172	 1.9419243393	-1.0344357805	 0.122897
H	-0.8839315874	 1.9515209873	 0.488362298	 0.123313
H	 0.9666227876	-0.3770820166	-1.9312072706	 0.088184
H	 1.9241061006	-2.6465706971	-1.2014435425	 0.11375
H	 2.736945373	-1.2660695081	-0.4401702678	 0.085006
H	 0.6543739152	-2.2688485146	 2.5561185535	 0.115556
H	 1.655628424	-0.8614523489	 2.1240424582	 0.08452
H	-0.869480565	-0.390509585	 1.9962451753	 0.079806
H	-1.5216487697	-0.9213020042	-1.5601816202	 0.102866
165.4182	180.5506	203.2266	255.4294	289.8612	359.5654	427.8537	464.0934	621.9002	682.0039	738.2068	745.9941	822.73	875.4489	883.4481	904.7514	914.3333	1003.3936	1007.2816	1024.5702	1042.3783	1070.3425	1088.2551	1106.2126	1135.4828	1174.858	1222.5859	1234.8888	1261.8576	1279.977	1302.1165	1330.0732	1345.5264	1386.1428	1412.0362	1426.7378	1481.9473	1486.6334	1488.4542	1499.0309	1502.8266	2938.2049	2947.964	3018.932	3051.015	3062.3465	3076.7253	3080.539	3095.7982	3129.0851	3174.3034
CC12C3COCC1OC23	C[C@@]12[C@H]3COC[C@@H]1O[C@@H]23	
InChI=1S/C7H10O2/c1-7-4-2-8-3-5(7)9-6(4)7/h4-6H,2-3H2,1H3	InChI=1S/C7H10O2/c1-7-4-2-8-3-5(7)9-6(4)7/h4-6H,2-3H2,1H3/t4-,5-,6+,7+/m0/s1
