20
gdb 12006	3.119	1.98572	1.73601	1.4087	73.19	-0.2267	0.0838	0.3105	880.1328	0.177339	-348.998873	-348.991103	-348.990159	-349.030208	31.033	
C	-0.4178844035	 1.6185937636	 0.0265942532	-0.432191
C	 0.012557915	 0.1481650807	 0.0538885266	 0.27977
C	-1.2057696597	-0.779573407	-0.0979476175	-0.427942
C	 1.0600176736	-0.1607095233	-1.0530512136	-0.126932
O	 1.8935195868	-1.2106918553	-0.5672870001	-0.259805
C	 1.9164114436	-1.1162275074	 0.8348905135	 0.117898
C	 2.2194448836	 0.2184736383	 1.4648298026	-0.354515
C	 0.7829447158	-0.2582895334	 1.3127232261	-0.082825
H	 0.432679929	 2.2856255387	 0.1983787402	 0.113574
H	-0.8640320036	 1.8815501807	-0.939691584	 0.111817
H	-1.1657377749	 1.8233782023	 0.7999438482	 0.113879
H	-1.7671276839	-0.543195922	-1.0084600603	 0.108763
H	-0.8911255433	-1.8261632918	-0.1544810385	 0.126309
H	-1.8893870257	-0.6754617114	 0.751628085	 0.109676
H	 0.6061188536	-0.4996076518	-1.9890604389	 0.105738
H	 1.6601938707	 0.733798513	-1.2751053325	 0.088539
H	 2.2304950312	-2.0432383083	 1.2992708081	 0.098576
H	 2.6340281999	 0.208320231	 2.4672711065	 0.111921
H	 2.5873431209	 1.0276440298	 0.8430783526	 0.115751
H	 0.2126660809	-0.5005569764	 2.2028254228	 0.082
147.1814	216.4753	224.4354	257.4916	318.2117	333.944	374.6357	408.4174	489.9092	584.0315	700.6285	736.2472	797.7709	839.1659	889.1467	932.9475	951.6783	964.879	971.4501	993.6268	1018.5992	1048.687	1049.4053	1065.0864	1101.4174	1155.0467	1198.1583	1207.596	1232.688	1251.3944	1260.6936	1325.6683	1374.4142	1392.5998	1402.0421	1424.3222	1476.5124	1485.039	1488.9659	1504.131	1507.3819	1523.8494	2990.8062	3024.822	3029.5273	3077.5852	3088.9399	3095.0186	3102.441	3108.0087	3132.0187	3164.972	3186.2439	3216.3716
CC1(C)COC2CC12	CC1(C)CO[C@H]2C[C@@H]12	
InChI=1S/C7H12O/c1-7(2)4-8-6-3-5(6)7/h5-6H,3-4H2,1-2H3	InChI=1S/C7H12O/c1-7(2)4-8-6-3-5(6)7/h5-6H,3-4H2,1-2H3/t5-,6+/m1/s1
