15
gdb 28833	3.31793	1.35453	1.02425	6.9879	81.26	-0.2266	-0.064	0.1627	1113.6467	0.114479	-416.850129	-416.842541	-416.841597	-416.882199	29.224	
N	 0.023704196	 1.3851782051	 0.1093702177	-0.561373
C	-0.0306053889	 0.0144952251	 0.0038538959	 0.315105
C	-1.2408633181	-0.6375644404	 0.0278911933	-0.188274
C	-1.4685074871	-2.0225707657	-0.2297022911	 0.011664
N	-0.6898646235	-3.0536769248	-0.1568015555	-0.274428
C	 0.6266842115	-3.0147896911	 0.2756665421	 0.330635
O	 1.0895693228	-3.878505737	 0.9940659282	-0.33256
C	 1.5186521917	-1.9426290631	-0.2345285147	-0.159301
C	 1.2394871327	-0.6276173933	-0.2792194568	-0.099145
H	 0.9003040458	 1.8031976723	 0.3754475117	 0.263958
H	-0.7913149375	 1.8613673706	 0.4612654108	 0.263933
H	-2.1340875565	-0.0249032119	 0.125748851	 0.083628
H	-2.4956393832	-2.2526034579	-0.5291102176	 0.11213
H	 2.5271740512	-2.2735670793	-0.4660508147	 0.130389
H	 2.0463828229	 0.0530668913	-0.5442578402	 0.103641
78.687	179.5574	279.7336	352.6205	361.2261	378.2475	397.9263	447.0987	466.8117	556.9239	616.1144	705.7722	745.1362	779.4082	830.977	834.8264	879.6678	920.7887	996.0556	1006.127	1031.3975	1138.6639	1209.6724	1252.1245	1316.9728	1402.6778	1446.5191	1477.6041	1559.0476	1655.2019	1659.1596	1681.6958	1761.212	3075.5143	3140.44	3149.7789	3178.6212	3594.7538	3705.7128
NC1=CC=NC(=O)C=C1	Nc1ccnc(=O)cc1	
InChI=1S/C6H6N2O/c7-5-1-2-6(9)8-4-3-5/h1-4H,7H2	InChI=1S/C6H6N2O/c7-5-1-2-6(9)8-4-3-5/h1-4H,7H2
