18
gdb 48039	8.69145	0.46849	0.46083	4.2361	85.91	-0.2484	-0.0585	0.1899	2287.997	0.145536	-401.891905	-401.882115	-401.881171	-401.928984	33.158	
O	-0.0455429671	-0.0794266961	-0.2209099173	-0.229815
C	 0.0301108128	 1.0864214202	 0.0942291211	 0.018001
C	 1.2258928778	 1.8823796721	 0.0092089646	 0.043072
C	 2.2153928846	 2.5733810311	-0.0518714443	 0.084351
C	 3.4003890615	 3.4115831726	-0.1220205114	-0.360493
C	 3.1254435084	 4.883229502	 0.2366019443	-0.135069
N	 4.366330966	 5.6399269064	 0.1746413891	-0.05827
C	 4.6876561247	 6.2528338262	-1.1131502352	-0.224246
C	 4.2330179757	 7.0853119566	 0.0338953794	-0.2237
H	-0.8517809434	 1.635985531	 0.4832712662	 0.095974
H	 4.1708187063	 3.0195168842	 0.5530731693	 0.157014
H	 3.8255698827	 3.3539156331	-1.1324305311	 0.145921
H	 2.3464408113	 5.285463479	-0.4348957117	 0.094065
H	 2.7355709513	 4.9412285219	 1.258451043	 0.119968
H	 5.734607524	 6.2306298056	-1.400213456	 0.123116
H	 3.9850876439	 6.1146486103	-1.9340960263	 0.112848
H	 3.2285715627	 7.5018110742	-0.0232887238	 0.114105
H	 4.9419017968	 7.6814162797	 0.6008753301	 0.123159
24.7399	55.3378	64.8776	112.2435	166.0869	190.1895	233.5258	359.9258	408.4112	426.5942	493.8665	601.5047	771.4035	779.3338	827.976	852.6379	908.0283	1010.0597	1022.2811	1032.7159	1055.6155	1080.03	1114.2631	1120.9667	1159.4375	1168.8972	1179.8923	1241.3606	1299.4796	1312.2156	1325.6724	1397.1504	1423.6482	1459.0927	1488.8206	1498.8391	1523.0019	1767.3584	2329.8078	2912.5996	2949.7486	3028.9374	3058.8855	3076.0623	3094.1527	3099.5116	3180.765	3194.8
O=CC#CCCN1CC1	O=CC#CCCN1CC1	
InChI=1S/C7H9NO/c9-7-3-1-2-4-8-5-6-8/h7H,2,4-6H2	InChI=1S/C7H9NO/c9-7-3-1-2-4-8-5-6-8/h7H,2,4-6H2
