13
gdb 27513	2.10607	1.88612	0.99502	1.0622	65.37	-0.2387	-0.0189	0.2198	1077.6763	0.090599	-489.954906	-489.947559	-489.946615	-489.986891	27.79	
O	 0.0639845046	 1.303567494	 0.0072767629	-0.395628
C	-0.0557656386	-0.0240206058	 0.0011238309	 0.494681
C	-1.2233479138	-0.6808793232	 0.0038480109	-0.314309
C	-1.226207022	-2.1259714744	-0.003630491	 0.40679
N	-2.2980469619	-2.818623955	-0.0017291703	-0.540008
N	 0.0779688032	-2.6803366624	-0.0132710721	-0.455976
C	 1.2720084941	-2.0159607686	-0.0157474985	 0.489182
O	 2.3568138061	-2.5195253485	-0.0245864454	-0.356398
O	 1.163045583	-0.6321939017	-0.0083256333	-0.267472
H	 1.0042381394	 1.5261973082	 0.0035665585	 0.319597
H	-2.1611089342	-0.1485504948	 0.0114537714	 0.140588
H	-2.1082452131	-3.8213396098	-0.0079520895	 0.20793
H	 0.1715640233	-3.685851068	-0.0191656845	 0.271025
133.306	147.5539	185.2311	353.0597	363.4814	377.6608	498.7271	526.3421	591.3332	609.5167	652.5185	663.5619	694.6247	755.4905	815.7958	843.3917	915.4042	982.889	1021.2041	1134.9665	1196.3579	1245.4659	1285.5084	1388.7678	1419.3501	1432.1966	1723.2468	1764.9005	1889.7533	3267.656	3471.3489	3622.4405	3795.4191
OC1=CC(=N)NC(=O)O1	O[C]1C=C([NH])NC(=O)O1	
InChI=1S/C4H4N2O3/c5-2-1-3(7)9-4(8)6-2/h1,7H,(H2,5,6,8)	InChI=1S/C4H4N2O3/c5-2-1-3(7)9-4(8)6-2/h1,7H,(H2,5,6,8)
