19
gdb 6121	2.89836	1.77753	1.47432	3.9189	72.85	-0.2377	0.042	0.2797	962.6767	0.163776	-365.101541	-365.092524	-365.09158	-365.134776	32.891	
C	 0.0066682884	 1.4077180877	 0.0321123449	-0.35419
N	 0.0167698691	-0.0313340369	 0.0070185322	-0.082217
C	-0.0054922522	-0.9154429863	-1.0399419316	 0.416361
O	-0.0397891514	-0.7506540944	-2.2333116695	-0.383226
C	 0.0304826193	-2.1179939143	-0.0731031073	-0.440758
C	 0.0541437288	-1.0569532902	 1.0766482194	 0.319118
C	 1.3436090156	-1.0243794638	 1.896658891	-0.434448
C	-1.1884530906	-1.0436459332	 1.9665629869	-0.434431
H	 0.9069959508	 1.8137085759	 0.509596622	 0.126399
H	-0.0245837769	 1.752520227	-1.0043741326	 0.162761
H	-0.8718758545	 1.8003714359	 0.5587974909	 0.126399
H	-0.8583962026	-2.7510759358	-0.1071623155	 0.124656
H	 0.9260606746	-2.7369226845	-0.1565433755	 0.124655
H	 2.2218020148	-1.033119124	 1.2442774443	 0.122706
H	 1.3919505327	-0.1262514304	 2.5224413455	 0.118027
H	 1.3991755084	-1.8927329696	 2.5610382694	 0.12373
H	-1.1939579224	-1.9123135887	 2.6328309048	 0.123722
H	-1.2159714867	-0.1459521805	 2.5942266398	 0.118027
H	-2.1010781851	-1.066269134	 1.363645021	 0.122709
89.7168	121.4273	142.3611	218.0282	224.8345	259.1234	328.0535	328.4195	341.2369	450.53	540.944	561.3777	622.9923	718.3089	810.7345	900.6865	930.0044	950.9291	984.0882	1015.2232	1070.3007	1074.7076	1152.1931	1167.782	1199.5976	1224.2845	1264.4217	1307.3457	1401.4982	1406.2065	1418.0985	1442.9985	1464.7261	1480.4211	1481.7951	1489.8311	1500.0346	1506.3684	1519.6823	1873.5548	3013.0587	3029.1649	3034.6163	3062.8906	3079.4007	3095.7202	3101.1454	3110.6167	3113.7343	3127.0145	3137.114
CN1C(=O)CC1(C)C	CN1C(=O)CC1(C)C	
InChI=1S/C6H11NO/c1-6(2)4-5(8)7(6)3/h4H2,1-3H3	InChI=1S/C6H11NO/c1-6(2)4-5(8)7(6)3/h4H2,1-3H3
