16
gdb 44608	3.07056	1.8412	1.50781	3.0086	67.33	-0.2338	-0.0266	0.2072	884.8318	0.126497	-437.874002	-437.867466	-437.866522	-437.905013	25.971	
O	 0.0676512007	-0.0412905142	-0.1407229865	-0.302289
C	-0.0057137598	 1.1537632219	-0.1022894345	 0.416681
C	-1.2796727503	 2.0204948065	-0.1482360734	-0.286891
N	-0.8699262401	 3.3347367171	-0.6612790433	-0.116751
C	-0.0717944696	 4.2076549166	 0.2152975204	-0.04567
C	 0.3549739938	 3.7233215007	 1.5833180609	-0.103077
O	 1.1458993389	 2.5496497812	 1.3810639466	-0.27273
C	 1.1470720542	 2.1798655607	-0.0106905623	-0.037973
C	 0.6173598834	 3.3636228527	-0.7900593915	-0.080385
H	-2.0065081146	 1.5754804027	-0.8326025101	 0.141836
H	-1.7455949755	 2.0754488976	 0.8422765487	 0.136021
H	-0.2433649482	 5.2696089303	 0.0691449228	 0.108672
H	 0.9612186079	 4.4880363672	 2.0851515286	 0.117117
H	-0.4945235127	 3.4850936014	 2.2384989751	 0.112812
H	 2.1258897087	 1.789436937	-0.2865565572	 0.104034
H	 1.0540969932	 3.7067857006	-1.7200449343	 0.108593
102.4159	195.376	268.1302	409.856	444.9415	525.7072	624.8201	652.9516	728.4176	763.1992	779.3665	796.4241	833.6501	899.8468	937.8652	961.1924	997.8683	1019.5991	1028.344	1074.6394	1089.3437	1126.3716	1141.038	1204.2929	1219.4714	1233.7365	1271.458	1277.1235	1298.0788	1321.0179	1359.2741	1397.5275	1468.5353	1524.8557	1868.726	3007.8359	3043.8376	3047.119	3101.7034	3131.1429	3160.8478	3187.7893
O=C1CN2C3COC1C23	O=C1CN2[C@H]3CO[C@@H]1[C@@H]23	
InChI=1S/C6H7NO2/c8-4-1-7-3-2-9-6(4)5(3)7/h3,5-6H,1-2H2	InChI=1S/C6H7NO2/c8-4-1-7-3-2-9-6(4)5(3)7/h3,5-6H,1-2H2/t3-,5-,6-,7?/m0/s1
