17
gdb 29133	3.10963	1.37828	0.96139	2.3998	84.47	-0.1838	-0.0231	0.1606	1197.2407	0.137075	-418.052658	-418.044349	-418.043405	-418.085158	32.332	
C	-0.2259283231	 1.5454184086	 0.0155367382	-0.488548
C	 0.010915088	 0.0603297294	-0.0071652185	 0.221978
C	 0.1526606692	-0.6109591129	-1.1624439122	-0.052247
O	 0.3743442129	-1.9596404013	-1.2114740846	-0.234293
C	 0.4693411632	-2.7203140178	-0.0803889336	 0.368512
N	 0.7101344194	-3.9724739669	-0.1260482057	-0.566164
C	 0.2921804057	-2.0329121604	 1.2049951454	 0.25129
N	 0.3226234558	-2.8622349548	 2.2993038394	-0.579183
C	 0.0871386201	-0.6881462069	 1.2209274964	-0.253044
H	 0.5672030591	 2.0653586674	 0.5659049426	 0.129352
H	-0.260151774	 1.9598376571	-0.9954862434	 0.124286
H	-1.1729381807	 1.7885790272	 0.511682395	 0.130782
H	 0.1127483818	-0.1840893798	-2.1550373355	 0.121221
H	 0.816049773	-4.2924406962	-1.0874947447	 0.220981
H	 0.7160319102	-3.7731342175	 2.105635046	 0.271821
H	 0.5614630691	-2.4530772816	 3.1878079086	 0.248542
H	-0.0319903597	-0.1665192135	 2.1660250966	 0.084714
109.4085	161.3191	192.7607	275.8238	330.9781	345.2282	389.202	430.6508	467.1073	494.5704	535.884	580.9152	588.5593	676.4129	772.5941	798.1233	809.4022	828.1977	871.1813	990.8919	997.5738	1053.7945	1065.6068	1120.6833	1176.8612	1222.2782	1274.8252	1334.1409	1409.5705	1420.234	1452.7625	1478.3135	1496.2749	1599.4325	1646.4953	1684.7546	1721.7173	3024.4051	3074.5712	3113.1551	3168.7243	3229.6714	3506.3052	3558.8822	3688.8337
CC1=COC(=N)C(N)=C1	CC1=COC(=C(N)C1)[NH]	
InChI=1S/C6H8N2O/c1-4-2-5(7)6(8)9-3-4/h2-3,8H,7H2,1H3	InChI=1S/C6H9N2O/c1-4-2-5(7)6(8)9-3-4/h3,8H,2,7H2,1H3
