20
gdb 98352	3.71454	0.82041	0.7359	2.9053	77.33	-0.2508	-0.029	0.2217	1586.5617	0.16845	-440.342289	-440.331762	-440.330818	-440.378971	36.701	
C	 0.0581019783	 1.5136698035	 0.1316631822	-0.379915
C	-0.142032629	 0.0377719026	-0.2092124117	-0.284552
C	 0.7831033267	-0.4552448057	-1.3080597146	 0.379314
O	 1.4257558211	 0.3069129307	-1.9982010764	-0.318494
C	 0.8757309375	-1.9700266061	-1.5239765342	-0.050002
C	-0.4889836213	-2.5944042815	-1.8778511931	-0.407894
N	 1.8699279707	-2.2154015435	-2.5478701736	-0.278046
C	 2.4592238195	-3.4227755344	-2.7168529645	 0.151939
O	 2.1625330526	-4.4312328743	-2.1057229567	-0.335601
H	 1.0683168459	 1.696239562	 0.5080141745	 0.130435
H	-0.0785256793	 2.1381133277	-0.7538445423	 0.138933
H	-0.6560441641	 1.8299993896	 0.8964353654	 0.1159
H	-0.0127796137	-0.6029829408	 0.6722611451	 0.125444
H	-1.1724574599	-0.1426733676	-0.5452146984	 0.139275
H	 1.2149882413	-2.4246761618	-0.5824408136	 0.121237
H	-0.3443359354	-3.6626953633	-2.046600181	 0.165039
H	-1.2064234391	-2.4669553855	-1.0629669238	 0.121195
H	-0.8988330109	-2.1425958691	-2.7862546002	 0.124157
H	 2.2331638966	-1.3897880118	-3.0050872745	 0.26089
H	 3.2501959324	-3.3957881509	-3.4919899886	 0.080747
44.7419	52.7486	83.4343	143.1062	188.1733	213.1789	243.939	254.8343	296.7431	321.6359	383.9856	468.5705	546.0512	612.4426	658.4684	741.1576	797.0059	858.7234	897.4696	986.4511	1010.0388	1028.1121	1034.7187	1089.7452	1118.9944	1126.5709	1165.3879	1225.0305	1275.1502	1307.813	1358.7025	1378.8163	1399.1588	1414.5677	1424.5821	1452.0203	1479.3297	1493.6467	1499.8644	1509.6618	1515.9817	1785.1364	1801.2134	2941.5764	3013.0534	3024.8786	3048.0327	3053.6567	3056.7363	3123.042	3123.7226	3134.7348	3146.4837	3587.8663
CCC(=O)C(C)NC=O	CCC(=O)[C@@H](C)NC=O	
InChI=1S/C6H11NO2/c1-3-6(9)5(2)7-4-8/h4-5H,3H2,1-2H3,(H,7,8)	InChI=1S/C6H11NO2/c1-3-6(9)5(2)7-4-8/h4-5H,3H2,1-2H3,(H,7,8)/t5-/m1/s1
