15
gdb 24979	4.68916	1.31184	1.04432	4.6358	69.11	-0.1916	0.0335	0.225	1086.0898	0.115363	-453.942016	-453.935062	-453.934118	-453.973497	26.765	
N	-0.0695854846	 1.2292838741	-0.0235328281	-0.566497
C	-0.0182119733	-0.0229302888	-0.0359871225	 0.465182
O	-1.1186051757	-0.8227039599	-0.1659709703	-0.232548
C	-0.6310688625	-2.1252632523	-0.244222216	 0.187449
C	 0.680296343	-2.0977248165	-0.071040359	 0.324649
N	 1.2833824268	-3.3043777459	 0.2556675848	-0.398214
C	 0.1772511301	-4.2835444373	-0.0465810911	-0.169064
C	-1.1767956557	-3.4854255752	 0.0261291347	-0.331648
O	 1.1368834022	-0.8169540895	 0.0563632416	-0.260554
H	 0.8576405622	 1.6300115026	 0.0866006933	 0.238739
H	 2.135127371	-3.5183390248	-0.2534791849	 0.244749
H	 0.2995999249	-4.6833969217	-1.0594075383	 0.120955
H	 0.2133887225	-5.1112654766	 0.6633164918	 0.12751
H	-1.6296639849	-3.5548577257	 1.0249692264	 0.125688
H	-1.9028378559	-3.8730611325	-0.6946533121	 0.123605
114.0319	174.2191	244.4715	287.9625	319.7073	523.1666	567.2036	627.8968	694.3377	719.6049	728.0727	765.7087	812.0063	823.1994	869.3164	893.7717	948.4939	976.9349	997.7579	1082.051	1097.2465	1180.5823	1212.7913	1267.235	1272.8258	1327.5024	1356.1834	1359.3345	1463.1666	1503.0052	1518.3723	1776.3477	1829.9728	3008.5244	3039.668	3071.7887	3117.3077	3513.2251	3553.6238
N=C1OC2=C(NCC2)O1	[NH][C@H]1OC2=C(NCC2)O1	
InChI=1S/C5H6N2O2/c6-5-8-3-1-2-7-4(3)9-5/h6-7H,1-2H2	InChI=1S/C5H7N2O2/c6-5-8-3-1-2-7-4(3)9-5/h5-7H,1-2H2/t5-/m0/s1
