15
gdb 51024	2.33435	1.3425	0.99466	1.6633	68.18	-0.2835	-0.0124	0.2711	1179.8658	0.111038	-453.91406	-453.905243	-453.904299	-453.94908	30.032	
N	-0.0817534612	 1.3125713561	 0.0708011013	-0.423832
C	-0.0015653164	 0.0610276677	-0.0137269837	 0.112449
O	-1.1524467569	-0.6655427705	-0.0999099971	-0.22692
C	-1.0496660173	-2.0714684592	 0.0022662071	 0.191343
C	-0.9041071196	-2.6452769572	 1.4438731073	-0.108162
O	-2.2081316267	-3.2410045633	 1.3821819382	-0.256916
C	-2.4547348038	-2.7200174117	 0.0656711826	-0.10851
C	-0.1347066938	-2.6354993296	-0.9942814227	 0.245911
N	 0.5922574645	-3.0892723039	-1.7696724762	-0.324232
H	 0.8484048844	 1.7252090537	 0.1018445048	 0.242522
H	 0.9103023162	-0.5463840307	-0.0468498432	 0.118256
H	-0.1105410915	-3.3858405555	 1.5862719929	 0.131206
H	-0.8318375526	-1.8571920549	 2.2021210644	 0.130794
H	-3.2493228961	-1.9673064359	 0.0442758116	 0.141183
H	-2.6499005091	-3.507177925	-0.6683190172	 0.134906
50.0982	78.0285	79.5884	147.2454	187.3042	226.9421	378.9156	410.0595	489.2414	541.89	570.0027	725.9042	824.4182	844.2739	911.8956	960.3635	980.0008	1040.0431	1054.3153	1062.9569	1073.0086	1152.8564	1160.9692	1183.8383	1244.0494	1275.1953	1309.6817	1376.0135	1423.3065	1496.0321	1520.9581	1751.8081	2354.3301	3030.64	3047.3124	3057.504	3091.3986	3106.0589	3521.7017
N=COC1(COC1)C#N	[NH][CH]OC1(COC1)C#N	
InChI=1S/C5H6N2O2/c6-1-5(9-4-7)2-8-3-5/h4,7H,2-3H2	InChI=1S/C5H6N2O2/c6-1-5(9-4-7)2-8-3-5/h4,7H,2-3H2
