19
gdb 73418	2.63039	2.30772	1.609	1.4932	76.88	-0.2325	0.0924	0.3248	891.2591	0.161195	-385.850923	-385.844187	-385.843243	-385.881513	28.571	
C	 0.0177883915	 1.4508742983	-0.0453259521	-0.47526
C	-0.0259106164	-0.0574905411	-0.0008418012	 0.469968
O	 0.3466723649	-0.585246643	-1.2681237692	-0.321123
C	-0.1349293927	-1.9360313476	-1.3429380181	-0.092425
C	-0.8623036126	-2.1723564109	-0.0187196693	-0.068538
C	 0.061025209	-2.151141501	 1.2105755021	-0.083488
C	-0.6891745191	-1.0218432837	 1.8708077572	-0.10993
C	 0.641661525	-0.7317483576	 1.2139458429	-0.129027
C	-1.3336763194	-0.7671834786	 0.4651182073	-0.140155
H	 1.0321786825	 1.7977732397	-0.2665289506	 0.124067
H	-0.6488069344	 1.8301232707	-0.8255525822	 0.120149
H	-0.2865468212	 1.8713798354	 0.9174039325	 0.119481
H	-0.7980999038	-2.0290815205	-2.2139807586	 0.093577
H	 0.7077463335	-2.6266361914	-1.4794537044	 0.097309
H	-1.6083952102	-2.9676830918	-0.0216316159	 0.070285
H	 0.5860682428	-2.9776991878	 1.6719343337	 0.085455
H	-1.0339852112	-0.8759576708	 2.882524888	 0.091742
H	 1.592312891	-0.5010496573	 1.6782059946	 0.081551
H	-2.3188012892	-0.3648714909	 0.2391990733	 0.066363
204.4266	225.9778	271.414	295.188	409.8605	508.2833	582.6036	667.6276	703.0254	786.708	803.4675	814.6271	824.1022	856.4731	872.9209	887.4498	914.3369	932.1641	966.4216	999.3603	1019.1464	1033.3156	1036.297	1062.6578	1075.7752	1120.2474	1154.5486	1160.28	1181.7304	1186.4116	1215.2895	1237.3199	1268.7256	1304.1176	1329.9317	1366.7988	1385.8418	1412.8415	1480.9963	1495.8999	1520.708	3001.4955	3036.4503	3039.5485	3108.4515	3109.9988	3118.7911	3139.6763	3189.3842	3198.0752	3239.2776
CC12OCC3C4C(C14)C23	C[C@@]12OC[C@H]3[C@@H]4[C@@H]([C@H]14)[C@@H]23	
InChI=1S/C8H10O/c1-8-6-3(2-9-8)4-5(6)7(4)8/h3-7H,2H2,1H3	InChI=1S/C8H10O/c1-8-6-3(2-9-8)4-5(6)7(4)8/h3-7H,2H2,1H3/t3-,4+,5+,6-,7+,8-/m0/s1
