21
gdb 68588	2.10585	1.86009	1.59653	2.8185	78.09	-0.2271	0.0674	0.2944	1009.6634	0.181527	-424.212914	-424.204086	-424.203142	-424.245376	35.321	
C	-0.1508642105	 1.5425102884	-0.0935742149	-0.489736
C	-0.0023820327	 0.0273340715	-0.0210689368	 0.410502
O	-1.2734630452	-0.5800292419	-0.1110338764	-0.477089
C	 1.1666488527	-0.6109658875	-0.8657564033	-0.150876
C	 2.1145212683	-0.2042788417	 0.3043851318	-0.297776
C	 0.8574646285	-0.5650848324	 1.1437335091	 0.417952
C	 0.6455755944	-0.2507225485	 2.5970058053	-0.505492
O	 0.7531464891	-1.9834743494	 0.9139944177	-0.311202
C	 0.9447117677	-2.0858540232	-0.5159587246	-0.075776
H	 0.791596802	 2.0843325204	-0.0059335387	 0.126055
H	-0.5964490155	 1.8270811596	-1.0561217303	 0.109474
H	-0.8215416545	 1.8883346992	 0.6995742919	 0.129883
H	-1.791963635	-0.0988167849	-0.7636646396	 0.275901
H	 1.3574675777	-0.3499096569	-1.9070143834	 0.061517
H	 2.9858503459	-0.8386664022	 0.4786662533	 0.102374
H	 2.3999004127	 0.8460584732	 0.31606637	 0.099235
H	 0.7487992528	 0.8222345777	 2.7831221089	 0.113524
H	-0.3554432598	-0.5660657985	 2.9060517969	 0.137772
H	 1.376698564	-0.7817531372	 3.213904825	 0.12769
H	 0.0484048913	-2.5075132964	-0.9797704365	 0.104861
H	 1.811744426	-2.7194599291	-0.7359767556	 0.091208
178.4624	192.2571	204.8456	222.1116	232.9137	276.6588	321.9463	356.3712	406.5734	473.0025	507.4788	561.459	628.1222	668.9121	732.3979	796.2456	855.7411	888.4666	911.3608	945.4477	954.2465	971.255	990.2339	1015.6692	1074.7815	1099.4881	1123.1943	1147.0672	1170.5613	1186.2059	1196.0527	1208.8936	1242.3651	1269.9725	1320.296	1358.6816	1387.6213	1409.0488	1416.4967	1478.9077	1486.9148	1494.1681	1495.6289	1504.0608	1518.2464	3020.5448	3031.5508	3041.8918	3082.784	3086.5535	3087.4639	3114.382	3114.6357	3117.0534	3132.4169	3156.3354	3814.7887
CC1(O)C2CC1(C)OC2	C[C@@]1(O)[C@H]2C[C@]1(C)OC2	
InChI=1S/C7H12O2/c1-6-3-5(4-9-6)7(6,2)8/h5,8H,3-4H2,1-2H3	InChI=1S/C7H12O2/c1-6-3-5(4-9-6)7(6,2)8/h5,8H,3-4H2,1-2H3/t5-,6-,7+/m0/s1
