20
gdb 126794	3.00102	1.25139	0.95963	3.0701	83.4	-0.2012	0.0367	0.238	1290.0356	0.171676	-399.358956	-399.349121	-399.348176	-399.394163	35.268	
C	-0.1596546109	 1.551182022	-0.0409756043	-0.375632
C	 0.0478629662	 0.0348676947	-0.0132194859	-0.145433
N	 0.7522334078	-0.4618777749	-1.1792090299	 0.012077
N	 0.0817374333	-0.673596866	-2.3383207971	-0.291128
C	 1.0093863058	-1.1110127347	-3.1823462963	-0.071527
C	 2.2949211091	-1.1674729467	-2.600870417	 0.136101
C	 3.5902839331	-1.5956395661	-3.217751464	-0.520219
C	 2.081269992	-0.7288985917	-1.3016960206	 0.272531
N	 2.9482293564	-0.6104741843	-0.2036601631	-0.613173
H	 0.7961623309	 2.0856136744	-0.0437587745	 0.110566
H	-0.7127777786	 1.8378749062	-0.9389944919	 0.146238
H	-0.727199794	 1.8736854578	 0.8375094797	 0.117744
H	 0.6236069487	-0.2699333704	 0.865626714	 0.127728
H	-0.9173442633	-0.477218088	 0.0171666825	 0.130873
H	 0.7307690043	-1.368395631	-4.1952055338	 0.100099
H	 4.438320642	-1.0344282313	-2.8060702205	 0.107735
H	 3.8040816425	-2.6614240026	-3.0645738532	 0.126056
H	 3.5855206596	-1.4224891828	-4.2981845037	 0.129643
H	 3.8579462088	-0.9999049012	-0.4157224826	 0.250605
H	 3.0741735662	 0.3475978066	 0.1062268322	 0.249118
52.1426	85.9585	95.362	179.6229	207.0273	224.9598	255.0178	295.7298	316.4279	397.8794	499.7388	585.6971	661.4248	679.5515	730.2914	748.9695	793.9475	809.4869	872.464	963.7433	998.5818	1018.9825	1062.3073	1081.9875	1101.9641	1213.0842	1218.9776	1240.8635	1294.682	1353.4938	1388.3719	1396.8433	1408.4501	1425.5142	1450.4298	1480.183	1487.3239	1488.4141	1500.1313	1505.0643	1548.2209	1615.0043	1661.7817	3012.1694	3037.8414	3057.7	3063.0359	3096.74	3099.7344	3115.0639	3131.5363	3227.9278	3509.605	3609.5939
CCN1N=CC(C)=C1N	CCn1ncc(C)c1N	
InChI=1S/C6H11N3/c1-3-9-6(7)5(2)4-8-9/h4H,3,7H2,1-2H3	InChI=1S/C6H11N3/c1-3-9-6(7)5(2)4-8-9/h4H,3,7H2,1-2H3
