18
gdb 80264	3.15015	1.34037	1.1924	3.9938	80.5	-0.2263	-0.045	0.1814	1092.7154	0.148684	-401.958507	-401.950605	-401.94966	-401.991105	30.45	
C	-0.4037643552	 1.4089821853	 0.2127329792	-0.416844
C	-0.0611658542	-0.0420725259	-0.0144244347	-0.010993
C	 0.7441723158	-0.5120819611	-1.1962538737	-0.041711
C	 1.3584400419	 0.4183571537	-2.2336414174	-0.361472
C	 2.8145631699	 0.8149215416	-1.930366486	 0.369052
O	 3.5461490435	 1.200918746	-2.8214898638	-0.33931
C	 3.2008290577	 0.801793367	-0.5186854842	-0.192122
C	 2.3975410337	 0.2718334733	 0.4273856945	-0.010592
N	 1.3151849574	-0.5477288685	 0.1496385009	-0.096071
H	 0.4039050074	 2.075662956	-0.0981641278	 0.135849
H	-1.3056854746	 1.6726577147	-0.350016177	 0.132467
H	-0.6067193121	 1.5984548001	 1.2715499018	 0.131887
H	-0.8047196289	-0.7420024855	 0.3625482052	 0.104326
H	 0.5074032838	-1.5082228225	-1.5640844514	 0.106535
H	 1.3416779656	-0.0496188967	-3.2201237192	 0.133753
H	 0.7961948914	 1.3552935327	-2.3315782991	 0.131347
H	 4.1327527938	 1.2875700659	-0.2548820168	 0.105111
H	 2.6078242532	 0.3906925439	 1.4884720994	 0.118787
63.6775	161.75	180.8139	243.4383	327.2475	432.5265	448.2846	459.1014	509.0566	552.8927	639.7597	692.6827	762.2907	783.2705	837.2291	861.5236	937.1028	948.7909	983.5804	1016.6623	1043.4002	1080.3168	1098.1505	1151.3912	1181.3959	1199.7018	1218.7195	1246.8225	1304.8636	1358.6459	1381.2688	1413.3621	1425.3148	1438.6887	1464.3889	1491.4023	1501.9614	1636.3648	1768.6641	3036.1128	3040.8201	3101.1893	3104.7335	3116.5143	3126.1503	3136.4161	3148.7488	3207.5458
CC1C2CC(=O)C=CN12	C[C@H]1[C@H]2CC(=O)C=CN12	
InChI=1S/C7H9NO/c1-5-7-4-6(9)2-3-8(5)7/h2-3,5,7H,4H2,1H3	InChI=1S/C7H9NO/c1-5-7-4-6(9)2-3-8(5)7/h2-3,5,7H,4H2,1H3/t5-,7+,8?/m0/s1
