18
gdb 95050	2.26448	1.96738	1.25978	3.6122	71.78	-0.2468	0.0269	0.2737	1016.2228	0.149086	-439.11833	-439.110507	-439.109563	-439.150613	30.142	
C	-0.0814867386	 1.5524023534	-0.0744540015	-0.410711
C	 0.040766586	 0.0418310253	 0.0168524266	 0.127567
O	 0.7961323172	-0.4420978675	-1.09859215	-0.258074
C	 1.1703986989	-1.7749012651	-0.7940072421	-0.101509
C	 1.5339349006	-1.7741529384	 0.6948652181	 0.006777
N	 2.786928392	-1.094732606	 1.0431466108	-0.321004
C	 2.2008765689	 0.0763762213	 1.4654528602	 0.440256
O	 2.6505885644	 1.1289153166	 1.8303464874	-0.365919
C	 0.7825376556	-0.5163275803	 1.2435692491	-0.224469
H	 0.8984362594	 2.0275937064	 0.0032551382	 0.15244
H	-0.5414313631	 1.8311974233	-1.0262042466	 0.124483
H	-0.7111115579	 1.9293205657	 0.737039612	 0.119911
H	-0.9645576464	-0.4152872426	-0.0080482789	 0.067366
H	 0.3311089033	-2.4711794192	-0.9615769469	 0.092922
H	 1.9955905759	-2.0584686181	-1.4533457904	 0.11037
H	 1.3907987254	-2.7353871021	 1.1932136905	 0.089199
H	 3.7382420702	-1.2757745003	 0.7544175886	 0.248819
H	 0.1691944683	-0.6237531623	 2.1376569049	 0.101576
96.2275	158.7289	203.4314	234.839	307.9441	366.6834	415.0665	455.605	534.9569	578.3836	679.003	746.7011	800.081	848.7744	860.6882	884.8238	916.8238	979.5722	1001.8766	1042.2755	1072.991	1090.1138	1125.7323	1155.9713	1170.7815	1179.9534	1230.3139	1266.9292	1273.2726	1343.747	1354.9091	1369.4756	1384.1162	1397.5328	1419.1512	1487.2566	1495.0083	1501.1432	1889.7057	2939.4408	2965.6214	3051.2877	3088.0026	3089.4244	3120.8269	3128.2206	3142.5345	3595.362
CC1OCC2NC(=O)C12	C[C@H]1OC[C@H]2NC(=O)[C@@H]12	
InChI=1S/C6H9NO2/c1-3-5-4(2-9-3)7-6(5)8/h3-5H,2H2,1H3,(H,7,8)	InChI=1S/C6H9NO2/c1-3-5-4(2-9-3)7-6(5)8/h3-5H,2H2,1H3,(H,7,8)/t3-,4-,5+/m1/s1
