12
gdb 23717	5.81585	1.51347	1.20095	0.5959	59.45	-0.2326	-0.033	0.1996	885.016	0.085318	-422.691216	-422.685236	-422.684292	-422.721305	23.195	
O	 0.08662791	 1.338034076	 0.0976189813	-0.419263
C	 0.0670786829	-0.0118163374	 0.0580087276	 0.439196
N	 0.0945183821	-0.5915366892	-1.1353365321	-0.34828
C	 0.0755994909	-1.9280692362	-1.1887753648	-0.112235
C	 0.0288343747	-2.7083655755	-0.0472812637	 0.23805
F	 0.0114695235	-4.0416743751	-0.1501589619	-0.080805
C	 2.238*^-6	-2.1024720182	 1.2048458955	-0.192704
C	 0.0194151597	-0.7197644756	 1.265335986	-0.195718
H	 0.1191807739	 1.6315430618	-0.8231568073	 0.299711
H	 0.0983104331	-2.3941799877	-2.1696110893	 0.125933
H	-0.0366539011	-2.711645672	 2.1007236952	 0.125398
H	-0.0010583677	-0.1856821008	 2.2068478335	 0.120715
153.7873	347.2278	378.2949	446.6924	447.3655	490.0227	497.9962	561.9939	652.4916	771.9199	777.2985	858.4026	885.1479	943.1843	973.7541	1028.1258	1126.0599	1187.1147	1278.1303	1299.2484	1343.139	1353.5638	1457.6101	1528.1078	1636.2166	1659.6442	3175.2199	3201.0123	3217.891	3773.6378
OC1=NC=C(F)C=C1	Oc1ncc(F)cc1	
InChI=1S/C5H4FNO/c6-4-1-2-5(8)7-3-4/h1-3H,(H,7,8)	InChI=1S/C5H4FNO/c6-4-1-2-5(8)7-3-4/h1-3H,(H,7,8)
