16
gdb 50900	7.15669	0.61979	0.57439	5.0772	74.03	-0.2541	-0.0346	0.2195	1811.1933	0.121291	-437.902238	-437.892377	-437.891433	-437.939031	33.5	
O	-0.4772702643	 0.1554151162	 0.0063993133	-0.247981
C	-0.1254708361	 1.3008437413	 0.0094601439	 0.16623
N	 1.1878939587	 1.7685310128	-0.0002962991	-0.35913
C	 2.3744707422	 1.0163688833	-0.0156764184	 0.442935
O	 2.4000160279	-0.186711686	-0.0228392666	-0.296305
C	 3.6253246244	 1.8903849918	-0.0223716733	-0.335834
C	 4.90812534	 1.0442661934	-0.0399516399	-0.353671
C	 6.108457923	 1.8703315054	-0.0463305579	 0.279574
C	 7.0827504622	 2.5739669537	-0.0513227697	-0.422823
H	-0.8306143483	 2.1576012011	 0.0208707102	 0.087093
H	 1.2891814999	 2.7735167843	 0.0044097224	 0.257441
H	 3.5959829755	 2.5549367482	-0.8946984101	 0.139487
H	 3.6128617572	 2.5440571185	 0.8585397399	 0.139529
H	 4.910040729	 0.3761494472	 0.827912181	 0.15337
H	 4.8933230254	 0.3870107558	-0.9159496358	 0.153345
H	 7.9559706834	 3.1779809731	-0.0559140299	 0.196741
29.8996	42.1937	89.5768	95.4528	180.2246	218.4028	273.2283	330.0262	344.4406	510.6864	554.1375	563.4723	624.2686	635.9741	649.9656	787.585	806.1127	919.2517	980.2561	1025.627	1036.0829	1043.9064	1103.0746	1161.5775	1176.121	1292.9502	1304.9068	1381.4601	1446.3109	1458.3969	1470.9896	1504.7129	1812.2897	1874.8936	2241.8603	2919.5695	3032.3732	3052.0968	3064.5974	3088.879	3507.1246	3605.4724
O=CNC(=O)CCC#C	O=CNC(=O)CCC#C	
InChI=1S/C6H7NO2/c1-2-3-4-6(9)7-5-8/h1,5H,3-4H2,(H,7,8,9)	InChI=1S/C6H7NO2/c1-2-3-4-6(9)7-5-8/h1,5H,3-4H2,(H,7,8,9)
