15
gdb 129401	4.29159	1.12148	0.89375	9.4148	85.55	-0.1595	-0.0477	0.1119	1215.683	0.113149	-450.113355	-450.10509	-450.104146	-450.146017	31.684	
N	 0.0616432014	 1.3339041959	 0.1612805532	-0.556192
C	-0.0401026255	-0.0110668713	-0.0052476518	 0.513621
N	 1.1032597661	-0.7280361189	-0.2032925407	-0.549888
H	 1.8927384541	-0.4422152242	 0.3601678858	 0.268129
H	 0.9212893205	-1.7263347399	-0.200872332	 0.292404
N	-1.2195806065	-0.6054828613	-0.0000796715	 0.014022
C	-2.5148475251	-0.092539976	-0.029395607	-0.292285
C	-3.4173635067	-1.1808876009	 0.0097947082	 0.258822
O	-4.6480169765	-1.2574607997	-0.0087599419	-0.436741
C	-2.4633964509	-2.3401224128	 0.085657272	-0.060765
N	-1.2102337887	-2.0164315935	 0.0800096414	-0.259001
H	 0.8019654751	 1.8059463003	-0.3335757043	 0.279737
H	-0.7946656317	 1.8525219234	 0.2686060668	 0.28878
H	-2.7037684402	 0.9565450102	-0.1767523613	 0.104097
H	-2.7467504557	-3.3843846113	 0.144455483	 0.13526
95.9357	116.0018	213.808	297.9275	365.4234	383.6578	406.3069	428.8316	453.8111	490.4747	534.3853	566.6944	616.8597	634.9527	719.1277	728.9791	742.104	863.7294	935.5776	951.9374	1038.1229	1114.9754	1151.2591	1168.6196	1259.1304	1272.2443	1356.0328	1521.2638	1571.0103	1617.6622	1643.6983	1721.4118	1737.8807	3217.0479	3271.0459	3517.8173	3597.1204	3631.8975	3712.0484
NC(=[NH2+])N1C=C([O-])C=N1	NC(=[NH2])N1[CH]C(=O)C=N1	
InChI=1S/C4H6N4O/c5-4(6)8-2-3(9)1-7-8/h1-2,9H,(H3,5,6)	InChI=1S/C4H6N4O/c5-4(6)8-2-3(9)1-7-8/h1-2H,5-6H2
