15
gdb 42316	3.53699	1.15622	0.97556	3.0662	68.	-0.2611	-0.0685	0.1926	1175.0812	0.111271	-457.726139	-457.717662	-457.716718	-457.760688	29.517	
O	-0.1027892884	-0.072227146	 0.3208215104	-0.274139
C	-0.0822696016	 1.1258679321	 0.1667267432	 0.213362
C	 1.1521333722	 1.8807727232	 0.0229217379	 0.257089
C	 2.147817648	 2.5454327575	-0.1060956999	-0.412673
C	-1.3513382048	 1.9790554654	 0.0622556825	-0.028022
C	-1.6491120777	 2.3527666535	-1.4325265382	-0.123728
O	-2.9688925332	 1.8829939642	-1.6370293908	-0.231002
C	-3.1539818807	 0.8513767965	-0.6980819458	 0.010772
O	-2.4957950363	 1.2738062481	 0.4789019488	-0.223294
H	 3.0405939478	 3.1124742149	-0.2170451263	 0.221337
H	-1.2345860913	 2.8693323294	 0.6892274956	 0.114693
H	-1.6271170751	 3.4291020037	-1.6131989362	 0.129451
H	-0.9407411679	 1.8624146988	-2.1150408659	 0.11399
H	-4.221038276	 0.7405687872	-0.4917759588	 0.126496
H	-2.7224738849	-0.0968311484	-1.0579524064	 0.105668
41.6936	57.1402	124.8864	194.1799	231.2201	285.7942	314.3129	457.4164	590.8739	658.0601	693.7619	715.2291	742.2775	760.3038	811.8874	945.0108	952.1258	1003.3868	1047.5466	1078.6325	1105.6942	1152.412	1189.053	1217.2015	1246.0843	1279.6763	1356.9972	1362.9305	1428.2511	1518.4162	1541.1198	1783.6416	2207.9972	2975.3627	3006.4833	3056.5648	3106.7158	3110.4056	3491.5582
O=C(C#C)C1COCO1	O=C(C#C)[C@H]1COCO1	
InChI=1S/C6H6O3/c1-2-5(7)6-3-8-4-9-6/h1,6H,3-4H2	InChI=1S/C6H6O3/c1-2-5(7)6-3-8-4-9-6/h1,6H,3-4H2/t6-/m1/s1
