23
gdb 76738	1.97471	1.7271	1.13083	1.3298	86.23	-0.2365	0.0703	0.3068	1207.1565	0.20362	-388.27732	-388.267022	-388.266078	-388.311641	39.032	
C	-0.153533287	 1.5894155557	 0.0617271439	-0.415575
C	 0.0278642752	 0.0764863756	 0.0329422098	-0.072706
C	 1.1225636426	-0.5386954383	-0.9206549518	 0.028761
O	 2.0032225116	 0.3426527293	-1.5924367701	-0.430205
C	 1.7649266745	-1.2470847298	 0.2662802378	 0.319537
C	 2.3619625519	-2.6249812142	 0.2123485462	-0.508307
C	 2.157241809	-0.2131834867	 1.2904584261	-0.383578
C	 0.712456458	-0.6334820497	 1.2131894313	 0.304494
C	-0.0228179315	-1.2559781701	 2.3665259468	-0.499326
H	 0.796050089	 2.1107582082	 0.2054689907	 0.126565
H	-0.5894367087	 1.9510500159	-0.8773280666	 0.100921
H	-0.8301273312	 1.8868036195	 0.8702067302	 0.113169
H	-0.9372469374	-0.4008837938	-0.1749852689	 0.060333
H	 0.6791031963	-1.2537131222	-1.6278751173	 0.058555
H	 1.5195879619	 0.7597329329	-2.3126058919	 0.281312
H	 3.317200338	-2.620652229	-0.3261469233	 0.127097
H	 2.5550734293	-3.0147772377	 1.2173867378	 0.114137
H	 1.6974853598	-3.3326734037	-0.2975257472	 0.110215
H	 2.7006825679	-0.6104791067	 2.1434444448	 0.100983
H	 2.4875984586	 0.7732361928	 0.9805226712	 0.117297
H	-0.4166256703	-0.4921392758	 3.0484221821	 0.119376
H	-0.8718120213	-1.8584326787	 2.0218845753	 0.11147
H	 0.6327278539	-1.9077365834	 2.9540598632	 0.115474
105.9255	161.7104	174.2394	186.1196	196.1294	212.2257	237.4358	254.3973	284.6075	322.5212	365.6435	482.1623	505.3317	569.4916	651.9073	691.9609	714.5492	781.1169	845.2341	906.5366	959.8862	984.5587	985.8939	1008.9647	1058.2561	1065.0791	1086.2266	1105.0105	1132.6644	1138.2774	1179.5187	1210.846	1248.0298	1265.695	1281.4652	1345.8401	1361.8839	1393.2735	1409.3657	1412.2185	1423.4331	1441.9921	1483.6956	1488.2813	1492.68	1496.0329	1496.3729	1502.5724	1517.6831	2992.3458	3015.5365	3019.3741	3025.7278	3033.243	3072.1532	3076.9151	3085.2293	3088.4331	3092.4324	3117.8148	3121.1617	3198.8912	3814.7171
CC1C(O)C2(C)CC12C	C[C@H]1[C@@H](O)[C@@]2(C)C[C@@]12C	
InChI=1S/C8H14O/c1-5-6(9)8(3)4-7(5,8)2/h5-6,9H,4H2,1-3H3	InChI=1S/C8H14O/c1-5-6(9)8(3)4-7(5,8)2/h5-6,9H,4H2,1-3H3/t5-,6+,7-,8+/m0/s1
