13
gdb 49206	3.28073	1.3136	0.94345	6.2902	68.16	-0.2418	-0.1088	0.133	1133.9227	0.08756	-456.605895	-456.598039	-456.597095	-456.63905	27.656	
O	-0.1772996859	 0.0041103664	 0.0023186837	-0.233935
C	-0.036299624	 1.1996734036	 0.0089998274	 0.087816
C	 1.2635145382	 1.9053106409	 0.000545831	 0.116582
C	 1.3716371898	 3.2500268094	 0.0098178122	-0.14712
C	 2.7815576329	 3.7650137628	-0.0011659324	-0.394083
C	 3.6185576632	 2.4826203795	-0.0201321772	 0.329821
O	 4.8120221526	 2.3881048209	-0.0337022191	-0.261707
C	 2.6167872176	 1.2818361072	-0.0186113508	 0.218119
O	 2.9359913089	 0.1246144653	-0.0313792982	-0.260471
H	-0.9117631888	 1.890109694	 0.0227322955	 0.076966
H	 0.5141311377	 3.9177829047	 0.0240506643	 0.139181
H	 2.9970638131	 4.3903119293	-0.8762854725	 0.164415
H	 3.0157436447	 4.3765800661	 0.8788452162	 0.164416
61.096	105.4465	165.2707	251.2758	285.8832	315.8893	431.997	432.1255	536.1726	623.6629	677.9408	737.3216	745.7921	827.5591	962.5294	978.0251	992.9769	1041.5985	1069.1239	1147.6096	1238.0889	1285.6186	1355.1778	1426.0859	1431.1211	1647.5764	1801.0002	1847.9898	1872.2831	2857.2571	3039.4313	3070.8177	3172.5148
O=CC1=CCC(=O)C1=O	O=CC1=CCC(=O)C1=O	
InChI=1S/C6H4O3/c7-3-4-1-2-5(8)6(4)9/h1,3H,2H2	InChI=1S/C6H4O3/c7-3-4-1-2-5(8)6(4)9/h1,3H,2H2
