15
gdb 25031	4.21369	1.07807	0.91059	4.2506	69.47	-0.1978	0.0173	0.215	1220.7993	0.113995	-453.977846	-453.970134	-453.96919	-454.010519	28.769	
O	 0.0809666163	-0.0148997084	 0.1234152933	-0.425448
C	 0.0083960172	 1.1956097223	 0.1009078177	 0.450827
N	-1.1250173205	 1.992188618	-0.0438784924	-0.338986
C	-0.791210876	 3.3418673044	-0.0958223004	-0.194034
C	 0.5484772187	 3.4319000381	 0.0594117912	 0.352261
N	 1.0326295514	 2.1324393604	 0.2112785486	-0.41659
C	 1.4299590491	 4.60184886	 0.1356123854	-0.036118
C	 2.5378379681	 4.7034796648	 1.1040873295	-0.189841
O	 2.7934343993	 4.3867542409	-0.2657796125	-0.243507
H	-2.0374134064	 1.5932188178	-0.1745594723	 0.270743
H	-1.5309319907	 4.1168181822	-0.2003329429	 0.141889
H	 2.0030911073	 1.8785213072	 0.1352893818	 0.2753
H	 0.987174059	 5.5283937725	-0.2272887566	 0.105802
H	 2.8765772449	 5.6863218192	 1.4285410295	 0.125016
H	 2.7034082623	 3.8937760507	 1.8126102002	 0.122687
82.9024	131.2206	147.6441	229.9229	385.0679	409.1933	476.3386	501.5513	517.4311	637.5615	654.2741	720.655	753.5521	766.5304	832.1659	891.2087	977.1885	980.5607	1023.8107	1091.0529	1096.1257	1150.2334	1166.2625	1189.4588	1246.9849	1277.9005	1329.9681	1394.784	1429.1296	1438.7881	1523.1633	1687.0715	1849.6153	3086.5259	3124.499	3177.8387	3283.4044	3679.1577	3697.3988
O=C1NC=C(N1)C1CO1	O=c1[nH]cc([nH]1)[C@H]1CO1	
InChI=1S/C5H6N2O2/c8-5-6-1-3(7-5)4-2-9-4/h1,4H,2H2,(H2,6,7,8)	InChI=1S/C5H6N2O2/c8-5-6-1-3(7-5)4-2-9-4/h1,4H,2H2,(H2,6,7,8)/t4-/m1/s1
