23
gdb 76200	2.11501	1.38452	1.16061	2.0546	85.99	-0.237	0.0684	0.3054	1240.2819	0.203836	-388.263067	-388.252954	-388.25201	-388.297545	37.737	
C	-0.0714144773	 0.8438951242	-2.0371245075	-0.420002
C	 0.0516492247	-0.3045013179	-1.0579456961	-0.119925
C	 1.3372002396	-0.6663874821	-0.3255129121	 0.254092
C	 1.6232033709	-2.1441486686	-0.1253203512	-0.4539
C	 2.5868245525	 0.1745600884	-0.511279299	-0.457946
C	 0.1700751161	-0.0747126425	 0.42389466	 0.243399
C	 0.0879013901	 1.2401632444	 1.1965807043	-0.143658
O	-0.6879134041	 0.6057905634	 2.2364465027	-0.277421
C	-0.6571885442	-0.6701191299	 1.559841397	-0.144023
H	 0.4985307666	 1.7227788054	-1.7235855855	 0.117416
H	 0.2856594244	 0.5571026257	-3.0323384991	 0.119091
H	-1.1170746944	 1.1554013809	-2.1383732889	 0.120556
H	-0.5569435141	-1.166417404	-1.3297727042	 0.077892
H	 2.1477054101	-2.5613003967	-0.993088028	 0.115413
H	 2.2563883984	-2.311404766	 0.7543345164	 0.115313
H	 0.7035076572	-2.7211743613	 0.0134888067	 0.114147
H	 2.3666174822	 1.2395886046	-0.6153753838	 0.116564
H	 3.2585953788	 0.0615033763	 0.3477823903	 0.117171
H	 3.1403488328	-0.1388848223	-1.4041095768	 0.116102
H	 1.0363908475	 1.6397730752	 1.5803024577	 0.097345
H	-0.468154617	 2.0536189164	 0.7107782179	 0.097956
H	-1.6648396886	-1.0163747889	 1.2917802438	 0.096689
H	-0.1650781222	-1.4427932645	 2.1661254455	 0.097731
92.9072	156.2336	165.5489	171.2073	190.9512	211.506	224.7188	262.5916	271.4761	359.8845	429.5514	485.1924	507.595	567.6301	680.8272	775.6353	862.107	940.423	960.3138	969.6072	975.2064	985.2325	1029.5	1031.421	1045.8224	1090.7903	1116.169	1133.0123	1151.5044	1156.2785	1174.0693	1185.3775	1225.5135	1275.9847	1310.955	1338.3449	1378.5483	1409.653	1416.2863	1430.1399	1472.3285	1479.7425	1490.0532	1492.9999	1500.17	1504.5303	1511.862	1524.2856	1537.5962	2989.5542	3001.0921	3019.7264	3026.2776	3031.9684	3032.9662	3033.6911	3078.327	3081.826	3087.9688	3096.2714	3100.3781	3112.9555	3121.2002
CC1C(C)(C)C11COC1	C[C@H]1C(C)(C)C21COC2	
InChI=1S/C8H14O/c1-6-7(2,3)8(6)4-9-5-8/h6H,4-5H2,1-3H3	InChI=1S/C8H14O/c1-6-7(2,3)8(6)4-9-5-8/h6H,4-5H2,1-3H3/t6-/m0/s1
