19
gdb 83139	2.0108	1.76347	1.41314	2.1214	75.65	-0.2402	-0.0215	0.2187	1050.7051	0.157826	-423.038238	-423.029226	-423.028282	-423.071858	33.231	
C	 0.071318603	 1.5448280863	-0.0965739098	-0.423448
C	 0.1106523278	 0.0369590829	 0.0163501345	-0.080592
C	 1.3500727097	-0.7755541818	-0.1820040522	 0.041541
O	 2.575941033	-0.0749079721	-0.1846227891	-0.263077
C	 2.8857083698	 0.3742621173	 1.1259710896	-0.189441
C	 1.7195128036	-0.0228176819	 2.0366126181	 0.321465
O	 1.6766741575	 0.1426698752	 3.2303308853	-0.321512
C	 0.7205271613	-0.7545975992	 1.1945384452	 0.145081
C	-0.0581631519	-1.8666704707	 1.8540652354	-0.477865
H	 1.0433596726	 2.0022724014	 0.0969703013	 0.133711
H	-0.2234713722	 1.8339398257	-1.1108483856	 0.126854
H	-0.6550068379	 1.9766855749	 0.5990738761	 0.128708
H	-0.7959632246	-0.4526181491	-0.3346446499	 0.096239
H	 1.3677836772	-1.6564339111	-0.8157998705	 0.106495
H	 3.8035258969	-0.1091526581	 1.487560681	 0.135682
H	 3.0481118479	 1.4589069782	 1.1419953146	 0.133791
H	-0.6665052083	-1.4684254494	 2.6719164398	 0.141718
H	-0.7235583078	-2.3597422548	 1.1396893614	 0.11651
H	 0.6093383624	-2.6239861136	 2.2778140649	 0.128141
99.081	132.4963	140.5684	163.5221	203.4861	244.3465	262.2148	367.3932	456.6708	559.465	566.1043	612.5014	644.464	689.685	793.8091	854.5575	886.8228	957.7843	990.0509	1009.578	1046.2184	1061.5882	1077.8253	1100.0912	1122.8596	1152.2963	1161.7523	1203.526	1271.6584	1309.2419	1324.3926	1359.5563	1414.2368	1419.1206	1439.8078	1483.0924	1483.9805	1490.3708	1496.8237	1504.2921	1832.2692	3015.4877	3036.7718	3042.6841	3055.9692	3099.6826	3103.65	3112.1787	3120.6448	3138.512	3162.2306
CC1C2OCC(=O)C12C	C[C@H]1[C@H]2OCC(=O)[C@@]12C	
InChI=1S/C7H10O2/c1-4-6-7(4,2)5(8)3-9-6/h4,6H,3H2,1-2H3	InChI=1S/C7H10O2/c1-4-6-7(4,2)5(8)3-9-6/h4,6H,3H2,1-2H3/t4-,6+,7+/m0/s1
