17
gdb 50234	3.07235	1.5557	1.35922	3.4434	71.66	-0.2344	-0.0257	0.2087	975.9403	0.136412	-417.91593	-417.90863	-417.907686	-417.947823	28.507	
O	-0.3450911777	 0.1009034636	 0.4100230002	-0.247087
C	-0.0902131814	 1.276061763	 0.3655247377	 0.169752
C	 1.2359518937	 1.879574247	-0.0289310392	-0.094528
N	 2.3027572829	 0.9877762535	-0.5250708668	-0.313164
C	 2.6098679217	 1.9075994109	-1.6486967161	-0.021036
C	 1.9506434732	 1.5385302205	-2.9972046181	-0.01571
C	 0.6701539295	 0.8524551706	-2.7888580096	-0.263217
N	 0.6843388338	 2.3301204355	-2.6410129538	-0.161735
C	 1.3509629218	 2.7290330882	-1.3424603462	-0.01486
H	-0.84875279	 2.0468466587	 0.6408432007	 0.079776
H	 1.5363318377	 2.5269816904	 0.8137467506	 0.09166
H	 3.0572339592	 0.7938727484	 0.119764324	 0.228809
H	 3.611487997	 2.3378586961	-1.6853562785	 0.078078
H	 2.4222989108	 1.6512301443	-3.968367201	 0.095804
H	 0.1153071689	 0.5585427018	-3.6745450459	 0.12194
H	 0.5482352547	 0.2047853825	-1.9290630583	 0.169918
H	 1.3362664543	 3.811976755	-1.2366146796	 0.095602
86.2618	157.9111	197.0424	273.128	354.2295	470.8244	526.6406	590.4271	674.361	695.7548	711.5273	765.3953	804.2687	881.8124	900.4961	914.5859	933.5089	986.2041	1008.6064	1033.6447	1053.2616	1072.1084	1106.1718	1119.2909	1150.9652	1160.7745	1196.1667	1232.4517	1247.4843	1272.0659	1303.6696	1352.5823	1368.895	1392.3639	1421.3273	1498.2696	1832.146	2853.3806	2949.7684	3098.8945	3129.9254	3134.391	3160.9146	3232.3059	3571.6924
O=CC1NC2C3CN3C12	O=C[C@H]1N[C@H]2[C@H]3CN3[C@@H]12	
InChI=1S/C6H8N2O/c9-2-3-6-5(7-3)4-1-8(4)6/h2-7H,1H2	InChI=1S/C6H8N2O/c9-2-3-6-5(7-3)4-1-8(4)6/h2-7H,1H2/t3-,4-,5+,6+,8?/m1/s1
