16
gdb 49724	2.88444	1.46304	1.10132	5.903	71.44	-0.2552	-0.0377	0.2175	1086.0858	0.124673	-437.910227	-437.902465	-437.901521	-437.943095	28.283	
O	-0.1269039275	 0.0041926082	 0.1071313036	-0.26818
C	-0.0153338585	 1.2009406399	 0.0690805397	 0.149002
N	 1.1769518995	 1.8909571725	-0.0593835643	-0.119707
C	 1.449364798	 3.3403770554	-0.052298627	-0.006062
C	 1.5847421369	 3.9654458808	 1.3617881115	-0.234648
C	 3.0927100765	 3.5697798319	 1.3920446037	-0.233423
C	 2.974416525	 2.9944397292	-0.0573144231	-0.192584
C	 2.5505030265	 1.5201365902	-0.0850630807	 0.43389
O	 3.0931860836	 0.4592114365	-0.0986705283	-0.314693
H	-0.8735770831	 1.9022652073	 0.1250385875	 0.084583
H	 0.9453285868	 3.8957686557	-0.8428872787	 0.102251
H	 1.428848089	 5.046515786	 1.3554062566	 0.11861
H	 0.9431031872	 3.5249364762	 2.1276028848	 0.118126
H	 3.765538932	 4.4262527855	 1.4536680437	 0.122371
H	 3.3909090206	 2.8426519057	 2.1493317116	 0.130221
H	 3.6797736176	 3.325616289	-0.8161890606	 0.110243
75.7756	127.8753	164.9757	196.5735	227.8769	369.8644	458.6068	511.4789	658.1237	719.7665	730.6113	801.4811	842.8945	858.6128	911.8368	954.7386	971.2176	1012.2693	1033.4834	1064.5946	1113.0071	1124.2543	1189.23	1197.4703	1220.3427	1248.9086	1276.0397	1284.6862	1301.9292	1358.4653	1432.1451	1472.5201	1493.0272	1809.2342	1914.1242	2919.5925	3071.5199	3082.6233	3114.7836	3121.9389	3137.5802	3149.0747
O=CN1C2CCC2C1=O	O=CN1[C@H]2CC[C@H]2C1=O	
InChI=1S/C6H7NO2/c8-3-7-5-2-1-4(5)6(7)9/h3-5H,1-2H2	InChI=1S/C6H7NO2/c8-3-7-5-2-1-4(5)6(7)9/h3-5H,1-2H2/t4-,5+/m1/s1
