21
gdb 76521	2.39626	1.20127	1.18162	3.0545	85.28	-0.2303	-0.013	0.2173	1238.4649	0.180818	-387.099492	-387.089842	-387.088898	-387.134033	35.621	
C	-0.0516463409	 0.7092095195	-2.14162429	-0.412662
C	 0.0820325703	-0.3627238781	-1.0833735332	-0.075591
C	 1.3408424841	-0.609611928	-0.3070434329	-0.075976
C	 2.6120110954	 0.1867017852	-0.4995152685	-0.412744
C	 0.1380423803	 0.0089033113	 0.3924034769	 0.212547
C	-0.0155279922	 1.380541484	 1.0761817172	-0.333704
C	-0.8528464287	 0.6975310628	 2.2087343272	-0.344017
C	-0.6607393902	-0.6471548749	 1.4749213317	 0.345073
O	-1.0102718902	-1.7771848523	 1.6822278433	-0.323692
H	 0.5122516949	 1.6120017929	-1.8937088671	 0.120941
H	 0.3108158773	 0.3463741713	-3.1097508901	 0.124552
H	-1.0997978312	 1.0002354628	-2.2687631586	 0.123581
H	-0.5145713919	-1.2526672576	-1.27235967	 0.104061
H	 1.5040308494	-1.6485605172	-0.0282294662	 0.104049
H	 2.4156649074	 1.239636596	-0.7171742621	 0.120955
H	 3.2347623493	 0.1472319829	 0.4005856309	 0.123598
H	 3.2024836002	-0.21941473	-1.3282045933	 0.124563
H	 0.9185947917	 1.8308159976	 1.420594825	 0.108069
H	-0.5684239413	 2.1252189462	 0.4984726255	 0.108008
H	-0.410482597	 0.7240424433	 3.2084756034	 0.129168
H	-1.8966122367	 1.0151066423	 2.2838617208	 0.129221
75.2048	107.2608	158.6115	167.73	174.045	181.8993	240.2132	313.3658	410.2338	497.2332	525.2098	535.7836	599.2987	726.1242	728.5521	770.0699	793.3806	923.7988	925.0378	993.4086	999.5979	1021.3509	1029.8639	1063.8791	1097.5193	1121.0837	1125.9162	1137.196	1179.4279	1185.5206	1212.4057	1231.016	1255.652	1316.3925	1369.809	1414.423	1420.5814	1436.8462	1449.2205	1486.003	1492.191	1494.9373	1499.7883	1513.6953	1870.7154	3032.9602	3036.4573	3060.3062	3066.37	3091.6264	3092.9997	3103.7739	3107.1974	3116.5977	3121.2169	3129.2828	3139.4996
CC1C(C)C11CCC1=O	C[C@H]1[C@@H](C)[C@]21CCC2=O	
InChI=1S/C8H12O/c1-5-6(2)8(5)4-3-7(8)9/h5-6H,3-4H2,1-2H3	InChI=1S/C8H12O/c1-5-6(2)8(5)4-3-7(8)9/h5-6H,3-4H2,1-2H3/t5-,6+,8+
