20
gdb 101420	2.3306	1.29589	1.0436	2.2606	76.38	-0.2359	-0.0181	0.2178	1253.7446	0.168496	-440.265325	-440.255363	-440.254419	-440.301016	35.335	
C	-0.0063038903	 1.3692090362	 0.061613626	-0.234059
O	-0.0673564334	-0.0253549266	 0.2494602657	-0.251603
C	-1.3398671406	-0.6063952216	-0.0036300096	 0.152064
C	-1.5953118797	-0.8025133123	-1.4985043477	-0.409442
C	-1.3636845495	-1.9317248514	 0.7571936372	-0.145068
N	-0.2869225587	-2.8915458455	 0.3741721524	-0.310391
C	 0.3107667934	-2.8947031372	 1.7402315413	-0.280297
C	-0.7556026677	-1.8789780513	 2.17711118	 0.407077
O	-1.0360860594	-1.3206533455	 3.1932115171	-0.294735
H	 0.9925577774	 1.6896576034	 0.3677220039	 0.12927
H	-0.1573635314	 1.6612752546	-0.9878541956	 0.106252
H	-0.7511129178	 1.8951516774	 0.6786693407	 0.109253
H	-2.1248262642	 0.0327250791	 0.4348670756	 0.074469
H	-0.8445140154	-1.4828187022	-1.9089599845	 0.142176
H	-2.5906332011	-1.2266386603	-1.6684711778	 0.110049
H	-1.5433592406	 0.1464096435	-2.039344101	 0.118043
H	-2.3815632654	-2.3440326528	 0.7394454853	 0.09032
H	-0.6507477695	-3.7983749069	 0.1086654512	 0.224292
H	 0.2645243615	-3.8443700122	 2.287918744	 0.12086
H	 1.3395443124	-2.5196048184	 1.7662317459	 0.14147
58.1836	70.4657	85.5501	130.543	201.7481	221.1912	241.3542	295.027	345.5171	421.4758	442.3659	552.9625	630.4155	664.7866	766.5364	789.024	850.3145	910.1423	974.335	994.9598	1008.752	1058.4749	1084.9076	1091.5627	1120.5783	1140.1537	1172.2211	1183.5754	1217.0458	1229.4028	1274.3704	1330.4108	1347.203	1379.1965	1382.4415	1398.0378	1464.945	1478.8209	1483.0665	1497.928	1499.9573	1511.7006	1914.4547	2965.4962	2980.4568	3019.9308	3026.9696	3028.6672	3041.7086	3077.581	3108.3897	3113.6873	3129.2036	3552.929
COC(C)C1NCC1=O	CO[C@@H](C)[C@H]1NCC1=O	
InChI=1S/C6H11NO2/c1-4(9-2)6-5(8)3-7-6/h4,6-7H,3H2,1-2H3	InChI=1S/C6H11NO2/c1-4(9-2)6-5(8)3-7-6/h4,6-7H,3H2,1-2H3/t4-,6+/m0/s1
