17
gdb 69308	2.4978	1.50528	1.28585	2.6806	68.96	-0.232	-0.0313	0.2007	1064.7322	0.131655	-458.939932	-458.930427	-458.929483	-458.973966	34.308	
C	-0.1129798312	 1.5533594937	 0.0777809712	-0.515487
C	 0.1478158476	 0.0886748311	-0.0223426472	 0.285537
O	-0.7496957857	-0.8417488672	 0.6358648902	-0.26884
C	 0.6335941476	-0.9374939612	 0.9455698332	-0.075074
C	 1.2825455865	-1.8097404802	-0.1394337627	 0.255511
C	 2.811278933	-1.7773430621	-0.1372491388	-0.452291
O	 0.7745514058	-3.1193327419	-0.1783329158	-0.464552
C	 0.7101263367	-0.7564741916	-1.1631732247	 0.326471
O	 0.8055311051	-0.6328593103	-2.3490068762	-0.315026
H	 0.7717049042	 2.1233246483	-0.2218092212	 0.136785
H	-0.9373655662	 1.8398533083	-0.582794103	 0.149802
H	-0.3815439275	 1.8250575655	 1.1018784716	 0.141222
H	 0.9424786185	-0.7940284042	 1.9748650846	 0.115875
H	 3.1903024272	-2.3999910909	 0.678375709	 0.133663
H	 3.195290622	-2.169870329	-1.0842508343	 0.132563
H	 3.1996942436	-0.7609436662	-0.0145540693	 0.122462
H	 0.9476914626	-3.477118692	-1.0565060166	 0.29138
87.6372	125.2805	161.7631	188.6164	206.3218	228.1376	259.3842	283.7248	333.319	348.3937	525.1919	563.6659	591.8397	681.2084	771.1368	788.848	818.0604	898.3337	916.8682	968.1186	987.5728	1038.5623	1088.5157	1102.0536	1143.8563	1200.4189	1228.7834	1271.3248	1373.0686	1397.7697	1400.2285	1446.699	1477.6392	1485.3894	1488.6328	1492.0798	1892.1733	3034.5031	3043.4126	3106.6697	3110.4651	3116.8294	3126.2138	3188.5659	3802.5804
CC12OC1C(C)(O)C2=O	C[C@]12O[C@H]1[C@@](C)(O)C2=O	
InChI=1S/C6H8O3/c1-5(8)3(7)6(2)4(5)9-6/h4,8H,1-2H3	InChI=1S/C6H8O3/c1-5(8)3(7)6(2)4(5)9-6/h4,8H,1-2H3/t4-,5-,6+/m0/s1
