19
gdb 113915	2.66632	1.25354	1.0224	7.0813	72.64	-0.229	0.0241	0.2531	1205.3685	0.160483	-456.332321	-456.323542	-456.322597	-456.365892	32.946	
N	-2.3591869119	 0.0300629168	 3.0365645411	-0.508729
H	-2.3294427359	 0.0756276015	 4.0513463963	 0.254688
H	-1.7656309389	-1.6075000303	 2.7025924482	 0.320766
H	-3.3356216672	 0.1185219617	 2.7711751872	 0.252804
C	-1.5764949464	 1.1376885917	 2.459534947	-0.214993
C	-0.0714388965	 0.9514840687	 2.5573367455	 0.025359
C	 0.56918193	-0.1186318944	 3.3779639215	-0.267984
N	 0.6474931564	-0.1500122466	 1.9230682005	-0.086014
C	-0.0269618497	-1.1575050044	 1.0870251916	-0.264734
C	-0.3314291743	-2.5048657543	 1.7616773697	 0.376411
O	-1.3473142029	-2.5074644672	 2.6370196336	-0.383257
O	 0.2958039771	-3.5021112091	 1.5194418568	-0.320539
H	-1.8592572399	 1.2229638081	 1.4022354717	 0.12777
H	-1.8244972396	 2.1035605104	 2.9222001361	 0.109912
H	 0.4519187036	 1.9030500463	 2.4612093049	 0.096226
H	 1.5103034539	 0.0740891566	 3.88813642	 0.120876
H	-0.0733502702	-0.8322417578	 3.8866050097	 0.123578
H	-0.9577901648	-0.7515216253	 0.6688684197	 0.102283
H	 0.6375413071	-1.3843703524	 0.2506760889	 0.135576
81.0013	124.8171	170.2454	199.9346	217.9557	294.7127	365.653	388.4104	418.1341	444.7247	580.5582	619.6269	694.9225	752.7166	816.5848	877.2971	901.3715	922.9951	978.4157	996.5122	1016.0256	1040.6086	1052.7028	1094.1306	1133.4434	1153.0494	1173.115	1206.9996	1218.7399	1310.344	1336.3921	1338.7399	1368.7119	1410.8256	1422.3999	1475.3042	1493.9076	1509.6949	1525.8789	1647.4865	1856.5279	2999.573	3017.8692	3043.47	3098.1555	3099.3273	3105.8736	3187.5548	3194.8326	3494.6576	3571.0311
[NH3+]CC1CN1CC([O-])=O	NC[C@H]1CN1CC(=O)O	
InChI=1S/C5H10N2O2/c6-1-4-2-7(4)3-5(8)9/h4H,1-3,6H2,(H,8,9)	InChI=1S/C5H10N2O2/c6-1-4-2-7(4)3-5(8)9/h4H,1-3,6H2,(H,8,9)/t4-,7?/m0/s1
