16
gdb 51032	2.03733	1.47321	1.03802	2.4837	69.14	-0.2698	-0.051	0.2188	1156.899	0.122745	-437.876066	-437.867165	-437.86622	-437.911136	30.603	
O	-0.6890786109	 1.4150619767	 0.8178659806	-0.231378
C	 0.052490665	 1.0970239646	-0.0761684777	 0.148586
C	 1.3991819714	 1.759815596	-0.3108088193	-0.339723
C	 1.2842098984	 2.8977927494	-1.3507698039	 0.087959
C	 0.5253962676	 4.1502826091	-0.8133540336	-0.112089
O	 1.76672658	 4.8434195118	-0.5919203036	-0.261433
C	 2.5053622067	 3.8664321092	-1.3391172813	-0.114542
C	 0.8760618146	 2.3992700028	-2.6572547035	 0.244781
N	 0.5564371076	 2.0005400836	-3.6943723561	-0.330664
H	-0.229682824	 0.310802071	-0.8084403706	 0.111134
H	 1.742236256	 2.1942743406	 0.6319227586	 0.146176
H	 2.126982044	 1.0195897722	-0.6609198171	 0.131363
H	-0.1003019454	 4.645511995	-1.5647626132	 0.126053
H	-0.04304553	 3.9944623764	 0.1077329721	 0.145046
H	 3.3912864777	 3.5076981211	-0.8049797196	 0.122949
H	 2.7906186913	 4.2262411004	-2.3351558018	 0.125782
38.4858	76.2607	103.6086	158.2287	188.6328	236.039	345.4183	359.9388	518.0056	545.0775	564.3413	613.1684	827.6334	870.5879	921.1783	953.3615	973.2868	981.6148	1032.424	1045.7979	1092.2911	1150.554	1160.3597	1168.1688	1223.1797	1289.8906	1310.4112	1315.932	1374.4308	1424.3978	1471.139	1509.9907	1534.1063	1826.7789	2352.8736	2910.8672	3023.0071	3037.0413	3048.0943	3082.515	3103.1967	3116.6029
O=CCC1(COC1)C#N	O=CCC1(COC1)C#N	
InChI=1S/C6H7NO2/c7-3-6(1-2-8)4-9-5-6/h2H,1,4-5H2	InChI=1S/C6H7NO2/c7-3-6(1-2-8)4-9-5-6/h2H,1,4-5H2
