19
gdb 128785	4.53276	0.84086	0.72134	1.8624	80.34	-0.2262	0.0269	0.2531	1583.4313	0.159383	-419.214345	-419.204796	-419.203852	-419.250766	32.649	
C	-0.1155659097	 1.3740854235	-0.3942305896	-0.22183
O	-0.1630919027	-0.0283129562	-0.4929186638	-0.23307
C	-1.024656392	-0.6140839523	 0.4620773046	-0.182014
C	-1.0610823191	-2.0921799565	 0.2433154376	 0.162856
C	-0.712107317	-2.7743157626	-0.9053990407	-0.110233
N	-0.9351244285	-4.0914377003	-0.6688145256	 0.059394
C	-0.6392799746	-5.209996817	-1.5370436354	-0.318723
N	-1.4062528172	-4.3167387999	 0.5724550458	-0.273264
C	-1.4846205602	-3.1084468227	 1.1262533818	-0.089233
H	 0.566829915	 1.7337820961	-1.1681092749	 0.126559
H	-1.1061007041	 1.8301390491	-0.5526079501	 0.103911
H	 0.2578483606	 1.7025887707	 0.588878731	 0.104722
H	-0.6808040023	-0.3844685713	 1.4858247556	 0.095304
H	-2.0350213485	-0.1752848939	 0.3697246258	 0.096379
H	-0.3207408186	-2.4187032885	-1.8441222399	 0.139584
H	 0.3320140297	-5.6548402846	-1.2953569515	 0.142324
H	-1.4145034746	-5.9676224165	-1.4125155689	 0.154692
H	-0.6276979503	-4.8683298042	-2.5739273189	 0.137556
H	-1.8498420357	-3.0081574627	 2.138625197	 0.105084
25.2197	60.7655	81.3826	115.7727	175.9026	227.9424	287.3996	324.6213	362.6184	438.2352	629.2603	664.3717	674.4048	790.1875	804.34	872.4081	989.1385	1006.623	1034.7713	1045.7663	1074.2522	1148.8653	1156.0505	1184.2826	1185.5985	1213.2363	1231.4066	1255.6356	1344.8052	1357.3429	1414.9164	1447.4474	1449.1417	1472.7016	1482.7019	1484.116	1485.0674	1503.3403	1520.9439	1527.1685	1615.5064	2931.0752	2955.3558	2968.5663	3010.5162	3041.4033	3113.7126	3114.6249	3150.243	3235.0233	3274.9853
COCC1=CN(C)N=C1	COCc1cn(C)nc1	
InChI=1S/C6H10N2O/c1-8-4-6(3-7-8)5-9-2/h3-4H,5H2,1-2H3	InChI=1S/C6H10N2O/c1-8-4-6(3-7-8)5-9-2/h3-4H,5H2,1-2H3
