17
gdb 7889	3.488	1.80453	1.27363	3.6874	71.96	-0.2263	0.0042	0.2306	973.0289	0.142682	-360.086317	-360.078129	-360.077185	-360.118763	30.093	
C	-0.0635040046	 1.5511932041	 0.0130742118	-0.377999
C	 0.0465243991	 0.0255466666	-0.0006011548	-0.037043
N	 0.8183368936	-0.4667374019	-1.1550080565	-0.291474
C	 1.7751200407	-1.173026227	-0.6874684119	 0.36412
C	 2.8158505527	-1.8696690853	-1.5005569399	-0.49245
N	 1.7981272047	-1.27568143	 0.7071864906	-0.377285
C	 0.7518908157	-0.5280403223	 1.241248914	 0.379736
N	 0.4160939144	-0.3143232451	 2.4475853623	-0.553493
H	 0.9303753315	 2.0085468382	 0.0251346313	 0.116229
H	-0.5909556908	 1.8990080863	-0.8784812142	 0.124164
H	-0.6038336146	 1.8723457891	 0.9069260925	 0.138904
H	-0.9635719457	-0.4008372428	-0.0505114438	 0.115332
H	 2.6369482587	-1.670626941	-2.5569550447	 0.160835
H	 3.8201068749	-1.5207773135	-1.2345592658	 0.13699
H	 2.7867085829	-2.9515262262	-1.3289918275	 0.139141
H	 2.5059843832	-1.7448412291	 1.247206908	 0.250983
H	 1.0364697036	-0.78463791	 3.1088461087	 0.203311
90.5567	144.2928	164.6842	231.1059	244.6503	295.682	360.0461	417.5505	493.651	612.0197	623.8171	662.651	711.6991	812.852	852.5571	909.8793	980.5254	1012.5058	1051.1213	1063.0142	1099.2887	1124.8556	1126.3947	1230.3828	1280.5309	1307.9428	1334.7321	1398.0047	1401.215	1440.8743	1480.4264	1483.0691	1488.2199	1495.9529	1714.3068	1760.0415	3029.0517	3037.5188	3046.7132	3091.8055	3121.1603	3136.1042	3159.8155	3452.009	3654.9493
CC1N=C(C)NC1=N	C[C@H]1N=C(C)N[C]1[NH]	
InChI=1S/C5H9N3/c1-3-5(6)8-4(2)7-3/h3H,1-2H3,(H2,6,7,8)	InChI=1S/C5H9N3/c1-3-5(6)8-4(2)7-3/h3H,1-2H3,(H2,6,7,8)/t3-/m1/s1
