20
gdb 79923	2.82469	1.35428	1.22089	1.9144	81.79	-0.1923	0.0222	0.2145	1143.515	0.16966	-403.085611	-403.076737	-403.075792	-403.118482	34.461	
C	 0.0064826492	 1.4911701956	-0.0956610165	-0.332714
N	 0.0105523494	 0.0298244326	-0.046748547	-0.091024
C	-1.1524423347	-0.673296321	 0.6337582305	-0.118612
C	-0.7528992333	-2.1197142696	 0.3674320748	-0.186255
C	 0.5578242389	-2.1201334057	 0.6520830875	 0.3725
C	 1.5892813118	-3.1921164876	 0.6178013647	-0.522478
C	 0.7856021805	-0.657391934	 1.0609955769	-0.148459
C	-0.4300067657	-0.4925093602	 2.0373600964	 0.160107
O	-0.4816962841	 0.7549534741	 2.6802547059	-0.435394
H	 0.9943679247	 1.8198433962	-0.4387827221	 0.111141
H	-0.7163398503	 1.7985549477	-0.8606981814	 0.108848
H	-0.2274721947	 2.0096314517	 0.8399601236	 0.120698
H	-2.1668511944	-0.330991682	 0.4257078511	 0.061316
H	-1.3938199118	-2.9280901214	 0.0448667653	 0.097496
H	 1.1572462623	-4.1495023254	 0.3122301837	 0.125492
H	 2.3961392489	-2.94466153	-0.0837741884	 0.132651
H	 2.0603331494	-3.3309047444	 1.5993672867	 0.125629
H	 1.7896930318	-0.3054165884	 1.3008335469	 0.066186
H	-0.5886257584	-1.3102506017	 2.7543430698	 0.068002
H	-1.2827760693	 0.7844149437	 3.2128433717	 0.284869
142.0445	163.4198	178.5914	234.1207	241.803	275.3453	283.703	331.7889	394.1993	485.2438	541.5496	565.4299	651.7494	712.743	805.5969	814.1969	864.8853	870.0996	920.3197	931.1733	1007.1925	1024.1141	1057.9031	1096.2179	1120.6938	1131.8469	1142.4631	1171.9299	1181.5513	1212.0294	1230.5992	1237.2172	1279.0518	1294.851	1315.729	1413.3326	1419.9775	1443.3199	1478.6384	1483.043	1486.6588	1518.5994	1679.2111	2996.888	3015.0896	3016.4468	3061.0941	3079.4263	3087.1511	3104.9875	3113.9631	3117.8364	3227.6319	3817.4184
CN1C2C=C(C)C1C2O	CN1[C@H]2C=C(C)[C@@H]1[C@H]2O	
InChI=1S/C7H11NO/c1-4-3-5-7(9)6(4)8(5)2/h3,5-7,9H,1-2H3	InChI=1S/C7H11NO/c1-4-3-5-7(9)6(4)8(5)2/h3,5-7,9H,1-2H3/t5-,6+,7-/m0/s1
