14
gdb 84344	3.10018	1.31833	1.01684	4.4613	67.54	-0.2773	-0.0554	0.2219	1110.5236	0.10019	-436.711305	-436.703241	-436.702297	-436.744486	29.206	
O	 0.4592742046	 1.3441513144	-0.2321177873	-0.432189
C	 0.1536644733	 0.0008514466	 0.0387187653	 0.015288
C	 0.7202378932	-0.5118543438	 1.3352284142	-0.092079
C	-0.1606310717	-1.2280198521	 2.0339387313	-0.071846
C	-1.5185657406	-1.3049397936	 1.3544793123	-0.320713
C	-2.6645713654	-1.0853335884	 2.2305094991	 0.295872
N	-3.5610257514	-0.9166847973	 2.9390082426	-0.309729
C	-1.353567149	-0.2207191261	 0.2520739908	 0.359883
O	-2.2165689037	 0.415119377	-0.2801126883	-0.286755
H	-0.3065018014	 1.7168038639	-0.690344053	 0.301473
H	 0.4742639145	-0.6492313249	-0.7986381352	 0.107636
H	 1.7483198243	-0.3283741818	 1.6211346947	 0.132284
H	 0.0247657447	-1.7240557591	 2.9779028393	 0.136453
H	-1.6604187715	-2.2737575847	 0.8514514741	 0.164423
51.9342	133.4904	169.0158	249.0831	284.0872	321.6064	410.4695	448.7986	472.9537	577.1909	629.2059	670.1064	734.8703	753.5998	907.2474	940.1105	980.2413	995.5392	1019.6512	1097.3877	1127.7205	1170.7451	1186.1965	1222.6238	1290.0203	1331.8676	1366.5587	1411.8895	1674.2068	1869.6192	2365.8074	2912.9935	3000.0443	3211.1527	3232.1341	3758.0431
OC1C=CC(C#N)C1=O	O[C@H]1C=C[C@@H](C#N)C1=O	
InChI=1S/C6H5NO2/c7-3-4-1-2-5(8)6(4)9/h1-2,4-5,8H	InChI=1S/C6H5NO2/c7-3-4-1-2-5(8)6(4)9/h1-2,4-5,8H/t4-,5-/m0/s1
