21
gdb 90733	2.84111	1.37805	1.16092	3.0839	81.31	-0.2296	-0.0123	0.2173	1147.5832	0.18394	-387.118359	-387.110098	-387.109154	-387.151352	32.411	
C	 0.4583368097	 1.5799146059	-0.1671857527	-0.413145
C	 0.1184334802	 0.1061524899	 0.0092989216	 0.046579
C	 0.85765902	-0.9248773302	-0.8919715221	-0.259744
C	 1.2222918038	-1.7736884256	 0.3745806199	-0.111486
C	 0.6097925025	-0.6632949304	 1.2828076714	-0.043432
C	 1.7845399872	-0.0734138817	 2.103891242	-0.233833
C	 3.0780321856	-0.4976441632	 1.3857400028	-0.32426
C	 2.7159789384	-1.800178317	 0.6594703	 0.402309
O	 3.4812074441	-2.6849461061	 0.3708170773	-0.323628
H	 1.5371587234	 1.7632374299	-0.1139731368	 0.115032
H	 0.116064907	 1.9382489992	-1.1444323119	 0.117549
H	-0.02345567	 2.1982199532	 0.5984490966	 0.11735
H	-0.9650632744	-0.0163376818	-0.0893226523	 0.074767
H	 0.2416937001	-1.4463844908	-1.6270538288	 0.110816
H	 1.7297969272	-0.5176308096	-1.4134966392	 0.10405
H	 0.7908990859	-2.774219028	 0.3975891314	 0.087238
H	-0.205219922	-0.9697895429	 1.9413229669	 0.070076
H	 1.7033660319	 1.0091439564	 2.2345243014	 0.104691
H	 1.7678846466	-0.5136694693	 3.1067913524	 0.106766
H	 3.374203163	 0.2345720717	 0.6225424975	 0.12718
H	 3.9399553897	-0.6438065995	 2.0395600225	 0.125124
60.776	124.5329	211.5336	239.6765	264.3215	341.2467	406.5056	480.3024	513.506	561.2017	668.4959	716.1946	731.3289	787.4946	826.4135	866.6129	902.7177	909.0794	944.3974	948.2282	998.7179	1006.9072	1053.8182	1111.8782	1127.1287	1135.848	1168.8332	1182.0762	1198.223	1221.011	1253.4382	1268.0721	1274.5172	1288.5564	1304.9149	1332.9278	1350.2999	1370.0216	1413.6043	1457.6949	1486.8987	1491.8534	1497.2992	1504.8411	1838.9036	3026.9941	3028.8234	3040.7669	3044.8175	3051.9982	3081.4395	3089.8951	3092.987	3096.1085	3106.954	3115.8033	3120.9338
CC1CC2C1CCC2=O	C[C@H]1C[C@@H]2[C@H]1CCC2=O	
InChI=1S/C8H12O/c1-5-4-7-6(5)2-3-8(7)9/h5-7H,2-4H2,1H3	InChI=1S/C8H12O/c1-5-4-7-6(5)2-3-8(7)9/h5-7H,2-4H2,1H3/t5-,6-,7+/m0/s1
