19
gdb 72608	2.1292	1.90098	1.61727	1.4757	73.92	-0.2394	0.0786	0.318	967.8292	0.158306	-422.982358	-422.974168	-422.973224	-423.014563	32.456	
C	-0.0660443627	 1.5650118375	-0.001807265	-0.497829
C	-0.0014272883	 0.0565878728	 0.0149520822	 0.235763
C	 0.8942797514	-0.6822665208	-1.0233433293	-0.284071
C	 1.6567153689	-1.426048842	 0.1127419069	-0.276869
C	 0.7290650799	-0.8056884439	 1.1695616661	 0.381524
O	 1.3730644791	-0.2816807586	 2.2838450777	-0.477296
C	-0.5870777587	-1.5497293697	 1.3682227912	-0.077105
O	-1.5610438283	-0.5507862747	 1.7233041792	-0.26535
C	-1.2590557076	-0.7445503333	 0.3331621113	-0.016794
H	 0.9368182962	 1.999876675	 0.0682471037	 0.121886
H	-0.5251053423	 1.9344674117	-0.9269267467	 0.115463
H	-0.6561007255	 1.9370942195	 0.8413754997	 0.125741
H	 0.3515129946	-1.3249413569	-1.7222640117	 0.098035
H	 1.5250593902	-0.0070844841	-1.6057753204	 0.107319
H	 1.6851556859	-2.5182499578	 0.0702856051	 0.098854
H	 2.6761217577	-1.0568390759	 0.2429782554	 0.119345
H	 0.6885449506	 0.0865033471	 2.8563127039	 0.288536
H	-0.7716875909	-2.5633839982	 1.7091323602	 0.10172
H	-2.08287758	-1.0224004977	-0.3158631596	 0.101129
124.7882	173.1493	197.6287	241.9079	257.6561	328.1987	393.0981	442.0084	498.6091	577.7067	604.3259	670.7685	713.7907	753.0828	842.0688	854.4011	872.0877	899.6159	935.9538	959.0669	974.3655	1008.9291	1041.6366	1058.3624	1113.0846	1127.657	1190.2043	1201.321	1215.0477	1235.132	1244.2836	1273.2124	1328.1639	1334.551	1363.8417	1388.8595	1406.5983	1475.4386	1486.6584	1494.6721	1497.0604	3023.36	3055.7795	3063.391	3085.732	3102.6325	3105.6466	3123.8988	3164.9592	3180.1944	3783.6245
CC12CCC1(O)C1OC21	C[C@@]12CC[C@]1(O)[C@H]1O[C@@H]21	
InChI=1S/C7H10O2/c1-6-2-3-7(6,8)5-4(6)9-5/h4-5,8H,2-3H2,1H3	InChI=1S/C7H10O2/c1-6-2-3-7(6,8)5-4(6)9-5/h4-5,8H,2-3H2,1H3/t4-,5+,6+,7+/m1/s1
