14
gdb 34510	4.40128	1.3571	1.19707	5.5781	74.06	-0.2488	-0.0543	0.1946	991.1022	0.102538	-399.51753	-399.511138	-399.510194	-399.548378	25.426	
N	 0.100333637	-1.144579907	 0.0732973356	-0.345272
C	 0.019595753	 0.0110964266	 0.0284488195	 0.19374
C	-0.0392329227	 1.4208242628	-0.0616371425	 0.207038
C	-1.1318395615	 2.2112398906	 0.0423467937	-0.143505
C	-0.7308009262	 3.6223211247	-0.0112076108	-0.137735
C	 0.541606866	 4.0077877208	 0.8676430824	 0.108953
O	 1.2292588782	 2.8760401775	 1.3234845109	-0.277419
C	 1.1775838595	 2.3242528264	-0.0570850108	-0.043754
C	 0.6748734657	 3.7037280717	-0.5750072618	-0.160943
H	-2.1410742497	 1.8667501524	 0.2265563607	 0.134898
H	-1.436201587	 4.4225488668	-0.1932438702	 0.107453
H	 0.5636233497	 4.9063931244	 1.4704942926	 0.130763
H	 2.1392244676	 1.912642449	-0.3526367762	 0.108975
H	 0.9915804905	 4.2730003234	-1.4386079531	 0.116806
122.7918	162.6095	393.9284	408.4992	503.2281	535.3634	575.0911	638.1325	659.2598	766.8271	799.3121	808.3492	842.1997	854.922	909.2165	920.8905	947.6961	1002.7813	1038.9431	1056.8395	1080.4487	1112.0667	1173.2615	1217.0424	1233.8378	1261.4229	1305.3181	1338.3063	1375.9755	1625.4176	2332.9907	3159.5262	3198.3937	3205.1225	3215.341	3227.5537
N#CC1=CC2C3OC1C23	N#CC1=C[C@H]2[C@H]3O[C@@H]1[C@@H]23	
InChI=1S/C7H5NO/c8-2-3-1-4-5-6(3)9-7(4)5/h1,4-7H	InChI=1S/C7H5NO/c8-2-3-1-4-5-6(3)9-7(4)5/h1,4-7H/t4-,5-,6+,7-/m1/s1
