19
gdb 114187	3.3325	1.07891	0.91617	4.8657	79.44	-0.2382	0.0248	0.263	1334.7021	0.159326	-419.198397	-419.18928	-419.188335	-419.233069	32.814	
C	-0.2225715554	 1.5687721696	-0.1105675843	-0.378554
C	 0.2167998971	 0.1034928432	-0.0411854871	-0.154538
N	 0.8496682327	-0.3623630901	-1.2521033895	-0.097931
C	 0.3254961922	-0.62114735	-2.5985119768	-0.259819
C	 1.7260572947	-1.1772716763	-2.9308652931	 0.176839
C	 2.1064728683	-2.3283206446	-3.7771370835	-0.295296
N	 2.5522819748	-0.9623794732	-4.1092495716	-0.347839
C	 2.1208523487	-0.8459161139	-1.4911135496	 0.38936
O	 3.0886537337	-0.9600052979	-0.7868054594	-0.378453
H	 0.6345370691	 2.2218845693	-0.297348806	 0.134088
H	-0.9543494726	 1.7276037274	-0.9093588465	 0.119061
H	-0.6881108054	 1.869825695	 0.8328884291	 0.122453
H	 0.9548461249	-0.0388856521	 0.7545081288	 0.142879
H	-0.6454167355	-0.5365664857	 0.1938921463	 0.107146
H	-0.4953495267	-1.3481966577	-2.6274338036	 0.112096
H	 0.037192266	 0.2808435797	-3.1519433498	 0.112442
H	 2.896882189	-2.9948560947	-3.4446916029	 0.141927
H	 1.3298332482	-2.7928721929	-4.3798391813	 0.117435
H	 1.9885780462	-0.5798034551	-4.8651992991	 0.236704
53.8984	69.2944	137.7755	181.8206	224.5978	244.5182	279.1461	350.4295	381.9863	508.1192	574.783	723.1346	774.3382	777.48	823.1027	861.6071	906.8456	947.3891	974.6983	980.4703	1011.7166	1065.3324	1093.2331	1106.7649	1130.6906	1145.8549	1210.2547	1242.8475	1263.7503	1266.2246	1340.3996	1389.3623	1409.8993	1420.9875	1431.2547	1480.9357	1492.6743	1503.613	1511.3085	1524.829	1881.8236	3005.6603	3015.321	3039.4756	3058.337	3085.0714	3107.8345	3111.0604	3121.3981	3198.6781	3493.9674
CCN1CC2(CN2)C1=O	CCN1C[C@]2(CN2)C1=O	
InChI=1S/C6H10N2O/c1-2-8-4-6(3-7-6)5(8)9/h7H,2-4H2,1H3	InChI=1S/C6H10N2O/c1-2-8-4-6(3-7-6)5(8)9/h7H,2-4H2,1H3/t6-/m1/s1
