25
gdb 122886	3.13678	0.73724	0.70468	0.9224	87.19	-0.2414	0.0819	0.3233	1808.4127	0.224453	-426.617265	-426.605381	-426.604437	-426.655348	42.45	
C	-0.3319034307	 1.260654969	 0.3822539659	-0.222982
O	 0.0013595416	-0.0875125559	 0.1658309606	-0.226065
C	 0.1976532722	-0.3911994268	-1.1960054584	-0.054166
C	 0.4641399309	-1.8774512474	-1.3399700334	-0.077332
O	-0.750582547	-2.5634444141	-1.1348452827	-0.284591
C	-0.7059895566	-3.9829156521	-0.9216992682	 0.371645
C	-0.02278454	-4.3106858085	 0.4165370781	-0.410112
C	-2.1845145173	-4.3807605871	-0.8667318231	-0.395961
C	-0.0058692357	-4.7003221324	-2.0866195867	-0.412634
H	 0.459994425	 1.9423993613	 0.0303482669	 0.098586
H	-1.2695020901	 1.5378611299	-0.1257563654	 0.103812
H	-0.4606843248	 1.3983997939	 1.4587611131	 0.124921
H	-0.6912958178	-0.1225743458	-1.7900558668	 0.093812
H	 1.0551582939	 0.1743345219	-1.6012228936	 0.077908
H	 0.8695423348	-2.0678465427	-2.3463208287	 0.082821
H	 1.2313484296	-2.1641330886	-0.6076350546	 0.09769
H	-0.4762619485	-3.7261801976	 1.2218734915	 0.126795
H	-0.1357798858	-5.3738442987	 0.6509621299	 0.110169
H	 1.0492560287	-4.0941775924	 0.396712964	 0.112011
H	-2.6802933078	-4.1259854884	-1.8076875334	 0.114774
H	-2.2940254921	-5.4551653782	-0.6925623365	 0.106187
H	-2.6889956324	-3.8418399148	-0.0599993176	 0.120736
H	 1.0594630656	-4.4554529362	-2.1357900705	 0.112157
H	-0.0879177324	-5.7851943703	-1.9683199497	 0.112921
H	-0.4682345731	-4.4236551081	-3.0392152009	 0.116898
27.8396	55.2763	82.9463	136.3778	189.6772	202.975	233.3161	247.5485	261.332	287.6463	304.8936	337.4975	344.9421	427.0336	455.2928	478.8275	564.1531	744.9895	854.1344	872.6532	908.4177	920.4938	956.1435	982.1022	1038.1665	1043.0153	1057.8876	1127.19	1134.146	1170.9743	1187.1244	1225.4659	1228.8824	1250.8715	1260.849	1278.0876	1307.109	1392.4965	1393.6282	1404.6574	1421.9676	1435.845	1470.6035	1478.1947	1482.4234	1485.4775	1486.0615	1496.6602	1497.9882	1499.397	1507.621	1521.7533	1522.2459	2947.9411	2964.8321	2980.2568	2991.3113	3006.2494	3030.6561	3036.0613	3040.3715	3046.4918	3104.634	3109.4032	3110.5808	3111.0937	3117.8387	3119.3497	3123.1946
COCCOC(C)(C)C	COCCOC(C)(C)C	
InChI=1S/C7H16O2/c1-7(2,3)9-6-5-8-4/h5-6H2,1-4H3	InChI=1S/C7H16O2/c1-7(2,3)9-6-5-8-4/h5-6H2,1-4H3
