23
gdb 64259	2.5194	1.54409	1.48427	1.6132	83.74	-0.2337	0.0776	0.3113	1073.2168	0.207346	-388.29493	-388.28657	-388.285626	-388.326987	34.501	
C	-0.1597783546	 1.5653600243	 0.116069019	-0.420602
C	-0.0096975509	 0.0382916268	 0.0101047823	 0.296626
C	-1.3993323037	-0.6151530567	-0.0366316702	-0.434699
C	 0.8085310069	-0.3567320601	-1.2603254967	-0.247827
C	 2.3345538736	-0.4533859066	-1.0055445942	-0.214601
C	 2.5864479689	-0.8662296496	 0.4436704523	 0.100517
C	 1.4933584353	-1.8136026572	 0.9821806116	-0.266404
C	 0.7695626831	-0.4743803323	 1.2406911672	 0.080016
O	 2.0618671797	 0.195502211	 1.2935275717	-0.298353
H	 0.8168625208	 2.0522602122	 0.1497382444	 0.130864
H	-0.7199776566	 1.956845078	-0.7398419982	 0.103476
H	-0.7033542	 1.8449980519	 1.026152718	 0.104982
H	-1.9368186923	-0.3184381153	-0.9439263897	 0.113761
H	-1.3334891263	-1.7088626486	-0.0337528805	 0.109191
H	-2.0089621161	-0.3127321818	 0.8224301791	 0.109993
H	 0.4535310789	-1.3326800452	-1.6087076976	 0.094694
H	 0.5976301734	 0.3443255876	-2.0745314807	 0.093936
H	 2.7889482625	-1.1678608401	-1.7023414087	 0.091643
H	 2.8297702211	 0.5106844452	-1.1640702592	 0.10948
H	 3.6358824287	-1.0847647081	 0.6598788693	 0.071285
H	 1.0439104793	-2.5454049185	 0.308171309	 0.098146
H	 1.7966793712	-2.294752187	 1.9130908542	 0.107751
H	 0.204984387	-0.3473975699	 2.1704604475	 0.066126
141.6515	217.2554	232.7969	256.087	307.2123	327.7258	370.3075	391.2122	432.6121	471.9536	514.4464	593.3629	712.6561	793.3871	831.5158	877.2848	886.0708	906.7446	937.0928	946.9472	965.232	971.3812	973.1064	1023.8736	1041.9141	1057.6155	1083.9872	1104.5657	1156.0154	1199.8879	1209.7157	1225.5394	1260.8041	1268.8878	1283.1673	1322.907	1337.6221	1346.3057	1374.4957	1375.6218	1395.4197	1420.4659	1476.19	1483.0164	1487.7671	1488.9053	1502.1223	1510.822	1513.229	3021.1095	3028.1784	3030.2137	3039.6985	3052.0361	3065.1417	3069.2539	3079.8349	3082.9662	3087.5858	3090.7688	3093.2476	3130.1683	3135.2557
CC1(C)CCC2CC1O2	CC1(C)CC[C@@H]2C[C@H]1O2	
InChI=1S/C8H14O/c1-8(2)4-3-6-5-7(8)9-6/h6-7H,3-5H2,1-2H3	InChI=1S/C8H14O/c1-8(2)4-3-6-5-7(8)9-6/h6-7H,3-5H2,1-2H3/t6-,7-/m1/s1
