15
gdb 129947	2.44593	1.83041	1.05147	0.5339	75.78	-0.1991	-0.0419	0.1571	1063.0781	0.114714	-450.103903	-450.096115	-450.095171	-450.135798	30.733	
N	 0.0718428706	 1.3638173405	 0.0502618495	-0.592544
C	 0.0001601962	-0.0194653951	 0.0574293512	 0.211645
C	-1.1426649707	-0.7440903566	 0.043884669	 0.006662
O	-1.1978002772	-2.0938001161	 0.1052890091	-0.234961
N	-0.0456569105	-2.8315576638	 0.2587570737	-0.172163
C	 1.0865909057	-2.1945100145	 0.2202793872	 0.32244
N	 2.2365522008	-2.9727212286	 0.2771094798	-0.563444
C	 1.2566013237	-0.7425264399	 0.0779481243	 0.212668
N	 2.369751474	-0.100499118	-0.0346964805	-0.568623
H	 0.9919309608	 1.6781928499	-0.235054604	 0.269604
H	-0.6828071607	 1.8477756873	-0.4123396828	 0.246055
H	-2.1395391645	-0.3256060269	-0.0228417585	 0.128956
H	 2.0272248108	-3.9452942328	 0.465452909	 0.262111
H	 2.9376068698	-2.6134110605	 0.9131538851	 0.255484
H	 3.1659198712	-0.7341642849	-0.0889022322	 0.21611
102.4699	245.2673	306.3606	316.7289	344.6359	362.8391	377.3763	449.8195	475.4664	534.4096	544.2317	571.9956	651.6671	694.6938	740.6028	797.5057	838.3971	865.3477	879.6403	951.0745	1015.4249	1121.7926	1168.4556	1213.7469	1274.9794	1354.3325	1403.8712	1497.3526	1594.2536	1616.9378	1626.95	1669.8037	1687.3423	3211.2415	3491.3839	3531.8816	3534.6976	3632.4122	3656.147
NC1=CON=C(N)C1=N	NC1=C(C(=NO[CH]1)N)[NH]	
InChI=1S/C4H6N4O/c5-2-1-9-8-4(7)3(2)6/h1,6H,5H2,(H2,7,8)	InChI=1S/C4H6N4O/c5-2-1-9-8-4(7)3(2)6/h1,6H,5H2,(H2,7,8)
