20
gdb 85445	2.56159	1.47196	1.11785	3.2623	80.35	-0.2523	0.0334	0.2857	1156.296	0.171555	-403.165989	-403.157544	-403.156599	-403.198994	32.945	
C	 0.3136855213	 1.4778325336	-0.2868505393	-0.392082
C	-0.0902992125	 0.0735936452	 0.1514017701	 0.039006
O	 0.158560507	-0.8568430398	-0.9290597282	-0.248656
C	 1.2720792842	-1.613553614	-0.6875971572	 0.417023
N	 1.7250378095	-2.4933187295	-1.4711741074	-0.545536
C	 1.863704833	-1.2284913129	 0.6522569526	-0.397715
C	 0.7130844662	-0.4961536953	 1.3195181323	 0.357286
C	 0.8142784329	 0.1891179601	 2.6495557805	-0.332844
C	 0.0122033841	-1.0853484557	 2.5165723516	-0.315665
H	 1.3914983727	 1.5405201672	-0.4659470562	 0.123935
H	-0.2044332088	 1.7471349804	-1.211196258	 0.129876
H	 0.0506939278	 2.2099859495	 0.4825159875	 0.119702
H	-1.167196287	 0.0405054274	 0.3470931581	 0.09095
H	 1.1491914604	-2.5497324722	-2.3133312183	 0.218939
H	 2.2154590106	-2.1077898914	 1.1933922407	 0.135835
H	 2.7286115614	-0.5738761053	 0.4882222375	 0.129783
H	 1.7638655554	 0.1477259479	 3.172903313	 0.118989
H	 0.2716099601	 1.1176847853	 2.7954073762	 0.115484
H	-1.0695656622	-1.011791038	 2.565452048	 0.116226
H	 0.4176173541	-1.9947300026	 2.9477144465	 0.119467
88.5008	102.6454	217.1023	238.9421	271.6267	303.0314	369.0586	475.1307	482.6035	517.7435	543.7587	676.161	759.7644	784.2375	840.8596	861.136	892.7386	924.1187	928.6772	950.6023	986.6547	1016.6265	1039.4418	1060.0142	1082.0204	1087.8145	1104.5636	1130.7863	1172.7098	1188.3763	1261.89	1268.6187	1302.0377	1339.3656	1379.16	1404.7635	1408.08	1466.1923	1475.2965	1487.5505	1493.782	1507.7322	1777.9156	3037.4681	3042.6046	3051.2591	3116.1863	3121.7616	3122.4821	3124.722	3129.1328	3203.0777	3217.6836	3467.8917
CC1OC(=N)CC11CC1	C[C@H]1O[C]([NH])CC21CC2	
InChI=1S/C7H11NO/c1-5-7(2-3-7)4-6(8)9-5/h5,8H,2-4H2,1H3	InChI=1S/C7H11NO/c1-5-7(2-3-7)4-6(8)9-5/h5,8H,2-4H2,1H3/t5-/m1/s1
