13
gdb 14223	4.9234	1.85495	1.70349	3.7703	58.04	-0.2424	-0.0025	0.2399	751.7763	0.095538	-398.539154	-398.532975	-398.532031	-398.569253	24.188	
O	-0.0819997447	 1.3220591597	-0.0038312977	-0.447222
C	 0.0386417296	-0.0391163948	-0.0264575762	 0.375352
C	 0.8386478175	-0.9391329148	-0.9673942071	-0.256239
N	-0.0665787203	-2.0787628174	-0.5065837319	-0.216248
C	-1.0533362785	-1.0234960359	 0.0018193636	-0.073789
C	-0.2210021485	-0.9195189958	 1.276544309	-0.307733
C	 0.3954530012	-2.2164560666	 0.9132329834	 0.438369
O	 0.9994085652	-3.1019776091	 1.4281364772	-0.31293
H	 0.7132739825	 1.7016739167	 0.3879508407	 0.2994
H	 0.6565027	-0.71120945	-2.0207310561	 0.128881
H	 1.9048416775	-1.1140184227	-0.7892442908	 0.122094
H	-2.1213244262	-1.0301937839	-0.1517466746	 0.130681
H	-0.4527123553	-0.4460970354	 2.2214168006	 0.119384
138.3092	266.4873	339.1921	375.794	445.2033	509.4533	576.0306	653.6458	711.3294	791.415	833.1234	847.946	902.7195	911.6122	943.7787	968.8239	999.548	1065.8749	1083.4744	1102.6813	1144.5744	1203.8089	1242.2035	1255.8378	1311.2581	1463.0386	1513.4025	1924.3092	3048.1055	3114.3603	3210.9674	3246.0522	3791.9779
OC12CN3C1C2C3=O	O[C@]12CN3[C@H]1[C@H]2C3=O	
InChI=1S/C5H5NO2/c7-4-2-3-5(2,8)1-6(3)4/h2-3,8H,1H2	InChI=1S/C5H5NO2/c7-4-2-3-5(2,8)1-6(3)4/h2-3,8H,1H2/t2-,3-,5-/m0/s1
