17
gdb 43183	2.23696	2.13549	1.27016	4.0875	72.68	-0.2329	-0.034	0.1989	985.4072	0.136553	-421.781733	-421.774491	-421.773546	-421.813551	28.089	
O	-0.0297681974	 0.0196496899	 0.108282145	-0.300423
C	-0.0520752362	 1.2135423257	 0.048513433	 0.418168
C	-1.1517411975	 2.2777675181	 0.1178004031	-0.211754
C	-1.6529309487	 2.7584575858	-1.2977554492	-0.236853
C	-0.7766484585	 4.0441349219	-1.1854203836	-0.332472
C	-0.0682805649	 3.4099624543	 0.0080532045	 0.315749
C	 0.7022749832	 3.9071542693	 1.2206506325	-0.175487
O	 1.5256033184	 2.7104063401	 1.2146727077	-0.288986
C	 1.0365634079	 2.3098596248	-0.0927362194	-0.058219
H	-1.9117375544	 2.2187029637	 0.897837512	 0.093205
H	-1.3703340393	 2.0898525873	-2.113978988	 0.123047
H	-2.7294782476	 2.9242609899	-1.3499889774	 0.122395
H	-0.1604213617	 4.3201265952	-2.0452698345	 0.108883
H	-1.3753352253	 4.9136563114	-0.8969288686	 0.113561
H	 1.314191395	 4.8014824502	 1.0388770725	 0.107781
H	 0.1488374694	 4.0296416528	 2.158294909	 0.112463
H	 1.8312496875	 2.2360685595	-0.8416302685	 0.088943
90.4786	180.6225	213.0619	285.7446	302.5376	433.3004	472.5038	605.1447	692.4623	712.5848	747.0168	819.8395	842.5269	891.2653	932.5872	946.7073	957.0264	986.2307	992.9022	1041.1003	1093.8566	1111.7714	1121.5637	1159.9568	1174.2361	1217.9865	1225.8312	1238.4103	1259.0657	1262.6767	1272.2095	1303.5294	1368.0752	1479.0667	1495.5188	1516.1465	1886.4758	3006.5996	3052.0891	3065.0724	3066.1733	3076.391	3098.6893	3108.1808	3134.4867
O=C1C2CCC22COC12	O=C1[C@@H]2CC[C@]32CO[C@@H]13	
InChI=1S/C7H8O2/c8-5-4-1-2-7(4)3-9-6(5)7/h4,6H,1-3H2	InChI=1S/C7H8O2/c8-5-4-1-2-7(4)3-9-6(5)7/h4,6H,1-3H2/t4-,6-,7+/m0/s1
