21
gdb 53074	4.97117	0.70401	0.63365	0.264	100.16	-0.211	-0.0052	0.2059	1832.101	0.181771	-349.962787	-349.952817	-349.951873	-349.999885	35.739	
C	-0.0890334546	 1.5583669313	-0.3668153489	-0.507773
C	 0.0083521207	 0.1174854989	-0.1948428987	 0.216934
C	 0.1057950555	-1.07879819	-0.0590549999	-0.158586
C	 0.1531971075	-2.4813642556	 0.1236746704	 0.215466
C	 1.1644937487	-3.3063049102	-0.1931814309	-0.182086
C	 0.8795444235	-4.7325733157	 0.1953106691	-0.259905
C	-0.6472669206	-4.7319223594	 0.477417329	 0.041804
C	-1.0970915432	-5.7207039758	 1.5514549449	-0.405819
C	-0.9821538244	-3.250560007	 0.7856316315	-0.328723
H	 0.7684237511	 2.0731443539	 0.0817693786	 0.148794
H	-0.1178849413	 1.8316914664	-1.4280602177	 0.149082
H	-0.9964062151	 1.9558711065	 0.1013413333	 0.147903
H	 2.0989674268	-2.9849175143	-0.6383388716	 0.09044
H	 1.1621862705	-5.4562370658	-0.5782848224	 0.101396
H	 1.4521141983	-5.009720381	 1.0947367681	 0.10347
H	-1.1483649407	-4.9879383659	-0.4644727552	 0.078076
H	-0.6197385695	-5.4988720522	 2.5130834988	 0.113171
H	-2.1813462453	-5.6812428559	 1.7014970964	 0.112838
H	-0.8371219269	-6.7496736572	 1.2801912963	 0.111934
H	-0.9861859556	-3.0535527281	 1.8674796384	 0.105317
H	-1.9664324355	-2.9511140529	 0.4114413007	 0.106268
10.3426	67.6763	84.255	125.6747	240.072	256.2353	271.1735	331.0463	394.0189	399.9108	440.2204	534.1597	547.8552	612.4439	830.1801	833.3886	848.1234	909.379	934.7979	948.8087	972.6309	1006.1551	1048.7738	1053.4447	1064.7574	1106.1464	1147.459	1158.3659	1235.0964	1251.3913	1275.0164	1305.981	1321.5243	1349.9426	1372.8992	1411.4688	1413.3957	1476.1711	1476.6907	1482.5466	1491.0815	1497.0948	1500.7304	1674.6051	2346.9372	2983.4984	3005.286	3020.0664	3022.2336	3025.2606	3049.2436	3070.4143	3079.6516	3085.0275	3092.2521	3094.5957	3200.4685
CC#CC1=CCC(C)C1	CC#CC1=CC[C@@H](C)C1	
InChI=1S/C9H12/c1-3-4-9-6-5-8(2)7-9/h6,8H,5,7H2,1-2H3	InChI=1S/C9H12/c1-3-4-9-6-5-8(2)7-9/h6,8H,5,7H2,1-2H3/t8-/m1/s1
