18
gdb 7815	3.15675	1.74396	1.20085	2.2853	70.64	-0.2386	0.0107	0.2494	1013.0915	0.153929	-384.945175	-384.937168	-384.936224	-384.977285	30.225	
C	-0.0135065211	 1.5203914401	 0.0618083676	-0.477588
C	-0.0342437714	 0.0219450734	-0.0442900926	 0.278509
C	-0.1161229432	-0.6421776839	-1.1988172696	-0.202198
C	-0.0646157533	-2.1446675462	-1.2816407563	 0.078712
O	 0.7330841489	-2.5917026929	-2.3751621021	-0.42894
C	 0.4526539615	-2.7115426734	 0.0467935217	-0.108261
O	-0.2149634947	-2.1197607361	 1.1438774866	-0.24278
C	 0.0500334661	-0.737137274	 1.259758727	-0.144675
H	 0.886400547	 1.8683476907	 0.5852985224	 0.126748
H	-0.0352032897	 1.9907642258	-0.9243539149	 0.127811
H	-0.8713752529	 1.8909765904	 0.6373803492	 0.128917
H	-0.1993088172	-0.1117095881	-2.145401671	 0.086688
H	-1.0625627803	-2.5522480056	-1.4862540851	 0.102322
H	 1.5890335707	-2.1536640737	-2.3034145752	 0.276469
H	 0.2789034724	-3.7884199083	 0.1105258805	 0.113969
H	 1.541962539	-2.536257156	 0.1061362227	 0.073239
H	 1.0471030393	-0.5711182002	 1.7112644189	 0.095081
H	-0.685142341	-0.3434573619	 1.9725791503	 0.115977
118.5555	149.5165	189.6942	280.6352	283.0853	326.4305	392.0929	418.6294	460.6872	471.1983	566.7171	625.3534	849.1953	880.3558	912.7844	960.8324	997.3857	1013.8132	1050.1869	1071.0462	1091.7415	1124.6581	1155.4421	1194.7796	1238.9486	1258.5653	1305.202	1329.6361	1349.5542	1387.8202	1409.2813	1411.3053	1423.0218	1477.6994	1482.8004	1489.3629	1496.5669	1737.421	2923.5966	2946.863	3016.6457	3032.7848	3044.616	3063.1843	3100.864	3115.9605	3148.0496	3792.284
CC1=CC(O)COC1	CC1=C[C@@H](O)COC1	
InChI=1S/C6H10O2/c1-5-2-6(7)4-8-3-5/h2,6-7H,3-4H2,1H3	InChI=1S/C6H10O2/c1-5-2-6(7)4-8-3-5/h2,6-7H,3-4H2,1H3/t6-/m1/s1
