21
gdb 101953	2.0126	1.33817	0.86912	1.0229	78.35	-0.255	0.0831	0.3381	1357.688	0.181454	-424.179727	-424.170134	-424.169189	-424.214747	35.259	
O	 0.4839643131	 1.3788187417	-0.1664312401	-0.423984
C	 0.3134924488	-0.0250673792	-0.1213095907	-0.070862
C	-1.1626469508	-0.4496953175	-0.018447008	-0.060451
C	-1.9619755704	 0.028600255	-1.2201542917	 0.002957
C	-3.4581186992	 0.1672878046	-1.1314022916	-0.270983
C	-2.6018900407	 1.4036430224	-1.2296564007	-0.291701
C	-1.2675310229	-1.9533937012	 0.1370072483	 0.097173
C	-1.2642679758	-2.6081426285	 1.4516510517	-0.186028
O	-2.4754148416	-2.462410146	 0.7067062886	-0.239957
H	-0.0543620276	 1.7078984481	-0.8938619643	 0.289662
H	 0.7734093767	-0.5119285631	-0.9990678272	 0.081591
H	 0.8628139724	-0.3693269329	 0.761245353	 0.107672
H	-1.5836139294	 0.0075505235	 0.8862919388	 0.081698
H	-1.5736511271	-0.3215051112	-2.1754613252	 0.082453
H	-4.0512002616	-0.1152283598	-1.9936589436	 0.113745
H	-3.9209657733	-0.0611808438	-0.1784587965	 0.130467
H	-2.4941125344	 2.0174593543	-0.3415448496	 0.124196
H	-2.6135316028	 1.9632240693	-2.1590231687	 0.113232
H	-0.9090017403	-2.5358362288	-0.7150160087	 0.089717
H	-0.8962714767	-3.6280807297	 1.5532741454	 0.114959
H	-1.1950753466	-1.9989098372	 2.3523048108	 0.114443
71.3866	83.0992	111.1316	158.0733	173.591	225.8725	315.3825	360.5342	384.291	409.6415	449.1556	545.128	764.4066	812.5996	828.0619	854.209	868.7501	926.2583	940.9855	957.9669	996.8891	1055.7004	1061.5194	1077.4076	1086.1613	1104.5597	1126.4977	1138.806	1157.2408	1166.5621	1178.7353	1200.0092	1225.7528	1234.0023	1269.4225	1294.2294	1307.85	1386.073	1414.5328	1431.1274	1449.3784	1472.9793	1504.5715	1509.4755	1529.1119	2951.8388	3030.4673	3070.5666	3079.9441	3083.6885	3116.5752	3129.5109	3143.7731	3167.5335	3210.7599	3230.9245	3814.4602
OCC(C1CC1)C1CO1	OC[C@@H](C1CC1)[C@H]1CO1	
InChI=1S/C7H12O2/c8-3-6(5-1-2-5)7-4-9-7/h5-8H,1-4H2	InChI=1S/C7H12O2/c8-3-6(5-1-2-5)7-4-9-7/h5-8H,1-4H2/t6-,7+/m0/s1
