16
gdb 51129	4.47601	1.04323	0.97973	3.7687	69.46	-0.2287	0.0014	0.2301	1198.1329	0.123272	-437.807147	-437.799518	-437.798574	-437.839844	28.987	
O	 0.0739910279	-0.0205612975	-0.2100709459	-0.266402
C	 0.1076512039	 1.1685668305	-0.2894891179	 0.145631
O	 1.067506295	 1.906988563	 0.3249056341	-0.228246
C	 0.9725605255	 3.2939362725	 0.1986983125	 0.42293
C	 1.0712774162	 4.0425619538	-1.0995456502	-0.347815
C	 2.0989848069	 4.2764602409	-0.0072304141	-0.146427
C	 1.5323915237	 5.1296206853	 1.1688577348	-0.046932
N	 0.132420608	 5.5183425633	 0.8532439021	-0.335664
C	 0.4369698896	 4.1659481172	 1.3792458634	-0.131053
H	-0.6056224321	 1.7917274282	-0.8580009621	 0.094499
H	 1.4565563407	 3.4440519326	-1.9195745873	 0.123975
H	 0.3498087919	 4.8038464092	-1.3662485416	 0.151758
H	 3.1513618653	 4.0756171921	-0.15212583	 0.112863
H	 2.1247899496	 5.6822270197	 1.8853080358	 0.105127
H	-0.2115300603	 6.0763848151	 1.6344780085	 0.23644
H	-0.0047796416	 3.776459814	 2.2869059781	 0.109314
60.9079	139.1379	144.097	325.5387	344.2068	393.0945	423.0143	503.8014	587.8901	734.079	745.0882	801.5692	824.6088	846.4489	887.0193	914.1843	929.4031	982.705	983.804	1021.9019	1049.5843	1056.1995	1092.9033	1102.1762	1122.0093	1156.2638	1194.7265	1216.7652	1285.5418	1304.3552	1337.8099	1378.7945	1414.4493	1466.2088	1870.7078	2984.2357	3140.324	3200.0421	3211.3538	3218.4975	3238.9851	3475.7855
O=COC12CC1C1NC21	O=CO[C@]12C[C@H]1[C@H]1N[C@@H]21	
InChI=1S/C6H7NO2/c8-2-9-6-1-3(6)4-5(6)7-4/h2-5,7H,1H2	InChI=1S/C6H7NO2/c8-2-9-6-1-3(6)4-5(6)7-4/h2-5,7H,1H2/t3-,4+,5+,6+/m0/s1
