18
gdb 117324	4.97298	0.68524	0.60777	2.7982	72.52	-0.2275	-0.0076	0.2199	1761.5017	0.14697	-472.445081	-472.434887	-472.433943	-472.481642	35.994	
N	 1.2666632901	-0.445772994	-0.1938361178	-0.522096
C	 0.0278625057	 0.0981918975	-0.0373599254	 0.438607
N	-0.1517270238	 1.3564821457	 0.0994643363	-0.557584
N	-1.0395411506	-0.8408922776	-0.0889138954	-0.388895
C	-0.9964158209	-2.2164865444	-0.0567403348	 0.445178
O	 0.0358295619	-2.8648501278	 0.0062293525	-0.375999
C	-2.367373064	-2.8733807043	-0.1024242023	-0.319171
C	-2.2828801008	-4.393752698	-0.1017493312	-0.072877
O	-3.6173905806	-4.8750767661	-0.1382634779	-0.424065
H	 2.0287978786	 0.1730932233	 0.0257238043	 0.260608
H	 1.3645812399	-1.4403818554	-0.0457360979	 0.281141
H	-1.1369524037	 1.598916541	 0.1657402163	 0.200136
H	-1.95489207	-0.418581147	-0.0991686217	 0.252883
H	-2.9614780672	-2.5414338044	 0.7582470919	 0.137877
H	-2.9070758476	-2.5363036895	-0.9958953422	 0.137837
H	-1.7011638321	-4.7309973922	-0.9707172627	 0.107757
H	-1.7484335828	-4.7324382343	 0.7962721753	 0.108268
H	-3.5879789022	-5.8360572025	-0.1382187473	 0.290395
33.9157	65.064	91.4045	122.6878	129.4477	267.0135	286.3431	311.0633	416.5034	429.3214	457.435	492.5411	538.4863	565.6467	634.4541	723.5517	751.9853	764.3845	814.4811	921.5224	978.3338	1048.1179	1076.478	1083.2824	1133.0499	1164.1173	1197.2112	1210.7724	1260.0008	1307.9115	1351.7158	1409.5269	1457.0115	1473.8167	1499.4485	1524.4349	1604.1396	1754.7582	1774.278	3003.4865	3033.4225	3035.1391	3075.3963	3516.1072	3548.4963	3631.966	3708.5941	3834.295
NC(=N)NC(=O)CCO	NC(=N)NC(=O)CCO	
InChI=1S/C4H9N3O2/c5-4(6)7-3(9)1-2-8/h8H,1-2H2,(H4,5,6,7,9)	InChI=1S/C4H9N3O2/c5-4(6)7-3(9)1-2-8/h8H,1-2H2,(H4,5,6,7,9)
