16
gdb 126409	4.91091	0.88512	0.79381	2.679	80.47	-0.2635	-0.0427	0.2208	1418.3793	0.126127	-396.976058	-396.967667	-396.966723	-397.01008	30.102	
C	 0.3749394817	 1.4744765747	 0.2303378035	-0.372965
C	-0.1976021833	 0.1186997362	-0.2170084753	-0.28853
C	 0.6010759862	-0.5207764093	-1.3130027038	 0.357137
N	 0.1757447852	-0.4835563313	-2.5803116628	-0.260373
N	 1.1188590283	-1.1086074535	-3.2914304977	-0.270158
C	 2.1498957707	-1.5570862686	-2.5188605379	 0.304791
C	 1.8425030419	-1.1874802486	-1.2201458192	-0.386191
C	 3.2547475664	-2.2535264249	-3.0608540437	 0.225257
N	 4.1536003705	-2.8221042464	-3.5195114339	-0.335801
H	 1.3994479472	 1.3698691571	 0.6012811201	 0.120255
H	 0.3913276774	 2.1829185311	-0.6030859858	 0.129964
H	-0.2323624429	 1.9041301251	 1.0325350425	 0.118706
H	-0.2414076739	-0.5608766756	 0.6418080643	 0.111835
H	-1.2227137512	 0.2487779007	-0.5758880695	 0.125134
H	 1.0100154137	-1.2154333689	-4.2868583904	 0.291097
H	 2.4364034422	-1.381811778	-0.3422467204	 0.129845
37.1678	103.7863	144.8977	199.8566	221.6798	346.0424	394.3373	490.8675	527.9902	556.7713	568.1368	692.4081	700.2727	738.9975	790.1296	846.761	963.9491	1009.9825	1043.9418	1066.7988	1086.7816	1166.4849	1211.7652	1264.9305	1307.2791	1351.081	1408.0886	1421.3336	1450.6923	1479.3589	1484.493	1497.3283	1511.3499	1588.5731	2347.1944	3039.1273	3042.4874	3088.912	3112.7943	3118.3314	3275.1126	3664.9712
CCC1=NNC(=C1)C#N	CCc1n[nH]c(c1)C#N	
InChI=1S/C6H7N3/c1-2-5-3-6(4-7)9-8-5/h3H,2H2,1H3,(H,8,9)	InChI=1S/C6H7N3/c1-2-5-3-6(4-7)9-8-5/h3H,2H2,1H3,(H,8,9)
