21
gdb 90044	3.09788	1.38387	1.19318	1.8139	84.21	-0.2349	0.0662	0.3011	1144.1644	0.181678	-386.962515	-386.954188	-386.953244	-386.994713	33.739	
C	-0.2029810081	 1.5992956972	-0.2858105753	-0.406726
C	-0.0160029665	 0.1214487853	-0.0080461309	 0.075968
O	 0.9578883336	-0.5349136737	-0.9359244457	-0.367355
C	 1.783125843	-0.7625728257	 0.206082948	 0.424827
C	 2.5049129973	-1.7584022751	 1.1500291473	-0.334847
C	 2.1068353014	-0.4334029088	 1.993524878	 0.283969
C	 2.3783205728	-0.2160513481	 3.4586853845	-0.502598
C	 2.6581819052	 0.3786750901	 0.805936622	-0.310129
C	 0.7102649389	-0.5398779181	 1.2409121098	-0.157827
H	 0.7261647359	 2.1676362415	-0.2457358433	 0.13018
H	-0.6324895381	 1.7305224676	-1.2845714579	 0.129647
H	-0.9034980351	 2.0222909045	 0.4422398838	 0.121856
H	-0.9788381102	-0.3863248293	-0.1222541412	 0.094557
H	 1.9641845124	-2.672251331	 1.4054880772	 0.102297
H	 3.5787589117	-1.932903761	 1.0260391475	 0.095001
H	 3.4498420189	-0.2974509386	 3.6732448962	 0.120985
H	 2.0471165624	 0.7807513931	 3.7679735679	 0.124413
H	 1.8524560456	-0.9534265348	 4.0738743049	 0.12156
H	 3.7346097918	 0.3168347843	 0.6257890715	 0.088197
H	 2.2976361373	 1.4009969747	 0.7108501526	 0.093098
H	 0.1484432097	-1.431746744	 1.5294930932	 0.072929
162.6464	173.6522	207.5236	234.3981	260.3738	309.2845	400.9193	446.7921	478.4755	532.1221	558.1384	616.3079	692.6847	718.2713	781.1446	809.4665	878.0784	915.5326	955.3832	979.4404	1006.9247	1014.0016	1037.3062	1054.9472	1064.6895	1089.2744	1119.9546	1130.695	1151.9359	1157.3095	1189.0218	1216.3938	1224.3351	1275.249	1312.8484	1367.6096	1390.4648	1405.9293	1415.4188	1479.4433	1484.6963	1488.3449	1489.2622	1500.141	1540.8194	3027.9807	3040.6154	3042.5234	3048.165	3066.1218	3071.5521	3095.8242	3101.3231	3103.2305	3124.9492	3143.9891	3163.567
CC1OC23CC(C)(C2)C13	C[C@H]1O[C@@]23C[C@@](C)(C2)[C@@H]13	
InChI=1S/C8H12O/c1-5-6-7(2)3-8(6,4-7)9-5/h5-6H,3-4H2,1-2H3	InChI=1S/C8H12O/c1-5-6-7(2)3-8(6,4-7)9-5/h5-6H,3-4H2,1-2H3/t5-,6-,7-,8-/m1/s1
