21
gdb 108628	2.58745	1.31597	0.96537	1.9599	85.25	-0.2242	0.0132	0.2374	1291.2256	0.181788	-387.094306	-387.085125	-387.08418	-387.128501	34.474	
C	-0.3890168264	 1.5315124284	-0.0559860115	-0.372629
C	 0.0569010652	 0.059428174	 0.0147494807	-0.288448
C	 0.8139691862	-0.3991233625	-1.1978214329	 0.215464
C	 2.0838091645	-0.83782467	-1.2642445581	 0.208341
C	 3.10938458	-0.9479204721	-0.1790439751	-0.509874
C	 2.3869350366	-1.300087816	-2.6569400983	-0.04542
O	 1.5641045377	-2.4143446071	-3.0842363262	-0.261802
C	 1.1773074964	-1.0916865208	-3.4632466998	 0.037991
C	 0.1298279454	-0.4599863718	-2.5600404883	-0.335533
H	 0.4743850703	 2.1972851698	-0.1534523	 0.118977
H	-1.0477974496	 1.7120511725	-0.9110887181	 0.119782
H	-0.9356378678	 1.8143185432	 0.8488466528	 0.113967
H	 0.6608702718	-0.0913678055	 0.9150139493	 0.102172
H	-0.8346130805	-0.5718899336	 0.137765403	 0.106557
H	 2.7632393133	-0.5309962895	 0.7693692789	 0.124922
H	 3.3892547195	-1.9949060879	-0.005930262	 0.134739
H	 4.0313859709	-0.4208763683	-0.4562848695	 0.124334
H	 3.3976051049	-1.299556183	-3.0570230491	 0.088479
H	 1.1937782637	-0.8877894982	-4.5305662124	 0.091497
H	-0.7926033633	-1.0537337441	-2.5279709772	 0.118387
H	-0.1482006887	 0.5373618225	-2.9251578063	 0.108096
51.8491	125.9504	148.584	191.0871	217.8798	254.4289	295.4266	351.8075	391.2812	527.0603	561.2601	594.2015	663.7271	763.4595	779.9358	832.5824	862.5265	888.6101	933.7549	965.3526	998.521	1012.8315	1028.5875	1053.7983	1081.2118	1105.2622	1138.8455	1184.6707	1197.1454	1237.7561	1261.1905	1296.4678	1311.2879	1347.8257	1362.0074	1406.1481	1415.1687	1419.5893	1461.6441	1475.7068	1480.7318	1492.6724	1498.969	1508.0572	1713.6452	3009.0242	3018.1713	3021.4185	3037.0141	3054.4436	3061.5092	3070.6263	3108.0486	3109.9803	3118.5352	3142.298	3154.3438
CCC1=C(C)C2OC2C1	CCC1=C(C)[C@H]2O[C@H]2C1	
InChI=1S/C8H12O/c1-3-6-4-7-8(9-7)5(6)2/h7-8H,3-4H2,1-2H3	InChI=1S/C8H12O/c1-3-6-4-7-8(9-7)5(6)2/h7-8H,3-4H2,1-2H3/t7-,8+/m0/s1
