14
gdb 25105	3.21739	1.47432	1.09987	1.9895	76.86	-0.2512	-0.0876	0.1637	1047.7073	0.10251	-432.866654	-432.859391	-432.858447	-432.898963	27.174	
N	 0.1017809994	 1.0396984345	-0.7236398811	-0.46138
C	-0.0390670121	 0.09289509	 0.0945288182	 0.411728
O	 0.9240036204	-0.1331916825	 1.0882877474	-0.230639
C	 1.482051446	-1.3533517124	 1.2788308027	 0.046385
C	 1.0566975583	-2.5645638173	 0.8947771716	-0.161759
C	-0.2265614604	-2.9261431562	 0.3097804996	 0.249737
N	-0.4413554641	-4.1415244796	-0.0454725329	-0.482563
C	-1.3055658765	-1.8990534611	 0.2317297305	-0.029694
N	-1.2199791357	-0.6361305266	 0.1397341326	-0.212069
H	 1.0249130664	 1.4607447176	-0.621725831	 0.240201
H	 2.4169410963	-1.2409914137	 1.817822617	 0.142522
H	 1.7133932343	-3.4007799362	 1.1053840286	 0.127672
H	-1.4047191555	-4.2594181251	-0.3711858464	 0.226459
H	-2.3173720768	-2.3171340613	 0.2274327432	 0.133399
59.6965	115.4395	263.2448	337.0268	364.3508	416.9111	465.4427	521.4225	618.7255	699.9109	728.1532	796.8632	800.1756	834.3039	892.5901	900.8384	914.2378	973.7207	988.0319	1009.7762	1069.0038	1169.081	1246.1267	1316.7604	1381.2365	1412.4583	1448.9329	1646.0521	1696.2067	1731.0467	1759.1233	3079.8928	3191.0826	3210.3031	3431.4901	3506.8185
N=C1OC=CC(=N)C=N1	[NH][C]1O[CH]C=C([NH])C=N1	
InChI=1S/C5H5N3O/c6-4-1-2-9-5(7)8-3-4/h1-3,6-7H	InChI=1S/C5H5N3O/c6-4-1-2-9-5(7)8-3-4/h1-3,6-7H
