21
gdb 108327	2.85147	1.20814	1.0029	2.2947	77.55	-0.2549	0.0608	0.3157	1244.4794	0.182283	-424.191099	-424.18195	-424.181006	-424.225042	34.963	
O	 0.0859599606	 1.435687689	-0.0380734782	-0.417495
C	 0.056393144	 0.0217061007	 0.1181455945	-0.177929
C	-1.3328478239	-0.5494142769	-0.0459186132	 0.367152
C	-2.3652190324	-0.3460693233	 1.0945769119	-0.291667
C	-2.8208102757	-1.8265346442	 0.934468661	-0.239774
C	-1.6452385591	-2.0984858421	-0.046792994	-0.120571
C	-1.9889064868	-2.0056031663	-1.5542944313	 0.16087
O	-3.1140478838	-2.6663638361	-2.0741141217	-0.433767
C	-1.9644582082	-0.4507472826	-1.4683552838	-0.342372
H	-0.4814978746	 1.8150365285	 0.6409749166	 0.284535
H	 0.7253851266	-0.3716272844	-0.6562012421	 0.10711
H	 0.4744334763	-0.2800256923	 1.0931553411	 0.081627
H	-1.8850213718	-0.1720914198	 2.0639916717	 0.095532
H	-3.1227274802	 0.4289993759	 0.9410844502	 0.095817
H	-2.7924619493	-2.4164804556	 1.8522837253	 0.11008
H	-3.8174489141	-1.9572521929	 0.4994163497	 0.083678
H	-0.929031474	-2.861082942	 0.264661151	 0.062197
H	-1.1444254465	-2.3713049997	-2.1463126533	 0.092706
H	-3.8961878017	-2.3314487494	-1.6234217328	 0.278669
H	-2.9643399736	-0.0031111457	-1.4700459131	 0.088042
H	-1.3628918217	 0.0640082294	-2.2204570894	 0.115562
72.3855	95.8466	152.7224	226.2183	249.258	286.4918	327.2778	360.5236	369.934	416.4244	555.0062	588.3119	664.7967	751.7861	775.1083	857.7225	883.9941	913.0583	942.6444	954.9876	971.5203	1020.3533	1025.3521	1058.7692	1063.657	1109.8782	1132.7508	1140.9696	1154.9473	1212.1166	1236.5318	1246.2503	1253.2811	1277.5082	1286.8487	1306.9585	1324.6221	1338.4421	1374.42	1419.0735	1434.7865	1477.0489	1481.9372	1495.4436	1506.2215	2963.7895	3031.6076	3043.2811	3046.1435	3057.3642	3062.7987	3080.5034	3089.2481	3109.9302	3113.0427	3809.0783	3811.8533
OCC12CCC1C(O)C2	OC[C@]12CC[C@H]1[C@@H](O)C2	
InChI=1S/C7H12O2/c8-4-7-2-1-5(7)6(9)3-7/h5-6,8-9H,1-4H2	InChI=1S/C7H12O2/c8-4-7-2-1-5(7)6(9)3-7/h5-6,8-9H,1-4H2/t5-,6-,7+/m0/s1
