21
gdb 96184	2.42873	1.75467	1.18093	1.7766	78.25	-0.2518	0.0828	0.3347	1101.8814	0.184339	-424.22433	-424.216341	-424.215397	-424.256576	31.741	
C	-0.1402395191	 1.5465265508	-0.0766346506	-0.405768
C	 0.0066722546	 0.0350645462	-0.0012330594	 0.09662
O	 0.6235481082	-0.4017234716	-1.2149748953	-0.244646
C	 0.8410610926	-1.7851178044	-1.2062290782	 0.015973
O	 1.8038860063	-2.1721249077	-0.261997083	-0.256944
C	 1.4088292857	-1.8864414588	 1.0759997223	 0.095277
C	 2.6466847687	-1.3926114325	 1.8522058751	-0.232894
C	 2.2548240661	 0.0635137561	 1.4750663067	-0.238741
C	 0.8113451069	-0.4514866907	 1.2002769415	-0.003353
H	 0.8410411609	 2.0274153743	-0.1218501928	 0.129257
H	-0.7016266863	 1.8278232192	-0.9716903598	 0.124817
H	-0.6719943861	 1.9227338365	 0.8026583363	 0.113949
H	-0.9965288755	-0.4262574147	 0.0522481257	 0.0619
H	-0.1140082509	-2.3144436182	-1.0212752525	 0.070062
H	 1.2363919946	-2.0572399963	-2.1870770069	 0.11412
H	 0.8258907927	-2.7246763952	 1.4809459805	 0.060839
H	 2.5472632059	-1.5805023284	 2.9248546155	 0.099593
H	 3.6053565848	-1.7782619099	 1.5010332295	 0.110101
H	 2.3763255571	 0.8370527117	 2.2357785195	 0.094908
H	 2.7448487455	 0.384005912	 0.5533530223	 0.122256
H	 0.2016102173	-0.3791188683	 2.1068641635	 0.072673
129.015	159.7063	209.3808	219.2658	306.4691	342.0106	389.4583	447.0027	493.4035	601.821	671.6146	727.987	759.1077	835.4621	856.0678	903.7642	932.3723	939.0547	964.6757	1014.1673	1026.8214	1062.7715	1076.7901	1104.2855	1143.0991	1154.3864	1163.8376	1206.1113	1229.2572	1248.5113	1254.8701	1273.8612	1286.0051	1307.9918	1347.8248	1360.103	1375.2952	1390.125	1410.9051	1444.3787	1469.982	1482.8381	1489.2408	1498.5592	1508.641	2913.2137	2934.1172	3006.1046	3043.6313	3056.0167	3066.2744	3073.0535	3109.3837	3118.1266	3120.6873	3122.052	3134.5733
CC1OCOC2CCC12	C[C@H]1OCO[C@H]2CC[C@@H]12	
InChI=1S/C7H12O2/c1-5-6-2-3-7(6)9-4-8-5/h5-7H,2-4H2,1H3	InChI=1S/C7H12O2/c1-5-6-2-3-7(6)9-4-8-5/h5-7H,2-4H2,1H3/t5-,6+,7+/m1/s1
