19
gdb 36903	5.09677	0.84084	0.81429	2.6646	75.2	-0.2402	0.0775	0.3177	1441.4371	0.158778	-422.952819	-422.944656	-422.943712	-422.986581	30.719	
C	-0.3297311167	 1.5947291217	-0.3875747252	-0.260793
C	-0.1554254509	 0.1126293369	-0.6290515104	 0.103406
C	-0.4708567618	-0.8898766176	 0.397060211	-0.176197
O	-1.3490583653	-0.6690945803	-0.7081427768	-0.240002
C	 0.9563193061	 2.2459878376	 0.0954610069	 0.140499
O	 2.07450906	 2.0946342918	-0.8354135954	-0.308778
C	 2.336367803	 3.4989094827	-0.7642839447	 0.114278
C	 1.1997852879	 4.2827840696	-1.332797107	-0.298136
C	 1.1214429331	 3.7666501982	 0.0924592905	-0.153626
H	-0.6656756571	 2.0740317352	-1.3135987554	 0.1101
H	-1.1135202929	 1.7494496527	 0.3636564771	 0.107563
H	 0.5968391185	-0.1444371651	-1.3744934474	 0.111497
H	 0.047158925	-1.8478523529	 0.4010328474	 0.116198
H	-0.8510249882	-0.5660308567	 1.3658633048	 0.108481
H	 1.2540569202	 1.8227348098	 1.0641486323	 0.083031
H	 3.3692215127	 3.8201406444	-0.7005744795	 0.105664
H	 1.3593680813	 5.3544668475	-1.4025363501	 0.116915
H	 0.5966086372	 3.8562465196	-2.1285949757	 0.119241
H	 0.988234248	 4.4152463747	 0.9472297474	 0.100656
59.6104	69.6364	130.6944	196.0783	333.2088	352.6183	421.685	481.7893	540.1122	720.2758	766.5766	810.5481	826.5658	852.938	869.7807	926.5723	950.6122	970.9319	992.9081	1006.7772	1042.2182	1047.326	1054.7948	1084.0859	1099.118	1115.0513	1141.5229	1155.3709	1180.7395	1200.3765	1228.5091	1263.2893	1276.4877	1294.3227	1319.1085	1366.8427	1406.8661	1439.8243	1470.3317	1479.5586	1530.0447	3014.0899	3037.7899	3078.4394	3082.4728	3119.8124	3121.2501	3164.8805	3183.1207	3204.3813	3213.6939
C(C1CO1)C1OC2CC12	C([C@H]1CO1)[C@H]1O[C@H]2C[C@@H]12	
InChI=1S/C7H10O2/c1(4-3-8-4)6-5-2-7(5)9-6/h4-7H,1-3H2	InChI=1S/C7H10O2/c1(4-3-8-4)6-5-2-7(5)9-6/h4-7H,1-3H2/t4-,5-,6+,7-/m0/s1
