17
gdb 86521	3.84872	0.92715	0.82655	3.3422	76.02	-0.2341	-0.0889	0.1452	1386.8428	0.134781	-417.996733	-417.98767	-417.986726	-418.031796	31.702	
C	 0.2567187696	 1.4754912277	 0.23377583	-0.322706
N	 0.0383587642	 0.0461695241	 0.1832257817	-0.064578
C	-1.3001853875	-0.4732455112	 0.5305553713	-0.199892
C	-0.621701216	-1.6660744929	 1.2354932905	-0.110435
C	 0.6778400097	-0.7925920563	 1.2096740857	-0.180404
C	-1.1200215413	-2.0658140837	 2.5918622607	 0.282532
O	-2.0131531824	-1.5324956208	 3.2014906937	-0.266891
C	-0.3879238216	-3.2045500693	 3.1964208625	 0.224283
N	 0.195644745	-4.0931939946	 3.6514841575	-0.297594
H	 1.309858828	 1.6961300066	 0.0313052965	 0.127213
H	-0.3431584221	 1.9655536609	-0.5398764716	 0.128771
H	-0.0091809039	 1.9219019653	 1.2103514963	 0.0984
H	-1.8484849312	 0.1504703118	 1.2519631442	 0.115449
H	-1.9467980014	-0.6923776123	-0.3240551158	 0.115378
H	-0.5095411475	-2.5510985592	 0.60438612	 0.121886
H	 1.6060845562	-1.284743378	 0.9062235965	 0.125448
H	 0.8405573922	-0.2716075081	 2.1679916502	 0.10314
31.6739	75.9806	124.3981	199.5628	226.3414	266.5	307.3393	343.5992	350.1831	461.224	549.1171	653.9807	726.4492	762.1867	894.111	907.0028	983.9957	992.0241	1008.5769	1091.1118	1115.425	1127.3446	1151.981	1188.0199	1227.733	1230.4087	1237.1065	1300.0279	1341.6931	1375.2027	1452.8258	1486.4759	1497.945	1503.92	1528.6555	1791.8371	2335.5877	2933.1883	2966.7229	3001.3069	3062.4655	3074.7685	3078.685	3092.9218	3104.5087
CN1CC(C1)C(=O)C#N	CN1CC(C1)C(=O)C#N	
InChI=1S/C6H8N2O/c1-8-3-5(4-8)6(9)2-7/h5H,3-4H2,1H3	InChI=1S/C6H8N2O/c1-8-3-5(4-8)6(9)2-7/h5H,3-4H2,1H3
