21
gdb 92589	2.04279	1.73218	1.56723	2.3675	77.58	-0.2368	0.069	0.3058	1038.0799	0.182941	-424.225411	-424.216841	-424.215897	-424.258171	33.797	
C	-0.1623212555	 1.4941386677	 0.0147729758	-0.466349
C	 0.0431441319	-0.0059415046	 0.0578527566	 0.425832
O	-1.2214703092	-0.6382319499	 0.0133684086	-0.284027
C	-1.1457382294	-1.8798376716	 0.7062800942	-0.087402
C	-0.1605889212	-1.6376371171	 1.8623897233	-0.23489
C	 0.8402930587	-0.6561413777	 1.243427744	-0.072949
C	 1.8585374443	-1.2592497947	 0.2329283435	-0.278274
C	 1.1006129304	-0.5884718107	-0.9499166972	 0.058984
O	 0.5145080051	-1.4404266134	-1.9066238626	-0.419878
H	 0.7953903392	 2.022706273	 0.0490386704	 0.10834
H	-0.6795896003	 1.778684475	-0.9072882467	 0.130302
H	-0.7712552764	 1.8206101095	 0.8632995038	 0.118244
H	-2.1552206704	-2.1386195664	 1.0374496496	 0.102495
H	-0.7855760532	-2.6690055254	 0.0325818776	 0.103276
H	-0.6786954226	-1.1686259218	 2.7050178497	 0.102784
H	 0.3060309609	-2.5600973417	 2.2209740785	 0.097677
H	 1.2694013097	 0.035009457	 1.9707515205	 0.064739
H	 2.8930873237	-0.9329481479	 0.3655548089	 0.095776
H	 1.8396179282	-2.3524096267	 0.1823542305	 0.094435
H	 1.6848968553	 0.2069987639	-1.4348635853	 0.057857
H	 1.2230957708	-1.8248685665	-2.4328961637	 0.283026
80.0859	205.5464	212.8369	233.9986	266.8246	275.0854	319.5783	381.7361	433.2642	533.6609	610.4706	612.74	650.2213	773.3416	818.8342	857.5039	886.8212	904.8472	924.3156	955.462	981.0052	1034.0358	1048.6471	1095.6061	1117.6293	1139.2845	1150.5989	1177.1941	1183.1423	1207.9237	1229.9592	1242.905	1257.9	1293.38	1309.5793	1331.9976	1340.0032	1385.679	1407.366	1423.1117	1473.0245	1483.286	1485.3288	1492.6415	1523.3225	2986.9332	3015.6211	3035.2378	3046.9074	3049.2608	3087.2135	3089.0737	3098.9673	3107.676	3109.8077	3111.4255	3811.8658
CC12OCCC1CC2O	C[C@]12OCC[C@H]1C[C@H]2O	
InChI=1S/C7H12O2/c1-7-5(2-3-9-7)4-6(7)8/h5-6,8H,2-4H2,1H3	InChI=1S/C7H12O2/c1-7-5(2-3-9-7)4-6(7)8/h5-6,8H,2-4H2,1H3/t5-,6+,7-/m0/s1
