17
gdb 87749	4.90246	0.91046	0.86997	1.6653	76.	-0.2335	0.0204	0.254	1339.3908	0.133184	-421.743293	-421.734482	-421.733538	-421.777128	33.18	
O	 0.0603703045	 1.3557984277	 0.2780919047	-0.420696
C	 0.0022021047	-0.0315450476	 0.1237132278	 0.010154
C	-0.7015959056	-0.8892088344	 1.1710781131	-0.399016
C	-1.3428473327	-0.6054463644	-0.1513603506	 0.454109
C	-2.6188123824	 0.1473385921	-0.4848467238	-0.367423
C	-2.759927055	-0.9201294377	-1.6090762887	-0.048069
O	-1.5638133351	-1.610338123	-1.1401272974	-0.314303
C	-3.9467521589	-1.7551091439	-1.598746954	 0.333164
C	-4.9404478197	-2.4312451094	-1.5913038276	-0.453417
H	 0.6840539397	 1.5533680541	 0.9850571611	 0.290369
H	 0.8453471811	-0.490227139	-0.3936917412	 0.098036
H	-0.3120082229	-1.8871913922	 1.3434976143	 0.126809
H	-1.1160484927	-0.3905293446	 2.0421138696	 0.118331
H	-3.4016827595	 0.0985957395	 0.2723520153	 0.124043
H	-2.4838882997	 1.1744302276	-0.8234217956	 0.133744
H	-2.591668147	-0.5176888145	-2.615338825	 0.11144
H	-5.8146604687	-3.0343441402	-1.5862033218	 0.202726
43.4333	113.335	192.3131	216.8835	233.5382	296.5574	365.6149	436.851	466.7617	489.1295	542.6113	609.8887	622.4816	670.8199	767.7697	813.8828	875.422	896.6323	915.4979	971.4114	989.5535	1015.4729	1050.2757	1071.1859	1089.8871	1149.8897	1170.438	1204.9079	1236.41	1270.532	1293.5077	1343.3724	1370.9782	1415.435	1487.5274	1504.612	2236.9182	3029.3268	3091.4146	3101.9756	3123.7321	3151.9422	3218.7154	3503.312	3798.9427
OC1CC11CC(O1)C#C	O[C@H]1C[C@]21C[C@@H](O2)C#C	
InChI=1S/C7H8O2/c1-2-5-3-7(9-5)4-6(7)8/h1,5-6,8H,3-4H2	InChI=1S/C7H8O2/c1-2-5-3-7(9-5)4-6(7)8/h1,5-6,8H,3-4H2/t5-,6-,7-/m0/s1
