17
gdb 54798	2.46773	1.60275	1.1071	2.1772	73.76	-0.241	-0.0259	0.2151	1098.8657	0.134184	-421.837858	-421.829394	-421.82845	-421.871377	31.196	
C	-0.001931526	 1.3846499918	 0.418476208	-0.485426
C	 0.1287663084	-0.0004192078	-0.1822193337	 0.364758
O	 1.1614001405	-0.4256946056	-0.6483430464	-0.302619
C	-1.135785741	-0.8366281916	-0.1208326962	-0.234961
C	-1.1377240166	-2.300482221	-0.5721685351	-0.056931
C	-0.2205301128	-3.1014540883	 0.2732181863	-0.273934
C	-1.6015534461	-2.7740940906	 0.8374456052	-0.171223
C	-1.6277019688	-1.3519486943	 1.2842638217	 0.401845
O	-2.0199525011	-0.7716889868	 2.2549026576	-0.315208
H	 0.9809512828	 1.8482579491	 0.5098515342	 0.140857
H	-0.6367186205	 2.0075657136	-0.2233396575	 0.140526
H	-0.4985604498	 1.3268841927	 1.393631944	 0.16427
H	-1.9752925267	-0.2612637031	-0.5295797032	 0.120886
H	-1.5284494591	-2.6500788216	-1.5177240349	 0.1129
H	-0.1113049148	-4.1464430665	 0.0024251563	 0.131204
H	 0.6721527518	-2.6544481575	 0.6939228596	 0.145979
H	-2.2932636701	-3.5518178326	 1.1341449541	 0.117078
66.9225	126.3061	145.4672	157.6521	202.8566	333.541	392.5585	446.6857	556.4528	576.3709	633.3991	670.2233	754.7508	808.6257	847.7335	901.5177	926.4884	935.2524	966.9486	1012.1658	1019.685	1043.7141	1064.9807	1088.7258	1114.7491	1141.3391	1175.791	1195.2439	1289.9163	1325.4882	1346.6124	1386.9262	1467.0051	1474.0222	1499.1057	1803.4427	1878.6372	3032.2817	3051.6191	3094.3727	3142.7205	3153.3823	3203.7718	3214.7428	3229.7355
CC(=O)C1C2CC2C1=O	CC(=O)[C@H]1[C@H]2C[C@H]2C1=O	
InChI=1S/C7H8O2/c1-3(8)6-4-2-5(4)7(6)9/h4-6H,2H2,1H3	InChI=1S/C7H8O2/c1-3(8)6-4-2-5(4)7(6)9/h4-6H,2H2,1H3/t4-,5+,6-/m0/s1
