23
gdb 122838	6.86997	0.49915	0.4735	1.5648	84.47	-0.2446	-0.0095	0.2352	2388.4993	0.201799	-425.450191	-425.438499	-425.437554	-425.489396	39.496	
C	 0.0594399874	 1.5732053214	 0.1433900076	-0.384803
C	 0.0232675103	 0.0580795147	 0.036231075	-0.027751
O	 0.688252094	-0.4896108993	 1.156353376	-0.249074
C	 0.7107671221	-1.9006142081	 1.1524802466	-0.051063
C	 1.4492503397	-2.3582541351	 2.4013590331	-0.314083
C	 1.5462067545	-3.8710789987	 2.5215120888	 0.37141
O	 1.070058698	-4.6084527542	 1.6864097267	-0.300447
C	 2.2740807993	-4.4063440695	 3.7483927894	-0.274633
C	 2.3349587819	-5.9306013135	 3.8063908356	-0.374905
H	 1.0925210738	 1.9318677365	 0.1649217463	 0.125021
H	-0.4489278973	 2.0287368635	-0.7116404371	 0.114404
H	-0.436787248	 1.9050539713	 1.0599026591	 0.125023
H	-1.0186752451	-0.3030506719	-0.0011305016	 0.085859
H	 0.5102382469	-0.2762821542	-0.8957109055	 0.085856
H	-0.3107258512	-2.3115020869	 1.1422908072	 0.099513
H	 1.2130781149	-2.2847247052	 0.251072217	 0.099489
H	 2.4610168885	-1.932407928	 2.4159342678	 0.128324
H	 0.9549234448	-1.9591329512	 3.2966763523	 0.12835
H	 3.2814237946	-3.9673885434	 3.7585941025	 0.120915
H	 1.7788165471	-3.9939530526	 4.6384388018	 0.120924
H	 2.8496076618	-6.3340293328	 2.9307162911	 0.131083
H	 2.8647188646	-6.2623315744	 4.7036769511	 0.109446
H	 1.3303982273	-6.3608754386	 3.8175978694	 0.131141
31.8936	41.1029	65.3506	84.2221	104.7434	137.1665	190.9923	199.6149	246.1364	262.9669	312.7969	429.9609	471.5124	496.9949	649.8326	716.6605	816.5867	824.4165	827.258	906.742	987.8073	987.8723	1010.9826	1047.8194	1092.3716	1123.5114	1131.8331	1159.8871	1169.7582	1186.309	1221.0925	1280.3942	1296.2607	1306.4583	1321.3565	1374.5979	1392.0628	1409.1562	1413.7742	1445.009	1452.3565	1465.5359	1483.6425	1492.0485	1497.9923	1499.7013	1514.476	1536.1184	1800.5109	2953.262	2978.0641	2981.6858	3006.9698	3016.2974	3032.0006	3042.7695	3044.3463	3051.7857	3064.8669	3118.8385	3120.1627	3122.8829	3127.7997
CCOCCC(=O)CC	CCOCCC(=O)CC	
InChI=1S/C7H14O2/c1-3-7(8)5-6-9-4-2/h3-6H2,1-2H3	InChI=1S/C7H14O2/c1-3-7(8)5-6-9-4-2/h3-6H2,1-2H3
