21
gdb 37471	2.84719	1.64968	1.35944	1.2986	80.91	-0.232	0.0832	0.3152	1033.2505	0.185891	-387.065187	-387.057878	-387.056933	-387.096783	30.122	
C	-0.0177845008	 1.4184987097	 0.025958477	-0.277976
C	 1.3147705457	 0.7293827364	 0.1004382569	-0.07231
C	 0.0108952346	-0.0813472212	 0.0861064026	-0.061296
C	 0.3618963731	-0.641757751	-1.2935015476	 0.081897
O	-0.5390812459	-0.2399962054	-2.3072562578	-0.261849
C	 0.0907019426	 0.0532489892	-3.5452232506	-0.063147
C	 1.0232784342	 1.2562847363	-3.4108640419	-0.205438
C	 2.1830215955	 0.9410851162	-2.4465591365	-0.234709
C	 1.7481408221	 0.1035340702	-1.2305291583	-0.012006
H	-0.326030596	 1.9050436332	 0.9459713431	 0.108253
H	-0.3585128214	 1.914184355	-0.8759962465	 0.117192
H	 1.9854889018	 0.8961360566	 0.9355362435	 0.081743
H	-0.458524594	-0.6402164262	 0.8854280937	 0.083795
H	 0.4748484681	-1.7341714734	-1.3107681841	 0.064949
H	 0.6462147891	-0.8239892121	-3.921015251	 0.079858
H	-0.7200945648	 0.2574203782	-4.2508106856	 0.10383
H	 1.4192251019	 1.5325068968	-4.3950485928	 0.091375
H	 0.4321814072	 2.1076950971	-3.0553219145	 0.107976
H	 2.938052195	 0.372952525	-3.0042593333	 0.095407
H	 2.6751536837	 1.8633745749	-2.117122373	 0.098575
H	 2.5187234083	-0.6432760355	-1.0179881031	 0.07388
113.0498	142.7491	269.7874	313.4506	388.5976	438.8568	493.5885	535.5872	612.9979	722.759	748.6052	790.6501	804.3399	862.5332	876.6559	921.6537	924.8297	971.6634	981.4898	1017.7635	1026.9972	1043.0854	1062.402	1075.8472	1083.4645	1097.5994	1124.3743	1141.8959	1182.6977	1220.2121	1223.7383	1267.5277	1278.0695	1293.892	1325.0445	1348.3564	1355.2119	1370.737	1378.5604	1390.843	1411.0713	1475.8679	1488.2612	1496.2526	1503.5896	2953.946	3002.2464	3018.4438	3033.9429	3053.8549	3061.1643	3078.3815	3082.296	3133.8284	3171.4402	3192.7622	3217.0308
C1C2C1C1OCCCC21	C1[C@H]2[C@@H]1[C@H]1OCCC[C@@H]21	
InChI=1S/C8H12O/c1-2-5-6-4-7(6)8(5)9-3-1/h5-8H,1-4H2	InChI=1S/C8H12O/c1-2-5-6-4-7(6)8(5)9-3-1/h5-8H,1-4H2/t5-,6+,7+,8-/m0/s1
