16
gdb 19713	4.04859	2.4259	2.24742	1.8327	65.86	-0.2325	0.0049	0.2374	683.5954	0.133837	-346.578898	-346.573582	-346.572638	-346.607866	23.201	
C	-0.0170043426	 1.5658103527	 0.0086750234	-0.208209
C	 1.5284597496	 1.6811635924	-0.0196932686	-0.11631
C	 1.8751314186	 0.7419881124	 1.1457356745	-0.073638
C	 0.9709931337	-0.2436686198	 1.1494868372	-0.07364
C	 0.0010175122	 0.0160472588	-0.0133352692	-0.116311
C	 0.8658787047	-0.2383251316	-1.2777157809	 0.058208
O	 0.8242792983	 0.7853228635	-2.2875772702	-0.264303
C	 1.8515348776	 0.8361592833	-1.2818126708	 0.058209
H	-0.4368054512	 1.9544492217	 0.9375777838	 0.095476
H	-0.507391436	 2.0123536626	-0.8553073792	 0.117585
H	 1.9637598755	 2.679567444	 0.0126526685	 0.065385
H	 2.739037381	 0.848734081	 1.7887045262	 0.098887
H	 0.9414801626	-1.1108905543	 1.7961647514	 0.098888
H	-0.9560731978	-0.503438002	 0.0248122719	 0.065385
H	 1.0654738223	-1.2461623274	-1.6291754094	 0.097195
H	 2.8714714115	 0.7225922727	-1.6366790487	 0.097195
349.4197	357.1303	483.0515	485.8222	557.631	680.3115	721.0758	788.036	789.9024	841.4216	869.2397	891.5405	898.9168	900.0617	932.3092	938.2179	982.227	983.1726	993.2359	1031.2426	1101.8021	1120.2392	1139.6886	1186.7511	1224.3171	1259.1815	1266.8911	1280.3237	1284.3531	1296.9633	1348.2076	1414.2237	1483.3761	1629.9989	3089.7955	3117.357	3120.0882	3153.8916	3154.1534	3167.2207	3204.5601	3230.1184
C1C2C=CC1C1OC21	C1[C@H]2C=C[C@@H]1[C@H]1O[C@@H]21	
InChI=1S/C7H8O/c1-2-5-3-4(1)6-7(5)8-6/h1-2,4-7H,3H2	InChI=1S/C7H8O/c1-2-5-3-4(1)6-7(5)8-6/h1-2,4-7H,3H2/t4-,5+,6+,7-
