18
gdb 11586	5.67911	0.97235	0.88166	1.3355	70.34	-0.2464	0.0312	0.2777	1323.7708	0.153521	-381.101875	-381.093109	-381.092165	-381.136347	30.738	
C	-0.3168567058	 1.343494302	-0.1663898951	-0.459436
C	-0.0477925402	-0.1181590254	 0.0858574691	 0.39936
N	 0.1079272917	-0.7197430545	 1.1937862192	-0.522326
O	 0.0154546136	-0.7853085583	-1.0850780073	-0.240542
C	 0.2812931789	-2.1941699492	-1.0077114663	-0.077559
C	 0.3206857036	-2.7301374466	-2.4089470905	 0.012592
C	-0.1285797848	-4.1221555392	-2.6600945458	-0.245917
N	-0.926712346	-2.9852234429	-3.1448419061	-0.307647
H	 0.4804767867	 1.7721948033	-0.7810571237	 0.147728
H	-1.2516288775	 1.4637671598	-0.7222212012	 0.147713
H	-0.3833071383	 1.8970916425	 0.7714033792	 0.1261
H	 0.0285659194	-0.0660216213	 1.9691753781	 0.219445
H	 1.2308117745	-2.3531753392	-0.4845079579	 0.124043
H	-0.5016111714	-2.6808831005	-0.4135279485	 0.110091
H	 1.1120580047	-2.3177658668	-3.0310602123	 0.099101
H	 0.3485093938	-4.7136440207	-3.4358655647	 0.122139
H	-0.4950887508	-4.6990099455	-1.8142658329	 0.113965
H	-1.723406742	-2.8323982074	-2.5301633834	 0.23115
53.3653	65.4268	109.7975	141.0791	177.7598	286.8063	332.6214	436.7969	495.7579	576.0248	609.3109	804.7705	834.4268	855.7091	916.8584	936.3972	944.2496	985.5463	1009.8598	1065.7346	1068.4039	1077.1321	1111.419	1136.811	1155.38	1215.777	1252.6134	1273.0077	1311.1755	1345.4826	1385.3092	1413.3581	1450.6528	1471.3049	1482.2692	1497.3819	1515.6411	1725.5845	3032.105	3049.4263	3074.9514	3108.9346	3113.047	3136.3195	3144.4508	3194.2505	3491.4131	3516.1037
CC(=N)OCC1CN1	C[C]([NH])OC[C@H]1CN1	
InChI=1S/C5H10N2O/c1-4(6)8-3-5-2-7-5/h5-7H,2-3H2,1H3	InChI=1S/C5H10N2O/c1-4(6)8-3-5-2-7-5/h5-7H,2-3H2,1H3/t5-/m1/s1
