18
gdb 64579	3.84736	1.18907	1.16649	3.4435	78.74	-0.2276	-0.0289	0.1987	1113.2161	0.147087	-401.940556	-401.932442	-401.931498	-401.973059	31.092	
C	-0.1495092982	 1.6189875928	 0.0024734935	-0.489231
C	-0.0178125793	 0.1173667128	-0.0363042617	 0.203958
C	-1.0967367555	-0.6306378965	 0.6886966477	 0.138145
O	-2.1291204472	-0.1417134008	 1.0739093806	-0.267715
C	 0.5796492499	-0.6582152214	-1.2026519559	-0.115907
C	 1.3965814938	 0.0991059694	-2.1859365644	-0.074321
C	 2.4755029645	 0.6032143238	-1.5849422974	-0.086725
C	 2.4897095789	 0.2170744278	-0.123351494	-0.210723
N	 1.2755010125	-0.6070815596	 0.0921239257	-0.149172
H	 0.4490615979	 2.1131207528	-0.763000187	 0.126132
H	-1.2005962781	 1.8832551014	-0.134157517	 0.147349
H	 0.1527018849	 2.0019762052	 0.9838362034	 0.129253
H	-0.8623566637	-1.7077949019	 0.8359948016	 0.083044
H	 0.1254057862	-1.6026662404	-1.4956003971	 0.099312
H	 1.1255498982	 0.20421557	-3.2284688922	 0.110607
H	 3.235448475	 1.2246225332	-2.0435961306	 0.109344
H	 3.3695156341	-0.3845695677	 0.1380747952	 0.12388
H	 2.4938904363	 1.087413299	 0.5456922197	 0.122771
91.5113	171.9188	197.9273	214.9197	287.9955	301.1519	374.5516	413.4975	511.6207	584.0341	714.4756	740.4505	749.7461	766.6768	829.0343	884.8941	928.6366	953.8659	965.2257	1002.4204	1019.0643	1049.3291	1075.3184	1095.0892	1110.4314	1125.3819	1205.7655	1242.7963	1312.0698	1318.8882	1352.4138	1365.0516	1403.3124	1423.9843	1482.1987	1489.027	1500.4649	1663.3487	1819.2828	2897.3517	3019.7805	3045.1419	3046.429	3112.5757	3123.5699	3150.7149	3201.7981	3228.6131
CC1(C=O)C2C=CCN12	C[C@@]1(C=O)[C@H]2C=CCN12	
InChI=1S/C7H9NO/c1-7(5-9)6-3-2-4-8(6)7/h2-3,5-6H,4H2,1H3	InChI=1S/C7H9NO/c1-7(5-9)6-3-2-4-8(6)7/h2-3,5-6H,4H2,1H3/t6-,7-,8?/m1/s1
