21
gdb 100655	1.95412	1.43403	1.0484	4.9933	79.06	-0.254	0.039	0.293	1264.5382	0.179698	-420.408051	-420.39697	-420.396026	-420.444068	39.804	
C	-0.2072921598	 1.2681731984	 0.0576903673	-0.241609
O	-0.0124772259	-0.1290585283	 0.0050588637	-0.255024
C	 0.6346857338	-0.6045029619	-1.166380528	 0.123774
C	 2.152508416	-0.5987503518	-0.9840870272	-0.422161
C	 0.026647638	-2.0234858029	-1.4165831885	 0.063429
C	 0.6739294947	-2.7277216101	-2.6211182938	-0.425372
N	 0.0950467998	-2.9065665587	-0.2489081143	-0.522664
C	-1.4075676896	-1.8080754722	-1.7239986329	 0.321019
N	-2.5129754445	-1.6209675281	-2.002421567	-0.351882
H	 0.7425294636	 1.8224534368	 0.0464293721	 0.107298
H	-0.8294491844	 1.6181166715	-0.7781665584	 0.123624
H	-0.7236245769	 1.4828204253	 0.9960370415	 0.135133
H	 0.3660392378	 0.0322172491	-2.0229735228	 0.082717
H	 2.4543970471	-1.292382648	-0.1935570617	 0.118099
H	 2.6737825575	-0.8641920766	-1.9076417505	 0.125204
H	 2.4861968175	 0.4010505579	-0.693111876	 0.128131
H	 1.7230968122	-2.9503715865	-2.4075258972	 0.122384
H	 0.1557634382	-3.667726001	-2.8191078951	 0.151662
H	 0.6262504439	-2.102759291	-3.5164464003	 0.134083
H	 1.0562242931	-3.1993757372	-0.1024527731	 0.230623
H	-0.192099022	-2.3823997447	 0.5731704121	 0.251534
54.4596	77.0988	141.2741	185.2128	191.6626	203.5845	212.7491	263.7372	300.9265	311.5225	340.8702	364.7726	413.5461	423.5923	516.6091	593.6297	612.2562	733.4716	830.3497	866.6836	915.2919	968.0462	1015.0321	1026.4	1089.3434	1117.5738	1143.3806	1181.6995	1186.1098	1202.8137	1240.475	1335.5247	1359.9674	1373.306	1400.8219	1408.2689	1480.1628	1483.412	1485.8624	1492.0113	1493.64	1503.2272	1508.0329	1653.9426	2359.7559	2984.8738	2993.0037	3040.7097	3044.3274	3051.8204	3114.9638	3121.0119	3121.2296	3126.6381	3142.6754	3493.9436	3581.0369
COC(C)C(C)(N)C#N	CO[C@@H](C)[C@@](C)(N)C#N	
InChI=1S/C6H12N2O/c1-5(9-3)6(2,8)4-7/h5H,8H2,1-3H3	InChI=1S/C6H12N2O/c1-5(9-3)6(2,8)4-7/h5H,8H2,1-3H3/t5-,6-/m0/s1
