17
gdb 31289	2.09513	1.57119	0.94751	2.7322	85.94	-0.2121	-0.0073	0.2049	1232.0341	0.136367	-380.892123	-380.883381	-380.882437	-380.925947	32.372	
C	 0.2441587301	 1.6200703414	 0.2138888027	-0.368217
C	-0.1003223703	 0.1491881702	-0.0708928611	-0.303154
C	 0.5705860409	-0.3741336927	-1.3006881439	 0.19155
C	-0.0204975664	-0.8258165184	-2.470325282	 0.103639
N	 1.0408258625	-1.1861312368	-3.29114476	-0.322399
C	 2.1824325224	-0.9426397241	-2.6012065101	 0.00352
N	 1.9374945651	-0.4551786615	-1.4044521562	-0.298793
C	-1.364815898	-0.9454543261	-2.864017157	 0.275465
C	-2.5170534266	-1.0502145152	-3.2036968099	-0.46529
H	 1.326255172	 1.7471159656	 0.303290871	 0.136864
H	-0.1061101804	 2.2684443831	-0.5954942271	 0.115573
H	-0.2225266324	 1.9549236179	 1.1453503583	 0.107667
H	 0.207175743	-0.4627372338	 0.7862116085	 0.115299
H	-1.1829568874	 0.0265830147	-0.1779421131	 0.109771
H	 0.9562491637	-1.560897391	-4.2213089118	 0.271955
H	 3.1598624903	-1.1400397274	-3.0160768293	 0.134327
H	-3.5343118484	-1.1383809859	-3.4944771992	 0.192221
51.286	131.6499	155.7301	175.4062	221.6139	328.9323	374.2557	462.162	501.5256	528.5122	545.5641	589.6548	673.137	681.2413	683.7103	757.5726	798.3312	823.2378	949.6147	983.9086	1046.62	1085.1575	1114.8039	1155.4708	1246.5044	1277.4265	1315.5603	1356.174	1374.9829	1405.9148	1459.8859	1478.1905	1496.2448	1500.7706	1515.258	1589.4322	2224.0998	3030.3016	3039.4931	3078.5865	3108.3238	3124.2884	3250.1883	3502.1384	3665.3458
CCC1=C(NC=N1)C#C	CCc1c([nH]cn1)C#C	
InChI=1S/C7H8N2/c1-3-6-7(4-2)9-5-8-6/h1,5H,4H2,2H3,(H,8,9)	InChI=1S/C7H8N2/c1-3-6-7(4-2)9-5-8-6/h1,5H,4H2,2H3,(H,8,9)
