19
gdb 105318	2.38666	1.51837	1.15988	4.4825	79.42	-0.2355	0.0306	0.2661	1130.0856	0.159679	-382.03965	-382.03097	-382.030026	-382.072777	33.066	
C	 0.0931591154	 1.4542866176	-0.0933567978	-0.339878
N	-0.0120762139	 0.0254740708	 0.1842637981	-0.333368
C	-1.3278427487	-0.5495661825	 0.011722356	 0.157686
C	-2.0784718572	-0.5632601268	-1.4024835431	-0.30051
C	-2.1562274852	-2.0887576264	-1.3131754357	-0.020714
C	-0.7727375518	-2.6583040979	-1.2382378768	-0.307755
C	-1.3910587775	-2.0874131359	 0.0113294345	-0.081929
C	-2.2306302844	 0.0014029953	 1.0336291796	 0.295108
N	-2.9542519885	 0.4363825782	 1.8230251962	-0.352661
H	 1.1305423223	 1.7682187908	 0.047837944	 0.126479
H	-0.2207643385	 1.7426032301	-1.1105589925	 0.103038
H	-0.5240396263	 2.0104706643	 0.618994416	 0.151174
H	 0.6541672923	-0.5024441874	-0.3659973534	 0.225514
H	-3.0436830171	-0.0574761912	-1.3699892177	 0.13164
H	-1.4900847296	-0.1645144177	-2.2349550165	 0.10448
H	-3.0161698514	-2.685451003	-1.586285596	 0.099899
H	-0.7020348627	-3.7410233391	-1.2385393035	 0.125498
H	 0.0521128606	-2.1663245236	-1.7491661508	 0.105095
H	-1.5393561676	-2.6835459356	 0.9022034695	 0.111203
110.4129	134.8832	167.0877	189.1387	196.9627	284.2384	376.0792	412.1391	484.7683	504.5594	574.2355	626.4291	724.3425	747.7505	791.7118	850.7177	896.3766	931.907	951.1322	973.1766	1015.0423	1027.7646	1066.9728	1089.1869	1091.1759	1108.5188	1145.0651	1159.0906	1177.5551	1217.8102	1240.603	1273.998	1302.0095	1357.6853	1460.4529	1470.5667	1479.9808	1493.4531	1497.9941	1518.6043	2354.4501	2966.8062	3054.1974	3075.7698	3107.6486	3119.06	3132.8208	3196.5554	3198.1359	3211.3279	3552.7521
CNC1(CC2CC12)C#N	CN[C@]1(C[C@H]2C[C@@H]12)C#N	
InChI=1S/C7H10N2/c1-9-7(4-8)3-5-2-6(5)7/h5-6,9H,2-3H2,1H3	InChI=1S/C7H10N2/c1-9-7(4-8)3-5-2-6(5)7/h5-6,9H,2-3H2,1H3/t5-,6-,7-/m1/s1
