20
gdb 40013	3.51599	1.34636	1.12588	1.5259	85.64	-0.223	0.016	0.2391	1133.904	0.173639	-365.984877	-365.977348	-365.976404	-366.016851	30.852	
C	-0.1748462867	 1.4999787523	 0.0232518494	-0.31164
C	 1.2432114188	 1.0123242103	-0.0572914763	-0.300266
C	 0.0938377988	 0.0111677636	 0.0015084103	 0.346007
C	-0.1534404114	-0.7640994864	 1.2951733892	-0.295591
C	 0.2106925116	-2.2429772227	 1.1907374144	-0.050434
N	-0.9134789431	-3.1549290446	 0.8855218397	-0.33791
C	 0.1359063659	-2.9016959449	-0.1364535393	-0.077591
C	-0.2186302567	-2.0701616768	-1.3130349035	-0.068502
C	-0.2076464101	-0.7371221689	-1.2461155474	-0.12223
H	-0.5174898391	 1.9298086772	 0.9591888621	 0.111291
H	-0.6154541532	 1.9525146333	-0.8593295831	 0.112044
H	 1.7739166185	 1.122916399	-0.9966821017	 0.112892
H	 1.8721875382	 1.1034146285	 0.8222760486	 0.111843
H	 0.3984066706	-0.2968342862	 2.1178080347	 0.090261
H	-1.2182706466	-0.7025215856	 1.545683555	 0.118364
H	 0.9661256231	-2.6034356894	 1.8840810876	 0.081896
H	-0.7435113615	-4.0613357556	 1.3168483091	 0.224357
H	 0.8253849236	-3.7202093623	-0.3359504729	 0.083044
H	-0.4558724385	-2.5751336373	-2.2451774254	 0.086495
H	-0.4186291125	-0.1450743432	-2.1343751806	 0.08567
68.4402	183.3918	284.8487	308.5577	347.1392	420.32	435.5262	528.9624	589.0716	667.2562	744.4485	779.7203	802.6097	815.6402	825.1892	909.9488	925.491	930.275	939.0884	956.1074	972.6188	993.6635	1003.1405	1033.8756	1059.8153	1079.6138	1114.3238	1161.0826	1177.4121	1191.2442	1214.9807	1243.757	1269.9925	1304.3013	1326.0187	1350.2791	1395.3764	1432.1532	1455.6013	1466.7055	1477.5058	1499.9594	1704.9316	3034.3601	3075.8391	3115.2103	3123.2042	3129.0598	3136.4299	3141.2632	3170.3619	3202.1707	3218.632	3481.8337
C1CC11CC2NC2C=C1	C1CC21C[C@H]1N[C@H]1C=C2	
InChI=1S/C8H11N/c1-2-8(3-4-8)5-7-6(1)9-7/h1-2,6-7,9H,3-5H2	InChI=1S/C8H11N/c1-2-8(3-4-8)5-7-6(1)9-7/h1-2,6-7,9H,3-5H2/t6-,7+/m0/s1
