14
gdb 125208	3.43266	1.6387	1.11694	5.7317	72.69	-0.2112	-0.0444	0.1669	1008.0015	0.102079	-432.853398	-432.846149	-432.845205	-432.885205	27.279	
C	-0.0208533832	 1.524148368	 0.0612967121	-0.508804
C	 0.0081531991	 0.0378500717	-0.0491251389	 0.137795
C	-0.0057491539	-0.831497549	-1.1150098731	 0.31106
O	-0.0469029964	-0.8472530055	-2.4482775569	-0.293602
N	-0.0242634475	-2.3291855103	-2.7837752412	-0.029111
N	 0.022341344	-2.9854937359	-1.7327491942	-0.201111
C	 0.0384007415	-2.1596187087	-0.6319875729	 0.224478
C	 0.0804510143	-2.1334617256	 0.7495574974	-0.193051
N	 0.0613123785	-0.8019235413	 1.0643955623	-0.284695
H	 0.8730868417	 1.9233451317	 0.5564593167	 0.132764
H	-0.0642166495	 1.9598969984	-0.9390278662	 0.155068
H	-0.8961547158	 1.8842359053	 0.6161192347	 0.132674
H	 0.1204210784	-2.9002134554	 1.503111469	 0.147019
H	 0.0830449887	-0.4554663334	 2.0096778114	 0.269516
85.0875	174.9837	242.6915	272.535	366.7756	411.6843	522.5137	559.6233	606.4568	615.7641	646.1095	691.9347	704.0045	763.7661	824.795	962.2407	973.1748	1063.0918	1119.2688	1131.6317	1235.8088	1268.6036	1333.4793	1417.0066	1426.2312	1473.8307	1481.3682	1498.9692	1511.122	1584.1906	1680.0894	3017.4489	3062.3726	3129.4326	3290.4207	3658.8375
CC1=C2ON=NC2=CN1	Cc1c2onnc2c[nH]1	
InChI=1S/C5H5N3O/c1-3-5-4(2-6-3)7-8-9-5/h2,6H,1H3	InChI=1S/C5H5N3O/c1-3-5-4(2-6-3)7-8-9-5/h2,6H,1H3
