17
gdb 22841	3.29529	1.20417	0.93161	1.7584	73.28	-0.2404	0.0051	0.2454	1210.8271	0.136715	-455.10453	-455.096254	-455.09531	-455.137977	30.68	
O	 0.116755778	 1.3029071027	-0.326971692	-0.39637
N	 0.0819427382	-0.1028884653	-0.3352991019	-0.177726
C	-1.0489752687	-0.5462440116	 0.064642663	 0.323889
C	-1.1940388066	-2.038307492	 0.1110826782	-0.298079
C	-1.5936652326	-2.5249401041	 1.5050049134	-0.080409
O	-2.9959991603	-2.4427929726	 1.7597137407	-0.220467
C	-3.6831157757	-1.2902898423	 1.5484238412	 0.128387
N	-3.4049407575	-0.1692683108	 1.0506156869	-0.273707
C	-2.1822634284	 0.3615590538	 0.4987411452	-0.229523
H	 1.0117113583	 1.4850975609	-0.6315896519	 0.308593
H	-1.9506489394	-2.3848067538	-0.6047273564	 0.127109
H	-0.2371817955	-2.4834472383	-0.1746309462	 0.127665
H	-1.3612925362	-3.5862109972	 1.6194998112	 0.124485
H	-1.0458771499	-1.9707963799	 2.2784579536	 0.118299
H	-4.6998684464	-1.4594255645	 1.9059066386	 0.121295
H	-1.774879031	 1.0971734725	 1.20548642	 0.149933
H	-2.4592723763	 0.9733369625	-0.3709096536	 0.146626
54.6698	98.1302	202.1205	227.2202	309.2341	345.9611	386.0343	421.8387	480.3635	509.7038	558.6064	632.1947	722.5143	822.2785	846.8732	929.9276	962.3632	986.2118	992.516	1005.3473	1036.4643	1082.0113	1171.0245	1209.3872	1275.6436	1278.4371	1296.5419	1351.3551	1357.0396	1401.8876	1418.0538	1445.0309	1450.0642	1464.8215	1508.0302	1719.1039	1788.4588	3017.071	3022.67	3030.888	3034.5708	3100.1117	3106.0131	3128.5906	3823.6106
ON=C1CCOC=NC1	ON=C1CCOC=NC1	
InChI=1S/C5H8N2O2/c8-7-5-1-2-9-4-6-3-5/h4,8H,1-3H2	InChI=1S/C5H8N2O2/c8-7-5-1-2-9-4-6-3-5/h4,8H,1-3H2
