14
gdb 131674	5.17302	0.92651	0.78965	5.3763	67.71	-0.2673	-0.0673	0.2	1343.0572	0.100402	-470.002438	-469.994191	-469.993247	-470.036254	28.432	
O	 0.0292846257	 1.4184385883	 0.0077983869	-0.419104
C	 0.0233060284	 0.0019467577	 0.0023280654	-0.174087
C	-1.4010918757	-0.4420804569	 0.0121532532	 0.294921
C	-2.5410579549	 0.3034689995	 0.0232668242	-0.144613
N	-3.5527829768	-0.6224267216	 0.0283016989	-0.011038
C	-4.9401458268	-0.3647456597	 0.0398145134	 0.196787
O	-5.7875600163	-1.2050263959	 0.0440235021	-0.236851
N	-3.036109455	-1.8898491156	 0.0206610974	-0.104889
N	-1.7536729323	-1.7731474207	 0.0109238721	-0.229917
H	 0.9429658131	 1.7168659637	 0.001390417	 0.298204
H	 0.5254482393	-0.4085139531	-0.8876740627	 0.121206
H	 0.53977896	-0.4154825277	 0.8808035784	 0.121225
H	-2.7139278087	 1.3651261132	 0.0278236532	 0.175726
H	-5.1298623201	 0.7238198288	 0.0446354105	 0.112431
54.6831	100.6101	142.5775	220.8661	233.3	251.5203	303.0925	457.7628	503.7671	639.2904	710.7538	729.067	786.4473	806.5782	985.5236	1026.7124	1047.2478	1048.2142	1089.7559	1151.7303	1202.184	1236.0979	1237.6713	1278.2807	1384.1733	1407.3313	1454.8225	1474.5375	1513.0144	1629.3379	1859.7547	2978.2776	2979.0673	3001.373	3302.8419	3842.9735
OCC1=CN(C=O)N=N1	OCc1cn(C=O)nn1	
InChI=1S/C4H5N3O2/c8-2-4-1-7(3-9)6-5-4/h1,3,8H,2H2	InChI=1S/C4H5N3O2/c8-2-4-1-7(3-9)6-5-4/h1,3,8H,2H2
