18
gdb 47012	3.74211	1.33901	1.03389	3.9855	83.14	-0.2398	-0.0264	0.2135	1141.4829	0.150228	-401.955443	-401.948124	-401.94718	-401.987178	29.049	
N	-0.0792549981	 1.3061834548	-0.0857481599	-0.52521
C	-0.0115275934	 0.0404156532	 0.0091197021	 0.402999
O	 1.2050496575	-0.6025752375	 0.0155854267	-0.270493
C	 1.281175289	-1.9443550882	 0.5349519343	-0.110283
C	 0.2347605448	-2.8076073811	-0.1453086372	-0.070695
C	-0.4748541523	-4.0133874496	 0.5578628121	-0.251172
C	-1.8577793919	-3.382198096	 0.1652616325	-0.320108
C	-1.0963952033	-2.1025326391	-0.0843191566	 0.35388
C	-1.2240309134	-0.789680599	 0.0841844798	-0.32998
H	 0.8635260484	 1.7008481647	-0.1110458925	 0.217543
H	 2.3104476676	-2.2614187503	 0.3509178984	 0.116737
H	 1.1086210141	-1.9254009107	 1.6199465923	 0.104732
H	 0.5362620721	-3.0621648192	-1.1679228403	 0.096335
H	-0.254983559	-5.0104626997	 0.1728756301	 0.110284
H	-0.3191541708	-4.0020254894	 1.6396197888	 0.115119
H	-2.2565160767	-3.8252671642	-0.7538797383	 0.123374
H	-2.6519091227	-3.3633507615	 0.915418513	 0.121203
H	-2.1566177818	-0.2736474273	 0.2772978446	 0.115735
104.1642	191.7249	217.6447	307.4531	334.2377	429.3774	473.1481	516.2715	624.7524	694.9847	712.1064	789.5838	816.6723	844.6432	885.9807	911.7455	918.0588	922.9351	986.573	1025.8678	1065.0812	1084.6713	1099.0882	1133.6324	1146.5304	1197.3681	1223.7421	1240.4152	1261.2296	1276.592	1286.5871	1340.703	1357.6685	1417.7413	1468.3201	1486.5817	1505.4492	1715.0782	1751.94	3011.4333	3040.6994	3047.4262	3068.702	3100.3051	3104.1569	3130.3383	3210.2215	3462.932
N=C1OCC2CCC2=C1	[NH]C1=C[C]2[C@@H](CO1)CC2	
InChI=1S/C7H9NO/c8-7-3-5-1-2-6(5)4-9-7/h3,6,8H,1-2,4H2	InChI=1S/C7H9NO/c8-7-3-5-1-2-6(5)4-9-7/h3,6,8H,1-2,4H2/t6-/m1/s1
