23
gdb 95755	2.45791	1.28724	1.06652	1.7995	81.86	-0.2476	0.0715	0.3191	1263.7103	0.205184	-425.448041	-425.438521	-425.437577	-425.481417	37.657	
C	 0.0557052195	 1.556888308	 0.0586712861	-0.399175
C	 0.0365317932	 0.0351057675	 0.0372300588	 0.125497
C	 0.6270682686	-0.5428427249	-1.2565415873	-0.204659
C	 0.7393285021	-2.0755224845	-1.2313138204	 0.345374
C	-0.6236046128	-2.756875287	-1.4193151297	-0.427701
O	 1.5812224041	-2.403876862	-2.3417236842	-0.47331
C	 1.4194839527	-2.4926528386	 0.0880266952	-0.243123
C	 0.7843272867	-1.8136444253	 1.305352968	-0.083376
O	 0.7766027852	-0.405608763	 1.1711905666	-0.255774
H	 1.0818277846	 1.9254147923	-0.0360252491	 0.123799
H	-0.5368685586	 1.9615635198	-0.7671398097	 0.113072
H	-0.3566283373	 1.9284929091	 1.0004962159	 0.121019
H	-1.0079129416	-0.3092958769	 0.1443922309	 0.060889
H	 0.028273947	-0.2279691965	-2.118441982	 0.094432
H	 1.6358153221	-0.137343131	-1.3934773387	 0.107988
H	-1.0571738278	-2.4615075273	-2.3789901412	 0.123337
H	-0.5093598074	-3.8477519107	-1.417017136	 0.102101
H	-1.3345179127	-2.5023849012	-0.6277983644	 0.118371
H	 1.6590201915	-3.3637503066	-2.3776540085	 0.270193
H	 1.3858824122	-3.5834582877	 0.210156152	 0.079458
H	 2.4725224926	-2.1981273577	 0.0259337299	 0.110491
H	-0.2422186703	-2.1859524809	 1.4649086479	 0.084456
H	 1.3567213162	-2.0328236749	 2.21164054	 0.106642
132.4153	153.0219	220.8753	222.8555	262.7626	276.6414	293.6114	327.4915	339.3358	432.4876	446.1593	451.8168	484.9005	501.5103	608.181	738.334	825.5161	865.7776	894.7867	921.4174	949.1914	962.6408	996.5295	1007.6484	1056.2951	1080.3981	1125.8768	1132.4143	1157.6448	1190.2157	1198.6966	1221.2223	1280.058	1303.4687	1311.0215	1354.6515	1374.5024	1383.8128	1395.964	1405.5554	1410.447	1417.1857	1469.0328	1476.8779	1483.721	1494.8077	1498.8613	1500.7734	1505.5369	2939.2526	2959.7056	3020.2973	3028.3209	3037.1077	3043.4668	3075.1637	3082.4962	3084.9098	3095.488	3116.6488	3118.8689	3121.8991	3796.8314
CC1CC(C)(O)CCO1	C[C@H]1C[C@@](C)(O)CCO1	
InChI=1S/C7H14O2/c1-6-5-7(2,8)3-4-9-6/h6,8H,3-5H2,1-2H3	InChI=1S/C7H14O2/c1-6-5-7(2,8)3-4-9-6/h6,8H,3-5H2,1-2H3/t6-,7-/m0/s1
