13
gdb 27595	3.4831	1.29117	0.94239	5.5379	77.06	-0.2463	-0.0751	0.1712	1138.2816	0.091784	-411.854942	-411.847642	-411.846698	-411.886727	27.395	
N	-0.0408701597	 1.3653165946	 0.1419455984	-0.573635
C	 0.0024282193	 0.0015911276	 0.0519317226	 0.373168
N	-1.1585174432	-0.6530269026	 0.0417210188	-0.371213
C	-1.0884217986	-1.9913209333	 0.0057731192	 0.202014
C	 0.1201407855	-2.683003846	-0.0286877869	-0.07212
N	 1.2840747295	-2.0204822378	-0.0281304932	-0.222924
C	 1.2324038406	-0.7025053126	 0.0131744061	-0.045852
C	-2.32947017	-2.7188171056	-0.0029957879	 0.242607
N	-3.307700999	-3.3359718697	-0.0120332625	-0.321103
H	 0.7662630576	 1.8945541448	-0.1425317681	 0.265308
H	-0.937296367	 1.790183154	-0.0374583034	 0.270677
H	 0.1508677189	-3.7661484055	-0.0600967847	 0.136119
H	 2.1772776361	-0.162879988	 0.0171322315	 0.116953
140.086	151.9772	194.5192	363.0493	384.4521	405.3428	451.5744	489.0143	518.6676	575.1434	591.1096	693.5026	717.3636	776.8416	897.1657	941.2916	982.6495	1014.6663	1099.9115	1194.2534	1261.391	1280.9459	1373.4226	1467.6894	1480.1759	1581.4374	1605.507	1647.2891	2351.8237	3147.0045	3197.657	3595.3542	3716.3417
NC1=NC(=CN=C1)C#N	Nc1nc(cnc1)C#N	
InChI=1S/C5H4N4/c6-1-4-2-8-3-5(7)9-4/h2-3H,(H2,7,9)	InChI=1S/C5H4N4/c6-1-4-2-8-3-5(7)9-4/h2-3H,(H2,7,9)
