14
gdb 16885	4.1197	2.07819	1.61855	5.3596	57.3	-0.2767	0.0327	0.3094	776.3778	0.108679	-419.700453	-419.694172	-419.693228	-419.731047	23.817	
O	 0.0478263122	 0.1684265177	 0.6170211098	-0.352521
C	-0.0170220077	 1.1918631516	 0.0086256158	 0.460859
O	-1.1919501644	 1.8453906168	-0.1557478495	-0.252907
C	-1.3859570103	 2.7423776897	-1.2619429542	-0.099447
C	-0.2238404446	 3.6876703106	-1.4230956482	-0.074377
C	 0.4708174254	 4.2027540081	-0.1770894811	-0.33004
C	 1.0771790975	 3.0977066171	-0.9955836562	 0.127684
O	 1.0892311647	 1.7653168406	-0.5186695776	-0.247889
H	-1.5281752675	 2.1527494448	-2.1767927061	 0.126987
H	-2.3217416773	 3.2612772614	-1.0393515508	 0.134638
H	-0.2535957573	 4.3122000298	-2.309870684	 0.107583
H	 0.9460932911	 5.1759568873	-0.2173137111	 0.129214
H	 0.0411565784	 3.9426202505	 0.7839830076	 0.146987
H	 1.9901465398	 3.2723776741	-1.5500041244	 0.123228
104.5806	172.5997	307.0781	384.2902	465.6285	542.4499	587.0697	750.2093	765.7106	780.2113	797.0806	824.4812	915.2541	990.8779	1003.9725	1051.191	1068.9947	1099.8873	1124.8608	1135.4799	1156.9495	1186.1798	1237.7803	1280.928	1374.395	1416.4519	1422.8398	1486.9691	1515.1954	1888.2139	3026.6297	3096.5544	3142.5671	3167.2014	3200.1752	3233.488
O=C1OCC2CC2O1	O=C1OC[C@H]2C[C@H]2O1	
InChI=1S/C5H6O3/c6-5-7-2-3-1-4(3)8-5/h3-4H,1-2H2	InChI=1S/C5H6O3/c6-5-7-2-3-1-4(3)8-5/h3-4H,1-2H2/t3-,4-/m1/s1
