16
gdb 75985	2.05797	1.94028	1.08879	4.98	66.52	-0.2423	-0.0454	0.1969	1064.7179	0.124194	-475.042799	-475.034721	-475.033777	-475.075561	30.331	
O	-0.0191847128	 1.3825807241	-0.1335537574	-0.414938
C	-0.1028062301	 0.0119287718	 0.0311803692	-0.048239
C	 0.6355032289	-0.4669473693	 1.2820255478	 0.384174
O	 1.2683282368	 0.3215717151	 1.9435279063	-0.316637
C	 0.4817929226	-1.9453449534	 1.6021604065	-0.267548
N	-0.9507920903	-2.227331024	 1.6387191123	-0.304878
C	-1.6211532582	-2.0259153799	 0.3553980566	-0.274238
C	-1.5482522787	-0.5328496907	 0.0225358531	 0.382803
O	-2.5010586955	 0.1484121904	-0.2333348463	-0.274884
H	 0.5203906323	 1.7007993311	 0.6079814263	 0.299313
H	 0.3846774389	-0.5259383303	-0.8094170639	 0.114677
H	 1.0341454016	-2.5334853898	 0.8416659327	 0.103009
H	 0.9269371034	-2.1384405899	 2.5799592954	 0.138735
H	-1.1226947578	-3.1596750442	 1.9934554182	 0.241589
H	-1.1701633955	-2.6051495105	-0.475263711	 0.099049
H	-2.6733434954	-2.3022274204	 0.4394292742	 0.138015
84.5754	116.8352	219.5077	281.723	307.0369	359.8901	395.1851	411.0286	445.052	562.2165	587.5733	595.1975	639.2056	754.5864	885.6984	892.0584	942.6945	953.2897	1014.7657	1090.8618	1146.7755	1165.5199	1173.9499	1226.8051	1239.0146	1278.743	1289.2963	1358.025	1390.8147	1409.1184	1474.7514	1478.0784	1487.2367	1810.4957	1862.0855	2891.7007	2902.5205	2907.458	3114.7976	3120.4225	3558.0324	3690.3473
OC1C(=O)CNCC1=O	OC1C(=O)CNCC1=O	
InChI=1S/C5H7NO3/c7-3-1-6-2-4(8)5(3)9/h5-6,9H,1-2H2	InChI=1S/C5H7NO3/c7-3-1-6-2-4(8)5(3)9/h5-6,9H,1-2H2
