12
gdb 23993	5.41736	0.9995	0.84382	1.2919	87.04	-0.2324	-0.058	0.1744	1257.1461	0.076374	-398.313286	-398.305692	-398.304747	-398.345483	28.167	
C	 0.2049498236	-1.1414521972	-0.0058459141	-0.36995
C	 0.0773173582	 0.0559435789	 0.0022185058	 0.185095
C	-0.0986732175	 1.4465896674	 0.0119908532	 0.195012
C	-1.1971998035	 2.2627200893	 0.0323234214	-0.193053
N	-0.7995406916	 3.5754833869	 0.0333275211	-0.301063
C	 0.5060397556	 3.5236588352	 0.0138390965	 0.242146
O	 1.0068154244	 2.2592539766	 0.0000374475	-0.194921
C	 1.4216653306	 4.5942949566	 0.0060228682	 0.232022
C	 2.2025333462	 5.508872949	-0.0006277962	-0.345026
H	 0.3199659798	-2.1974150805	-0.0129959472	 0.201719
H	-2.2363746206	 1.9760068554	 0.0460799159	 0.140954
H	 2.8893156548	 6.3195332023	-0.0064500621	 0.207065
115.855	119.7021	197.4894	201.119	420.0191	471.3194	474.8662	542.2157	568.151	586.9739	613.9412	668.8408	690.5954	696.0045	697.4572	752.773	878.1745	987.7622	1007.646	1161.54	1217.1493	1264.3507	1331.9848	1523.2995	1582.3447	2234.7659	2244.5484	3272.1988	3500.1869	3501.1888
C#CC1=CN=C(O1)C#C	C#Cc1cnc(o1)C#C	
InChI=1S/C7H3NO/c1-3-6-5-8-7(4-2)9-6/h1-2,5H	InChI=1S/C7H3NO/c1-3-6-5-8-7(4-2)9-6/h1-2,5H
