25
gdb 102547	1.83607	1.26918	0.97268	1.7494	88.31	-0.2527	0.0793	0.332	1412.2415	0.227375	-389.481596	-389.470642	-389.469698	-389.517466	41.041	
C	-0.2779926959	 1.5860246373	-0.203425572	-0.392257
C	-0.0792166992	 0.0663965616	-0.1464876496	-0.187701
C	 0.8532074709	-0.4991425871	-1.2380210713	-0.055409
C	 2.3121687874	-0.0636190614	-1.0141984247	-0.072138
O	 3.1902762817	-0.4609076079	-2.0538216653	-0.430117
C	 0.7217223389	-2.021830204	-1.3646138236	 0.366802
C	 1.1222935291	-2.851202034	-0.1547211321	-0.472567
C	-0.4330628119	-2.5367120867	-2.1891423386	-0.320223
C	 0.9724642925	-2.6344774524	-2.732209368	-0.329518
H	 0.6515796914	 2.1328759354	-0.0189652781	 0.121327
H	-0.6565933387	 1.89799902	-1.1832126955	 0.115528
H	-1.0015562717	 1.9116650115	 0.5505654824	 0.11224
H	 0.3011313385	-0.2112401012	 0.8451989541	 0.096245
H	-1.0553211529	-0.4239591024	-0.243585147	 0.099188
H	 0.5408763889	-0.0711694505	-2.201170414	 0.070271
H	 2.3746967336	 1.0278929057	-0.9815991521	 0.105371
H	 2.6613583396	-0.4316711784	-0.0349099492	 0.083034
H	 3.1052974731	-1.4143734852	-2.1522981801	 0.288022
H	 0.5246980934	-2.5947105475	 0.7264047353	 0.121526
H	 0.9739175381	-3.9173301846	-0.3522160439	 0.113933
H	 2.1770181583	-2.7139858276	 0.1102673046	 0.115904
H	-0.9208355922	-3.4523578686	-1.8719789451	 0.108482
H	-1.1026024531	-1.8139218312	-2.6440976085	 0.110693
H	 1.2460758098	-1.9752060182	-3.5486682492	 0.123203
H	 1.4304073603	-3.6177271626	-2.7797718284	 0.108161
66.8465	72.9268	124.4103	177.4302	205.3382	213.7266	235.1689	273.1246	308.0658	315.6293	349.0886	396.6961	444.6111	468.2906	533.2616	699.3456	771.8404	798.0556	860.231	872.5736	915.7857	937.662	954.6015	981.6613	1003.8206	1032.7651	1052.7998	1074.8259	1080.1652	1086.8184	1112.3593	1134.2555	1155.8655	1193.0447	1208.2945	1269.7176	1288.2554	1315.4028	1341.0398	1358.3946	1382.7068	1403.1974	1411.9508	1426.211	1434.6105	1471.2644	1486.5073	1493.803	1500.0232	1501.2645	1506.9643	1509.2457	1513.6074	2962.9146	3005.2907	3021.8104	3027.6686	3033.6762	3055.2701	3082.1922	3086.7251	3099.174	3101.3167	3107.9554	3124.3053	3128.946	3203.3987	3217.3823	3822.6567
CCC(CO)C1(C)CC1	CC[C@@H](CO)C1(C)CC1	
InChI=1S/C8H16O/c1-3-7(6-9)8(2)4-5-8/h7,9H,3-6H2,1-2H3	InChI=1S/C8H16O/c1-3-7(6-9)8(2)4-5-8/h7,9H,3-6H2,1-2H3/t7-/m0/s1
