21
gdb 95374	2.51103	1.68575	1.2429	2.8869	76.25	-0.2499	0.066	0.3159	1079.8864	0.185694	-424.249776	-424.241866	-424.240922	-424.283013	30.91	
C	-0.332498906	 1.5608800143	-0.0610865877	-0.416752
C	 0.1483955703	 0.1115597156	-0.0788549862	 0.02471
C	 1.2505558543	-0.1789323	-1.1068630901	-0.106639
O	 1.8373317066	-1.4037448466	-0.688832965	-0.255907
C	 1.8216950405	-1.480164591	 0.723164057	 0.225766
O	 3.0546473206	-1.129118063	 1.3097608915	-0.252117
C	 3.022692174	 0.2418895285	 1.6922100049	-0.091952
C	 1.5752206552	 0.4913259741	 2.132238217	-0.233724
C	 0.7549643201	-0.4596450101	 1.2313114293	-0.116607
H	 0.4921279524	 2.2637675743	 0.0952552898	 0.119164
H	-0.8045365893	 1.8206290823	-1.0146024386	 0.118476
H	-1.0716057841	 1.7285682189	 0.7287597668	 0.119527
H	-0.7044360116	-0.5294247275	-0.3333725466	 0.082958
H	 0.8713144683	-0.3177616655	-2.1237172883	 0.106958
H	 1.9951090768	 0.6333185191	-1.131827841	 0.090025
H	 1.6483307993	-2.5290656307	 0.9753407548	 0.087029
H	 3.755113721	 0.3825496673	 2.4918487813	 0.107926
H	 3.3097761409	 0.8913226053	 0.8513865439	 0.096314
H	 1.4544086591	 0.196443335	 3.1786096974	 0.109502
H	 1.2816941282	 1.5398166501	 2.0516188783	 0.103489
H	-0.0200738966	-0.9585740304	 1.8154179715	 0.081854
27.1601	183.009	209.3549	235.6117	307.3883	333.3703	485.0464	512.873	519.1647	632.6555	661.9225	757.8787	836.0927	878.2262	889.293	916.372	942.9216	961.0685	972.184	983.9709	1019.5912	1045.4724	1081.2104	1107.4942	1138.6049	1155.2061	1172.8683	1218.503	1227.7492	1241.0228	1275.1952	1304.684	1309.3878	1340.4126	1349.9513	1363.6432	1379.4766	1403.4851	1407.0921	1417.7313	1487.7401	1499.4901	1514.9559	1521.7861	1535.1812	2971.1322	2989.806	3026.2212	3034.6624	3059.8858	3078.6454	3081.4245	3086.1453	3096.8774	3098.673	3105.8612	3117.5084
CC1COC2OCCC12	C[C@H]1CO[C@H]2OCC[C@@H]12	
InChI=1S/C7H12O2/c1-5-4-9-7-6(5)2-3-8-7/h5-7H,2-4H2,1H3	InChI=1S/C7H12O2/c1-5-4-9-7-6(5)2-3-8-7/h5-7H,2-4H2,1H3/t5-,6-,7+/m0/s1
