16
gdb 22753	2.3543	1.49242	1.16885	1.362	68.8	-0.2541	-0.0117	0.2424	1086.4021	0.120876	-474.926346	-474.917444	-474.9165	-474.959612	33.138	
C	-0.0474379463	 1.5948608508	-0.0724586257	-0.452457
C	 0.0325792269	 0.0818294846	 0.0211214984	 0.272065
O	-1.2187222862	-0.5242239051	 0.2876652246	-0.469676
C	 0.6920890804	-0.6813586357	-1.1610633048	 0.015863
O	 2.0280386636	-0.2147141316	-1.2674692761	-0.23827
C	 1.7481239542	-1.2510174301	-0.2931399989	-0.100046
C	 1.1545590552	-0.5416772525	 0.8863840048	 0.387427
N	 1.2766790131	-0.5195103863	 2.1439324301	-0.265343
O	 2.3006707024	-1.3719758448	 2.5868994035	-0.389374
H	 0.9074039846	 2.0064233461	-0.4079488929	 0.140279
H	-0.8348797752	 1.8840081852	-0.7747164578	 0.124992
H	-0.2820371773	 2.0242389872	 0.9073078875	 0.122988
H	-1.4185886835	-0.3842578686	 1.2198014775	 0.291763
H	 0.202632534	-1.099117529	-2.032279249	 0.121683
H	 2.3173114681	-2.1676679944	-0.357609441	 0.128469
H	 2.2796745858	-1.2410110757	 3.5411771298	 0.309636
103.5734	155.8022	176.651	226.3623	236.4908	267.2413	318.9109	329.941	363.4989	425.4576	538.2695	577.3008	638.5133	692.6522	797.8557	836.9054	855.1637	884.3033	957.4804	968.6174	979.0163	1034.5676	1100.5414	1106.8107	1180.1409	1195.0172	1228.7511	1253.6785	1345.843	1368.7935	1398.9051	1407.7842	1486.7078	1492.4236	1791.1988	3039.6233	3109.2853	3132.7971	3201.7366	3227.4469	3810.7697	3815.3909
CC1(O)C2OC2C1=NO	C[C@@]1(O)[C@H]2O[C@H]2C1=NO	
InChI=1S/C5H7NO3/c1-5(7)3(6-8)2-4(5)9-2/h2,4,7-8H,1H3	InChI=1S/C5H7NO3/c1-5(7)3(6-8)2-4(5)9-2/h2,4,7-8H,1H3/t2-,4-,5-/m0/s1
