19
gdb 61084	5.85691	0.65633	0.62155	2.7072	88.04	-0.2331	-0.0125	0.2206	1790.7437	0.158388	-419.223899	-419.214422	-419.213478	-419.258897	33.808	
C	 0.2156854027	 1.4750599886	 0.0160125981	-0.337065
N	 0.0085464863	 0.0318312759	-0.0199267837	-0.090265
C	-0.1867859234	-0.6713178847	 1.149997678	 0.167208
O	-0.2045253169	-0.1883206386	 2.2573267898	-0.322744
C	 0.0090577809	-0.6298566692	-1.2402560663	 0.097494
N	 0.1848285227	-0.0170422437	-2.335173683	-0.250565
C	 0.1701292691	-0.7727211248	-3.5379633056	 0.083977
C	-0.3970753618	-0.1029970437	-4.7697579201	-0.273072
C	 1.0865155058	-0.3187693469	-4.6522912262	-0.273066
H	 1.182854014	 1.7240886173	-0.4271892762	 0.145378
H	-0.5630093819	 1.9782577694	-0.5622235783	 0.145313
H	 0.1798466272	 1.7842558176	 1.0592151931	 0.163563
H	-0.3289191427	-1.7514309459	 0.960204058	 0.087924
H	-0.1552547939	-1.7107781232	-1.1514115486	 0.103424
H	 0.0061488685	-1.8485385061	-3.4430288409	 0.075409
H	-0.9611950454	-0.7162557257	-5.4633628634	 0.114945
H	-0.7715952087	 0.9050459012	-4.6383468375	 0.123601
H	 1.7061765453	 0.5446839042	-4.4421614537	 0.123596
H	 1.5538135324	-1.0820365315	-5.2642229335	 0.114943
60.764	111.3476	115.571	123.0329	161.0846	291.032	321.5432	324.5877	374.0676	374.0807	466.2132	552.0423	739.2571	778.9804	820.6255	866.4347	908.6043	918.7862	986.6392	993.0665	1028.3295	1056.7692	1071.0487	1096.8394	1120.0256	1160.8823	1196.1864	1198.2802	1226.1395	1307.4053	1356.1197	1384.9751	1435.1647	1451.8226	1455.5638	1455.849	1488.2092	1495.9109	1512.5135	1737.2266	1817.0351	2960.4845	3042.8876	3060.1687	3068.6627	3123.0205	3140.2945	3144.1301	3178.1525	3226.2092	3240.1193
CN(C=O)C=NC1CC1	CN(C=O)C=NC1CC1	
InChI=1S/C6H10N2O/c1-8(5-9)4-7-6-2-3-6/h4-6H,2-3H2,1H3	InChI=1S/C6H10N2O/c1-8(5-9)4-7-6-2-3-6/h4-6H,2-3H2,1H3
