19
gdb 110134	1.84257	1.32499	0.91562	3.1785	74.02	-0.2467	-0.0288	0.2179	1328.0498	0.156538	-460.133914	-460.123827	-460.122883	-460.169673	35.253	
C	-0.5526204546	 1.0913096239	-0.2274381781	-0.2435
O	 0.4154504154	 0.1050095047	 0.0891484936	-0.232477
C	 0.934665135	-0.5315534056	-1.0270591371	 0.087324
C	 1.5323364876	-1.8718416354	-0.8287274865	-0.112439
C	 1.5952002263	-2.5360990424	 0.5324695619	-0.084711
O	 1.5897297301	-3.9509010207	 0.4434195065	-0.419047
C	 0.2042262794	-1.7506413266	-1.6161002737	-0.174436
C	-1.0709482475	-2.2129693494	-1.0307175908	 0.142947
O	-1.9268705165	-2.792156219	-1.6606442878	-0.279776
H	-0.1356174836	 1.8594879605	-0.8940154354	 0.117457
H	-1.4352404054	 0.6498733966	-0.7108393501	 0.123448
H	-0.8512533692	 1.5571197007	 0.7134950208	 0.138199
H	 1.3876108749	 0.1407795006	-1.7577562608	 0.103093
H	 2.3792764187	-2.1123135556	-1.4647413671	 0.11421
H	 2.5477778617	-2.2752463087	 1.0052635249	 0.121072
H	 0.8017269777	-2.1591606272	 1.1880142082	 0.111728
H	 0.7569597782	-4.2219085036	 0.0424302147	 0.289288
H	 0.2645041457	-1.9002909932	-2.6889024842	 0.110027
H	-1.212277224	-1.9924413397	 0.0483151611	 0.087592
58.033	83.3302	111.5649	142.1652	171.8662	224.7895	236.1016	271.469	306.2836	343.8091	441.5945	483.5698	590.4692	617.9423	748.6114	847.1291	898.3794	960.1358	989.7483	1022.3707	1053.3334	1069.7765	1092.0969	1134.6783	1147.6686	1176.6969	1185.1832	1211.7176	1242.0414	1262.6423	1329.0459	1350.9831	1383.5717	1419.9522	1431.2088	1454.2179	1485.8399	1487.8096	1506.0067	1514.1734	1797.2006	2907.9334	2994.0716	3038.9543	3049.1015	3079.9436	3086.6954	3131.7191	3155.1015	3175.201	3808.1569
COC1C(CO)C1C=O	CO[C@H]1[C@@H](CO)[C@H]1C=O	
InChI=1S/C6H10O3/c1-9-6-4(2-7)5(6)3-8/h2,4-6,8H,3H2,1H3	InChI=1S/C6H10O3/c1-9-6-4(2-7)5(6)3-8/h2,4-6,8H,3H2,1H3/t4-,5+,6-/m1/s1
