17
gdb 54179	2.70971	1.64481	1.19215	2.474	68.08	-0.259	0.0038	0.2628	1045.5031	0.136531	-455.166131	-455.157874	-455.156929	-455.19867	31.418	
C	-0.4421604221	 1.6428386289	-0.3289694819	-0.482924
C	 0.1105811249	 0.251543332	-0.1902179941	 0.167465
C	 1.0142561838	-0.3979475475	-1.1881587611	-0.289218
N	 1.5257101344	 0.0048975044	 0.126976009	-0.133431
C	 1.5462497791	-1.0774560559	 1.1049689545	 0.145836
N	 2.5322813311	-2.0522253382	 0.8321306916	-0.488369
H	 2.5760108126	-2.7425625003	 1.5721916545	 0.251588
H	 2.3607421322	-2.5301714442	-0.0456147022	 0.240233
C	-0.6927772118	-0.7772494707	 0.5681218677	 0.407722
O	-1.8845034093	-0.8617310095	 0.65210473	-0.349874
O	 0.1741525793	-1.6337638648	 1.1652594366	-0.258861
H	 0.2254181912	 2.2659606936	-0.9282456096	 0.130192
H	-1.4221915094	 1.6016344742	-0.8121532935	 0.147938
H	-0.5691539804	 2.113594087	 0.6505248673	 0.134858
H	 0.8641529558	-1.4511339763	-1.4116607738	 0.127343
H	 1.3954120299	 0.1968438924	-2.0121877888	 0.133104
H	 1.7300061588	-0.649237445	 2.0946066638	 0.116397
132.1156	150.1398	171.349	234.8857	273.0775	307.7458	324.6113	410.0877	516.8436	562.3523	593.4782	682.492	725.56	770.5698	805.2469	813.7294	844.3774	886.1833	947.8125	981.1044	1034.6581	1104.2437	1118.716	1135.5022	1152.2552	1218.1007	1270.96	1309.83	1353.6143	1378.2486	1418.9191	1450.06	1482.2793	1493.1401	1503.3748	1662.8019	1877.1092	3048.8075	3075.7926	3112.1319	3118.0136	3134.1639	3203.7338	3527.1809	3612.9131
CC1(CN1C=[NH2+])C([O-])=O	C[C@@]12CN1[C@H](N)OC2=O	
InChI=1S/C5H8N2O2/c1-5(4(8)9)2-7(5)3-6/h3,6H,2H2,1H3,(H,8,9)	InChI=1S/C5H8N2O2/c1-5-2-7(5)4(6)9-3(5)8/h4H,2,6H2,1H3/t4-,5-,7?/m0/s1
