18
gdb 18481	3.26184	1.82713	1.57761	1.3394	67.93	-0.2271	0.0771	0.3042	906.0737	0.152531	-384.881746	-384.873676	-384.872732	-384.914231	29.715	
C	-0.4712734663	 1.0414590776	 0.1925012872	-0.237426
O	 0.5978634287	 0.1540614668	-0.0876753828	-0.23477
C	 0.9957299563	-0.5748386409	 1.0248228007	 0.113032
C	 0.1558220677	-1.6427928021	 1.654381014	 0.032392
O	-0.6656644757	-2.2954192801	 0.6927320564	-0.30238
C	 0.5166260446	-2.8177027638	 0.0084263199	 0.161423
C	 0.4994365743	-2.6365456241	-1.4945763271	-0.41453
C	 1.4481287431	-2.0029288342	 0.913773263	-0.226215
H	-0.1962877701	 1.7731850553	 0.9668698729	 0.103087
H	-0.6931178234	 1.5756054963	-0.7341200161	 0.12649
H	-1.3644100571	 0.4946653032	 0.5201633982	 0.127818
H	 1.5753658906	-0.0032762147	 1.7557057128	 0.087695
H	-0.1381926715	-1.6969606518	 2.6973281716	 0.100302
H	 0.6051707583	-3.8822104652	 0.2640070019	 0.081801
H	 0.4296060555	-1.5817170889	-1.7578955929	 0.149568
H	 1.4158276792	-3.0535478838	-1.9269156467	 0.113395
H	-0.3502888984	-3.1760894269	-1.9260997887	 0.120111
H	 2.4104928541	-2.3415647126	 1.2745771957	 0.098206
74.2264	153.3865	172.9	218.0093	229.6401	293.7952	330.2011	436.8123	579.5028	667.8737	732.0892	747.5489	808.5881	864.6836	916.3205	971.5717	978.237	1033.1034	1052.934	1069.2675	1082.8515	1102.872	1140.3392	1159.4622	1174.6082	1202.1443	1251.3687	1267.3907	1302.2128	1344.156	1386.8525	1406.7889	1429.1307	1480.1737	1487.4538	1488.6107	1502.4753	1505.2125	2989.8428	3009.8018	3040.2988	3055.8586	3064.6253	3099.7855	3122.1549	3163.2708	3165.979	3197.1351
COC1C2OC(C)C12	CO[C@H]1[C@H]2O[C@@H](C)[C@@H]12	
InChI=1S/C6H10O2/c1-3-4-5(7-2)6(4)8-3/h3-6H,1-2H3	InChI=1S/C6H10O2/c1-3-4-5(7-2)6(4)8-3/h3-6H,1-2H3/t3-,4-,5+,6-/m0/s1
