13
gdb 7719	3.9513	2.01306	1.37813	3.0909	58.75	-0.2483	0.0092	0.2575	830.1895	0.098422	-431.950994	-431.944538	-431.943594	-431.981863	24.169	
N	-0.0718665113	 1.2224975955	-0.4327628084	-0.562248
C	 0.0326427218	 0.0572331043	 0.0402776019	 0.462471
N	-1.0355338794	-0.5757200902	 0.660240764	-0.370238
C	-1.1495711105	-1.9476605064	 0.835623905	 0.46247
N	-2.2658941097	-2.4983163459	 1.043305025	-0.562248
O	 0.0444993344	-2.6062263091	 0.7525401229	-0.227659
C	 1.1752038008	-1.7764538666	 0.9195290312	-0.00976
O	 1.1652134884	-0.7056292415	-0.0014139289	-0.227659
H	 0.8246070553	 1.5443358324	-0.7903605115	 0.234191
H	-1.9027980509	-0.0595945454	 0.6721638757	 0.289094
H	-2.1469649396	-3.4951046347	 1.2088037067	 0.234191
H	 1.208691399	-1.3889334683	 1.946182235	 0.128684
H	 2.052273982	-2.381912764	 0.6969839914	 0.148711
119.1026	131.9144	295.9165	374.0801	476.6285	537.2709	553.4243	634.4534	711.7446	727.1427	789.1602	815.9845	830.9363	871.6066	928.8663	1030.0058	1041.3192	1123.646	1136.7671	1190.8961	1288.8796	1317.0162	1401.7279	1424.9287	1468.9004	1521.7806	1785.1614	1786.0447	3025.5345	3156.447	3533.3157	3533.8483	3637.9105
N=C1NC(=N)OCO1	[NH][C]1N[C]([NH])OCO1	
InChI=1S/C3H5N3O2/c4-2-6-3(5)8-1-7-2/h1H2,(H3,4,5,6)	InChI=1S/C3H5N3O2/c4-2-6-3(5)8-1-7-2/h1H2,(H3,4,5,6)
