20
gdb 85002	2.18427	1.57557	0.98458	5.5939	85.36	-0.2104	-0.0068	0.2036	1234.2812	0.170463	-403.214053	-403.204276	-403.203332	-403.248832	36.121	
C	-0.0757404716	 1.5579663776	 0.0259822787	-0.400725
C	 0.0162266127	 0.0227797254	 0.0052496866	-0.077614
C	 0.7980268625	-0.5290137157	-1.2048816737	-0.350924
C	 1.9689369453	-1.3315041767	-0.613793907	 0.336002
O	 2.8217258225	-1.902326178	-1.2670882664	-0.371126
C	 1.8648136535	-1.2785478348	 0.8395631723	 0.096931
C	 2.8377627192	-1.9691765108	 1.7440435821	-0.537564
C	 0.7797680241	-0.540081442	 1.1913033928	 0.288723
N	 0.3240251617	-0.3204265852	 2.4562803586	-0.581427
H	 0.9237730435	 2.0052046258	 0.0158789414	 0.127861
H	-0.6181094149	 1.9182442338	-0.8531500919	 0.12712
H	-0.6043872658	 1.9341281073	 0.9093259748	 0.102666
H	-1.0053879903	-0.3797307271	 0.0253867642	 0.090024
H	 0.1910603426	-1.1813659129	-1.8394982779	 0.123993
H	 1.1864402819	 0.2666717707	-1.8485731226	 0.120401
H	 3.6308420654	-2.4110698874	 1.1348661273	 0.155202
H	 3.3045136567	-1.2806556165	 2.4611469826	 0.110083
H	 2.3694521756	-2.7752160211	 2.3234001627	 0.120805
H	 0.9296484046	-0.5365388195	 3.2316539403	 0.261991
H	-0.3275902491	 0.429164057	 2.6173039151	 0.25758
52.0305	89.5705	120.638	217.4082	233.4668	256.114	293.367	333.6239	362.5636	368.7067	471.2463	545.1841	560.7666	589.8179	623.26	670.649	716.1391	836.3756	911.6979	931.917	984.7646	1038.8536	1056.6971	1070.9024	1077.906	1120.5134	1202.3633	1207.1349	1266.7995	1282.1901	1328.1175	1343.0141	1383.0393	1407.6492	1424.0965	1464.0951	1490.1895	1495.4782	1496.356	1499.2762	1642.8156	1692.1168	1786.021	3007.4608	3012.5593	3029.0891	3052.6833	3056.7591	3091.7882	3098.8059	3111.5616	3115.4331	3596.1893	3707.3624
CC1CC(=O)C(C)=C1N	C[C@H]1CC(=O)C(=C1N)C	
InChI=1S/C7H11NO/c1-4-3-6(9)5(2)7(4)8/h4H,3,8H2,1-2H3	InChI=1S/C7H11NO/c1-4-3-6(9)5(2)7(4)8/h4H,3,8H2,1-2H3/t4-/m0/s1
