19
gdb 69660	4.04914	1.16924	1.0804	0.6817	75.65	-0.2372	0.0768	0.314	1165.8954	0.158642	-422.974262	-422.966021	-422.965077	-423.00732	31.924	
O	-0.0271224609	 1.4492828525	 0.0324597861	-0.463882
C	-0.0377080219	 0.06642029	 0.0337081879	 0.400431
C	-0.3367623014	-0.7528906039	-1.1852893741	-0.344497
C	-1.2698215782	-0.8299732335	 0.0094981625	-0.177089
C	-0.6498714979	-1.7221134292	 1.0772946275	 0.476694
C	-1.4209319908	-2.0736021738	 2.3658819072	-0.361913
C	-1.1781654423	-3.5354072412	 1.9466076131	-0.070965
O	-0.4595262283	-3.1202126885	 0.76749395	-0.318987
C	 0.6134815631	-0.804032459	 1.1163057189	-0.380224
H	 0.7345006153	 1.7448837398	-0.478229599	 0.28648
H	-0.741074362	-0.1858800076	-2.0178739393	 0.112141
H	 0.2697220248	-1.611514184	-1.4613042086	 0.121575
H	-2.3194381305	-0.5727795474	-0.0725878454	 0.088059
H	-0.9369764107	-1.761571398	 3.2931483875	 0.110971
H	-2.4645488971	-1.7530614238	 2.3798649708	 0.112338
H	-0.5502660369	-4.1301237172	 2.6209446701	 0.101325
H	-2.0752284278	-4.114292353	 1.6959415422	 0.102197
H	 1.563362683	-1.2876291965	 0.8665023362	 0.098119
H	 0.7050025807	-0.2800657959	 2.0714540162	 0.107226
62.3654	94.76	219.1713	249.6452	307.7305	371.3606	397.6253	416.5988	451.7252	528.3985	666.798	765.6427	785.4102	839.783	865.3461	875.7032	908.1326	951.9086	956.6814	979.392	1006.2384	1020.9934	1034.9521	1071.311	1097.2876	1123.2886	1156.1153	1175.4782	1185.6036	1216.4501	1222.4393	1254.4648	1274.2792	1285.146	1338.495	1355.4558	1405.5774	1468.4849	1487.1673	1502.4352	1532.4221	3017.4371	3045.0428	3056.136	3074.0957	3106.9786	3114.52	3128.7578	3180.6859	3207.9036	3796.0186
OC12CC1C1(CCO1)C2	O[C@]12C[C@H]1[C@]1(CCO1)C2	
InChI=1S/C7H10O2/c8-6-3-5(6)7(4-6)1-2-9-7/h5,8H,1-4H2	InChI=1S/C7H10O2/c8-6-3-5(6)7(4-6)1-2-9-7/h5,8H,1-4H2/t5-,6+,7+/m1/s1
