18
gdb 82431	2.34672	1.84032	1.24269	2.0086	71.14	-0.2358	-0.0336	0.2021	1022.0159	0.148754	-439.076275	-439.068382	-439.067438	-439.109007	30.429	
O	 0.1321506158	 1.3103008836	 0.3525183048	-0.438019
C	 0.0182028469	-0.0511188199	 0.0406723987	 0.031699
C	-1.4374254167	-0.5228841341	 0.0916957111	-0.035178
C	-2.3715911998	-0.0554348099	-0.9610068251	-0.2376
N	-1.9880783149	-1.4644334535	-0.8964544771	-0.097774
C	-1.1438665474	-1.9894502018	-1.9798720892	-0.16231
C	 0.3789635782	-1.7648179445	-1.7938423012	-0.305335
C	 0.620641526	-0.3566881036	-1.323454337	 0.350741
O	 1.1947724889	 0.5099280833	-1.9477126487	-0.334996
H	 0.634871449	 1.6947454952	-0.3842443971	 0.29185
H	 0.5933028784	-0.6512513952	 0.7687842396	 0.093887
H	-1.8164637686	-0.6732540541	 1.0997639859	 0.103624
H	-3.4097635326	 0.1655133077	-0.7289530672	 0.120333
H	-1.9462123258	 0.5578741143	-1.7556788161	 0.118021
H	-1.324583244	-3.0662779017	-2.0611383391	 0.120674
H	-1.4623639935	-1.5410756674	-2.9273743631	 0.122027
H	 0.7428463707	-2.4537529319	-1.0221369451	 0.128635
H	 0.9198632293	-1.9589665967	-2.722518514	 0.129721
56.089	122.9817	210.6166	299.526	361.2168	407.0541	409.7052	430.6682	512.6469	549.0901	642.4295	687.3616	742.8764	830.2065	864.4178	883.0249	919.2569	945.8989	1028.651	1038.9803	1074.0909	1114.5913	1119.7826	1138.1193	1163.0242	1189.0675	1222.2983	1243.5351	1261.6292	1318.254	1327.1377	1353.4877	1383.8805	1402.5281	1444.1385	1473.7383	1507.0048	1521.9922	1806.2814	2944.3247	3037.338	3040.6193	3075.1147	3086.0316	3118.7056	3131.9998	3176.5727	3677.3589
OC1C2CN2CCC1=O	O[C@H]1[C@H]2CN2CCC1=O	
InChI=1S/C6H9NO2/c8-5-1-2-7-3-4(7)6(5)9/h4,6,9H,1-3H2	InChI=1S/C6H9NO2/c8-5-1-2-7-3-4(7)6(5)9/h4,6,9H,1-3H2/t4-,6+,7?/m1/s1
