21
gdb 118312	2.2208	0.77887	0.60069	2.7939	90.01	-0.2412	-0.0249	0.2163	1910.9022	0.178547	-387.08523	-387.073669	-387.072725	-387.124923	38.607	
C	 0.038193762	 1.5664794088	 0.0532974496	-0.387555
C	 0.0209038688	 0.0384784779	-0.0413947563	-0.176696
C	-1.3974849251	-0.5367066906	 0.032144444	-0.180882
C	-1.4426974606	-2.0880851541	-0.0452230026	-0.255262
C	-0.8152880462	-2.6781799914	 1.2201839136	 0.174952
O	 0.2511482146	-3.2298656535	 1.2622945051	-0.249591
C	-2.8086713497	-2.5880532504	-0.1649619418	 0.015143
C	-3.9375790326	-3.0061250511	-0.2122350218	 0.116419
C	-5.2994493997	-3.5140669226	-0.2939665681	-0.499273
H	 1.0586238472	 1.9555897165	-0.0131238721	 0.117199
H	-0.5456683984	 2.021211126	-0.7546908123	 0.115703
H	-0.3881530099	 1.9101376551	 1.0022885632	 0.11618
H	 0.4883859214	-0.2784326319	-0.9824956205	 0.103628
H	 0.6383450748	-0.3879512447	 0.75815797	 0.114701
H	-1.8913158281	-0.2158488285	 0.9588690548	 0.106357
H	-2.0068405367	-0.1430410404	-0.788668376	 0.113829
H	-0.8315569128	-2.424770685	-0.8910812589	 0.117104
H	-1.4405435562	-2.5366373132	 2.13094495	 0.084263
H	-5.3475234776	-4.5704406896	-0.0079158789	 0.152242
H	-5.9721670913	-2.9590218999	 0.3689177403	 0.149854
H	-5.6928520038	-3.4283478176	-1.3128119011	 0.151684
16.1654	50.6657	67.5836	77.9741	86.5366	141.8975	214.8934	241.0379	282.1331	307.1381	318.687	366.167	454.7535	501.0938	532.1454	738.6943	801.3851	845.5823	910.8545	964.6055	977.7222	1045.1613	1051.9024	1054.0019	1067.8477	1119.0826	1143.3819	1176.4242	1235.8702	1275.4711	1299.1481	1333.9068	1341.4262	1390.4568	1413.7733	1414.8748	1417.82	1477.2484	1478.2864	1484.491	1493.6531	1499.5987	1510.7079	1835.5911	2366.2186	2876.8488	3021.2054	3028.591	3028.7178	3032.3592	3044.5277	3054.1086	3077.0469	3090.3659	3090.4738	3098.8498	3105.7101
CCCC(C=O)C#CC	CCC[C@@H](C=O)C#CC	
InChI=1S/C8H12O/c1-3-5-8(7-9)6-4-2/h7-8H,3,5H2,1-2H3	InChI=1S/C8H12O/c1-3-5-8(7-9)6-4-2/h7-8H,3,5H2,1-2H3/t8-/m1/s1
