18
gdb 97285	1.99907	1.0644	0.70059	2.3972	84.74	-0.2484	-0.028	0.2204	1602.5653	0.145553	-435.291763	-435.281688	-435.280744	-435.327258	34.449	
C	-0.484015528	 1.241587084	 0.476422585	-0.314827
N	-0.1139078984	-0.1132774911	 0.122320504	-0.226934
C	-1.0189962899	-0.9921862153	 0.1600562122	 0.119964
N	-0.7648900789	-2.3398513257	-0.1654769512	-0.17922
C	 0.5150369368	-2.7629448149	-0.5476461079	 0.166977
O	 0.7821829848	-3.9039327112	-0.8354479132	-0.307232
C	-1.8019836292	-3.2875093895	-0.1107189403	 0.114847
N	-2.978442389	-2.9753527543	 0.2253278453	-0.233224
C	-3.9700432288	-4.0315760553	 0.2480133031	-0.315985
H	-0.2632805818	 1.9098622652	-0.3634039976	 0.134638
H	-1.5451836144	 1.3545337779	 0.7464808568	 0.107544
H	 0.1296808837	 1.5772909009	 1.3198121629	 0.134637
H	-2.0641546829	-0.8310611218	 0.4359265124	 0.139885
H	 1.227771762	-1.928382638	-0.5490633522	 0.141556
H	-1.4532579789	-4.2849678348	-0.3890923508	 0.140643
H	-4.7915587098	-3.7736178863	-0.4296846721	 0.133936
H	-3.5743034569	-5.0176623259	-0.0391604832	 0.10886
H	-4.3987600302	-4.1062231538	 1.2536663268	 0.133935
85.4184	121.9797	131.3267	133.3899	195.6791	198.7038	202.5811	227.4573	311.0449	348.663	387.6065	423.4275	456.5243	666.1917	746.9063	948.9476	1005.7289	1007.0836	1046.9345	1051.9674	1055.5421	1143.3527	1144.1905	1153.1196	1160.7006	1271.5855	1300.3663	1394.3414	1406.4039	1428.0312	1446.0422	1448.4555	1479.0233	1480.1793	1501.4541	1501.5344	1754.8062	1761.4073	1809.1558	2984.2793	2985.6283	3067.8762	3068.1612	3070.2078	3083.1778	3083.8936	3102.9754	3106.9897
CN=CN(C=O)C=NC	CN=CN(C=O)C=NC	
InChI=1S/C5H9N3O/c1-6-3-8(5-9)4-7-2/h3-5H,1-2H3	InChI=1S/C5H9N3O/c1-6-3-8(5-9)4-7-2/h3-5H,1-2H3
