18
gdb 94409	2.61445	1.36006	1.20663	4.0264	72.5	-0.2493	0.0227	0.2721	1110.9088	0.147369	-439.087025	-439.078339	-439.077394	-439.120877	31.584	
C	-0.3407018568	 1.4519836779	-0.0054157441	-0.40902
C	 0.1572736532	 0.0234158299	-0.0713233537	 0.106772
O	 1.3985930124	-0.0973970319	-0.8081430834	-0.296219
C	 2.0313116999	-0.7961296244	 0.2794635849	-0.128886
C	 0.7993078802	-0.6208566194	 1.1817205408	 0.098818
C	 0.8512673637	 0.0358017135	 2.5883283464	-0.237406
N	 0.2146735236	-1.1835404014	 3.1015440741	-0.33978
C	 0.1414161528	-1.8256104757	 1.8896701399	 0.383801
O	-0.2751615978	-2.8985862016	 1.5438471806	-0.363692
H	 0.4066345774	 2.1133341814	 0.4431946846	 0.11966
H	-0.5514571955	 1.8135758598	-1.0166167861	 0.13503
H	-1.266723088	 1.5145017906	 0.5765263761	 0.120403
H	-0.609411968	-0.6319505053	-0.5072534879	 0.096592
H	 2.2564299377	-1.839636615	 0.0263317843	 0.121234
H	 2.9477160475	-0.2965701649	 0.6172944244	 0.104407
H	 1.8609547102	 0.2124981798	 2.9744097834	 0.115653
H	 0.248762158	 0.9411553463	 2.7098108617	 0.118727
H	-0.0578046303	-1.4662275196	 4.0309557239	 0.253908
66.9127	88.2882	145.1367	197.0803	246.0885	258.9324	311.9996	427.748	453.5093	501.0497	615.4511	705.2072	756.3857	805.0215	870.5751	883.2252	914.7609	990.8262	1028.2353	1031.8557	1076.1203	1094.2083	1145.7331	1153.7233	1168.3606	1175.6821	1184.6548	1264.1106	1289.1285	1302.3458	1366.2438	1378.9223	1393.9633	1405.0826	1482.5534	1494.9683	1515.5788	1526.2636	1893.2319	3007.5395	3014.9426	3034.464	3038.4533	3058.3367	3086.6052	3107.827	3114.9293	3615.4377
CC1OCC11CNC1=O	C[C@H]1OC[C@]21CNC2=O	
InChI=1S/C6H9NO2/c1-4-6(3-9-4)2-7-5(6)8/h4H,2-3H2,1H3,(H,7,8)	InChI=1S/C6H9NO2/c1-4-6(3-9-4)2-7-5(6)8/h4H,2-3H2,1H3,(H,7,8)/t4-,6+/m1/s1
