19
gdb 57577	2.94717	1.1968	1.09846	1.0221	70.84	-0.2592	0.0761	0.3353	1184.5505	0.157024	-460.112588	-460.10349	-460.102546	-460.146446	34.172	
C	-0.0228216882	 1.6217934362	 0.2363129053	-0.433851
C	 0.0900954974	 0.1049928911	 0.1185034877	 0.299476
O	 0.9249913141	-0.3610758879	 1.1687975024	-0.475135
C	-1.259449212	-0.6097756964	 0.2211053571	 0.06026
C	-2.4637834802	-0.0410629793	 0.8303655361	-0.186839
O	-2.3268280754	-0.1185076062	-0.5942477533	-0.244236
C	 0.7027888837	-0.2826365055	-1.2287267936	 0.04961
C	 2.1525909093	-0.330554184	-1.4268117167	-0.191435
O	 1.3984289948	-1.5383650105	-1.2188479639	-0.262096
H	 0.9345905295	 2.0906499713	-0.002916694	 0.121163
H	-0.7872708552	 2.0019188901	-0.4460803492	 0.136818
H	-0.2877160686	 1.8979762443	 1.2598657114	 0.131045
H	 1.2463739667	-1.2293739141	 0.8838954708	 0.289848
H	-1.1618062191	-1.6975829719	 0.2147466434	 0.098842
H	-3.2081235051	-0.708846622	 1.2611366389	 0.11885
H	-2.4485495178	 0.9637487636	 1.2449039979	 0.118452
H	 0.0547138896	-0.1324600053	-2.0911835914	 0.116001
H	 2.5640644323	-0.2145028369	-2.427179081	 0.123576
H	 2.8094010942	-0.0551519965	-0.605455498	 0.129652
71.0419	100.0419	176.5194	221.6888	250.0511	281.9329	293.3854	345.2004	383.5975	460.8513	532.856	537.4316	621.1452	714.9522	832.8808	864.0723	869.9128	917.2036	941.534	952.5778	1004.2483	1017.9832	1095.1999	1104.5484	1129.6359	1155.5072	1164.4188	1174.8893	1176.5959	1207.737	1219.4995	1280.7297	1296.8809	1373.2218	1401.4446	1424.7143	1450.147	1491.3529	1500.8932	1516.4508	1531.1816	3052.6508	3087.9075	3097.5598	3101.4549	3127.4475	3128.755	3135.5009	3184.606	3195.3374	3727.9852
CC(O)(C1CO1)C1CO1	C[C@@](O)([C@H]1CO1)[C@H]1CO1	
InChI=1S/C6H10O3/c1-6(7,4-2-8-4)5-3-9-5/h4-5,7H,2-3H2,1H3	InChI=1S/C6H10O3/c1-6(7,4-2-8-4)5-3-9-5/h4-5,7H,2-3H2,1H3/t4-,5-/m1/s1
