20
gdb 86440	1.92594	1.72229	0.95709	2.3528	77.79	-0.2596	0.0194	0.279	1255.3928	0.170684	-440.318552	-440.309551	-440.308607	-440.352185	33.997	
C	 0.0114751093	 1.5334804338	 0.0716196492	-0.408661
C	 0.03755999	 0.016074807	 0.0247777476	 0.110228
C	 0.6834267574	-0.5457844236	-1.245097482	-0.263211
C	 0.9452392485	-2.0296416905	-1.1383944317	 0.360459
N	 0.905778442	-2.7878385402	-2.1503383232	-0.50295
O	 1.3238349324	-2.4823892821	 0.0958543147	-0.263087
C	 0.7689536968	-1.8296197248	 1.2556575737	 0.212862
C	 1.5938614617	-2.2561569012	 2.4481570122	-0.406287
O	 0.7953546659	-0.4438370841	 1.1469561716	-0.248394
H	 1.0282981234	 1.9335745292	 0.0130519387	 0.129458
H	-0.567431755	 1.9306687891	-0.7672934085	 0.123231
H	-0.4423311474	 1.879542296	 1.0039313796	 0.127515
H	-0.9900845834	-0.3754790387	 0.1147685285	 0.076753
H	 0.0769008752	-0.360775966	-2.1332930521	 0.131056
H	 1.6502985381	-0.0457355579	-1.3858333315	 0.130061
H	 1.1481054461	-3.7430921796	-1.876812809	 0.217683
H	-0.2765351232	-2.174967101	 1.3414975326	 0.072742
H	 2.6193028375	-1.8977941702	 2.3304996592	 0.138168
H	 1.1692047786	-1.8329822782	 3.3612679319	 0.130003
H	 1.6022271963	-3.3453471972	 2.5256607586	 0.132371
98.3132	115.7766	169.9329	212.2817	227.6844	252.2683	299.5246	434.2686	440.2582	473.8404	492.1726	517.0263	588.0627	699.6843	825.1033	854.2148	890.8286	923.2747	932.6722	953.1386	974.7825	1062.6458	1089.0781	1111.8111	1124.1538	1155.2343	1183.1596	1198.2322	1240.1317	1298.6453	1334.0327	1372.8107	1386.2309	1396.9281	1409.6826	1412.2935	1443.2284	1459.2395	1482.5397	1484.3465	1488.4814	1499.1305	1754.0886	2946.6588	2961.136	3036.3662	3044.689	3059.5756	3118.4405	3124.6355	3126.096	3141.5416	3144.3515	3456.8155
CC1CC(=N)OC(C)O1	C[C@H]1C[C]([NH])O[C@@H](C)O1	
InChI=1S/C6H11NO2/c1-4-3-6(7)9-5(2)8-4/h4-5,7H,3H2,1-2H3	InChI=1S/C6H11NO2/c1-4-3-6(7)9-5(2)8-4/h4-5,7H,3H2,1-2H3/t4-,5-/m0/s1
