20
gdb 87057	2.44822	1.3537	1.0948	0.7998	86.36	-0.2253	0.0359	0.2613	1215.7687	0.168845	-365.932189	-365.922796	-365.921851	-365.966133	35.806	
C	-0.1920050383	 1.4295367077	-0.0591230227	-0.317105
N	 0.0385816367	-0.0035949499	 0.0613099677	-0.12308
C	 1.3819335181	-0.4909918177	-0.1910398902	-0.278594
C	 0.8184615972	-0.5218065917	 1.2058496657	 0.147051
C	 1.3815275414	 0.405237559	 2.1582762307	 0.271697
C	 1.8225233605	 1.163417996	 2.9825680618	-0.462589
C	 0.3012960055	-1.822361282	 1.764740862	-0.025716
C	 1.0096564223	-2.5386615047	 2.8863526898	-0.279109
C	-0.336826637	-1.9035759945	 3.127936229	-0.277651
H	 0.6569619644	 2.0478930311	 0.2667882747	 0.113509
H	-0.4075683737	 1.6553390722	-1.1081493398	 0.12297
H	-1.0665079127	 1.7046826364	 0.5379409874	 0.128035
H	 1.4599059716	-1.4200655317	-0.7511404134	 0.116004
H	 2.1681606157	 0.2360583097	-0.3885026991	 0.113369
H	 2.2261098728	 1.8345955627	 3.6999903879	 0.19676
H	-0.1397394898	-2.4401245021	 0.9894941309	 0.089247
H	 1.0777912006	-3.6196692418	 2.8365735901	 0.109846
H	 1.873629776	-2.052139394	 3.3253890952	 0.121714
H	-0.3597722102	-1.0000475084	 3.7268247039	 0.122833
H	-1.2035730712	-2.5445291962	 3.2434587682	 0.11081
68.7424	140.4981	154.9933	172.8536	209.7215	241.5399	349.7411	358.3814	362.9099	479.8268	563.0949	592.71	605.2378	635.1759	664.5032	772.6239	787.5313	842.751	864.0948	906.7882	945.0998	952.642	1052.8791	1061.2733	1070.9918	1084.7611	1116.5902	1126.6617	1135.4037	1158.0035	1200.0576	1205.0451	1229.8796	1304.339	1318.9806	1405.4645	1451.1718	1464.8645	1490.8181	1494.3174	1502.6516	1508.8005	2224.4276	2997.1495	3077.5896	3088.2497	3109.1173	3136.1489	3139.4494	3163.0555	3177.2322	3216.8755	3230.8021	3499.7204
CN1CC1(C#C)C1CC1	CN1C[C@]1(C#C)C1CC1	
InChI=1S/C8H11N/c1-3-8(6-9(8)2)7-4-5-7/h1,7H,4-6H2,2H3	InChI=1S/C8H11N/c1-3-8(6-9(8)2)7-4-5-7/h1,7H,4-6H2,2H3/t8-,9?/m1/s1
