21
gdb 106467	3.12546	1.37422	1.18527	1.4609	82.71	-0.2277	0.0256	0.2533	1120.26	0.184344	-387.083908	-387.075857	-387.074913	-387.116112	32.626	
O	-0.0424238838	 1.4222923057	-0.1694204922	-0.425828
C	 0.009511	 0.0186432637	 0.0564407182	-0.174816
C	-1.4017159423	-0.5268469758	 0.0072696566	 0.336598
C	-2.1464833398	-0.5324407098	-1.3639346447	-0.236097
C	-2.8591339416	-1.8224948446	-0.8537566049	-0.068969
C	-1.5795993828	-2.0758995085	 0.0025006338	-0.267899
C	-3.9784494255	-1.4071511654	 0.0776953412	-0.060254
C	-3.7090971045	-0.487876234	 1.0046600951	-0.070585
C	-2.3167072516	 0.0931361644	 1.0856549903	-0.283575
H	 0.8529003979	 1.7691604906	-0.1225562281	 0.288023
H	 0.6203174089	-0.4818565003	-0.7125572794	 0.077936
H	 0.4609225817	-0.209725849	 1.0374165968	 0.080049
H	-2.7731311794	 0.3252423821	-1.6167015628	 0.098478
H	-1.4528324386	-0.7422143725	-2.184128794	 0.087328
H	-3.1597778738	-2.5795837616	-1.5791981891	 0.055333
H	-0.7896592024	-2.5629630194	-0.5781843823	 0.08799
H	-1.7054521497	-2.5862843905	 0.9610185509	 0.092025
H	-4.9621586948	-1.8544247772	-0.0264064958	 0.082332
H	-4.4590247188	-0.1377692264	 1.7082576608	 0.083736
H	-1.8873531538	-0.0861901936	 2.0832509983	 0.094698
H	-2.3398221352	 1.1826382119	 0.9619687212	 0.123496
98.6946	170.5887	240.2447	267.0749	322.7065	338.3822	416.8757	443.3222	487.8463	512.5963	653.5514	699.0826	719.0393	848.3281	863.6017	874.0982	910.7137	928.3286	957.4796	960.3123	976.4933	1007.2936	1013.4685	1058.8321	1079.7403	1091.2782	1105.74	1173.5223	1176.7096	1196.3558	1211.405	1220.6315	1245.34	1265.183	1286.531	1314.604	1336.5735	1369.9213	1393.703	1459.4959	1472.7187	1475.1945	1503.4665	1514.7071	1701.5986	2948.7277	2980.9673	2993.5652	3040.7822	3050.4196	3051.7722	3095.1509	3102.7401	3114.8812	3158.234	3183.1983	3833.8561
OCC12CC(C1)C=CC2	OC[C@@]12C[C@@H](C1)C=CC2	
InChI=1S/C8H12O/c9-6-8-3-1-2-7(4-8)5-8/h1-2,7,9H,3-6H2	InChI=1S/C8H12O/c9-6-8-3-1-2-7(4-8)5-8/h1-2,7,9H,3-6H2/t7-,8-
