20
gdb 94000	3.14597	1.14351	0.94055	4.139	76.41	-0.2378	0.0277	0.2655	1269.969	0.171308	-440.322976	-440.313688	-440.312744	-440.35726	34.181	
C	 0.1815347658	 1.6902155517	-0.0052856924	-0.381272
C	 0.0419966468	 0.1642323286	 0.0148877534	-0.002425
C	 0.7042725548	-0.535822402	-1.1935983477	 0.117567
O	 0.5414232273	 0.2469444077	-2.3575769717	-0.429752
C	 2.160665601	-0.7375293723	-0.7366560191	-0.276365
C	 2.0255166994	-1.0816393889	 0.7532549224	-0.157071
N	 0.748524187	-0.4648257129	 1.1351306915	-0.038724
C	 0.2485677092	-0.608909355	 2.38535229	 0.134366
O	 0.8210131108	-1.1781315561	 3.2943273247	-0.344504
H	 1.230326963	 1.9973410657	-0.0485563613	 0.120263
H	-0.3322531532	 2.1057283093	-0.8750339909	 0.137309
H	-0.2576110701	 2.1166526926	 0.9014481236	 0.116727
H	-1.0214803196	-0.092656966	 0.0654449049	 0.093672
H	 0.2275695345	-1.5204742495	-1.3189844736	 0.077912
H	 0.9262635532	-0.2306282689	-3.0985661338	 0.289375
H	 2.6795781087	-1.5178977941	-1.299345193	 0.10277
H	 2.7069290986	 0.199954441	-0.8800669187	 0.119405
H	 1.9799326494	-2.1620970485	 0.9313322928	 0.123938
H	 2.8453045415	-0.6930502292	 1.3639850329	 0.129311
H	-0.7542378481	-0.1482551533	 2.4949629259	 0.067496
51.0323	130.5485	161.5385	203.1084	229.3804	257.9929	271.5966	333.4813	365.4842	410.1314	459.814	581.5234	607.7499	723.3885	815.4344	830.3668	865.4701	948.3768	1007.6682	1019.8008	1034.7334	1046.0749	1110.8639	1118.0975	1152.5785	1187.8295	1210.4318	1238.8422	1256.7928	1289.3658	1306.304	1351.0322	1378.982	1382.1149	1403.1994	1405.0842	1435.9679	1444.8589	1487.467	1494.0042	1503.6711	1526.7767	1786.0104	2925.2763	2977.5245	3040.9045	3046.7359	3048.3835	3059.3458	3082.0678	3108.0435	3117.3876	3135.0416	3829.7247
CC1C(O)CCN1C=O	C[C@H]1[C@@H](O)CCN1C=O	
InChI=1S/C6H11NO2/c1-5-6(9)2-3-7(5)4-8/h4-6,9H,2-3H2,1H3	InChI=1S/C6H11NO2/c1-5-6(9)2-3-7(5)4-8/h4-6,9H,2-3H2,1H3/t5-,6-/m0/s1
