19
gdb 36149	3.76918	1.08819	0.97033	4.765	78.75	-0.258	0.0369	0.295	1246.6208	0.161737	-382.083177	-382.075084	-382.07414	-382.116215	31.019	
N	-0.1021800027	-1.0605825565	-0.600496896	-0.315167
C	-0.0683085626	 0.0414498416	-0.25467204	 0.268189
C	 0.0023878909	 1.4331764103	 0.1967040213	-0.415741
C	 1.4210431398	 1.9771481715	 0.1705040466	 0.33773
C	 2.4914902438	 1.3076474256	 1.0251737308	-0.276281
C	 3.6562966851	 2.3240218734	 1.0658288084	-0.243896
C	 2.9915353641	 3.7114726919	 0.8911533228	-0.227973
C	 1.732027676	 3.4325662143	 0.0867842569	-0.065337
N	 1.8381940189	 2.5734389186	-1.1037368996	-0.360927
H	-0.6314846058	 2.0441073838	-0.4527160202	 0.160741
H	-0.4091836893	 1.4869855284	 1.2119359203	 0.146735
H	 2.0859494765	 1.1402773296	 2.0310444407	 0.106223
H	 2.7925667527	 0.3294756289	 0.6365073656	 0.124214
H	 4.2360934535	 2.2533779984	 1.988721355	 0.110988
H	 4.3584225157	 2.1311149958	 0.2485826544	 0.110728
H	 2.7051413888	 4.1336675458	 1.8620408427	 0.108653
H	 3.6542342471	 4.4378776526	 0.4088218301	 0.108956
H	 0.9587405381	 4.1941507563	 0.0304226165	 0.090758
H	 2.8046987194	 2.3533123096	-1.3304513764	 0.231406
60.7208	105.2662	216.6637	242.4439	303.8265	385.0196	389.8294	436.7481	454.0694	640.5653	656.1101	725.2772	809.7896	861.687	872.6201	882.6245	929.4881	929.7499	953.3857	987.8208	1022.9757	1045.1725	1064.4289	1113.9793	1147.2822	1181.6414	1207.4409	1229.3442	1261.2456	1288.3639	1308.6067	1320.4462	1333.1787	1342.4269	1362.1041	1437.2227	1450.8286	1488.211	1497.4405	1514.045	2361.5516	3030.6231	3035.0631	3042.0115	3054.5211	3076.4649	3082.0218	3097.1761	3107.8638	3145.0926	3501.87
N#CCC12CCCC1N2	N#CC[C@]12CCC[C@H]1N2	
InChI=1S/C7H10N2/c8-5-4-7-3-1-2-6(7)9-7/h6,9H,1-4H2	InChI=1S/C7H10N2/c8-5-4-7-3-1-2-6(7)9-7/h6,9H,1-4H2/t6-,7-/m1/s1
