17
gdb 15795	3.01828	1.48208	1.12114	3.4328	65.69	-0.2524	-0.0012	0.2511	1071.0375	0.141157	-400.994114	-400.985592	-400.984648	-401.028164	29.793	
C	-0.1338561231	 1.6261154156	 0.1808068513	-0.387769
C	 0.0331603572	 0.1176479818	 0.0198718398	 0.060815
O	 0.7546842755	-0.3867316904	 1.1615617866	-0.194491
C	 2.0051230197	-0.8582370234	 0.9865885599	 0.171527
O	 2.6668823281	-1.2795208582	 1.8855824153	-0.271364
C	-1.2982345868	-0.6065881282	-0.0716241895	 0.026762
C	-1.4494475719	-2.0258631232	 0.321747298	-0.252405
N	-2.0491282878	-0.9535749898	 1.1407132363	-0.317794
H	 0.8399799985	 2.1206344754	 0.2315740956	 0.12624
H	-0.6868347452	 2.036521166	-0.6692958555	 0.128102
H	-0.6888553054	 1.8534523492	 1.094983202	 0.143595
H	 0.6166404816	-0.0948253378	-0.8875255021	 0.094736
H	 2.3369604592	-0.8093220252	-0.0687536936	 0.082676
H	-1.9212380238	-0.2243109246	-0.878706838	 0.096661
H	-2.160930009	-2.6575727993	-0.2019975036	 0.121915
H	-0.5804521732	-2.543586748	 0.7163329075	 0.125217
H	-1.4525364036	-0.79903113	 1.9516224598	 0.245577
39.9021	87.3565	145.1864	204.7067	221.2292	238.9015	336.7006	377.0251	491.9296	550.3845	672.8576	774.7035	859.3021	900.906	948.5528	967.0226	992.1949	1043.6741	1050.8891	1104.7414	1127.2854	1145.8582	1160.6981	1187.9149	1215.4822	1275.9541	1307.2772	1343.0624	1371.9575	1411.4611	1421.1327	1435.6455	1488.3437	1495.1326	1511.5863	1866.486	2949.6808	3002.9169	3046.516	3116.6564	3120.0752	3124.2488	3129.0985	3205.3001	3492.7482
CC(OC=O)C1CN1	C[C@@H](OC=O)[C@H]1CN1	
InChI=1S/C5H9NO2/c1-4(8-3-7)5-2-6-5/h3-6H,2H2,1H3	InChI=1S/C5H9NO2/c1-4(8-3-7)5-2-6-5/h3-6H,2H2,1H3/t4-,5-/m1/s1
