15
gdb 11843	5.76538	1.26998	1.24569	4.2753	66.17	-0.255	0.0007	0.2557	990.9833	0.11852	-362.635958	-362.628711	-362.627766	-362.668031	26.821	
N	-0.6139153332	-1.032784122	-0.65124993	-0.31506
C	-0.2825062279	 0.0296881431	-0.3405622525	 0.278033
C	 0.1146959686	 1.3817894222	 0.0608411093	-0.00646
C	-0.1439738173	 1.7614173388	 1.5446631199	-0.376989
C	 1.3745149169	 1.8777807924	 1.6114903486	 0.463263
C	 2.2437859263	 2.9000030337	 2.2569544998	-0.333884
C	 2.336814206	 1.4300882281	 2.6553101537	-0.325844
O	 1.5394357031	 1.5162279827	 0.2291810405	-0.297567
H	-0.2716505592	 2.0971905041	-0.6735707404	 0.130977
H	-0.7003933561	 2.6898349232	 1.6786082847	 0.129593
H	-0.5858982341	 0.9698029622	 2.1500773259	 0.140434
H	 3.0535630871	 3.3056269458	 1.6600370993	 0.133522
H	 1.7927450536	 3.6021553682	 2.9508614234	 0.120934
H	 1.9489286616	 1.1244643464	 3.6216609854	 0.122836
H	 3.2057186346	 0.8765110409	 2.3165068926	 0.136212
42.1766	160.005	236.4072	284.2003	304.7981	427.2358	476.713	552.2096	620.5417	751.3966	770.5808	841.6054	887.3945	895.9272	920.8759	978.3916	1003.6389	1050.3271	1052.9	1072.4162	1075.0863	1159.735	1186.1051	1211.8597	1247.8112	1279.7407	1353.6825	1393.6991	1448.0819	1487.2888	1505.6696	2357.9806	3047.8561	3088.2344	3129.5891	3132.5448	3147.8965	3213.9911	3227.7672
N#CC1CC2(CC2)O1	N#C[C@H]1CC2(CC2)O1	
InChI=1S/C6H7NO/c7-4-5-3-6(8-5)1-2-6/h5H,1-3H2	InChI=1S/C6H7NO/c7-4-5-3-6(8-5)1-2-6/h5H,1-3H2/t5-/m1/s1
