19
gdb 126211	2.3442	1.28422	0.90471	4.073	78.89	-0.2542	-0.0294	0.2249	1341.9653	0.158175	-419.208437	-419.199065	-419.198121	-419.243799	33.306	
C	 0.4109813882	 1.7951433322	-0.2007763847	-0.375409
C	-0.0723629971	 0.3443834032	-0.0289700315	-0.298124
C	 0.495841519	-0.3208802765	 1.1781007448	 0.33057
C	-0.0479738663	-0.8391507206	 2.3180133437	 0.161858
C	-1.4629426231	-0.9598389742	 2.7842585277	-0.297325
C	-1.9404376362	-2.4177266411	 2.8859384124	-0.370907
N	 1.0112754198	-1.3088284811	 3.0702223849	-0.169534
N	 2.1063570031	-1.1146298322	 2.487297216	-0.021073
O	 1.8241891918	-0.4699837111	 1.2422916724	-0.221678
H	 1.499891792	 1.8332636005	-0.284769585	 0.143543
H	-0.0199675798	 2.2338132765	-1.1048125298	 0.122403
H	 0.1152144248	 2.4107120754	 0.6537023041	 0.128522
H	-1.1637082068	 0.3138140306	 0.0423918319	 0.122186
H	 0.2022032907	-0.2397522218	-0.9157310385	 0.134448
H	-1.5558704416	-0.4793253532	 3.7654135177	 0.12607
H	-2.1117810241	-0.3993185167	 2.1028325492	 0.107257
H	-1.9136953599	-2.9094910355	 1.908594738	 0.118754
H	-1.2980346008	-2.9848006239	 3.5650402634	 0.142751
H	-2.9658922536	-2.4633368306	 3.2642513533	 0.115687
40.1629	56.2699	150.7279	169.9294	188.2858	222.0808	284.426	332.1045	376.8264	490.4067	624.1638	658.2595	675.7207	709.1107	760.8281	792.2251	800.5884	967.7044	974.9937	1022.0744	1054.4393	1069.993	1083.7303	1093.8928	1185.6121	1224.8043	1294.1688	1303.6844	1349.9974	1361.421	1390.7091	1408.8095	1416.13	1465.5253	1474.9399	1482.7583	1496.4979	1496.9995	1507.8001	1508.309	1649.0243	3036.3068	3038.2149	3041.9564	3048.259	3073.9974	3086.6284	3113.1266	3120.8283	3124.0615	3131.2413
CCC1=C(CC)N=NO1	CCc1c(CC)nno1	
InChI=1S/C6H10N2O/c1-3-5-6(4-2)9-8-7-5/h3-4H2,1-2H3	InChI=1S/C6H10N2O/c1-3-5-6(4-2)9-8-7-5/h3-4H2,1-2H3
