13
gdb 132682	3.23355	1.34275	0.94877	1.562	64.4	-0.2214	-0.0242	0.1972	1098.3551	0.089745	-497.91478	-497.907657	-497.906713	-497.946211	27.788	
O	 0.067003733	 1.3854092015	-0.1022643902	-0.438317
C	 0.0622740423	 0.0316358882	-0.0768469658	 0.309128
C	 0.0033748572	-0.7062055931	-1.2456517958	-0.315276
C	 0.0025577132	-2.0956578648	-1.1370873483	 0.25814
F	-0.0535894347	-2.8367691796	-2.2482223365	-0.078782
C	 0.0587409391	-2.7098909352	 0.0990666287	-0.139117
N	 0.1157501954	-1.9871576846	 1.2302156577	-0.342991
C	 0.1171167829	-0.6780112601	 1.1388111826	 0.320224
O	 0.1743428924	 0.0781094823	 2.2704633507	-0.447909
H	 0.1109521547	 1.6951493898	 0.8117493967	 0.314176
H	-0.0405976	-0.2187478385	-2.2115262995	 0.131727
H	 0.0581052697	-3.7907775626	 0.184634973	 0.123486
H	 0.2061880349	-0.5365919432	 3.0151296367	 0.305512
152.7763	234.3624	300.9755	343.7116	382.6746	428.7417	470.1882	476.9991	499.6232	510.0535	602.975	630.3935	730.6259	771.1157	810.2465	899.4118	906.4447	1008.5322	1137.0954	1178.1802	1217.0641	1290.3057	1326.7296	1354.0996	1395.9085	1509.6545	1524.9754	1649.059	1664.7258	3193.9158	3218.6855	3784.9025	3788.3028
OC1=CC(F)=CN=C1O	Oc1cc(F)cnc1O	
InChI=1S/C5H4FNO2/c6-3-1-4(8)5(9)7-2-3/h1-2,8H,(H,7,9)	InChI=1S/C5H4FNO2/c6-3-1-4(8)5(9)7-2-3/h1-2,8H,(H,7,9)
