16
gdb 49030	2.61157	1.40202	1.11148	3.7971	75.1	-0.2685	-0.0519	0.2165	1101.432	0.124106	-400.747348	-400.739263	-400.738319	-400.780272	29.613	
O	-0.2305007847	 0.2908057663	-0.6982165388	-0.262778
C	 0.06023311	 1.0862790069	 0.1640640543	 0.059833
C	 1.2796232664	 1.9195530474	 0.1463008129	 0.222936
C	 1.7115059888	 2.9827353252	 1.1631738812	-0.314696
C	 2.1603356137	 3.9148307833	-0.0106038699	-0.24016
C	 1.7240207744	 2.8460394971	-1.0174253236	-0.088166
C	 2.4224000479	 1.5391017812	-0.7872576797	-0.225977
C	 3.7757729846	 1.463541744	-0.3035076939	 0.312049
N	 4.8598085118	 1.4219678422	 0.0977991417	-0.344967
H	-0.6081757918	 1.2647228016	 1.0351057061	 0.084837
H	 0.8618769104	 3.3906855138	 1.7153234746	 0.119246
H	 2.4840779732	 2.6762347186	 1.8722881697	 0.133532
H	 1.5585147043	 4.8218818344	-0.0781374489	 0.121712
H	 3.2185804151	 4.1849078601	-0.0427366238	 0.136294
H	 1.1894130553	 3.0082441881	-1.9453655555	 0.124194
H	 2.1347568104	 0.7510082697	-1.4766147265	 0.162113
99.35	138.2992	141.8621	201.2898	215.0974	338.2796	371.5036	489.2659	557.1949	587.2364	708.1413	760.3077	781.8615	794.558	870.529	936.1387	953.1919	978.3941	1005.1302	1051.9625	1076.0053	1104.5085	1137.0357	1211.2503	1215.3573	1242.0731	1251.3265	1294.3634	1329.437	1419.6344	1431.4675	1476.6359	1497.4939	1798.6062	2353.9921	2890.1641	3067.7094	3076.1575	3117.3126	3136.5395	3172.6683	3197.0617
O=CC12CCC1C2C#N	O=C[C@]12CC[C@H]1[C@H]2C#N	
InChI=1S/C7H7NO/c8-3-6-5-1-2-7(5,6)4-9/h4-6H,1-2H2	InChI=1S/C7H7NO/c8-3-6-5-1-2-7(5,6)4-9/h4-6H,1-2H2/t5-,6+,7+/m0/s1
