20
gdb 14966	4.18964	1.34403	1.12548	1.3927	77.73	-0.2331	0.0265	0.2596	1120.9019	0.178117	-349.018398	-349.010248	-349.009304	-349.05114	30.601	
C	-0.2173701193	 1.5576523096	-0.0013813077	-0.372088
C	 0.0692180015	 0.0460453482	 0.0365980346	-0.274588
C	 0.7717745985	-0.473870754	-1.1937736066	 0.32131
C	 2.0463878961	-0.8678512556	-1.1837438413	-0.173337
C	 2.7474889093	-1.4200412652	-2.3950516341	-0.115986
O	 1.8746867997	-1.7166397331	-3.467419891	-0.245455
C	 0.9215967972	-0.6915222915	-3.6825112459	-0.081079
C	-0.0171868919	-0.5517660088	-2.4829406357	-0.297025
H	 0.7135023867	 2.127549885	-0.0834554582	 0.119212
H	-0.8518944598	 1.8309269565	-0.8503328529	 0.117957
H	-0.7324218056	 1.8770906867	 0.9099706626	 0.113778
H	 0.6745297321	-0.1822410294	 0.9209086517	 0.099357
H	-0.881649945	-0.4909225551	 0.1631927443	 0.099386
H	 2.6395970636	-0.8053884289	-0.273580473	 0.079359
H	 3.5372320393	-0.7172253203	-2.7235463427	 0.092071
H	 3.2524107747	-2.3618584769	-2.1470979219	 0.114287
H	 1.4286334086	 0.2699519987	-3.8706327079	 0.086216
H	 0.3748834149	-0.96676199	-4.5890146891	 0.104007
H	-0.7078106487	-1.4058759929	-2.4443818045	 0.112818
H	-0.641801462	 0.3412607171	-2.6113252106	 0.099801
68.4875	110.5366	201.3406	221.9907	277.1429	335.3045	348.7972	442.2493	500.5811	559.5638	685.3908	778.3253	799.7871	839.9027	865.3324	931.7706	956.0427	993.2004	1032.6327	1039.6797	1074.0112	1077.8005	1106.9311	1162.1567	1186.2416	1228.1096	1258.7157	1275.221	1309.0078	1339.3141	1354.5597	1375.4012	1391.1926	1407.579	1424.161	1466.1238	1481.9159	1488.974	1498.7909	1502.3034	1507.6134	1740.2743	2919.8887	2964.4282	3006.6849	3011.8491	3037.0291	3042.6875	3049.8912	3060.3038	3083.9979	3106.4789	3110.168	3146.3454
CCC1=CCOCC1	CCC1=CCOCC1	
InChI=1S/C7H12O/c1-2-7-3-5-8-6-4-7/h3H,2,4-6H2,1H3	InChI=1S/C7H12O/c1-2-7-3-5-8-6-4-7/h3H,2,4-6H2,1H3
