18
gdb 102880	2.65578	0.91558	0.69678	2.8394	76.98	-0.2365	0.0145	0.251	1576.5621	0.145958	-435.274178	-435.263667	-435.262723	-435.311113	35.399	
C	 0.057868808	 1.299946682	 0.2157397197	-0.226059
O	-0.0437048033	-0.1133332966	 0.0335598956	-0.260252
C	-1.2969880796	-0.6172626674	 0.0285879401	 0.51662
N	-1.2678658596	-1.9978644899	-0.0694664229	-0.387948
C	-0.0630039614	-2.7204141413	-0.4420582113	-0.264995
C	-0.1997102696	-4.1436430466	-0.1184555458	 0.251701
N	-0.3177426774	-5.2685449282	 0.114434468	-0.293205
N	-2.3213444978	 0.1239419224	 0.1340018975	-0.352561
C	-3.6288276496	-0.5017280262	 0.1413953074	-0.342033
H	 1.1265410563	 1.5182887526	 0.2048040252	 0.126441
H	-0.4534844041	 1.8311321237	-0.5906405492	 0.140185
H	-0.3884460442	 1.6001140819	 1.1669166956	 0.140896
H	-2.1373343415	-2.4208878273	-0.3529340284	 0.261778
H	 0.1863632602	-2.6324428639	-1.5104888516	 0.154099
H	 0.7811547873	-2.3072150086	 0.1139923756	 0.184864
H	-4.3957992367	 0.267287529	 0.2616470261	 0.129054
H	-3.8542549367	-1.0331988873	-0.799016634	 0.10395
H	-3.7502015703	-1.2221102184	 0.9651905023	 0.117468
29.7763	76.2322	117.4674	135.3311	158.2085	179.5061	215.1598	239.6013	270.5416	340.9517	379.6965	456.2829	518.2604	602.588	664.8322	723.624	850.3111	949.9194	994.8483	1075.8367	1106.8422	1119.4172	1129.7693	1183.6415	1185.9816	1232.3605	1250.6143	1354.3669	1378.6654	1438.675	1473.949	1474.5946	1482.447	1488.7082	1503.823	1507.5087	1512.0807	1757.9329	2369.7787	2954.3867	2994.0954	3006.3017	3051.6979	3099.9164	3112.8736	3127.9408	3152.04	3638.8736
COC(NCC#N)=NC	COC(=NC)NCC#N	
InChI=1S/C5H9N3O/c1-7-5(9-2)8-4-3-6/h4H2,1-2H3,(H,7,8)	InChI=1S/C5H9N3O/c1-7-5(9-2)8-4-3-6/h4H2,1-2H3,(H,7,8)
