21
gdb 88470	2.68452	1.32002	1.1701	1.6426	78.14	-0.2586	0.0692	0.3278	1176.5296	0.180789	-424.194649	-424.185256	-424.184312	-424.228788	35.61	
C	 1.2668233247	 0.7255376367	-0.6531506265	-0.416724
C	 0.1865720187	-0.034851754	 0.0716515074	 0.083944
O	 0.5582121728	-1.1750590885	 0.8628810329	-0.260152
C	-0.0103316214	-0.0437795914	 1.5281740511	 0.038008
C	 0.8525015664	 0.7410704657	 2.5092992928	 0.359848
O	 0.6228199483	 2.1019367107	 2.1970654375	-0.481169
C	 0.6224384168	 0.2900900569	 3.9834026459	-0.282725
C	 1.8892896148	-0.5978685963	 3.8705320487	-0.21712
C	 2.3226384571	 0.2319967077	 2.6342805915	-0.267806
H	 2.1009086503	 0.9856571808	-0.00208551	 0.134998
H	 1.6462379627	 0.1338252718	-1.4932314621	 0.120195
H	 0.8501767593	 1.6546823683	-1.055028402	 0.127529
H	-0.7071398186	-0.2166328499	-0.5295402783	 0.08724
H	-1.0283082223	-0.2108667863	 1.8863195906	 0.08751
H	 1.038585501	 2.6365953206	 2.8815948171	 0.275425
H	 0.7756492684	 1.1292268236	 4.6713849671	 0.087453
H	-0.3328763963	-0.1847705846	 4.2241153623	 0.100383
H	 2.5651269845	-0.6143057816	 4.7272584078	 0.09779
H	 1.6438904427	-1.6257274286	 3.5949704066	 0.123061
H	 2.7429139071	-0.3089278748	 1.7872896296	 0.117381
H	 2.983712573	 1.061594163	 2.9066859798	 0.084929
64.5323	112.3388	148.3883	160.5778	248.5952	268.7778	302.9288	372.4564	388.5915	416.4648	497.6847	538.7409	655.461	726.6782	781.7009	790.2329	826.4737	888.1704	926.2959	938.4639	978.6231	988.2476	1008.6317	1039.9676	1078.8793	1089.8034	1128.5444	1170.6536	1179.448	1185.2039	1205.4743	1223.0949	1247.5175	1275.0931	1284.4723	1310.9129	1373.5939	1408.8295	1423.8416	1460.4323	1466.7401	1481.532	1483.9313	1500.2697	1509.0288	3037.1806	3043.2086	3052.3664	3073.9805	3075.5724	3088.4986	3094.4137	3103.0252	3126.0638	3141.0348	3158.2891	3807.3586
CC1OC1C1(O)CCC1	C[C@H]1O[C@H]1C1(O)CCC1	
InChI=1S/C7H12O2/c1-5-6(9-5)7(8)3-2-4-7/h5-6,8H,2-4H2,1H3	InChI=1S/C7H12O2/c1-5-6(9-5)7(8)3-2-4-7/h5-6,8H,2-4H2,1H3/t5-,6-/m1/s1
