20
gdb 92559	2.72327	1.73094	1.6152	0.394	77.32	-0.2282	0.0788	0.307	963.3486	0.173621	-403.135784	-403.128492	-403.127548	-403.167274	29.649	
C	-0.1618457258	 1.5695148764	 0.0558891298	-0.408307
C	 0.0059417727	 0.0533191617	 0.0170684002	 0.124495
O	 0.575488637	-0.3553793758	-1.2283853663	-0.29811
C	 1.5964465261	-1.3482500959	-1.0378078078	 0.086388
C	 2.9500890195	-0.6610682448	-1.2504826309	-0.212188
C	 3.0776254601	 0.1731484537	 0.0446402388	-0.168677
N	 2.3346874011	-0.5689675698	 1.0974668889	-0.117631
C	 0.8560916201	-0.5926258726	 1.0961016008	-0.054232
C	 1.619821122	-1.6844157736	 0.4563819851	-0.083787
H	 0.7960263571	 2.092583	 0.0218788057	 0.125865
H	-0.7629855225	 1.8986511567	-0.796266277	 0.127955
H	-0.6816326992	 1.8637696934	 0.9734387694	 0.116487
H	-0.99804645	-0.3967987113	 0.1122673278	 0.073776
H	 1.4030656852	-2.1972216339	-1.6996090538	 0.075674
H	 3.7501248219	-1.4078795008	-1.3072604807	 0.09846
H	 2.9665388062	-0.0624346373	-2.1641322702	 0.108586
H	 4.1163705055	 0.2633176326	 0.374289226	 0.108198
H	 2.6862902968	 1.1845532221	-0.0814349691	 0.11379
H	 0.4180758384	-0.6807126153	 2.0870622369	 0.093618
H	 1.7451110577	-2.6956276054	 0.8291200562	 0.089639
115.4795	188.2791	216.0594	285.8065	363.3652	398.3803	528.6332	595.793	652.6569	701.3315	767.7891	814.6209	820.7095	835.4149	858.4292	900.7092	919.5228	943.1391	975.9077	1002.546	1011.5996	1036.6286	1077.7375	1095.7098	1112.0595	1125.146	1158.5581	1188.1129	1213.5133	1254.9389	1288.4813	1300.186	1319.4022	1330.7694	1344.6856	1354.9803	1389.1903	1403.0872	1407.9969	1476.3755	1485.0947	1495.3097	1511.9634	2940.8482	3044.5617	3046.2475	3065.0033	3073.65	3102.8586	3114.0678	3118.2986	3134.442	3141.5121	3163.3788
CC1OC2CCN3C1C23	C[C@H]1O[C@H]2CCN3[C@@H]1[C@@H]23	
InChI=1S/C7H11NO/c1-4-6-7-5(9-4)2-3-8(6)7/h4-7H,2-3H2,1H3	InChI=1S/C7H11NO/c1-4-6-7-5(9-4)2-3-8(6)7/h4-7H,2-3H2,1H3/t4-,5+,6+,7-,8?/m1/s1
