12
gdb 130764	5.57214	1.03012	0.91742	4.0708	56.9	-0.2934	-0.0439	0.2495	1176.4372	0.076918	-509.742368	-509.735317	-509.734373	-509.774956	24.879	
O	 0.0952156258	 0.052117894	 0.3509769607	-0.347729
C	-0.0108320678	 1.209892142	 0.1341855053	 0.514578
O	-1.1366354995	 1.8887086655	-0.2157326309	-0.225431
N	-0.821790966	 3.2559031379	-0.3936535314	-0.171072
C	 0.4306911715	 3.3306576152	-0.1314038344	 0.464661
O	 1.0090544016	 2.1486858318	 0.1875943745	-0.227577
C	 1.2556861677	 4.5546943478	-0.1387382909	-0.068619
C	 0.6141203314	 5.8744307644	-0.1391597162	-0.159209
O	 1.1992378807	 5.3471838181	 1.0503600222	-0.207739
H	 2.2514865572	 4.4229355462	-0.5571684975	 0.135883
H	 1.1445553433	 6.7074129163	-0.5954080303	 0.136052
H	-0.4710817559	 5.9360592309	-0.1402178811	 0.156202
50.8544	129.3697	178.2018	246.2133	371.5686	438.6394	559.9399	634.013	733.6587	769.6232	783.3546	853.0787	883.092	912.2274	942.7235	1000.3615	1020.9453	1095.0432	1149.2332	1163.0993	1172.1206	1283.4653	1307.2604	1464.6233	1526.0288	1684.0789	1960.2554	3105.9331	3141.0171	3203.2662
O=C1ON=C(O1)C1CO1	O=c1onc(o1)[C@H]1CO1	
InChI=1S/C4H3NO4/c6-4-8-3(5-9-4)2-1-7-2/h2H,1H2	InChI=1S/C4H3NO4/c6-4-8-3(5-9-4)2-1-7-2/h2H,1H2/t2-/m1/s1
