19
gdb 76976	2.4732	1.27318	1.08944	2.4332	79.01	-0.2321	-0.039	0.1931	1201.5525	0.158301	-419.146521	-419.137385	-419.136441	-419.180688	33.179	
C	-0.3437045459	 1.4402585057	-0.1622639985	-0.329825
N	-0.0082661311	 0.03108185	 0.0425409097	-0.103767
C	 1.3058217318	-0.5103153794	-0.3372884514	-0.1335
C	 2.433312481	 0.3173497897	-0.8364576006	 0.154262
O	 2.6405668779	 1.4835881977	-0.5811916655	-0.275669
C	 0.8485277972	-0.3928129544	 1.1156268723	-0.032207
C	 1.500310114	 0.5286102941	 2.0963558677	-0.001082
C	 0.9783758154	 0.5529250879	 3.4895703687	-0.247133
N	 2.2844686896	-0.0565275086	 3.2003897889	-0.318842
H	 0.496389932	 2.133814451	-0.0716323325	 0.152951
H	-0.7702364847	 1.5428702551	-1.1643123974	 0.126859
H	-1.1177895105	 1.7058208011	 0.5637788662	 0.127577
H	 1.2567024888	-1.4926557775	-0.8043940499	 0.099284
H	 3.1181504153	-0.2417582531	-1.5122071362	 0.086313
H	 0.5366644681	-1.3374750057	 1.5693794956	 0.092828
H	 1.9401185507	 1.4288802013	 1.6843340464	 0.132893
H	 1.0168616596	 1.4739876936	 4.0637692474	 0.125756
H	 0.1395081194	-0.0965169773	 3.7289914733	 0.113645
H	 2.1962937214	-1.0710636012	 3.1900969959	 0.229655
67.2738	134.0747	142.809	175.1634	186.8988	240.8808	274.2105	324.3388	381.334	460.4716	537.9516	688.6579	777.6415	808.3361	842.365	872.5443	898.6145	958.3239	972.3718	986.5739	1034.545	1069.6817	1084.1837	1132.3433	1144.3796	1159.8544	1168.266	1174.8268	1236.5639	1251.9224	1296.1642	1325.3024	1348.8726	1383.2651	1429.667	1446.144	1459.4447	1484.2149	1510.936	1516.798	1790.2924	2883.1874	3039.3351	3064.4219	3106.2994	3110.5	3118.127	3120.8309	3186.9993	3196.9169	3481.0259
CN1C(C=O)C1C1CN1	CN1[C@@H](C=O)[C@H]1[C@H]1CN1	
InChI=1S/C6H10N2O/c1-8-5(3-9)6(8)4-2-7-4/h3-7H,2H2,1H3	InChI=1S/C6H10N2O/c1-8-5(3-9)6(8)4-2-7-4/h3-7H,2H2,1H3/t4-,5+,6-,8?/m1/s1
