18
gdb 48256	1.92022	1.42841	0.94943	3.4794	79.52	-0.2363	0.0178	0.2541	1266.8754	0.145968	-401.910226	-401.900925	-401.899981	-401.945221	33.796	
O	 0.0427269945	 0.0148802982	-0.4115310029	-0.33699
C	 0.0968328344	 1.222745101	-0.3311357941	 0.149819
N	 1.2000939134	 1.9435325595	 0.0369306211	-0.031932
C	 1.1200734784	 3.3940992681	 0.1253829253	-0.373941
C	 0.9399015276	 3.9120719496	 1.4845521695	 0.344407
C	 0.7823627716	 4.3427483128	 2.5948471422	-0.452305
C	 2.4065333728	 1.2304439213	 0.3812033278	 0.067083
C	 3.7337779848	 1.5439809752	-0.2621381139	-0.282374
C	 3.5042698574	 1.8405683728	 1.2048962255	-0.297263
H	-0.7653077619	 1.8809102879	-0.5558234689	 0.075123
H	 2.0159897451	 3.8389917433	-0.3242514362	 0.145817
H	 0.2798475303	 3.7186470936	-0.498579882	 0.152421
H	 0.6412384604	 4.718023176	 3.5785335341	 0.208157
H	 2.1722619844	 0.1864105337	 0.5418126044	 0.139681
H	 4.3680236884	 0.7108893228	-0.5434051892	 0.124763
H	 3.79144384	 2.3908841183	-0.9379213306	 0.114878
H	 3.4198838133	 2.879192265	 1.5011457222	 0.129341
H	 3.977598005	 1.2104143509	 1.9497555256	 0.123313
48.6897	63.9799	102.1177	214.1057	231.3816	279.9115	300.9289	340.3604	426.9187	455.6559	518.6851	633.699	668.5656	711.3219	735.9934	788.8216	820.524	928.2599	940.5209	957.6663	973.6041	1022.0508	1056.1814	1079.2828	1086.7846	1144.9129	1193.8453	1214.6811	1234.7823	1288.7446	1358.794	1385.415	1441.9731	1452.4952	1471.7772	1476.4867	1513.2909	1794.7233	2239.6016	2937.6943	3031.2447	3067.1859	3135.2039	3144.178	3207.4791	3216.049	3233.4553	3502.4766
O=CN(CC#C)C1CC1	O=CN(CC#C)C1CC1	
InChI=1S/C7H9NO/c1-2-5-8(6-9)7-3-4-7/h1,6-7H,3-5H2	InChI=1S/C7H9NO/c1-2-5-8(6-9)7-3-4-7/h1,6-7H,3-5H2
