20
gdb 69419	4.39973	0.88826	0.81067	4.3261	83.85	-0.2602	0.0395	0.2998	1443.8053	0.171063	-366.009047	-366.000183	-365.999238	-366.042835	33.527	
C	 0.0218315267	 1.5645449479	 0.0441586368	-0.49733
C	 0.0382401197	 0.0643171485	-0.0050543997	 0.375184
C	-0.928280929	-0.8033056155	 0.7472598156	-0.328824
C	 0.5472599054	-0.9571280364	 1.0238999418	-0.128908
C	 1.2422331132	-1.7567598987	-0.0825262773	 0.027363
C	 0.91241824	-3.2548056095	-0.1966393857	-0.359467
C	 1.5258105773	-3.8711317406	-1.3714134323	 0.25902
N	 2.0208573593	-4.3344853163	-2.3074955675	-0.310664
C	 0.66228432	-0.7630643016	-1.1435078323	-0.308623
H	 1.0115541937	 1.983025906	-0.171898913	 0.118614
H	-0.6786870434	 1.9769480632	-0.6922779211	 0.123712
H	-0.2872955286	 1.9257791493	 1.0305381037	 0.118754
H	-1.4829759251	-0.3039721898	 1.5359011673	 0.113517
H	-1.4971145912	-1.5805717616	 0.2406599913	 0.102478
H	 0.9551147835	-0.7853160479	 2.0138281574	 0.086385
H	 2.3274479406	-1.6436555864	-0.019539995	 0.09593
H	 1.2611445514	-3.7846926605	 0.6978321072	 0.149695
H	-0.1708310245	-3.4084069401	-0.2508916275	 0.147788
H	-0.0428253669	-1.1810405263	-1.8701305288	 0.102792
H	 1.4473340477	-0.2358861236	-1.689653541	 0.112584
64.3021	104.4106	151.4814	213.0846	239.7948	314.8708	361.9547	393.995	403.0322	487.0076	517.0907	618.579	711.2154	802.137	833.2432	876.3846	897.0429	939.4163	968.5319	971.7063	981.5467	1008.5583	1055.9396	1069.5415	1077.5401	1101.9299	1132.8861	1147.0131	1235.3197	1240.8751	1252.8112	1275.4415	1290.6211	1328.1158	1377.3952	1399.3915	1427.2342	1462.8392	1484.1157	1487.6322	1498.5049	1511.7051	2359.1028	3020.7832	3040.979	3045.8012	3067.7357	3078.7763	3085.7064	3096.6807	3102.9415	3111.1793	3170.2422	3191.8575
CC12CC1C(CC#N)C2	C[C@]12C[C@H]1[C@@H](CC#N)C2	
InChI=1S/C8H11N/c1-8-4-6(2-3-9)7(8)5-8/h6-7H,2,4-5H2,1H3	InChI=1S/C8H11N/c1-8-4-6(2-3-9)7(8)5-8/h6-7H,2,4-5H2,1H3/t6-,7-,8-/m0/s1
