16
gdb 75785	2.44387	1.32689	1.22031	2.0105	66.85	-0.2662	-0.047	0.2193	1097.7494	0.120782	-475.022803	-475.013335	-475.012391	-475.057787	33.056	
C	 0.3470604024	 1.4488264847	-0.2887895263	-0.443563
C	-0.0176156797	-0.0028282477	-0.0527895866	 0.284839
O	 0.804181491	-0.9210111321	-0.8806558954	-0.296721
C	 1.3764997848	-1.4738226211	 0.2456190637	 0.401874
N	 2.3181366325	-2.2870955167	 0.3879031302	-0.551251
C	 0.5357165424	-0.6808299864	 1.2277499755	-0.049578
O	 1.2392237045	 0.1601160961	 2.1024723212	-0.426153
C	-1.4790170738	-0.2750335681	-0.362748714	 0.117843
O	-2.3369825346	-0.3625003879	 0.4743583215	-0.236095
H	 1.4066998074	 1.6046880173	-0.0793200061	 0.14816
H	 0.1368042776	 1.7335475601	-1.3241059847	 0.132639
H	-0.2341350457	 2.0897616369	 0.3802770658	 0.15281
H	 2.712863637	-2.583273791	-0.5061438056	 0.236035
H	-0.227954015	-1.2705405745	 1.7484516489	 0.122029
H	 2.0089427637	-0.3306356808	 2.4133329985	 0.306285
H	-1.6924523846	-0.3834824586	-1.4490884867	 0.100848
44.5663	84.202	131.9871	173.342	200.8004	248.6483	260.7653	294.8018	356.6561	408.7624	532.3129	543.3745	657.847	716.7817	804.3128	872.5484	877.1414	932.6756	939.993	989.1655	1013.931	1109.4049	1130.1207	1177.298	1223.0354	1260.4332	1289.0949	1358.1746	1394.0133	1402.0758	1413.5104	1480.6925	1482.7809	1829.4255	1838.8864	2897.4354	3044.8713	3049.0165	3123.3829	3144.1855	3480.9934	3803.7365
CC1(OC(=N)C1O)C=O	C[C@]1(O[C]([NH])[C@H]1O)C=O	
InChI=1S/C5H7NO3/c1-5(2-7)3(8)4(6)9-5/h2-3,6,8H,1H3	InChI=1S/C5H7NO3/c1-5(2-7)3(8)4(6)9-5/h2-3,6,8H,1H3/t3-,5+/m1/s1
