19
gdb 93062	2.61222	1.44383	1.02585	1.3388	88.69	-0.2195	-0.0405	0.179	1176.2819	0.161303	-385.894935	-385.886868	-385.885923	-385.927353	31.9	
O	 0.0702719132	 1.4748481926	-0.1090510315	-0.432018
C	 0.054746612	 0.0594666456	 0.1057052341	 0.082007
C	-1.3822646879	-0.45732941	 0.3096703166	-0.289989
C	-1.4248928993	-1.8315037203	 0.9004877651	-0.069361
C	-1.4596791162	-2.9759121552	 0.2034331117	-0.071587
C	-1.4091102416	-3.1012674271	-1.2411928523	-0.100426
C	-0.6210419157	-2.4442529132	-2.1197328532	-0.097003
C	 0.4962334589	-1.5248035057	-1.9276175107	-0.076674
C	 0.8195134616	-0.5915078141	-1.0137345262	-0.094405
H	-0.2894934203	 1.63113364	-0.9898835392	 0.275869
H	 0.6057987482	-0.0667309824	 1.0450593191	 0.096699
H	-1.8823515314	 0.2546330463	 0.9730247807	 0.10946
H	-1.9002529092	-0.440198793	-0.6559727581	 0.106184
H	-1.4496170792	-1.8908031404	 1.986707338	 0.093027
H	-1.5884931186	-3.9082971309	 0.7512456813	 0.092624
H	-2.0497446675	-3.8755803715	-1.6612792499	 0.093525
H	-0.7337790374	-2.7468776505	-3.1598777835	 0.091069
H	 1.2361637407	-1.6393276468	-2.7208670731	 0.092896
H	 1.7744822297	-0.0911306335	-1.1685551589	 0.098102
85.1428	197.226	243.3502	263.7156	281.162	338.5352	393.5408	408.7445	516.6928	530.0896	625.0978	670.6189	748.1681	773.1372	812.0135	846.1516	870.9242	919.6625	956.011	1001.658	1008.4359	1014.4536	1029.4872	1050.0759	1063.5362	1118.8343	1186.8552	1241.9396	1269.6417	1280.8468	1314.2983	1320.1119	1378.5477	1414.9659	1416.031	1448.3327	1475.733	1488.7081	1649.1484	1692.1603	1702.0109	3033.2737	3042.9468	3090.8369	3103.5806	3120.5241	3129.8567	3140.4351	3146.1904	3156.53	3793.8414
OC1CC=CC=CC=C1	O[C@H]1CC=CC=CC=C1	
InChI=1S/C8H10O/c9-8-6-4-2-1-3-5-7-8/h1-6,8-9H,7H2/b2-1-,5-3-,6-4-	InChI=1S/C8H10O/c9-8-6-4-2-1-3-5-7-8/h1-6,8-9H,7H2/b2-1-,5-3-,6-4-/t8-/m1/s1
