16
gdb 129244	3.29703	1.37736	1.05347	1.5906	72.94	-0.2064	0.0006	0.2071	1116.8535	0.125336	-434.053658	-434.045951	-434.045007	-434.087006	28.718	
N	-0.0695326519	 1.2950750237	-0.2863353667	-0.610792
C	-0.0164688686	 0.0473400421	-0.085159532	 0.467069
O	 1.1115126234	-0.7753909588	-0.0713865353	-0.206631
C	 0.6482365569	-2.0278534386	 0.186482026	 0.079707
N	-0.6204163624	-2.1069843297	 0.3375383568	-0.224303
N	-1.0574068601	-0.8123560419	 0.1708341128	-0.075442
C	-2.4387653457	-0.4466555453	 0.259593168	 0.074246
C	-3.5050431415	-1.3778626623	-0.2429773116	-0.282198
C	-3.3442181988	-1.1316982501	 1.2431571028	-0.282203
H	 0.8517435507	 1.6878037852	-0.4516839963	 0.23185
H	 1.358934458	-2.8351606319	 0.2429077391	 0.168504
H	-2.5373911946	 0.6183474956	 0.0937576865	 0.145663
H	-4.3536327664	-0.9464562615	-0.7616442896	 0.121759
H	-3.1772104305	-2.3404703743	-0.6176263658	 0.135502
H	-2.9126110802	-1.9354517761	 1.8280916657	 0.135506
H	-4.0804952583	-0.5284597959	 1.7620330097	 0.121761
33.7886	102.6938	176.6193	227.6582	321.25	413.9149	534.1018	614.4152	626.7447	686.8526	718.9924	761.4351	789.2952	804.4343	811.3133	895.2258	947.2044	950.0711	976.9013	1051.2262	1066.333	1080.1733	1111.9292	1129.7044	1151.3546	1198.4274	1221.6376	1264.0763	1304.6777	1384.7711	1447.3803	1453.9644	1506.3233	1644.7146	1789.004	3141.2621	3143.3084	3209.7413	3227.1858	3240.7842	3294.929	3560.1155
N=C1OC=NN1C1CC1	[NH][C@H]1OC=NN1C1CC1	
InChI=1S/C5H7N3O/c6-5-8(4-1-2-4)7-3-9-5/h3-4,6H,1-2H2	InChI=1S/C5H8N3O/c6-5-8(4-1-2-4)7-3-9-5/h3-6H,1-2H2/t5-/m1/s1
