21
gdb 65263	3.35062	1.14924	1.11062	1.0159	78.88	-0.2516	0.0873	0.339	1226.6911	0.182516	-424.21888	-424.209867	-424.208923	-424.253249	33.465	
C	-0.2180081731	 1.4604861286	 0.5543042766	-0.474911
C	-0.0439256316	 0.0115445875	 0.1489002377	 0.354827
C	 1.2967461096	-0.4629320392	-0.360075991	-0.305846
C	 0.8100234785	-0.8995487827	 0.9975819488	-0.306695
C	-1.2538028919	-0.6218467638	-0.4879694361	 0.171069
O	-2.3792758545	-0.5754095868	 0.3852553959	-0.276549
C	-3.532882584	-0.2519608585	-0.3840087466	-0.087923
C	-3.0083733633	-0.2007417643	-1.8286007421	-0.108454
O	-1.6294012359	 0.0760233113	-1.6553069648	-0.255213
H	 0.702762517	 1.8524126792	 0.9962515115	 0.106149
H	-0.4710260996	 2.0769945722	-0.3132474598	 0.126301
H	-1.0208864821	 1.5607334823	 1.2908150748	 0.126671
H	 1.3151471585	-1.1969990042	-1.158901284	 0.113548
H	 2.0961127194	 0.26790135	-0.4114734589	 0.112231
H	 1.276528279	-0.46954523	 1.8771266809	 0.112141
H	 0.4961804361	-1.9306479271	 1.1226535052	 0.11436
H	-1.0461238037	-1.680083063	-0.7387987936	 0.051272
H	-4.3081932899	-1.01380993	-0.2438834221	 0.104503
H	-3.9288972912	 0.7175491728	-0.0570502979	 0.106521
H	-3.1527690319	-1.165847924	-2.3382035508	 0.09809
H	-3.4514968054	 0.5915815996	-2.4354638537	 0.117908
52.2793	70.3975	159.9095	197.5367	202.6467	280.2706	301.9226	322.5863	467.3287	485.8725	681.1099	736.4991	779.0019	781.0546	876.0628	888.7557	916.6734	931.5479	954.3521	960.7688	1002.2638	1029.2248	1042.6427	1067.6894	1077.0101	1078.8467	1130.5822	1134.6387	1163.465	1187.6678	1225.0742	1247.9812	1311.4832	1335.1987	1350.4524	1380.4538	1389.4162	1404.1877	1447.6617	1468.027	1483.7549	1503.0547	1512.4409	1516.9486	1531.1098	2910.8776	2987.4274	3020.1191	3039.8603	3061.9913	3109.4681	3111.0915	3112.0288	3130.1559	3134.2832	3207.9569	3222.0052
CC1(CC1)C1OCCO1	CC1(CC1)C1OCCO1	
InChI=1S/C7H12O2/c1-7(2-3-7)6-8-4-5-9-6/h6H,2-5H2,1H3	InChI=1S/C7H12O2/c1-7(2-3-7)6-8-4-5-9-6/h6H,2-5H2,1H3
