15
gdb 55517	3.57375	1.00836	0.78892	4.6706	66.28	-0.2517	-0.0413	0.2105	1359.5675	0.112755	-487.343318	-487.333862	-487.332918	-487.378491	33.542	
N	-0.2526060623	 1.3395634803	 0.0176703417	-0.56763
C	 0.1094807835	 0.0064843782	 0.0621852578	 0.475726
O	 1.2466015005	-0.3772851786	 0.1723712581	-0.339893
N	-1.0169429726	-0.835480046	 0.0193130137	-0.410554
C	-1.0252527652	-2.205375532	-0.0264079329	 0.440405
O	-0.0757884486	-2.952171764	-0.1014563615	-0.347177
C	-2.4584144566	-2.75374136	 0.0222540116	 0.280045
N	-2.4660549165	-4.1031670086	-0.0637387585	-0.530345
N	-3.4250154438	-1.9172485352	 0.1213539739	-0.551564
H	 0.5267628588	 1.9646921072	-0.1162146571	 0.268098
H	-1.1074097131	 1.6084754236	-0.443759768	 0.257923
H	-1.9553703987	-0.4523482019	 0.0951215321	 0.271417
H	-1.5675621896	-4.5622581221	-0.0678276834	 0.281723
H	-3.3072341204	-4.6380881294	 0.0553979731	 0.259629
H	-4.3398169055	-2.3670955714	 0.1497913793	 0.212199
50.621	70.1285	105.5427	143.5527	204.957	289.5632	358.7116	387.1199	412.4465	467.3711	515.0266	537.6268	574.7334	593.1255	666.2029	730.1447	775.4516	824.5456	852.9535	931.0944	953.7897	1080.4321	1111.2658	1140.5204	1207.5708	1326.0541	1431.3305	1541.2962	1595.5237	1628.3405	1728.3315	1795.5293	1866.0689	3476.1501	3508.336	3584.8727	3587.048	3704.7195	3735.7523
NC(=O)NC(=O)C(N)=N	NC(=O)NC(=O)C(=N)N	
InChI=1S/C3H6N4O2/c4-1(5)2(8)7-3(6)9/h(H3,4,5)(H3,6,7,8,9)	InChI=1S/C3H6N4O2/c4-1(5)2(8)7-3(6)9/h(H3,4,5)(H3,6,7,8,9)
