23
gdb 95238	2.6912	1.40729	1.08394	1.1329	85.58	-0.2452	0.0796	0.3248	1218.1422	0.207836	-388.291294	-388.282784	-388.28184	-388.324023	34.247	
C	-0.3497111181	 1.4862086488	 0.0811558431	-0.393493
C	-0.0185110872	-0.0009967555	-0.0107949357	 0.138057
C	 0.6084153681	-0.3629441948	-1.3638640153	-0.190644
C	 0.7691817541	-1.8622772322	-1.64362792	-0.241441
C	 1.6961915258	-2.6646915614	-0.7442514229	 0.000946
C	 2.9004705594	-2.0924694968	-0.02895516	-0.300691
C	 1.7130185889	-2.5833527208	 0.7626025445	-0.019236
C	 0.8604032214	-1.6113439546	 1.5577500907	-0.105486
O	 0.8545744644	-0.282805486	 1.0797248212	-0.253925
H	 0.5589069524	 2.085404658	-0.0370830289	 0.121959
H	-1.0596247093	 1.7775782308	-0.6985149424	 0.109935
H	-0.7847088875	 1.7178179682	 1.0566923036	 0.118495
H	-0.9463326467	-0.5854893405	 0.1186337886	 0.060433
H	-0.02528015	 0.0580693679	-2.1546168259	 0.091086
H	 1.575784649	 0.148587871	-1.4405098885	 0.103764
H	-0.2253704346	-2.3317000233	-1.6233740299	 0.093504
H	 1.1250052553	-1.973617176	-2.676387578	 0.096674
H	 1.8445575643	-3.6727833731	-1.1258682825	 0.078692
H	 3.8191345008	-2.6688050316	-0.0170883943	 0.102557
H	 3.0440000308	-1.018416774	-0.0515180166	 0.123629
H	 1.8311169888	-3.5326175952	 1.2815110486	 0.077385
H	-0.1732338946	-1.9910326635	 1.632362449	 0.083984
H	 1.2565330745	-1.5520287453	 2.5790396716	 0.103817
84.0847	197.9069	217.5842	251.4083	269.7107	318.9863	345.985	391.3028	443.9712	482.171	575.41	639.3332	725.3313	745.6822	806.9263	846.9276	878.0214	887.309	932.433	969.8004	1004.7207	1024.3589	1051.1975	1068.375	1084.4877	1103.6185	1135.3746	1142.474	1157.1803	1164.1642	1173.7674	1234.3093	1243.1568	1273.2771	1311.6968	1337.2758	1376.1722	1386.2238	1389.3654	1398.9498	1408.1981	1413.7253	1431.0271	1477.814	1486.3517	1487.4123	1491.2552	1501.8121	1505.7058	2946.654	2956.3298	2998.7042	3021.5806	3036.2433	3041.8961	3043.5194	3065.3021	3113.3059	3116.5123	3122.969	3127.7895	3139.2536	3225.6225
CC1CCC2CC2CO1	C[C@H]1CC[C@H]2C[C@H]2CO1	
InChI=1S/C8H14O/c1-6-2-3-7-4-8(7)5-9-6/h6-8H,2-5H2,1H3	InChI=1S/C8H14O/c1-6-2-3-7-4-8(7)5-9-6/h6-8H,2-5H2,1H3/t6-,7-,8-/m0/s1
