23
gdb 59996	2.15935	1.23685	0.93035	1.1979	82.3	-0.2427	0.0808	0.3235	1391.3926	0.202632	-425.407384	-425.396727	-425.395783	-425.44339	38.884	
C	-0.5294029618	 1.6669718005	-0.6196355037	-0.394199
C	 0.2659351695	 0.4953246241	-0.0572445259	 0.152352
C	-0.5482058279	-0.3371847192	 0.9358415584	-0.386703
O	 0.6563462141	-0.3122822875	-1.1774145674	-0.275233
C	 1.8333961622	-1.0786900056	-1.0123059219	 0.069195
C	 1.6664890908	-2.3857182753	-1.7863544222	-0.398403
C	 3.0591009687	-0.3179017245	-1.5022864903	 0.099304
C	 2.9652241367	 0.7162211549	-2.5371402353	-0.177547
O	 3.1517867181	 1.0633166739	-1.1581287747	-0.240515
H	 0.0968890193	 2.267216402	-1.2842958847	 0.124518
H	-1.3921046902	 1.3037526632	-1.1877016197	 0.118337
H	-0.8938854195	 2.3095388628	 0.1876578304	 0.110777
H	 1.1671763796	 0.8832614327	 0.432397533	 0.091213
H	-1.4532690826	-0.722788741	 0.4553452651	 0.118664
H	 0.0274190487	-1.189512954	 1.310922441	 0.111095
H	-0.8438980207	 0.2690974944	 1.7983770154	 0.112076
H	 1.9865652761	-1.3128455124	 0.0528115324	 0.074366
H	 2.56852272	-3.0023560641	-1.7199464753	 0.113435
H	 0.8249855458	-2.9553349058	-1.3846745659	 0.124162
H	 1.4666297561	-2.1760728945	-2.8414302521	 0.12761
H	 3.9986688119	-0.8660757235	-1.403763156	 0.086479
H	 3.818575051	 0.9145631391	-3.1835807237	 0.111054
H	 1.9868015742	 0.9608348796	-2.9417915972	 0.127964
49.9562	78.5816	103.5984	180.749	211.6917	216.8585	226.3141	266.4189	275.5361	326.6462	394.9087	436.2416	467.564	517.0876	614.4259	772.0753	821.5814	874.7905	885.8213	925.5084	929.7785	945.9236	983.2258	1015.9694	1065.8004	1099.8643	1129.8024	1144.6398	1152.7887	1163.5556	1177.7777	1186.2068	1209.5619	1287.808	1341.178	1357.3397	1370.1245	1394.6367	1400.439	1412.0482	1419.2354	1435.5432	1481.1902	1484.2512	1485.7465	1496.0387	1497.9364	1508.6518	1520.1586	2980.6342	3032.7276	3038.5607	3041.3797	3041.9948	3086.0964	3097.7647	3102.5669	3106.39	3114.3146	3115.0656	3123.8252	3125.5872	3194.889
CC(C)OC(C)C1CO1	CC(C)O[C@@H](C)[C@H]1CO1	
InChI=1S/C7H14O2/c1-5(2)9-6(3)7-4-8-7/h5-7H,4H2,1-3H3	InChI=1S/C7H14O2/c1-5(2)9-6(3)7-4-8-7/h5-7H,4H2,1-3H3/t6-,7+/m0/s1
