17
gdb 109119	3.05835	1.26655	0.94322	1.8692	71.38	-0.2288	-0.034	0.1948	1220.968	0.135476	-455.17079	-455.16167	-455.160726	-455.20498	32.629	
C	 0.1327630997	 1.3981489188	 0.0996100069	-0.319585
N	 0.00401289	-0.0393833224	-0.0641314416	-0.356233
C	 0.5551221664	-0.6697078935	-1.129651505	 0.379555
N	 1.0477662005	-0.0766413597	-2.1638949453	-0.316596
C	 1.5715321069	-1.0824730809	-3.0915265252	-0.261211
C	 1.5842267905	-2.3836273182	-2.2911418573	 0.340438
O	 2.3100976745	-3.3404973126	-2.3691645345	-0.311939
C	 0.5568513731	-2.1850135647	-1.1739633653	-0.054104
O	 0.8858473152	-2.8313559505	 0.0275173867	-0.446308
H	 1.1736409218	 1.7103151952	 0.2563235152	 0.129279
H	-0.2323308822	 1.8985902761	-0.7998153671	 0.154854
H	-0.4699304832	 1.7140670485	 0.953512839	 0.12403
H	-0.0688803292	-0.6033443669	 0.7685338518	 0.260964
H	 0.9391921891	-1.1903884726	-3.9860215428	 0.127952
H	 2.5765716525	-0.8261015642	-3.4440402061	 0.135114
H	-0.4253335831	-2.5304398157	-1.5460039182	 0.114924
H	 1.5500857775	-3.4986906867	-0.2012525211	 0.298864
68.321	104.3652	135.242	179.6087	232.3563	250.0271	304.4786	332.8429	403.719	477.8775	490.9528	605.605	619.7588	693.2121	747.9006	806.8281	888.6057	978.4017	1027.6895	1090.7516	1102.6255	1150.9998	1159.4359	1186.4779	1206.7312	1224.7373	1277.1714	1325.4071	1350.4599	1405.6082	1451.701	1471.2965	1479.3851	1509.051	1565.591	1692.7822	1856.0577	2939.6721	2996.203	3019.7483	3066.5544	3099.5127	3140.5031	3630.1652	3720.6677
CNC1=NCC(=O)C1O	CN[C]1[N]CC(=O)[C@H]1O	
InChI=1S/C5H8N2O2/c1-6-5-4(9)3(8)2-7-5/h4,9H,2H2,1H3,(H,6,7)	InChI=1S/C5H8N2O2/c1-6-5-4(9)3(8)2-7-5/h4,9H,2H2,1H3,(H,6,7)/t4-/m1/s1
