18
gdb 104271	2.25507	1.32836	1.09871	3.4594	72.29	-0.2718	0.026	0.2978	1170.2499	0.146872	-439.086513	-439.077352	-439.076408	-439.120372	34.054	
O	-0.1118330627	 1.4193682041	-0.2371204637	-0.43761
C	-0.060051082	-0.0001487315	-0.353635145	-0.150552
C	-1.4488644019	-0.492958595	 0.0400592364	 0.423654
O	-1.7734335131	-0.0302748626	 1.321713022	-0.483534
C	-2.5195588855	-0.3065609661	-1.0807340644	-0.284414
C	-2.3270257406	-1.7912156186	-1.4842031558	-0.24288
C	-1.6394099453	-2.0376216073	-0.1038781178	-0.18613
C	-0.4743499349	-2.9026894495	-0.0397880069	 0.27159
N	 0.471887812	-3.5676999777	-0.0139735664	-0.343436
H	 0.7861961131	 1.7618479433	-0.244865166	 0.300366
H	 0.1940924556	-0.3116568908	-1.3765445197	 0.103857
H	 0.6820700477	-0.4304216564	 0.3319212325	 0.120206
H	-1.4253966608	 0.8706673066	 1.374080164	 0.289327
H	-3.4974660462	-0.1256779849	-0.6296521018	 0.117496
H	-2.3198827269	 0.4573792202	-1.8336102867	 0.116326
H	-3.219855284	-2.3843329919	-1.6831492531	 0.12107
H	-1.6268171769	-1.9204113671	-2.3115837157	 0.125403
H	-2.3709365177	-2.3511836448	 0.6455017281	 0.13926
95.4784	112.6218	128.9903	193.4677	252.4091	264.7928	329.1428	358.6083	410.6935	440.871	485.2321	534.993	599.6376	656.2457	740.6196	800.4594	877.9846	926.3345	956.0936	976.61	1037.174	1061.6499	1079.2721	1084.5676	1149.147	1170.2137	1210.9196	1229.0864	1247.4636	1253.1032	1276.3013	1309.8856	1354.5012	1396.4439	1455.1225	1485.4453	1499.8584	1508.8741	2348.611	3001.3072	3046.7991	3077.6619	3083.3524	3086.8452	3131.4076	3146.1044	3753.6518	3843.2411
OCC1(O)CCC1C#N	OC[C@@]1(O)CC[C@H]1C#N	
InChI=1S/C6H9NO2/c7-3-5-1-2-6(5,9)4-8/h5,8-9H,1-2,4H2	InChI=1S/C6H9NO2/c7-3-5-1-2-6(5,9)4-8/h5,8-9H,1-2,4H2/t5-,6-/m0/s1
