19
gdb 107070	3.85984	1.08037	0.96085	0.578	70.23	-0.2552	0.0728	0.3281	1246.797	0.159397	-460.151785	-460.143121	-460.142177	-460.185289	33.009	
O	-0.0796262255	 1.332959798	-0.5391470303	-0.414984
C	-0.0004472203	 0.0530701731	 0.0677868185	-0.155391
C	-1.3672834494	-0.5367080875	 0.2877320528	 0.386393
C	-2.3670403937	 0.1074398967	 1.2370469068	-0.282074
C	-3.5388077031	-0.8962968949	 1.2859728671	-0.25833
C	-2.9273403726	-2.2877462466	 0.9659946763	 0.135654
O	-3.8197085623	-3.1830065957	 0.3314110847	-0.438697
C	-1.6949920921	-1.9580521981	 0.1398757451	-0.069878
O	-1.9979720605	-1.0306340729	-0.9217384177	-0.320184
H	-0.5263736057	 1.2113262462	-1.384636177	 0.292983
H	 0.604686522	-0.6428712439	-0.5313907	 0.095626
H	 0.5052503669	 0.2024259755	 1.0279728608	 0.112633
H	-1.8925595955	 0.2188536377	 2.2196548227	 0.106272
H	-2.664760397	 1.1062156992	 0.9069533892	 0.118827
H	-4.0680649265	-0.8915105995	 2.2408255844	 0.106889
H	-4.2686312869	-0.6592161164	 0.5069853615	 0.109786
H	-2.6112384482	-2.7966309253	 1.8846342554	 0.092121
H	-4.0395795762	-2.7955622746	-0.5242772125	 0.286348
H	-0.9644366136	-2.725501311	-0.1040554277	 0.096004
66.1517	112.6203	153.3833	221.3634	296.6815	349.0524	395.3114	403.057	422.9317	430.5913	567.4687	637.0406	675.4798	706.5957	844.786	855.0786	859.2463	944.4775	961.104	983.0459	1014.8335	1048.4789	1079.776	1094.5348	1104.7237	1152.6783	1200.8109	1211.3607	1259.4645	1270.5993	1286.2922	1318.7069	1338.5023	1343.0809	1382.7546	1423.397	1432.4877	1462.6174	1486.3091	1490.804	1495.3857	2999.0878	3040.2738	3044.1724	3068.288	3075.3149	3096.4102	3119.7474	3148.7543	3790.0401	3802.1971
OCC12CCC(O)C1O2	OC[C@]12CC[C@@H](O)[C@H]1O2	
InChI=1S/C6H10O3/c7-3-6-2-1-4(8)5(6)9-6/h4-5,7-8H,1-3H2	InChI=1S/C6H10O3/c7-3-6-2-1-4(8)5(6)9-6/h4-5,7-8H,1-3H2/t4-,5-,6-/m1/s1
