16
gdb 9868	4.9834	0.93821	0.84626	4.2167	79.75	-0.2584	-0.0541	0.2043	1343.1877	0.128381	-346.576169	-346.567487	-346.566543	-346.610099	30.343	
C	-0.0411134079	 1.5178294476	 0.0043244167	-0.45895
C	 0.0035346341	-0.0030827671	-0.0033924979	 0.159041
C	 1.3497146086	-0.6932644267	-0.2260394455	-0.281954
C	 0.731749139	-0.7182905093	 1.1352145821	-0.281951
C	-1.1496112587	-0.6594788647	-0.5388602217	 0.062708
C	-2.1273339136	-1.211259275	-0.9927469746	 0.023529
C	-3.2975369671	-1.8392688761	-1.5355708463	 0.011158
O	-3.4595153901	-3.0362834593	-1.6322661573	-0.239046
H	 0.8807461189	 1.9249604067	 0.4301967307	 0.119563
H	-0.1500824762	 1.9118434144	-1.0106647315	 0.132722
H	-0.8820640744	 1.8821641921	 0.602138889	 0.13272
H	 1.3523421975	-1.6074145904	-0.8067550927	 0.138191
H	 2.1967606224	-0.0389313563	-0.4005737045	 0.125608
H	 1.1489501859	-0.0813033932	 1.9074115067	 0.125611
H	 0.3090920753	-1.6496544256	 1.4913423404	 0.138192
H	-4.0757495937	-1.1242395371	-1.8745897835	 0.092856
63.6402	79.8086	124.2633	203.1164	213.7485	277.086	305.8447	344.576	491.2387	556.1014	569.9381	706.4445	788.053	824.8977	849.4061	943.3128	955.773	1020.2791	1051.2134	1075.7606	1081.4989	1089.6006	1117.703	1195.5338	1289.1174	1350.4727	1417.6183	1423.6377	1464.4522	1487.6198	1493.9042	1502.5076	1758.3831	2309.1298	2908.4583	3038.1587	3109.5061	3112.8267	3141.3652	3145.1991	3228.7673	3242.7384
CC1(CC1)C#CC=O	CC1(CC1)C#CC=O	
InChI=1S/C7H8O/c1-7(4-5-7)3-2-6-8/h6H,4-5H2,1H3	InChI=1S/C7H8O/c1-7(4-5-7)3-2-6-8/h6H,4-5H2,1H3
