19
gdb 85179	2.32599	1.38867	0.95184	4.2192	75.44	-0.2614	0.013	0.2745	1253.6522	0.158853	-423.045879	-423.037098	-423.036154	-423.08006	32.354	
C	 0.0725897112	 1.4742629735	-0.1846151334	-0.402697
C	-0.0804384326	 0.0130295713	 0.1737600782	 0.129989
O	 0.5333819233	-0.8630991666	-0.8402848509	-0.259809
C	 1.4004665082	-1.4092636959	 0.0707446624	 0.447078
O	 2.2522486127	-2.2143341747	-0.1287211434	-0.327883
C	 0.8396414672	-0.6140689626	 1.2592900027	-0.232714
C	 1.7964487665	 0.2306505432	 2.0545756778	 0.022104
C	 1.3975631646	 0.7501445418	 3.4174283983	-0.278256
C	 2.4318646591	-0.338192528	 3.2990461404	-0.265152
H	 1.1209728121	 1.7378281142	-0.3468597129	 0.130603
H	-0.4800549575	 1.6973126569	-1.1016799318	 0.135093
H	-0.3245852346	 2.1037686765	 0.6179005228	 0.130065
H	-1.1344055276	-0.2588130759	 0.2810881809	 0.096296
H	 0.2831614076	-1.2777469755	 1.9294020268	 0.105934
H	 2.4306708649	 0.8839994288	 1.4637786739	 0.093411
H	 1.7229885424	 1.7450718433	 3.6992903348	 0.118287
H	 0.4169507352	 0.4806506993	 3.7959910105	 0.113199
H	 2.152619405	-1.3434755969	 3.5950956445	 0.12259
H	 3.4684475825	-0.0915769129	 3.4966328386	 0.121863
58.2733	91.4479	131.6594	188.7527	218.2859	283.0423	330.4415	386.0261	469.2413	550.1677	668.9235	737.3563	769.3691	812.7602	839.8072	873.0871	883.4158	921.7388	958.6286	1033.899	1042.0484	1048.1905	1062.5195	1082.0651	1133.5028	1136.2138	1155.4533	1191.9178	1199.4405	1218.7443	1233.2403	1293.2099	1318.2999	1384.3051	1413.3568	1430.9591	1471.9746	1482.091	1495.6006	1506.4621	1932.8791	3044.9192	3056.6103	3072.0804	3117.4659	3125.8055	3132.7061	3141.8202	3155.6973	3212.944	3229.4803
CC1OC(=O)C1C1CC1	C[C@H]1OC(=O)[C@H]1C1CC1	
InChI=1S/C7H10O2/c1-4-6(5-2-3-5)7(8)9-4/h4-6H,2-3H2,1H3	InChI=1S/C7H10O2/c1-4-6(5-2-3-5)7(8)9-4/h4-6H,2-3H2,1H3/t4-,6-/m1/s1
