14
gdb 12652	3.39266	1.99526	1.31083	5.1636	58.01	-0.2541	-0.0831	0.1711	886.3536	0.106906	-419.729654	-419.722291	-419.721347	-419.76168	26.188	
C	-0.2181213844	 1.5566036949	-0.0149712409	-0.409176
C	 0.0934659425	 0.0628473373	 0.0045651167	-0.123269
C	 0.9176345375	-0.4816350767	-1.1738457675	-0.102498
O	 1.7271917687	-1.5675838713	-0.6635104848	-0.216336
C	 1.8369837208	-1.5246663377	 0.685476146	 0.357728
O	 2.5226856161	-2.2606952326	 1.3272601229	-0.309175
C	 0.9177918243	-0.3908647601	 1.1956858811	 0.264464
O	 0.8988543362	 0.0201248334	 2.3212250441	-0.273386
H	 0.699070816	 2.1466724388	-0.1068364363	 0.132515
H	-0.8758088003	 1.8135552279	-0.8500182343	 0.127725
H	-0.7097077957	 1.8452315414	 0.9172427912	 0.151669
H	-0.843607646	-0.5104089192	 0.0656307845	 0.131858
H	 0.3134499967	-0.8843751616	-1.9881588471	 0.136849
H	 1.5895362176	 0.2830894254	-1.5792754355	 0.131029
69.0469	165.8727	187.9609	224.7088	325.2682	334.4119	449.7811	562.4616	598.5369	641.2802	737.4326	793.3079	910.5086	940.3517	988.7557	1029.7962	1069.1813	1123.7063	1161.6291	1202.4078	1239.6808	1292.1786	1325.5003	1398.8157	1415.9028	1495.5818	1496.5964	1522.7856	1868.6635	1887.061	3007.1622	3044.6334	3049.7258	3115.0513	3120.5683	3129.8746
CC1COC(=O)C1=O	C[C@H]1COC(=O)C1=O	
InChI=1S/C5H6O3/c1-3-2-8-5(7)4(3)6/h3H,2H2,1H3	InChI=1S/C5H6O3/c1-3-2-8-5(7)4(3)6/h3H,2H2,1H3/t3-/m0/s1
