17
gdb 29317	3.20658	1.26269	0.91621	4.495	85.11	-0.223	-0.0157	0.2073	1239.4369	0.136544	-380.943358	-380.934323	-380.933379	-380.977116	32.641	
C	 0.0149516626	 1.5201149914	-0.0080071755	-0.504481
C	 0.0092231338	 0.0217149732	 0.0055461705	 0.213414
C	-0.0194235615	-0.812006687	-1.0960273769	-0.164932
N	-0.0147470419	-2.1053707732	-0.6692481012	-0.331664
C	 0.0168643234	-2.1253056968	 0.7113404363	 0.15429
C	 0.0287791129	-3.3319499235	 1.439929327	 0.204551
N	 0.0384575545	-4.325475364	 2.0395257686	-0.363237
C	 0.0324576163	-0.8102956413	 1.1606165257	 0.107303
C	 0.0671198606	-0.3645831106	 2.5882032615	-0.519891
H	 0.9088069318	 1.9269736914	 0.4794174023	 0.130717
H	-0.0075280216	 1.9057032567	-1.0309856601	 0.124103
H	-0.8517189434	 1.9340615993	 0.5207822907	 0.130713
H	-0.042652034	-0.5739262754	-2.1481093049	 0.130963
H	-0.0316859568	-2.9233510734	-1.2531680072	 0.276871
H	 0.955315436	 0.2434820593	 2.7962544197	 0.133058
H	-0.805390411	 0.2509762035	 2.8366551405	 0.133053
H	 0.0791002682	-1.2193912096	 3.2688751331	 0.14517
113.1663	122.0735	124.8449	137.4959	233.3697	254.0225	284.4431	381.7629	453.7539	512.1355	521.4707	582.3841	644.1889	691.9902	700.7437	730.4539	770.3645	948.2743	1004.8095	1048.8734	1075.1604	1100.4546	1127.2848	1215.9243	1255.4524	1342.9708	1411.9229	1420.291	1426.416	1477.696	1478.8768	1488.3071	1489.9991	1504.7525	1540.0709	1619.129	2326.7643	3025.4825	3027.3712	3072.9412	3075.9565	3109.7552	3120.2469	3257.1314	3685.0427
CC1=CNC(C#N)=C1C	Cc1c[nH]c(C#N)c1C	
InChI=1S/C7H8N2/c1-5-4-9-7(3-8)6(5)2/h4,9H,1-2H3	InChI=1S/C7H8N2/c1-5-4-9-7(3-8)6(5)2/h4,9H,1-2H3
