23
gdb 121626	3.67935	0.75444	0.67928	3.5411	85.35	-0.2258	0.0655	0.2913	1785.271	0.204347	-421.648635	-421.637052	-421.636107	-421.686362	39.952	
C	-0.2681492111	 1.4620511006	 0.3938519438	-0.378162
C	-0.4700528887	-0.0531508461	 0.4721650689	-0.167716
C	-1.1252852548	-0.619979841	-0.7937073635	-0.135796
N	-1.3284550937	-2.0626109023	-0.7679676318	-0.375921
C	-2.4052980405	-2.5744802678	-0.0640962288	 0.500078
O	-3.2597937486	-1.8486478167	 0.4265621966	-0.430828
N	-2.4686130842	-3.9533999582	 0.0042334214	-0.119888
C	-3.4649807743	-4.5606722497	 0.8664703655	-0.341
C	-1.5159822452	-4.8326126925	-0.6397978906	-0.349212
H	 0.1998663271	 1.848006593	 1.3043402346	 0.113663
H	 0.3730524562	 1.7376973867	-0.451462984	 0.109615
H	-1.224360788	 1.9810353372	 0.2664713516	 0.122664
H	 0.4965642403	-0.5496948918	 0.6335620685	 0.080232
H	-1.1064936922	-0.3062272802	 1.326361125	 0.123794
H	-2.1069801282	-0.1619636275	-0.9337637923	 0.137883
H	-0.5167872823	-0.3822786407	-1.6747253415	 0.091281
H	-0.4942880339	-2.6239114522	-0.8232930065	 0.235856
H	-4.0748459212	-5.2811543215	 0.3070977451	 0.115276
H	-2.9988113878	-5.0896505124	 1.7094708883	 0.1116
H	-4.106231466	-3.768715407	 1.2495652935	 0.170628
H	-0.6077321688	-5.0057035401	-0.040207315	 0.115318
H	-1.9861988162	-5.8059385741	-0.8081752072	 0.132581
H	-1.223391008	-4.4386036357	-1.6168977817	 0.138053
53.3953	66.01	87.9357	109.2938	122.8669	149.4923	186.8712	229.9911	251.0925	282.1556	306.8895	390.8098	439.4958	458.0843	572.8022	618.9701	739.9022	765.7274	825.4018	890.6668	916.8325	1002.4289	1041.4408	1088.3076	1109.3115	1130.0328	1134.1544	1165.9036	1177.0949	1223.8173	1282.7496	1300.2063	1334.0893	1343.4738	1388.6575	1409.9769	1418.8318	1431.4975	1468.5912	1471.7081	1491.0644	1497.5006	1499.686	1499.9563	1507.1225	1508.6388	1521.893	1548.9251	1753.5307	2973.7516	3001.7223	3015.8996	3029.2741	3034.6805	3048.7377	3070.2275	3074.8169	3097.5901	3105.2064	3110.9755	3117.4629	3168.7899	3633.7661
CCCNC(=O)N(C)C	CCCNC(=O)N(C)C	
InChI=1S/C6H14N2O/c1-4-5-7-6(9)8(2)3/h4-5H2,1-3H3,(H,7,9)	InChI=1S/C6H14N2O/c1-4-5-7-6(9)8(2)3/h4-5H2,1-3H3,(H,7,9)
