19
gdb 14462	3.73252	2.13813	2.09024	1.5891	73.6	-0.2313	0.0917	0.323	784.5965	0.168927	-327.935598	-327.92924	-327.928296	-327.965552	26.645	
C	-0.0775657385	 1.4755666181	 0.0256892196	-0.49512
C	 0.0723912414	-0.0178047691	-0.0272496341	 0.35772
C	 0.2765113337	-0.7751448757	-1.3407517818	-0.274223
C	 0.212726447	-2.1965764809	-0.744907244	-0.058513
C	 1.2606717336	-2.1093487945	 0.3866070248	-0.232801
C	 0.6868451996	-0.8588984082	 1.0431793409	-0.074602
N	-0.7926306551	-0.8481170116	 0.8577746294	-0.161695
C	-1.082492362	-2.0776789324	 0.0799819865	-0.15238
H	 0.8189984971	 1.9742341977	-0.3597014893	 0.113225
H	-0.9304451226	 1.8060213461	-0.5782856959	 0.11738
H	-0.2443804239	 1.8122838266	 1.0521488369	 0.127714
H	-0.5174864847	-0.5785915815	-2.0696021817	 0.095169
H	 1.2404603425	-0.5462678977	-1.8073817632	 0.095471
H	 0.2970527245	-3.0335221688	-1.4364163652	 0.065215
H	 1.2538880574	-2.9832760901	 1.046074144	 0.098782
H	 2.2803973877	-1.9591427981	 0.0172770486	 0.097751
H	 1.0668174533	-0.453330484	 1.9736841384	 0.083292
H	-1.9790440865	-1.9316086469	-0.5304483719	 0.098671
H	-1.2510725644	-2.9201120691	 0.7582711179	 0.098944
189.3994	242.1951	302.8843	427.036	436.1453	475.712	581.517	671.673	692.8004	809.417	823.7551	884.5166	908.6975	921.0467	926.8509	940.1383	952.4139	965.3457	1001.8581	1032.9145	1063.2482	1083.5408	1096.6788	1154.7072	1164.9805	1178.1249	1221.5005	1251.2516	1255.5314	1279.1007	1299.6138	1314.4852	1332.7966	1408.4959	1429.5018	1486.4987	1488.6129	1493.3053	1495.0219	1519.6991	3028.0301	3040.0715	3044.7594	3050.5024	3083.7194	3087.2406	3090.559	3095.7428	3115.791	3131.4982	3179.6491
CC12CC3CC1N2C3	C[C@@]12C[C@H]3C[C@@H]1N2C3	
InChI=1S/C7H11N/c1-7-3-5-2-6(7)8(7)4-5/h5-6H,2-4H2,1H3	InChI=1S/C7H11N/c1-7-3-5-2-6(7)8(7)4-5/h5-6H,2-4H2,1H3/t5-,6+,7-,8?/m1/s1
