19
gdb 37063	3.28647	1.70352	1.39396	1.8478	78.54	-0.237	0.0061	0.2431	978.6568	0.161676	-385.898253	-385.89132	-385.890375	-385.929088	29.082	
C	-0.05377304	 1.577347499	-0.0212197376	-0.20689
C	 1.4535447911	 1.9653081134	-0.0197818407	-0.312781
C	 2.1117176158	 0.7901580569	-0.7082161882	 0.369205
C	 3.5380836252	 0.2704335311	-0.5933215136	-0.374228
C	 3.3315207096	-1.2385251103	-0.5560450645	-0.064898
C	 2.0390269551	-1.583918039	-0.5869407351	-0.182069
C	 1.1951875255	-0.3592754569	-0.6948352639	 0.359742
C	-0.102541147	 0.021085711	-0.0225393104	-0.317472
O	 1.4416916836	 0.3941046109	-1.9154248022	-0.341333
H	-0.5949059183	 2.0094059828	 0.8242721421	 0.09631
H	-0.5192244067	 1.9511240794	-0.935165813	 0.121784
H	 1.6325230487	 2.9247041479	-0.5155844465	 0.105973
H	 1.8446942679	 2.0451808983	 1.0021661199	 0.100815
H	 4.1630778377	 0.5766884256	-1.4402527275	 0.124076
H	 4.0319746998	 0.6364714273	 0.3160551867	 0.111288
H	 4.1639490054	-1.9343976163	-0.5484107384	 0.098925
H	 1.6516022165	-2.5952866381	-0.5736912553	 0.100067
H	-0.105543517	-0.3802497859	 0.9983387517	 0.104732
H	-0.993391573	-0.3628506271	-0.5292381733	 0.106753
190.2115	213.8655	258.7877	330.6116	409.583	474.0679	536.0366	571.312	625.5286	696.4877	705.921	750.3516	821.6916	834.6011	888.2983	889.513	920.7224	928.9647	947.6781	975.1929	992.9978	995.2334	1079.2902	1125.5725	1138.7216	1174.0771	1195.6588	1219.1069	1222.4888	1251.0489	1296.312	1322.4098	1338.5895	1351.682	1387.9407	1418.4799	1461.5043	1482.061	1482.6513	1499.4371	1649.2407	3026.5321	3033.525	3036.2027	3065.3315	3071.0349	3079.7564	3081.9095	3121.5262	3183.8471	3213.9751
C1CC23CC=CC2(C1)O3	C1C[C@@]23CC=C[C@]2(C1)O3	
InChI=1S/C8H10O/c1-3-7-5-2-6-8(7,4-1)9-7/h1,3H,2,4-6H2	InChI=1S/C8H10O/c1-3-7-5-2-6-8(7,4-1)9-7/h1,3H,2,4-6H2/t7-,8+/m1/s1
