21
gdb 89456	2.17326	1.60824	1.42676	2.4427	78.04	-0.2264	0.0657	0.2922	1072.1485	0.181081	-424.207542	-424.19824	-424.197296	-424.241289	36.051	
C	-0.3991462778	 1.4109369487	 0.3133417924	-0.494536
C	 0.0233995696	-0.0112876957	 0.0295523213	 0.297099
C	 1.1376194541	-0.274422705	-1.015858928	-0.277977
C	 1.8419560271	-1.2617795189	-0.0361858231	-0.283715
C	 0.8144873521	-0.9295838167	 1.0667926756	 0.404394
O	 1.3741179874	-0.5111207452	 2.2656076163	-0.480739
C	-0.3957944108	-1.8878658689	 1.1538887354	 0.041885
O	-0.9984742397	-1.6739874077	 2.4239811267	-0.45724
C	-1.0889004957	-1.1071741959	 0.0012104474	-0.321788
H	 0.4694268915	 2.0442164146	 0.5234969095	 0.120368
H	-0.933237617	 1.8469195414	-0.540379441	 0.111376
H	-1.0645186482	 1.4605236886	 1.1826166201	 0.112164
H	 0.8085824387	-0.6867855545	-1.9742164825	 0.090303
H	 1.743134091	 0.6138138545	-1.216364743	 0.099459
H	 1.8738887085	-2.3115101198	-0.3439486853	 0.09346
H	 2.8487183134	-0.9558551424	 0.2543342255	 0.11595
H	 0.6680556001	-0.5575093596	 2.9246140545	 0.291017
H	-0.2001156323	-2.9576329833	 0.9921770115	 0.06076
H	-1.8989260867	-2.0113596072	 2.4030944974	 0.28883
H	-2.0807679271	-0.7422343949	 0.2842328218	 0.093024
H	-1.1745762884	-1.656853252	-0.9407412125	 0.095907
51.6022	173.9592	188.9795	195.2987	208.573	290.9875	329.1043	350.5694	419.7544	440.4102	485.2503	510.1729	588.064	663.9399	725.9983	751.9477	819.4392	851.1555	900.8597	932.5424	952.2929	969.4909	1007.3554	1032.4511	1057.421	1105.1205	1135.1052	1153.6578	1182.1482	1208.6134	1236.9756	1237.9654	1251.8399	1262.0289	1289.9569	1321.7068	1338.7943	1397.7986	1406.7278	1414.0864	1464.3452	1471.5471	1487.999	1492.3406	1496.8673	2992.3625	3016.7331	3044.8415	3047.7571	3055.2448	3079.0962	3091.4161	3095.5711	3100.8354	3122.0481	3757.6127	3828.8013
CC12CCC1(O)C(O)C2	C[C@@]12CC[C@]1(O)[C@@H](O)C2	
InChI=1S/C7H12O2/c1-6-2-3-7(6,9)5(8)4-6/h5,8-9H,2-4H2,1H3	InChI=1S/C7H12O2/c1-6-2-3-7(6,9)5(8)4-6/h5,8-9H,2-4H2,1H3/t5-,6-,7-/m0/s1
