21
gdb 121648	5.79557	0.64085	0.61116	1.7717	81.79	-0.2654	0.0185	0.2838	1910.7517	0.181354	-424.260906	-424.250834	-424.24989	-424.297303	35.531	
C	 0.0988555978	 1.4627973416	 0.1637941255	-0.383537
C	 0.167131074	-0.0621073221	 0.0411606216	-0.189596
C	 0.6739308206	-0.4983557714	-1.3236314505	-0.044562
O	 0.7032701779	-1.9376042528	-1.3438667932	-0.25479
C	 1.1331474446	-2.4995641153	-2.491566423	 0.458203
O	 1.4797883646	-1.8656046136	-3.4614395561	-0.384215
C	 1.1225254192	-3.9814104111	-2.3996969103	-0.131902
C	 0.8079969891	-4.7495294193	-3.6721923502	-0.250071
C	 2.20819065	-4.7275090952	-3.1567253724	-0.250051
H	 1.0847430273	 1.9191989076	 0.0236148577	 0.120454
H	-0.5749771462	 1.893798849	-0.5846144571	 0.120451
H	-0.2673272582	 1.7592762167	 1.1506366417	 0.119584
H	 0.8264179697	-0.4749566751	 0.8134161311	 0.108418
H	-0.8235533124	-0.5002042102	 0.2087841449	 0.108418
H	 0.0252241687	-0.1421806061	-2.1314764899	 0.118431
H	 1.6810859406	-0.1169371531	-1.5247108999	 0.118465
H	 0.7817663853	-4.3880353914	-1.4564303594	 0.101292
H	 0.222984529	-5.6556691239	-3.5665771721	 0.118702
H	 0.587501403	-4.1480640589	-4.5461052718	 0.138799
H	 2.9258747459	-4.1113351381	-3.685270073	 0.13879
H	 2.6099533395	-5.6180959074	-2.6877638234	 0.118718
40.5905	66.7703	87.5927	105.9714	178.863	234.1603	238.1541	295.4397	301.8028	338.222	496.0036	671.5338	755.7723	763.513	793.659	836.1464	860.5046	891.3505	922.263	924.0359	946.3585	1027.2346	1057.2403	1067.459	1096.1349	1114.2323	1133.2907	1149.1891	1189.5512	1208.2418	1209.8535	1229.6372	1270.0542	1312.7643	1332.8048	1397.5993	1414.8424	1436.9017	1456.2028	1489.8687	1491.7917	1500.3937	1505.1801	1520.741	1800.4034	3033.9802	3035.1388	3044.3295	3063.9046	3086.9317	3105.0031	3111.6137	3143.7355	3145.9516	3197.6164	3231.1049	3245.5858
CCCOC(=O)C1CC1	CCCOC(=O)C1CC1	
InChI=1S/C7H12O2/c1-2-5-9-7(8)6-3-4-6/h6H,2-5H2,1H3	InChI=1S/C7H12O2/c1-2-5-9-7(8)6-3-4-6/h6H,2-5H2,1H3
