17
gdb 30046	2.44223	1.82947	1.05961	1.7673	78.46	-0.2321	-0.0369	0.1952	1105.5818	0.137341	-418.087983	-418.079576	-418.078632	-418.121086	30.611	
C	-0.0087128315	 1.4497486414	 0.0139785765	-0.334621
N	-0.0226677241	-0.0095839862	-0.0188066935	-0.122179
C	-0.1211974909	-0.6958783753	-1.1873158941	 0.107167
N	-0.1404760551	-1.9866987467	-1.293861494	-0.306793
C	-0.0524256166	-2.6842447046	-0.1170646676	-0.063656
C	 0.050444824	-2.1221287426	 1.1196192766	 0.11922
C	 0.1449586556	-2.9069428921	 2.393361033	-0.474478
C	 0.0706370733	-0.6742162788	 1.2291770944	 0.379833
O	 0.1571996557	-0.0252396162	 2.2596788586	-0.403587
H	 0.9157974056	 1.8026791135	 0.475924396	 0.160571
H	-0.0870523847	 1.8302622533	-1.0052160281	 0.132492
H	-0.8429082562	 1.816219195	 0.6160687471	 0.160608
H	-0.1874242324	-0.0841555681	-2.0840316161	 0.129363
H	-0.0701315535	-3.7666179114	-0.2220828741	 0.111202
H	 0.1203706872	-3.9817732118	 2.197397762	 0.118708
H	 1.068308591	-2.6661045664	 2.9309982411	 0.14306
H	-0.6776813573	-2.6512900031	 3.069750862	 0.143091
103.54	120.0726	134.883	225.1927	258.9822	269.5158	334.92	433.339	491.9382	517.9894	592.9805	603.4917	685.2188	799.0102	880.9163	932.6519	960.4223	977.1498	1042.895	1065.9571	1069.5947	1154.8154	1169.5148	1236.2569	1273.5174	1371.6436	1409.5519	1416.9052	1429.8432	1460.7796	1466.5459	1469.1632	1487.1856	1512.1046	1591.6826	1657.3937	1761.6637	3036.903	3061.1512	3090.6474	3123.3425	3132.1357	3153.2269	3156.3269	3162.8894
CN1C=NC=C(C)C1=O	Cn1cncc(C)c1=O	
InChI=1S/C6H8N2O/c1-5-3-7-4-8(2)6(5)9/h3-4H,1-2H3	InChI=1S/C6H8N2O/c1-5-3-7-4-8(2)6(5)9/h3-4H,1-2H3
