19
gdb 56845	3.02834	1.16836	1.00293	1.9482	80.89	-0.239	0.0569	0.2959	1242.984	0.157624	-385.806963	-385.798089	-385.797145	-385.840825	33.548	
C	-0.0060234929	 1.6906782771	 0.2009052496	-0.388551
C	-0.0335813809	 0.1628913119	-0.0082861903	-0.191419
C	 0.7069809888	-0.52688346	 1.0484530903	 0.330205
C	 1.2993864743	-1.0807101678	 1.9360576875	-0.471935
C	-1.4611279106	-0.3725982999	-0.0815590607	-0.017187
C	-2.4181508607	-0.1281048962	-1.2371209013	-0.171991
C	-1.6889463418	-0.2714337938	-2.5685078711	-0.093267
O	-1.1178566316	-1.5463553139	-2.1694175866	-0.28058
C	-1.8712075052	-1.515670119	-0.9525706328	 0.079197
H	 1.0223017927	 2.060445616	 0.228228918	 0.125566
H	-0.5372364953	 2.1935676958	-0.612707017	 0.115464
H	-0.4880849614	 1.9612369454	 1.1451837357	 0.12347
H	 0.454561683	-0.0712603819	-0.9619234475	 0.123778
H	 1.8331731533	-1.5774907628	 2.7077245752	 0.192475
H	-1.9823618575	-0.3699213402	 0.8737565187	 0.100146
H	-3.4096774498	 0.2827712666	-1.1032551763	 0.099702
H	-2.3675311106	-0.4091702654	-3.4174901231	 0.111883
H	-0.9230457056	 0.4692344716	-2.8277750117	 0.107118
H	-2.326605728	-2.4414062837	-0.6200879868	 0.105927
52.2673	123.2552	157.2067	203.3032	220.0711	264.3227	312.2173	468.6869	490.7434	522.0485	611.5155	623.0859	634.8754	755.444	787.6164	811.5864	854.8473	906.8468	961.798	967.7043	985.9234	1018.0949	1047.5956	1054.4639	1071.5052	1090.0568	1116.8703	1137.6701	1164.9567	1198.9544	1260.8206	1280.5338	1316.9189	1330.6119	1363.4822	1403.6692	1439.9063	1489.8725	1498.0476	1516.9354	2234.2247	3024.2164	3039.5881	3041.9692	3071.7267	3113.9184	3120.914	3137.2014	3179.6826	3203.8229	3505.1863
CC(C#C)C1C2COC12	C[C@@H](C#C)[C@H]1[C@H]2CO[C@@H]12	
InChI=1S/C8H10O/c1-3-5(2)7-6-4-9-8(6)7/h1,5-8H,4H2,2H3	InChI=1S/C8H10O/c1-3-5(2)7-6-4-9-8(6)7/h1,5-8H,4H2,2H3/t5-,6+,7-,8+/m0/s1
