15
gdb 18624	3.05612	2.33124	1.8619	4.9829	60.31	-0.2673	0.0155	0.2828	767.4975	0.120101	-399.818294	-399.811506	-399.810562	-399.849252	25.334	
C	-0.0603616326	 1.5432978945	 0.0531047877	-0.429596
C	-0.0036224506	 0.0426274953	-0.105616804	-0.004334
C	 0.7060146162	-0.6594064971	-1.2030910193	-0.062953
C	 1.7457100675	 0.0910518077	-2.0208346227	-0.113823
O	 2.7169348617	 0.527370328	-1.0650251825	-0.230149
C	 2.4161783367	 0.0609629162	 0.188452721	 0.45606
O	 3.084030243	 0.3079845609	 1.1433112887	-0.338362
N	 1.2382037655	-0.7487118543	 0.1687563752	-0.191231
H	 0.7970214185	 2.0534424299	-0.3915905795	 0.148344
H	-0.9695392182	 1.9242157925	-0.4232225316	 0.129583
H	-0.0989487685	 1.8121791074	 1.1130576808	 0.149841
H	-0.8721748575	-0.4727299348	 0.2979654901	 0.113839
H	 0.2958217359	-1.5726912088	-1.6223329199	 0.113542
H	 2.2313597189	-0.5716891803	-2.7437978881	 0.13175
H	 1.3563561835	 0.9657898229	-2.551726476	 0.127488
126.8101	179.9026	207.4452	236.6607	384.2267	505.8796	512.447	686.0975	702.834	761.833	798.4777	821.9913	868.0689	960.627	988.6426	999.7693	1062.7924	1076.0402	1101.2225	1121.3563	1156.7671	1179.3449	1228.0923	1293.9311	1372.6751	1386.9542	1424.4635	1435.0969	1493.4308	1501.4847	1524.8578	1900.4401	3045.0198	3047.2629	3087.9419	3108.9339	3124.3061	3142.1019	3162.2319
CC1C2COC(=O)N12	C[C@H]1[C@H]2COC(=O)N12	
InChI=1S/C5H7NO2/c1-3-4-2-8-5(7)6(3)4/h3-4H,2H2,1H3	InChI=1S/C5H7NO2/c1-3-4-2-8-5(7)6(3)4/h3-4H,2H2,1H3/t3-,4+,6?/m0/s1
