20
gdb 80928	2.8059	1.42269	1.25272	2.3526	80.24	-0.2326	0.0804	0.3129	1116.4763	0.169352	-403.054775	-403.046029	-403.045085	-403.087551	34.045	
C	-0.0896800926	 1.5730773459	 0.0008539814	-0.439892
C	-0.041439185	 0.0567083913	-0.0056987563	 0.004417
C	 1.2224868878	-0.6488157644	-0.5768960652	-0.082661
O	 1.993766521	-0.1803559586	 0.597357295	-0.349413
C	 0.69694596	-0.6791253088	 1.162438233	 0.300701
C	 0.4973566032	-0.620013518	 2.641432311	-0.522835
C	 0.8476281833	-1.8942675261	 0.2293580086	 0.431283
C	 0.1441833685	-3.1555124434	-0.0411199552	-0.347942
N	 1.5399753257	-3.1253272681	 0.4885512556	-0.395973
H	 0.8797908196	 1.9844215231	 0.2884243644	 0.137772
H	-0.3541879589	 1.958573111	-0.9896441522	 0.113444
H	-0.8467637378	 1.9358214972	 0.7047595903	 0.114194
H	-0.9943157859	-0.3969134159	-0.2998353946	 0.069436
H	 1.6911758705	-0.556119188	-1.5577848904	 0.088006
H	 0.5735081892	 0.4096639355	 3.0032387093	 0.133628
H	-0.4924303534	-1.0069433996	 2.9044837926	 0.12608
H	 1.2530876012	-1.2287199472	 3.1460221087	 0.148427
H	-0.5929159671	-3.5481177798	 0.6542895529	 0.121442
H	-0.0129638164	-3.4452929928	-1.0776470854	 0.114258
H	 2.2113053672	-3.3381290734	-0.2452835134	 0.235627
156.0784	174.8624	178.1238	200.0965	217.4993	239.8968	327.8885	349.9473	456.0115	481.2979	608.218	641.7058	724.8011	737.0911	752.4188	802.9257	872.669	887.4426	930.9017	956.4619	970.1408	1023.1944	1039.2278	1061.8913	1095.0068	1107.3267	1116.7884	1140.0426	1191.9922	1199.8607	1229.6174	1245.5185	1249.4824	1323.4997	1387.7138	1401.2539	1410.8002	1461.7132	1477.0826	1486.6099	1494.8253	1505.4496	1537.6362	3034.8244	3040.3696	3051.5147	3091.2689	3102.0095	3109.7337	3112.3422	3120.8573	3135.5002	3185.4896	3499.9424
CC1C2OC1(C)C21CN1	C[C@H]1[C@H]2O[C@]1(C)[C@]12CN1	
InChI=1S/C7H11NO/c1-4-5-7(3-8-7)6(4,2)9-5/h4-5,8H,3H2,1-2H3	InChI=1S/C7H11NO/c1-4-5-7(3-8-7)6(4,2)9-5/h4-5,8H,3H2,1-2H3/t4-,5+,6-,7+/m0/s1
