15
gdb 42799	3.35822	1.27954	1.15258	2.2697	82.53	-0.2316	-0.0352	0.1963	1079.8847	0.112244	-383.450024	-383.442668	-383.441724	-383.481865	28.869	
O	 0.0551646853	 0.0331678756	-0.1645973419	-0.293948
C	 0.0162580693	 1.2123260898	-0.0755268438	 0.423939
C	-1.0787162582	 2.3554204715	 0.0835630402	-0.182292
C	-0.0250747888	 2.9833781483	 1.0526972357	-0.224422
C	 1.0239746958	 2.4273179108	 0.0412676656	-0.240153
C	 0.5939355522	 3.1341266027	-1.246539427	 0.246487
C	-0.7618756016	 3.0798799655	-1.2046609941	-0.19116
C	 1.4612638024	 3.5887450587	-2.254626214	 0.084507
C	 2.2360461348	 3.9789857881	-3.0919775355	-0.357947
H	-2.1122684763	 2.1643183337	 0.3592226041	 0.092112
H	-0.0598749154	 4.0717501946	 1.1422038081	 0.115166
H	 0.0122084419	 2.4970704092	 2.0320939227	 0.11656
H	 2.0830399237	 2.3212226584	 0.2587434416	 0.097213
H	-1.4664981404	 3.3644299439	-1.972059202	 0.123661
H	 2.9079949152	 4.3221975991	-3.8389902096	 0.190277
94.5581	159.4355	189.2997	361.8376	412.9102	497.6084	512.1546	548.0579	571.5113	582.5438	644.1605	648.6015	773.7244	792.7717	821.3667	843.6839	883.259	942.1697	968.2486	994.8105	1028.1205	1068.3775	1111.9565	1158.7707	1170.8574	1213.6421	1236.4708	1251.8506	1295.5209	1481.3348	1601.1511	1922.4485	2221.6577	3055.5631	3128.7911	3163.8636	3169.0335	3244.9976	3502.3429
O=C1C2CC1C(=C2)C#C	O=C1[C@H]2C[C@@H]1C(=C2)C#C	
InChI=1S/C8H6O/c1-2-5-3-6-4-7(5)8(6)9/h1,3,6-7H,4H2	InChI=1S/C8H6O/c1-2-5-3-6-4-7(5)8(6)9/h1,3,6-7H,4H2/t6-,7-/m1/s1
