23
gdb 63645	3.32871	0.91816	0.85861	1.3247	86.98	-0.2443	0.0758	0.3201	1482.1157	0.204668	-388.268324	-388.258624	-388.25768	-388.303036	37.21	
C	 0.006100206	 1.5787070572	-0.2607335	-0.450066
C	-0.0014645256	 0.080190241	-0.0593747571	 0.394708
O	-1.1897557682	-0.5370884671	-0.4971443937	-0.466753
C	 1.2690080724	-0.7275804684	-0.1894034279	-0.368614
C	 0.5791022403	-0.5798123348	 1.160524739	-0.045384
C	 1.2169263135	 0.1657962056	 2.2990305543	 0.041529
C	 0.332072759	 0.6363298347	 3.4923479783	-0.229083
C	 1.4895583173	 0.2550827608	 4.4532355143	-0.210126
C	 2.0809916074	-0.6302933134	 3.3236475968	-0.229987
H	 0.9223458441	 2.0395070781	 0.1166349691	 0.118257
H	-0.065799727	 1.8214587919	-1.3285989097	 0.104604
H	-0.8486184888	 2.0383922006	 0.2459025441	 0.126213
H	-1.2274452842	-0.4502798162	-1.4565917333	 0.276656
H	 1.2017154499	-1.6876436943	-0.6890050756	 0.108005
H	 2.2042131087	-0.1964402613	-0.3408878187	 0.103277
H	 0.0105764903	-1.454750491	 1.4682823103	 0.087954
H	 1.8004501642	 1.0126251948	 1.9213246493	 0.061003
H	-0.0195061992	 1.6712746982	 3.4898805993	 0.092622
H	-0.5327594476	-0.0225224469	 3.621500317	 0.101229
H	 2.1323831486	 1.1125701351	 4.6735251003	 0.098794
H	 1.2287131166	-0.2311722461	 5.3960704687	 0.094621
H	 1.7367410075	-1.6667439044	 3.4034599746	 0.098039
H	 3.164901485	-0.6357197542	 3.1836210706	 0.092501
54.3358	110.3465	115.6365	191.753	208.6541	294.7346	311.7083	339.2273	368.7057	420.843	431.9799	515.3371	634.9562	710.5935	758.2658	785.1496	874.593	891.0557	911.4834	921.8556	933.0289	945.9873	963.0176	986.5943	1027.4287	1042.2236	1052.7931	1078.5697	1096.1407	1130.6438	1200.7458	1207.2693	1225.0376	1254.4818	1255.5491	1259.1305	1277.0704	1286.5518	1292.9199	1323.3794	1371.7633	1412.0615	1431.2777	1477.1762	1478.1696	1485.6952	1487.6956	1506.972	1512.6764	3023.0605	3039.0387	3046.0308	3050.4245	3056.7179	3085.5075	3094.7625	3100.0147	3115.485	3118.1405	3122.9853	3133.8723	3214.3515	3785.3719
CC1(O)CC1C1CCC1	C[C@@]1(O)C[C@H]1C1CCC1	
InChI=1S/C8H14O/c1-8(9)5-7(8)6-3-2-4-6/h6-7,9H,2-5H2,1H3	InChI=1S/C8H14O/c1-8(9)5-7(8)6-3-2-4-6/h6-7,9H,2-5H2,1H3/t7-,8+/m0/s1
