16
gdb 34734	3.36799	1.5847	1.37743	1.0904	81.32	-0.2149	-0.0438	0.1711	956.4443	0.123834	-363.448703	-363.441607	-363.440662	-363.47996	28.668	
C	 0.4100067039	-1.1153117324	-0.0603662977	-0.431227
C	 0.2335877337	 0.073997053	-0.055396098	 0.345377
C	-0.0009568013	 1.5015580456	-0.0562178149	-0.157935
N	-0.298728745	 2.2083113669	 1.2979958231	-0.16269
C	 0.928859888	 2.7960979923	 2.0612292834	-0.013003
C	 2.4043864803	 2.410244806	 1.8393338832	-0.267017
C	 2.3388238868	 2.0339841862	 0.3668357531	-0.112551
C	 1.1774196156	 2.4886163649	-0.1540626824	-0.008158
C	 0.441596398	 3.4067599768	 0.8228903134	-0.076942
H	 0.5617219193	-2.1666349263	-0.060375801	 0.203369
H	-0.8740949585	 1.7456543665	-0.6707538639	 0.120817
H	 0.5803306318	 3.1156558026	 3.0392728807	 0.10495
H	 3.038666505	 3.2550757099	 2.1437954532	 0.119699
H	 2.7419403139	 1.535881233	 2.4067361045	 0.12466
H	 2.7605140904	 1.0878961866	 0.0425826906	 0.112457
H	-0.0308674318	 4.3657354683	 0.6435547026	 0.098194
116.8316	154.993	276.029	372.6965	380.3669	500.0749	531.6412	578.4375	627.3748	665.5067	689.9707	750.7996	766.5194	798.251	847.0405	864.009	899.0058	907.0145	946.4993	982.1856	1014.1513	1042.6179	1062.2814	1083.2257	1145.6948	1177.7997	1209.9489	1242.8209	1271.7974	1314.5846	1361.0395	1361.139	1466.1844	1574.1046	2233.324	3005.3942	3048.5081	3068.8988	3161.4408	3176.994	3177.9841	3501.7656
C#CC1N2C3CC=C1C23	C#C[C@H]1N2[C@H]3C[CH][C]1[C@@H]23	
InChI=1S/C8H7N/c1-2-6-5-3-4-7-8(5)9(6)7/h1,3,6-8H,4H2	InChI=1S/C8H7N/c1-2-6-5-3-4-7-8(5)9(6)7/h1,3,6-8H,4H2/t6-,7+,8-,9?/m1/s1
