16
gdb 24703	3.7165	1.601	1.14528	0.8675	76.94	-0.2288	-0.0496	0.1793	1016.1365	0.129216	-396.976418	-396.96985	-396.968906	-397.007485	25.689	
C	 0.0071286611	 1.5096751209	 0.1989253053	-0.282177
N	 1.2647930664	 1.9561670432	-0.4486565239	-0.307096
C	 2.1832749608	 0.7929602396	-0.5101222204	-0.282177
C	 1.2895359423	-0.4126651172	-0.3461981275	 0.314449
N	 1.6058348726	-1.6875335185	-0.5242058707	-0.328788
C	 0.5999977232	-2.5463897966	-0.2925614567	-0.032261
C	-0.6633667034	-2.1302997933	 0.1190813768	-0.032261
N	-0.9722422042	-0.8384419668	 0.3158066278	-0.328788
C	 0.0191382207	 0.0057411637	 0.0677324158	 0.314449
H	-0.0034663231	 1.7997882055	 1.2594585907	 0.12781
H	-0.8665289225	 1.9744085554	-0.2662857766	 0.126279
H	 1.0476438037	 2.2358352955	-1.3978044632	 0.226887
H	 2.7506114735	 0.7831040271	-1.4448457248	 0.126279
H	 2.9164310371	 0.8381174071	 0.3080781793	 0.12781
H	 0.8126485565	-3.6018776416	-0.4380723522	 0.114792
H	-1.4513242545	-2.8562366041	 0.2996003504	 0.114792
121.7027	171.8187	257.7938	413.329	438.1544	518.4553	536.3511	633.2141	683.2191	773.9779	777.0282	808.9142	874.6857	896.6557	917.1031	982.6885	1003.458	1038.4871	1081.1344	1082.6765	1158.2903	1181.8937	1216.7534	1255.3989	1266.4265	1307.4775	1323.9528	1366.5927	1408.7003	1466.4231	1487.1531	1494.5228	1495.6898	1596.4194	1617.2687	3003.7308	3005.2096	3087.2652	3087.969	3160.5776	3179.4732	3541.3189
C1NCC2=NC=CN=C12	C1NCc2nccnc12	
InChI=1S/C6H7N3/c1-2-9-6-4-7-3-5(6)8-1/h1-2,7H,3-4H2	InChI=1S/C6H7N3/c1-2-9-6-4-7-3-5(6)8-1/h1-2,7H,3-4H2
