15
gdb 75856	3.40803	1.25067	0.94842	3.6187	79.24	-0.2135	-0.0351	0.1784	1167.6861	0.11253	-416.811233	-416.802632	-416.801688	-416.844516	31.958	
N	 0.1592085342	 1.4407247097	-0.167021084	-0.494568
C	-0.0048638827	 0.0040587789	-0.0050242806	-0.249004
C	 0.5968692286	-0.4931231754	 1.3350786687	 0.432888
O	 1.6706066174	-0.2416403038	 1.8175489528	-0.34523
N	-0.3734427256	-1.3156993442	 1.8954805964	-0.326933
C	-1.5477238586	-1.3186082681	 1.1460400948	-0.121906
C	-1.4247793874	-0.5753897126	 0.0288799	 0.108615
C	-2.3800561923	-0.342779619	-0.974359651	 0.235534
C	-3.1497586045	-0.0922261951	-1.8695935739	-0.447825
H	-0.2413692539	 1.7211445806	-1.0577789586	 0.241832
H	-0.3671334572	 1.9327581658	 0.5498556242	 0.232937
H	 0.5658168712	-0.4862574987	-0.8056229663	 0.132392
H	-0.2618409496	-1.7352261335	 2.8038946866	 0.267196
H	-2.4041909188	-1.8804794069	 1.4903705456	 0.141488
H	-3.8413591207	 0.1090593123	-2.6495154047	 0.192585
70.9543	125.9773	169.5269	206.9089	271.815	293.5548	422.0217	448.2916	500.5855	517.1374	535.1231	564.0892	627.4749	657.7045	697.3819	745.4987	813.3081	846.9814	879.8748	944.0454	1082.6278	1122.2591	1160.1895	1196.6883	1221.3086	1259.3079	1333.1403	1393.8687	1408.4273	1661.0864	1668.2985	1855.272	2214.216	3024.2513	3239.7601	3487.2971	3502.5789	3566.8342	3659.4754
NC1C(=O)NC=C1C#C	N[C@H]1C(=O)NC=C1C#C	
InChI=1S/C6H6N2O/c1-2-4-3-8-6(9)5(4)7/h1,3,5H,7H2,(H,8,9)	InChI=1S/C6H6N2O/c1-2-4-3-8-6(9)5(4)7/h1,3,5H,7H2,(H,8,9)/t5-/m1/s1
