15
gdb 84416	2.77257	1.48392	1.11514	4.0033	68.15	-0.2499	-0.04	0.2099	1077.3447	0.111832	-453.993224	-453.984655	-453.983711	-454.027791	29.222	
C	 0.1027314621	 1.4416327318	-0.0950078347	-0.355123
N	 0.0094100027	-0.0037793622	-0.0806198112	-0.10604
C	-0.2055525935	-0.8518225002	-1.1556565425	 0.070707
N	-0.2458354754	-2.1065617178	-0.9036417266	-0.271679
C	-0.0004310849	-2.2142422466	 0.5410340015	-0.218205
C	 1.2400677719	-3.0919576645	 0.7557511193	 0.161803
O	 2.1872473806	-2.793826246	 1.4261788826	-0.215635
C	 0.1345998781	-0.7838551984	 1.0731839152	 0.426208
O	 0.2979823065	-0.3741054925	 2.1931056376	-0.35721
H	 0.951134928	 1.779104056	-0.6984601988	 0.144847
H	-0.8155750542	 1.8939423634	-0.4819594475	 0.142002
H	 0.2508902177	 1.7596542592	 0.9387546445	 0.177251
H	-0.3339813105	-0.4312940036	-2.1484011084	 0.145032
H	-0.8417367226	-2.7229497692	 1.0316482852	 0.14726
H	 1.1786902935	-4.0482503692	 0.1958896138	 0.108782
35.1036	95.1794	108.1654	163.2828	198.1011	280.473	300.7784	453.6442	526.9359	584.76	629.5713	714.8702	790.5295	816.8285	944.6536	950.9037	1001.7329	1045.8971	1053.9187	1113.4518	1155.2899	1210.4068	1247.1019	1294.1334	1317.8204	1394.8885	1412.0059	1457.8292	1495.7737	1507.6852	1668.2531	1823.6618	1868.4765	2922.2035	3029.4825	3038.6303	3101.5675	3144.7193	3189.811
CN1C=NC(C=O)C1=O	CN1C=N[C@@H](C=O)C1=O	
InChI=1S/C5H6N2O2/c1-7-3-6-4(2-8)5(7)9/h2-4H,1H3	InChI=1S/C5H6N2O2/c1-7-3-6-4(2-8)5(7)9/h2-4H,1H3/t4-/m0/s1
