18
gdb 89333	1.90223	1.74486	1.10816	4.1843	78.38	-0.2429	0.0197	0.2625	1141.3087	0.146698	-401.939771	-401.930878	-401.929934	-401.973073	33.539	
C	-0.1101255855	 1.5753296494	 0.064845727	-0.41277
C	 0.0461168505	 0.061417065	 0.0091821007	-0.0331
C	 1.1265283747	-0.5545627942	-0.9467462243	-0.296927
C	 1.7814002509	-1.2621606675	 0.230504482	 0.385531
O	 2.2474730142	-2.5408179368	 0.0735138006	-0.442454
C	 2.2006436469	-0.3071093701	 1.2860985058	-0.402428
C	 0.7107475088	-0.6512167504	 1.205502326	 0.123429
C	 0.0279344765	-1.2378007385	 2.3038912049	 0.17755
N	-0.5340139399	-1.7368032646	 3.186540399	-0.357629
H	 0.8406196518	 2.0783374409	 0.2692987785	 0.116693
H	-0.4875047806	 1.9577018365	-0.8893834056	 0.123451
H	-0.818754377	 1.8660280099	 0.8468671094	 0.132197
H	-0.9236479026	-0.4020680609	-0.1885705437	 0.099362
H	 0.6958932627	-1.2624540957	-1.6567158149	 0.126988
H	 1.7685199846	 0.148821867	-1.4865994227	 0.106432
H	 2.8015720692	-2.7814099603	 0.8233343642	 0.297963
H	 2.695507636	-0.7538302148	 2.1447806138	 0.131821
H	 2.5453174789	 0.6988279052	 1.0550705594	 0.12389
102.8602	138.9612	168.7528	220.6951	229.1747	233.2775	365.5213	395.8254	407.9431	466.1828	538.5787	563.4227	634.6397	678.4359	736.9385	791.1213	841.533	898.6911	937.3624	961.6066	1025.598	1079.1954	1084.3372	1111.7902	1130.6292	1170.109	1177.7786	1235.0864	1252.7795	1307.9147	1364.9224	1397.9641	1412.4939	1417.0081	1477.2633	1495.0815	1496.5844	1509.0826	2331.2011	3034.433	3055.0869	3072.1212	3097.6115	3103.0823	3107.6491	3126.5838	3187.3721	3820.7907
CC1CC2(O)CC12C#N	C[C@H]1C[C@@]2(O)C[C@@]12C#N	
InChI=1S/C7H9NO/c1-5-2-7(9)3-6(5,7)4-8/h5,9H,2-3H2,1H3	InChI=1S/C7H9NO/c1-5-2-7(9)3-6(5,7)4-8/h5,9H,2-3H2,1H3/t5-,6+,7+/m0/s1
