17
gdb 29763	2.94109	1.24461	0.88425	6.514	84.3	-0.227	-0.0025	0.2245	1285.0735	0.136561	-380.936533	-380.927423	-380.926479	-380.971229	32.07	
C	-0.0205834004	 1.4703865314	 0.0085305379	-0.337406
N	-0.0339075421	 0.0204204224	 0.007388405	 0.012112
C	-0.0216752502	-0.7738087804	-1.1207773669	-0.172699
C	 0.0252549627	-2.0927223261	-0.744741062	 0.159634
C	 0.0418416943	-3.2950994713	-1.6352682778	-0.506719
C	 0.0454106544	-2.0921611634	 0.6915251305	 0.075861
C	 0.0098678182	-0.7717735789	 1.1107383705	-0.189519
C	 0.0839295692	-3.2299047142	 1.5313728952	 0.196964
N	 0.1166783328	-4.1749023076	 2.2023654778	-0.362005
H	 0.9670535626	 1.8597786746	-0.2604735187	 0.148572
H	-0.7563926855	 1.8532319769	-0.703541764	 0.148655
H	-0.2813037885	 1.8315241083	 1.0047118919	 0.149672
H	-0.0489877072	-0.3298732626	-2.1035749098	 0.126976
H	 0.9380052319	-3.9033987573	-1.4710131791	 0.141403
H	-0.820709686	-3.9444898959	-1.4495435047	 0.141376
H	 0.0220699476	-3.0023103739	-2.6883898728	 0.121819
H	 0.0131991661	-0.3561359318	 2.1052529169	 0.145304
48.4308	90.2852	129.6296	137.8228	190.5769	257.1492	283.4531	391.2078	521.7332	529.0398	578.0547	616.4836	623.0004	667.9279	736.4661	783.1241	784.2394	1013.1561	1037.5333	1065.0698	1091.5343	1149.3352	1169.2561	1184.0925	1242.7055	1373.747	1389.6658	1421.4894	1438.3414	1462.7109	1480.9458	1485.1301	1493.0483	1516.9752	1570.1624	1603.8839	2337.1377	3033.7642	3040.1678	3086.0848	3106.134	3114.904	3142.7105	3255.9565	3269.2003
CN1C=C(C)C(=C1)C#N	Cn1cc(C)c(c1)C#N	
InChI=1S/C7H8N2/c1-6-4-9(2)5-7(6)3-8/h4-5H,1-2H3	InChI=1S/C7H8N2/c1-6-4-9(2)5-7(6)3-8/h4-5H,1-2H3
