15
gdb 49363	1.69313	1.45365	0.96926	3.0374	74.51	-0.2555	-0.0483	0.2071	1229.8835	0.108984	-420.591334	-420.582302	-420.581358	-420.625805	31.938	
O	 0.0360233422	-0.0752428558	 0.3935462147	-0.254601
C	-0.0047080823	 1.0738478141	 0.0324187531	 0.158664
C	 1.2096807486	 1.9330360952	-0.0430045064	-0.142583
C	 1.4602905204	 2.8893900409	-1.2215151786	-0.142588
C	 0.5032937499	 3.0119510111	-2.3563410001	 0.158592
O	 0.8648083379	 3.0853892693	-3.5036846516	-0.25459
C	 1.1182411069	 3.4390256675	 0.1556305108	-0.230762
C	-0.141651066	 4.0817861563	 0.4092919689	 0.321284
C	-1.1771976369	 4.6447272495	 0.6459477091	-0.432723
H	-0.9613437159	 1.5600392404	-0.2461759885	 0.097871
H	 2.0979942601	 1.4452483132	 0.3433140548	 0.133117
H	 2.4967080949	 2.9665837238	-1.5316160426	 0.13312
H	-0.5705405266	 3.0520135556	-2.0835375201	 0.097904
H	 1.9580835251	 3.8756225567	 0.6885554285	 0.144043
H	-2.0935931484	 5.1405045423	 0.8535657978	 0.213254
68.3515	84.9449	139.9825	140.9573	222.4035	276.2858	320.989	370.2548	449.9287	454.6071	561.2905	604.3691	630.3548	672.9127	786.4597	846.698	916.7939	941.4992	945.6618	1041.0893	1048.3538	1128.6246	1130.5252	1155.2812	1224.9128	1326.0504	1334.5849	1371.9972	1428.2757	1459.788	1814.5508	1823.2517	2239.1976	2921.1404	2940.5641	3149.8936	3177.8316	3187.4162	3500.1908
O=CC1C(C=O)C1C#C	O=C[C@H]1[C@@H](C=O)[C@H]1C#C	
InChI=1S/C7H6O2/c1-2-5-6(3-8)7(5)4-9/h1,3-7H	InChI=1S/C7H6O2/c1-2-5-6(3-8)7(5)4-9/h1,3-7H/t5-,6+,7-
