14
gdb 132462	3.17874	1.36414	0.95451	4.4715	71.16	-0.189	-0.0206	0.1684	1114.3236	0.101979	-478.014374	-478.006952	-478.006008	-478.046125	28.991	
O	-0.1451794049	 1.323690599	 0.0107706341	-0.41777
C	 0.0584966338	-0.01178643	 0.0025537335	 0.509113
C	 1.2601320081	-0.653958949	-0.0075431931	-0.346628
C	 1.242581409	-2.0841273887	-0.0150442831	-0.182652
C	 0.0721829595	-2.7596765435	-0.0121411735	 0.173868
F	 0.0318031916	-4.0990220334	-0.0190245488	-0.084383
C	-1.2235622988	-2.1054813397	-0.0014717986	 0.296174
N	-2.3957485	-2.6249299246	 0.0023116525	-0.574879
N	-1.1078723645	-0.7090650673	 0.00532048	-0.397918
H	 0.7080001694	 1.7700951904	 0.0086059201	 0.314735
H	 2.1892629849	-0.101341383	-0.0097878698	 0.096627
H	 2.1733308388	-2.64038141	-0.0231645503	 0.119504
H	-2.3148272526	-3.6394712262	-0.00351157	 0.221996
H	-1.9808119444	-0.1991696641	 0.012927357	 0.272214
133.3264	173.4834	311.8352	349.7477	351.7959	382.4572	413.3962	454.9785	537.5948	601.8231	609.4166	673.2078	727.8054	742.094	746.6435	775.0034	807.4222	917.2534	1011.9767	1079.9393	1144.339	1206.8167	1262.7174	1282.9052	1307.8735	1375.1029	1432.0927	1551.8192	1628.7018	1670.8071	1715.4529	3196.6241	3222.8387	3519.3389	3608.9211	3835.9974
OC1=CC=C(F)C(=N)N1	OC1=CCC(=C([NH])N1)F	
InChI=1S/C5H5FN2O/c6-3-1-2-4(9)8-5(3)7/h1-2H,(H3,7,8,9)	InChI=1S/C5H6FN2O/c6-3-1-2-4(9)8-5(3)7/h2,7-9H,1H2
