20
gdb 26149	2.55592	1.24296	1.01965	1.5072	82.26	-0.1801	0.0399	0.22	1269.2615	0.170567	-403.183424	-403.173816	-403.172872	-403.218406	35.641	
C	 0.0497823381	 1.5455299937	-0.0323395212	-0.373222
C	 0.013694028	 0.0086317778	 0.0703706767	-0.104535
C	 0.7804567707	-0.4746638068	 1.3148828757	-0.375066
C	-1.3962408329	-0.5191538982	 0.0410375082	 0.211061
C	-1.9977353547	-1.2405414119	-0.9516364971	 0.253676
N	-1.5925292911	-1.6510403232	-2.2187518459	-0.59838
O	-3.2821484693	-1.5391097456	-0.6391660835	-0.175114
C	-3.5260369301	-0.9945513615	 0.5987611553	-0.033454
C	-2.4188852639	-0.3628186111	 1.0494276546	-0.266756
H	 1.0810839718	 1.9152005318	-0.0453155987	 0.104595
H	-0.4523133535	 1.8909747542	-0.9405432249	 0.118301
H	-0.4592110175	 2.0028332684	 0.8232835357	 0.114698
H	 0.5392290413	-0.3872457764	-0.8108224821	 0.055062
H	 0.310927721	-0.102294751	 2.2320055569	 0.115181
H	 0.7961441348	-1.5671513882	 1.3706409986	 0.112382
H	 1.8148484604	-0.1146471533	 1.3023213401	 0.106348
H	-0.5857647606	-1.6925878214	-2.3044314436	 0.252441
H	-2.0009780906	-2.540639067	-2.4797567489	 0.2529
H	-4.5159943054	-1.156233338	 0.9886361795	 0.127571
H	-2.3224326766	 0.1530972875	 1.9927209645	 0.102312
29.0429	114.825	161.4021	175.5307	232.9335	256.679	267.7793	289.7354	393.9642	428.528	512.9829	599.8127	620.2542	664.4437	700.6374	729.0912	775.311	822.9847	882.3541	911.8302	923.4376	958.9483	1014.829	1050.1696	1080.031	1123.6764	1165.2007	1175.3887	1207.8627	1279.5676	1315.9066	1330.6229	1375.5998	1395.7143	1417.5596	1459.085	1485.6055	1489.9471	1501.1333	1509.4748	1567.3603	1626.7923	1680.7526	2990.9186	3026.8419	3031.5391	3092.3089	3098.9739	3107.0009	3110.4236	3246.2478	3293.9657	3533.7532	3633.5281
CC(C)C1=C(N)OC=C1	CC(C)c1c(N)occ1	
InChI=1S/C7H11NO/c1-5(2)6-3-4-9-7(6)8/h3-5H,8H2,1-2H3	InChI=1S/C7H11NO/c1-5(2)6-3-4-9-7(6)8/h3-5H,8H2,1-2H3
