21
gdb 15186	8.51703	0.68602	0.66589	2.4227	76.96	-0.2438	0.0791	0.3229	1748.0204	0.187836	-366.227885	-366.218344	-366.2174	-366.263326	33.25	
C	-0.1587345912	 1.4326145932	 0.0432250671	-0.382844
C	-0.1050372642	-0.0919036382	 0.1668012115	-0.181478
C	 0.862233617	-0.5546260894	 1.2475408194	-0.027557
O	 0.8430538715	-1.9657062344	 1.3026275818	-0.245933
C	 1.7176407216	-2.4999789289	 2.2720758014	-0.078537
C	 1.6594539796	-4.0015214837	 2.2099727553	 0.018074
C	 1.8494941035	-4.7905221456	 3.4523702754	-0.24705
N	 0.5286936734	-4.7255718503	 2.8070102612	-0.304437
H	 0.8226562547	 1.8485442129	-0.2106480221	 0.116029
H	-0.8597841161	 1.7386866337	-0.7384537077	 0.118281
H	-0.4830147788	 1.8986536158	 0.9803498041	 0.115703
H	-1.0993424165	-0.4909742866	 0.3975120141	 0.108078
H	 0.1976742102	-0.5413842339	-0.7857646106	 0.108125
H	 1.883197852	-0.1933670248	 1.0302578311	 0.082008
H	 0.5760458596	-0.1288833567	 2.2259721182	 0.079995
H	 2.7504123646	-2.1527206361	 2.0915612121	 0.089289
H	 1.4337393304	-2.154836265	 3.28345854	 0.074054
H	 1.9933257824	-4.4237844516	 1.2647400316	 0.098555
H	 2.3342133771	-5.7615453994	 3.410823948	 0.120176
H	 2.0087157384	-4.2476283031	 4.3812743308	 0.108715
H	-0.0715125891	-4.0700994979	 3.3027824973	 0.230755
48.4934	64.6592	101.2842	122.7208	157.4436	232.2486	236.5279	319.826	380.5563	450.5675	530.9771	765.8407	805.8561	835.6412	901.6976	910.9756	933.6398	943.1608	1008.1899	1021.5303	1055.6735	1068.254	1123.0004	1152.3905	1154.1691	1161.0776	1189.4327	1218.1974	1251.1428	1268.9935	1277.8431	1312.4556	1315.9422	1332.3434	1370.4531	1413.6824	1422.8817	1463.4444	1492.0671	1500.9962	1501.8728	1509.3894	1513.7789	1531.5161	2928.5284	2943.2733	2962.1378	2964.5997	3031.9935	3040.6521	3072.7314	3100.1136	3105.5926	3108.7248	3136.6829	3190.685	3492.0357
CCCOCC1CN1	CCCOC[C@H]1CN1	
InChI=1S/C6H13NO/c1-2-3-8-5-6-4-7-6/h6-7H,2-5H2,1H3	InChI=1S/C6H13NO/c1-2-3-8-5-6-4-7-6/h6-7H,2-5H2,1H3/t6-/m1/s1
