20
gdb 47907	2.23209	1.61283	1.12386	2.5928	76.01	-0.2589	0.0243	0.2832	1136.1404	0.173433	-440.292469	-440.284207	-440.283263	-440.325588	31.762	
N	-0.0792158311	 1.29792292	-0.6341847027	-0.500897
C	-0.0179248414	 0.1277367299	-0.1517014212	 0.386104
C	-1.2819414561	-0.693529723	-0.0111390298	-0.289144
C	-1.9026639289	-0.6925426116	 1.4027007122	-0.193797
C	-1.1642489983	-1.4504562139	 2.5191365151	-0.228421
C	 0.2153077045	-0.8970698278	 2.9147904569	-0.067558
O	 1.3386911809	-1.5145222941	 2.2868246018	-0.232904
C	 1.3031735028	-1.6359832287	 0.9056182081	 0.020091
O	 1.1924392917	-0.3889431545	 0.2362999215	-0.250365
H	 0.8520215817	 1.7205909693	-0.6400626215	 0.218194
H	-1.9928815817	-0.2226044158	-0.6920529473	 0.138954
H	-1.1352333634	-1.7206465889	-0.3626428041	 0.113632
H	-2.0325594289	 0.3522430836	 1.7108890135	 0.120306
H	-2.9112108504	-1.1124035819	 1.3144980674	 0.104639
H	-1.7984044348	-1.4059618189	 3.4122499928	 0.108877
H	-1.06908061	-2.5170296155	 2.2787441621	 0.109019
H	 0.2467405487	 0.1889415686	 2.7466020072	 0.111675
H	 0.3928460203	-1.0659691413	 3.9798664807	 0.114608
H	 2.2738923312	-2.0447726776	 0.6172149763	 0.124631
H	 0.5080719532	-2.312991048	 0.5725271111	 0.092358
59.8874	140.6373	191.8249	236.0673	261.5562	361.3882	427.3217	453.6656	473.6778	499.0828	590.4047	671.1275	759.8316	781.4034	859.6159	895.7045	911.9623	931.5954	987.939	1001.928	1038.1686	1081.5764	1090.95	1102.5341	1150.3285	1181.965	1204.4009	1250.4923	1271.1358	1307.3982	1324.7508	1340.9997	1369.0394	1380.5836	1391.9394	1418.6447	1450.3368	1477.8311	1481.1236	1489.727	1505.5942	1516.6958	1737.5759	3007.0945	3026.7456	3028.9205	3033.5308	3050.4689	3063.5921	3075.9139	3093.0131	3111.504	3119.894	3457.0848
N=C1CCCCOCO1	[NH][C]1CCCCOCO1	
InChI=1S/C6H11NO2/c7-6-3-1-2-4-8-5-9-6/h7H,1-5H2	InChI=1S/C6H11NO2/c7-6-3-1-2-4-8-5-9-6/h7H,1-5H2
