16
gdb 20839	5.84183	1.30392	1.16514	2.4253	67.52	-0.2745	-0.0172	0.2573	1061.2862	0.131434	-376.103989	-376.095967	-376.095022	-376.137794	27.439	
C	 0.0095643372	 1.5485996353	-0.1635650519	-0.376508
C	-0.0463669708	 0.0419480933	 0.1400409117	-0.27598
C	-1.4406550419	-0.4920801525	 0.1339030976	 0.389434
N	-2.1140270888	-0.8472659166	 1.2260464686	-0.308004
N	-3.2807260476	-1.2236106915	 0.7142195251	 0.154478
C	-4.3825531424	-1.7155425448	 1.5153542016	-0.318027
N	-3.3460732635	-1.1169168346	-0.6062757126	-0.128069
N	-2.1847094446	-0.652632644	-0.9907281898	-0.260899
H	 1.0457329698	 1.8986936878	-0.1778245102	 0.116897
H	-0.4397184748	 1.7628900828	-1.1370649385	 0.140336
H	-0.5336300279	 2.1209420333	 0.5945137137	 0.124234
H	 0.53715229	-0.5030486667	-0.6096122139	 0.126807
H	 0.3970657618	-0.1670806295	 1.1174165631	 0.122954
H	-4.6872916086	-0.952614684	 2.2348572258	 0.160205
H	-5.2027947077	-1.9408265119	 0.8349988079	 0.171772
H	-4.0785122901	-2.6172333065	 2.0513833418	 0.160373
24.2358	97.0962	135.0324	204.2913	228.6137	294.555	400.2124	442.9606	631.9133	700.2708	758.5393	776.6173	803.3176	978.9727	1033.742	1048.309	1078.2006	1088.6399	1109.0724	1152.1454	1250.0574	1275.1147	1317.3633	1348.1384	1404.4854	1414.5902	1429.8997	1450.059	1476.5867	1476.7118	1496.6988	1501.9451	1508.4774	1542.5639	3042.7923	3052.7209	3064.7356	3097.4162	3115.7246	3126.5222	3136.7591	3176.8715
CCC1=NN(C)N=N1	CCc1nn(C)nn1	
InChI=1S/C4H8N4/c1-3-4-5-7-8(2)6-4/h3H2,1-2H3	InChI=1S/C4H8N4/c1-3-4-5-7-8(2)6-4/h3H2,1-2H3
