19
gdb 71621	2.91828	1.72398	1.58971	1.6485	73.39	-0.2389	0.0735	0.3123	927.2521	0.162133	-423.01674	-423.009912	-423.008968	-423.047471	28.942	
O	-0.0696348712	 1.3951139352	-0.021877173	-0.49269
C	 0.0171226442	 0.0062783014	 0.0138807268	 0.407984
C	 0.359694461	-0.8019313391	 1.3043157368	-0.305642
C	-0.4050200478	-1.9198713282	 0.5628863929	-0.051939
C	-1.3161484295	-0.8182481694	-0.0543045605	-0.069685
C	-1.7438646966	-1.3418357871	-1.4211541918	-0.121551
O	-0.7556125454	-2.338922285	-1.7371567968	-0.27196
C	 0.3055854199	-2.1410534129	-0.8026512388	 0.112956
C	 0.9038154709	-0.7224061949	-1.0210938833	-0.308391
H	 0.8172722439	 1.7554770614	-0.1279365322	 0.279733
H	 1.4134689053	-0.9561242833	 1.5571940593	 0.084899
H	-0.1903170328	-0.4375579638	 2.1750369801	 0.103737
H	-0.8097495242	-2.7985885765	 1.0607067118	 0.072326
H	-2.1013692894	-0.4199424696	 0.5872476419	 0.081073
H	-2.7296013165	-1.8204013044	-1.3985897399	 0.103995
H	-1.7620399483	-0.5583102985	-2.1910854928	 0.102505
H	 0.9945001165	-2.9806415065	-0.8928627618	 0.076077
H	 0.7549310416	-0.3914666455	-2.0517324189	 0.108699
H	 1.9675095987	-0.6433973132	-0.7714861697	 0.087874
220.1771	236.7009	247.7257	358.8032	417.3529	456.7256	486.9931	564.6964	632.1793	713.7261	742.3189	804.7411	848.958	872.02	894.3181	917.5794	942.6067	958.1411	978.3708	1009.5564	1014.1511	1048.5619	1069.1144	1095.1038	1109.5084	1132.5407	1168.1506	1186.4228	1205.1658	1226.5335	1238.9988	1259.1119	1277.2037	1306.3699	1323.2704	1343.8154	1371.9899	1392.5188	1488.6396	1512.8922	1524.5837	3008.4845	3042.1646	3048.2732	3053.9738	3106.1871	3114.4884	3119.949	3128.3697	3141.0907	3806.876
OC12CC3C1COC3C2	O[C@@]12C[C@H]3[C@@H]1CO[C@H]3C2	
InChI=1S/C7H10O2/c8-7-1-4-5(7)3-9-6(4)2-7/h4-6,8H,1-3H2	InChI=1S/C7H10O2/c8-7-1-4-5(7)3-9-6(4)2-7/h4-6,8H,1-3H2/t4-,5-,6-,7+/m0/s1
