18
gdb 100858	2.40968	1.12534	0.9917	6.6299	70.76	-0.2412	-0.0285	0.2127	1275.7711	0.144713	-476.251953	-476.241681	-476.240737	-476.288062	35.206	
C	-0.0155193307	 1.5649090319	 0.0025402796	-0.395273
C	 0.1071775104	 0.0358534451	 0.0178890832	-0.008053
C	 0.7272404237	-0.5227365065	-1.2681860936	-0.072081
O	 1.9965499305	 0.0735218702	-1.4703994993	-0.40993
N	 0.7811712858	-0.4725570186	 1.2308934429	-0.105036
C	 2.0894855949	-0.0442086724	 1.5370871767	 0.158648
O	 2.735938523	-0.3988305738	 2.4842708685	-0.272012
C	 0.0762677388	-1.3757184839	 2.0400555732	 0.16212
O	 0.4641717181	-1.902006807	 3.0443580496	-0.266562
H	 0.9527490723	 2.0501297341	-0.1313406131	 0.150471
H	-0.6570731661	 1.8739647451	-0.8282398709	 0.125971
H	-0.462652747	 1.9210658678	 0.9340355083	 0.131621
H	-0.9053399539	-0.3803353712	 0.0595498712	 0.100604
H	 0.8051801822	-1.6157060139	-1.1786442701	 0.104541
H	 0.0454333804	-0.299183206	-2.1040263605	 0.098215
H	 2.4530018892	-0.3964333585	-2.1738475296	 0.299828
H	 2.460308881	 0.661807592	 0.7799100666	 0.117163
H	-0.9367135426	-1.5551079445	 1.6220515572	 0.079763
35.5416	76.8759	134.2672	159.9902	207.9241	224.8747	236.2297	242.8554	280.4753	301.8327	338.4998	462.8372	523.2463	583.2841	693.3781	871.5929	942.4918	953.8316	997.4055	1013.4736	1034.6557	1073.8956	1114.3936	1142.8484	1184.8306	1231.8718	1271.4714	1295.812	1355.4422	1409.6909	1410.616	1453.304	1465.1514	1481.0614	1491.2127	1505.0784	1515.4753	1791.1596	1871.7777	2900.3257	2977.2433	3021.9282	3033.5226	3049.2724	3053.1326	3121.2716	3143.6361	3840.8552
CC(CO)N(C=O)C=O	C[C@@H](CO)N(C=O)C=O	
InChI=1S/C5H9NO3/c1-5(2-7)6(3-8)4-9/h3-5,7H,2H2,1H3	InChI=1S/C5H9NO3/c1-5(2-7)6(3-8)4-9/h3-5,7H,2H2,1H3/t5-/m0/s1
