19
gdb 83509	2.20755	1.83347	1.42426	1.869	75.84	-0.2316	0.004	0.2356	1014.1934	0.1607	-423.025606	-423.01788	-423.016936	-423.057374	31.097	
C	-0.021016922	 1.5179991345	 0.0774078495	-0.518237
C	-0.0855793834	 0.0291830632	 0.0073920145	 0.331872
C	-0.1139267862	-0.7829870109	-1.0632939134	-0.217359
C	-0.0011155243	-2.2164129929	-0.5692625311	-0.132562
C	 1.414825987	-2.3420299944	 0.0540711392	-0.074009
O	 1.3690226217	-1.4654519335	 1.1941194706	-0.277174
C	 0.0329254576	-0.9003567177	 1.2129063166	-0.025915
C	-0.8177570825	-2.1076770783	 0.7562929988	 0.156003
O	-2.1989623865	-1.9143426886	 0.6280906705	-0.449336
H	 0.9237254653	 1.8416257605	 0.531965951	 0.142187
H	-0.0931394869	 1.9732542794	-0.9144940628	 0.12519
H	-0.8242881397	 1.9271255931	 0.702543748	 0.12893
H	-0.0894255492	-0.483094627	-2.1046272735	 0.096124
H	-0.2758699742	-3.0115611434	-1.2611878712	 0.073577
H	 1.6218170685	-3.3655689269	 0.3911493014	 0.101859
H	 2.2109260866	-2.0261180363	-0.6298908966	 0.099133
H	-0.1471998863	-0.4799053753	 2.2015700128	 0.073497
H	-0.6828787065	-2.9673476803	 1.4175099972	 0.093139
H	-2.3207367292	-1.1809213452	 0.0113255585	 0.27308
142.2892	183.3631	256.2787	265.603	314.7836	339.4964	430.5934	450.9565	531.6489	579.8172	613.8012	720.6031	802.8537	841.2448	879.9609	897.8192	910.7348	918.8777	951.2605	979.2974	1004.9565	1020.7057	1063.2374	1065.7781	1131.5684	1150.4662	1198.766	1214.8454	1244.2619	1257.2189	1268.8726	1283.8854	1310.7012	1346.7718	1363.7122	1412.3507	1442.1329	1478.9943	1487.4011	1521.6495	1677.1015	3015.7944	3019.8086	3057.3549	3068.8725	3091.5745	3107.8487	3127.6561	3133.1703	3196.7595	3763.5405
CC1=CC2COC1C2O	CC1=C[C@H]2CO[C@@H]1[C@H]2O	
InChI=1S/C7H10O2/c1-4-2-5-3-9-7(4)6(5)8/h2,5-8H,3H2,1H3	InChI=1S/C7H10O2/c1-4-2-5-3-9-7(4)6(5)8/h2,5-8H,3H2,1H3/t5-,6-,7-/m0/s1
