14
gdb 47950	12.38203	0.43885	0.43698	3.9019	102.76	-0.2515	-0.0862	0.1654	2356.0963	0.099655	-399.473753	-399.464702	-399.463758	-399.509463	30.273	
O	-0.1425853644	 0.0255743241	 0.3696437074	-0.223007
C	-0.020148532	 1.179634922	 0.0237201844	-0.035602
C	 1.2251775975	 1.8949975392	 0.0074710936	 0.219382
C	 2.2647070003	 2.5255574492	-0.0173139042	-0.146088
C	 3.4220180724	 3.2231894095	-0.0437265633	-0.210931
C	 4.4607283423	 3.8517102223	-0.0756486167	 0.364298
C	 5.6829203273	 4.5876257374	-0.0816815919	-0.214471
C	 5.9999283105	 5.4772953175	-1.2482896266	-0.221384
N	 5.6602438689	 6.0689700315	 0.0407478923	-0.294311
H	-0.8886332854	 1.7803467089	-0.3145455513	 0.103792
H	 6.5116031331	 4.1254515361	 0.4481589599	 0.134846
H	 7.0396249074	 5.5801595984	-1.5446337085	 0.139044
H	 5.2787161932	 5.5146801045	-2.0590057058	 0.1355
H	 4.694250849	 6.3890384896	 0.0348936907	 0.248934
37.7474	57.6401	81.3133	129.4726	178.2038	258.4601	305.128	390.8815	516.7502	529.9585	563.8669	611.8132	710.7245	803.0783	842.3001	938.0859	966.579	1005.0445	1015.2218	1110.2546	1125.3247	1170.663	1247.6642	1290.5383	1299.7464	1398.359	1421.5898	1504.7062	1750.5858	2246.1941	2332.9722	2921.3248	3119.5057	3145.1858	3212.4546	3504.0223
O=CC#CC#CC1CN1	O=CC#CC#C[C@H]1CN1	
InChI=1S/C7H5NO/c9-5-3-1-2-4-7-6-8-7/h5,7-8H,6H2	InChI=1S/C7H5NO/c9-5-3-1-2-4-7-6-8-7/h5,7-8H,6H2/t7-/m0/s1
