21
gdb 38517	2.82671	1.89938	1.37669	0.4948	87.44	-0.2253	0.0189	0.2442	997.895	0.186161	-349.932075	-349.925151	-349.924207	-349.962965	29.64	
C	 0.0054261947	 1.5955494169	-0.1187250523	-0.25365
C	 1.5654485595	 1.6090097543	 0.0147213103	-0.01951
C	 2.1276034898	 1.9626681542	 1.4300662139	-0.315934
C	 1.5784032318	 0.6161382048	 1.8582108596	 0.279637
C	 0.7790110363	 0.178252789	 2.8256816772	-0.195228
C	-0.1375510523	-0.9676207293	 2.4607638321	-0.243031
C	-0.9384353931	-0.5902400826	 1.174561063	-0.221079
C	-0.0388494651	 0.0346511375	 0.0819863089	 0.030329
C	 1.4708377311	 0.1039574231	 0.4304178346	-0.118256
H	-0.5150657627	 2.1664509673	 0.6557781259	 0.097132
H	-0.3613291486	 1.9300277691	-1.0919280675	 0.097381
H	 2.1214792599	 1.9600440732	-0.8556115201	 0.063723
H	 3.22320889	 2.0060918707	 1.3980201293	 0.103184
H	 1.7521149539	 2.8536104538	 1.9439090463	 0.097822
H	 0.6512424366	 0.7063743697	 3.7667328678	 0.081989
H	 0.4387214608	-1.8794215694	 2.2580474983	 0.107097
H	-0.8265524558	-1.2110847697	 3.2744786304	 0.094024
H	-1.4431938386	-1.4849802651	 0.7931761076	 0.089741
H	-1.7301186035	 0.1175180497	 1.4474195907	 0.097232
H	-0.2114456813	-0.4579052343	-0.8795001919	 0.064623
H	 2.1599045367	-0.672925863	 0.0927945358	 0.062774
130.6131	249.7881	326.6631	349.3769	387.1632	458.84	504.2327	598.1087	676.9841	725.8032	760.1355	797.7077	837.7018	855.9178	870.9341	882.0128	914.258	929.8243	957.8446	983.8778	1016.6484	1025.9717	1068.9196	1074.4925	1086.8025	1110.4391	1144.3644	1155.1255	1173.2337	1205.3014	1227.4996	1238.1452	1248.5943	1269.938	1279.3215	1299.4936	1325.8486	1331.0458	1347.6369	1361.7983	1471.2498	1479.3738	1486.399	1495.1146	1738.4515	3020.6524	3023.636	3026.977	3048.6495	3054.9109	3068.7109	3077.9463	3082.0154	3085.0573	3094.9579	3111.7592	3161.1284
C1C2CC3=CCCC1C23	C1[C@H]2C[C]3[CH]CC[C@@H]1[C@@H]23	
InChI=1S/C9H12/c1-2-6-4-8-5-7(3-1)9(6)8/h2,7-9H,1,3-5H2	InChI=1S/C9H12/c1-2-6-4-8-5-7(3-1)9(6)8/h2,7-9H,1,3-5H2/t7-,8+,9-/m0/s1
