16
gdb 18495	6.21152	1.16841	1.09741	4.7762	68.07	-0.2376	0.0266	0.2642	1083.8738	0.130962	-379.861482	-379.854076	-379.853132	-379.894362	26.856	
N	-0.0808241874	 1.3223171712	 0.0981898192	-0.44114
C	-0.0657049319	 0.0604962445	 0.0859307124	 0.125276
O	-1.2134393105	-0.6313256002	-0.0441131106	-0.184103
C	-1.1405485351	-2.0397949131	 0.0581114307	 0.162606
C	-1.5767825301	-2.7214758974	 1.4066748601	-0.265414
C	-2.5861415445	-3.5355098605	 0.5899315174	-0.045698
N	-3.5148331783	-2.5358379835	 0.0236939206	-0.313553
C	-2.2330536497	-2.8109631967	-0.6685730458	-0.093078
H	 0.8692666405	 1.6778125883	 0.1819495401	 0.226954
H	 0.8253470552	-0.5803559207	 0.1621996172	 0.079086
H	-0.1480544891	-2.3906675481	-0.248961969	 0.086332
H	-0.7739180256	-3.3010785679	 1.8660497551	 0.104565
H	-2.0297397502	-2.0479504395	 2.1361885356	 0.127876
H	-2.8752791804	-4.5692722807	 0.7248241889	 0.100635
H	-4.2328514247	-3.0410425824	-0.4953101858	 0.232704
H	-2.2189924283	-3.1458303234	-1.698236076	 0.096951
37.2725	105.3133	118.2696	289.2131	358.8537	401.1298	501.4396	638.1118	712.2525	802.5495	819.5059	832.3064	869.4524	901.1852	955.052	998.0957	1015.3783	1029.5299	1043.9034	1062.6395	1097.901	1132.8112	1147.9945	1161.2211	1209.3482	1254.3644	1291.595	1295.7957	1333.2378	1378.4438	1397.9841	1431.797	1469.6374	1746.3947	3003.548	3034.978	3076.94	3140.2729	3190.3269	3208.7846	3473.6659	3516.9644
N=COC1CC2NC12	[NH][CH]O[C@H]1C[C@H]2N[C@@H]12	
InChI=1S/C5H8N2O/c6-2-8-4-1-3-5(4)7-3/h2-7H,1H2	InChI=1S/C5H8N2O/c6-2-8-4-1-3-5(4)7-3/h2-7H,1H2/t3-,4+,5-/m1/s1
