17
gdb 96821	2.86465	1.14594	0.96257	0.8307	78.22	-0.2422	0.0118	0.254	1271.4366	0.13428	-417.954009	-417.944391	-417.943447	-417.988982	34.088	
C	 0.1972474846	 1.3729842828	-0.2182942277	-0.339487
N	 0.3232385024	-0.0776983262	-0.1655142709	-0.332106
C	 0.5847281538	-0.6346353736	 0.9205771698	 0.440985
O	 0.7951462749	-0.0991987976	 2.1877840023	-0.269823
C	 0.842017885	-1.4328318689	 2.8005114895	-0.084725
C	-0.2682186043	-1.6717677646	 3.6982041122	 0.367927
C	-1.1957618265	-1.8825342207	 4.4325399237	-0.455761
C	 0.7508838551	-2.0814911285	 1.3750838968	-0.138599
N	-0.2602935422	-3.0809717446	 1.1530584588	-0.508897
H	 1.0242324641	 1.7852206136	-0.8075738125	 0.129867
H	-0.7285171711	 1.630640598	-0.7430072732	 0.126896
H	 0.1952907449	 1.8558061436	 0.7657218576	 0.129139
H	 1.7992902546	-1.5737526724	 3.3094540084	 0.120873
H	-2.008391076	-2.0656301399	 5.0919074894	 0.209841
H	 1.720802889	-2.4836223076	 1.0683753656	 0.11813
H	-1.1834978305	-2.7001104782	 1.3373124408	 0.240257
H	-0.2458652878	-3.3742075852	 0.1816442495	 0.245482
61.5846	81.5578	133.5368	149.279	191.5651	212.7564	253.2097	293.869	376.4252	494.9343	520.7146	609.5953	638.7511	676.7359	679.4216	758.3811	808.2871	849.1072	914.7993	947.6125	1036.8323	1057.1139	1106.9802	1130.9977	1152.4388	1174.103	1219.3069	1248.8534	1269.2937	1357.6809	1423.2264	1439.8517	1492.5974	1498.4706	1658.7276	1849.6294	2239.0581	3018.6039	3069.7871	3081.2204	3083.2808	3092.1508	3501.3935	3503.8073	3584.7413
CN=C1OC(C#C)C1N	CN=C1O[C@@H](C#C)[C@H]1N	
InChI=1S/C6H8N2O/c1-3-4-5(7)6(8-2)9-4/h1,4-5H,7H2,2H3	InChI=1S/C6H8N2O/c1-3-4-5(7)6(8-2)9-4/h1,4-5H,7H2,2H3/t4-,5+/m0/s1
