15
gdb 22089	4.25909	0.7775	0.73239	3.2992	71.12	-0.2626	-0.0914	0.1712	1498.9778	0.108848	-453.924711	-453.914842	-453.913898	-453.961131	33.372	
C	-0.04921486	 1.5494776378	-0.0472896761	-0.488406
C	 0.0246799738	 0.0496495553	-0.050097823	 0.36475
C	 0.1270386897	-0.697047078	 1.2542806732	-0.39188
C	 1.40805743	-0.4217114653	 2.0188886249	 0.296628
O	 2.3045735803	 0.2962182656	 1.659349505	-0.256822
C	 1.5002128817	-1.1334488825	 3.3149880969	 0.226965
N	 1.5581641421	-1.6940573504	 4.3246107329	-0.289785
N	 0.0007776197	-0.7012878658	-1.0846762962	-0.152346
O	-0.0905950888	 0.0254651477	-2.27215007	-0.389505
H	 0.9600016191	 1.972892059	-0.0132593083	 0.167793
H	-0.5456899356	 1.9120021097	-0.9475199484	 0.156291
H	-0.5850301786	 1.9093959775	 0.8362330289	 0.123777
H	-0.7103533114	-0.4535485377	 1.9249980744	 0.152807
H	 0.0697057588	-1.7767359714	 1.0717879875	 0.167946
H	-0.1361641009	-0.6713625914	-2.9356677818	 0.311787
40.2119	51.8189	68.2713	120.1619	182.5635	267.755	303.5419	325.1011	353.5394	402.4244	427.0437	526.7833	580.5588	602.3732	666.5362	822.7614	834.5198	920.6235	998.732	1035.0181	1060.4949	1082.3656	1199.2248	1271.2752	1346.9976	1399.4051	1403.402	1429.1469	1480.8461	1486.6292	1733.2799	1802.7025	2337.4168	3013.2141	3048.224	3074.1358	3106.7484	3153.893	3818.8612
CC(CC(=O)C#N)=NO	CC(=NO)CC(=O)C#N	
InChI=1S/C5H6N2O2/c1-4(7-9)2-5(8)3-6/h9H,2H2,1H3	InChI=1S/C5H6N2O2/c1-4(7-9)2-5(8)3-6/h9H,2H2,1H3
