16
gdb 31881	3.68751	1.02096	0.83837	5.1526	82.2	-0.2389	-0.0404	0.1984	1350.0166	0.124934	-400.80447	-400.796173	-400.795229	-400.838142	29.979	
C	 0.2908752848	 1.5324094109	-0.0929675856	-0.37648
C	-0.0284259729	 0.0393871842	 0.1006988191	-0.303738
C	 0.5601587429	-0.5332722605	 1.3432700119	 0.359898
C	 0.0209040327	-1.0686766429	 2.4794014202	-0.251015
C	 1.1104512903	-1.4344417511	 3.3188612214	-0.256346
C	 2.2446449701	-1.0950027289	 2.6357268385	 0.247564
O	 1.9164526848	-0.5433055599	 1.4270036928	-0.202389
C	 3.612245442	-1.2168812721	 2.9559533866	 0.217995
N	 4.7310618025	-1.3260609339	 3.238374032	-0.339688
H	 1.3707928557	 1.6957828131	-0.1360716789	 0.140596
H	-0.1480952146	 1.8977317627	-1.0254562553	 0.122185
H	-0.1097003943	 2.128831425	 0.7319395572	 0.126935
H	-1.1108014058	-0.1161038388	 0.1417928074	 0.121548
H	 0.339797461	-0.5263103307	-0.764446164	 0.130022
H	-1.0306277501	-1.1877308572	 2.6876367134	 0.124455
H	 1.072645741	-1.88812786	 4.2962952834	 0.138459
54.2192	116.4651	145.1318	189.8511	220.382	330.0409	394.1167	501.3079	546.1286	574.9412	649.0003	671.9612	716.0541	788.5129	812.4024	869.0928	951.7002	980.9386	1006.3272	1042.4612	1077.716	1090.1191	1218.6195	1234.5035	1255.8192	1294.9911	1351.6309	1399.3204	1412.49	1474.6035	1496.9008	1505.3611	1553.9251	1626.2008	2339.4315	3032.1652	3046.6423	3086.125	3119.7675	3128.291	3259.5593	3274.5895
CCC1=CC=C(O1)C#N	CCc1ccc(o1)C#N	
InChI=1S/C7H7NO/c1-2-6-3-4-7(5-8)9-6/h3-4H,2H2,1H3	InChI=1S/C7H7NO/c1-2-6-3-4-7(5-8)9-6/h3-4H,2H2,1H3
