18
gdb 90686	3.58142	1.14205	1.0761	6.6135	72.17	-0.241	0.0238	0.2648	1179.5744	0.148572	-439.080647	-439.072719	-439.071775	-439.113233	30.594	
C	-0.0747672733	 1.5341387184	 0.3076126329	-0.411107
C	-0.0635105169	 0.0165336644	 0.2541959459	 0.040872
N	 0.760815756	-0.5454204416	-0.8857290169	-0.38457
H	-0.0578415258	-2.0674279834	-1.0984400896	 0.319693
H	 1.1063226717	 0.1867740187	-1.4965480991	 0.23498
C	 1.7812555618	-1.0047166161	 0.0944151628	-0.040098
C	 0.8944151055	-0.6333684333	 1.2610556575	-0.10172
C	 1.1787104738	-2.0982851092	 0.9317351598	-0.16812
C	 0.1673518234	-3.1265414215	 0.4715206491	 0.413509
O	-0.0727617941	-4.1013908514	 1.1358910813	-0.346865
O	-0.4322879285	-2.8995107664	-0.7046909297	-0.388709
H	 0.9436977561	 1.9362716056	 0.3446124796	 0.122358
H	-0.5842876668	 1.9500472843	-0.5681701126	 0.127975
H	-0.6079475109	 1.8803998786	 1.1990510363	 0.134232
H	-1.0862938185	-0.3742173773	 0.239476458	 0.104965
H	 2.843503628	-0.8971447875	-0.0875700055	 0.110166
H	 1.1337590272	-0.2302527932	 2.2367554881	 0.108123
H	 1.8673668514	-2.5326283092	 1.6487404721	 0.124318
88.2862	131.2098	218.1342	258.0886	274.8455	329.2241	396.1832	481.063	508.5809	691.9125	744.9326	767.8099	790.5529	811.0393	824.6755	895.4394	913.488	940.4003	966.3151	986.8647	1012.038	1038.8993	1064.8919	1086.0097	1107.2167	1119.4832	1150.9073	1255.5704	1274.1968	1285.9919	1312.4234	1336.9044	1386.1735	1409.4995	1425.5332	1491.9527	1494.0819	1498.6262	1847.7505	3029.2598	3054.5787	3102.7617	3105.2005	3177.1554	3185.8313	3199.4604	3207.5624	3536.6117
CC1[NH2+]C2C1C2C([O-])=O	C[C@H]1N[C@H]2[C@@H]1[C@H]2C(=O)O	
InChI=1S/C6H9NO2/c1-2-3-4(6(8)9)5(3)7-2/h2-5,7H,1H3,(H,8,9)	InChI=1S/C6H9NO2/c1-2-3-4(6(8)9)5(3)7-2/h2-5,7H,1H3,(H,8,9)/t2-,3+,4-,5+/m1/s1
