15
gdb 15595	3.56793	1.86069	1.43585	3.8996	61.07	-0.276	0.0087	0.2847	862.2842	0.119668	-399.808868	-399.801464	-399.80052	-399.840878	26.982	
O	-0.3364316686	 1.4627226029	-0.2180370109	-0.426871
C	-0.0405172847	 0.0940661123	-0.0495512793	 0.082301
C	-1.3733927022	-0.6566213568	-0.0303383853	-0.235499
C	-1.676781749	-0.7780608756	-1.5234032777	-0.072037
O	-0.4068680138	-1.0374907346	-2.1414078663	-0.266304
C	 0.6306197301	-0.5443859083	-1.3085306725	-0.016491
C	 1.4649330368	 0.4373916219	-2.0179952173	 0.261734
N	 2.1348055717	 1.2366526064	-2.5162726829	-0.324708
H	 0.4736583439	 1.9391261257	-0.4362632861	 0.302027
H	 0.574573426	-0.0812404341	 0.8425351505	 0.085211
H	-1.2457938992	-1.6447415591	 0.4217214986	 0.114072
H	-2.1277079557	-0.1002434201	 0.5282000314	 0.129422
H	-2.3389342056	-1.6094672015	-1.7762949205	 0.118317
H	-2.1029573173	 0.1536232011	-1.9144497614	 0.123085
H	 1.2778081977	-1.3802370702	-1.0080147404	 0.125741
63.7842	147.7652	202.1732	241.3811	355.2587	384.327	413.8931	523.0713	569.2676	654.2494	799.7589	823.9843	875.4092	921.4342	934.0766	990.2662	1020.8253	1025.6456	1099.9347	1138.2326	1203.6937	1221.6515	1260.2998	1289.9376	1333.0201	1350.7332	1358.9857	1385.7354	1418.6454	1477.1016	1519.3472	2354.2872	3008.761	3025.3425	3036.7856	3068.3493	3105.7776	3135.4132	3789.4732
OC1CCOC1C#N	O[C@H]1CCO[C@H]1C#N	
InChI=1S/C5H7NO2/c6-3-5-4(7)1-2-8-5/h4-5,7H,1-2H2	InChI=1S/C5H7NO2/c6-3-5-4(7)1-2-8-5/h4-5,7H,1-2H2/t4-,5-/m0/s1
