16
gdb 84392	2.20574	1.76698	1.15193	3.1681	69.27	-0.2797	-0.0164	0.2634	1047.4478	0.124569	-437.900001	-437.891709	-437.890765	-437.932938	31.239	
O	 0.1298307008	 1.4257750567	-0.1046941643	-0.419416
C	 0.0463437926	 0.0249766815	-0.0098941338	 0.093901
C	 0.6910391496	-0.5881106313	 1.2129716007	-0.111299
C	-0.0203803721	-1.592809624	 1.7173604393	-0.111309
C	-1.2873873469	-1.8585516441	 0.9357175778	 0.093904
O	-2.421482094	-2.1771602334	 1.7041885253	-0.419413
C	-1.4139381752	-0.563224466	 0.0480970658	-0.258089
C	-2.2947476932	 0.3931904998	 0.7106788761	 0.278266
N	-2.9550011733	 1.149113986	 1.2857080486	-0.333078
H	-0.3002836901	 1.8124630977	 0.6684109647	 0.295014
H	 0.5302081917	-0.3409212326	-0.9233314294	 0.114429
H	 1.6536419804	-0.237457339	 1.5672108292	 0.117815
H	 0.2521347059	-2.2167373685	 2.5608640111	 0.117814
H	-1.1551427063	-2.7210008649	 0.2715877384	 0.114435
H	-2.6041527317	-1.4415995908	 2.3023496903	 0.295013
H	-1.814441978	-0.7782472171	-0.9450878498	 0.132015
71.2904	142.6064	175.1732	233.616	316.1504	370.7599	407.2588	415.5325	439.7623	466.4579	552.0319	649.2858	686.6734	800.8339	802.5407	836.2104	845.2664	981.2387	984.9673	1030.4866	1049.5853	1102.5724	1124.9342	1157.351	1166.1681	1259.9708	1274.2388	1290.6226	1294.4917	1344.7779	1359.9468	1431.0988	1440.4595	1681.5236	2347.6859	3040.6663	3041.7708	3095.684	3193.0932	3216.8378	3778.3993	3779.5155
OC1C=CC(O)C1C#N	O[C@H]1C=C[C@@H](O)[C@H]1C#N	
InChI=1S/C6H7NO2/c7-3-4-5(8)1-2-6(4)9/h1-2,4-6,8-9H	InChI=1S/C6H7NO2/c7-3-4-5(8)1-2-6(4)9/h1-2,4-6,8-9H/t4-,5-,6+
