18
gdb 66109	2.67874	1.50491	1.35545	2.6809	77.22	-0.2435	0.0405	0.284	1038.2653	0.146934	-401.890771	-401.882448	-401.881504	-401.92327	32.543	
C	 0.0870930563	 1.5108949816	-0.0178475315	-0.431969
C	 0.0114476689	-0.0160721379	 0.0175236854	 0.19442
O	 0.7490037097	-0.5026717778	-1.1170358488	-0.281123
C	 1.3589158782	-1.7529069825	-0.8080580498	-0.089792
C	 1.5620727472	-1.7425823593	 0.6917848446	-0.045738
N	 2.1775903174	-0.4825794422	 1.1617956334	-0.342205
C	 0.7151522421	-0.654876501	 1.2199614298	-0.090443
C	-1.3819605441	-0.49101923	-0.0254462034	 0.337026
C	-2.5172984846	-0.8852322246	-0.0553959688	-0.485362
H	 1.1320079096	 1.8111345213	 0.0808251859	 0.142312
H	-0.3090464407	 1.8811791538	-0.9660469535	 0.133147
H	-0.4997735745	 1.9427938264	 0.7974337534	 0.117255
H	 0.7116682551	-2.597582685	-1.0896480654	 0.100277
H	 2.2890176933	-1.8091129929	-1.3818918438	 0.115571
H	 1.7301745653	-2.6687502808	 1.2301996146	 0.095919
H	 2.5623710653	-0.6246407469	 2.0927773805	 0.233439
H	 0.1970673924	-0.7097870498	 2.1701955796	 0.100872
H	-3.5216306166	-1.2287804524	-0.0927813324	 0.196395
107.5085	142.4315	202.7037	236.4599	258.3486	342.8795	392.0413	453.2629	479.7144	547.3506	626.2122	632.0808	659.7111	723.3884	783.5317	824.53	870.8445	882.7951	902.3425	924.4416	979.0611	1024.1282	1068.3441	1091.4386	1109.8375	1152.8727	1155.9737	1188.4673	1209.1928	1234.631	1259.9216	1349.6531	1384.9125	1396.3109	1427.8255	1483.0522	1490.9747	1503.5706	2228.9982	2991.9425	3052.7939	3080.3944	3129.7097	3146.4853	3174.5305	3187.8797	3499.8237	3501.3178
CC1(OCC2NC12)C#C	C[C@]1(OC[C@H]2N[C@@H]12)C#C	
InChI=1S/C7H9NO/c1-3-7(2)6-5(8-6)4-9-7/h1,5-6,8H,4H2,2H3	InChI=1S/C7H9NO/c1-3-7(2)6-5(8-6)4-9-7/h1,5-6,8H,4H2,2H3/t5-,6-,7+/m1/s1
