18
gdb 38594	3.2066	2.20648	1.87916	0.7121	73.22	-0.2036	0.0909	0.2945	805.063	0.152459	-401.906388	-401.900917	-401.899973	-401.935826	24.648	
C	-0.0526963019	 1.5731962847	-0.0417368584	-0.241102
C	 1.4900904489	 1.404181579	 0.0186099339	-0.08839
C	 1.2448209088	 0.1589943104	 0.9129679213	 0.118622
O	 2.2823528705	-0.7719262211	 0.7170435832	-0.270946
C	 2.4947913634	-0.7888281025	-0.6951052606	 0.070436
C	 1.3318925206	-1.5367117998	-1.3561220233	-0.183867
N	 0.5200605813	-0.270683729	-1.3567199211	-0.132146
C	-0.0347848459	 0.0272165637	-0.0084101767	-0.052071
C	 1.814701152	 0.5353168244	-1.2010505804	-0.027492
H	-0.4521719217	 2.0214128024	 0.8704409872	 0.102949
H	-0.495050273	 2.0307259018	-0.9276092428	 0.111672
H	 2.1807897407	 2.1994049168	 0.2938605735	 0.07229
H	 1.0677873691	 0.3126409255	 1.9764157007	 0.087307
H	 3.5358712663	-1.047676704	-0.9013592498	 0.074306
H	 1.5212972792	-1.8491250351	-2.387814314	 0.103779
H	 0.9107122418	-2.369591826	-0.7856349198	 0.106775
H	-0.9053922833	-0.5776339401	 0.2447812031	 0.069787
H	 2.1746878232	 0.9988986288	-2.1183589162	 0.078091
327.0942	391.1835	424.8522	480.5767	619.2841	654.3739	684.9239	787.0563	801.2576	827.3316	840.3133	861.6813	893.883	913.9815	935.0161	956.5965	959.9708	991.3248	1019.7149	1036.0732	1053.3283	1061.023	1107.2411	1114.5898	1125.883	1179.6119	1184.9883	1212.3542	1222.013	1233.9652	1242.8722	1258.0086	1287.6016	1292.3827	1311.2556	1312.2226	1376.7826	1487.1029	1492.6954	3043.5658	3075.9693	3083.1327	3102.9689	3118.7762	3122.9167	3130.9659	3139.2468	3141.6559
C1C2C3OC4CN(C13)C24	C1[C@H]2[C@@H]3O[C@H]4CN([C@H]13)[C@@H]24	
InChI=1S/C7H9NO/c1-3-6-5-2-8(6)4(1)7(3)9-5/h3-7H,1-2H2	InChI=1S/C7H9NO/c1-3-6-5-2-8(6)4(1)7(3)9-5/h3-7H,1-2H2/t3-,4-,5+,6+,7+/m1/s1
