17
gdb 14690	6.41357	0.64251	0.61124	4.102	77.84	-0.2665	0.022	0.2885	1813.3243	0.140616	-326.720699	-326.711211	-326.710267	-326.75778	31.92	
C	 0.2043222636	 1.5237710556	 0.1454067848	-0.382787
C	 0.3288971907	 0.0022533153	 0.0492717034	-0.157541
C	 0.215150361	-0.5018721592	-1.40429542	-0.336586
C	 0.3343788841	-1.950221669	-1.5229523368	 0.056787
C	 0.4391412658	-3.1463890693	-1.5924721117	 0.114257
C	 0.5612924931	-4.5987167827	-1.6905333393	-0.473225
C	 1.9556007034	-5.0633582299	-1.6766438147	 0.278779
N	 3.0465881078	-5.4411400908	-1.6663053401	-0.30265
H	 0.9899722979	 2.0242480654	-0.4313804065	 0.118945
H	-0.7612423298	 1.8694092273	-0.2404009465	 0.11692
H	 0.2878357295	 1.8604322201	 1.1828307793	 0.118455
H	 1.2890050851	-0.3255420301	 0.4625251585	 0.115324
H	-0.4482919082	-0.4795590658	 0.6528853806	 0.109725
H	-0.7453142493	-0.1799937962	-1.8286190591	 0.130117
H	 0.9904533065	-0.0241470117	-2.0179254844	 0.134336
H	 0.0321096884	-5.089119249	-0.8630578289	 0.179321
H	 0.0903557706	-4.96542513	-2.6119627087	 0.179825
7.2885	63.0364	94.0838	114.8993	240.6404	258.4639	270.9483	327.5936	374.5885	395.7916	473.2409	580.7347	742.6871	795.4079	871.7566	893.0324	929.7481	936.6598	1042.1902	1108.4206	1122.3333	1164.7204	1234.7569	1259.0072	1306.4123	1322.6916	1337.7817	1381.7904	1413.8247	1448.7954	1470.8381	1491.8775	1499.0634	1508.7189	2369.4981	2380.7322	3013.9961	3022.7487	3030.6924	3041.5547	3043.278	3051.8358	3075.4143	3101.6907	3108.0194
CCCC#CCC#N	CCCC#CCC#N	
InChI=1S/C7H9N/c1-2-3-4-5-6-7-8/h2-3,6H2,1H3	InChI=1S/C7H9N/c1-2-3-4-5-6-7-8/h2-3,6H2,1H3
