18
gdb 15992	3.36377	1.65871	1.26083	2.1493	68.73	-0.2536	0.067	0.3206	1004.0934	0.152539	-384.895259	-384.887153	-384.886209	-384.928021	29.657	
C	 0.1737231855	 1.5258357306	-0.2148756358	-0.238491
O	-0.3280480169	 0.2333567745	-0.478776649	-0.244414
C	 0.5764442841	-0.5921213891	-1.1533138658	 0.072608
C	 1.7025245785	-1.3260253687	-0.3524731557	-0.262417
C	 1.3624527186	-2.6310844558	-1.1351989569	-0.325668
C	 0.0394436185	-1.9694345985	-1.5268824728	 0.422008
C	-1.3287051274	-2.4508475974	-1.3481762078	-0.253962
O	-0.7547226284	-2.2652543224	-2.6542701565	-0.277787
H	 1.0508654972	 1.4994564236	 0.4485910169	 0.109185
H	 0.4576590038	 2.0461041224	-1.1427167266	 0.108734
H	-0.6224349183	 2.0889461236	 0.2775833114	 0.128965
H	 0.9903962352	-0.0805504261	-2.0374888772	 0.074026
H	 2.7190409868	-0.9403587642	-0.4409567472	 0.102554
H	 1.4281321818	-1.4003790819	 0.7026181314	 0.114139
H	 2.0110682334	-2.7784879455	-2.003303437	 0.117467
H	 1.3114575954	-3.5625646268	-0.5684520122	 0.111083
H	-1.5012024261	-3.4868713132	-1.0591015728	 0.11194
H	-2.1102380914	-1.7436072051	-1.0799344563	 0.13003
81.1536	111.0178	158.4574	194.5276	283.9435	306.8692	358.2929	455.1003	519.1017	560.4604	737.2219	794.9581	857.1936	893.8601	900.015	947.972	963.2146	1040.5914	1088.6671	1108.7238	1130.0272	1150.4166	1161.4776	1169.2106	1183.534	1209.0634	1224.1121	1245.9348	1267.0584	1283.8286	1390.8443	1436.3666	1475.1675	1481.2799	1487.852	1495.9169	1508.8984	1534.773	2972.5248	2980.7539	3027.2762	3065.2849	3072.8	3087.6795	3117.2734	3117.5692	3135.7082	3183.0359
COC1CCC11CO1	CO[C@H]1CC[C@]21CO2	
InChI=1S/C6H10O2/c1-7-5-2-3-6(5)4-8-6/h5H,2-4H2,1H3	InChI=1S/C6H10O2/c1-7-5-2-3-6(5)4-8-6/h5H,2-4H2,1H3/t5-,6+/m0/s1
