16
gdb 73876	2.23326	1.66581	0.96554	5.2816	74.49	-0.2434	-0.0733	0.1701	1158.6681	0.123552	-437.956133	-437.947283	-437.946339	-437.990132	31.115	
C	 0.3169604595	 1.3790968127	-0.1741216828	-0.507225
C	 0.1333216149	-0.0983762801	-0.1271630109	 0.192965
C	-0.050022163	-0.9699285735	-1.1408518341	 0.00639
C	-0.1228901748	-0.7205052293	-2.5894312948	 0.081059
O	-0.0238469032	 0.3672450942	-3.1182782944	-0.279996
C	-0.1865190292	-2.3590077206	-0.5965635315	 0.379735
O	-0.361451412	-3.3895116307	-1.2127279364	-0.380019
N	-0.0706736503	-2.2219086184	 0.7676468438	-0.355485
C	 0.13187517	-0.8557834144	 1.1822858918	-0.24011
H	 1.2735146075	 1.6605926987	 0.2839766799	 0.140561
H	 0.2886474812	 1.739599561	-1.2011615463	 0.182447
H	-0.4654938246	 1.8807747853	 0.4091141154	 0.140573
H	-0.2818683304	-1.6403667269	-3.1855686893	 0.112521
H	-0.1258444707	-3.0093166685	 1.3905810744	 0.258521
H	 1.0822116957	-0.7104426382	 1.7173172024	 0.134033
H	-0.6677542407	-0.4891726313	 1.8431565029	 0.134031
85.3898	95.0183	130.8723	183.7919	198.354	251.0398	296.6514	405.176	416.1552	502.8177	523.371	641.1417	690.2103	767.6709	796.4351	936.4603	936.8067	1051.5132	1062.3805	1078.4859	1084.3109	1147.878	1193.0163	1195.8433	1333.4333	1339.421	1403.4673	1423.2942	1432.059	1465.1393	1493.1786	1493.1936	1675.3687	1784.1852	1820.1428	2950.4425	2993.9427	3016.1928	3025.41	3070.9318	3169.0692	3673.4426
CC1=C(C=O)C(=O)NC1	CC1=C(C=O)C(=O)NC1	
InChI=1S/C6H7NO2/c1-4-2-7-6(9)5(4)3-8/h3H,2H2,1H3,(H,7,9)	InChI=1S/C6H7NO2/c1-4-2-7-6(9)5(4)3-8/h3H,2H2,1H3,(H,7,9)
