19
gdb 57096	3.08455	1.17832	0.90184	1.6086	77.79	-0.2478	0.0563	0.3041	1300.0921	0.157818	-422.994232	-422.984875	-422.983931	-423.029497	33.781	
C	-0.1416151585	 1.4845483854	 0.004101381	-0.39781
C	 0.0291004484	-0.0474018882	 0.0016652304	-0.184446
C	 0.6931890626	-0.5065463048	-1.2151251836	 0.331395
C	 1.2532384484	-0.8481159116	-2.2220013593	-0.472602
C	 0.8069897614	-0.5158321479	 1.2442869424	 0.231631
O	 0.1305811238	-0.0789609242	 2.4022833698	-0.259508
C	 0.3486428056	-1.0767898464	 3.3892384424	-0.100861
C	 0.348428507	-2.3586168687	 2.5565126028	-0.089529
O	 0.884448526	-1.9321923131	 1.3088462346	-0.26775
H	 0.8330534452	 1.9812868851	-0.0268086149	 0.125225
H	-0.7094608558	 1.8036041331	-0.8728967529	 0.126227
H	-0.6677443701	 1.8015674793	 0.9066716491	 0.135495
H	-0.959461866	-0.5192108779	 0.0703145297	 0.109157
H	 1.7410294265	-1.1687389904	-3.1088344606	 0.193846
H	 1.8347411875	-0.1141828603	 1.2198334878	 0.079398
H	 1.3145846082	-0.9264758509	 3.8941223728	 0.103215
H	-0.4557855685	-1.0181196088	 4.1253067363	 0.119721
H	 0.9831021428	-3.1483619252	 2.9693584583	 0.112806
H	-0.6691630845	-2.7511964544	 2.4246648137	 0.104391
31.3379	68.5558	123.1195	205.8223	220.6385	234.5707	246.3158	382.8804	412.0588	496.6779	557.3589	629.1689	643.3896	660.9249	745.2234	853.5154	902.358	913.0557	953.5045	984.841	1013.8112	1068.5115	1079.2868	1094.4738	1142.9471	1151.249	1176.3443	1227.1047	1247.7839	1287.7981	1313.7908	1335.5048	1383.4779	1389.5505	1397.8398	1420.346	1494.9011	1498.2049	1513.0589	1526.8302	2238.7798	2955.0172	2996.0553	3011.1195	3031.4315	3049.4594	3083.4074	3112.461	3121.2731	3140.8009	3506.0789
CC(C#C)C1OCCO1	C[C@@H](C#C)C1OCCO1	
InChI=1S/C7H10O2/c1-3-6(2)7-8-4-5-9-7/h1,6-7H,4-5H2,2H3	InChI=1S/C7H10O2/c1-3-6(2)7-8-4-5-9-7/h1,6-7H,4-5H2,2H3/t6-/m0/s1
