16
gdb 22701	2.39053	1.44928	1.04687	3.3649	74.7	-0.2445	-0.0374	0.207	1140.3913	0.122877	-437.784088	-437.775821	-437.774877	-437.817641	30.334	
O	-0.1499258631	 1.3871633771	 0.0073563299	-0.400229
N	 0.0426882172	-0.016708094	 0.0002176729	-0.314974
C	-1.0614326764	-0.6192427482	 0.0071463175	 0.465888
C	-2.5712710745	-0.4235925773	 0.0206235428	-0.136419
C	-2.6108429291	-1.562731684	-1.055897112	-0.265763
C	-1.5503103422	-2.0559853666	 0.0056244317	 0.145579
C	-2.5927846851	-1.5711649312	 1.0886661593	-0.265775
C	-0.8115883977	-3.3507344783	-0.0058483864	 0.044237
O	 0.3868561034	-3.4608725568	-0.0165411906	-0.234588
H	 0.7585918197	 1.7068193548	 0.0009549113	 0.30779
H	-3.1341027822	 0.5051374644	 0.0290206175	 0.108284
H	-3.5384733526	-2.1397651062	-1.0923606618	 0.109468
H	-2.2262055848	-1.3293063084	-2.0494824993	 0.126029
H	-2.1914692771	-1.3455260002	 2.0774432011	 0.126025
H	-3.5197114894	-2.1485223353	 1.1362108327	 0.109467
H	-1.4769418362	-4.24570441	-0.0037638867	 0.07498
52.6164	114.7726	145.155	230.3243	248.5516	335.8872	404.997	436.5697	484.6044	545.8176	722.2596	735.3166	761.7038	804.5316	858.1087	889.22	946.4145	972.0999	1015.3336	1022.1229	1027.3193	1054.885	1099.3002	1142.2737	1146.1246	1196.5959	1201.9316	1231.5142	1328.5053	1415.759	1425.7242	1490.8292	1528.4637	1823.5748	1835.6328	2857.5444	3062.332	3064.6116	3143.7524	3145.4781	3167.9424	3820.3336
ON=C1C2CC1(C2)C=O	ON=C1[C@H]2C[C@@]1(C2)C=O	
InChI=1S/C6H7NO2/c8-3-6-1-4(2-6)5(6)7-9/h3-4,9H,1-2H2	InChI=1S/C6H7NO2/c8-3-6-1-4(2-6)5(6)7-9/h3-4,9H,1-2H2/t4-,6+
