12
gdb 21063	6.86383	1.37477	1.15377	4.7328	64.38	-0.2799	-0.045	0.2349	956.2069	0.085874	-373.722055	-373.715124	-373.71418	-373.75444	23.524	
C	-0.0169868012	 1.435245312	 0.0190495834	-0.314626
N	-0.0094120066	-0.0167868296	 0.0034648811	 0.153186
N	 0.0755895198	-0.7059371602	-1.1319298402	-0.21339
C	 0.0937489107	-1.9737668548	-0.7316221819	-0.129897
C	 0.0184269449	-1.9950728814	 0.6730567506	 0.220899
N	-0.0449678815	-0.7270768606	 1.1140966351	-0.281267
C	 0.0001758289	-3.1103839732	 1.5498177041	 0.234707
N	-0.0114100588	-4.0447188485	 2.2320326328	-0.329301
H	 0.9847397991	 1.8181615068	-0.1921576657	 0.16391
H	-0.7104004937	 1.7939350438	-0.7422741111	 0.168007
H	-0.3358117634	 1.7533851854	 1.0100151678	 0.174655
H	 0.1524829717	-2.7908184296	-1.4316096059	 0.153116
29.4878	148.4879	158.7948	247.5963	374.9216	522.0459	558.4987	575.6963	682.1868	728.1104	748.4254	892.9683	1016.651	1043.9369	1089.0352	1149.7835	1200.8536	1326.7296	1357.6373	1408.6265	1428.5015	1451.699	1480.1449	1499.7867	1529.7173	2361.0682	3066.969	3144.6234	3186.5205	3284.9654
CN1N=CC(=N1)C#N	Cn1ncc(n1)C#N	
InChI=1S/C4H4N4/c1-8-6-3-4(2-5)7-8/h3H,1H3	InChI=1S/C4H4N4/c1-8-6-3-4(2-5)7-8/h3H,1H3
