19
gdb 6996	2.55678	1.96507	1.53072	3.6492	72.	-0.2384	0.0407	0.2792	945.2678	0.163922	-365.10141	-365.092358	-365.091414	-365.134525	33.355	
C	-0.097780973	 1.5710904626	-0.104497443	-0.404509
C	 0.0541328802	 0.0604743457	-0.0091687241	 0.037996
N	 1.1490198928	-0.5163455694	-0.80378589	-0.34931
C	 1.7740081549	-1.1537524245	 0.2378449938	 0.426145
O	 2.7352759076	-1.8749359882	 0.3018737074	-0.377952
C	 0.7422933428	-0.5918821194	 1.2552203528	 0.123901
C	 1.350482411	 0.3554399263	 2.2865037215	-0.443551
C	-0.0839290268	-1.6930389678	 1.9193935414	-0.440945
H	 0.8504379826	 2.0846626666	 0.0724731147	 0.124988
H	-0.454970999	 1.8580050842	-1.0995885053	 0.117632
H	-0.8314661126	 1.9313687287	 0.6241980721	 0.1232
H	-0.909438238	-0.4190468039	-0.2254203848	 0.079097
H	 1.2897738691	-0.5851653824	-1.8016688589	 0.243525
H	 1.9718489657	 1.1276879722	 1.8255803692	 0.122659
H	 0.5713740252	 0.8494642158	 2.8777572751	 0.114054
H	 1.9867430378	-0.2104041305	 2.9738825236	 0.134588
H	 0.5479995322	-2.2927457173	 2.5816957451	 0.13477
H	-0.8962426264	-1.266370324	 2.5184693556	 0.113753
H	-0.5250053863	-2.3676826146	 1.1786472638	 0.119958
74.6762	168.9037	192.9233	207.5237	219.5777	269.1162	274.3334	306.6773	361.494	417.4486	505.9631	555.3968	670.9062	734.7195	747.3308	782.8632	897.7639	960.5586	988.8091	1007.7268	1045.2576	1075.15	1117.2066	1165.2975	1188.6912	1228.2033	1272.7094	1299.2449	1381.8337	1392.8993	1400.1664	1411.5137	1424.9217	1478.3377	1483.7312	1488.1933	1498.0759	1503.9822	1512.1069	1886.0194	3014.0667	3028.381	3033.8075	3037.9881	3096.0147	3097.8941	3101.9841	3108.1909	3114.3464	3126.0899	3596.4842
CC1NC(=O)C1(C)C	C[C@H]1NC(=O)C1(C)C	
InChI=1S/C6H11NO/c1-4-6(2,3)5(8)7-4/h4H,1-3H3,(H,7,8)	InChI=1S/C6H11NO/c1-4-6(2,3)5(8)7-4/h4H,1-3H3,(H,7,8)/t4-/m1/s1
