18
gdb 54601	2.66904	1.57674	1.20831	4.8536	71.11	-0.2474	0.0083	0.2557	1052.0293	0.149329	-439.080026	-439.072192	-439.071248	-439.112592	30.197	
O	 0.3083436317	 0.9337927972	 1.3726791628	-0.382384
C	-0.0592200614	 1.2709584225	 0.1084976766	 0.347872
O	 0.637623048	 0.9969653227	-0.8297157572	-0.329607
C	-1.36453251	 2.0096318594	 0.0281738061	 0.193093
C	-1.7787885122	 2.7732341442	-1.2384432707	-0.299323
C	-2.3032858733	 3.9383938329	-0.3392858681	-0.246525
C	-1.6318009373	 3.2795205633	 0.9123758952	-0.024802
N	-2.4399342667	 2.4642090133	 1.8298733054	-0.328088
H	-0.3416166471	 1.278840299	 2.0053706346	 0.31351
H	-3.3032062924	 2.868216129	 2.1824061724	 0.22221
C	-2.5597410667	 1.3810601	 0.822196056	-0.238566
H	-0.9056827959	 3.055118312	-1.8302119881	 0.131891
H	-2.4998981821	 2.2782793964	-1.8933095527	 0.105158
H	-1.92270616	 4.9294569253	-0.5935417545	 0.113391
H	-3.3925047308	 3.9986570907	-0.2605937911	 0.102762
H	-0.8399648957	 3.8625244502	 1.389395072	 0.089158
H	-3.4847973028	 1.3810383624	 0.2317134096	 0.108822
H	-2.4096293752	 0.3772123598	 1.2313895116	 0.12143
91.9747	113.9708	167.5296	253.1551	336.1372	358.3743	458.0798	476.4621	640.2517	651.7844	708.6425	731.9569	745.0284	789.6551	854.7207	899.3598	922.9795	939.1452	945.1963	1005.0396	1037.5641	1076.8664	1124.1037	1126.5012	1163.3654	1184.4596	1210.2496	1224.9554	1243.2837	1260.5457	1301.4322	1318.6925	1339.8784	1370.9985	1375.7761	1473.1078	1492.847	1528.4571	1863.938	3017.3581	3059.9714	3069.6953	3072.9395	3075.1419	3113.3132	3131.3108	3500.0965	3701.3934
[O-]C(=O)C12CCC1[NH2+]C2	OC(=O)[C@]12CC[C@H]1NC2	
InChI=1S/C6H9NO2/c8-5(9)6-2-1-4(6)7-3-6/h4,7H,1-3H2,(H,8,9)	InChI=1S/C6H9NO2/c8-5(9)6-2-1-4(6)7-3-6/h4,7H,1-3H2,(H,8,9)/t4-,6+/m1/s1
