16
gdb 29765	3.08926	1.24352	0.89251	6.2511	81.61	-0.1991	0.0003	0.1994	1250.8528	0.125766	-396.981752	-396.972898	-396.971954	-397.015782	32.006	
C	-0.0340933204	 1.4639462422	 0.0022156558	-0.336027
N	 0.0067471275	 0.0164118611	 0.0009543095	 0.021121
C	 0.0701957272	-0.7686234147	-1.1411301712	-0.163584
C	 0.0982836518	-2.0903176654	-0.7564364162	 0.145962
N	 0.2317038278	-3.2227222513	-1.557680526	-0.615785
C	 0.0474395242	-2.0987775487	 0.6790401117	 0.112831
C	-0.0053256318	-0.7743814729	 1.0973359679	-0.191128
C	 0.0364720696	-3.2531057415	 1.4900105883	 0.188703
N	 0.020381628	-4.229906824	 2.1162855593	-0.3712
H	 0.8670176306	 1.8791384951	-0.4605503067	 0.147298
H	-0.9094500724	 1.8277133711	-0.5454066471	 0.145736
H	-0.0936572017	 1.8184769143	 1.0321906121	 0.147896
H	 0.099111929	-0.3184859378	-2.1196400755	 0.117232
H	-0.1830987978	-3.1324678121	-2.4744324482	 0.246869
H	-0.0877427213	-4.0694161449	-1.1057445877	 0.259749
H	-0.0568420005	-0.3648606906	 2.0927246239	 0.144327
47.588	126.447	139.661	186.0931	230.4105	281.462	322.0865	414.4223	527.7491	528.9231	590.2992	606.3348	623.3493	628.7688	670.8189	735.9819	766.3736	812.8131	1029.8744	1086.9274	1111.5677	1151.1201	1186.6158	1212.5021	1260.1559	1380.3861	1417.2313	1454.7078	1475.3837	1479.6694	1527.2298	1573.8229	1620.6037	1659.1729	2328.7218	3037.5846	3095.9316	3144.0456	3266.4126	3272.6977	3549.0451	3643.9875
CN1C=C(N)C(=C1)C#N	Cn1cc(N)c(c1)C#N	
InChI=1S/C6H7N3/c1-9-3-5(2-7)6(8)4-9/h3-4H,8H2,1H3	InChI=1S/C6H7N3/c1-9-3-5(2-7)6(8)4-9/h3-4H,8H2,1H3
