19
gdb 118327	2.55361	1.0785	0.80784	1.4108	74.18	-0.2694	-0.0163	0.2531	1435.8732	0.158708	-456.423936	-456.414002	-456.413058	-456.459497	35.404	
C	 0.3221128753	 1.7780408352	-0.5441730246	-0.382301
C	 0.3779429508	 0.2927713117	-0.1792291638	-0.171397
C	 0.6217356142	-0.5871741923	-1.408240736	-0.163002
N	 0.6918268448	-2.0218721367	-1.0911842616	-0.141992
C	-0.4254174913	-2.796916582	-1.2719059799	 0.181543
O	-0.5418673683	-3.9858411921	-1.0394775977	-0.348071
C	 1.9550356133	-2.4907543703	-0.5915831397	 0.490259
N	 2.002627706	-3.8057463351	-0.2968757177	-0.564416
O	 2.8788528576	-1.711101005	-0.4687364653	-0.398555
H	 1.2611134678	 2.1076423963	-1.0015617102	 0.126152
H	-0.4858821816	 1.9879688414	-1.2543285924	 0.11342
H	 0.1512194335	 2.3935165685	 0.3434809946	 0.120982
H	 1.1836111822	 0.1114322997	 0.5383328613	 0.132485
H	-0.5593814233	-0.0128812321	 0.3027507237	 0.095998
H	-0.1802852528	-0.4520478504	-2.141043023	 0.108123
H	 1.563728581	-0.3110497873	-1.8844738218	 0.14485
H	-1.2653235984	-2.2061170116	-1.6773542216	 0.100007
H	 1.1831569847	-4.3868134486	-0.4212565	 0.290189
H	 2.8739146747	-4.156976119	 0.0598651558	 0.265725
64.6446	74.3174	90.4426	126.0192	239.8609	266.6743	280.7516	323.0624	347.6089	373.1363	402.329	468.771	566.9305	684.9072	733.9615	748.4572	770.627	789.6822	881.7916	905.5022	1033.5507	1044.793	1119.6366	1126.4705	1130.7153	1199.2906	1259.0624	1322.7194	1333.8292	1351.8285	1400.3888	1411.0587	1417.8289	1446.3199	1484.2413	1492.2741	1501.9914	1508.4388	1590.8203	1775.5528	1815.1147	2979.8103	3030.1112	3032.682	3057.2081	3083.7369	3103.8548	3111.5182	3128.6686	3511.9428	3719.6937
CCCN(C=O)C(N)=O	CCCN(C=O)C(=O)N	
InChI=1S/C5H10N2O2/c1-2-3-7(4-8)5(6)9/h4H,2-3H2,1H3,(H2,6,9)	InChI=1S/C5H10N2O2/c1-2-3-7(4-8)5(6)9/h4H,2-3H2,1H3,(H2,6,9)
