19
gdb 53317	5.11165	0.80946	0.77435	1.5324	85.91	-0.227	0.0318	0.2588	1559.4354	0.156744	-385.829522	-385.819939	-385.818995	-385.86529	34.447	
C	 0.064026153	 1.5136415072	-0.0479082309	-0.499961
C	 0.0227689335	 0.0612015524	 0.0280925664	 0.084537
C	-0.0112094751	-1.1409241857	 0.0962142756	 0.086197
C	-0.0475379751	-2.5910628265	 0.1642411396	-0.07651
O	 0.0852912216	-3.1353412726	 1.5188449396	-0.332393
C	-1.1062112067	-3.9208077603	 1.3385050345	 0.481066
C	-1.1029786875	-5.3041372475	 1.8997871508	-0.491706
C	-2.2842923692	-3.0141358584	 1.150613866	-0.336371
C	-1.3789569044	-3.326584377	-0.0251409688	-0.187465
H	 0.9046874553	 1.8583320172	-0.6599182609	 0.149758
H	-0.8557974077	 1.9159766576	-0.4864886692	 0.149725
H	 0.1761096869	 1.9546309667	 0.9487080926	 0.153894
H	 0.740882506	-3.0230448781	-0.4647199829	 0.10356
H	-1.0324518234	-5.2722803171	 2.9930333112	 0.133589
H	-2.0269743151	-5.8272075352	 1.637022545	 0.1226
H	-0.2526400697	-5.8803103572	 1.5219182577	 0.127159
H	-3.2522209156	-3.5043968882	 1.1086482564	 0.110357
H	-2.2833656811	-2.0225487049	 1.5939339905	 0.121827
H	-1.7210758056	-3.7705978126	-0.9501088531	 0.100137
23.2235	72.9726	88.5396	193.8609	201.3504	256.2567	295.3905	343.2506	395.1578	433.5951	489.421	543.3899	654.3452	722.137	802.341	850.4372	898.1141	936.0891	948.5994	971.2842	986.4428	1021.9752	1050.8748	1053.8406	1065.0556	1093.1849	1116.4217	1172.6569	1205.8642	1269.9537	1276.6645	1355.7312	1388.265	1413.3777	1427.9528	1473.9718	1476.0493	1478.0092	1488.7696	1502.8136	2367.0054	3022.1466	3027.4051	3032.4091	3088.6418	3089.9042	3095.9579	3114.8945	3117.4818	3199.5494	3209.8082
CC#CC1OC2(C)CC12	CC#C[C@H]1O[C@@]2(C)C[C@@H]12	
InChI=1S/C8H10O/c1-3-4-7-6-5-8(6,2)9-7/h6-7H,5H2,1-2H3	InChI=1S/C8H10O/c1-3-4-7-6-5-8(6,2)9-7/h6-7H,5H2,1-2H3/t6-,7+,8-/m0/s1
