19
gdb 36370	4.32629	0.81273	0.74939	5.2632	82.01	-0.2504	0.0429	0.2933	1522.6713	0.159232	-382.038079	-382.029211	-382.028267	-382.072624	32.551	
N	-0.1306213242	-0.9692141024	-0.6830950263	-0.312991
C	-0.0304739459	 0.0688535952	-0.185079456	 0.26467
C	 0.1094863048	 1.3817326312	 0.4458874842	-0.363245
C	 1.4865911823	 1.9885212439	 0.2275343262	-0.02849
C	 1.8079829326	 2.6763440016	-1.0782565088	-0.303667
C	 1.6396978648	 3.4909090878	 0.1767972042	 0.0311
N	 0.453620826	 4.2932794596	 0.2887929473	-0.06663
C	 0.3516319697	 5.1564452995	 1.4637687474	-0.22609
C	 0.6190272298	 5.734262014	 0.1177652832	-0.220429
H	-0.6532348535	 2.0576487041	 0.0480948323	 0.167561
H	-0.0974613462	 1.2724430836	 1.5173139202	 0.146807
H	 2.2962759057	 1.4402491681	 0.698672813	 0.104496
H	 2.7998943734	 2.5590601559	-1.4986660908	 0.120741
H	 1.0091334689	 2.7478326593	-1.8084276462	 0.130234
H	 2.5456903707	 3.9012471757	 0.631346739	 0.07953
H	-0.6350561531	 5.2316679918	 1.9112557813	 0.122053
H	 1.1759443817	 5.145018418	 2.1745993219	 0.115271
H	 1.622160709	 6.1105322294	-0.0731248339	 0.11618
H	-0.1694908866	 6.2367560939	-0.4345732583	 0.1229
49.6263	79.0544	112.3802	174.4006	237.9446	302.7263	350.7454	395.2451	439.8219	528.282	588.0393	727.2612	808.8094	824.7366	849.1625	884.2671	901.1684	942.7129	951.5827	1008.4911	1044.4737	1058.9915	1069.7337	1100.232	1119.9173	1121.8244	1131.1945	1149.0886	1176.762	1207.285	1228.962	1244.4785	1314.9153	1326.9723	1388.0316	1418.6413	1467.273	1488.6008	1493.045	1520.9659	2360.6522	3043.001	3053.8723	3095.4415	3099.7149	3104.5792	3140.5172	3158.9209	3182.9526	3197.4945	3229.6468
N#CCC1CC1N1CC1	N#CC[C@H]1C[C@H]1N1CC1	
InChI=1S/C7H10N2/c8-2-1-6-5-7(6)9-3-4-9/h6-7H,1,3-5H2	InChI=1S/C7H10N2/c8-2-1-6-5-7(6)9-3-4-9/h6-7H,1,3-5H2/t6-,7+/m0/s1
