17
gdb 67939	2.54086	1.7816	1.30409	3.0597	73.1	-0.2477	-0.0145	0.2332	996.4197	0.136882	-418.037184	-418.029564	-418.028619	-418.069317	29.288	
C	 0.0211778759	 1.5199802873	-0.0451251793	-0.45286
C	-0.0465790845	 0.0012754265	-0.0262586414	 0.332042
C	-1.1777829103	-0.6134209239	 0.8531184073	-0.449469
C	-0.0530529189	-1.2396122834	 1.6946859414	 0.410902
O	 0.0288937784	-1.9818141802	 2.6241378992	-0.30949
N	 0.9645234761	-0.6272180122	 0.8902370567	-0.161396
C	 1.8370322869	-1.3815329075	 0.067894743	 0.020237
N	 1.5674811213	-1.404698914	-1.1739490372	-0.205237
C	 0.3146531298	-0.6521717286	-1.3899412467	-0.240684
H	 0.9775727224	 1.8591438835	-0.4552628076	 0.132946
H	-0.7804946838	 1.9278064835	-0.6705558658	 0.125921
H	-0.0839240512	 1.9329704733	 0.962498145	 0.125953
H	-1.828529637	 0.088577664	 1.3797536483	 0.136737
H	-1.7914876599	-1.37157449	 0.3599874188	 0.142528
H	 2.6741616064	-1.9048171782	 0.5168245441	 0.149655
H	-0.4487885898	-1.3450308365	-1.7643065017	 0.119462
H	 0.4692149283	 0.1038571564	-2.165724244	 0.122752
85.8904	144.7447	236.3447	290.9338	326.0006	337.751	440.6128	506.4395	564.5339	588.1202	647.732	759.727	823.4442	843.6192	910.2456	932.8109	956.5321	959.1822	975.3055	994.0124	1075.6157	1089.6066	1144.4299	1163.8356	1186.7069	1223.4471	1254.1913	1288.3918	1318.2342	1332.3203	1413.335	1447.0258	1486.394	1488.2031	1497.3711	1675.7798	1903.5357	3032.5673	3035.7928	3070.894	3080.2368	3105.0761	3113.1405	3127.0044	3207.0771
CC12CC(=O)N1C=NC2	C[C@]12CC(=O)N1C=NC2	
InChI=1S/C6H8N2O/c1-6-2-5(9)8(6)4-7-3-6/h4H,2-3H2,1H3	InChI=1S/C6H8N2O/c1-6-2-5(9)8(6)4-7-3-6/h4H,2-3H2,1H3/t6-/m1/s1
