15
gdb 79517	3.26106	1.61306	1.27063	1.0589	64.33	-0.2396	-0.0358	0.2038	951.6227	0.112818	-457.705878	-457.69902	-457.698076	-457.737302	26.908	
O	 0.0599936909	 1.4164310371	 0.1097287625	-0.439658
C	 0.0091538875	 0.0066207709	 0.0500297546	 0.009971
C	-1.3952714417	-0.5106272009	-0.1854254012	-0.061233
C	-1.3181355172	-1.9378641352	-0.8045659073	 0.038357
O	-2.5361644433	-1.6961530851	-1.5872535195	-0.306186
C	-1.7419355365	-0.4700449193	-1.7036698963	 0.058565
C	-0.4203441029	-1.299298373	-1.9158086012	-0.164776
C	 0.6717752371	-0.5186700981	-1.2464014813	 0.371162
O	 1.7789998581	-0.2377599831	-1.6281017172	-0.332133
H	 0.9643980245	 1.6711132163	-0.1135698526	 0.296929
H	 0.4761570049	-0.4546019457	 0.9357995788	 0.090974
H	-2.1909453313	-0.3031434202	 0.526167613	 0.102732
H	-1.2009286788	-2.9065710045	-0.3190599627	 0.110544
H	-2.1276315493	 0.3438712224	-2.3153374685	 0.117415
H	-0.2507077118	-1.8175014416	-2.855341991	 0.107337
92.1286	190.9853	242.1541	370.6613	401.2303	485.4207	524.4116	600.5062	669.1725	705.8016	745.9917	798.6465	882.1183	894.239	904.7196	925.8944	942.8201	993.8411	1015.4708	1098.5593	1119.0103	1139.2256	1160.1024	1164.3822	1173.5223	1203.5632	1233.6583	1266.4243	1274.2497	1323.6487	1360.4125	1419.2818	1855.6901	2971.2118	3122.0724	3137.2126	3160.0942	3175.2348	3777.4306
OC1C2C3OC2C3C1=O	O[C@H]1[C@@H]2[C@H]3O[C@@H]2[C@H]3C1=O	
InChI=1S/C6H6O3/c7-3-1-5-2(4(3)8)6(1)9-5/h1-3,5-7H	InChI=1S/C6H6O3/c7-3-1-5-2(4(3)8)6(1)9-5/h1-3,5-7H/t1-,2+,3-,5-,6+/m0/s1
