18
gdb 54836	2.72367	1.35307	1.20069	6.6605	72.38	-0.238	0.0247	0.2627	1107.7759	0.148448	-439.083558	-439.07548	-439.074536	-439.116188	30.982	
C	 0.1366137822	 1.5614632328	 0.089399876	-0.508033
C	 0.0773991572	 0.0668043119	 0.1036295593	 0.339584
N	-1.2032792964	-0.6621286742	-0.1561923231	-0.402549
H	-2.0180107252	-0.0950196361	 0.0497214222	 0.235539
H	-0.6816844241	-1.6248924516	-1.5002566335	 0.318197
C	-0.8739913425	-1.6204356902	 0.9592515607	-0.189833
C	 0.5161264263	-1.0025663949	 1.087537289	-0.148686
C	 1.2024767971	-0.8613062056	-0.2740494076	-0.203346
C	 1.2034198877	-1.8817224669	-1.3918652352	 0.41189
O	 2.2294425086	-2.3816997804	-1.7760006654	-0.348038
O	 0.0159917647	-2.18738975	-1.9311389374	-0.390019
H	 1.1356669026	 1.9083251041	 0.3667776204	 0.140307
H	-0.086249902	 1.9500673953	-0.9110405766	 0.140885
H	-0.581953813	 1.9981734178	 0.7928756865	 0.122172
H	-1.4821451227	-1.4412883317	 1.8498168732	 0.120378
H	-0.9511918473	-2.6721046385	 0.6682133438	 0.132372
H	 1.0939023418	-0.9358232534	 1.9999602071	 0.109284
H	 2.1861494451	-0.4160610586	-0.1659960893	 0.119894
95.6442	146.6378	207.1238	224.3449	265.2742	336.4836	387.6271	411.6053	508.7274	615.4768	692.4309	709.9862	797.6617	809.5844	857.578	867.4669	930.7775	950.6737	970.3649	987.6426	992.4208	1033.8062	1064.027	1097.8855	1135.5333	1162.0431	1208.0147	1232.3679	1280.2574	1288.5127	1320.1847	1343.9126	1413.728	1476.9791	1481.4589	1497.2023	1503.4125	1511.2452	1846.5711	3026.0355	3053.4903	3085.6851	3106.356	3116.3325	3174.3721	3196.2489	3200.4138	3539.6134
CC12[NH2+]CC1C2C([O-])=O	C[C@]12NC[C@H]1[C@H]2C(=O)O	
InChI=1S/C6H9NO2/c1-6-3(2-7-6)4(6)5(8)9/h3-4,7H,2H2,1H3,(H,8,9)	InChI=1S/C6H9NO2/c1-6-3(2-7-6)4(6)5(8)9/h3-4,7H,2H2,1H3,(H,8,9)/t3-,4-,6-/m0/s1
