15
gdb 44260	3.00833	1.57383	1.20691	2.9926	65.31	-0.2561	-0.0425	0.2136	993.6307	0.114204	-453.981896	-453.97442	-453.973476	-454.014755	27.311	
O	-0.0152293874	-0.0537001914	-0.3420695859	-0.269335
C	-0.0393699315	 1.1123189841	-0.0993609527	 0.376565
C	-1.1348758127	 2.1563325832	 0.2204472851	-0.304748
N	-0.0463069941	 3.1055465523	 0.6040393709	-0.145444
C	 1.0370486626	 2.2083657522	 0.1142075596	-0.108361
C	 2.0752123415	 2.1001807183	 1.2532323614	-0.199134
N	 1.3731893466	 2.7734998168	 2.3268838101	-0.332661
C	 0.125886295	 3.2535922764	 2.0087068655	 0.414913
O	-0.6976965533	 3.7013836214	 2.7697890617	-0.385166
H	-1.6989708674	 2.485224304	-0.6575475605	 0.145658
H	-1.829881494	 1.9191804806	 1.0314590885	 0.161576
H	 1.4824024687	 2.5359602179	-0.8297847549	 0.122808
H	 2.3120996454	 1.0558272008	 1.4903222357	 0.135191
H	 3.0085284651	 2.609113419	 0.9867038179	 0.124254
H	 1.7011498954	 2.8165529944	 3.2762476876	 0.263886
57.5944	81.1925	177.9426	256.928	404.0832	411.2264	479.3676	558.3272	609.0823	685.3999	730.2216	771.6421	790.9281	840.5126	924.4152	994.1092	1038.2732	1041.9911	1083.1786	1084.5197	1104.0575	1176.6281	1199.6087	1234.7461	1255.9441	1273.1319	1295.6898	1371.2066	1440.6373	1471.4415	1537.2631	1847.201	1913.9383	3022.3643	3051.9487	3055.6744	3069.6801	3110.913	3676.7724
O=C1CN2C1CNC2=O	O=C1CN2[C@H]1CNC2=O	
InChI=1S/C5H6N2O2/c8-4-2-7-3(4)1-6-5(7)9/h3H,1-2H2,(H,6,9)	InChI=1S/C5H6N2O2/c8-4-2-7-3(4)1-6-5(7)9/h3H,1-2H2,(H,6,9)/t3-/m0/s1
