20
gdb 118201	3.0321	0.84802	0.76045	7.1359	72.19	-0.2476	0.0266	0.2741	1543.6486	0.170868	-477.449192	-477.439344	-477.4384	-477.484866	35.422	
C	-0.4228563883	 0.9192881001	-1.2458277441	-0.327329
N	 0.0419850376	 0.0397680644	-0.1728369805	-0.297501
H	-0.0467349256	 0.5235526659	 0.7109516554	 0.236863
H	-0.3136696223	-1.9629262838	 0.1328161186	 0.283903
C	 1.408722309	-0.4802101084	-0.312402734	-0.193505
C	 1.3764498185	-1.9593709225	-0.7516042222	 0.112449
O	 0.3952228573	-2.6288550048	 0.0454093042	-0.438319
C	 1.0903009683	-2.1615309403	-2.2494505794	-0.351752
C	 1.0732104052	-3.6230141224	-2.7104408005	 0.399136
O	 0.4640132548	-4.4818152459	-1.8767279459	-0.371602
O	 1.5408960198	-3.9817617323	-3.7580741261	-0.328581
H	 0.2350682523	 1.7866920383	-1.4142791052	 0.112788
H	-0.4940013678	 0.368369356	-2.1871169944	 0.139007
H	-1.4234453792	 1.2867736214	-1.0019041848	 0.130903
H	 2.0152438856	 0.1164410623	-1.0078860355	 0.1057
H	 1.8954654277	-0.4390191118	 0.6668733371	 0.114726
H	 2.3414830818	-2.4180648778	-0.5082589218	 0.103351
H	 0.2037442404	-4.0005870255	-1.0623614319	 0.313247
H	 0.1060801927	-1.7379821301	-2.4873545191	 0.128379
H	 1.830456982	-1.6405728029	-2.8612448397	 0.128139
53.7484	90.2733	107.3016	110.8361	189.9602	220.2915	269.826	353.6493	369.9094	395.4079	482.8086	581.2355	632.3291	682.2365	702.9885	804.8879	832.5967	871.3968	883.9995	892.8354	951.8642	999.4717	1051.9734	1074.0816	1148.9672	1150.416	1178.2135	1209.831	1267.321	1273.8118	1298.0109	1327.58	1380.9474	1396.7289	1437.7241	1450.3659	1455.9892	1464.806	1482.2285	1486.8971	1497.0834	1519.9516	1862.5943	2981.6118	3009.6828	3036.2866	3053.5909	3080.7151	3083.2979	3113.7288	3122.2375	3478.3901	3561.9925	3585.3311
C[NH2+]CC(O)CC([O-])=O	CNC[C@@H](O)CC(=O)O	
InChI=1S/C5H11NO3/c1-6-3-4(7)2-5(8)9/h4,6-7H,2-3H2,1H3,(H,8,9)	InChI=1S/C5H11NO3/c1-6-3-4(7)2-5(8)9/h4,6-7H,2-3H2,1H3,(H,8,9)/t4-/m0/s1
