23
gdb 91381	3.0337	1.15622	0.98432	1.6636	84.53	-0.2511	0.0681	0.3192	1308.4248	0.207342	-388.297897	-388.289117	-388.288173	-388.331192	34.892	
C	-0.4334657824	 1.5115336688	-0.2210128944	-0.407547
C	-0.0386013944	 0.0535461097	 0.0051395082	 0.064727
C	 0.4024778116	-0.7028943336	-1.2732454765	-0.241886
C	 1.3178397775	-1.8414266818	-0.7745743402	 0.0082
C	 2.8574018249	-1.7234486693	-0.9996447008	-0.286622
C	 3.0671291879	-1.9177698559	 0.5272343705	 0.142962
O	 4.0589696353	-1.1873313982	 1.204924091	-0.430864
C	 1.5581193437	-1.617701317	 0.7570661333	-0.054525
C	 1.1438836246	-0.1528802677	 0.9755022286	-0.238032
H	 0.4049857296	 2.083833627	-0.6361770875	 0.109466
H	-1.2703139715	 1.5946879531	-0.9227505162	 0.113062
H	-0.7362117829	 1.9950191382	 0.7140470671	 0.111712
H	-0.9027835776	-0.47923662	 0.4269836533	 0.07214
H	-0.457628936	-1.0680152564	-1.8428503452	 0.094662
H	 0.9534985921	-0.0245069514	-1.9371591594	 0.090917
H	 0.9412421292	-2.8337850895	-1.0295706294	 0.065849
H	 3.3371200766	-2.445001104	-1.6652580983	 0.099285
H	 3.1451897242	-0.7164720541	-1.3225529224	 0.087774
H	 3.2785269075	-2.9661594412	 0.7573913269	 0.088704
H	 3.9185649703	-0.2524718784	 1.0233388536	 0.277923
H	 1.0407074047	-2.2801423176	 1.4560547475	 0.061221
H	 1.9527696663	 0.5382934581	 0.6945726715	 0.070195
H	 0.8883118689	 0.0716211011	 2.0149125585	 0.100676
89.4376	100.5314	197.5665	242.2196	278.9286	306.8501	362.414	406.5876	414.4189	492.3312	549.0601	621.7139	650.336	797.2556	831.9294	842.4684	856.9389	896.9386	927.2243	932.4357	953.0259	1009.5103	1034.605	1045.0592	1070.8725	1088.5319	1123.9016	1145.679	1148.8925	1167.6587	1198.7102	1239.786	1247.4228	1269.2976	1275.0948	1287.819	1303.437	1310.4544	1327.6992	1350.2512	1361.2764	1380.8893	1410.4001	1439.694	1478.7337	1486.6421	1496.4227	1496.6471	1503.1144	2989.8283	3003.7999	3021.6212	3026.4258	3042.8497	3057.9145	3068.8815	3072.3636	3085.0011	3086.8367	3091.8762	3094.7603	3108.8843	3812.3741
CC1CC2CC(O)C2C1	C[C@H]1C[C@H]2C[C@@H](O)[C@H]2C1	
InChI=1S/C8H14O/c1-5-2-6-4-8(9)7(6)3-5/h5-9H,2-4H2,1H3	InChI=1S/C8H14O/c1-5-2-6-4-8(9)7(6)3-5/h5-9H,2-4H2,1H3/t5-,6-,7-,8+/m0/s1
