19
gdb 66371	2.26404	1.42101	1.33795	2.4739	74.8	-0.231	0.0133	0.2443	1089.1197	0.16114	-419.225936	-419.217407	-419.216463	-419.258683	33.118	
O	-0.0712122402	 1.4115979457	 0.0331038585	-0.449853
C	 0.0132429499	-0.0040078823	 0.0373295612	 0.225087
C	-1.4286489934	-0.5406277169	 0.0483514122	-0.215974
C	-1.4659546959	-2.0666063586	-0.1089658972	-0.222228
C	-0.6638125681	-2.5077538743	-1.3449458918	-0.154401
N	 0.7027654741	-1.9810111867	-1.3849098766	-0.281305
C	 0.7482255149	-0.5387399658	-1.2260181379	-0.214346
C	 0.7455573569	-0.464054203	 1.2416848109	 0.235495
N	 1.359254022	-0.8167818166	 2.1562902281	-0.343981
H	 0.8228485128	 1.7733303997	 0.033374658	 0.291335
H	-1.9307144215	-0.2143664927	 0.9633471835	 0.121557
H	-1.9382637719	-0.0552158539	-0.7925671875	 0.115012
H	-1.0478766167	-2.5411790263	 0.7876245739	 0.118082
H	-2.5054604148	-2.4032527834	-0.1905046367	 0.103544
H	-0.6136522881	-3.5991734626	-1.4033011398	 0.10786
H	-1.1779844163	-2.1634989087	-2.2532805707	 0.106642
H	 1.2723979608	-2.427690217	-0.6726646762	 0.231574
H	 0.2566686254	-0.0634690987	-2.0843699018	 0.119126
H	 1.7924181702	-0.2065313979	-1.2154627201	 0.106772
106.9045	141.1741	207.0225	255.5633	304.5496	328.7599	332.3046	399.654	426.1931	455.2634	549.7273	595.2991	642.6937	673.4783	755.029	834.7272	875.7656	887.8223	954.365	985.3151	999.1687	1042.8325	1088.8769	1110.084	1150.0267	1175.5167	1193.1474	1236.4787	1297.5163	1332.9585	1338.9871	1356.2103	1372.5348	1386.7936	1404.9883	1472.7036	1480.9487	1484.9721	1496.5383	1499.8386	2341.4186	3012.9985	3025.5546	3030.8402	3042.1531	3074.7716	3076.702	3084.5147	3097.229	3516.8098	3796.6562
OC1(CCCNC1)C#N	O[C@]1(CCCNC1)C#N	
InChI=1S/C6H10N2O/c7-4-6(9)2-1-3-8-5-6/h8-9H,1-3,5H2	InChI=1S/C6H10N2O/c7-4-6(9)2-1-3-8-5-6/h8-9H,1-3,5H2/t6-/m1/s1
