15
gdb 33722	6.17445	0.92191	0.92187	0.0019	77.35	-0.3244	-0.0077	0.3167	1231.7203	0.114239	-379.652726	-379.645276	-379.644331	-379.684781	28.227	
N	 0.0210317854	-1.089313308	-0.0100868337	-0.33756
C	 0.0026625237	 0.0665851329	 0.0005065153	 0.166123
C	-0.0199673643	 1.5057684616	 0.0118612839	 0.197529
C	-0.6463741888	 2.4277441759	 1.106989366	-0.278998
C	-0.0493992458	 3.3861500375	 0.0267988223	 0.197528
C	 1.212785696	 2.4656052429	 0.0043140188	-0.278965
C	-0.6717175245	 2.4445159039	-1.0542153051	-0.278968
C	-0.0718319206	 4.825335375	 0.0382802864	 0.166125
N	-0.0898584405	 5.9812509868	 0.0474963589	-0.337561
H	-1.7339159368	 2.4100480068	 1.1913719495	 0.130813
H	-0.1542244188	 2.4277074213	 2.0806761133	 0.130749
H	 1.8308459391	 2.4681359498	 0.9033037855	 0.130751
H	 1.8087727326	 2.4821954845	-0.9092898873	 0.130813
H	-0.2018842309	 2.4596947223	-2.0387088	 0.130797
H	-1.7609536559	 2.4279422168	-1.1139627039	 0.130824
112.1508	112.1595	214.9385	216.771	478.8096	484.9278	486.8975	555.8855	556.0327	571.3705	573.3746	584.3678	816.699	819.7649	931.1516	967.4402	998.6947	1041.4597	1044.196	1097.65	1127.5336	1128.2166	1150.4428	1151.4797	1174.3674	1176.0296	1273.007	1327.1527	1497.868	1499.8511	1554.3583	2356.7573	2357.6351	3077.4444	3077.9815	3083.6527	3152.4099	3156.9509	3157.2846
N#CC12CC(C1)(C2)C#N	N#C[C@@]12C[C@@](C1)(C2)C#N	
InChI=1S/C7H6N2/c8-4-6-1-7(2-6,3-6)5-9/h1-3H2	InChI=1S/C7H6N2/c8-4-6-1-7(2-6,3-6)5-9/h1-3H2/t6-,7+
