18
gdb 56348	4.4964	0.83327	0.75383	4.9818	82.64	-0.2557	-0.0398	0.2159	1500.205	0.147676	-398.130285	-398.121138	-398.120194	-398.164977	33.404	
N	 0.0358949044	 1.3357598856	-0.5621895961	-0.552575
C	 0.022537122	 0.0746911216	-0.0008256749	 0.264512
N	 1.0079843152	-0.6910320324	 0.2606629006	-0.268437
C	 2.3426389885	-0.2092289841	 0.0066509379	 0.047762
C	 3.5040458802	-1.1734832103	 0.3485768867	-0.2368
C	 4.2287650283	-0.7066713058	-0.9424782433	-0.216001
C	 2.8704218551	-0.1717560824	-1.4678288011	-0.231487
C	-1.3156616126	-0.4234856685	 0.267521641	 0.269597
N	-2.3927098657	-0.7842660403	 0.4809519786	-0.319354
H	 0.9150332004	 1.8273763953	-0.5775670326	 0.268865
H	-0.7828905047	 1.9121024878	-0.4503162326	 0.273853
H	 2.510412856	 0.7691969529	 0.4882846985	 0.065952
H	 4.0114537815	-1.039299023	 1.3064256944	 0.098751
H	 3.1568547511	-2.2068994601	 0.2706592322	 0.118024
H	 4.9368992977	 0.1035593708	-0.7470020796	 0.102536
H	 4.7317362776	-1.4676831022	-1.5418413059	 0.105342
H	 2.3450514871	-0.9171919781	-2.0708244662	 0.118491
H	 2.8577079978	 0.7838417633	-1.9987331176	 0.090969
44.5054	86.6641	114.3017	173.7738	221.5274	312.295	370.6369	397.6351	402.8963	449.6951	529.8339	595.842	661.7085	723.0726	775.5191	781.5363	851.652	897.1156	931.7289	948.8053	972.6638	1040.6778	1069.0112	1142.0567	1162.9476	1199.8897	1236.0451	1249.0056	1255.434	1276.0193	1280.539	1339.0703	1371.5987	1474.8614	1487.693	1509.3163	1632.5224	1709.3702	2358.6893	2946.8209	3055.6909	3062.5012	3068.2568	3105.5556	3116.5942	3129.2841	3590.7781	3708.529
NC(=NC1CCC1)C#N	NC(=NC1CCC1)C#N	
InChI=1S/C6H9N3/c7-4-6(8)9-5-2-1-3-5/h5H,1-3H2,(H2,8,9)	InChI=1S/C6H9N3/c7-4-6(8)9-5-2-1-3-5/h5H,1-3H2,(H2,8,9)
