17
gdb 90643	3.97107	1.11186	1.02142	2.0066	75.99	-0.2308	0.0233	0.2541	1203.1872	0.133123	-421.742943	-421.734302	-421.733358	-421.775768	33.359	
C	-0.0563114155	 1.3881016934	-0.1214287647	-0.405552
C	-0.0003232636	-0.1021190823	 0.1316032923	 0.10373
O	 0.9655331385	-0.7549628061	-0.7732784901	-0.321381
C	 1.7950521166	-1.0888049432	 0.3375285616	 0.003686
C	 0.8069338124	-0.551553294	 1.3468157685	-0.198114
C	 1.0476517477	-2.0636293724	 1.2197688741	 0.207753
O	 0.0851846773	-2.9008223673	 0.6538720024	-0.473632
C	 1.7945431917	-2.6535280401	 2.2963185332	 0.274227
C	 2.4311743498	-3.1230919184	 3.2017828081	-0.394741
H	 0.9330522031	 1.8412884102	-0.0122143518	 0.127765
H	-0.4208364901	 1.5850923592	-1.1338943661	 0.132354
H	-0.7405671505	 1.8642974555	 0.58920666	 0.123701
H	-0.9875316037	-0.5659800041	 0.030540517	 0.097439
H	 2.8711063539	-1.0375764797	 0.2197738967	 0.117792
H	 0.9476622023	-0.0061514182	 2.2699768854	 0.11361
H	 0.1173861025	-2.7301552977	-0.2983912677	 0.297039
H	 2.9866252777	-3.5511617849	 3.999180771	 0.194325
118.371	136.7243	179.4708	237.4647	245.3086	310.5746	361.4098	428.5362	462.9915	502.4007	546.4236	575.3094	620.6035	685.7016	720.7827	778.8712	828.0511	859.2906	908.896	926.2362	1005.9571	1031.8891	1043.9636	1075.834	1090.0564	1124.5052	1152.7628	1212.4779	1240.0358	1292.7785	1355.1844	1382.3208	1405.5646	1411.5037	1485.0651	1491.2146	2238.4287	3037.8587	3053.2563	3110.3601	3122.4674	3183.599	3210.6991	3503.2322	3739.7463
CC1OC2C1C2(O)C#C	C[C@H]1O[C@H]2[C@@H]1[C@]2(O)C#C	
InChI=1S/C7H8O2/c1-3-7(8)5-4(2)9-6(5)7/h1,4-6,8H,2H3	InChI=1S/C7H8O2/c1-3-7(8)5-4(2)9-6(5)7/h1,4-6,8H,2H3/t4-,5-,6+,7-/m1/s1
