14
gdb 12586	3.27256	2.11154	1.35398	1.4711	64.83	-0.2486	-0.0944	0.1542	860.1542	0.106972	-382.596084	-382.588853	-382.587909	-382.627895	26.177	
C	-0.112481261	 1.578985398	 0.008302525	-0.393451
C	 0.0506110342	 0.0563229608	 0.0049637394	-0.234208
C	 0.8664549641	-0.4851149656	-1.1721447357	 0.379088
O	 0.7020086321	-0.2273971988	-2.3401067236	-0.314185
C	 1.9241433042	-1.3802200113	-0.6149305013	-0.162636
C	 1.8817718492	-1.3877055311	 0.7258524787	-0.16264
C	 0.7907240453	-0.4984662746	 1.2251214732	 0.379091
O	 0.5527274324	-0.2537706932	 2.3831698647	-0.314186
H	 0.8605628063	 2.0787106249	 0.0417553551	 0.126008
H	-0.6297078777	 1.9016436149	-0.8980564472	 0.141191
H	-0.6858749031	 1.8917148882	 0.8838250661	 0.141194
H	-0.9419555804	-0.4134420783	-0.0290029027	 0.135579
H	 2.6145536692	-1.9154265076	-1.2558044389	 0.139578
H	 2.5305302852	-1.9302684261	 1.4030299772	 0.139578
61.9148	198.5124	212.7855	249.593	263.1111	383.1315	546.3878	547.8048	652.1451	689.7976	720.8984	765.1692	818.5184	885.5962	999.5885	1019.9429	1066.4414	1072.9319	1101.3462	1136.2461	1231.0187	1244.0055	1306.9682	1339.4451	1406.1289	1495.3925	1499.0679	1624.6835	1804.4632	1840.0119	3028.1336	3049.212	3121.1263	3139.1904	3206.2027	3228.3175
CC1C(=O)C=CC1=O	C[C@H]1C(=O)C=CC1=O	
InChI=1S/C6H6O2/c1-4-5(7)2-3-6(4)8/h2-4H,1H3	InChI=1S/C6H6O2/c1-4-5(7)2-3-6(4)8/h2-4H,1H3
