19
gdb 103186	2.03305	1.53141	1.19822	3.7498	67.17	-0.2469	0.0563	0.3032	1118.0895	0.15746	-497.276363	-497.266745	-497.265801	-497.310179	36.532	
O	-0.0023395435	 1.420630153	 0.0276964311	-0.442727
C	 0.0346231611	-0.0025988588	 0.078268425	-0.117512
C	-1.4025981602	-0.534680134	 0.0559332022	 0.34224
O	-2.1470690588	 0.0762521587	 1.0777053908	-0.492009
C	-2.0211075725	-0.5036800758	-1.3729020614	 0.061526
O	-1.4253970149	 0.4539734191	-2.2338305384	-0.440559
C	-1.6515137467	-2.0011802762	-1.5385630493	-0.326283
C	-1.5063214403	-2.0745182677	 0.0115044266	 0.079888
O	-0.3969019129	-2.7418623117	 0.5646869248	-0.431059
H	-0.3440391489	 1.6377156619	-0.8504333053	 0.29591
H	 0.6358297767	-0.4223471935	-0.7356869014	 0.102775
H	 0.5020938073	-0.2771864828	 1.026569708	 0.127006
H	-1.7805287473	 0.9688931382	 1.1613331721	 0.283521
H	-3.1044933424	-0.3509719142	-1.3003562188	 0.082019
H	-1.8768450914	 0.4430100403	-3.0829230833	 0.291999
H	-2.3777740495	-2.659982601	-2.0188208625	 0.096211
H	-0.6763949565	-2.110061771	-2.0203129024	 0.115251
H	-2.4450851558	-2.3853429439	 0.4880074735	 0.084097
H	-0.5764886136	-3.6867122606	 0.5678113887	 0.287705
104.2317	156.3326	171.8636	204.7169	219.8387	241.9646	272.5592	326.7439	347.3743	438.5096	469.8193	484.7466	508.7351	582.2482	617.8364	637.7259	765.6288	846.2212	887.5471	922.98	1009.1581	1044.0533	1064.0635	1080.759	1112.2918	1126.907	1139.7216	1167.791	1182.581	1212.1891	1249.6889	1287.9101	1292.2269	1331.1271	1366.896	1402.7902	1422.4877	1439.1784	1449.6969	1483.5521	1493.5299	3021.3508	3035.7259	3044.2991	3066.4005	3114.1694	3128.1744	3726.7883	3758.8878	3827.3548	3827.6018
OCC1(O)C(O)CC1O	OC[C@@]1(O)[C@@H](O)C[C@H]1O	
InChI=1S/C5H10O4/c6-2-5(9)3(7)1-4(5)8/h3-4,6-9H,1-2H2	InChI=1S/C5H10O4/c6-2-5(9)3(7)1-4(5)8/h3-4,6-9H,1-2H2/t3-,4+,5+
