21
gdb 118168	6.00282	0.51466	0.4936	0.281	84.77	-0.2407	0.0523	0.293	2237.6017	0.178752	-424.19648	-424.184692	-424.183748	-424.235839	39.852	
C	 0.066307925	 1.5085445246	-0.0749399828	-0.497953
C	 0.0388392736	 0.0545365637	-0.0063469085	 0.111714
C	 0.0140519097	-1.1477589574	 0.0465387909	 0.042167
C	-0.0287641573	-2.6027037877	 0.1206929394	-0.394819
C	-1.4552935978	-3.1879947102	 0.0232712991	 0.125928
O	-2.1113218238	-2.7791791162	-1.1700613137	-0.422111
C	-1.4374121799	-4.7132455408	 0.1689258609	-0.181434
C	-2.8310125166	-5.3272958726	 0.1430660333	-0.082669
O	-2.6846705425	-6.7356706699	 0.2620629486	-0.424141
H	 0.8493298762	 1.8614659308	-0.7554727452	 0.144781
H	-0.8885547571	 1.9064647522	-0.4361504108	 0.148846
H	 0.2588879843	 1.9526913244	 0.9081015674	 0.144601
H	 0.581797229	-3.0400016434	-0.6840008204	 0.113559
H	 0.4270591933	-2.9454392196	 1.0588877474	 0.127329
H	-2.0595549937	-2.7516084922	 0.8277512543	 0.097472
H	-1.5692433309	-3.0598946292	-1.9162704573	 0.278035
H	-0.8424134	-5.1553072503	-0.6424178767	 0.09472
H	-0.943111571	-4.9920653976	 1.1072232203	 0.105307
H	-3.4302290424	-4.9169203512	 0.9728096049	 0.083827
H	-3.3351355474	-5.0479790545	-0.7921843007	 0.099524
H	-3.5580071307	-7.132583223	 0.1975998895	 0.285319
19.3213	41.6115	65.5599	90.9867	114.1635	166.21	213.4857	262.8069	269.9695	277.7667	305.097	380.6821	385.9	410.6279	477.8961	593.148	774.6814	800.62	861.7575	942.9266	996.5762	1042.7079	1053.1165	1055.0127	1076.0703	1099.915	1115.5219	1171.5928	1191.398	1211.9504	1235.8266	1293.3678	1301.4602	1345.1655	1356.076	1380.0825	1414.6805	1422.5924	1460.2282	1465.6022	1479.0215	1479.5381	1486.9788	1531.4468	2376.3491	2964.6779	2992.275	3015.1819	3022.3748	3024.7136	3035.0488	3046.8473	3072.1467	3083.8404	3085.4434	3792.5174	3830.5744
CC#CCC(O)CCO	CC#CC[C@@H](O)CCO	
InChI=1S/C7H12O2/c1-2-3-4-7(9)5-6-8/h7-9H,4-6H2,1H3	InChI=1S/C7H12O2/c1-2-3-4-7(9)5-6-8/h7-9H,4-6H2,1H3/t7-/m1/s1
