21
gdb 111794	2.41269	1.34709	1.09968	2.5449	77.66	-0.243	0.0656	0.3086	1193.4966	0.183907	-424.200539	-424.191864	-424.190919	-424.233808	33.774	
O	-0.1220129079	 1.5303227241	-0.2603344038	-0.42392
C	 0.0562630916	 0.1511231844	 0.0426760292	-0.13776
C	-1.3088578202	-0.5019347378	-0.038407326	 0.039773
C	-2.0241478917	-0.767881661	-1.4047666868	-0.067999
C	-1.0239190715	-1.6692962341	-2.1502732027	-0.225167
C	-0.6355885656	-2.6395361559	-0.9789579746	-0.221084
C	-1.509508251	-2.0392414362	 0.1393043211	-0.092094
C	-2.8586638185	-1.8426705118	-0.6337410817	 0.188804
O	-3.9867954964	-1.4182126282	 0.0886814987	-0.460261
H	 0.7372238899	 1.9604430474	-0.2219712905	 0.286783
H	 0.7676998579	-0.3143886386	-0.6535859579	 0.087588
H	 0.4614474417	 0.0154824808	 1.059495375	 0.084769
H	-1.9617331129	 0.060112599	 0.6378278923	 0.059755
H	-2.5076073623	 0.0316826731	-1.9659180396	 0.066848
H	-1.4947765764	-2.1928337722	-2.9871304846	 0.098871
H	-0.1688004831	-1.1169656906	-2.5482071669	 0.101855
H	-0.9065309737	-3.6780592897	-1.1902578537	 0.098858
H	 0.4322230146	-2.6204839018	-0.7455524217	 0.09723
H	-1.4822410981	-2.5155048917	 1.1203703054	 0.059581
H	-3.1986458784	-2.7026492605	-1.2191017019	 0.073763
H	-3.7867484482	-0.5906950283	 0.5369158109	 0.283809
74.1885	149.1078	185.1814	237.6575	272.0969	291.4827	316.6079	361.1304	433.073	485.5706	585.4393	668.946	760.4706	826.83	851.8301	872.7804	891.3583	902.9691	948.7868	985.1882	1002.3744	1021.5155	1041.2668	1065.8066	1080.5882	1118.9145	1132.2793	1157.7884	1174.6856	1204.0501	1215.6217	1248.4996	1259.2498	1264.0667	1270.6397	1282.5325	1298.7965	1315.895	1333.5368	1406.5552	1446.1706	1471.1224	1494.6611	1514.5044	1530.5588	2963.056	3014.7227	3049.1022	3052.5504	3059.7291	3063.7718	3086.4027	3104.8665	3107.7659	3119.9665	3822.5097	3828.8108
OCC1C2CCC1C2O	OC[C@H]1[C@H]2CC[C@@H]1[C@H]2O	
InChI=1S/C7H12O2/c8-3-6-4-1-2-5(6)7(4)9/h4-9H,1-3H2	InChI=1S/C7H12O2/c8-3-6-4-1-2-5(6)7(4)9/h4-9H,1-3H2/t4-,5+,6+,7+
