16
gdb 16682	4.32401	1.73802	1.62722	4.5408	64.16	-0.2599	0.0154	0.2753	842.7862	0.13209	-383.758402	-383.751873	-383.750929	-383.788896	25.666	
C	-0.1741933296	 1.5373133637	 0.0040647041	-0.440514
C	 0.0192469298	 0.028454141	 0.0298141563	 0.029103
C	 1.1586566385	-0.6090105683	-0.8122684025	 0.090724
C	 2.1558110549	-0.2286183936	 0.3020059909	-0.251507
C	 0.9095405395	-0.5845462499	 1.1860616573	-0.196964
C	 0.7735759251	-2.0525377429	 0.8092603922	 0.452201
O	 0.5627027412	-3.0395841783	 1.4452752676	-0.351323
O	 0.9502402148	-2.0325964867	-0.5583491422	-0.246872
H	 0.7507936649	 2.0971119676	 0.1619792608	 0.12403
H	-0.592741534	 1.8496192401	-0.958757146	 0.128502
H	-0.8813603144	 1.8392164167	 0.7831421848	 0.131908
H	-0.9440434061	-0.4714065067	-0.1125644352	 0.096796
H	 1.3147606764	-0.4505264227	-1.8773802006	 0.095957
H	 3.0468140094	-0.8520046859	 0.399480619	 0.122819
H	 2.421503945	 0.8270250844	 0.3303825739	 0.118024
H	 0.8074073545	-0.3331693586	 2.2384518396	 0.097115
164.1581	195.3612	257.3808	314.8753	460.6192	481.478	527.5213	646.3133	730.8696	793.9883	817.311	859.499	868.3415	894.4967	937.7874	1000.608	1013.3535	1055.6013	1063.4651	1098.2669	1119.2574	1123.3088	1156.3291	1215.8324	1242.6508	1262.9401	1269.4421	1319.28	1391.8729	1416.4514	1491.4828	1496.1099	1511.0681	1912.7389	3039.5562	3060.3182	3086.6341	3100.9931	3119.3831	3146.6008	3155.9855	3161.3692
CC1C2CC1C(=O)O2	C[C@H]1[C@H]2C[C@@H]1C(=O)O2	
InChI=1S/C6H8O2/c1-3-4-2-5(3)8-6(4)7/h3-5H,2H2,1H3	InChI=1S/C6H8O2/c1-3-4-2-5(3)8-6(4)7/h3-5H,2H2,1H3/t3-,4+,5-/m1/s1
