17
gdb 112204	2.61813	1.33324	0.97141	3.6374	70.7	-0.2437	-0.0414	0.2023	1209.9459	0.133067	-458.927455	-458.918606	-458.917662	-458.961483	31.763	
C	 0.1566436977	 1.5107857954	-0.1827842038	-0.239544
O	-0.3311443029	 0.2190941307	-0.4840932999	-0.245937
C	 0.5843327973	-0.5755544759	-1.1798351095	 0.029591
C	 1.7257441652	-1.280010711	-0.3649423551	-0.40008
C	 1.2799281619	-2.6228033063	-0.9869121356	 0.334644
O	 1.7519268011	-3.7192272834	-1.050085962	-0.298122
C	 0.0301262515	-1.959131281	-1.5413561114	 0.308481
C	-1.3625391001	-2.4207267353	-1.413440231	-0.23516
O	-0.7173460357	-2.3122000083	-2.6809771086	-0.262479
H	 1.0349871123	 1.4724105128	 0.4780214862	 0.113019
H	 0.4318118788	 2.0604753702	-1.0954563501	 0.113712
H	-0.6463152275	 2.0472481633	 0.3272409989	 0.134442
H	 0.9794711086	-0.0499493307	-2.0616334159	 0.089986
H	 2.7562698928	-0.9854109822	-0.5715008881	 0.136081
H	 1.542818357	-1.2487116293	 0.7137006594	 0.142133
H	-1.55536828	-3.4356801671	-1.0715011834	 0.136454
H	-2.1270136078	-1.6755425518	-1.2069591303	 0.142781
73.7658	98.0348	147.9074	195.3643	204.7088	237.6399	316.2098	358.9529	447.7708	502.5545	572.5829	627.0651	718.6893	794.0639	856.4824	921.8499	928.4833	1001.6184	1018.5599	1063.9178	1097.8978	1133.311	1136.0713	1153.5108	1166.1574	1183.7984	1204.6555	1243.7044	1255.9435	1382.1763	1408.3618	1433.4725	1482.4389	1488.5253	1508.1416	1514.3821	1895.9886	2982.5527	3001.1936	3034.23	3065.4621	3097.2342	3123.3679	3131.7533	3199.1127
COC1CC(=O)C11CO1	CO[C@H]1CC(=O)[C@]21CO2	
InChI=1S/C6H8O3/c1-8-5-2-4(7)6(5)3-9-6/h5H,2-3H2,1H3	InChI=1S/C6H8O3/c1-8-5-2-4(7)6(5)3-9-6/h5H,2-3H2,1H3/t5-,6-/m0/s1
