19
gdb 87011	4.14905	0.70432	0.64224	4.8615	73.77	-0.2674	0.0105	0.2778	1698.3953	0.15782	-460.168509	-460.15908	-460.158136	-460.204309	33.492	
O	-0.4834297199	 1.3832589764	-0.0284498484	-0.428195
C	-0.234285529	-0.0005793992	-0.0269513366	 0.150504
C	 0.3177520397	-0.6663788002	 1.266877078	-0.293493
C	-0.7136545425	-1.8101201944	 1.0494840582	 0.030136
C	-1.4057801549	-2.3663050988	 2.2765432529	-0.109551
O	-2.3621074433	-3.3697474188	 1.9028630758	-0.177254
C	-3.6698012696	-3.1046247699	 2.0734720733	 0.173998
O	-4.5320000945	-3.8699746255	 1.7629883179	-0.27592
C	-1.5056853047	-0.8623981012	 0.1043715913	-0.25439
H	 0.3496929864	 1.845289465	-0.1656474433	 0.284158
H	 0.3580331345	-0.3025126494	-0.9023468225	 0.072458
H	 1.3775975624	-0.9273392005	 1.3141108743	 0.099887
H	 0.0561096663	-0.0517619591	 2.1347237099	 0.106625
H	-0.2700631474	-2.6375028811	 0.487805988	 0.091619
H	-0.6884488289	-2.8522400673	 2.9464596445	 0.123234
H	-1.9052322391	-1.5644662539	 2.8374015151	 0.107255
H	-3.8492743731	-2.1128914791	 2.5343951648	 0.075769
H	-2.2690889244	-0.2989497296	 0.6512283582	 0.109828
H	-1.946824608	-1.2768072535	-0.8033512915	 0.113332
39.1829	59.6216	93.0237	153.143	201.9231	266.0918	332.5783	378.6783	382.7643	415.4069	459.9318	608.5029	675.1283	796.1769	811.9936	894.8421	942.8097	954.9234	1026.4904	1028.4109	1045.4634	1058.3249	1087.6219	1113.4593	1146.2026	1182.3991	1220.4706	1234.1406	1251.0694	1268.3943	1273.2674	1312.2514	1326.7904	1368.3323	1402.0719	1430.7916	1437.6453	1469.8812	1494.5883	1505.7541	1866.0035	2939.7377	2998.7702	3013.9663	3049.1215	3056.9118	3064.6506	3079.9705	3112.5212	3125.7593	3817.0959
OC1CC(COC=O)C1	O[C@H]1C[C@@H](COC=O)C1	
InChI=1S/C6H10O3/c7-4-9-3-5-1-6(8)2-5/h4-6,8H,1-3H2	InChI=1S/C6H10O3/c7-4-9-3-5-1-6(8)2-5/h4-6,8H,1-3H2/t5-,6+
