19
gdb 44797	2.74854	1.48748	1.16687	2.9784	80.51	-0.2388	-0.0081	0.2306	1112.6035	0.159317	-385.87016	-385.862044	-385.8611	-385.903247	31.387	
O	 0.6456628078	 0.2139436794	 0.8722840018	-0.331395
C	 0.3562047722	 1.3384733363	 0.5626204069	 0.357047
C	-0.9965604387	 2.0219425592	 0.2344012238	-0.350568
C	-0.1762714363	 3.1937953585	-0.3211086893	-0.106801
C	 0.6522540204	 3.7640035985	 0.773374317	-0.330531
C	 1.1698990601	 2.5042708203	 0.0797191013	 0.26322
C	 2.5012859087	 2.4427995427	-0.5775705848	-0.122554
C	 3.5600299217	 1.4868776773	-0.0687667499	-0.267836
C	 2.9123990144	 1.2477110482	-1.4073894143	-0.276908
H	-1.5307476967	 1.4389010113	-0.5214517815	 0.131388
H	-1.675601178	 2.2421275284	 1.0639584075	 0.118523
H	-0.3760787654	 3.7130860104	-1.2489490082	 0.106575
H	 1.2368680243	 4.647185634	 0.5339158777	 0.12439
H	 0.3024558828	 3.7318069073	 1.80240301	 0.119461
H	 2.8636747521	 3.40703948	-0.9243240852	 0.079577
H	 4.5863195689	 1.8356677935	-0.038866038	 0.108477
H	 3.2763530298	 0.8211843535	 0.7374290495	 0.140561
H	 2.219282611	 0.417544969	-1.4785772088	 0.128669
H	 3.4892883911	 1.4331849921	-2.3066832052	 0.108705
55.7008	123.8702	160.1134	187.7999	343.157	392.1791	437.7537	452.1597	570.2814	652.036	668.1306	780.864	795.993	826.8473	833.8014	867.7961	916.0462	922.1276	951.0509	987.171	1010.0005	1021.1231	1064.2786	1066.0046	1080.3613	1090.6893	1113.0878	1133.8385	1143.5994	1201.7113	1205.2314	1222.1958	1242.0778	1302.4792	1354.741	1432.0814	1459.3572	1461.8994	1497.6096	1501.9117	1857.4773	3052.012	3107.2566	3108.2138	3133.8734	3137.8205	3142.9111	3194.3812	3208.642	3222.2868	3237.977
O=C1CC2CC12C1CC1	O=C1C[C@H]2C[C@@]12C1CC1	
InChI=1S/C8H10O/c9-7-3-6-4-8(6,7)5-1-2-5/h5-6H,1-4H2	InChI=1S/C8H10O/c9-7-3-6-4-8(6,7)5-1-2-5/h5-6H,1-4H2/t6-,8-/m0/s1
