20
gdb 91961	2.36446	1.78114	1.42865	2.3682	78.62	-0.2258	0.069	0.2947	1014.5362	0.172183	-403.113121	-403.105246	-403.104302	-403.144996	32.11	
O	 0.0103507863	 1.4120907768	-0.2196127113	-0.422526
C	 0.0317969901	-0.0009121627	-0.0028529203	-0.016784
C	 0.5545379346	-0.3913144442	 1.40041746	-0.251195
C	-0.6970930689	-0.4851398405	 2.2610115314	-0.026201
C	-1.6876805984	 0.6190402506	 2.1801171711	-0.258116
N	-1.8874503009	-0.6187885072	 1.3959955867	-0.14944
C	-1.4052724018	-0.5153546372	 0.0226280157	 0.406278
C	-2.3869014376	-0.1935708739	-1.0613267651	-0.309444
C	-1.8536376044	-1.6010440511	-0.9210987953	-0.328405
H	 0.9181650278	 1.7303282888	-0.1750927464	 0.281341
H	 0.617317181	-0.4827621353	-0.7969548108	 0.069884
H	 1.0432706672	-1.3710553112	 1.3553028247	 0.108184
H	 1.2914386978	 0.3273639624	 1.7749214023	 0.095453
H	-0.6652886841	-1.1204766498	 3.141833307	 0.086346
H	-2.4041761541	 0.7514917625	 2.985838258	 0.107687
H	-1.4060595859	 1.5207506781	 1.6471604614	 0.138952
H	-3.4102699844	-0.0114868066	-0.7540007148	 0.120378
H	-2.0420324649	 0.4185457296	-1.8865595091	 0.121245
H	-1.1498770837	-1.9640594096	-1.6630470065	 0.106028
H	-2.5180523057	-2.3515241097	-0.5091394587	 0.120337
114.6993	218.0221	227.7858	280.2734	313.1135	336.2383	395.1699	438.0736	511.2604	574.9016	700.2687	744.5169	779.8855	813.6957	838.7571	863.094	906.3491	930.5341	938.8261	978.7154	992.2425	1027.5181	1032.5348	1054.5616	1076.1671	1087.7643	1117.5826	1120.0518	1168.1927	1189.9368	1196.1707	1211.9373	1237.018	1276.3723	1302.6264	1333.1948	1362.8149	1389.734	1425.8282	1456.2102	1475.8855	1496.1579	1504.1152	3006.4979	3040.5094	3079.8081	3117.1475	3130.8388	3142.3535	3143.6278	3216.7729	3219.805	3234.4775	3808.8816
OC1CC2CN2C11CC1	O[C@H]1C[C@H]2CN2C21CC2	
InChI=1S/C7H11NO/c9-6-3-5-4-8(5)7(6)1-2-7/h5-6,9H,1-4H2	InChI=1S/C7H11NO/c9-6-3-5-4-8(5)7(6)1-2-7/h5-6,9H,1-4H2/t5-,6-,8?/m0/s1
