20
gdb 104365	2.42515	1.43492	1.18715	1.5902	75.71	-0.2657	0.0239	0.2896	1153.2901	0.170231	-440.311577	-440.302238	-440.301294	-440.345664	34.518	
C	 0.0484653181	 1.55825685	 0.1513122451	-0.401137
C	-0.0533424801	 0.041721112	-0.0312230601	-0.196189
C	 0.6622260431	-0.4990822749	-1.2741198344	 0.265608
C	 0.1337198491	 0.0807695824	-2.5934566771	-0.427319
O	 2.0751222586	-0.2427579337	-1.1341512878	-0.284079
C	 2.7503473393	-1.3466206703	-1.6560637209	 0.005829
O	 1.8928480593	-2.4791357043	-1.4937364206	-0.24389
C	 0.6208444395	-2.0220992721	-1.3173909077	 0.37796
N	-0.4160574606	-2.730102138	-1.2102488418	-0.542303
H	 1.093481233	 1.8812685996	 0.1564221771	 0.132516
H	-0.4731542174	 2.1051041389	-0.6397930062	 0.117703
H	-0.4012982761	 1.854361719	 1.1035582892	 0.116205
H	 0.3796350266	-0.4618729362	 0.839676367	 0.104845
H	-1.0980454954	-0.2797831114	-0.0901920254	 0.125131
H	 0.2721596634	 1.1637370229	-2.618318704	 0.1297
H	 0.660689743	-0.3499800144	-3.4503328957	 0.119061
H	-0.9289422769	-0.1509400693	-2.7017036114	 0.142772
H	 2.9759330528	-1.2337167522	-2.7286548213	 0.103247
H	 3.6725905029	-1.5134445955	-1.0920731478	 0.128266
H	-0.1950631422	-3.7237135125	-1.2872840763	 0.226075
77.8526	102.0917	171.0288	190.453	214.5535	227.59	283.4704	327.6755	345.47	422.6573	528.943	606.4699	693.0155	725.2669	752.5707	778.8841	886.5126	892.4977	921.2966	988.573	1003.9179	1013.6491	1034.2978	1070.1307	1131.7824	1171.7948	1184.3032	1193.164	1222.9239	1231.1381	1311.3877	1318.2211	1380.7758	1400.6885	1410.2051	1445.178	1473.036	1487.7582	1492.2947	1504.7805	1510.6947	1548.2265	1788.9557	2974.4985	3043.1562	3047.1635	3049.668	3085.8334	3088.8351	3109.9576	3116.6859	3121.7823	3138.1143	3480.8774
CCC1(C)OCOC1=N	CC[C@@]1(C)OCO[C]1[NH]	
InChI=1S/C6H11NO2/c1-3-6(2)5(7)8-4-9-6/h7H,3-4H2,1-2H3	InChI=1S/C6H11NO2/c1-3-6(2)5(7)8-4-9-6/h7H,3-4H2,1-2H3/t6-/m1/s1
