20
gdb 8189	2.60479	2.21849	1.5899	1.7953	75.04	-0.2253	0.078	0.3033	919.0849	0.17551	-348.969812	-348.961227	-348.960283	-349.002028	32.792	
C	-0.0037127964	 1.5331282577	 0.0203403045	-0.469339
C	 0.0326293513	 0.0169127567	 0.0401375643	 0.253399
C	-1.1774792569	-0.6431202975	-0.6006902578	-0.462085
C	 1.3222735136	-0.7350919889	-0.1736426024	 0.016286
O	 2.4533011658	-0.0026153927	 0.3020260467	-0.289874
C	 1.9313767797	-0.0659906654	 1.6551327842	-0.140308
C	 0.6579189454	-0.7775206076	 1.1930811914	 0.21819
C	-0.0103214985	-1.8514012745	 2.0048479646	-0.500589
H	 0.96661831	 1.9612318507	 0.2783247248	 0.135952
H	-0.2626194518	 1.8926748801	-0.9819964246	 0.11239
H	-0.7555468014	 1.9241402785	 0.7156868189	 0.1095
H	-1.3403028815	-0.2362964678	-1.6046581339	 0.118431
H	-1.0548286228	-1.7258117547	-0.7021620991	 0.115816
H	-2.0893518595	-0.4653475912	-0.0187142702	 0.118083
H	 1.4921451557	-1.4800878574	-0.9451974214	 0.095059
H	 2.5686347796	-0.7053613429	 2.278503073	 0.103345
H	 1.8397110938	 0.9231232529	 2.1195210041	 0.101095
H	-0.4962912375	-1.4254054234	 2.8918159359	 0.120694
H	-0.7793245273	-2.3831026036	 1.439818128	 0.124225
H	 0.7182827087	-2.5920918789	 2.354093089	 0.119728
147.0758	176.7706	179.3164	208.255	270.9949	289.4939	303.7071	351.2737	380.9057	447.3446	544.0631	637.8637	674.6279	757.1951	890.9214	922.801	971.8009	976.1802	987.7329	994.8227	998.2435	1032.6732	1050.2614	1126.9083	1155.8452	1162.4172	1198.8342	1218.384	1244.6313	1305.3318	1331.4706	1405.1708	1412.5791	1427.493	1445.437	1483.2893	1488.6959	1490.7729	1498.2035	1504.6165	1516.6163	1522.7697	3015.0211	3022.0243	3025.1891	3030.554	3062.5711	3073.8456	3082.3078	3086.6242	3099.8119	3120.5979	3131.0101	3156.7442
CC1(C)C2OCC12C	CC1(C)[C@H]2OC[C@@]12C	
InChI=1S/C7H12O/c1-6(2)5-7(6,3)4-8-5/h5H,4H2,1-3H3	InChI=1S/C7H12O/c1-6(2)5-7(6,3)4-8-5/h5H,4H2,1-3H3/t5-,7-/m1/s1
