16
gdb 16204	3.16139	2.31311	1.52755	2.5689	65.94	-0.2464	0.0162	0.2626	831.8892	0.133262	-379.918918	-379.912103	-379.911159	-379.949956	26.039	
N	-0.1323966808	 1.2191018151	-0.3308234227	-0.56932
C	-0.0584150114	-0.0093395208	-0.0430736188	 0.374175
O	 1.0805785504	-0.7078768256	 0.2061018072	-0.243793
C	 0.7620108795	-2.0734099805	 0.5606571596	-0.092523
C	-0.6515712262	-2.3309398393	 0.0178364025	-0.320153
C	-1.2339388759	-0.9302225159	 0.0335710807	 0.265698
C	-2.4424243003	-0.4813195231	 0.7824403801	-0.277153
N	-2.4580478179	-0.585419281	-0.6803269887	-0.36079
H	 0.7857175506	 1.6625837454	-0.3309533282	 0.226838
H	 1.5308030851	-2.7129040116	 0.1233283498	 0.126181
H	 0.8046868508	-2.1657629057	 1.6521407994	 0.118125
H	-0.6145202872	-2.7062934682	-1.0097423562	 0.127998
H	-1.208825794	-3.0471838671	 0.6241610186	 0.118488
H	-3.0444839779	-1.2214536105	 1.3035669617	 0.119232
H	-2.4090773617	 0.5061120329	 1.2332625917	 0.134886
H	-2.3240000731	 0.3447450759	-1.0789758066	 0.252109
101.9416	179.6101	268.0723	273.0247	351.224	462.2928	561.6141	670.4377	705.3451	710.3927	833.1261	862.976	881.1776	923.148	951.4669	966.8258	1001.5073	1010.1018	1078.8117	1094.2756	1115.6126	1134.6632	1201.2035	1230.6709	1262.0849	1292.539	1309.8655	1350.7483	1383.6844	1433.3319	1490.9314	1500.8336	1523.1321	1773.0587	3039.66	3059.9939	3107.1315	3112.0814	3123.1025	3203.2491	3463.0916	3497.1886
N=C1OCCC11CN1	[NH][C]1OCC[C@]21CN2	
InChI=1S/C5H8N2O/c6-4-5(3-7-5)1-2-8-4/h6-7H,1-3H2	InChI=1S/C5H8N2O/c6-4-5(3-7-5)1-2-8-4/h6-7H,1-3H2/t5-/m1/s1
