14
gdb 31900	6.32843	0.91297	0.80263	5.5327	76.66	-0.2241	-0.0339	0.1902	1347.025	0.102203	-432.913887	-432.905617	-432.904673	-432.947309	28.799	
C	 0.078620827	 1.3632681474	 0.0861242307	-0.327405
N	-0.0735655735	-0.0725126175	-0.0816157815	-0.396359
C	-1.2892953726	-0.6506766113	-0.0273440168	 0.527754
N	-2.4601360558	-0.0600077183	-0.0277616185	-0.343204
C	-3.352318425	-1.1062848129	-0.0138357342	-0.169624
C	-2.6886567757	-2.294752181	 0.0030751756	 0.201415
O	-1.3260735025	-1.9990387157	-0.0044919822	-0.227387
C	-3.088104877	-3.6386903086	 0.0291556893	 0.213168
N	-3.43773308	-4.7447024665	 0.05097544	-0.341949
H	 1.0657954871	 1.656886257	-0.2755139702	 0.137845
H	-0.6831589144	 1.8723190179	-0.506424809	 0.171258
H	-0.0303235296	 1.6785582001	 1.1313976647	 0.137324
H	 0.7102991822	-0.6712597929	 0.121213239	 0.267915
H	-4.4194681702	-0.9485264877	-0.012402767	 0.14925
85.1557	98.8965	137.2686	163.7443	231.1518	304.2398	388.4546	452.7765	504.4895	569.3023	626.8009	644.6996	749.5567	763.8552	898.7311	970.0515	991.9408	1106.1806	1151.0315	1164.0191	1216.1723	1223.1049	1285.668	1338.9573	1453.9861	1487.3756	1504.7963	1528.6532	1610.1439	1673.0968	2331.7073	3026.5174	3109.5925	3151.6948	3268.2343	3649.8317
CNC1=NC=C(O1)C#N	CNc1ncc(o1)C#N	
InChI=1S/C5H5N3O/c1-7-5-8-3-4(2-6)9-5/h3H,1H3,(H,7,8)	InChI=1S/C5H5N3O/c1-7-5-8-3-4(2-6)9-5/h3H,1H3,(H,7,8)
