16
gdb 18941	6.50423	1.50437	1.43999	0.7361	75.26	-0.2523	0.0486	0.3009	890.9711	0.130744	-309.355596	-309.349165	-309.348221	-309.385952	25.923	
C	-0.081330342	-1.2793185206	-0.0979857931	-0.445755
C	-0.063727718	-0.0768929117	-0.0598967427	 0.297948
C	-0.0394225888	 1.3716720634	-0.0110343901	-0.202502
C	 0.018783163	 2.072985939	 1.3731332525	-0.03466
C	 1.5537073903	 1.8032367028	 1.5436201113	-0.038661
C	 1.8484673859	 3.2840707393	 1.8556926665	-0.267499
C	 0.7426687967	 3.3304910851	 0.7826323282	-0.056169
C	 1.3334258143	 2.0965922958	 0.0194021423	-0.03466
H	-0.0983233254	-2.3403205671	-0.133029225	 0.191076
H	-0.7665756569	 1.8020063929	-0.7096870854	 0.091779
H	-0.7333002271	 2.0640848489	 2.1631076379	 0.077569
H	 2.0020722372	 0.9034396999	 1.9633477391	 0.083671
H	 1.5800850168	 3.6405172154	 2.8553660818	 0.094171
H	 2.8334413114	 3.6630221745	 1.5647416811	 0.094171
H	 0.2549370148	 4.192145968	 0.3240092439	 0.071953
H	 2.1009503378	 2.1149791143	-0.7554115782	 0.077569
127.6673	158.5722	354.4308	386.1859	514.5023	523.9787	614.5227	634.1098	737.0428	781.3583	850.4714	851.2525	859.925	899.6658	905.7909	926.318	968.417	1001.7025	1028.0048	1034.9277	1062.2884	1121.6985	1122.7183	1146.9357	1159.1474	1172.6405	1186.5577	1216.7174	1242.0415	1272.0155	1309.0838	1364.5207	1510.2074	2230.0587	3037.0629	3038.6367	3095.0918	3096.8338	3105.3402	3110.0296	3126.6868	3504.683
C#CC1C2C3CC2C13	C#C[C@H]1[C@H]2[C@@H]3C[C@H]2[C@H]13	
InChI=1S/C8H8/c1-2-4-7-5-3-6(7)8(4)5/h1,4-8H,3H2	InChI=1S/C8H8/c1-2-4-7-5-3-6(7)8(4)5/h1,4-8H,3H2/t4-,5-,6+,7-,8+
