18
gdb 95742	3.01835	1.16223	0.88563	3.6112	81.82	-0.2654	-0.043	0.2223	1294.5485	0.148477	-401.980622	-401.972205	-401.971261	-402.01377	31.534	
C	 0.0178904101	 1.5362858593	-0.0630490129	-0.398354
C	 0.0027642425	 0.0088611961	-0.0028178743	 0.090453
O	 0.6170564589	-0.4615186522	-1.1906462725	-0.258716
C	 0.9306013084	-1.8426251956	-1.1520695167	-0.093221
C	 2.007750437	-2.1293455882	-0.1048271844	-0.303701
C	 1.6166214053	-1.466452056	 1.2007254544	 0.148008
C	 0.678176337	-0.5107744073	 1.2376300181	-0.140496
C	 2.2655142686	-1.9042182985	 2.3957127476	 0.213772
N	 2.8114662809	-2.281871703	 3.3451545863	-0.333591
H	 1.0464731458	 1.906558419	-0.0608774001	 0.133557
H	-0.4722909327	 1.8705841418	-0.9805803108	 0.134292
H	-0.5128326166	 1.9610524659	 0.7937688172	 0.12147
H	-1.0517186124	-0.3288954523	 0.0228639907	 0.087654
H	 0.0283553825	-2.435599763	-0.9313757742	 0.098444
H	 1.2740036802	-2.1091202224	-2.1549580978	 0.117365
H	 2.1194265265	-3.2095396419	 0.0402972662	 0.127184
H	 2.9806663777	-1.7514975548	-0.4411976196	 0.135106
H	 0.3735020102	-0.073230337	 2.1835865029	 0.120774
100.9513	116.7378	155.6171	235.459	285.0356	305.3648	358.0711	407.3633	468.5089	543.4299	570.944	589.7965	651.3607	792.9161	834.649	905.066	909.898	947.1793	999.8726	1030.805	1080.1785	1101.2317	1122.3097	1164.7406	1181.8488	1240.1051	1292.4104	1310.4751	1346.4486	1356.2384	1375.1594	1404.6385	1414.922	1470.3695	1483.7959	1496.5434	1501.2442	1695.7477	2335.6707	2912.2896	2978.9538	3036.9799	3048.5375	3077.5778	3096.1367	3126.2616	3132.6795	3181.2809
CC1OCCC(=C1)C#N	C[C@H]1OCCC(=C1)C#N	
InChI=1S/C7H9NO/c1-6-4-7(5-8)2-3-9-6/h4,6H,2-3H2,1H3	InChI=1S/C7H9NO/c1-6-4-7(5-8)2-3-9-6/h4,6H,2-3H2,1H3/t6-/m1/s1
