17
gdb 70067	2.89791	1.51014	1.13632	3.743	74.96	-0.2452	-0.0633	0.1819	1080.0513	0.135547	-421.848652	-421.840757	-421.839812	-421.881037	30.386	
C	-0.057917251	 1.5293590894	 0.0389561768	-0.465747
C	 0.0195786132	 0.0202052965	 0.0668376012	 0.380051
C	-1.0579872193	-0.7216098999	-0.6975298073	-0.398576
C	-1.079217592	-2.2412320089	-0.5191093171	 0.378474
O	-1.58638788	-2.9593199906	-1.3555584858	-0.327031
C	-0.5360258371	-2.7825334267	 0.7456807508	-0.18079
C	 0.2388158862	-2.0517094446	 1.556635505	-0.029401
C	 0.6624393624	-0.6763883173	 1.2032091862	-0.066829
O	 1.3336455494	-0.5242204162	-0.0682786851	-0.284543
H	 0.7758398991	 1.9669083482	 0.5932401111	 0.132091
H	-0.0106737821	 1.8943830034	-0.9927611821	 0.133369
H	-0.9970634265	 1.8816932581	 0.4777189045	 0.12538
H	-2.0427591647	-0.3568768682	-0.3735693275	 0.134362
H	-0.9889768274	-0.5077414919	-1.7688445535	 0.141029
H	-0.7942286378	-3.8129570435	 0.9668829299	 0.11888
H	 0.607650616	-2.4643139633	 2.4917309078	 0.114807
H	 1.0996861817	-0.0808053346	 2.002308205	 0.094474
79.0751	168.5592	207.7736	279.4839	321.9635	346.7035	412.5602	461.5549	490.9032	556.2189	612.3124	684.4781	742.5639	806.8414	817.3489	882.3978	912.7191	962.2149	981.0234	1009.6972	1038.4859	1074.7519	1102.8741	1155.9114	1211.0809	1220.9276	1256.2665	1332.3924	1344.4435	1404.3382	1411.5992	1433.5536	1460.1317	1486.3161	1498.4836	1681.8802	1778.7001	3025.738	3037.5522	3086.1584	3102.3423	3125.223	3129.2357	3167.4229	3196.1629
CC12CC(=O)C=CC1O2	C[C@]12CC(=O)C=C[C@H]1O2	
InChI=1S/C7H8O2/c1-7-4-5(8)2-3-6(7)9-7/h2-3,6H,4H2,1H3	InChI=1S/C7H8O2/c1-7-4-5(8)2-3-6(7)9-7/h2-3,6H,4H2,1H3/t6-,7+/m1/s1
