14
gdb 44408	3.83727	1.51712	1.49097	3.5156	67.04	-0.2517	-0.0392	0.2125	890.4132	0.100799	-436.550717	-436.544271	-436.543327	-436.581339	26.246	
O	-0.1580945474	 0.0297414449	-0.2725758868	-0.308477
C	-0.0932036691	 1.1997459124	-0.084652813	 0.342779
N	-1.0884706105	 2.2345547914	-0.0634517561	-0.368094
C	-0.2226774421	 3.0777819359	 0.7885151732	 0.026263
C	 0.8703744143	 4.2470762121	 0.6968309997	-0.066677
O	 1.8330818099	 3.1627801823	 1.097226087	-0.347107
C	 0.9532072828	 2.3742728648	 0.1658608452	 0.169261
C	 1.2002216069	 3.1164438423	-1.1605769737	-0.109277
C	 1.1464927467	 4.3939245383	-0.7849241665	-0.054801
H	-2.066864087	 2.0280457211	 0.1024696695	 0.256497
H	-0.353750638	 2.8406287205	 1.8468641192	 0.115374
H	 0.882536067	 5.0940749655	 1.3811800182	 0.095809
H	 1.3652201536	 2.6508481273	-2.1201105827	 0.125598
H	 1.248585153	 5.3126845313	-1.3423243932	 0.122852
135.6342	257.5026	289.8111	419.3993	515.94	557.418	579.157	600.0398	657.0106	704.3935	731.4279	758.748	810.8939	835.2586	879.233	905.2905	923.9951	963.1221	979.9859	1015.9764	1059.4283	1109.2674	1116.1529	1165.2126	1208.8757	1242.9508	1282.9261	1318.84	1407.1057	1617.0342	1913.9613	3076.7555	3140.9574	3239.8583	3267.2944	3558.6627
O=C1NC2C3OC12C=C3	O=C1N[C@@H]2[C@H]3O[C@@]12C=C3	
InChI=1S/C6H5NO2/c8-5-6-2-1-3(9-6)4(6)7-5/h1-4H,(H,7,8)	InChI=1S/C6H5NO2/c8-5-6-2-1-3(9-6)4(6)7-5/h1-4H,(H,7,8)/t3-,4+,6+/m0/s1
