16
gdb 45877	2.61086	1.80056	1.24695	2.0656	73.58	-0.2443	-0.0218	0.2225	992.4787	0.126892	-434.053884	-434.046472	-434.045528	-434.086091	28.192	
N	-0.0849955635	 1.2445876646	 0.5999265387	-0.512453
C	-0.0086975037	 0.0730706728	 0.0965660951	 0.375815
N	 1.1825799401	-0.6308171988	-0.0743378029	-0.37466
C	 1.4933747783	-1.7920304304	-0.7833541876	 0.107236
N	 0.8896618065	-2.4357580751	-1.6867876255	-0.231102
C	-0.3794991666	-2.0489347836	-2.2650692926	-0.218308
C	-1.4786381976	-1.570534045	-1.3347086831	 0.037649
O	-1.4383696097	-1.9893160328	 0.0240068759	-0.245424
C	-1.296379639	-0.5890454921	-0.2538110434	 0.022952
H	 0.8383092692	 1.6373398541	 0.7964567586	 0.207804
H	 1.9641177749	-0.2375796859	 0.4303337395	 0.247564
H	 2.4789248921	-2.1570685838	-0.4845514249	 0.114767
H	-0.2156347147	-1.2712673528	-3.0278748051	 0.12209
H	-0.7627661942	-2.921134736	-2.8073001121	 0.123064
H	-2.4739783295	-1.6036658117	-1.7842832361	 0.101746
H	-2.1401179926	 0.0308876365	 0.0383002153	 0.12126
75.3742	116.1752	245.891	288.0148	364.892	441.3283	463.3844	515.0987	555.4445	651.5688	713.034	756.6517	813.7009	869.7279	887.4043	905.6255	947.2757	963.5297	973.4602	1031.8277	1099.9051	1133.655	1143.1151	1204.126	1257.051	1300.7835	1353.6021	1378.052	1413.6449	1463.7267	1475.1581	1491.9862	1497.2396	1709.5508	1780.3351	2990.2151	3046.9429	3083.2119	3099.8491	3155.4631	3445.4367	3596.6813
N=C1NC=NCC2OC12	[NH][C]1NC=NC[C@H]2O[C@@H]12	
InChI=1S/C5H7N3O/c6-5-4-3(9-4)1-7-2-8-5/h2-4H,1H2,(H2,6,7,8)	InChI=1S/C5H7N3O/c6-5-4-3(9-4)1-7-2-8-5/h2-4H,1H2,(H2,6,7,8)/t3-,4-/m1/s1
