18
gdb 102764	1.92704	1.01544	0.73691	3.6673	78.95	-0.249	0.0252	0.2743	1567.4947	0.145516	-439.081696	-439.071066	-439.070122	-439.119837	35.794	
C	 0.2061066317	 1.2916050404	 0.0470060793	-0.498814
C	 0.0546123984	-0.156322929	 0.0092875795	 0.048189
C	-0.0313539276	-1.3582030958	-0.0072740938	 0.082628
C	-0.2110764308	-2.8151351297	-0.0487787093	-0.166318
C	-1.7149284361	-3.1537727314	-0.005526789	-0.076642
O	-2.383207976	-2.6446438487	-1.1457983489	-0.424424
N	 0.3765331627	-3.4027244495	-1.2467034956	-0.253968
C	 1.4847199368	-4.1875161851	-1.2179880468	 0.158859
O	 2.1194901498	-4.4660076332	-0.2223978514	-0.32605
H	 1.1360211413	 1.5760091331	 0.5508933678	 0.158516
H	 0.2321772928	 1.7149596126	-0.9629017914	 0.152164
H	-0.6221676802	 1.765087412	 0.5850780124	 0.151482
H	 0.3006759933	-3.2824157243	 0.7991066124	 0.144896
H	-1.8381519403	-4.2399777593	-0.0322279515	 0.12216
H	-2.1478885538	-2.7722643461	 0.929464044	 0.104519
H	-2.2995426487	-1.6834885331	-1.1106521718	 0.288639
H	-0.1158369046	-3.2496583496	-2.113459272	 0.255741
H	 1.7498506613	-4.5569742032	-2.2280786539	 0.078423
26.3818	30.6304	87.7707	105.5238	124.0144	220.1986	225.5038	266.8768	314.128	358.6909	414.8603	461.7819	530.6838	571.7604	659.3228	718.1701	836.9862	907.2749	969.5458	1033.5558	1051.2732	1054.0905	1076.2451	1087.3888	1155.4099	1198.6191	1224.0621	1283.3503	1353.2213	1384.7316	1413.5032	1423.4479	1427.7073	1476.8438	1477.905	1495.6959	1511.6423	1801.3259	2363.462	2941.3717	3011.9625	3030.7737	3072.6137	3092.5889	3094.5826	3099.3851	3630.0265	3777.0899
CC#CC(CO)NC=O	CC#C[C@@H](CO)NC=O	
InChI=1S/C6H9NO2/c1-2-3-6(4-8)7-5-9/h5-6,8H,4H2,1H3,(H,7,9)	InChI=1S/C6H9NO2/c1-2-3-6(4-8)7-5-9/h5-6,8H,4H2,1H3,(H,7,9)/t6-/m0/s1
