23
gdb 86399	2.59504	1.29624	0.97872	1.5153	85.73	-0.2483	0.0711	0.3193	1303.372	0.206156	-388.295207	-388.285903	-388.284958	-388.329528	36.382	
C	-0.0006104365	 1.583318471	 0.03658088	-0.404067
C	 0.067912703	 0.0607574628	-0.0551116606	 0.043043
C	 1.0541181194	-0.4835421986	-1.1018476334	-0.250812
C	 1.1857992282	-1.9667145394	-0.7241312871	 0.049108
O	 2.3451443918	-2.615789185	-1.2221868888	-0.440475
C	 1.1850398669	-1.9501368502	 0.8096746711	 0.371731
C	 1.0284832438	-3.2323417355	 1.5830959754	-0.323958
C	 2.355998832	-2.5174670498	 1.5715211255	-0.30075
C	 0.5255840504	-0.6355743559	 1.2517418419	-0.30446
H	 0.9819144627	 2.0038930037	 0.2806656438	 0.113173
H	-0.3286263515	 2.0275596027	-0.9093911116	 0.109831
H	-0.7022286991	 1.9031550867	 0.8147584137	 0.111617
H	-0.9326562762	-0.3152737067	-0.3111215289	 0.070445
H	 0.722062238	-0.3268667216	-2.1339983792	 0.08023
H	 2.0366136555	-0.0074639297	-0.9862132461	 0.101548
H	 0.2866135373	-2.5025722046	-1.0732932249	 0.060806
H	 2.2351058956	-2.731578914	-2.170503622	 0.281879
H	 0.4347501758	-3.2114542166	 2.4917820777	 0.101662
H	 0.9526510441	-4.1563984682	 1.0175881741	 0.108754
H	 3.1623961387	-2.9573612011	 0.9983049785	 0.131227
H	 2.6631775033	-1.9937314372	 2.47148541	 0.099698
H	 1.2539080819	 0.0017452031	 1.7690964347	 0.095682
H	-0.3081655553	-0.790430656	 1.9445002261	 0.094087
30.2274	132.5754	233.3989	235.7773	247.5509	277.6953	284.9738	359.0884	411.8712	427.044	484.6736	511.8288	562.1463	714.0751	785.8474	848.363	849.6621	898.1411	922.5275	932.03	962.7677	967.8525	985.3679	1013.103	1058.1378	1079.8322	1082.6847	1113.2013	1126.431	1158.7303	1167.2154	1195.7688	1234.6426	1257.0354	1262.2761	1276.2165	1294.7733	1334.9428	1352.4475	1375.5383	1391.5232	1412.0079	1432.9195	1461.9929	1487.9631	1497.2227	1497.3621	1500.9244	1504.5214	2944.8272	2999.8854	3021.0864	3022.8056	3028.5765	3067.008	3076.2521	3092.0008	3094.0704	3116.6286	3132.896	3199.8362	3232.0808	3829.1156
CC1CC(O)C2(CC2)C1	C[C@H]1C[C@@H](O)C2(CC2)C1	
InChI=1S/C8H14O/c1-6-4-7(9)8(5-6)2-3-8/h6-7,9H,2-5H2,1H3	InChI=1S/C8H14O/c1-6-4-7(9)8(5-6)2-3-8/h6-7,9H,2-5H2,1H3/t6-,7+/m0/s1
