20
gdb 99180	5.34505	0.78864	0.71418	1.7151	77.32	-0.2155	0.0175	0.2329	1610.5282	0.169907	-440.287566	-440.277943	-440.276999	-440.323302	33.619	
C	 0.0379465326	 1.3905454192	-0.3169094239	-0.239239
O	-0.0595567881	-0.0367310076	-0.2333231086	-0.231169
C	-1.292392978	-0.5157523661	 0.0306333878	 0.451438
O	-2.2657442521	 0.1780752628	 0.1736777532	-0.348505
C	-1.2504609147	-2.0284548437	 0.1592965041	-0.286227
N	-2.5626841416	-2.6132830072	 0.1037423771	-0.058556
C	-3.5122793657	-2.3971372934	 1.2178399703	-0.146974
C	-3.9963392338	-3.8559474971	 1.0366451767	-0.232537
C	-2.6765212004	-4.0766502987	 0.258846513	-0.156143
H	 1.0866114375	 1.6052211582	-0.5227770936	 0.132763
H	-0.5958946712	 1.7737541798	-1.1205393875	 0.142253
H	-0.2706070433	 1.854665519	 0.6234015611	 0.13971
H	-0.6306951638	-2.4294878337	-0.6501433122	 0.132359
H	-0.7080093273	-2.2532095703	 1.1030672891	 0.101378
H	-3.0066042031	-2.2493142591	 2.1872061569	 0.078537
H	-4.2186824778	-1.5801537749	 1.0621304262	 0.121943
H	-4.1481082401	-4.4495993732	 1.9382367395	 0.102762
H	-4.8777048346	-3.9307409181	 0.3973570225	 0.114554
H	-2.7078671833	-4.6390722783	-0.6806026235	 0.101304
H	-1.8890711411	-4.5067314476	 0.9015946018	 0.080349
37.6905	80.6263	118.1256	122.3295	161.1511	199.855	276.8215	321.2988	341.026	389.0875	595.7526	686.9616	718.7673	787.0853	844.5694	906.3078	930.1127	937.8695	984.1656	1010.1255	1029.0472	1098.5115	1130.0002	1147.2897	1179.8003	1201.6216	1208.2272	1210.9758	1232.1413	1252.183	1261.8914	1268.7087	1298.5863	1348.1096	1405.0765	1464.3024	1474.931	1482.309	1488.9863	1498.2123	1505.048	1533.2217	1828.1085	2875.5304	2950.7614	2963.1253	3051.5124	3054.7757	3068.0655	3085.6804	3107.6532	3125.7076	3142.3489	3158.5401
COC(=O)CN1CCC1	COC(=O)CN1CCC1	
InChI=1S/C6H11NO2/c1-9-6(8)5-7-3-2-4-7/h2-5H2,1H3	InChI=1S/C6H11NO2/c1-9-6(8)5-7-3-2-4-7/h2-5H2,1H3
