23
gdb 116361	2.99478	1.13889	0.87822	0.8175	88.06	-0.2314	0.0213	0.2527	1399.6788	0.20657	-388.303353	-388.294018	-388.293074	-388.337627	35.523	
C	-0.0035306551	 1.5755338999	 0.2110293821	-0.388249
C	-0.0028300942	 0.0674107927	-0.0469933459	-0.177181
C	-1.4065813676	-0.5452544655	-0.0524028478	 0.129976
C	-1.3693446528	-2.0392087799	-0.4079151837	-0.247943
C	-2.7003060219	-2.734943947	-0.567255742	-0.068851
C	-3.7898905476	-2.6130751869	 0.1924355775	-0.053956
C	-3.9695866388	-1.7384405529	 1.4090908723	-0.251431
C	-3.3689472072	-0.3338454959	 1.3182060595	-0.06823
O	-1.9583923635	-0.3119078122	 1.2377735955	-0.256592
H	 1.0161507984	 1.9718230595	 0.2354928947	 0.107393
H	-0.5501686917	 2.1110263038	-0.5737307907	 0.107294
H	-0.4832939902	 1.7990840291	 1.1667606603	 0.131917
H	 0.4750767974	-0.1502981978	-1.0095808369	 0.091262
H	 0.5906271804	-0.4425546213	 0.7223035819	 0.101828
H	-2.0245106154	-0.0216465527	-0.8026385123	 0.062001
H	-0.8028285489	-2.1476059067	-1.3401903995	 0.097207
H	-0.7781425261	-2.5519804484	 0.3657315378	 0.115022
H	-2.7469588242	-3.4492866565	-1.3870410553	 0.08331
H	-4.6449478318	-3.2364051848	-0.0616895281	 0.083485
H	-5.040350274	-1.6278583959	 1.6205625158	 0.097806
H	-3.5385858532	-2.2382294947	 2.2891633237	 0.117995
H	-3.8070950038	 0.2026197455	 0.461419394	 0.087542
H	-3.6233668983	 0.2222984385	 2.2276976571	 0.098395
76.9822	98.8378	108.136	187.6794	231.7881	303.1294	343.6125	348.3145	393.4382	443.2577	488.4298	543.1758	688.5829	717.4439	757.5015	805.7305	862.6236	907.1513	924.4749	959.1037	992.3517	1001.7994	1033.8258	1057.9271	1075.5154	1080.6342	1120.9882	1146.6715	1154.0569	1231.7614	1241.4712	1262.4779	1297.6063	1305.9628	1326.4098	1368.3542	1373.8686	1387.0505	1395.0691	1403.8921	1422.5413	1435.9921	1459.2483	1465.1581	1477.6648	1491.196	1496.4748	1510.8075	1727.3953	2949.8813	2977.591	3001.7133	3004.1654	3027.2469	3035.3343	3051.8366	3054.5083	3060.1863	3067.4269	3099.2049	3127.6242	3129.179	3154.1031
CCC1CC=CCCO1	CC[C@H]1CC=CCCO1	
InChI=1S/C8H14O/c1-2-8-6-4-3-5-7-9-8/h3-4,8H,2,5-7H2,1H3	InChI=1S/C8H14O/c1-2-8-6-4-3-5-7-9-8/h3-4,8H,2,5-7H2,1H3/t8-/m0/s1
