18
gdb 105927	3.39713	1.62168	1.42776	2.3678	74.01	-0.2127	0.0789	0.2916	963.2047	0.148369	-401.838601	-401.831432	-401.830488	-401.870305	28.359	
C	 0.2525970403	 1.2621583811	 0.2080487343	-0.260354
O	-0.2432613463	 0.0546584418	-0.3524331468	-0.289164
C	 0.594482084	-0.5248643191	-1.2642565685	 0.435537
C	 0.8125082994	-0.0012276258	-2.7126058902	-0.178634
C	 0.2270026839	-1.3647722554	-2.4357932215	-0.117162
N	 1.6347348421	-1.9454101933	-2.4371478963	-0.177443
C	 2.1946075953	-0.606966625	-2.9767041331	-0.002143
C	 3.0618978245	-0.4601154216	-1.7114483623	-0.25135
C	 1.9262601824	-1.2784035771	-1.0724149107	-0.087327
H	 1.1751933501	 1.0937454918	 0.7798783117	 0.117601
H	 0.4520089764	 2.0109658303	-0.5704424748	 0.112962
H	-0.5182913474	 1.6375528664	 0.8840033544	 0.132033
H	 0.3339822775	 0.8965120064	-3.082220958	 0.091556
H	-0.6754015509	-1.8739460511	-2.7487320462	 0.103041
H	 2.6176202408	-0.5893081219	-3.9819216517	 0.07829
H	 3.9809371685	-1.0466710872	-1.7919676841	 0.114665
H	 3.2774241047	 0.540458694	-1.3281192872	 0.0967
H	 2.0615086348	-1.9188727843	-0.200483999	 0.081192
90.6733	157.7489	167.6237	342.9173	390.6536	428.2321	547.999	629.8713	722.2462	773.9583	784.6343	802.9259	869.1529	878.404	908.3703	919.2865	941.5914	973.1736	994.3023	1013.2231	1035.5993	1054.9062	1070.3947	1089.1975	1132.4898	1159.0606	1178.3876	1187.86	1205.6959	1222.0644	1233.4672	1259.9178	1296.7045	1311.7452	1418.2424	1476.3337	1484.8304	1495.5657	1505.3611	2997.8008	3053.9559	3059.3591	3103.6093	3114.1947	3121.3758	3127.4842	3190.7135	3203.2935
COC12C3C1N1C3CC21	CO[C@]12[C@@H]3[C@H]1N1[C@@H]3C[C@@H]21	
InChI=1S/C7H9NO/c1-9-7-4-2-3-5(7)6(7)8(3)4/h3-6H,2H2,1H3	InChI=1S/C7H9NO/c1-9-7-4-2-3-5(7)6(7)8(3)4/h3-6H,2H2,1H3/t3-,4+,5+,6-,7-/m1/s1
