16
gdb 23494	3.36642	1.48124	1.26208	2.1449	72.05	-0.2307	0.0131	0.2438	1000.2084	0.125394	-437.804783	-437.797736	-437.796792	-437.836261	27.871	
O	-0.146170674	 1.3349671262	-0.0552255596	-0.396742
N	 0.0340080914	-0.0647783029	-0.0152648662	-0.29337
C	-1.0785168728	-0.6602088069	 0.0994881356	 0.458756
C	-1.4066394763	-2.1042347515	 0.0365408706	-0.168432
C	-2.5907678151	-2.3772248282	 0.9724828039	-0.087039
C	-2.8665455803	-1.361743164	 2.079124062	-0.103282
O	-3.0882385138	-0.1163894371	 1.4061910397	-0.254373
C	-2.5678698623	-0.2680812236	 0.0964911291	-0.025349
C	-2.8593063616	-1.7319630814	-0.3407761277	-0.084852
H	 0.7585694727	 1.6488696315	-0.1553416064	 0.305322
H	-0.7802102144	-2.9018867581	-0.340591608	 0.10615
H	-2.8409460704	-3.4204633623	 1.1240381683	 0.105281
H	-3.768892157	-1.6125032388	 2.6473547762	 0.11125
H	-2.0241017939	-1.2716322442	 2.7773084566	 0.111213
H	-2.8694990749	 0.5767250995	-0.5180285623	 0.107676
H	-3.4807371371	-2.0909242883	-1.1479128516	 0.10779
107.4525	184.5147	262.9913	279.1441	381.085	446.1076	504.4362	611.8861	697.3607	709.1769	764.4785	785.9746	825.1645	840.0014	887.4748	934.1464	948.0547	968.6731	990.7112	1032.123	1048.1403	1062.3305	1077.6957	1116.2705	1166.3421	1181.1091	1225.4489	1247.8364	1290.0486	1312.7911	1350.9504	1392.9378	1417.3878	1518.0525	1782.0656	3017.2497	3067.3107	3158.8409	3190.8533	3206.3961	3227.8637	3822.6654
ON=C1C2C3COC1C23	ON=C1[C@H]2[C@H]3CO[C@@H]1[C@@H]23	
InChI=1S/C6H7NO2/c8-7-5-3-2-1-9-6(5)4(2)3/h2-4,6,8H,1H2	InChI=1S/C6H7NO2/c8-7-5-3-2-1-9-6(5)4(2)3/h2-4,6,8H,1H2/t2-,3+,4-,6-/m1/s1
