21
gdb 98274	2.82006	0.98817	0.85175	2.5707	75.66	-0.266	0.0133	0.2792	1448.8615	0.17922	-461.401809	-461.390676	-461.389732	-461.4391	38.924	
C	 0.203988092	 1.3443088526	 0.1911307308	-0.241435
O	 0.3718453211	-0.0737198261	 0.0620221922	-0.235076
C	 0.4812004318	-0.5293344642	-1.2033129053	 0.451026
O	 0.4639002338	 0.1917334684	-2.1715696118	-0.37271
C	 0.5780873555	-2.0436807628	-1.2379064748	-0.124714
C	-0.8460069548	-2.6221658396	-1.3522570371	-0.403509
C	 1.4788750042	-2.5147817001	-2.4020859644	 0.148922
C	 2.9148440134	-2.0048578222	-2.2886445107	-0.425273
O	 1.4483018181	-3.9350623589	-2.5152315457	-0.432254
H	 1.0608275709	 1.8742258739	-0.23255698	 0.140209
H	-0.7009202247	 1.6747242503	-0.3250489758	 0.1412
H	 0.126161068	 1.5378674961	 1.2610079596	 0.132906
H	 1.017784306	-2.3746742452	-0.2888395283	 0.082062
H	-1.3437011542	-2.2383567944	-2.2485938675	 0.131391
H	-0.7919035547	-3.7090810526	-1.4310640449	 0.134869
H	-1.4489775912	-2.3539060168	-0.4805673448	 0.119851
H	 1.0396378695	-2.1468846113	-3.3347904673	 0.109262
H	 3.5155193368	-2.4009269363	-3.1116720893	 0.126144
H	 2.951178077	-0.9133261246	-2.3276885439	 0.138587
H	 3.372314248	-2.3291349496	-1.3443825236	 0.102445
H	 1.9606864637	-4.2982461267	-1.7840756876	 0.276096
22.0861	74.6304	113.6857	131.3473	183.1868	218.1164	231.8534	251.4808	276.3785	302.1694	322.4042	361.7819	395.9145	462.348	506.0988	711.5105	770.486	827.3846	873.1123	925.6858	985.2287	1011.0848	1040.9538	1081.6549	1094.7596	1125.0672	1177.1795	1179.3066	1191.5743	1213.5234	1277.4393	1323.708	1349.5587	1388.9891	1398.9366	1402.8612	1416.0578	1472.2321	1481.2692	1492.0762	1496.2885	1497.338	1500.6491	1504.511	1807.929	3021.8199	3033.227	3046.2437	3051.9224	3071.1468	3102.5558	3116.4308	3126.3123	3130.4291	3142.5182	3158.8234	3795.1438
COC(=O)C(C)C(C)O	COC(=O)[C@@H](C)[C@@H](C)O	
InChI=1S/C6H12O3/c1-4(5(2)7)6(8)9-3/h4-5,7H,1-3H3	InChI=1S/C6H12O3/c1-4(5(2)7)6(8)9-3/h4-5,7H,1-3H3/t4-,5+/m0/s1
