21
gdb 110313	1.98575	1.48854	1.03114	2.8592	79.44	-0.2298	0.0738	0.3037	1258.1143	0.180656	-424.185212	-424.175504	-424.17456	-424.219475	36.327	
C	-0.4543047405	 1.4759867376	-0.0791524129	-0.420105
C	-0.0004752355	 0.0351452577	 0.0471964469	 0.155145
O	 1.1376120868	-0.3274433656	-0.7916127467	-0.339846
C	 1.7400874901	-1.042372472	 0.3034629161	 0.454453
C	 2.3166109536	-2.3873595006	 0.00386614	-0.48897
C	 2.163534416	-0.0793854792	 1.3674477968	-0.087212
C	 2.7456309511	 1.2923691911	 1.0953613915	-0.099567
O	 4.1675299898	 1.2617599757	 1.0545684059	-0.419269
C	 0.7023149637	-0.515143503	 1.2849665193	-0.250718
H	 0.3105974673	 2.1876631518	 0.2359944343	 0.127885
H	-0.7223046466	 1.6936591135	-1.1183517928	 0.12864
H	-1.34582223	 1.6346656221	 0.5374754416	 0.117773
H	-0.8372455734	-0.6282996966	-0.2147085538	 0.081342
H	 3.1706301401	-2.2913973881	-0.6760342097	 0.138406
H	 2.6691421958	-2.8668428576	 0.9216415747	 0.120214
H	 1.5760946353	-3.0387034988	-0.4710549248	 0.125414
H	 2.6474778124	-0.585633557	 2.2043512288	 0.075772
H	 2.4321158699	 1.6341735976	 0.1074262433	 0.128164
H	 2.3861675224	 2.0211059402	 1.839182939	 0.082391
H	 4.4826677336	 1.0364338962	 1.9355246389	 0.277925
H	 0.2064670279	-1.010245215	 2.1103010437	 0.092162
84.5128	144.0808	161.9178	192.8171	201.7753	220.2962	242.4407	304.2688	338.8043	378.2659	433.3794	551.9612	571.4709	670.3916	719.1298	797.4763	855.9339	873.9547	923.9193	958.4776	971.0053	1004.155	1036.274	1061.0551	1084.5194	1090.1618	1109.2109	1131.1418	1153.4997	1203.0418	1216.8177	1284.1134	1311.7643	1326.2503	1383.6428	1393.5558	1409.0287	1411.0371	1421.4034	1473.8418	1484.3806	1487.739	1493.2333	1500.0381	1512.8172	2974.9678	2995.7522	3032.72	3041.2869	3096.2336	3097.6285	3102.8364	3114.0505	3117.7054	3141.7243	3188.756	3816.1332
CC1OC2(C)C(CO)C12	C[C@H]1O[C@@]2(C)[C@@H](CO)[C@@H]12	
InChI=1S/C7H12O2/c1-4-6-5(3-8)7(6,2)9-4/h4-6,8H,3H2,1-2H3	InChI=1S/C7H12O2/c1-4-6-5(3-8)7(6,2)9-4/h4-6,8H,3H2,1-2H3/t4-,5+,6-,7+/m1/s1
