19
gdb 90045	3.1123	1.41424	1.21345	1.3669	76.65	-0.2381	0.0584	0.2964	1085.004	0.158026	-422.887907	-422.879817	-422.878873	-422.919933	32.606	
C	-0.1790466758	 1.6070025826	-0.1945890783	-0.407989
C	 0.0061746341	 0.1252900008	 0.0600860643	 0.07735
O	 0.9441490645	-0.5329054332	-0.9005264593	-0.36453
C	 1.8063829497	-0.7882562795	 0.2039469727	 0.426209
C	 2.5357569537	-1.8021969885	 1.106129663	-0.373651
C	 2.1572260715	-0.4489204742	 1.9680973579	 0.360428
O	 2.3657247254	-0.2459950262	 3.3149137867	-0.462279
C	 2.7075495012	 0.3549475958	 0.7837677563	-0.349816
C	 0.7625609795	-0.5534487155	 1.2808643323	-0.15295
H	 0.7548427327	 2.1688605045	-0.1850346993	 0.130664
H	-0.6477123406	 1.7527946101	-1.1734708389	 0.130441
H	-0.8457884523	 2.0258951513	 0.5665474149	 0.126971
H	-0.9624659442	-0.3755590117	-0.0296823503	 0.097874
H	 1.9885728061	-2.7060201113	 1.377668727	 0.109465
H	 3.6037303697	-1.9871803483	 0.95187216	 0.092823
H	 3.2986519459	-0.0483008804	 3.4552704405	 0.28645
H	 3.779153582	 0.2743662225	 0.5825308128	 0.088793
H	 2.3538875626	 1.3782940871	 0.6827205372	 0.100655
H	 0.2032245042	-1.4399153959	 1.5857887804	 0.083091
169.2369	177.0083	196.1278	232.3985	316.8769	354.6254	397.964	453.9952	488.085	529.9462	587.6215	653.4389	700.6514	704.7445	775.6758	814.962	883.8207	927.0727	994.1842	999.5535	1023.7005	1029.9696	1048.5547	1082.8397	1103.0213	1109.1075	1122.4574	1133.2579	1158.2004	1206.3979	1217.0807	1274.7517	1296.208	1354.9392	1371.7839	1395.5712	1418.9231	1479.9405	1485.8639	1499.2722	1539.7626	3042.6334	3045.5067	3054.5947	3067.8679	3084.0036	3105.2238	3137.986	3145.9373	3170.3194	3801.7352
CC1OC23CC(O)(C2)C13	C[C@H]1O[C@@]23C[C@@](O)(C2)[C@@H]13	
InChI=1S/C7H10O2/c1-4-5-6(8)2-7(5,3-6)9-4/h4-5,8H,2-3H2,1H3	InChI=1S/C7H10O2/c1-4-5-6(8)2-7(5,3-6)9-4/h4-5,8H,2-3H2,1H3/t4-,5-,6-,7+/m1/s1
