21
gdb 103276	4.00668	0.97704	0.95766	2.0139	79.45	-0.2374	0.0631	0.3005	1344.2734	0.181459	-424.192281	-424.182912	-424.181968	-424.225974	36.042	
C	-0.0691786182	 1.4454371211	-0.0544196705	-0.409353
C	 0.0190403342	-0.0700450634	 0.06939021	 0.027905
C	 1.0723153205	-0.7348256991	-0.8794567563	-0.25746
C	 1.8766581858	-1.1965425451	 0.3390449028	-0.123857
C	 0.8336100322	-0.5524118728	 1.2840210518	-0.137695
C	 1.0092692419	-2.0304707695	 1.247804986	 0.448213
O	-0.0281382429	-2.8268487245	 0.7435512766	-0.482115
C	 1.6979997611	-2.6766683209	 2.4242618508	-0.160626
O	 2.1847084679	-3.9399843539	 1.967401466	-0.434582
H	 0.922781112	 1.9069313834	 0.0157231712	 0.110985
H	-0.5067578096	 1.7341051945	-1.0163747023	 0.112268
H	-0.6924925118	 1.8733950912	 0.739056171	 0.110293
H	-0.9793080247	-0.5125866882	 0.009391202	 0.0839
H	 0.7063275035	-1.5320908674	-1.5316962634	 0.098865
H	 1.6011761042	 0.0083040797	-1.4818468746	 0.094535
H	 2.9581886621	-1.2167313308	 0.4159877869	 0.080386
H	 0.9804703281	 0.0225255672	 2.1939801432	 0.072488
H	 0.3578734488	-3.7045949657	 0.6276491387	 0.285893
H	 2.5171142384	-2.0403274289	 2.7898122706	 0.09119
H	 0.9737851083	-2.8126810906	 3.2401574972	 0.096904
H	 2.347418298	-4.4983280164	 2.7325274424	 0.291862
94.4459	123.5429	172.0014	214.1993	254.3112	262.7747	294.3111	325.5412	379.3378	410.7235	433.2266	523.9073	617.8286	697.3152	721.8981	831.2543	865.6922	881.6324	900.4551	943.5879	997.6459	1002.8757	1014.2142	1041.2879	1058.1149	1063.0942	1111.1204	1124.7935	1143.4619	1198.7673	1226.6168	1242.0575	1254.7719	1262.5905	1291.6839	1303.7684	1317.6534	1362.7445	1409.3985	1440.3778	1475.0821	1484.1174	1494.8489	1500.33	1507.6368	2987.6109	3021.0834	3027.6122	3055.5014	3061.6775	3088.6942	3093.6704	3108.9161	3145.0508	3169.1817	3774.2616	3841.1371
CC1CC2C1C2(O)CO	C[C@H]1C[C@H]2[C@@H]1[C@]2(O)CO	
InChI=1S/C7H12O2/c1-4-2-5-6(4)7(5,9)3-8/h4-6,8-9H,2-3H2,1H3	InChI=1S/C7H12O2/c1-4-2-5-6(4)7(5,9)3-8/h4-6,8-9H,2-3H2,1H3/t4-,5-,6+,7-/m0/s1
