24
gdb 122353	3.34055	0.77004	0.71622	2.151	87.74	-0.2135	0.0775	0.291	1741.6163	0.214672	-405.509491	-405.498223	-405.497279	-405.546822	39.657	
C	 0.9454014941	-0.8992203984	-1.5531323644	-0.384257
C	 0.5848369779	-2.315401261	-1.1374700805	-0.024157
O	-0.8014668226	-2.3683333891	-0.872077252	-0.244985
C	-1.2449147211	-3.6524465295	-0.4776391417	-0.083527
C	-2.7413213788	-3.5939603115	-0.3034984139	-0.023712
C	-3.4815812306	-4.4557106939	 0.6740273096	-0.007898
C	-2.8208446803	-5.4805301196	 1.5742740209	-0.417097
N	-3.3876060316	-3.0086828328	 0.8719153348	-0.096505
C	-2.5860542849	-2.4439356122	 1.9472050564	-0.311019
H	 2.0156300205	-0.8247423208	-1.7680487324	 0.113417
H	 0.3892810712	-0.6098725722	-2.4492642023	 0.127677
H	 0.7005491673	-0.1916253431	-0.7559277785	 0.12654
H	 0.8467878247	-3.0319494172	-1.9351500691	 0.083657
H	 1.1570009835	-2.6132551683	-0.2415852597	 0.082523
H	-0.9998266665	-4.3973051407	-1.2552352418	 0.087534
H	-0.7241498983	-3.9674125746	 0.4380827248	 0.082511
H	-3.2437617551	-3.3353216553	-1.2357484631	 0.089477
H	-4.4838850891	-4.762856298	 0.3725937232	 0.086647
H	-1.801767151	-5.2209371143	 1.8647852965	 0.121015
H	-3.4049328867	-5.6120311351	 2.4919021933	 0.124075
H	-2.783943046	-6.4512343856	 1.0680823705	 0.12281
H	-1.701685168	-3.024164003	 2.2464683847	 0.094393
H	-2.243169781	-1.4531306135	 1.6363478093	 0.133794
H	-3.2207704378	-2.3269504903	 2.8317807154	 0.117086
43.4577	79.31	91.8186	121.7969	135.2756	149.6738	210.944	240.8237	249.8133	292.0193	345.9538	410.8149	478.9903	549.0782	552.0078	736.0392	768.3071	822.7533	850.6549	905.2297	982.8884	1029.4931	1038.6748	1055.3039	1089.0953	1133.8812	1140.5119	1153.8026	1163.4363	1175.1033	1181.7866	1191.186	1207.6327	1268.064	1296.5252	1352.9604	1358.7946	1394.362	1405.0773	1413.237	1428.0207	1456.1048	1464.5845	1483.233	1483.8837	1490.961	1499.3619	1503.347	1506.2699	1517.5332	1535.8353	2944.5779	2955.6857	2971.3804	2993.5067	3011.3869	3038.3535	3044.9307	3067.575	3085.1788	3091.9086	3102.7938	3109.5881	3119.099	3121.8806	3136.3836
CCOCC1C(C)N1C	CCOC[C@H]1[C@@H](C)N1C	
InChI=1S/C7H15NO/c1-4-9-5-7-6(2)8(7)3/h6-7H,4-5H2,1-3H3	InChI=1S/C7H15NO/c1-4-9-5-7-6(2)8(7)3/h6-7H,4-5H2,1-3H3/t6-,7+,8?/m1/s1
