19
gdb 96061	3.14642	0.99071	0.84302	4.0217	72.19	-0.25	-0.0226	0.2274	1368.8541	0.157833	-460.166782	-460.157369	-460.156425	-460.20248	33.004	
O	-0.07949586	 1.4928923137	 0.423571037	-0.432042
C	-0.0204231661	 0.1171739264	 0.0717808726	 0.063439
C	 0.7163119645	-0.7303983347	 1.1228617968	-0.08319
O	-0.2550746869	-1.1955957659	 2.0558389686	-0.26199
C	-1.5429400487	-0.7239276282	 1.6751569179	-0.070577
C	-1.4479737102	-0.4450994922	 0.1678015825	-0.02522
C	-2.5457596525	 0.4595129306	-0.4029380422	-0.296128
C	-3.8954471088	-0.2239152091	-0.4017835585	 0.158551
O	-4.9034040929	 0.2328136671	 0.0708572158	-0.237705
H	 0.8197392181	 1.8257822452	 0.5005984788	 0.288426
H	 0.412022519	-0.0101863664	-0.9307229807	 0.069016
H	 1.2158625062	-1.5935630126	 0.661142269	 0.098994
H	 1.4800857346	-0.1331809104	 1.6402892109	 0.091585
H	-2.2784620705	-1.4927944194	 1.931747057	 0.110892
H	-1.798726636	 0.1977988226	 2.2181977301	 0.109449
H	-1.4546450493	-1.4071673465	-0.3615886746	 0.085444
H	-2.614099276	 1.4013111737	 0.1437997115	 0.142203
H	-2.3049517614	 0.6935810442	-1.4502268435	 0.120882
H	-3.8996136431	-1.226111758	-0.8955592491	 0.067972
49.588	68.2541	69.304	138.1532	176.7227	266.5593	290.7394	328.2298	403.9812	451.3224	565.4382	649.0562	751.2069	795.7429	862.4879	886.6456	942.6733	953.9743	1000.1259	1014.0924	1041.2573	1092.8473	1116.7378	1131.5396	1149.0177	1188.3123	1203.2774	1227.9865	1264.1	1274.2742	1326.8321	1335.1027	1365.6477	1374.7499	1396.1557	1429.1045	1433.2166	1461.3714	1506.3711	1519.93	1837.9451	2837.5033	2991.4702	2997.5083	3007.331	3015.9079	3024.9986	3033.1912	3077.0816	3129.1471	3826.2592
OC1COCC1CC=O	O[C@H]1COC[C@H]1CC=O	
InChI=1S/C6H10O3/c7-2-1-5-3-9-4-6(5)8/h2,5-6,8H,1,3-4H2	InChI=1S/C6H10O3/c7-2-1-5-3-9-4-6(5)8/h2,5-6,8H,1,3-4H2/t5-,6+/m1/s1
