22
gdb 104608	2.79069	0.99532	0.82069	3.9315	78.37	-0.238	0.058	0.296	1469.4479	0.192947	-441.45497	-441.444733	-441.443789	-441.490358	38.344	
C	-0.216248496	 1.5999602276	-0.0995694389	-0.400246
C	-0.0436389761	 0.0798445914	-0.0731336521	 0.136998
O	 1.034271101	-0.2910996269	 0.7837265709	-0.41839
C	-1.3579312144	-0.6370003141	 0.2912813371	-0.311909
C	-1.3884039139	-2.137477763	 0.0488744775	 0.322273
C	-0.5082099311	-3.011963816	 0.9425527021	-0.132936
O	-0.5661626138	-4.3721791844	 0.5660867131	-0.424597
C	-2.6332169901	-2.7360021123	-0.4969754394	-0.281066
N	-1.4240822856	-2.63165252	-1.3435564885	-0.369755
H	 0.7406544525	 2.0814855402	-0.3170218089	 0.128392
H	-0.9422923673	 1.9088526317	-0.8584059725	 0.116066
H	-0.572567415	 1.9687032562	 0.8709072537	 0.108792
H	 0.278428323	-0.2583462215	-1.0659389585	 0.093777
H	 0.8295528883	 0.0296965893	 1.6694899968	 0.277149
H	-1.5841720349	-0.4311644637	 1.3484500269	 0.09383
H	-2.1697981344	-0.1750762692	-0.2851002022	 0.093781
H	 0.5194114572	-2.627160542	 0.9191104765	 0.115825
H	-0.8641787528	-2.9489453811	 1.9788107671	 0.094994
H	-0.4653110348	-4.3701768996	-0.3966904485	 0.290745
H	-2.8982935579	-3.752012811	-0.2246875679	 0.132915
H	-3.4700190826	-2.0764010861	-0.7109721106	 0.105788
H	-1.5144611213	-1.8623184153	-2.0020630238	 0.227573
45.6274	94.3265	132.8105	179.7152	237.5316	243.8346	292.4599	317.7497	323.4407	351.3597	401.19	456.5563	493.671	530.8964	599.2204	718.0798	822.0162	837.1265	873.599	918.2959	949.34	964.6202	978.3416	1037.3309	1052.6034	1068.4008	1092.3857	1107.5734	1143.2588	1155.6203	1179.444	1239.9465	1253.0661	1291.1367	1312.2083	1324.9291	1378.4753	1384.8152	1403.2913	1413.3995	1422.4641	1446.7075	1464.8358	1492.8224	1494.9715	1502.4238	1518.9984	2996.9344	3019.2182	3023.4344	3035.4911	3047.6939	3058.4611	3094.0967	3114.7916	3121.2577	3209.8112	3499.8147	3735.4726	3794.6749
CC(O)CC1(CO)CN1	C[C@@H](O)C[C@@]1(CO)CN1	
InChI=1S/C6H13NO2/c1-5(9)2-6(4-8)3-7-6/h5,7-9H,2-4H2,1H3	InChI=1S/C6H13NO2/c1-5(9)2-6(4-8)3-7-6/h5,7-9H,2-4H2,1H3/t5-,6+/m1/s1
