21
gdb 6928	4.03261	1.14774	1.06441	2.0566	75.85	-0.2272	0.0824	0.3096	1215.7246	0.18677	-366.234769	-366.225177	-366.224233	-366.26932	35.175	
C	 0.0271865936	 1.533571097	-0.2137002722	-0.45425
C	 0.0689091501	 0.028622868	-0.0212634675	 0.33985
C	-1.1674639159	-0.6951679804	-0.5186285631	-0.435724
C	 1.3861648244	-0.6690952411	-0.0529081019	-0.295017
N	 0.6414755723	-0.5490420831	 1.2041549793	-0.135
C	 1.1910361862	 0.312202982	 2.2502813036	-0.137613
C	 1.7522641904	-0.5676274358	 3.3673013908	-0.058792
O	 2.7495348038	-1.4561775267	 2.8954979176	-0.422721
H	 0.9494597646	 2.0242105338	 0.1040931174	 0.120322
H	-0.1287529299	 1.7711808363	-1.2713389658	 0.12154
H	-0.8054621663	 1.9758548583	 0.346181607	 0.119462
H	-1.2980388706	-0.5511507667	-1.5972029629	 0.112423
H	-1.0947180267	-1.765996063	-0.3149008836	 0.121978
H	-2.0668554422	-0.3166999132	-0.019103726	 0.115013
H	 1.4725559582	-1.6717912984	-0.4666736824	 0.105977
H	 2.2803503532	-0.0575595609	-0.166541655	 0.111026
H	 1.9864263429	 0.9788464289	 1.8821573065	 0.091661
H	 0.3883100934	 0.9394965468	 2.6580198739	 0.096909
H	 2.2262395673	 0.0575867842	 4.1316912439	 0.10105
H	 0.9245209097	-1.1158071108	 3.8424740854	 0.090058
H	 2.3147254316	-2.0242969051	 2.2501733748	 0.291848
38.1149	101.1195	163.5897	184.8472	192.3699	249.7812	282.4987	361.8726	380.0775	424.9178	449.9579	464.6082	535.1881	701.8908	747.6672	877.9025	908.277	918.5987	934.6469	960.1322	1022.9947	1025.2412	1065.3296	1088.6155	1124.3671	1138.7949	1143.4292	1187.1332	1229.1732	1274.8358	1294.5254	1380.0486	1385.1221	1394.8132	1410.0619	1421.0507	1425.259	1473.3585	1480.5586	1486.2453	1497.3125	1498.4961	1505.1696	1518.8807	2973.3608	2990.5862	3026.7087	3032.6801	3051.4594	3074.318	3084.366	3085.9489	3090.6698	3122.4184	3125.7126	3166.1507	3809.2272
CC1(C)CN1CCO	CC1(C)CN1CCO	
InChI=1S/C6H13NO/c1-6(2)5-7(6)3-4-8/h8H,3-5H2,1-2H3	InChI=1S/C6H13NO/c1-6(2)5-7(6)3-4-8/h8H,3-5H2,1-2H3
