14
gdb 61351	3.0354	0.98464	0.87902	4.3652	70.6	-0.2979	-0.0601	0.2378	1326.3858	0.097704	-436.685343	-436.675988	-436.675044	-436.720771	32.119	
C	 0.3195473694	 1.8281880607	 0.1585784639	-0.403767
C	-0.0509709745	 0.3803970449	-0.1477378547	-0.012729
O	 0.5370272478	 0.0448186163	-1.4208511645	-0.239175
C	-0.0964251176	-0.9268109096	-2.1263413975	 0.316534
O	-1.0862354548	-1.5030542121	-1.758858312	-0.339446
C	 0.5794995708	-1.1595071905	-3.3791272686	 0.225327
C	 1.1048524596	-1.3951606453	-4.4331929809	-0.351046
C	 0.4485191226	-0.5436374569	 0.8840516333	 0.284022
N	 0.843080968	-1.2444211147	 1.71275078	-0.30858
H	 1.4043954139	 1.9470604306	 0.194820851	 0.154713
H	-0.0854806876	 2.4770503191	-0.6210390227	 0.142521
H	-0.1008285927	 2.1232296792	 1.1228683069	 0.148895
H	-1.1344142599	 0.2495325769	-0.218883948	 0.161202
H	 1.5714110849	-1.6066487885	-5.3648633162	 0.221528
32.6227	65.3022	130.5649	178.8427	220.478	245.2027	266.3399	310.4327	367.6891	482.5095	561.8708	611.6688	627.662	668.1422	710.8842	772.5398	827.4219	882.1824	954.8428	1050.917	1115.561	1149.5572	1224.6777	1323.5891	1377.4533	1412.0562	1483.4083	1494.7548	1803.0475	2240.9432	2365.5337	3059.7189	3084.4881	3141.8177	3147.1644	3495.0156
CC(OC(=O)C#C)C#N	C[C@@H](OC(=O)C#C)C#N	
InChI=1S/C6H5NO2/c1-3-6(8)9-5(2)4-7/h1,5H,2H3	InChI=1S/C6H5NO2/c1-3-6(8)9-5(2)4-7/h1,5H,2H3/t5-/m1/s1
