16
gdb 125592	3.05272	1.44252	0.99153	1.6253	76.18	-0.241	-0.0697	0.1713	1158.7797	0.12456	-434.118983	-434.110618	-434.109674	-434.152004	30.636	
C	-0.0501348354	 1.5104810404	 0.019453789	-0.455901
C	-0.015007392	 0.0131415799	-0.0311054062	 0.364929
N	-0.0169131287	-0.5667975867	-1.1967296865	-0.228494
N	 0.015635602	-1.9144778277	-1.1752289951	-0.269468
C	 0.0504435953	-2.7326776439	-0.0639727491	 0.386096
O	 0.078049401	-3.9491175219	-0.1371605362	-0.379071
C	 0.048162706	-1.9420637949	 1.187439257	 0.213615
C	 0.0837129376	-2.7073649978	 2.469436348	-0.466744
N	 0.017099326	-0.6457069602	 1.1825611821	-0.317716
H	 0.8275700743	 1.8925590064	 0.5507870898	 0.142251
H	-0.0731021975	 1.9255782206	-0.9884836076	 0.140791
H	-0.931097057	 1.8505404425	 0.5734830292	 0.142254
H	 0.0139406228	-2.3618356414	-2.0830259289	 0.277286
H	 0.9740428656	-3.3449077652	 2.5012815106	 0.155201
H	 0.0779646601	-2.0238859918	 3.3183334436	 0.139746
H	-0.7729236199	-3.3880452382	 2.5240128802	 0.155224
101.0065	131.0243	149.4102	203.1142	268.6006	323.215	344.4024	422.9646	496.4465	521.7515	571.4702	610.2352	695.2044	739.3931	791.961	797.3065	952.8265	980.1511	1042.5992	1049.9196	1068.0918	1187.1469	1237.8747	1309.7275	1349.7465	1402.0427	1413.6065	1445.5916	1458.928	1463.1337	1475.1388	1477.5048	1578.2088	1648.8142	1779.9167	3043.1919	3045.2694	3095.6463	3100.8398	3154.0983	3160.1024	3587.7519
CC1=NNC(=O)C(C)=N1	Cc1n[nH]c(=O)c(C)n1	
InChI=1S/C5H7N3O/c1-3-5(9)8-7-4(2)6-3/h1-2H3,(H,8,9)	InChI=1S/C5H7N3O/c1-3-5(9)8-7-4(2)6-3/h1-2H3,(H,8,9)
