21
gdb 88569	3.38725	1.00045	0.95524	1.9742	86.88	-0.2175	0.02	0.2375	1355.9287	0.182667	-387.080985	-387.07193	-387.070986	-387.115748	33.425	
C	-0.1777561916	 1.5109776866	-0.24034623	-0.414945
C	-0.0168986285	 0.025192213	-0.0136499197	 0.015535
C	 1.2993424758	-0.6754205405	-0.1946857017	-0.313162
C	 0.7017868801	-0.5696712289	 1.1970619239	-0.129185
C	 1.3284115016	 0.2222492598	 2.2764693907	 0.334454
C	 1.0293940705	 0.1722340646	 3.5756813603	-0.227929
C	 1.9343804495	 1.0703527253	 4.3637845552	-0.103284
O	 2.782580662	 1.6828655167	 3.3951506798	-0.266339
C	 2.5006926056	 1.1643069298	 2.1024554795	-0.16809
H	 0.7419005575	 2.0627302046	-0.0308201387	 0.121785
H	-0.4478099396	 1.712055226	-1.2829945791	 0.119003
H	-0.9668385646	 1.9277522815	 0.3949569489	 0.122136
H	-0.8897831339	-0.5519857721	-0.3091462124	 0.088618
H	 1.3266313917	-1.6498039216	-0.6701788001	 0.112925
H	 2.164337201	-0.056559566	-0.4121830087	 0.117151
H	 0.2331581795	-1.4771480349	 1.566890999	 0.087415
H	 0.260382956	-0.4396254665	 4.0313550549	 0.093768
H	 1.3903124124	 1.8498150583	 4.9208766674	 0.102282
H	 2.5401863754	 0.5155565953	 5.0999752456	 0.099645
H	 3.3814037449	 0.6345056875	 1.7017015034	 0.101974
H	 2.2943330148	 2.0010378613	 1.4188130817	 0.106244
35.0194	98.4002	123.1561	178.8217	192.5213	239.9958	340.897	406.1371	422.8949	522.1268	627.6724	754.0136	771.9855	821.699	846.8793	872.4023	909.932	926.2272	931.815	980.9044	1009.1024	1026.7807	1059.6864	1065.4301	1075.5145	1106.4027	1124.5407	1149.0879	1176.5054	1197.0375	1199.8896	1230.6394	1254.54	1311.6803	1372.9559	1383.4869	1398.7939	1408.4168	1425.8602	1488.3947	1489.9721	1501.3872	1518.1649	1531.0739	1710.9956	2956.2435	2962.9019	2979.138	2997.5948	3034.2509	3090.5906	3113.7205	3128.5976	3134.0379	3145.3019	3207.1482	3212.0132
CC1CC1C1=CCOC1	C[C@H]1C[C@H]1C1=CCOC1	
InChI=1S/C8H12O/c1-6-4-8(6)7-2-3-9-5-7/h2,6,8H,3-5H2,1H3	InChI=1S/C8H12O/c1-6-4-8(6)7-2-3-9-5-7/h2,6,8H,3-5H2,1H3/t6-,8+/m0/s1
