16
gdb 49219	3.35651	1.04085	0.90691	4.9131	82.19	-0.2163	-0.035	0.1813	1277.6003	0.124139	-400.736515	-400.728126	-400.727182	-400.770016	30.979	
O	-0.101301213	-0.0265432178	-0.1809990519	-0.305978
C	-0.0081310526	 1.1876938121	-0.1637185822	 0.055847
C	 1.2276346519	 1.9142536079	-0.0266096753	 0.188867
C	 1.3577481315	 3.2600369965	 0.0106542966	-0.076349
N	 2.6482155661	 3.6747820423	 0.2228225743	-0.280036
C	 3.5599657646	 2.5159307133	 0.0246891022	-0.154209
C	 2.5957960194	 1.2872843785	 0.149528325	-0.332926
C	 4.2436098945	 2.5930381937	-1.2654955197	 0.344575
C	 4.8090016228	 2.6758878501	-2.3229659589	-0.478196
H	-0.9119342883	 1.8327977051	-0.2639150011	 0.048131
H	 0.568116933	 3.9980216132	-0.0670273431	 0.136571
H	 2.9475819154	 4.5673551672	-0.1423542429	 0.254408
H	 4.3095812803	 2.5079977241	 0.8218245451	 0.122652
H	 2.6955283289	 0.8225520851	 1.136409694	 0.126163
H	 2.8144570029	 0.5202493249	-0.5952473414	 0.141858
H	 5.3077828127	 2.7364960138	-3.2590159705	 0.208623
57.2537	121.0699	167.8411	196.9868	239.2556	345.1057	420.2438	475.3463	510.8141	538.5686	585.5175	631.1512	667.9751	725.242	806.5727	831.1671	891.7433	917.5372	972.1059	1022.8216	1027.2615	1046.5715	1150.2044	1179.1222	1228.6746	1284.5288	1311.2614	1356.6593	1365.0657	1427.4812	1444.5383	1490.1815	1665.7845	1759.6266	2234.2641	2853.5612	3044.878	3060.34	3115.0865	3213.7018	3500.8116	3606.722
O=CC1=CNC(C1)C#C	O=CC1=CN[C@@H](C1)C#C	
InChI=1S/C7H7NO/c1-2-7-3-6(5-9)4-8-7/h1,4-5,7-8H,3H2	InChI=1S/C7H7NO/c1-2-7-3-6(5-9)4-8-7/h1,4-5,7-8H,3H2/t7-/m1/s1
