19
gdb 117581	2.69522	0.9365	0.76212	1.4587	77.13	-0.2561	0.0439	0.3	1502.7378	0.156515	-422.957586	-422.947591	-422.946646	-422.993193	35.776	
O	-0.1091397074	 1.4764576246	 0.0039162068	-0.417109
C	-0.0012655606	 0.0623939954	 0.0490005809	-0.073901
C	-1.3663811857	-0.6238711991	-0.0169165667	-0.198634
C	-1.2893523353	-2.1697685788	-0.0566000852	-0.222321
C	-0.649874118	-2.7132103308	 1.1403659455	 0.349022
C	-0.1165535751	-3.1502998058	 2.1251796692	-0.47423
C	-2.6850345139	-2.7432234102	-0.2925312817	 0.093094
C	-3.1884923463	-3.9754520756	 0.3208283999	-0.191235
O	-3.6023331732	-2.6874930157	 0.7937728621	-0.232259
H	-0.549138112	 1.7626652716	 0.8107149289	 0.282662
H	 0.5993901949	-0.2154609701	-0.8250408789	 0.107819
H	 0.5477016893	-0.2737343745	 0.9400366615	 0.105247
H	-1.974396374	-0.3321878726	 0.8478934908	 0.114757
H	-1.8901385826	-0.2738534034	-0.9138362651	 0.107119
H	-0.6829967909	-2.4572705199	-0.9292352668	 0.110346
H	 0.3562047431	-3.5367349961	 2.9942090854	 0.200552
H	-3.109971785	-2.43776447	-1.2510051904	 0.095705
H	-3.9572509671	-4.5524258298	-0.1911141212	 0.114185
H	-2.5489175604	-4.5314004493	 1.001828925	 0.129181
62.374	89.585	102.347	130.3366	167.7475	213.3777	285.3347	304.8844	342.7658	387.0593	443.4677	583.6696	627.901	644.324	651.7772	774.7967	791.259	880.7004	893.648	965.5843	1010.0277	1026.8814	1077.4337	1083.6796	1101.7191	1125.1835	1160.9889	1165.7841	1174.3172	1268.8556	1293.9582	1304.8302	1336.3788	1354.6193	1399.7094	1419.9487	1429.3989	1486.3838	1514.5218	1523.2801	2233.8348	2993.2871	3007.2738	3034.0697	3057.5763	3084.4214	3088.6208	3095.2844	3188.7551	3501.8017	3816.3979
OCCC(C#C)C1CO1	OCC[C@@H](C#C)[C@H]1CO1	
InChI=1S/C7H10O2/c1-2-6(3-4-8)7-5-9-7/h1,6-8H,3-5H2	InChI=1S/C7H10O2/c1-2-6(3-4-8)7-5-9-7/h1,6-8H,3-5H2/t6-,7-/m1/s1
