17
gdb 65837	2.61697	1.35252	1.20639	3.4531	75.89	-0.2346	0.0268	0.2614	1111.1044	0.13572	-417.995838	-417.987227	-417.986283	-418.028903	32.852	
C	-0.1571363209	 1.6315857016	-0.0261289607	-0.434938
C	 0.0659096756	 0.1137592081	-0.012448764	 0.056947
C	 0.9500747374	-0.3676528889	-1.1952078446	-0.103542
O	 1.6999290151	-1.4649327368	-0.6743562311	-0.244157
C	 1.704797716	-1.3996328585	 0.6935432002	 0.460207
N	 2.3051886092	-2.1856474935	 1.4785242516	-0.590459
N	 0.9475350676	-0.301650353	 1.0833542898	-0.341186
C	-1.2238754881	-0.5943525899	 0.0184989882	 0.351363
C	-2.2806845002	-1.1647617723	 0.069784783	-0.491649
H	 0.8065191019	 2.1463919846	-0.0050121146	 0.130631
H	-0.7095830244	 1.9283796459	-0.9223318731	 0.132816
H	-0.7408467512	 1.9408636873	 0.8447048083	 0.133958
H	 0.367442983	-0.7097736448	-2.0509514692	 0.133154
H	 1.634329721	 0.4315472589	-1.5037061906	 0.114803
H	 2.8308766519	-2.8796876058	 0.9522168868	 0.225081
H	 0.5617766799	-0.3618039617	 2.0143654561	 0.25998
H	-3.2091655038	-1.6792518512	 0.1145014739	 0.206993
84.8208	137.5022	194.8114	207.7523	238.7461	293.3319	394.267	451.4435	472.7267	552.0852	590.3812	620.1062	645.3486	657.0113	714.2401	735.1607	795.7608	804.1481	916.1282	938.2854	965.512	1012.7705	1057.1186	1106.9118	1161.5218	1193.2503	1196.6477	1257.1791	1322.3911	1388.483	1405.4031	1425.8648	1485.0899	1495.9192	1513.207	1792.3687	2229.7954	3036.2514	3047.3662	3123.588	3129.9899	3133.9129	3498.2737	3529.1821	3622.1595
CC1(COC(=N)N1)C#C	C[C@]1(CO[C]([NH])N1)C#C	
InChI=1S/C6H8N2O/c1-3-6(2)4-9-5(7)8-6/h1H,4H2,2H3,(H2,7,8)	InChI=1S/C6H8N2O/c1-3-6(2)4-9-5(7)8-6/h1H,4H2,2H3,(H2,7,8)/t6-/m1/s1
