19
gdb 7373	2.94372	1.60267	1.14388	5.1641	69.29	-0.2411	0.016	0.2571	1082.8779	0.164153	-402.227647	-402.218123	-402.217179	-402.262565	33.385	
C	 0.0118372382	 1.5329848818	 0.0360416001	-0.346572
N	-0.0941414868	 0.0847010389	-0.0057766479	-0.064936
C	-0.126071337	-0.605869941	 1.2929501613	-0.208659
C	-1.5163332475	-1.0761614036	 1.7380568583	-0.024113
O	-1.9351904046	-2.2675130561	 1.1222634883	-0.432951
C	-0.1321201886	-0.6582075589	-1.1465499618	 0.409809
C	 0.0734248013	 0.0429111109	-2.4791585106	-0.496346
O	-0.3206576598	-1.8731788876	-1.1119293507	-0.398243
H	-0.0774634751	 1.9608377504	-0.9604421531	 0.142518
H	-0.7902123814	 1.9539368246	 0.6534755756	 0.138197
H	 0.9716246946	 1.8502708695	 0.4647905476	 0.131203
H	 0.5387668516	-1.4741009762	 1.2434730093	 0.135758
H	 0.2790859275	 0.0933624725	 2.0310685289	 0.10313
H	-1.4859448603	-1.2510401919	 2.8227881599	 0.094574
H	-2.2357608106	-0.2535791411	 1.5696592138	 0.072133
H	-1.4764413402	-2.3279957424	 0.2671282007	 0.305703
H	 0.9883813217	 0.6418615986	-2.4988796126	 0.138255
H	 0.1295033662	-0.7302325016	-3.2444255252	 0.154451
H	-0.7671238991	 0.7042260232	-2.7138372319	 0.14609
37.9669	97.5593	110.065	153.2777	190.9922	214.3154	284.6583	335.8638	390.5532	459.5894	515.172	549.3896	593.4375	617.1415	717.7534	872.909	896.641	1007.4316	1050.0847	1053.7696	1079.0087	1116.7184	1152.3983	1177.6918	1220.2369	1270.7596	1320.7595	1375.602	1388.8383	1396.3642	1443.507	1458.3239	1471.0593	1479.5291	1496.0788	1498.5476	1501.2743	1513.903	1531.3965	1718.3871	2933.946	3014.0546	3016.3257	3047.0438	3049.8629	3065.5318	3100.6799	3111.1164	3162.8751	3169.5421	3625.086
CN(CCO)C(C)=O	CN(CCO)C(=O)C	
InChI=1S/C5H11NO2/c1-5(8)6(2)3-4-7/h7H,3-4H2,1-2H3	InChI=1S/C5H11NO2/c1-5(8)6(2)3-4-7/h7H,3-4H2,1-2H3
