18
gdb 78005	3.02737	1.27692	1.05646	4.83	79.49	-0.2189	0.0177	0.2367	1168.8373	0.148298	-398.086577	-398.07784	-398.076895	-398.119632	32.834	
C	-0.3082285439	 1.4663884582	 0.0052284675	-0.332935
N	 0.131427609	 0.0812315684	 0.0225225417	-0.065314
C	 1.1993427679	-0.3865974379	-0.8898138325	-0.223787
C	 1.8885097846	-1.0978485858	 0.2898811188	 0.152227
C	 2.4078361834	-2.4219622046	 0.2677960128	 0.190316
N	 2.8437051845	-3.4946543984	 0.2393526063	-0.353291
C	 2.2370087454	-0.0921459104	 1.3764955701	-0.087851
N	 2.7434456523	 1.1994916684	 1.0099538838	-0.507374
C	 0.792367546	-0.474815315	 1.1849963113	-0.068608
H	 0.5128080976	 2.1931135412	 0.0764838336	 0.11821
H	-0.8651760955	 1.6537673122	-0.9190374768	 0.123069
H	-0.9971464201	 1.6281023389	 0.8411073281	 0.120616
H	 0.8238971866	-1.0741733448	-1.6530970174	 0.123599
H	 1.8005184911	 0.4032522504	-1.3522994622	 0.11718
H	 2.6707838188	-0.5996161013	 2.2429952387	 0.09875
H	 2.571472477	 1.8728736922	 1.7496395629	 0.239755
H	 3.7475525522	 1.1606157457	 0.8623460675	 0.24134
H	 0.218061663	-0.9400582273	 1.9807643056	 0.114097
119.6939	152.254	168.3169	209.1071	238.2145	263.7356	305.2462	360.1038	448.6845	493.4666	550.7287	592.1159	647.7815	685.9935	767.4976	864.9511	899.288	923.4287	979.5917	1001.5409	1046.7183	1060.3281	1108.5411	1135.0569	1168.0903	1211.219	1240.3186	1243.8359	1264.8037	1292.8478	1304.3544	1359.6015	1444.6916	1459.5362	1477.0114	1501.3382	1517.3017	1652.0548	2342.9507	3002.7496	3040.5086	3061.4117	3071.5683	3093.1934	3097.5735	3157.7649	3494.8909	3573.4575
CN1CC2(C#N)C(N)C12	CN1C[C@@]2(C#N)[C@@H](N)[C@@H]12	
InChI=1S/C6H9N3/c1-9-3-6(2-7)4(8)5(6)9/h4-5H,3,8H2,1H3	InChI=1S/C6H9N3/c1-9-3-6(2-7)4(8)5(6)9/h4-5H,3,8H2,1H3/t4-,5+,6-/m0/s1
