23
gdb 81022	2.13025	1.68331	1.47434	1.5828	83.95	-0.2461	0.0641	0.3103	1079.8292	0.207897	-388.299986	-388.291433	-388.290489	-388.332255	34.98	
C	-0.0103121571	 1.5472175863	 0.0548603698	-0.483651
C	 0.0023788707	 0.0307278537	-0.0315890831	 0.294441
C	 0.2377499684	-0.6594957282	-1.4130190828	-0.273366
C	-0.6931808852	-1.8054591811	-0.9182414876	-0.065501
C	 0.0763438413	-2.8003702889	-0.0342861394	-0.224341
C	 1.2306414329	-2.0921560513	 0.7130456654	-0.214604
C	 0.907760724	-0.614867079	 1.0390238807	-0.257522
C	-1.368654266	-0.7195799804	-0.0335067945	 0.147456
O	-2.0347468184	-1.0418531406	 1.1604556614	-0.444086
H	 0.9882929928	 1.9674731303	-0.1137414635	 0.109372
H	-0.686418155	 1.9798226841	-0.6907264157	 0.107743
H	-0.3470862324	 1.880902048	 1.043484274	 0.119126
H	-0.2224720237	-0.087740526	-2.223813177	 0.094294
H	 1.2617763678	-0.9113339851	-1.6986319585	 0.092637
H	-1.3207090847	-2.3177093898	-1.6516050774	 0.059594
H	-0.6262146904	-3.2696026498	 0.668349751	 0.093223
H	 0.47761166	-3.6190223307	-0.6411388967	 0.097395
H	 1.5043238059	-2.6399994342	 1.6207025209	 0.092031
H	 2.1187147407	-2.1159178731	 0.0739663766	 0.108112
H	 1.8415799042	-0.0480733258	 1.1297616337	 0.093981
H	 0.4108674335	-0.5225760732	 2.0148805846	 0.092843
H	-2.0962682097	-0.1522832736	-0.622560251	 0.078384
H	-1.4513211998	-1.5729753916	 1.7110044693	 0.282439
167.9842	191.498	214.4692	249.8404	271.5043	288.1705	307.8265	425.4304	430.3718	489.3545	550.9804	583.4572	678.8482	746.027	804.677	822.3401	847.5823	878.9586	899.2896	926.5152	944.5698	980.7679	1024.7571	1046.6697	1072.5829	1076.8076	1117.3381	1130.9927	1182.539	1190.6969	1208.927	1226.1958	1241.7194	1256.2457	1290.373	1293.9501	1306.9928	1341.1292	1361.4405	1369.4374	1385.4808	1410.0363	1440.2805	1490.171	1491.1455	1492.8397	1500.6256	1504.7765	1524.1203	3008.7814	3010.1649	3019.032	3040.9355	3052.9126	3055.4324	3058.3037	3061.1357	3077.9418	3083.1776	3084.6513	3089.7433	3109.6658	3825.7837
CC12CC(CCC1)C2O	C[C@@]12C[C@@H](CCC1)[C@H]2O	
InChI=1S/C8H14O/c1-8-4-2-3-6(5-8)7(8)9/h6-7,9H,2-5H2,1H3	InChI=1S/C8H14O/c1-8-4-2-3-6(5-8)7(8)9/h6-7,9H,2-5H2,1H3/t6-,7-,8+/m1/s1
