19
gdb 102864	3.17769	0.7807	0.66528	0.8091	74.37	-0.2479	-0.0361	0.2118	1638.1394	0.154329	-460.165073	-460.154406	-460.153462	-460.202533	35.675	
C	-1.1091726656	 0.874291533	 0.1880258346	-0.257659
O	 0.1567729057	 0.2879582937	-0.0413002984	-0.245388
C	 0.7041218169	-0.4401100543	 1.0436559611	 0.080285
C	 0.1111359763	-1.8596471075	 1.1605822609	-0.270903
C	-1.287353631	-1.9186125906	 1.7349049904	 0.149196
O	-2.1965139812	-2.5591100331	 1.2745712021	-0.24016
C	 2.2188656567	-0.4938479483	 0.7936603293	-0.285958
C	 2.8629017528	 0.8779875616	 0.8080664631	 0.150776
O	 3.882379342	 1.136582333	 1.3953732759	-0.240004
H	-1.1029504095	 1.5099227052	 1.0860948762	 0.111904
H	-1.331552154	 1.4956948394	-0.6823874781	 0.138367
H	-1.905781506	 0.1258912909	 0.2914779346	 0.136402
H	 0.5122141836	 0.1023176205	 1.9867318843	 0.080372
H	 0.129448848	-2.3640070453	 0.1904817774	 0.134034
H	 0.7437645903	-2.4295061246	 1.8568756946	 0.130015
H	-1.4201633085	-1.3260821625	 2.6718716229	 0.07536
H	 2.7261555487	-1.1234631168	 1.5287928819	 0.121499
H	 2.3753660591	-0.9295005594	-0.2029484323	 0.137357
H	 2.3187821756	 1.6483326151	 0.2223444995	 0.094505
49.4321	56.3834	87.7654	92.791	110.3133	164.412	214.3407	247.3066	313.9977	337.9671	413.6612	435.1538	540.9766	571.7451	743.1133	804.4986	882.604	967.825	1003.9087	1022.4508	1082.1625	1103.6678	1117.3709	1155.3723	1180.4861	1204.962	1206.9601	1254.593	1273.802	1315.2946	1375.9554	1387.001	1418.514	1429.5656	1436.6672	1449.288	1480.2455	1497.9466	1509.4762	1830.4904	1833.1007	2844.9422	2918.4935	2946.6255	2990.968	3015.6638	3028.2428	3054.361	3106.0162	3112.5299	3121.2906
COC(CC=O)CC=O	COC(CC=O)CC=O	
InChI=1S/C6H10O3/c1-9-6(2-4-7)3-5-8/h4-6H,2-3H2,1H3	InChI=1S/C6H10O3/c1-9-6(2-4-7)3-5-8/h4-6H,2-3H2,1H3
