18
gdb 26275	3.58173	1.14362	0.95883	3.6685	80.66	-0.2472	-0.0179	0.2293	1242.5095	0.149148	-402.007909	-401.999617	-401.998673	-402.041258	31.212	
C	 0.1508348326	 1.476027604	 0.1992467642	-0.405301
C	-0.0847835502	-0.0263682841	-0.0147608041	 0.037948
O	-1.4673878071	-0.3137049412	-0.1695167941	-0.433282
C	 0.6410351562	-0.5231328606	-1.2476293647	 0.29541
C	-0.019906565	-0.7394794101	-2.45497478	-0.19575
C	 0.7168225068	-1.1624332275	-3.5582250337	 0.008591
N	 2.034556207	-1.3788328379	-3.541742845	-0.273117
C	 2.6591563762	-1.172807103	-2.3783393457	 0.010332
C	 2.0169676906	-0.7536463096	-1.2186673257	-0.197933
H	 1.216441945	 1.6956384501	 0.3107643091	 0.127888
H	-0.2343819243	 2.0424692515	-0.6536271915	 0.133707
H	-0.3590308931	 1.818035214	 1.1078372814	 0.108543
H	 0.3173890355	-0.5695568824	 0.8563842575	 0.078441
H	-1.9424974104	 0.1288643847	 0.5401131462	 0.2859
H	-1.089505808	-0.5898867504	-2.5243986067	 0.117167
H	 0.2164901575	-1.3386761287	-4.5080553439	 0.106217
H	 3.7312003136	-1.3571546762	-2.3707886671	 0.105301
H	 2.5856793373	-0.6157206224	-0.3037359764	 0.089939
43.6651	134.6294	214.4334	253.7133	266.3109	307.9155	382.9145	391.3942	473.5422	556.2136	610.4443	681.5512	769.7405	779.5178	846.0291	905.5412	910.4802	990.717	1004.186	1010.0985	1027.7069	1091.5583	1093.9674	1100.1874	1137.4987	1205.0726	1243.1075	1249.9598	1303.6695	1353.727	1361.4046	1401.1747	1421.7574	1443.8647	1490.2219	1496.5415	1528.8456	1604.847	1639.3736	2961.2012	3028.4425	3100.4808	3123.9119	3148.4065	3151.3087	3174.549	3222.6069	3829.7791
CC(O)C1=CC=NC=C1	C[C@@H](O)c1ccncc1	
InChI=1S/C7H9NO/c1-6(9)7-2-4-8-5-3-7/h2-6,9H,1H3	InChI=1S/C7H9NO/c1-6(9)7-2-4-8-5-3-7/h2-6,9H,1H3/t6-/m1/s1
