22
gdb 15939	3.2777	1.70931	1.40062	0.1446	81.17	-0.2559	0.0794	0.3352	1014.3309	0.201082	-313.053618	-313.045326	-313.044382	-313.08694	31.861	
C	 0.0803035417	 1.5701729514	-0.094862945	-0.379789
C	 0.1256297065	 0.0371115561	-0.0702800041	-0.289064
C	 0.6624817225	-0.5201681391	 1.2342444643	 0.420871
C	 2.180713047	-0.3290242197	 1.5304201142	-0.280071
C	 2.3296403766	-1.8560728944	 1.8052199752	-0.218411
C	 0.8179024714	-2.0631102738	 1.5323577244	-0.08179
C	-0.0921499014	-1.9120581759	 2.7780160975	-0.218412
C	-0.2355596646	-0.3848944052	 2.500931475	-0.28007
H	 1.0789371644	 1.9980052993	 0.0447943517	 0.117257
H	-0.3108029203	 1.9412070391	-1.0472438407	 0.110299
H	-0.5605610305	 1.9600919356	 0.7033033486	 0.117258
H	-0.8827470259	-0.3618703542	-0.2467686407	 0.088515
H	 0.7469098883	-0.3241838918	-0.9013244758	 0.088515
H	 2.7505109176	 0.0101841844	 0.6600152483	 0.09446
H	 2.4170093629	 0.3360520401	 2.3663981745	 0.091215
H	 2.978735336	-2.3617734063	 1.0858368725	 0.097112
H	 2.6625359361	-2.1334362548	 2.8101564678	 0.092502
H	 0.5462244633	-2.8372168381	 0.8114674234	 0.054314
H	-1.037628282	-2.4546687213	 2.6991922218	 0.097113
H	 0.3736321567	-2.1862962575	 3.7295873977	 0.092503
H	 0.1454710951	 0.2835738132	 3.2787411896	 0.091214
H	-1.2619119215	-0.0826519773	 2.2716113499	 0.094459
29.6679	118.1022	167.7887	221.3176	290.7005	355.7291	359.3089	412.3434	623.405	624.0527	740.7096	753.0835	793.7863	834.891	863.523	892.9106	918.1118	936.5344	952.456	992.193	996.7944	1035.0212	1048.169	1052.3817	1114.0536	1136.4934	1185.4087	1207.9033	1231.7936	1232.6071	1242.5032	1256.8931	1264.5414	1282.5432	1310.2269	1321.476	1331.2042	1366.8077	1412.1	1471.2642	1477.4979	1485.9952	1487.3972	1501.6667	1503.4741	1508.073	3004.804	3033.2803	3035.7883	3041.3672	3042.8312	3049.0843	3051.4486	3075.8721	3082.5044	3088.4035	3099.8199	3102.8935	3102.9356	3108.8741
CCC12CCC1CC2	CC[C@]12CC[C@H]1CC2	
InChI=1S/C8H14/c1-2-8-5-3-7(8)4-6-8/h7H,2-6H2,1H3	InChI=1S/C8H14/c1-2-8-5-3-7(8)4-6-8/h7H,2-6H2,1H3/t7-,8+
