15
gdb 32046	3.77988	1.26494	0.95347	3.0687	74.13	-0.2269	-0.0403	0.1866	1176.7739	0.113689	-453.984261	-453.976451	-453.975506	-454.016892	28.536	
C	-0.05465481	 1.3496809086	-0.0540582172	-0.230432
O	 0.0407204517	-0.0779007855	 0.0588514307	-0.233513
C	 0.6736946088	-0.5400515628	 1.1231069619	 0.525221
N	 1.1890627865	 0.2122300663	 2.0285894564	-0.415294
C	 1.8110052653	-0.4619713978	 3.0662317291	-0.010733
C	 1.8881372772	-1.8051387998	 3.1509014711	-0.158133
C	 1.2990693486	-2.621823233	 2.1171564475	 0.383426
N	 1.2967621437	-3.8851452122	 2.0690507924	-0.533544
O	 0.6771096538	-1.8784050623	 1.0820645867	-0.246435
H	 0.9409011255	 1.7964101946	-0.0992762862	 0.149278
H	-0.6012712887	 1.5266322481	-0.9798099669	 0.142763
H	-0.5930463614	 1.7650978297	 0.8005127423	 0.1493
H	 2.2449379993	 0.1763575081	 3.8289681517	 0.122954
H	 2.3774719767	-2.315766727	 3.9680174044	 0.126933
H	 0.8155590831	-4.223365405	 1.2361775759	 0.228208
98.0643	148.4179	160.0946	221.1389	229.1346	385.5466	410.275	496.4337	533.4535	631.1872	701.7514	773.4494	787.3844	824.5663	862.4642	879.1741	963.0032	1001.6902	1039.8649	1081.9662	1141.7233	1181.7324	1206.5903	1228.381	1304.9281	1384.8205	1430.8681	1479.5962	1481.3506	1496.6751	1615.7478	1661.3998	1764.818	3058.6949	3138.5531	3167.6793	3187.0058	3242.9041	3500.9692
COC1=NC=CC(=N)O1	COC1=NCC=C([NH])O1	
InChI=1S/C5H6N2O2/c1-8-5-7-3-2-4(6)9-5/h2-3,6H,1H3	InChI=1S/C5H7N2O2/c1-8-5-7-3-2-4(6)9-5/h2,6H,3H2,1H3
