17
gdb 98029	5.87553	0.59793	0.5666	3.1881	85.32	-0.2474	-0.0243	0.2231	1945.8395	0.135453	-417.977543	-417.967643	-417.966699	-418.014558	33.353	
C	-0.0037817604	 1.4521977411	-0.2222478179	-0.339321
N	-0.0885110793	 0.0060750787	-0.1952564478	-0.310941
C	-1.2234405332	-0.6555009859	 0.1778328727	 0.256536
O	-2.2557188175	-0.1041169992	 0.5203853212	-0.361808
C	-1.093713918	-2.1033442557	 0.1314648099	-0.037029
C	-1.0526511137	-3.3102705954	 0.1194661726	 0.166972
C	-1.0318348038	-4.7418618857	 0.0860164736	-0.175147
C	-1.7413942159	-5.5089199721	 1.1593037492	-0.222863
N	-2.283317997	-5.4892002284	-0.1976743763	-0.300816
H	 0.7817032688	 1.8169588619	 0.4489116452	 0.128549
H	 0.1997279029	 1.8209418204	-1.2338794236	 0.128991
H	-0.9664122779	 1.8410524605	 0.1109639707	 0.174447
H	 0.7092156453	-0.5444494247	-0.467266578	 0.253987
H	-0.1524804821	-5.1908164461	-0.3677746856	 0.121875
H	-1.3267697672	-6.461472926	 1.4761950389	 0.131047
H	-2.2361745209	-4.934662913	 1.9365201571	 0.135409
H	-3.05534788	-4.8283982604	-0.2515551319	 0.250113
29.0727	68.6441	69.1131	82.1402	155.0175	173.049	276.7827	310.3012	405.7652	472.6036	529.2908	542.0254	607.0151	758.0311	782.583	815.0424	866.8855	949.6313	973.2725	1017.8844	1098.5235	1117.5813	1151.4575	1151.7168	1171.0136	1202.9069	1248.6565	1270.2021	1301.3184	1392.4433	1438.5391	1490.3953	1498.4923	1504.6291	1557.8203	1753.4651	2334.129	3027.9962	3079.8965	3117.971	3144.207	3156.0813	3210.776	3504.7573	3647.9439
CNC(=O)C#CC1CN1	CNC(=O)C#C[C@H]1CN1	
InChI=1S/C6H8N2O/c1-7-6(9)3-2-5-4-8-5/h5,8H,4H2,1H3,(H,7,9)	InChI=1S/C6H8N2O/c1-7-6(9)3-2-5-4-8-5/h5,8H,4H2,1H3,(H,7,9)/t5-/m0/s1
