19
gdb 30262	3.74067	1.38512	1.165	2.8116	82.27	-0.1669	0.0604	0.2273	1099.525	0.162786	-382.106748	-382.099121	-382.098177	-382.13873	30.4	
C	 0.2549700654	 1.4656463363	 0.046882723	-0.399746
C	-0.0633971399	-0.0299251256	-0.044045318	 0.028167
C	 0.6405806136	-0.7088218451	-1.2551390261	-0.190863
N	 1.8420264664	-1.221021795	-0.6314292576	 0.004266
C	 3.0254096458	-1.8156746613	-1.024083952	-0.156139
C	 3.6585381634	-2.2269010418	 0.1251978131	-0.12852
C	 2.8299049273	-1.9029155938	 1.2512201263	-0.330461
C	 1.7165850815	-1.2917553993	 0.7257927308	 0.378307
N	 0.4572298914	-0.8000085	 1.1153996785	-0.411764
H	 1.3370581097	 1.6301506562	 0.0736116356	 0.137491
H	-0.1565902385	 2.0059213392	-0.8123577923	 0.118735
H	-0.1821126651	 1.9013738291	 0.9517644558	 0.11645
H	-1.1466898299	-0.1689935654	-0.1120928221	 0.087555
H	 0.030312221	-1.5206197772	-1.6713229188	 0.118494
H	 0.8601724339	 0.0047467285	-2.0549611756	 0.117243
H	 3.3107457246	-1.874252466	-2.0611909488	 0.107452
H	 4.6264635003	-2.7037143647	 0.1689516452	 0.087053
H	 3.0379891272	-2.0966852475	 2.2909947627	 0.08338
H	 0.470441612	-0.2616392666	 1.9728551505	 0.232901
88.0464	155.4312	241.595	262.7372	347.3434	393.5381	459.6307	596.603	626.1866	644.2793	663.1072	702.4754	726.8439	757.7081	807.4229	825.9223	850.7117	927.9049	945.4827	957.9325	1035.6415	1049.6425	1079.6281	1131.7963	1139.5448	1157.7353	1222.1154	1246.3747	1302.288	1318.6067	1332.9548	1363.0795	1396.6148	1407.1786	1421.4746	1491.9552	1495.0223	1496.5012	1513.1482	1539.7713	1614.3908	3016.1894	3029.7541	3055.8749	3077.8176	3098.2223	3111.7768	3238.4087	3260.1324	3275.4403	3554.6132
CC1CN2C=CC=C2N1	C[C@H]1Cn2cccc2N1	
InChI=1S/C7H10N2/c1-6-5-9-4-2-3-7(9)8-6/h2-4,6,8H,5H2,1H3	InChI=1S/C7H10N2/c1-6-5-9-4-2-3-7(9)8-6/h2-4,6,8H,5H2,1H3/t6-/m0/s1
