13
gdb 20743	3.47408	1.90475	1.23971	3.3187	62.14	-0.2577	-0.0615	0.1962	903.1409	0.096613	-394.799416	-394.792255	-394.791311	-394.831327	24.779	
C	-0.0281192672	 1.507447386	-0.0233389789	-0.50714
C	-0.0101155689	 0.0137386529	 0.0221985947	 0.264133
N	-0.0294363088	-0.719312975	-1.0912961082	-0.256438
N	-0.0040568237	-1.9716697307	-0.6332894624	-0.061566
N	 0.0307214471	-2.1353332992	 0.6667843902	-0.234935
C	 0.0278898253	-0.8734273098	 1.1293255926	 0.146644
C	 0.0602534655	-0.5481164136	 2.5616307556	 0.085437
O	 0.0924231106	-1.3518338273	 3.4611883934	-0.254681
H	 0.8641131582	 1.9319704547	 0.4478363096	 0.145418
H	-0.0625992709	 1.8421775282	-1.0616196361	 0.153511
H	-0.8999394711	 1.9123805551	 0.5002942248	 0.145326
H	-0.0113048917	-2.7590951454	-1.2636229008	 0.302064
H	 0.0508232455	 0.545795844	 2.7651193554	 0.072227
91.6449	124.6186	178.8537	238.8486	319.6117	325.7524	525.3348	589.4936	655.8423	721.5655	737.6036	832.4628	989.8459	1023.8754	1032.2191	1072.7598	1157.9641	1194.7627	1278.0021	1361.4477	1413.8538	1421.45	1454.1238	1484.9415	1485.1728	1509.5719	1554.251	1810.2272	2883.2181	3045.2943	3100.9654	3140.872	3651.5735
CC1=NNN=C1C=O	Cc1n[nH]nc1C=O	
InChI=1S/C4H5N3O/c1-3-4(2-8)6-7-5-3/h2H,1H3,(H,5,6,7)	InChI=1S/C4H5N3O/c1-3-4(2-8)6-7-5-3/h2H,1H3,(H,5,6,7)
