18
gdb 92820	3.02308	1.64502	1.17541	3.0142	78.46	-0.2126	-0.0029	0.2097	1054.4704	0.150422	-398.158907	-398.151233	-398.150289	-398.191554	28.953	
C	 0.0411136945	 1.5578782284	 0.0925206606	-0.396213
C	-0.0280263196	 0.0321102808	 0.007040564	-0.011381
C	 0.8639267526	-0.5780396379	-1.1448661702	-0.184523
N	 2.0307047021	-1.2345472771	-0.5149881935	-0.355445
C	 1.7871842136	-1.2303619672	 0.7337400784	 0.383034
C	 2.4677322407	-1.6670256032	 2.0114558432	-0.279336
N	 1.6106079055	-1.1406837595	 3.0994191706	-0.270146
C	 0.6144601315	-0.5680456161	 2.5290438475	 0.048886
N	 0.5995623906	-0.6315349715	 1.1486159835	-0.071382
H	 1.0799725797	 1.8937302308	 0.1712576111	 0.134484
H	-0.3965807656	 2.0028461822	-0.8067500236	 0.126894
H	-0.5109257192	 1.9376557591	 0.9582722739	 0.120966
H	-1.070866874	-0.2854311623	-0.0933913221	 0.095012
H	 0.3039398127	-1.3160957691	-1.7308938926	 0.115931
H	 1.197083254	 0.2005075603	-1.8396456286	 0.113691
H	 2.5387609269	-2.7584373136	 2.0832348917	 0.14642
H	 3.4856009151	-1.2736562034	 2.096460617	 0.147871
H	-0.1921003711	-0.0834687708	 3.0689484694	 0.135239
58.9941	109.3067	222.3993	245.3255	304.6319	406.1432	459.6091	475.3518	625.8831	633.7911	698.512	760.5504	868.0837	909.2316	923.2329	929.1703	937.1432	978.0043	996.205	1012.3192	1093.8231	1124.5728	1133.9357	1182.9587	1230.1082	1237.2155	1273.3685	1285.0678	1324.3545	1344.899	1374.8947	1396.2411	1408.3032	1454.1325	1489.5655	1494.396	1497.5901	1646.9502	1744.1326	3030.6236	3034.6408	3048.2442	3048.4763	3071.4118	3084.3735	3106.9497	3114.594	3198.0125
CC1CN=C2CN=CN12	C[C@H]1C[N][C]2CN=CN12	
InChI=1S/C6H9N3/c1-5-2-8-6-3-7-4-9(5)6/h4-5H,2-3H2,1H3	InChI=1S/C6H9N3/c1-5-2-8-6-3-7-4-9(5)6/h4-5H,2-3H2,1H3/t5-/m0/s1
