15
gdb 128053	4.52353	1.05647	0.86108	1.7578	71.72	-0.2404	-0.0673	0.173	1274.0199	0.112166	-450.106925	-450.098088	-450.097144	-450.142377	30.174	
C	-0.0939478025	 1.3813172226	-0.0527615443	-0.310908
N	-0.048283699	-0.0566057912	 0.1102920361	-0.309307
C	 0.6384499107	-0.6296861266	 1.13490507	 0.262851
N	 1.2350723233	 0.0860754861	 2.0192793841	-0.547031
C	 0.6215047078	-2.1109480052	 1.1293650236	 0.413823
C	 1.1639854093	-3.0468793626	 1.9602143172	-0.211385
N	 0.824729385	-4.2765294637	 1.4567163599	-0.104078
N	 0.1376638637	-4.1639503708	 0.4125768957	-0.005318
O	-0.0242512668	-2.7548990485	 0.1550741334	-0.242815
H	 0.9071946223	 1.7979632171	-0.2128852169	 0.141324
H	-0.7250403653	 1.6176955443	-0.9111281766	 0.124642
H	-0.5078830902	 1.8561403733	 0.8421943915	 0.149073
H	-0.4397361675	-0.6521195237	-0.5972049787	 0.267401
H	 1.685085127	-0.4917609101	 2.7240401012	 0.220522
H	 1.7541278321	-2.9415784811	 2.8536152538	 0.151207
24.8226	49.2463	116.4089	159.2921	211.0514	286.3349	306.7932	399.0054	458.0911	607.0775	630.4148	691.4293	755.5181	783.2386	804.2789	837.4577	980.182	990.1776	1054.9623	1133.5588	1160.0169	1176.4044	1192.2917	1222.7645	1335.1	1355.4479	1449.6998	1456.3063	1471.3892	1512.6119	1553.3553	1611.2407	1688.8081	3032.8018	3088.6979	3138.4568	3296.1849	3528.7076	3685.3887
CNC(=N)C1=CN=NO1	CNC(=N)c1cnno1	
InChI=1S/C4H6N4O/c1-6-4(5)3-2-7-8-9-3/h2H,1H3,(H2,5,6)	InChI=1S/C4H6N4O/c1-6-4(5)3-2-7-8-9-3/h2H,1H3,(H2,5,6)
