18
gdb 82347	2.32359	1.69841	1.34117	4.7331	74.69	-0.2394	0.0394	0.2788	1018.5373	0.150723	-398.123803	-398.115799	-398.114854	-398.156347	30.934	
N	-0.2271405681	 1.4987988209	 0.004458947	-0.518435
C	-0.048814244	 0.0631279147	-0.0769611343	 0.025031
C	-1.3673543288	-0.6780048744	 0.0459488428	-0.019637
N	-2.1427461039	-0.6358146265	-1.2118914981	-0.333433
C	-1.3812694096	-1.8496915933	-0.8545803358	-0.028976
C	-0.0571299515	-1.9471005898	-1.5888338473	-0.230302
C	 0.5936367328	-0.5429652498	-1.4021597548	-0.213772
C	 0.3946660735	 0.334898235	-2.5515928913	 0.304884
N	 0.2869721827	 1.0509307661	-3.4531805576	-0.348392
H	 0.6594171243	 1.9838050317	-0.0933195237	 0.232689
H	-0.8163195133	 1.8085921223	-0.7643255431	 0.252674
H	 0.5961680615	-0.2449319633	 0.7548750847	 0.090312
H	-1.8898863542	-0.6604174837	 0.9959878703	 0.096399
H	-3.1293392479	-0.7752832497	-1.0124701459	 0.238174
H	-1.9212382186	-2.7565737213	-0.6031357804	 0.09208
H	 0.5706046254	-2.7077181244	-1.1128882425	 0.110055
H	-0.1676801465	-2.2137846	-2.642938706	 0.130502
H	 1.6759586162	-0.6378299946	-1.270645124	 0.120147
76.3437	149.238	182.0633	261.73	320.1602	350.4297	375.4752	479.7349	520.5613	571.0776	658.9295	731.3853	793.8249	810.2284	865.3337	882.0171	892.2256	914.5933	952.2184	968.0342	1024.4213	1067.7998	1082.2434	1124.0823	1139.1773	1157.46	1198.5135	1219.0211	1236.0768	1257.416	1307.7188	1329.6605	1358.7634	1362.423	1426.3424	1437.593	1484.3889	1655.6831	2352.7442	3035.0285	3051.1486	3066.9477	3104.9766	3165.4669	3178.9601	3492.17	3516.0292	3571.8351
NC1C2NC2CC1C#N	N[C@H]1[C@H]2N[C@H]2C[C@H]1C#N	
InChI=1S/C6H9N3/c7-2-3-1-4-6(9-4)5(3)8/h3-6,9H,1,8H2	InChI=1S/C6H9N3/c7-2-3-1-4-6(9-4)5(3)8/h3-6,9H,1,8H2/t3-,4-,5+,6-/m0/s1
