18
gdb 128166	2.31682	1.41877	0.92831	2.1763	76.22	-0.1905	0.032	0.2225	1271.4714	0.148708	-435.256614	-435.24727	-435.246326	-435.292003	32.828	
C	 0.2316593768	 1.0567813729	 0.4877830819	-0.328318
N	-0.1931231805	 0.1454155396	-0.584340552	-0.397385
C	-1.2740510939	-0.6920134249	-0.290530717	 0.265932
C	-1.3443752381	-2.0532898052	-0.0362928614	 0.214543
O	-0.2420248216	-2.8526613423	 0.0084629474	-0.280907
C	-0.5048536564	-4.2290550302	 0.2005322874	-0.249568
C	-2.7168803611	-2.3324400864	 0.1400551437	-0.121942
N	-3.4553585066	-1.2272289218	 0.0176336397	-0.239932
N	-2.5631589362	-0.256292987	-0.2513824942	-0.229366
H	 1.077412307	 1.650602035	 0.1310476564	 0.125021
H	-0.5819061639	 1.7472998569	 0.7269894137	 0.126325
H	 0.5234145922	 0.5408502864	 1.4144232569	 0.118445
H	 0.5863965567	-0.4253809113	-0.8893839438	 0.244099
H	-1.0039764339	-4.4115057948	 1.1620195479	 0.121761
H	-1.1319337625	-4.6339993624	-0.6053248782	 0.122263
H	 0.4612652079	-4.7368595888	 0.1961297566	 0.130835
H	-3.1961822173	-3.274356747	 0.3581781513	 0.107164
H	-2.8863601586	 0.6783206413	-0.4342171363	 0.271029
32.9631	64.2077	148.1706	159.4053	205.8037	211.8971	308.4954	317.2123	410.9759	482.5439	538.6624	613.652	688.2817	709.5098	722.4928	796.959	843.813	945.0754	1035.7042	1085.5304	1126.1122	1144.9501	1159.2538	1181.3639	1209.9881	1223.0196	1267.3807	1317.5403	1392.5839	1421.8536	1455.1851	1479.0023	1486.4716	1488.2498	1496.9394	1509.1495	1518.484	1562.6095	1656.9522	2994.3718	2997.4295	3052.6763	3082.9134	3119.0746	3130.7155	3250.9395	3553.8869	3674.7824
CNC1=C(OC)C=NN1	CNc1c(OC)cn[nH]1	
InChI=1S/C5H9N3O/c1-6-5-4(9-2)3-7-8-5/h3H,1-2H3,(H2,6,7,8)	InChI=1S/C5H9N3O/c1-6-5-4(9-2)3-7-8-5/h3H,1-2H3,(H2,6,7,8)
