18
gdb 84139	2.65772	1.35808	1.02108	0.8748	79.32	-0.2471	0.0193	0.2663	1207.5934	0.145872	-401.942651	-401.933357	-401.932413	-401.977828	33.832	
C	 0.0285144276	 1.5157756046	-0.1633047074	-0.388159
C	 0.0637535668	 0.0025169217	 0.0308612395	 0.005826
N	 0.6303896008	-0.6729660642	-1.1436677722	-0.307281
C	 1.5829958315	-1.4082486127	-0.7426118031	 0.404723
C	 2.4541841124	-2.2754787605	-1.5846711146	-0.473572
O	 1.8702505834	-1.442150065	 0.5918140023	-0.255321
C	 0.9474908389	-0.5212173582	 1.2314065996	-0.099632
C	 1.6909123533	 0.4827169731	 1.9787722564	 0.35264
C	 2.2873291296	 1.309920147	 2.6142291895	-0.473394
H	 1.0358037665	 1.9151259901	-0.3067940249	 0.128046
H	-0.5664859804	 1.7507190913	-1.0494083662	 0.126777
H	-0.4177332616	 2.0140208824	 0.7020538119	 0.11776
H	-0.9628636668	-0.3555799852	 0.1721323997	 0.091201
H	 3.5022108894	-1.9813350174	-1.471545068	 0.148087
H	 2.3730405976	-3.3189445165	-1.2644381592	 0.145795
H	 2.1579614469	-2.1883174638	-2.6293035546	 0.15247
H	 0.3419811849	-1.1102048899	 1.9278944442	 0.118757
H	 2.8184058193	 2.0404893934	 3.173469137	 0.205276
17.3508	126.4594	153.3126	157.3707	231.2033	242.3966	297.7406	358.7932	429.0882	491.4193	547.8811	618.3326	624.4775	670.8273	677.8403	739.2685	813.3991	899.2002	947.1131	953.9516	1020.368	1035.6454	1066.0861	1094.2782	1126.9267	1143.6948	1252.3208	1280.3529	1330.081	1357.3859	1376.1135	1409.808	1413.6822	1474.5614	1476.5459	1485.5262	1492.8811	1748.8223	2237.6781	3025.7656	3048.188	3051.6746	3053.7415	3109.4595	3123.4504	3129.8367	3166.779	3501.1999
CC1N=C(C)OC1C#C	C[C@H]1N=C(C)O[C@H]1C#C	
InChI=1S/C7H9NO/c1-4-7-5(2)8-6(3)9-7/h1,5,7H,2-3H3	InChI=1S/C7H9NO/c1-4-7-5(2)8-6(3)9-7/h1,5,7H,2-3H3/t5-,7+/m1/s1
