18
gdb 80722	3.09547	1.08832	0.99699	3.3749	75.69	-0.2537	0.0279	0.2816	1244.724	0.14741	-401.919267	-401.910801	-401.909857	-401.95288	31.547	
C	 0.0381587883	 1.5766887435	-0.3793332556	-0.430737
C	 0.2616399569	 0.1229667479	-0.0182568857	-0.015378
C	 1.4351755707	-0.6797185773	-0.4696011074	 0.07072
O	 2.6332238401	 0.1164723573	-0.4827818962	-0.304033
C	 2.6030951593	 0.1932625402	 0.9640052206	 0.137296
C	 2.876681264	 1.6063762201	 1.4981647026	-0.369845
C	 2.8902376718	 1.621558462	 2.9579931681	 0.256936
N	 2.8914468617	 1.6056640902	 4.1134067348	-0.304369
C	 1.2233771125	-0.4524566686	 1.0171989653	-0.172265
H	 0.9702891676	 2.0502064968	-0.6948318907	 0.137152
H	-0.6630937222	 1.6482312272	-1.2171336513	 0.121945
H	-0.3848743695	 2.1454812438	 0.4552289839	 0.123726
H	-0.647339494	-0.4773247624	-0.0191042758	 0.099474
H	 1.4256050031	-1.57017087	-1.0871232759	 0.110199
H	 3.3574213577	-0.4895771613	 1.3755465834	 0.107649
H	 3.8518521378	 1.9419265311	 1.1262388297	 0.161766
H	 2.1276762591	 2.3146770494	 1.1389308147	 0.158021
H	 0.8989801851	-1.1374711301	 1.7882666352	 0.111744
52.0294	116.6366	170.7435	228.8636	246.5431	297.8477	366.3674	395.211	472.2834	556.0719	634.1435	707.0716	743.7545	805.3644	870.5825	893.2912	949.1005	985.2747	995.8097	1016.7427	1019.0057	1060.8016	1065.3124	1086.1663	1120.981	1143.1145	1205.3617	1209.5086	1260.7217	1288.0341	1327.1588	1342.2579	1403.1763	1409.7094	1443.2025	1465.879	1500.1196	1507.8407	2363.5024	3022.9554	3037.7739	3054.8286	3096.0146	3117.2466	3124.1056	3132.8413	3183.3862	3210.926
CC1C2OC(CC#N)C12	C[C@H]1[C@H]2O[C@@H](CC#N)[C@@H]12	
InChI=1S/C7H9NO/c1-4-6-5(2-3-8)9-7(4)6/h4-7H,2H2,1H3	InChI=1S/C7H9NO/c1-4-6-5(2-3-8)9-7(4)6/h4-7H,2H2,1H3/t4-,5+,6-,7-/m1/s1
