19
gdb 128100	2.06174	1.75917	1.01523	4.905	79.47	-0.2164	0.014	0.2303	1200.9439	0.159379	-415.386718	-415.376895	-415.37595	-415.42214	34.038	
C	 0.1858217782	 1.0992361547	 0.6105590131	-0.337406
N	-0.4746760358	 0.368620174	-0.4801063456	-0.394952
C	 0.3533937003	-0.3494051114	-1.349377024	 0.227169
C	 0.6330917805	-1.6951420931	-1.504496343	 0.25548
C	 0.1297805812	-2.863560584	-0.7222932579	-0.499919
N	 1.4748936241	-1.8295586863	-2.567168194	-0.256474
N	 1.741040715	-0.6561340709	-3.0676129421	-0.170387
N	 1.0547433711	 0.256673545	-2.3469788293	 0.035416
C	 1.1083889268	 1.6598710827	-2.6902062573	-0.330754
H	 0.7985181196	 0.4574569869	 1.2600406552	 0.120576
H	 0.8324452286	 1.8779195926	 0.1972999055	 0.134557
H	-0.5790927849	 1.5904388389	 1.2174404605	 0.128929
H	-1.1985171506	-0.2363978622	-0.114043703	 0.241399
H	-0.7219842994	-3.351688547	-1.2109655099	 0.13421
H	 0.9170942822	-3.6143332922	-0.6155676279	 0.147464
H	-0.1912662341	-2.5619610715	 0.2803155288	 0.109062
H	 0.1236865953	 2.1047023492	-2.5293616588	 0.152785
H	 1.8476405886	 2.1950932029	-2.0847657597	 0.13975
H	 1.3889831732	 1.7349226716	-3.7408914404	 0.163095
50.0412	84.1437	130.7134	136.7832	167.0651	185.8631	256.4307	276.5508	303.1375	413.1579	500.3661	590.7891	674.9297	704.2492	719.2874	773.2152	819.9926	1001.0019	1031.0601	1050.05	1064.4209	1076.4015	1148.0927	1154.0597	1179.4927	1252.0753	1285.8505	1326.415	1375.2753	1419.6757	1434.8046	1449.2673	1461.6384	1478.5583	1487.109	1491.0241	1496.4143	1503.919	1515.6608	1544.5501	1625.8444	2998.957	3027.82	3041.9429	3082.2656	3087.2068	3113.6199	3116.7601	3123.5104	3160.9512	3566.7565
CNC1=C(C)N=NN1C	CNc1c(C)nnn1C	
InChI=1S/C5H10N4/c1-4-5(6-2)9(3)8-7-4/h6H,1-3H3	InChI=1S/C5H10N4/c1-4-5(6-2)9(3)8-7-4/h6H,1-3H3
