14
gdb 27652	3.18641	1.22765	0.88825	5.327	72.74	-0.1905	0.0076	0.1981	1201.547	0.102298	-432.917334	-432.90887	-432.907926	-432.950192	31.261	
N	 0.0893188901	 1.3730860865	 0.2057647679	-0.613674
C	-0.0055042657	-0.0064685728	 0.0376650338	 0.236104
C	-1.0998450574	-0.852749398	-0.0155446159	 0.147573
C	-0.6035878021	-2.2114808204	-0.0917344282	-0.431729
C	 0.7552848243	-2.1182847644	-0.096579934	 0.404549
O	 1.7647108378	-3.0185765034	-0.161200594	-0.433258
N	 1.1188934846	-0.7895681218	-0.0189331783	-0.337035
C	-2.438689349	-0.4121933081	-0.0136674212	 0.177186
N	-3.530894528	-0.0182980434	-0.0121072842	-0.373811
H	 0.5701368465	 1.8415169408	-0.5557053867	 0.253724
H	-0.8288722806	 1.7866370605	 0.3182768016	 0.270355
H	-1.1995880688	-3.1069020981	-0.1535578793	 0.112575
H	 1.3853410101	-3.9005065014	-0.2258172625	 0.313035
H	 2.0624590083	-0.4646862058	 0.109134261	 0.274406
128.6472	137.1293	209.4797	221.8326	231.7889	297.9271	336.4211	429.8446	457.4319	516.2616	527.9206	603.121	654.823	664.0876	684.3468	737.6958	782.5751	818.8204	1033.3324	1103.1361	1159.3011	1185.8639	1197.7461	1295.0812	1348.4862	1492.3359	1513.8493	1603.6092	1650.4937	1663.8418	2323.5651	3267.5185	3504.1429	3601.7248	3674.3379	3845.072
NC1=C(C=C(O)N1)C#N	Nc1c(cc(O)[nH]1)C#N	
InChI=1S/C5H5N3O/c6-2-3-1-4(9)8-5(3)7/h1,8-9H,7H2	InChI=1S/C5H5N3O/c6-2-3-1-4(9)8-5(3)7/h1,8-9H,7H2
