23
gdb 91653	2.4917	1.6163	1.32482	1.4888	85.11	-0.231	0.0905	0.3215	1109.9471	0.20617	-388.273011	-388.264235	-388.26329	-388.305489	35.727	
C	-0.0387536106	 1.5048538784	-0.0260703071	-0.431567
C	 0.0144123998	-0.0135130568	 0.0615083376	 0.162048
O	 0.7602940461	-0.6235721887	-1.0328356587	-0.302002
C	 1.5719433042	-1.5965039514	-0.3420347818	 0.073276
C	 0.6046762716	-2.1740664175	 0.7119524588	-0.258163
C	 0.7179352612	-0.7043199021	 1.2447437384	-0.126064
C	 2.2417989837	-0.7550538644	 0.7919871046	 0.355664
C	 3.1420376598	-1.5148069816	 1.7771191151	-0.464858
C	 2.9966171664	 0.4983924244	 0.3420327671	-0.47376
H	 0.9139171766	 1.9926161683	 0.1753489253	 0.123516
H	-0.3708941255	 1.7991956379	-1.0267600657	 0.126728
H	-0.7741961329	 1.8816567169	 0.6931165169	 0.111282
H	-1.0238354965	-0.3718637417	 0.0008367739	 0.071327
H	 2.1265917793	-2.1893382729	-1.0699307757	 0.07042
H	-0.3731937956	-2.494939812	 0.3463350799	 0.097413
H	 1.0304315126	-2.9368153053	 1.3578200344	 0.102608
H	 0.4177459485	-0.4163036627	 2.2531285398	 0.063521
H	 2.6701586485	-2.3702716087	 2.2616233239	 0.114231
H	 4.0454435389	-1.8735758911	 1.2704277894	 0.115681
H	 3.4700261986	-0.8344528552	 2.5714852395	 0.116429
H	 2.9981173794	 1.2703658198	 1.1199514932	 0.110184
H	 4.0443775461	 0.2430519707	 0.145073937	 0.104842
H	 2.5816887298	 0.9196218656	-0.5724606561	 0.137243
165.4779	178.2325	184.0926	223.2539	289.5382	301.0208	337.6274	370.2542	411.4619	491.1826	513.2333	561.1144	634.697	679.6684	805.3112	817.3098	841.4588	860.6641	899.2701	941.9364	963.6357	969.3599	1003.6891	1016.9107	1032.4796	1045.0903	1088.0271	1107.9379	1124.7252	1152.1112	1191.2996	1202.3721	1214.8592	1234.6959	1264.2132	1286.1696	1302.5299	1342.4296	1400.139	1405.1959	1422.1931	1425.2117	1482.3209	1488.6133	1495.9424	1498.1329	1502.8812	1522.2045	1528.0757	2980.1259	3027.1842	3033.2434	3044.8485	3079.4904	3082.9577	3083.7556	3102.6078	3109.2915	3118.6915	3129.457	3149.8793	3163.9847	3172.3822
CC1OC2CC1C2(C)C	C[C@H]1O[C@@H]2C[C@H]1C2(C)C	
InChI=1S/C8H14O/c1-5-6-4-7(9-5)8(6,2)3/h5-7H,4H2,1-3H3	InChI=1S/C8H14O/c1-5-6-4-7(9-5)8(6,2)3/h5-7H,4H2,1-3H3/t5-,6-,7-/m1/s1
