18
gdb 85134	2.13375	1.67917	1.13749	4.3119	72.43	-0.2477	0.0219	0.2696	1109.1787	0.147319	-439.084305	-439.075622	-439.074678	-439.11816	31.583	
C	-0.0458389269	 1.5813912026	-0.1420073155	-0.404306
C	 0.0488347051	 0.0664421519	-0.0565945807	-0.002606
N	 1.1600856461	-0.5395500418	-0.8117943046	-0.357087
C	 1.7573759407	-1.1444303075	 0.2658403574	 0.398659
O	 2.7205573131	-1.8532730206	 0.389508262	-0.366459
C	 0.6904934643	-0.5669806858	 1.217802292	 0.094402
C	 1.0693042268	 0.2139188011	 2.4891916285	-0.130131
O	 0.2834703756	-0.6620133067	 3.3206750547	-0.272628
C	-0.0761480237	-1.4809471861	 2.1914690481	-0.131076
H	 0.9079662574	 2.0513377119	 0.1163379127	 0.126814
H	-0.3150483739	 1.8959364513	-1.1557524406	 0.122714
H	-0.8171216284	 1.9587863314	 0.5372573412	 0.13082
H	-0.9186546718	-0.391249364	-0.2999841168	 0.088116
H	 1.3481606949	-0.6013106816	-1.8018936688	 0.249721
H	 2.1356751873	 0.1755691151	 2.7425750552	 0.121644
H	 0.7202996709	 1.2526051623	 2.5364347035	 0.104877
H	-1.1622952811	-1.5292399715	 2.041183728	 0.103568
H	 0.3278066436	-2.497412462	 2.2734326937	 0.122958
68.7078	81.077	165.6083	207.7526	236.4972	253.4561	302.834	397.8232	486.7123	504.1441	601.0166	723.4861	737.94	792.0784	856.1251	893.2894	959.0211	987.9516	1007.6982	1046.1383	1070.6907	1088.3174	1145.2888	1153.663	1165.1669	1178.7003	1199.5798	1253.5919	1292.2527	1310.6677	1380.2605	1382.5497	1390.9806	1412.3551	1487.473	1496.372	1501.6632	1527.0018	1892.0325	3006.9897	3018.909	3021.4611	3035.2614	3058.6306	3062.7041	3103.569	3114.6432	3605.4965
CC1NC(=O)C11COC1	C[C@H]1NC(=O)C21COC2	
InChI=1S/C6H9NO2/c1-4-6(2-9-3-6)5(8)7-4/h4H,2-3H2,1H3,(H,7,8)	InChI=1S/C6H9NO2/c1-4-6(2-9-3-6)5(8)7-4/h4H,2-3H2,1H3,(H,7,8)/t4-/m1/s1
