21
gdb 26200	3.70861	1.01745	0.86103	1.6175	88.42	-0.172	0.0575	0.2295	1426.6431	0.182424	-383.298946	-383.289071	-383.288127	-383.333819	36.396	
C	 0.0204653712	 1.2300526246	 0.6483606875	-0.330148
N	-0.031629758	 0.1061471429	-0.2858097197	-0.156561
C	 1.2288708188	-0.6148452244	-0.3501781802	-0.32219
C	-1.1601005893	-0.7203932363	-0.1589950757	 0.365342
C	-1.312336219	-2.0414440985	 0.2045636155	-0.332909
C	-2.7031530098	-2.3681328086	 0.0968109286	 0.290574
C	-3.3366340896	-3.6915206243	 0.4024853853	-0.499922
C	-3.3473363773	-1.2312231198	-0.3225394861	-0.183151
N	-2.4067977707	-0.2311429739	-0.4709621606	-0.315782
H	 0.7933750313	 1.9356178309	 0.3267264986	 0.117572
H	-0.9369541076	 1.7553465561	 0.6608190392	 0.117151
H	 0.2470358318	 0.9127252627	 1.6812895794	 0.10598
H	 1.5082841165	-1.086885021	 0.6086561708	 0.102331
H	 1.1657432162	-1.3953316853	-1.1117731291	 0.131813
H	 2.0276264114	 0.08123376	-0.6254472219	 0.115488
H	-0.5250736779	-2.7026105262	 0.5324716885	 0.081616
H	-3.1823511963	-3.9883691031	 1.4471022852	 0.119237
H	-4.4161283609	-3.6619725127	 0.2257152385	 0.114199
H	-2.9219956726	-4.4938511019	-0.2197821456	 0.119397
H	-4.3918638712	-1.0449210724	-0.515617425	 0.106804
H	-2.5664930571	 0.6636859912	-0.899024233	 0.253161
46.3412	116.2689	134.0955	170.2297	217.0715	251.1074	264.1714	321.3001	348.9431	381.0975	467.9135	486.8043	565.7904	635.5472	677.1562	697.9936	717.1253	786.1924	935.0454	985.3985	1000.9089	1016.6856	1063.7796	1070.8043	1120.7868	1124.0216	1159.2897	1181.0646	1214.165	1262.4056	1283.3695	1347.3554	1415.7345	1420.5555	1442.1138	1455.4567	1468.8933	1479.6259	1482.3873	1493.2123	1500.6723	1504.3868	1511.5707	1570.4566	1635.9492	2946.5362	2955.407	3018.3558	3063.9782	3064.478	3067.97	3098.652	3119.9416	3122.2119	3246.223	3256.8755	3683.2105
CN(C)C1=CC(C)=CN1	CN(C)c1cc(C)c[nH]1	
InChI=1S/C7H12N2/c1-6-4-7(8-5-6)9(2)3/h4-5,8H,1-3H3	InChI=1S/C7H12N2/c1-6-4-7(8-5-6)9(2)3/h4-5,8H,1-3H3
