22
gdb 83952	2.28459	1.65909	1.43561	0.2496	81.16	-0.2054	0.0847	0.2901	1076.5469	0.195795	-404.313723	-404.305248	-404.304304	-404.346124	33.669	
C	-0.0538127105	 1.6284263772	-0.0072688841	-0.436304
C	 0.0493883795	 0.1162790219	-0.0360287482	 0.048941
C	 0.6524610108	-0.6108835835	-1.2583513738	 0.096753
O	 1.7628770029	 0.1303518159	-1.7509689055	-0.278414
C	 2.8384404955	 0.2593204152	-0.8141265106	-0.085489
C	 2.3778337637	 0.1362306242	 0.6696428918	-0.190526
N	 1.1045115949	-0.5926310145	 0.81177121	-0.147319
C	 1.1065245251	-1.6876560282	-0.2424839879	 0.040739
C	 0.1464321526	-2.8273425174	 0.0622108173	-0.425003
H	 0.8063337328	 2.1153786632	-0.4715187758	 0.129658
H	-0.9459444567	 1.942840597	-0.5591139514	 0.118644
H	-0.155310506	 1.9914677846	 1.0210042511	 0.124389
H	-0.9176745129	-0.3109056202	 0.2445223648	 0.078055
H	 0.0386754789	-0.8695600787	-2.1269195885	 0.067617
H	 3.5949660071	-0.5052836025	-1.0369085319	 0.100752
H	 3.302342198	 1.2329695938	-1.0027250988	 0.106261
H	 3.147535514	-0.3948424961	 1.2414329913	 0.103064
H	 2.2612226615	 1.1207856655	 1.1305332588	 0.110586
H	 2.1021976053	-2.1032004127	-0.4250225309	 0.073574
H	-0.8811366716	-2.4861213416	 0.2128087305	 0.121241
H	 0.1430343988	-3.5496917584	-0.7611072826	 0.116111
H	 0.4609369862	-3.3467356749	 0.9723620845	 0.126673
162.4045	187.5631	205.2672	222.7105	242.8849	264.1769	309.6027	380.8203	472.239	521.6661	575.9061	648.2733	761.9535	785.9751	803.2416	840.4436	857.9136	893.2883	942.4636	963.9927	1033.4389	1044.2993	1053.4925	1074.8504	1105.977	1126.0014	1146.9509	1171.8255	1188.2222	1245.9163	1257.5817	1263.4079	1277.069	1294.5609	1342.0556	1359.6715	1384.2104	1389.6328	1405.149	1413.6807	1416.0421	1485.4857	1491.8648	1496.8767	1497.2923	1508.9447	1523.7847	2999.9331	3037.6016	3038.8121	3039.5559	3053.5921	3057.5925	3062.1099	3065.808	3092.7414	3100.007	3106.6051	3119.2537	3129.216
CC1C2OCCN1C2C	C[C@H]1[C@H]2OCCN1[C@H]2C	
InChI=1S/C7H13NO/c1-5-7-6(2)8(5)3-4-9-7/h5-7H,3-4H2,1-2H3	InChI=1S/C7H13NO/c1-5-7-6(2)8(5)3-4-9-7/h5-7H,3-4H2,1-2H3/t5-,6-/m0/s1
