16
gdb 105438	2.35071	1.53138	1.21193	4.384	69.2	-0.2579	-0.0023	0.2557	1064.7263	0.125333	-434.078146	-434.069667	-434.068723	-434.111627	30.617	
N	-0.0637571719	 1.4388368905	-0.0809339124	-0.501494
C	-0.0776078673	-0.0112027342	-0.0048334615	-0.198269
C	-1.5104915038	-0.5450713705	-0.1110310749	 0.210273
C	-1.6106441054	-2.0956486996	 0.0973341506	-0.237992
N	-2.3789060773	-2.265393506	 1.334654898	-0.248419
C	-2.6811084289	-1.1027604127	 1.7260494152	 0.120711
O	-2.2765297088	-0.016841564	 1.0123393348	-0.250472
C	-2.1629370008	-0.1060954133	-1.3519588859	 0.291577
N	-2.6741006162	 0.1663788217	-2.3511174716	-0.333929
H	-0.4967992791	 1.8357804053	 0.7460671746	 0.24344
H	 0.8866002948	 1.7874788734	-0.1273830052	 0.23987
H	 0.496307289	-0.4185885387	-0.8447835225	 0.129516
H	 0.3448251228	-0.4409407831	 0.9201732559	 0.101921
H	-2.1163905355	-2.5920665101	-0.7342995993	 0.148509
H	-0.6167439859	-2.5429824905	 0.2032314891	 0.130032
H	-3.2553143156	-0.8594716082	 2.6125472451	 0.154727
68.5707	117.7652	164.8012	185.9826	218.0955	280.7168	383.3579	404.6934	503.396	515.7913	572.0779	660.907	782.9693	826.5326	876.0061	894.3247	944.4713	970.7218	986.0806	1024.1576	1084.4956	1122.0452	1134.3801	1158.4626	1210.3157	1261.9146	1317.3258	1333.1084	1348.0096	1421.933	1490.6956	1495.3303	1654.7151	1717.5066	2363.6487	2952.3122	3052.3702	3069.2541	3102.5444	3225.5403	3517.0137	3600.3792
NCC1(CN=CO1)C#N	NC[C@]1(CN=CO1)C#N	
InChI=1S/C5H7N3O/c6-1-5(2-7)3-8-4-9-5/h4H,1,3,6H2	InChI=1S/C5H7N3O/c6-1-5(2-7)3-8-4-9-5/h4H,1,3,6H2/t5-/m1/s1
