18
gdb 126771	2.62936	1.34792	0.95024	2.3246	75.61	-0.1923	0.0396	0.2319	1249.2916	0.14994	-431.485429	-431.476271	-431.475326	-431.519531	33.827	
C	-0.1647920951	 1.5667052859	-0.0840161602	-0.373981
C	 0.0618270256	 0.0534044284	-0.0548618039	-0.15194
N	 0.7828668415	-0.4317585184	-1.2115046729	 0.001432
N	 0.143063863	-0.5574395101	-2.4331005485	-0.353558
C	 1.1111644425	-1.0394707899	-3.1929797953	 0.396878
N	 0.9520771496	-1.2844266168	-4.5449012844	-0.585379
N	 2.3166283693	-1.2266868003	-2.577264306	-0.38646
C	 2.0630721675	-0.8279029293	-1.3401770682	 0.396542
N	 2.9627496514	-0.8839499252	-0.2864193067	-0.606695
H	 0.7848042534	 2.1112589307	-0.0706128589	 0.114487
H	-0.7042892955	 1.8447258507	-0.9925765125	 0.151309
H	-0.7536129121	 1.8802098374	 0.7834902713	 0.118191
H	 0.6262514788	-0.2487708231	 0.8329757647	 0.119695
H	-0.8983730386	-0.4709449064	-0.0247853379	 0.132851
H	-0.0086757481	-1.4464596391	-4.8104219213	 0.252632
H	 1.5756894865	-2.0016052119	-4.8856728596	 0.253477
H	 3.8875356013	-1.1087688391	-0.6287665727	 0.265513
H	 2.9869545891	-0.0542506135	 0.291128793	 0.255006
56.45	92.9536	200.6044	226.8028	253.9533	286.0509	306.6833	311.5475	355.4817	430.6277	540.8666	623.558	645.2214	662.3591	675.132	768.5323	785.5871	792.8888	849.1357	974.3982	1049.851	1060.8111	1102.1895	1126.7402	1143.6051	1223.8127	1307.7987	1339.872	1393.042	1408.9387	1445.9369	1482.7232	1488.2373	1507.3547	1526.1968	1580.3426	1607.5744	1650.2401	1657.9785	3041.1057	3052.9834	3093.0584	3113.1358	3133.9057	3551.5536	3568.2808	3646.3778	3673.6759
CCN1N=C(N)N=C1N	CCn1nc(N)nc1N	
InChI=1S/C4H9N5/c1-2-9-4(6)7-3(5)8-9/h2H2,1H3,(H4,5,6,7,8)	InChI=1S/C4H9N5/c1-2-9-4(6)7-3(5)8-9/h2H2,1H3,(H4,5,6,7,8)
