21
gdb 86340	2.1919	1.41863	0.97971	1.6815	78.57	-0.2436	0.08	0.3237	1267.0234	0.18105	-424.190938	-424.181468	-424.180524	-424.22591	34.714	
C	-0.4122165649	 1.2638720826	-1.4116368079	-0.406486
C	 0.2617923254	-0.0006580326	-0.9156323984	 0.149239
O	 1.6712476031	-0.0421727105	-1.2309336817	-0.312477
C	 2.0047086477	-0.5040320121	 0.1005716477	 0.153313
C	 3.1926887187	 0.2219714756	 0.6971980146	-0.407312
C	 0.5575224387	-0.2191184771	 0.5965707181	-0.121798
C	 0.3659009318	 0.9540449618	 1.5168420786	 0.090838
C	-0.7819016237	 1.0380981696	 2.4304245789	-0.190967
O	 0.5107502723	 0.6781948683	 2.9163876907	-0.24338
H	 0.0670703109	 2.1619443424	-1.0138740625	 0.120185
H	-0.3527384717	 1.3064864709	-2.5037493373	 0.129212
H	-1.4703214782	 1.2738001555	-1.1289262751	 0.117001
H	-0.2491736631	-0.8760648408	-1.3448127448	 0.07106
H	 2.2064637079	-1.5854483404	 0.085188258	 0.071751
H	 3.0481662849	 1.305327085	 0.6891194607	 0.118672
H	 3.3568185722	-0.1015308083	 1.730027021	 0.131409
H	 4.093641263	-0.0019455963	 0.1175365677	 0.124654
H	 0.0598821837	-1.0861302527	 1.0371901726	 0.076498
H	 0.8265034244	 1.8935349656	 1.2138714501	 0.100144
H	-1.149488431	 2.0119682698	 2.7509878736	 0.115924
H	-1.522525222	 0.2388431337	 2.4353837055	 0.112519
47.4358	67.3592	158.6824	184.4755	217.7938	222.8468	312.1088	318.1278	373.2669	409.1626	474.5938	569.5465	716.9421	804.4537	839.2641	857.5082	878.5775	920.591	934.1845	991.0758	1020.2902	1023.3939	1077.0951	1100.5764	1122.4777	1143.732	1156.4673	1170.9525	1178.0372	1211.2233	1231.4285	1281.9965	1296.0683	1306.2077	1341.4615	1370.0261	1401.0975	1406.2359	1425.1336	1460.9249	1478.4604	1483.2171	1497.9942	1501.6992	1529.2048	2978.0759	2987.0139	3039.3394	3042.131	3079.1351	3081.6873	3107.1937	3112.2409	3114.0045	3122.8777	3127.9095	3166.6074
CC1OC(C)C1C1CO1	C[C@H]1O[C@@H](C)[C@H]1[C@H]1CO1	
InChI=1S/C7H12O2/c1-4-7(5(2)9-4)6-3-8-6/h4-7H,3H2,1-2H3	InChI=1S/C7H12O2/c1-4-7(5(2)9-4)6-3-8-6/h4-7H,3H2,1-2H3/t4-,5+,6-,7+/m1/s1
