15
gdb 67306	3.25676	1.60969	1.32792	1.5244	64.66	-0.2383	0.0663	0.3046	945.7082	0.110977	-457.630042	-457.623017	-457.622073	-457.661244	27.967	
O	-0.1147794778	 1.3505922406	-0.0492682972	-0.463034
C	-0.0573718928	-0.0111745105	-0.0443092751	 0.25758
C	 0.9118167486	-0.9955888895	-0.8168124526	 0.012838
O	 1.9237436869	-0.9967228367	 0.2337579785	-0.33835
C	 0.6596322087	-1.0075707006	 0.9586194073	 0.012018
C	-0.063592893	-1.949524988	-0.0607090557	-0.233362
C	-1.2198205184	-0.9672517703	-0.2226792866	 0.462805
O	-2.4292694708	-0.9646915623	 0.4945338282	-0.286345
C	-2.4774127769	-0.939711181	-0.952938132	-0.294399
H	 0.7745150381	 1.6911102447	 0.1111425839	 0.300011
H	 1.2267320627	-1.0082405022	-1.8590047551	 0.104439
H	 0.6690498369	-1.0375201434	 2.0466795908	 0.112116
H	-0.0461258313	-3.0347209134	-0.0656825195	 0.103817
H	-2.834848322	-0.0061109735	-1.383772458	 0.129331
H	-2.8614470589	-1.8469312839	-1.4168636071	 0.120536
154.2092	200.0903	257.7499	310.8627	337.4288	401.8419	509.75	598.7192	614.5284	696.7591	747.2222	813.7517	842.2759	871.7751	883.0676	902.9928	919.091	941.0861	999.6198	1027.0819	1063.9221	1094.0228	1113.342	1122.6732	1156.5335	1165.4572	1194.4594	1200.9714	1272.494	1343.6938	1388.0651	1490.8749	1576.2784	3087.5465	3134.1384	3140.8955	3175.7056	3181.5396	3780.7255
OC12C3OC1C3C21OC1	O[C@@]12[C@H]3O[C@@H]1[C@H]3[C@]12OC1	
InChI=1S/C6H6O3/c7-6-3-2(4(6)9-3)5(6)1-8-5/h2-4,7H,1H2	InChI=1S/C6H6O3/c7-6-3-2(4(6)9-3)5(6)1-8-5/h2-4,7H,1H2/t2-,3-,4+,5-,6-/m1/s1
