20
gdb 19974	3.83317	1.41983	1.18155	1.3189	75.53	-0.2504	0.0745	0.3249	1081.0432	0.177286	-348.975476	-348.967248	-348.966304	-349.008342	31.274	
O	-0.0735455783	 1.4321991845	-0.0236832884	-0.434307
C	-0.0227937129	 0.0159591419	 0.0226150493	 0.110181
C	 0.2391163059	-0.5365202783	 1.4511922447	-0.247847
C	-1.2966052994	-0.6060195737	 1.6671063925	-0.234649
C	-1.47421918	-0.541170991	 0.120038659	 0.021145
C	-2.6035423238	 0.2511389163	-0.47285058	 0.028972
C	-3.0981970061	-0.041401989	-1.8680923179	-0.271052
C	-3.9534679711	-0.3938843081	-0.6764546877	-0.277735
H	 0.8114844021	 1.765175882	 0.1549761693	 0.282179
H	 0.6055346735	-0.3769777006	-0.7886718976	 0.05439
H	 0.7009947864	-1.5280150017	 1.4247522879	 0.097488
H	 0.8206802075	 0.1063507075	 2.1181016722	 0.088742
H	-1.6995433664	-1.4787540784	 2.1857385169	 0.092691
H	-1.6788737611	 0.2977616623	 2.148078487	 0.107642
H	-1.4821779292	-1.559323445	-0.28738282	 0.062235
H	-2.6095963397	 1.2952910219	-0.1781021208	 0.093334
H	-3.3995341067	 0.7925064869	-2.4922423034	 0.109439
H	-2.6303381241	-0.855078416	-2.4133411476	 0.104494
H	-4.0589038005	-1.443799538	-0.4219095473	 0.104988
H	-4.8423122459	 0.1973626164	-0.485127898	 0.10767
70.7477	105.839	153.4656	232.1192	278.4372	298.2983	398.7004	426.394	514.4068	682.0538	738.5899	791.7822	825.4543	855.5996	893.2852	903.0189	917.5604	940.1798	968.7978	1003.9755	1033.3692	1055.2024	1073.1999	1086.0035	1124.1571	1140.6982	1188.0582	1197.7142	1204.811	1222.1358	1243.6542	1258.1823	1260.4373	1281.9037	1307.8469	1334.6174	1410.3152	1435.0467	1469.0992	1469.8161	1491.2113	1505.6389	2995.5948	3034.0426	3050.6038	3065.5591	3099.1197	3121.7547	3125.4803	3130.8684	3165.8743	3203.0699	3219.1503	3816.6621
OC1CCC1C1CC1	O[C@H]1CC[C@H]1C1CC1	
InChI=1S/C7H12O/c8-7-4-3-6(7)5-1-2-5/h5-8H,1-4H2	InChI=1S/C7H12O/c8-7-4-3-6(7)5-1-2-5/h5-8H,1-4H2/t6-,7-/m0/s1
