16
gdb 133722	2.43649	1.49816	1.17915	2.723	57.1	-0.2669	0.0603	0.3272	1050.7552	0.120265	-569.378006	-569.369504	-569.36856	-569.411718	30.693	
C	-0.4828653812	 1.4632541014	-0.1150817997	-0.425719
C	-0.0063308772	 0.0184291669	-0.0840062125	-0.034447
C	 1.3823816129	-0.3434327797	-0.6596798576	-0.08412
O	 1.7135155935	-1.1106652924	 0.525022058	-0.282507
C	 0.5496719079	-0.6362023432	 1.210668681	-0.032802
C	 0.936645824	 0.2872145214	 2.3590429325	 0.280612
F	 1.7618485661	 1.2689271895	 1.9656261438	-0.079842
F	-0.1615481269	 0.8578048236	 2.885821105	-0.085206
F	 1.5531331107	-0.389870817	 3.333438666	-0.06878
H	 0.272056764	 2.1479444764	 0.2766846887	 0.136813
H	-0.7093292661	 1.7581095455	-1.1449203854	 0.118483
H	-1.3943374003	 1.5908950095	 0.4760940393	 0.130994
H	-0.7774199496	-0.633482203	-0.5027497026	 0.097221
H	 1.4045996722	-0.9612275668	-1.5627972591	 0.111101
H	 2.0577398996	 0.511921103	-0.7838134996	 0.11289
H	-0.0451666395	-1.4488282749	 1.6438315923	 0.105306
72.8561	90.746	163.1227	220.798	238.4186	276.2214	360.1128	381.6756	460.9878	526.3847	589.0671	663.3687	731.2279	824.1318	886.806	932.8632	938.679	1001.4614	1056.8806	1067.3685	1140.1695	1157.5426	1168.9161	1180.4735	1212.0104	1267.638	1276.8243	1300.1951	1346.9367	1384.72	1407.2048	1421.3326	1496.1037	1506.3714	1522.5045	3025.6766	3044.9338	3046.4684	3068.429	3087.0676	3107.8198	3137.5361
CC1COC1C(F)(F)F	C[C@H]1CO[C@H]1C(F)(F)F	
InChI=1S/C5H7F3O/c1-3-2-9-4(3)5(6,7)8/h3-4H,2H2,1H3	InChI=1S/C5H7F3O/c1-3-2-9-4(3)5(6,7)8/h3-4H,2H2,1H3/t3-,4+/m0/s1
