14
gdb 27594	3.4836	1.28524	0.9394	2.0878	84.26	-0.2243	-0.053	0.1713	1166.5159	0.102186	-395.75134	-395.743723	-395.742779	-395.783269	29.36	
N	-0.0340733263	 1.3736099214	 0.1378883818	-0.580052
C	 0.0079245673	 0.0024985282	 0.0465927995	 0.360666
N	-1.1564731516	-0.6453809765	 0.0396383571	-0.374195
C	-1.1037249955	-1.9883658112	 0.0074151018	 0.157508
C	 0.1148549048	-2.6741563268	-0.0281562071	-0.087018
N	 1.2800559222	-2.0200448788	-0.031479776	-0.22518
C	 1.2342987306	-0.6987858426	 0.0078602071	-0.053418
C	-2.3354799142	-2.7112718853	 0.0038505745	 0.229001
C	-3.3537566317	-3.3525092964	-0.0005700322	-0.369127
H	 0.7625819746	 1.8893033736	-0.1993032318	 0.257861
H	-0.931343207	 1.7831513798	-0.0739270913	 0.262089
H	 0.1423676062	-3.7578126427	-0.0579980489	 0.11744
H	 2.1809015146	-0.1622345221	 0.0098783659	 0.105707
H	-4.2585732739	-3.9086629907	-0.0038079202	 0.198718
135.087	144.4188	196.9295	360.2486	370.4951	397.3109	470.7597	496.8512	522.4352	555.5748	587.9188	618.8899	656.0829	690.9268	718.6824	780.8749	890.3705	933.662	988.0811	1014.008	1107.2251	1198.4886	1266.0751	1267.2733	1366.605	1463.2808	1473.747	1582.816	1600.2363	1642.968	2231.3021	3145.0067	3191.0916	3501.7192	3584.7705	3702.1096
NC1=NC(=CN=C1)C#C	Nc1nc(cnc1)C#C	
InChI=1S/C6H5N3/c1-2-5-3-8-4-6(7)9-5/h1,3-4H,(H2,7,9)	InChI=1S/C6H5N3/c1-2-5-3-8-4-6(7)9-5/h1,3-4H,(H2,7,9)
