18
gdb 38578	2.8216	2.23527	2.07281	0.4302	72.52	-0.2032	0.0887	0.292	798.0153	0.152414	-401.910573	-401.904927	-401.903983	-401.940146	25.151	
C	-0.0226190252	 1.5085430252	 0.068583937	-0.190769
C	 1.5147905418	 1.4601525204	-0.0194086988	 0.094727
O	 2.0952970196	 1.2907688815	 1.2700197152	-0.271181
C	 1.563506057	 0.1623167285	 1.9325214704	 0.08575
C	 1.699811041	-1.1847877512	 1.2633106962	-0.112863
C	 2.1828226264	-1.0645194848	-0.1737848588	-0.240743
C	 1.3070687866	 0.0704652462	-0.6883515535	-0.027607
N	-0.0403880917	-0.0044358383	 0.015814813	-0.13522
C	 0.3428006054	-0.5058803846	 1.3374152033	-0.071832
H	-0.4646073239	 1.9502676635	 0.9647329897	 0.109638
H	-0.4975783328	 1.9192580195	-0.8266657951	 0.106201
H	 2.0796297962	 2.2523838995	-0.5163739049	 0.074768
H	 1.6821079226	 0.2493514506	 3.0062813395	 0.100017
H	 1.9327993911	-2.0641457515	 1.8523802892	 0.08615
H	 3.2463232454	-0.8104670148	-0.2427012197	 0.11357
H	 2.0115339965	-1.9894555525	-0.7331626648	 0.11022
H	 1.1859653389	 0.1186463597	-1.7727746827	 0.080613
H	-0.4641978749	-0.8692162767	 1.9646407449	 0.08856
280.2768	367.4011	414.3918	499.699	545.8517	647.1055	672.7552	730.8916	767.8438	781.5676	798.1963	832.9872	881.9494	898.2847	943.6085	961.0719	970.2578	997.0784	1021.0743	1046.9681	1066.2189	1074.38	1089.5939	1116.7653	1136.3216	1164.8981	1172.4575	1231.1355	1233.2518	1247.001	1267.5856	1296.2362	1311.6846	1317.0914	1360.0507	1370.9315	1415.8063	1482.9212	1493.7928	3043.5197	3056.5831	3079.3877	3086.4036	3091.9887	3119.5889	3159.6616	3173.3631	3184.004
C1C2OC3C4CC2N1C34	C1[C@H]2O[C@@H]3[C@@H]4C[C@H]2N1[C@H]34	
InChI=1S/C7H9NO/c1-3-6-7(3)9-5-2-8(6)4(1)5/h3-7H,1-2H2	InChI=1S/C7H9NO/c1-3-6-7(3)9-5-2-8(6)4(1)5/h3-7H,1-2H2/t3-,4-,5-,6+,7-/m1/s1
