17
gdb 80114	2.75173	1.46923	1.24496	1.7578	80.47	-0.2287	-0.0008	0.2279	1054.5762	0.135359	-384.648632	-384.640617	-384.639673	-384.680708	31.914	
O	 0.0208394453	 1.3754929096	-0.0712221067	-0.42207
C	-0.0395210272	-0.007250431	 0.0016527767	 0.086082
C	-0.4227735328	-0.7545656717	 1.258029728	-0.183201
C	-1.1383809339	 0.0508466495	 2.2842849962	-0.090863
C	-2.2934690295	 0.5457589277	 1.8252465167	-0.103394
C	-2.5915599964	 0.0925944261	 0.4137167503	-0.334434
C	-1.3691206971	-0.7554209723	 0.0224924505	 0.106887
C	-1.5396842239	-1.9088004447	-0.8018104077	 0.162297
C	-1.6827846533	-2.8757636353	-1.5047841424	-0.381829
H	-0.4076155657	 1.7325324373	 0.7185477368	 0.286309
H	 0.7331733322	-0.4590275149	-0.6109992337	 0.118383
H	 0.1429409989	-1.6354270342	 1.5395536653	 0.103464
H	-0.7293393273	 0.2255602391	 3.2729090464	 0.107814
H	-2.9585826733	 1.2004862568	 2.3770701664	 0.105502
H	-3.5139779875	-0.4963082659	 0.3614361445	 0.1268
H	-2.7146882748	 0.9407215838	-0.2720662698	 0.12817
H	-1.8083405839	-3.7276161099	-2.1255885876	 0.184084
131.4567	154.2969	211.3181	227.3425	351.7667	397.0375	450.927	484.6736	511.4369	560.1206	586.5037	602.4281	650.0688	730.1467	742.7174	772.0242	857.2919	880.651	942.9032	960.7096	987.0743	992.995	1037.3001	1073.1829	1114.3651	1140.5655	1169.0402	1211.231	1240.1137	1292.2188	1318.651	1363.984	1371.2948	1441.4514	1473.7896	1658.5074	2230.2455	3030.2693	3066.7114	3171.4181	3180.2963	3188.6164	3211.8065	3503.7638	3741.2081
OC1C2C=CCC12C#C	O[C@H]1[C@H]2C=CC[C@@]12C#C	
InChI=1S/C8H8O/c1-2-8-5-3-4-6(8)7(8)9/h1,3-4,6-7,9H,5H2	InChI=1S/C8H8O/c1-2-8-5-3-4-6(8)7(8)9/h1,3-4,6-7,9H,5H2/t6-,7+,8-/m1/s1
