18
gdb 37413	3.61094	1.83908	1.70102	3.1765	72.93	-0.2256	0.0792	0.3048	854.0918	0.151981	-401.890554	-401.884858	-401.883913	-401.920239	25.265	
C	-0.0199808725	 1.4898429946	 0.0720859963	-0.169504
C	 1.5163507518	 1.3848988166	-0.0067477559	-0.053844
C	 1.7799274682	 0.7323467657	 1.3655224664	-0.243082
C	 0.7664100703	-0.4564041588	 1.179626291	-0.051126
C	 1.6385055997	-1.5813223051	 0.6279966625	 0.059603
O	 1.1461837407	-2.2731498001	-0.5153283282	-0.244036
C	 1.9936571057	-1.1290332206	-0.7194423858	 0.014457
C	 1.1917794511	 0.1366864824	-0.9172133257	-0.025704
N	-0.0343602218	-0.0173827133	-0.0238456086	-0.120881
H	-0.4712741644	 1.9095452223	 0.9759065421	 0.098964
H	-0.4986967692	 1.9096402626	-0.8157543988	 0.108681
H	 2.1663756062	 2.2036218873	-0.3205368953	 0.063461
H	 2.8076532438	 0.3894453475	 1.5134685641	 0.09824
H	 1.520645187	 1.4060160436	 2.1863553145	 0.100635
H	 0.130483474	-0.6893522193	 2.0330617964	 0.077703
H	 2.309008553	-2.1323505051	 1.2814312459	 0.100435
H	 2.9475616164	-1.3092092515	-1.2048579887	 0.099457
H	 0.9121897601	 0.389934331	-1.9411715922	 0.08654
297.4762	325.1055	393.8504	490.202	496.8929	625.4154	727.2123	758.43	814.2857	835.3448	848.356	861.6852	881.7571	894.142	928.5782	939.2205	957.481	984.0632	1006.8683	1010.476	1016.7606	1038.294	1087.2445	1106.6697	1124.1262	1153.3913	1180.9906	1220.9471	1239.1174	1248.3437	1252.8262	1279.1148	1297.1601	1304.6993	1321.9457	1346.9787	1424.7071	1499.3867	1521.2785	3053.8787	3057.5014	3095.8202	3101.3475	3104.0679	3116.026	3119.4537	3153.6849	3169.1316
C1C2CC3C4OC4C2N13	C1[C@H]2C[C@@H]3[C@H]4O[C@H]4[C@H]2N13	
InChI=1S/C7H9NO/c1-3-2-8-4(1)6-7(9-6)5(3)8/h3-7H,1-2H2	InChI=1S/C7H9NO/c1-3-2-8-4(1)6-7(9-6)5(3)8/h3-7H,1-2H2/t3-,4-,5+,6-,7+/m1/s1
