12
gdb 17014	7.06954	1.37757	1.32728	2.3402	61.57	-0.2615	-0.0228	0.2387	883.1231	0.081628	-381.233722	-381.227001	-381.226057	-381.264617	25.053	
C	-0.0219577806	-1.2265865389	-0.0427579004	-0.408253
C	-0.0071019031	-0.0258383396	-0.0073765261	 0.316758
C	-0.0339072029	 1.4198253692	-0.0070672937	-0.230332
C	 0.0659859307	 2.1338777838	 1.3801278946	-0.070777
O	 1.4958778036	 1.7448873381	 1.445182511	-0.290313
C	 1.3438379944	 2.1578622622	 0.0286827121	-0.070777
C	 0.6085480743	 3.3876004246	 0.6353262174	 0.465661
O	 0.6042782047	 4.5708266697	 0.6522866736	-0.29609
H	-0.0235399717	-2.2884314941	-0.0631308441	 0.202237
H	-0.7761351816	 1.8273734885	-0.7016439782	 0.123623
H	-0.5413277111	 1.9978431265	 2.2713051236	 0.129131
H	 2.2018174233	 2.04933002	-0.6298189997	 0.129131
120.3485	141.2317	207.0045	393.596	403.5542	534.6961	539.3096	634.3922	652.931	673.6746	762.1078	788.0715	791.3243	865.3325	947.0813	958.9388	1049.2641	1078.3081	1116.7229	1139.0428	1165.8454	1171.5595	1246.8272	1361.2702	1947.4113	2243.3205	3058.9096	3165.5981	3169.2243	3503.7058
C#CC1C2OC1C2=O	C#C[C@H]1[C@H]2O[C@@H]1C2=O	
InChI=1S/C6H4O2/c1-2-3-5-4(7)6(3)8-5/h1,3,5-6H	InChI=1S/C6H4O2/c1-2-3-5-4(7)6(3)8-5/h1,3,5-6H/t3-,5+,6-
