19
gdb 64171	2.26322	1.46523	1.33252	2.1904	77.4	-0.247	0.0221	0.2691	1096.3144	0.154602	-422.977219	-422.967024	-422.96608	-423.012127	37.642	
C	-0.1878540188	 1.5206292541	 0.1877780631	-0.413243
C	-0.002611852	 0.0194556886	 0.0072178806	 0.366209
C	-1.2718014739	-0.6630611092	-0.4747480999	-0.429015
O	 1.1054959102	-0.2601304389	-0.896955455	-0.321002
C	 1.9361993807	-0.7654407571	 0.1556838832	-0.108753
C	 0.7828003762	-0.6697063433	 1.1933843565	 0.114534
O	 1.0110678382	 0.2105847022	 2.2790419768	-0.464123
C	 0.2712538694	-1.9478435727	 1.6637294071	 0.296913
C	-0.112274422	-3.0004384638	 2.1016419812	-0.485853
H	 0.7332014373	 1.9980265417	 0.5249100171	 0.130653
H	-0.4801854525	 1.9581247701	-0.7719114261	 0.117943
H	-0.9702195011	 1.7324615549	 0.9221923478	 0.120723
H	-1.5850337222	-0.2210128748	-1.4258036211	 0.122248
H	-1.110283064	-1.7320460685	-0.6267937662	 0.126478
H	-2.081587106	-0.5322184724	 0.2500128617	 0.120301
H	 2.3217000898	-1.7675720657	-0.0595201173	 0.106425
H	 2.763459335	-0.0898945065	 0.4078768643	 0.104558
H	 1.1855419823	-0.3207697038	 3.0621206705	 0.289372
H	-0.4624584667	-3.9309056647	 2.4762339156	 0.205631
43.1206	128.5509	148.7136	180.6886	192.3977	225.7666	272.2536	307.1284	349.6263	372.2931	402.3814	480.7711	522.4812	559.7303	631.0275	652.8115	670.5696	687.9788	856.0098	910.0719	936.4712	967.7588	992.5513	998.1365	1035.4227	1117.5852	1146.7533	1173.8138	1186.3365	1240.7125	1266.6145	1327.703	1375.986	1399.8487	1414.0265	1470.6983	1474.7628	1492.6219	1499.7908	1513.6263	2228.3789	3015.9402	3040.7019	3047.9437	3075.7877	3109.265	3118.3156	3132.7186	3142.1046	3498.0442	3827.5669
CC1(C)OCC1(O)C#C	CC1(C)OC[C@]1(O)C#C	
InChI=1S/C7H10O2/c1-4-7(8)5-9-6(7,2)3/h1,8H,5H2,2-3H3	InChI=1S/C7H10O2/c1-4-7(8)5-9-6(7,2)3/h1,8H,5H2,2-3H3/t7-/m1/s1
