17
gdb 45494	3.02067	1.74333	1.53724	4.671	70.27	-0.2592	0.01	0.2692	912.7143	0.13965	-421.875575	-421.869202	-421.868258	-421.906308	26.145	
O	 0.0201331764	 0.0134253912	-0.4480313784	-0.350008
C	 0.0384357586	 1.1549913577	-0.0877295949	 0.44166
O	-1.1000124023	 1.8401321359	 0.2286881007	-0.238952
C	-0.8030492909	 3.1891593126	 0.661341761	 0.073396
C	-0.8217844802	 3.2063823157	 2.1930910544	-0.204359
C	 0.5049512042	 2.5023488337	 2.5785180211	-0.248297
C	 1.4333416293	 2.7831131369	 1.3923697479	-0.046636
C	 0.6681472174	 3.4536486533	 0.2874659277	-0.097273
C	 1.2124654758	 2.0729222573	 0.0534264019	-0.20382
H	-1.5269656136	 3.8502385741	 0.1837721994	 0.095487
H	-0.8093056537	 4.2472690192	 2.5355639477	 0.105444
H	-1.7138688046	 2.722341555	 2.5973308877	 0.117746
H	 0.9249002354	 2.9069806738	 3.5026667811	 0.107958
H	 0.3576757374	 1.4296299994	 2.7376155668	 0.127408
H	 2.4630825536	 3.059393079	 1.586770722	 0.100962
H	 0.9803621643	 4.3349471737	-0.2565983402	 0.102018
H	 2.0744499729	 1.8643156016	-0.5660399458	 0.117267
132.1813	185.0508	371.1802	377.5008	475.884	601.2257	635.6834	685.8677	718.5804	786.6456	803.9765	830.9941	850.853	868.1772	905.0886	936.4603	954.7879	981.123	1022.5589	1027.724	1047.169	1071.342	1097.0722	1122.2339	1185.5881	1193.1186	1220.7118	1287.1605	1291.02	1310.4983	1327.0811	1347.5972	1367.934	1398.0751	1477.454	1503.2696	1876.4096	3047.8347	3057.8755	3098.3321	3112.7916	3115.2214	3179.9058	3200.6651	3211.4757
O=C1OC2CCC3C2C13	O=C1O[C@H]2CC[C@@H]3[C@H]2[C@H]13	
InChI=1S/C7H8O2/c8-7-6-3-1-2-4(9-7)5(3)6/h3-6H,1-2H2	InChI=1S/C7H8O2/c8-7-6-3-1-2-4(9-7)5(3)6/h3-6H,1-2H2/t3-,4+,5-,6-/m1/s1
