19
gdb 41560	2.95039	1.83047	1.79099	1.5508	76.51	-0.2427	0.0083	0.251	886.0016	0.162984	-385.869391	-385.863079	-385.862135	-385.899726	27.326	
C	-0.0328271038	 1.5971656551	 0.1430325678	-0.233551
C	 1.5248972031	 1.6292407033	 0.12875276	-0.233545
C	 1.5554952533	 0.084393277	-0.0605182055	-0.011111
C	-0.003275548	 0.052312807	-0.0463596915	-0.0111
C	-0.2939086192	-0.6102380672	-1.4391415803	 0.010184
O	 0.796196407	-1.5466264069	-1.497504048	-0.248936
C	 1.8478221521	-0.5662595348	-1.4585473365	 0.010183
C	 1.4137574892	 0.3950064418	-2.5596760163	-0.086318
C	 0.0803355149	 0.3676992818	-2.5475300823	-0.08634
H	-0.4747102299	 1.9141755098	 1.0905060768	 0.09581
H	-0.5157186081	 2.1553905287	-0.6626324304	 0.094637
H	 1.9695768395	 2.2065072553	-0.6854496956	 0.094643
H	 1.970627103	 1.9645946786	 1.0680717282	 0.095805
H	 2.0599483011	-0.4791571399	 0.7257039121	 0.075411
H	-0.4697542289	-0.5312676503	 0.748648247	 0.07541
H	-1.246956779	-1.1301794053	-1.5300998651	 0.07491
H	 2.8196096806	-1.0466743464	-1.566915007	 0.074905
H	 2.0717988169	 1.0162992769	-3.1514748074	 0.1045
H	-0.6132523937	 0.9612965556	-3.1270361459	 0.104502
156.8809	258.1807	332.4703	468.3487	501.3045	578.5697	663.6337	713.7819	714.161	749.8251	772.9536	814.9801	855.8276	874.8196	890.2063	918.5204	930.7151	949.3768	962.6838	970.2626	1010.0221	1027.5034	1045.6379	1073.8444	1087.3897	1121.4021	1152.2033	1217.6797	1244.0039	1246.2246	1248.4729	1265.6749	1279.3186	1291.0471	1299.6475	1316.8259	1349.1209	1351.6558	1469.1884	1487.7655	1639.3476	3059.4578	3063.8411	3086.1445	3097.3083	3103.3177	3119.8682	3124.1667	3129.1602	3215.6286	3241.2405
C1CC2C1C1OC2C=C1	C1C[C@H]2[C@@H]1[C@@H]1O[C@H]2C=C1	
InChI=1S/C8H10O/c1-2-6-5(1)7-3-4-8(6)9-7/h3-8H,1-2H2	InChI=1S/C8H10O/c1-2-6-5(1)7-3-4-8(6)9-7/h3-8H,1-2H2/t5-,6+,7-,8+
