20
gdb 119664	3.86013	1.06724	0.97073	2.618	80.32	-0.2271	0.0809	0.3081	1295.6101	0.170545	-403.033173	-403.024809	-403.023865	-403.066835	31.39	
C	-0.0491371612	 1.3733015077	 0.0231592083	-0.218786
O	-0.0532080029	-0.0341072237	 0.0248258938	-0.236665
C	 0.7348768938	-0.5860791545	 1.059239204	-0.224072
C	 0.6816623235	-2.0835722727	 0.9433350084	 0.333031
C	 1.1484668568	-3.0048058971	-0.179167102	-0.224651
N	 0.6003616582	-4.0316731686	 0.8077666836	-0.165341
C	 1.1229947327	-3.1618161474	 1.9849854891	-0.055214
C	-0.2384535751	-3.2161070186	 2.6842652069	-0.262497
C	-0.5316562411	-3.0393930507	 1.1917842814	-0.029279
H	 0.9649027034	 1.7795640992	-0.1202265023	 0.103981
H	-0.6813605932	 1.70164621	-0.8053893573	 0.128292
H	-0.4516682845	 1.7849501079	 0.9626061362	 0.103322
H	 1.77939961	-0.2356516936	 0.9794274091	 0.086946
H	 0.3624647157	-0.2630498876	 2.0478308868	 0.08561
H	 0.6041410215	-2.9754537426	-1.1278876976	 0.106691
H	 2.2258072542	-3.1018456327	-0.3545599573	 0.093985
H	 2.1264647275	-3.3260826093	 2.3838221429	 0.079886
H	-0.5154731448	-4.1813143136	 3.1158662898	 0.109305
H	-0.4954703112	-2.3870529991	 3.3479493042	 0.098799
H	-1.4804502734	-3.051929873	 0.6535217918	 0.086656
61.4828	87.6266	125.2079	222.9809	272.7841	344.8451	348.6794	435.7593	471.0929	679.0397	724.3847	789.7246	859.0005	870.8449	880.5626	914.9184	921.6646	950.7225	996.2838	1012.9641	1021.7814	1069.478	1092.8316	1121.8006	1141.1326	1152.0262	1157.5402	1182.3749	1197.5843	1203.4824	1222.4638	1230.0579	1252.9571	1275.2142	1301.1853	1343.7547	1420.5526	1479.1845	1485.12	1488.2016	1499.7179	1518.8036	1520.4776	2937.864	2964.5252	2969.0472	3011.4633	3034.7757	3058.454	3091.5202	3097.7926	3109.0423	3114.1348	3123.4745
COCC12CN3C1CC23	COC[C@@]12CN3[C@@H]1C[C@@H]23	
InChI=1S/C7H11NO/c1-9-4-7-3-8-5(7)2-6(7)8/h5-6H,2-4H2,1H3	InChI=1S/C7H11NO/c1-9-4-7-3-8-5(7)2-6(7)8/h5-6H,2-4H2,1H3/t5-,6+,7+
