14
gdb 42653	3.1877	1.44569	1.22916	2.1806	74.65	-0.245	-0.0212	0.2238	1006.3805	0.100348	-399.458262	-399.451169	-399.450225	-399.489846	27.654	
O	 0.0050598097	 0.0577290012	 0.1440249885	-0.323181
C	 0.010292184	 1.25269026	 0.1068907312	 0.443156
C	-1.0493213139	 2.3054912254	-0.0775876767	-0.222538
N	-0.5373397545	 3.5994825064	 0.4685799295	-0.170073
C	 0.7927754715	 3.2673052248	 1.1102710646	-0.165926
C	 1.1110157624	 2.3233205503	-0.0556999071	-0.259847
C	-0.0168839285	 3.1288485733	-0.8399005994	 0.340268
C	-0.0799547968	 3.7596710863	-2.0993451544	-0.005343
C	-0.0982205286	 4.2820182529	-3.1827777851	-0.334444
H	-2.1120896364	 2.2226968488	-0.2575464943	 0.138461
H	 1.3916144117	 4.179520554	 1.1261430648	 0.131452
H	 0.7238199542	 2.8373177013	 2.1151048818	 0.12169
H	 2.1089572673	 2.059228614	-0.3920826166	 0.112779
H	-0.1232690121	 4.7489001812	-4.1365186967	 0.193547
98.572	159.0591	219.0678	390.0797	435.4374	482.792	520.5568	560.8107	602.0692	612.1476	682.0821	726.7153	750.4813	779.207	824.3674	911.1436	940.7679	976.5906	1006.6882	1027.205	1066.1	1133.2784	1139.3241	1171.9339	1203.1317	1229.5632	1303.7998	1372.1712	1509.3916	1894.1587	2239.3757	3051.9382	3124.6297	3175.9899	3227.0147	3499.9449
O=C1C2N3CC1C23C#C	O=C1[C@H]2N3C[C@@H]1[C@@]23C#C	
InChI=1S/C7H5NO/c1-2-7-4-3-8(7)6(7)5(4)9/h1,4,6H,3H2	InChI=1S/C7H5NO/c1-2-7-4-3-8(7)6(7)5(4)9/h1,4,6H,3H2/t4-,6+,7-,8?/m0/s1
