19
gdb 81232	2.40241	1.90641	1.68275	1.8212	74.87	-0.2369	0.0598	0.2967	926.0904	0.160804	-422.958602	-422.951364	-422.95042	-422.989687	30.173	
O	 0.2015250149	 1.4617006876	-0.0330444503	-0.424004
C	 0.0615796155	 0.067581387	 0.0514501008	 0.071018
C	-0.002058957	-0.6649000677	 1.4102979966	 0.011585
C	-1.0376793788	 0.229552592	 2.1845034103	-0.298301
C	-2.1443676687	 0.1410707922	 1.1029014519	 0.024666
C	-2.7504026832	 1.0179289092	-0.0495501529	-0.279844
C	-2.4167392777	-0.1873116074	-1.0275844249	-0.35726
C	-1.3527417265	-0.5470243867	 0.0141681362	 0.407126
O	-0.765434521	-1.7091615368	 0.6928580358	-0.361557
H	 1.1322325481	 1.6696434081	-0.1563752552	 0.291347
H	 0.7105747398	-0.4658168892	-0.6502221237	 0.085472
H	 0.867076486	-1.0609781919	 1.9352697417	 0.075996
H	-1.3431168958	-0.191283443	 3.1440911694	 0.09832
H	-0.6144162768	 1.2240131498	 2.3440192867	 0.113795
H	-2.930378492	-0.5431490179	 1.4351087634	 0.08332
H	-3.8025963954	 1.2901296007	 0.0447990357	 0.09943
H	-2.1543478115	 1.8975298195	-0.2883416054	 0.137095
H	-3.2400851447	-0.9051231149	-1.063282577	 0.118019
H	-2.0806361152	 0.0397912994	-2.0417204693	 0.103777
212.1581	218.6982	227.1718	282.7691	371.7055	399.9291	455.3126	549.8746	620.3035	674.3773	690.2242	767.9212	795.2107	819.3812	853.613	871.0815	878.6884	896.0472	959.1813	981.5481	1034.6749	1045.9811	1104.0273	1119.4503	1137.5029	1157.7955	1176.589	1193.5706	1215.7955	1227.5715	1235.2368	1255.9157	1268.442	1280.3834	1291.7591	1324.0157	1380.6537	1437.6776	1475.2131	1478.2646	1493.3697	3059.0914	3063.7498	3066.6692	3075.211	3088.7053	3122.071	3125.7023	3129.913	3163.0426	3831.3907
OC1C2CC3CCC13O2	O[C@H]1[C@H]2C[C@H]3CC[C@@]13O2	
InChI=1S/C7H10O2/c8-6-5-3-4-1-2-7(4,6)9-5/h4-6,8H,1-3H2	InChI=1S/C7H10O2/c8-6-5-3-4-1-2-7(4,6)9-5/h4-6,8H,1-3H2/t4-,5-,6+,7+/m1/s1
