19
gdb 33250	5.46437	0.63814	0.60975	1.7939	77.87	-0.2191	0.0234	0.2425	1803.3298	0.159435	-423.04816	-423.039038	-423.038094	-423.083523	32.688	
O	-0.0211585268	 1.4438938195	-0.22031651	-0.421663
C	 0.0430643259	 0.0437851961	 0.0039777717	-0.072248
C	-1.3746972672	-0.507906281	-0.0610051513	-0.155216
C	-1.4286752704	-2.0299339976	 0.1554764793	-0.338245
C	-2.8178048989	-2.5905766112	 0.0758952725	 0.256611
C	-3.5420887406	-3.1477001702	 1.0835664807	-0.103457
O	-4.771521294	-3.5380857733	 0.6487392685	-0.14255
C	-4.8351455422	-3.221972705	-0.6706831754	 0.006506
C	-3.6779838928	-2.6426552211	-1.0784192051	-0.278298
H	 0.8719349126	 1.7972055987	-0.1751454879	 0.284958
H	 0.6705541881	-0.4536256237	-0.7545617056	 0.082367
H	 0.4859663747	-0.1828558818	 0.9883080307	 0.082804
H	-1.9879678257	-0.0030202005	 0.693568731	 0.111116
H	-1.8048892766	-0.2503893421	-1.0356636738	 0.109268
H	-0.790589139	-2.5208703919	-0.5920467556	 0.106209
H	-0.9969785005	-2.2758478816	 1.133349765	 0.101151
H	-3.3318781473	-3.3350793652	 2.1240978458	 0.129912
H	-5.7575773462	-3.4731277858	-1.1678904106	 0.133379
H	-3.4517285831	-2.2942696423	-2.07464177	 0.107394
41.6445	76.2588	91.5094	123.214	248.4533	261.9426	312.608	325.1634	465.8043	622.1826	646.8462	715.4249	735.4214	757.0408	785.4618	831.9459	866.1048	892.6956	983.3401	1022.2182	1034.4989	1059.2299	1081.9157	1091.2122	1100.6996	1198.8228	1211.5658	1230.9715	1265.2657	1277.6069	1303.9429	1310.048	1314.5659	1380.6652	1411.9673	1464.3722	1483.8319	1499.6843	1528.0373	1537.6373	1637.1585	2954.0296	2978.3937	3010.5226	3041.9223	3050.4019	3088.46	3247.6997	3270.0685	3283.1361	3830.1427
OCCCC1=COC=C1	OCCCc1cocc1	
InChI=1S/C7H10O2/c8-4-1-2-7-3-5-9-6-7/h3,5-6,8H,1-2,4H2	InChI=1S/C7H10O2/c8-4-1-2-7-3-5-9-6-7/h3,5-6,8H,1-2,4H2
