20
gdb 105973	4.28528	1.14415	1.12795	1.8815	82.53	-0.2048	0.0705	0.2753	1207.2584	0.169668	-365.903592	-365.89508	-365.894136	-365.93653	32.823	
C	-0.0567513949	 1.5431283908	 0.0111398975	-0.383557
C	 0.0364979428	 0.0133883318	 0.0081947279	-0.331176
C	 0.6531962864	-0.5324994484	 1.2557510633	 0.388003
C	 1.0445824948	-1.97396183	 1.6844524362	-0.250864
C	 2.2739603884	-1.3783867406	 2.3258008171	-0.063142
N	 1.9065556674	 0.0341687012	 1.8805912148	-0.218859
C	 0.6318298064	-0.0989257077	 2.6816894381	-0.183466
C	 1.0235258101	-1.5264324324	 3.1560210903	 0.343828
C	 0.7324972636	-2.3072552786	 4.3933484214	-0.5256
H	 0.9300313747	 1.9860033597	 0.1706031087	 0.144274
H	-0.452233318	 1.9092713479	-0.9403231496	 0.111362
H	-0.7187449101	 1.897688922	 0.8079232757	 0.11531
H	-0.961441652	-0.4283101437	-0.1167969612	 0.101576
H	 0.632135986	-0.3217922733	-0.8517535104	 0.106324
H	 0.8582803809	-2.9544686756	 1.2677561494	 0.090206
H	 3.285945573	-1.7452457487	 2.4502497801	 0.0941
H	 0.1755928287	 0.7503623965	 3.178917369	 0.088903
H	-0.3437148163	-2.4703212093	 4.5240921155	 0.123079
H	 1.2131343457	-3.2907952393	 4.349307365	 0.12432
H	 1.1056195224	-1.7954299421	 5.2882957813	 0.125381
83.6247	152.2462	165.6302	217.0784	225.3778	273.3795	328.5117	391.5868	570.0224	634.0481	658.8161	743.9342	763.4734	799.5734	837.368	842.2776	867.9486	894.1781	916.1781	944.8049	968.2897	998.9369	1011.2583	1053.8466	1062.8113	1102.6807	1119.654	1122.5123	1148.9185	1186.5975	1229.8226	1277.8527	1292.0251	1362.065	1405.894	1408.1322	1430.5915	1444.7676	1481.3086	1483.5646	1495.3788	1499.4389	1511.8725	3010.835	3019.0893	3039.454	3043.2171	3077.8648	3091.0865	3108.403	3124.1197	3167.0244	3178.1369	3208.2358
CCC12C3C4N1C2C34C	CC[C@@]12[C@H]3[C@H]4N1[C@@H]2[C@@]34C	
InChI=1S/C8H11N/c1-3-8-4-5-7(4,2)6(8)9(5)8/h4-6H,3H2,1-2H3	InChI=1S/C8H11N/c1-3-8-4-5-7(4,2)6(8)9(5)8/h4-6H,3H2,1-2H3/t4-,5+,6+,7-,8-,9?/m0/s1
