21
gdb 32835	5.40846	0.73928	0.6893	0.5769	87.6	-0.2066	0.0284	0.235	1732.0586	0.182114	-387.138835	-387.129183	-387.128239	-387.174072	35.073	
C	 0.1795709514	 1.6083503305	 0.0910137183	-0.381979
C	 0.0910071768	 0.0811754352	 0.0625883922	-0.156847
C	 0.5585709883	-0.5153021219	-1.2794839382	-0.300179
C	 0.5015146956	-2.0027960408	-1.3255844648	 0.388278
C	-0.2370733919	-2.8940558316	-2.0403162643	-0.389035
C	 0.1598064559	-4.2120622579	-1.6181248353	 0.269417
C	-0.363403214	-5.524116216	-2.1136871827	-0.500204
C	 1.1141771135	-4.0077866159	-0.6731641962	-0.118487
O	 1.3364833456	-2.6762847906	-0.4806327175	-0.188087
H	 1.2087568125	 1.949216489	-0.068348343	 0.115116
H	-0.441342166	 2.0574868169	-0.692473418	 0.11303
H	-0.1578188207	 2.0078292765	 1.0523210074	 0.113337
H	 0.6988683776	-0.3448181392	 0.8685469524	 0.112381
H	-0.9405563277	-0.2388656595	 0.2524949984	 0.100456
H	-0.0619758129	-0.1266504808	-2.0945434888	 0.10865
H	 1.585298718	-0.1792326437	-1.4800297373	 0.111585
H	-0.9791643038	-2.6493700177	-2.7856605243	 0.099336
H	-0.1985321253	-5.6422720074	-3.1908707112	 0.128045
H	 0.1268398395	-6.3613333822	-1.6087973027	 0.122779
H	-1.4420515187	-5.6180957696	-1.9427933412	 0.127823
H	 1.7085844761	-4.6750677534	-0.0701537732	 0.124583
50.4523	85.8759	99.3082	138.1379	229.7046	245.7998	261.4364	311.1769	359.9784	405.579	610.9319	626.4111	683.8998	733.228	745.8557	766.2701	809.7824	869.3274	894.7599	961.5133	986.4862	1018.8902	1042.928	1065.0533	1087.8329	1110.4876	1163.0053	1168.7413	1229.7583	1268.6012	1296.3662	1311.9918	1328.789	1382.6906	1401.9374	1412.7102	1421.8154	1472.9049	1483.1888	1493.3093	1498.9014	1499.5447	1510.0775	1587.7851	1662.6076	3012.2589	3027.1396	3028.5193	3036.3324	3060.2403	3076.6962	3078.4587	3099.2508	3103.1581	3108.18	3243.8456	3269.0027
CCCC1=CC(C)=CO1	CCCc1cc(C)co1	
InChI=1S/C8H12O/c1-3-4-8-5-7(2)6-9-8/h5-6H,3-4H2,1-2H3	InChI=1S/C8H12O/c1-3-4-8-5-7(2)6-9-8/h5-6H,3-4H2,1-2H3
