17
gdb 67063	2.84394	1.70924	1.48059	3.6409	73.88	-0.233	-0.0263	0.2067	938.9946	0.134858	-421.719397	-421.711895	-421.710951	-421.750938	30.193	
O	 0.2877831839	 1.3308973717	 0.1555043959	-0.473223
C	 0.1369918557	-0.0461510065	-0.0308714367	 0.327682
C	 0.0143834005	-0.6537377386	-1.4643894424	-0.155949
C	-0.5406845029	-1.9185037309	-0.77116772	-0.25701
C	-1.2529398494	-0.7363555927	-0.0404716732	 0.234906
C	-1.4890060513	-0.1095998354	-1.4511040653	-0.341124
C	-1.3451205895	-0.7618275965	 1.4879814516	-0.438582
C	 0.240957543	-0.6786335992	 1.4367035342	 0.326977
O	 1.1081681587	-0.9992889723	 2.1809096445	-0.272945
H	 0.0280934302	 1.7940088771	-0.6489535886	 0.286731
H	 0.7083017757	-0.6100810774	-2.3087606038	 0.077316
H	-1.1916663329	-2.5580839288	-1.3708539717	 0.100117
H	 0.1743909892	-2.5118745267	-0.1949001429	 0.116552
H	-1.6442229658	 0.9710606567	-1.4992080971	 0.092256
H	-2.1829120956	-0.6232164492	-2.1217436842	 0.107627
H	-1.731282741	 0.1659106594	 1.9215663816	 0.142522
H	-1.7868344885	-1.6221616507	 1.9946428981	 0.126149
111.4706	221.9026	260.8188	276.5491	328.6891	391.743	484.7658	501.5973	553.5898	575.7347	631.2817	702.8319	767.3305	828.6571	857.6297	897.2844	912.7195	947.2024	982.2523	992.1097	1028.9412	1042.2384	1073.6751	1107.4952	1122.2666	1160.0143	1165.5746	1188.5277	1211.2969	1216.9896	1247.1908	1276.0839	1332.656	1447.3787	1502.5771	1535.9889	1904.2866	3053.7273	3057.3514	3063.3617	3073.7172	3115.6894	3122.8123	3128.0526	3791.852
OC12C3CC1(C3)CC2=O	O[C@]12[C@H]3C[C@@]1(C3)CC2=O	
InChI=1S/C7H8O2/c8-5-3-6-1-4(2-6)7(5,6)9/h4,9H,1-3H2	InChI=1S/C7H8O2/c8-5-3-6-1-4(2-6)7(5,6)9/h4,9H,1-3H2/t4-,6+,7-/m0/s1
