17
gdb 125084	2.92749	1.34452	0.98468	2.7864	75.83	-0.2284	0.0121	0.2405	1187.6571	0.137166	-418.009215	-418.000915	-417.999971	-418.043013	29.925	
C	-0.255043426	 1.5985350909	 0.2577114757	-0.514584
C	-0.0602289527	 0.1235444846	 0.0789418078	 0.083006
C	 0.1336368755	-0.5811824471	-1.0989279124	 0.313288
N	 0.2891890182	-1.8839306408	-0.7473405872	-0.253599
N	 0.1956631587	-2.0919311655	 0.5766914834	-0.231387
C	-0.004907555	-0.8763982597	 1.07862553	-0.067255
C	 0.2003303096	-0.1643301181	-2.5109383215	-0.045581
C	 1.3688516276	-0.4538590555	-3.365523246	-0.173784
O	 0.1747933939	-1.232244833	-3.4685371118	-0.241099
H	 0.6974254499	 2.1382080022	 0.3261398678	 0.131326
H	-0.8162739452	 2.0394499794	-0.5730649849	 0.123036
H	-0.8114685424	 1.8082936759	 1.1759172542	 0.131889
H	 0.3567940848	-2.6599619908	-1.3853780114	 0.27802
H	-0.1121693245	-0.748571111	 2.146791364	 0.108468
H	-0.4119402464	 0.6974896963	-2.7749988527	 0.109489
H	 1.5825107017	 0.1858754321	-4.2204591518	 0.124887
H	 2.2259090423	-0.9659810199	-2.9321087334	 0.123879
61.8757	76.9778	153.0217	164.5856	260.9889	274.2539	417.5486	488.1654	566.7783	614.9521	701.4261	711.3115	721.8659	850.496	882.0695	901.154	957.8274	1001.2717	1007.7388	1062.5635	1093.6021	1134.4245	1150.2381	1168.2897	1177.7472	1243.6259	1263.3862	1310.6233	1375.1743	1385.4098	1421.9686	1460.573	1486.6338	1495.7462	1519.1625	1526.137	1626.9739	3024.764	3076.5247	3087.0487	3105.0602	3115.4906	3181.126	3235.812	3666.475
CC1=C(NN=C1)C1CO1	Cc1c([nH]nc1)[C@H]1CO1	
InChI=1S/C6H8N2O/c1-4-2-7-8-6(4)5-3-9-5/h2,5H,3H2,1H3,(H,7,8)	InChI=1S/C6H8N2O/c1-4-2-7-8-6(4)5-3-9-5/h2,5H,3H2,1H3,(H,7,8)/t5-/m1/s1
