21
gdb 61793	2.36615	0.95838	0.72267	3.4083	80.36	-0.2526	-0.0334	0.2192	1562.2479	0.178029	-424.250308	-424.239309	-424.238365	-424.288348	37.834	
C	-0.0330875294	 1.5951593038	-0.1224078228	-0.413677
C	-0.0295706401	 0.067768369	 0.0401086828	 0.00256
C	 0.6884397995	-0.3275095053	 1.3530330582	-0.285199
C	 2.1786601599	-0.0906791553	 1.272025869	 0.158309
O	 2.810903881	 0.6291063633	 2.0008288985	-0.239615
C	-1.4596230395	-0.5456478463	-0.0075976579	-0.053324
C	-2.3015060313	-0.0510556296	-1.1955533254	-0.430093
C	-1.3364208631	-2.0550137675	-0.1004372182	 0.159265
O	-1.5478120106	-2.8333263303	 0.7935175208	-0.250569
H	 0.9752012012	 1.9989227814	 0.0106804149	 0.135142
H	-0.3845720713	 1.9017270962	-1.1101525107	 0.123012
H	-0.6756869027	 2.0656138931	 0.6304004775	 0.125396
H	 0.5390032288	-0.3608462983	-0.8007456239	 0.0798
H	 0.2866456042	 0.2349317837	 2.20158463	 0.121829
H	 0.5389040251	-1.3963858972	 1.554842988	 0.137578
H	 2.6817246633	-0.6512635434	 0.4472907583	 0.070858
H	-1.9717556396	-0.3190884977	 0.9346339004	 0.097395
H	-3.2670775484	-0.5655622728	-1.2270350012	 0.130634
H	-2.5006383731	 1.0198661726	-1.1216672184	 0.134857
H	-1.792518876	-0.2351132937	-2.1486749784	 0.123447
H	-1.0052048779	-2.4158728758	-1.1050720416	 0.072393
29.218	48.0146	64.1975	84.3346	183.3442	207.3042	224.9811	261.6976	321.5196	326.1944	353.4146	398.2829	446.9466	520.5295	564.2824	782.1597	839.8856	893.028	935.3372	955.1796	972.1349	990.5633	1032.6081	1062.9196	1128.9695	1151.0042	1159.2664	1169.9477	1221.2635	1269.4262	1299.652	1334.9126	1359.0576	1374.4508	1406.034	1419.1205	1429.3647	1430.9566	1466.6629	1492.2123	1495.0147	1500.3115	1512.4337	1830.7779	1835.5546	2834.1188	2841.2971	2978.4541	3032.0148	3035.4634	3038.0684	3051.5747	3096.469	3101.3087	3103.805	3119.4582	3129.0292
CC(CC=O)C(C)C=O	C[C@@H](CC=O)[C@@H](C)C=O	
InChI=1S/C7H12O2/c1-6(3-4-8)7(2)5-9/h4-7H,3H2,1-2H3	InChI=1S/C7H12O2/c1-6(3-4-8)7(2)5-9/h4-7H,3H2,1-2H3/t6-,7-/m0/s1
