12
gdb 129307	2.60706	1.92287	1.20563	1.9316	65.61	-0.278	-0.1227	0.1553	938.9477	0.076777	-468.751003	-468.743767	-468.742822	-468.783437	26.165	
N	 0.0663908391	 1.1548222332	-0.6212280417	-0.440561
C	-0.0345077016	 0.1537211548	 0.1348664426	 0.309154
O	 0.8417112934	-0.0979200118	 1.1701857934	-0.256809
N	 1.4306473837	-1.4051333557	 1.2079698875	-0.130389
C	 0.6183815108	-2.3534028525	 1.5060612852	 0.127239
N	-0.7142385516	-2.3218050877	 1.8849787321	-0.181118
C	-1.5538953817	-1.5596180905	 1.3059880243	-0.039227
C	-1.2853712834	-0.710276698	 0.0868709232	 0.292317
O	-2.0755327059	-0.6785047268	-0.820063386	-0.256747
H	 0.9328695428	 1.6634633972	-0.4287955748	 0.253028
H	 1.090709788	-3.3316962033	 1.5588754872	 0.162009
H	-2.5884601836	-1.562459079	 1.6527484669	 0.161103
43.6149	147.4037	270.0634	305.115	328.6742	393.4583	441.3769	531.2599	588.4356	666.9697	695.2521	807.61	845.763	866.9529	933.4253	948.4873	984.188	1028.9493	1071.451	1160.0921	1292.8052	1347.2298	1370.367	1618.1605	1705.8259	1723.7603	1810.5115	3129.2982	3174.6151	3470.1556
N=C1ON=CN=CC1=O	[NH][C]1ON=CN=CC1=O	
InChI=1S/C4H3N3O2/c5-4-3(8)1-6-2-7-9-4/h1-2,5H	InChI=1S/C4H3N3O2/c5-4-3(8)1-6-2-7-9-4/h1-2,5H
