14
gdb 133547	2.01035	1.80802	1.25509	3.9558	55.57	-0.2679	-0.034	0.234	989.3206	0.095813	-568.194009	-568.185752	-568.184808	-568.227324	29.849	
F	 0.3367935284	 0.0920126485	 0.1819079275	-0.096165
C	-0.0099484013	 1.3889770177	 0.0419499845	 0.263844
F	 1.1097963688	 2.0733641029	-0.2092976939	-0.069289
F	-0.7964609043	 1.4746464547	-1.0348037234	-0.069288
C	-0.7059161203	 1.8950509706	 1.2820350938	 0.058273
C	-1.5823217421	 0.9228859252	 2.06247455	-0.30326
C	-0.2703293121	 1.3349271753	 2.6306610462	-0.303262
C	-1.1446789635	 3.3186704643	 1.2627575409	 0.110224
O	-0.9901400369	 4.0853262821	 0.3498576171	-0.249539
H	-2.4911730119	 1.3270476318	 2.4946742588	 0.135894
H	-1.6751925345	-0.073031984	 1.6480640908	 0.153978
H	 0.5466478809	 0.6247537674	 2.6102880417	 0.153978
H	-0.2543601663	 2.0295387314	 3.4633761231	 0.135894
H	-1.6508662547	 3.6275094122	 2.2076993729	 0.078718
66.0263	132.6287	168.1564	209.2604	265.7506	322.5447	349.1152	449.1013	483.2156	523.0948	593.0177	622.3277	771.6042	783.7185	865.3335	926.7703	969.5359	991.5832	1048.4727	1074.9036	1103.4145	1166.6985	1190.9074	1194.304	1221.6691	1303.3993	1387.7876	1449.6029	1461.3631	1495.0378	1833.6726	2855.3419	3147.43	3148.1817	3234.8024	3247.2907
FC(F)(F)C1(CC1)C=O	FC(F)(F)C1(CC1)C=O	
InChI=1S/C5H5F3O/c6-5(7,8)4(3-9)1-2-4/h3H,1-2H2	InChI=1S/C5H5F3O/c6-5(7,8)4(3-9)1-2-4/h3H,1-2H2
