19
gdb 91974	2.49218	1.62501	1.21838	4.4798	78.03	-0.2489	0.0256	0.2745	1069.8653	0.160959	-382.066799	-382.058567	-382.057623	-382.099557	31.518	
C	 0.7417959321	 1.468022921	-0.3412085771	-0.411858
C	 0.1436106844	 0.0994445155	 0.008408159	-0.021001
C	 0.2545709918	-0.9532049712	-1.1293382948	-0.245164
C	 1.3208427998	-1.9399047308	-0.6837237318	-0.010356
C	 2.6332125714	-1.4184111041	-0.22828853	-0.252198
N	 1.6049741903	-1.7919592086	 0.7593535301	-0.096451
C	 0.7875369848	-0.6547034702	 1.2353476273	-0.136459
C	 1.5516219759	 0.210282497	 2.1372669894	 0.3024
N	 2.1438153875	 0.908250925	 2.8426110993	-0.334057
H	 1.787913308	 1.4087724257	-0.6539628334	 0.130678
H	 0.1773981164	 1.9143677166	-1.1661728607	 0.119461
H	 0.6915366193	 2.1521684512	 0.5100337476	 0.143055
H	-0.9104335962	 0.2645052151	 0.2488546311	 0.095581
H	-0.6938342019	-1.4839548748	-1.2597195771	 0.112612
H	 0.4941328189	-0.4833123361	-2.0883292917	 0.115641
H	 1.2507418584	-2.961682335	-1.0456225033	 0.09922
H	 3.5020938884	-2.069179038	-0.2238452318	 0.127793
H	 2.8626406525	-0.3682363759	-0.3744807772	 0.12824
H	-0.020697432	-1.0981477721	 1.8281742052	 0.132863
84.1938	147.5824	176.284	199.0617	291.4254	363.2539	373.4465	391.607	512.8803	557.2875	654.0631	707.8409	755.4155	795.5475	855.9066	874.771	915.9474	927.0947	978.3044	1031.5931	1041.8996	1072.5498	1097.7335	1110.2478	1119.4515	1141.4229	1168.5102	1229.0157	1252.9871	1281.6271	1304.0943	1333.8475	1347.2499	1376.7779	1391.9005	1422.6704	1488.5608	1493.6087	1498.791	1517.915	2358.7919	3037.9731	3044.0646	3047.4203	3063.3554	3088.8153	3110.9362	3122.6342	3129.9787	3150.1863	3214.4833
CC1CC2CN2C1C#N	C[C@H]1C[C@H]2CN2[C@H]1C#N	
InChI=1S/C7H10N2/c1-5-2-6-4-9(6)7(5)3-8/h5-7H,2,4H2,1H3	InChI=1S/C7H10N2/c1-5-2-6-4-9(6)7(5)3-8/h5-7H,2,4H2,1H3/t5-,6-,7-,9?/m0/s1
