20
gdb 9354	7.29831	0.771	0.71349	3.3362	73.56	-0.2426	-0.0077	0.2349	1638.578	0.173216	-386.155105	-386.14479	-386.143846	-386.192045	34.589	
C	 0.0313460953	 1.4816954472	 0.0563126337	-0.384433
C	-0.010316571	-0.0327157015	-0.0507075384	-0.02735
O	-1.3577816693	-0.4509929299	 0.0538119451	-0.221808
C	-1.5141269634	-1.8326089272	-0.0332474999	-0.150537
C	-2.99093844	-2.2141823111	 0.0535408978	 0.354195
O	-3.8703193737	-1.3900317601	 0.0666676322	-0.277786
C	-3.2620908063	-3.71329681	 0.1215955488	-0.284788
C	-4.7402609591	-4.0651896271	-0.030154547	-0.376061
H	 1.0619149297	 1.8406063116	-0.0217758322	 0.113673
H	-0.5592041116	 1.9375681942	-0.7430152521	 0.13219
H	-0.380754328	 1.8087453464	 1.0148535249	 0.131034
H	 0.4172324841	-0.3668813714	-1.0116960802	 0.085705
H	 0.5949296568	-0.4958728174	 0.7475283717	 0.085185
H	-1.1188912331	-2.2320890265	-0.9870918252	 0.103773
H	-0.9630769133	-2.3631462151	 0.765817543	 0.099898
H	-2.6489408026	-4.2181797625	-0.6370252433	 0.115427
H	-2.8739964037	-4.0705378853	 1.0863951469	 0.125594
H	-4.8939910516	-5.1432162621	 0.0687267279	 0.109738
H	-5.3378809185	-3.5550554665	 0.7286127535	 0.137557
H	-5.1189284507	-3.7509258956	-1.0065396875	 0.128795
32.0579	47.536	79.2928	108.2876	130.7758	193.2519	241.6467	245.3152	320.3102	328.8183	473.9874	490.2071	652.7011	749.0536	822.3554	833.6146	913.1352	937.9666	987.0685	1019.7248	1068.7912	1115.252	1129.7239	1155.5172	1188.5115	1195.7638	1249.5921	1291.1672	1297.6548	1361.8162	1385.7904	1405.1189	1413.4134	1437.7856	1453.5185	1482.8928	1487.9151	1492.8904	1499.2089	1499.9071	1532.1785	1830.3148	2924.5011	2944.5625	2952.1204	2974.7131	3014.2422	3043.7446	3046.5728	3051.8565	3120.7235	3120.936	3125.3133	3131.7249
CCOCC(=O)CC	CCOCC(=O)CC	
InChI=1S/C6H12O2/c1-3-6(7)5-8-4-2/h3-5H2,1-2H3	InChI=1S/C6H12O2/c1-3-6(7)5-8-4-2/h3-5H2,1-2H3
