19
gdb 122760	5.28462	0.57215	0.52293	2.0979	81.12	-0.277	-0.0391	0.2379	2085.7321	0.156139	-423.026617	-423.016156	-423.015212	-423.063551	36.08	
C	-0.1100538764	 1.5592544826	 0.0117188925	-0.381895
C	-0.0547888701	 0.0294126352	 0.0027957311	-0.167961
C	-1.4464092505	-0.6134296506	 0.0127485589	-0.188674
C	-1.3752166917	-2.1306318258	 0.0036180044	-0.06744
O	-2.7290152638	-2.6339961438	 0.0140324075	-0.234469
C	-2.8487136433	-3.9708944627	 0.0076211289	 0.294807
O	-1.9270461292	-4.7485001114	-0.0057750153	-0.354254
C	-4.2429281089	-4.3634385585	 0.0188456897	 0.224339
C	-5.381513687	-4.746753116	 0.027178857	-0.359426
H	 0.8944674018	 1.9926959376	 0.0043560812	 0.11572
H	-0.6451306897	 1.9406909076	-0.8647506963	 0.117585
H	-0.6279990237	 1.9310075169	 0.9025231833	 0.117585
H	 0.4985769183	-0.3126896423	-0.8814911866	 0.101616
H	 0.5155635517	-0.3223070104	 0.8723933414	 0.101616
H	-2.0038791556	-0.2873393924	 0.899219535	 0.109541
H	-2.0209630775	-0.2775610975	-0.8590426821	 0.10954
H	-0.8632219754	-2.5123311519	-0.8860913543	 0.125055
H	-0.8459942407	-2.5221573801	 0.878859358	 0.12505
H	-6.3888789283	-5.0856428265	 0.0354392859	 0.211664
40.7716	65.0866	81.542	123.0801	158.6165	173.1003	249.1962	250.2817	298.6539	343.8137	424.3851	568.257	607.3822	656.5901	696.7666	744.2758	774.5675	807.0739	887.3958	940.124	948.6341	999.5215	1047.8847	1073.6631	1144.8728	1190.6474	1252.2113	1254.8216	1295.9407	1308.1952	1327.091	1386.5083	1414.8445	1422.3651	1488.3996	1495.0179	1500.8326	1507.4145	1519.1823	1791.9207	2236.8545	3016.7933	3030.0958	3034.177	3043.3627	3046.977	3067.8116	3095.1152	3101.5491	3106.7985	3496.7309
CCCCOC(=O)C#C	CCCCOC(=O)C#C	
InChI=1S/C7H10O2/c1-3-5-6-9-7(8)4-2/h2H,3,5-6H2,1H3	InChI=1S/C7H10O2/c1-3-5-6-9-7(8)4-2/h2H,3,5-6H2,1H3
