18
gdb 15161	6.96386	0.70742	0.68835	1.594	77.84	-0.2435	0.053	0.2966	1681.9326	0.152044	-347.758462	-347.749265	-347.748321	-347.79447	31.583	
C	 0.3660307318	 1.4619278523	 0.1841546519	-0.363748
C	-0.1397220905	 0.0418101328	-0.1291948971	-0.312565
C	 0.39810633	-0.4934747976	-1.3758727318	 0.097213
C	 0.860744649	-0.9064746302	-2.4082237558	 0.037304
C	 1.4146629772	-1.446695409	-3.646245478	-0.378479
C	 1.8893618991	-2.8830264512	-3.5036523833	 0.113029
C	 2.9805913926	-3.4155319897	-4.3265024507	-0.182074
O	 3.1887416854	-3.0786449383	-2.9528973997	-0.224983
H	 1.4557677607	 1.4748642291	 0.271253849	 0.129901
H	 0.0831859209	 2.1588514848	-0.6094885599	 0.126376
H	-0.0603499083	 1.8199471016	 1.1260648759	 0.11297
H	 0.1241738582	-0.6303067244	 0.6974834189	 0.129785
H	-1.2365207374	 0.0456794714	-0.1746911496	 0.125473
H	 0.6584022122	-1.4069884807	-4.4427453367	 0.128648
H	 2.2603745076	-0.8353962558	-3.9844577223	 0.132781
H	 1.1370127358	-3.577930722	-3.1291408001	 0.100476
H	 3.0161314623	-4.4782615758	-4.5617386948	 0.115352
H	 3.4771268633	-2.7655183572	-5.046555086	 0.112541
16.8273	58.2785	87.8382	153.6169	188.8201	267.7207	317.9674	367.2442	388.7561	504.6333	515.14	744.6567	786.4667	789.4283	859.9274	936.9373	950.7195	973.7131	1078.5894	1094.6559	1105.2438	1108.4923	1158.1967	1164.058	1171.2566	1245.0027	1286.0349	1293.8282	1321.9939	1351.1946	1408.3657	1439.0406	1455.2717	1476.9203	1494.3913	1506.0388	1531.7028	2370.0873	3011.3105	3018.6041	3043.9014	3045.5086	3053.2396	3081.0017	3109.393	3117.0276	3123.7466	3166.7168
CCC#CCC1CO1	CCC#CC[C@H]1CO1	
InChI=1S/C7H10O/c1-2-3-4-5-7-6-8-7/h7H,2,5-6H2,1H3	InChI=1S/C7H10O/c1-2-3-4-5-7-6-8-7/h7H,2,5-6H2,1H3/t7-/m0/s1
