19
gdb 40802	4.06986	1.06788	0.89478	3.169	76.57	-0.2435	0.0293	0.2728	1297.1848	0.161831	-419.191818	-419.183829	-419.182885	-419.224897	30.193	
C	 0.8123922618	 0.358368277	-0.9239570522	-0.243969
N	-0.4711996377	 0.9655306143	-0.5393196889	-0.31159
C	 0.4181627391	 0.441817137	 0.5047376943	-0.02681
C	-0.0659901761	-0.7696798586	 1.2538219432	 0.153312
C	 1.0565177496	-1.6221455701	 1.8410857441	-0.24365
C	 0.4451267258	-2.7293606479	 2.7061014128	-0.162116
N	-0.5844836158	-2.2407153213	 3.6192743634	-0.266946
C	-1.1213463002	-1.1261529131	 3.3607597382	 0.131337
O	-0.9248609903	-0.2905263836	 2.3114973769	-0.246831
H	 0.7256847106	-0.5840988026	-1.4586363983	 0.119772
H	 1.6230406341	 0.9960551105	-1.2656989514	 0.116132
H	-0.4106472559	 1.9790341143	-0.5784598968	 0.236402
H	 0.953163017	 1.1586886317	 1.1256111884	 0.091268
H	-0.6850899407	-1.3724275337	 0.576037201	 0.094536
H	 1.6697236494	-2.0357766047	 1.0341969361	 0.106137
H	 1.7057929554	-0.9859760167	 2.4550155697	 0.108651
H	 0.0067057154	-3.5125538264	 2.0726137806	 0.111843
H	 1.2204404826	-3.2219139559	 3.3029943358	 0.11101
H	-1.8636253041	-0.6977802503	 4.032561453	 0.121512
82.0037	93.0767	164.8169	204.5691	303.0121	374.9167	453.7771	478.8446	526.5774	554.2632	784.7625	839.1375	861.3857	879.6575	897.1026	903.2027	938.1668	965.7843	976.7691	1019.0131	1044.0657	1065.8096	1118.3677	1124.4503	1144.5796	1159.8171	1214.2704	1242.1746	1253.0068	1262.0225	1283.057	1312.2813	1354.5015	1365.4068	1385.2256	1410.8984	1460.0468	1478.8125	1492.0229	1518.166	1734.4387	3014.5826	3022.2156	3035.6348	3060.4513	3088.0147	3107.7557	3124.0803	3154.0615	3191.0914	3513.6111
C1NC1C1CCN=CO1	C1N[C@H]1[C@H]1CCN=CO1	
InChI=1S/C6H10N2O/c1-2-7-4-9-6(1)5-3-8-5/h4-6,8H,1-3H2	InChI=1S/C6H10N2O/c1-2-7-4-9-6(1)5-3-8-5/h4-6,8H,1-3H2/t5-,6-/m1/s1
