16
gdb 26456	3.75313	1.04082	0.95413	3.1792	72.28	-0.2118	-0.0283	0.1835	1233.3705	0.124728	-437.924715	-437.916547	-437.915603	-437.958316	30.26	
O	 0.1311271357	 1.5540007686	 0.0375546149	-0.42937
C	 0.0218838896	 0.155782889	 0.0680369056	-0.060257
C	 0.6400896775	-0.4315066071	-1.1961871901	 0.137971
O	 1.118347491	 0.2698658654	-2.054445644	-0.265095
C	 0.7118899073	-0.4454183606	 1.2649317222	 0.241472
C	 1.7069361889	 0.1664011331	 1.9948378055	-0.158004
N	 2.1008835025	-0.7070922971	 2.9738504721	-0.239283
C	 1.3802485494	-1.8701008643	 2.8836574172	-0.064224
C	 0.5077893658	-1.7399911271	 1.8290028102	-0.271265
H	 0.5316907398	 1.7589751092	-0.8229933731	 0.292709
H	-1.0397672007	-0.1540795503	 0.0699378784	 0.095996
H	 0.6397919531	-1.5368691312	-1.2695927658	 0.102032
H	 2.1302968547	 1.1519667184	 1.9039854424	 0.136433
H	 2.794402879	-0.5104653112	 3.67388246	 0.264579
H	 1.5419286541	-2.6816793411	 3.5744432413	 0.123275
H	-0.2062838278	-2.4821868739	 1.5046677932	 0.093033
46.668	85.9494	165.914	232.3451	309.9749	363.8361	423.6896	486.9708	501.3601	639.9268	659.281	688.597	699.1129	777.6178	787.3036	822.6538	861.6706	905.4787	978.5413	1027.8995	1076.1529	1096.0135	1142.6825	1161.7741	1238.1985	1258.363	1289.2838	1343.6051	1388.0197	1421.3852	1433.5282	1465.1244	1518.3394	1604.7928	1809.5031	2928.8858	2949.0953	3240.7289	3270.7988	3286.0692	3677.327	3684.7412
OC(C=O)C1=CNC=C1	O[C@@H](C=O)c1c[nH]cc1	
InChI=1S/C6H7NO2/c8-4-6(9)5-1-2-7-3-5/h1-4,6-7,9H	InChI=1S/C6H7NO2/c8-4-6(9)5-1-2-7-3-5/h1-4,6-7,9H/t6-/m0/s1
