18
gdb 76112	3.24704	1.28843	1.1113	2.9776	78.45	-0.2349	0.0472	0.2821	1141.6242	0.146203	-401.871991	-401.863131	-401.862187	-401.905184	33.999	
C	 0.0069838443	 1.559617131	 0.0714859806	-0.51961
C	 0.1406626483	 0.0721784866	-0.0185532127	 0.309856
N	-0.8425554466	-0.8573149573	 0.5944038376	-0.385179
C	 0.5935504892	-0.9590518881	 0.954516515	-0.111749
C	 1.2507471074	-1.8161104391	-0.1375131732	-0.267784
C	 0.8383935057	-3.1958143531	-0.2760866276	 0.349426
C	 0.4866444756	-4.3379248209	-0.4097848018	-0.445335
C	 0.6935503414	-0.7486767269	-1.2011256109	 0.098967
O	-0.2237246828	-1.1748778029	-2.1533028265	-0.4286
H	 0.9441936566	 2.055596846	-0.2024145068	 0.128939
H	-0.773170846	 1.9236499363	-0.6066093152	 0.138703
H	-0.2550103406	 1.8743187045	 1.0877607172	 0.118706
H	-1.3163849954	-0.3565964635	 1.3447875259	 0.230611
H	 0.9172922777	-0.8519810398	 1.9826946668	 0.101075
H	 2.341569159	-1.7408012306	-0.0875802375	 0.100536
H	 0.1774297954	-5.3473730769	-0.5219844253	 0.192627
H	 1.5137018969	-0.2565151355	-1.7285419204	 0.093881
H	-0.9680829061	-1.5405589597	-1.654187875	 0.29493
89.9047	124.9932	190.1845	199.7759	236.8855	289.4031	347.4558	398.1083	484.7903	522.3357	559.902	617.453	623.8118	631.8196	699.8299	746.2913	787.4957	853.0714	904.8233	929.1457	972.2739	1012.7292	1052.0263	1068.0948	1104.1562	1108.121	1142.2066	1181.6147	1223.1343	1264.068	1301.5953	1337.0963	1354.3444	1407.6237	1436.7232	1467.6275	1482.8985	1498.2208	2234.3538	3026.029	3057.7482	3091.4452	3093.2407	3096.8616	3189.4358	3484.0221	3504.5942	3745.7539
CC12NC1C(C#C)C2O	C[C@]12N[C@H]1[C@@H](C#C)[C@H]2O	
InChI=1S/C7H9NO/c1-3-4-5-7(2,8-5)6(4)9/h1,4-6,8-9H,2H3	InChI=1S/C7H9NO/c1-3-4-5-7(2,8-5)6(4)9/h1,4-6,8-9H,2H3/t4-,5+,6-,7+/m1/s1
