18
gdb 8193	2.74545	2.22772	1.65831	2.1411	68.23	-0.2274	0.0705	0.2979	865.3664	0.151558	-384.899684	-384.891351	-384.890407	-384.931572	31.847	
C	-0.0185196897	 1.5741157789	 0.0617418015	-0.466891
C	 0.0429994598	 0.0660588708	 0.0342696155	 0.333509
O	-1.1276947746	-0.5583213094	-0.4361311687	-0.468267
C	 1.2968802285	-0.7444054491	-0.2970573244	-0.257978
C	 2.5099948337	-0.1231936057	 0.3717961348	-0.108907
O	 1.8222254748	-0.0633335338	 1.6515956076	-0.322555
C	 0.6931705708	-0.7649642381	 1.1052462636	 0.426154
C	 0.0351586792	-1.7957829748	 1.9595592431	-0.491318
H	 0.8218807579	 1.993066679	 0.6182010721	 0.140701
H	-0.0084319767	 1.9918091591	-0.9524818886	 0.104205
H	-0.9449681879	 1.8921955184	 0.5499435776	 0.126833
H	-1.1817714765	-0.4083662016	-1.3865764588	 0.283433
H	 1.2942008716	-1.5019897152	-1.0704352992	 0.093553
H	 3.372975025	-0.7965615416	 0.4334870299	 0.109831
H	 2.8419663479	 0.8643395531	 0.0292418698	 0.101356
H	-0.3266443037	-1.337436808	 2.8871785191	 0.129737
H	-0.8182435029	-2.2255920333	 1.431937365	 0.145083
H	 0.7353796329	-2.5930865385	 2.2272903202	 0.121523
181.4304	184.8198	194.2926	229.6256	256.3767	286.304	305.7906	376.7494	407.2557	502.128	516.9674	660.1922	683.4663	759.4586	881.3519	921.4382	934.5038	974.3429	981.5608	988.8567	1059.7679	1083.9406	1122.232	1157.0997	1166.809	1203.3331	1220.5137	1259.4352	1309.4657	1351.0479	1401.1135	1406.9081	1467.5928	1481.8899	1485.0557	1491.9286	1512.9168	1520.8746	3018.5649	3028.5943	3036.3079	3062.8121	3093.5761	3096.0119	3136.1594	3141.9712	3192.7511	3790.7206
CC1(O)C2COC12C	C[C@@]1(O)[C@H]2CO[C@@]12C	
InChI=1S/C6H10O2/c1-5(7)4-3-8-6(4,5)2/h4,7H,3H2,1-2H3	InChI=1S/C6H10O2/c1-5(7)4-3-8-6(4,5)2/h4,7H,3H2,1-2H3/t4-,5-,6-/m1/s1
