16
gdb 36541	3.99605	0.99023	0.905	3.5075	81.1	-0.2407	-0.0336	0.2071	1303.7081	0.123717	-400.726153	-400.717852	-400.716908	-400.760269	30.383	
C	 0.1424602053	-1.0456177346	-0.4771190376	-0.480265
C	 0.1159586612	 0.1093695008	-0.1464368855	 0.341328
C	 0.0874807316	 1.513798062	 0.2628720169	-0.312955
N	 1.4202381247	 2.1259727103	 0.2420523732	-0.33765
C	 1.8115717683	 2.64415038	-0.8447016704	 0.451084
O	 1.0856637464	 2.685578957	-2.0126077059	-0.253302
C	 1.8424657574	 3.3590501338	-3.0211564843	-0.133427
C	 3.1312309152	 3.7329497457	-2.3485282396	-0.098533
C	 3.0969865383	 3.3086939803	-1.0853699571	-0.15791
H	 0.164380571	-2.0657732743	-0.7697853943	 0.193272
H	-0.624163738	 2.0559360988	-0.3753094029	 0.133273
H	-0.2860568229	 1.5747241886	 1.2915026715	 0.130747
H	 1.9842544513	 2.6818033399	-3.8738780027	 0.134595
H	 1.2761365117	 4.2307071207	-3.3761803443	 0.131297
H	 3.9294842108	 4.2630780618	-2.8500108895	 0.125899
H	 3.8483428277	 3.4042341992	-0.3162971175	 0.132549
26.8128	92.3352	170.6222	221.5923	274.1552	328.6464	387.0033	446.8908	601.6842	605.6975	646.4156	683.3682	696.062	800.5481	802.9685	877.9332	937.617	952.1809	973.9318	1006.4071	1028.6652	1031.4627	1082.8148	1116.4994	1190.7587	1199.0312	1267.1806	1353.2108	1366.1506	1377.4051	1483.062	1497.8376	1659.5341	1763.7808	2236.9772	3006.5827	3013.6708	3043.0849	3052.5836	3230.2089	3264.6875	3507.4817
C#CCN=C1OCC=C1	C#CCN=C1OCC=C1	
InChI=1S/C7H7NO/c1-2-5-8-7-4-3-6-9-7/h1,3-4H,5-6H2	InChI=1S/C7H7NO/c1-2-5-8-7-4-3-6-9-7/h1,3-4H,5-6H2
