18
gdb 51960	5.39558	0.69813	0.65195	3.458	75.95	-0.2494	-0.0295	0.2198	1693.0433	0.146671	-439.121546	-439.112202	-439.111258	-439.157669	32.68	
O	-0.0996527056	-0.0196357231	 0.393043892	-0.330156
C	-0.015743689	 1.1748912358	 0.1908598118	 0.153963
N	 1.1502770978	 1.8480914672	 0.0479556395	-0.282567
C	 2.4308879744	 1.1983399853	 0.123600815	-0.238375
C	 3.541956452	 2.2179361102	-0.0757574798	 0.370947
O	 3.2864148819	 3.3919636801	-0.2656758467	-0.345241
C	 4.9287075722	 1.6956282544	-0.0241926441	-0.10935
C	 5.9639602031	 2.3686491283	-0.9182505169	-0.247067
C	 6.0021481783	 2.6145034759	 0.5479626199	-0.247081
H	-0.8958422779	 1.8417339581	 0.101994981	 0.07814
H	 1.1756366021	 2.8445239158	-0.1195592005	 0.263268
H	 2.5739729122	 0.6960430909	 1.0912576044	 0.148362
H	 2.5294084954	 0.407315513	-0.6338340778	 0.148361
H	 5.0333456035	 0.630881031	 0.1516065929	 0.099313
H	 6.7136233782	 1.726578926	-1.3654511077	 0.126044
H	 5.5877229753	 3.1643516071	-1.5505711406	 0.142698
H	 5.6517451953	 3.5760320933	 0.9046153557	 0.142704
H	 6.7789262708	 2.1468650709	 1.141405152	 0.126038
21.6347	64.4215	106.9371	117.0201	221.0467	260.4251	301.5273	307.4442	364.431	572.693	592.3769	649.0313	763.4097	806.0716	829.4215	863.111	868.1489	932.052	1011.3368	1033.9628	1036.7165	1068.1039	1100.2131	1110.4049	1127.8963	1130.5672	1211.3203	1220.2097	1231.593	1231.6574	1342.4504	1419.4764	1424.0187	1456.2202	1478.137	1487.1197	1516.6467	1776.3523	1802.5226	2943.0804	3009.6858	3028.3193	3144.5664	3145.9563	3175.2531	3232.2924	3246.6975	3597.1419
O=CNCC(=O)C1CC1	O=CNCC(=O)C1CC1	
InChI=1S/C6H9NO2/c8-4-7-3-6(9)5-1-2-5/h4-5H,1-3H2,(H,7,8)	InChI=1S/C6H9NO2/c8-4-7-3-6(9)5-1-2-5/h4-5H,1-3H2,(H,7,8)
