21
gdb 121115	3.66726	0.84326	0.80248	1.2471	75.6	-0.2565	0.0663	0.3228	1538.3507	0.181894	-461.36586	-461.356178	-461.355234	-461.401658	35.057	
C	 0.5019082658	 1.3935480005	-0.0529728249	-0.385324
C	 0.1548412385	-0.0848747297	-0.0366866023	-0.042464
O	 0.7452346478	-0.6945580416	-1.1786117114	-0.252913
C	 0.478546852	-2.0645738003	-1.2953199094	 0.226361
C	 1.0938632241	-2.5623117667	-2.6153813931	-0.277924
C	 2.137377453	-3.6061991603	-2.1859095339	 0.113812
O	 3.2862767805	-3.5100946638	-3.0074183764	-0.427825
C	 2.3685206267	-3.225094199	-0.7125555034	-0.128428
O	 1.085786228	-2.8214347195	-0.2534745722	-0.253142
H	 1.5860647834	 1.5337571158	-0.0175633579	 0.126529
H	 0.1255930319	 1.8692388077	-0.9632148243	 0.124313
H	 0.0590239254	 1.8972320764	 0.8115604005	 0.114092
H	 0.5247201208	-0.5668061462	 0.877302794	 0.107937
H	-0.9380806776	-0.228628068	-0.0651526333	 0.084932
H	-0.601969147	-2.2427808702	-1.1992092788	 0.066269
H	 0.3420320929	-2.9674620034	-3.2942340691	 0.109294
H	 1.6019404608	-1.732334929	-3.1109916462	 0.13516
H	 1.7064531844	-4.616594461	-2.2351309726	 0.072122
H	 3.8740379999	-4.240096515	-2.7898804746	 0.285595
H	 2.7083720811	-4.0493481078	-0.0792611921	 0.097766
H	 3.1004816675	-2.4055593886	-0.6634088884	 0.103839
30.544	68.2311	109.6197	181.067	193.7587	255.7279	276.3252	337.0729	364.1686	422.2058	472.0867	570.3305	598.4249	734.6928	819.5131	835.2579	888.1059	915.8606	939.2943	994.1807	1033.8355	1057.3342	1071.6157	1092.8203	1119.9657	1147.9883	1153.6917	1187.5878	1212.3318	1229.4971	1282.3546	1291.1187	1294.6245	1323.3323	1362.2336	1373.9891	1381.7771	1405.1301	1435.2145	1440.9766	1483.159	1484.2606	1501.0414	1513.9268	1529.1378	2969.8278	2992.2605	3004.1431	3005.0838	3039.4852	3043.9824	3082.723	3091.6446	3118.2227	3120.6511	3135.7425	3822.9972
CCOC1CC(O)CO1	CCO[C@H]1C[C@@H](O)CO1	
InChI=1S/C6H12O3/c1-2-8-6-3-5(7)4-9-6/h5-7H,2-4H2,1H3	InChI=1S/C6H12O3/c1-2-8-6-3-5(7)4-9-6/h5-7H,2-4H2,1H3/t5-,6-/m1/s1
