18
gdb 97897	5.1007	0.5715	0.53157	3.0361	82.11	-0.268	0.0152	0.2831	1995.2735	0.145556	-401.933112	-401.922564	-401.92162	-401.970794	35.969	
C	 0.0449749647	 1.6110594592	 0.5109299499	-0.391496
C	 0.0093676534	 0.1367205528	 0.0710560498	-0.133154
C	 0.8198312057	-0.7906079887	 1.0243493538	-0.357118
C	 2.2378687074	-0.4588213005	 1.0501722103	-0.002334
C	 3.4080661307	-0.1710846079	 1.0344628556	 0.121256
C	 4.825690418	 0.1896553875	 1.0810438399	-0.197674
O	 5.0794755906	 1.3997350824	 1.7798212174	-0.399138
C	-1.3712893667	-0.3481042864	-0.0222863521	 0.265119
N	-2.4587294092	-0.7352999382	-0.0810860523	-0.319561
H	 1.0824736839	 1.9489501479	 0.5625609035	 0.146508
H	-0.4976983904	 2.2415883924	-0.1969745616	 0.139199
H	-0.4126171025	 1.7313103084	 1.4972372169	 0.135148
H	 0.4515588443	 0.0544567608	-0.9287321722	 0.139366
H	 0.3938980291	-0.7189624813	 2.0327385102	 0.146907
H	 0.6878323271	-1.8317046449	 0.7085100938	 0.152578
H	 5.3990009	-0.6496907016	 1.5057956972	 0.12244
H	 5.2064425814	 0.3479685175	 0.0660734829	 0.143449
H	 4.6940371524	 1.3130310506	 2.657993027	 0.288502
18.9109	46.8086	79.5732	136.5591	175.0302	223.6315	242.9238	273.0757	321.382	340.5905	363.3152	459.3534	535.5525	562.7771	577.3782	782.0272	822.9976	890.3193	918.8765	984.6508	1047.5069	1063.391	1095.2112	1129.612	1157.4626	1214.8252	1243.4436	1295.6062	1334.0119	1361.8881	1365.6527	1409.9529	1417.6937	1467.8049	1489.9723	1496.8737	1498.6511	2356.6053	2360.4564	2979.8799	3031.4265	3046.8625	3052.1585	3065.2512	3071.5431	3127.5053	3138.6152	3816.1349
CC(CC#CCO)C#N	C[C@@H](CC#CCO)C#N	
InChI=1S/C7H9NO/c1-7(6-8)4-2-3-5-9/h7,9H,4-5H2,1H3	InChI=1S/C7H9NO/c1-7(6-8)4-2-3-5-9/h7,9H,4-5H2,1H3/t7-/m0/s1
