13
gdb 130849	2.27538	1.57992	0.93246	4.5527	77.68	-0.2531	-0.0635	0.1895	1145.1388	0.089823	-415.610317	-415.602642	-415.601698	-415.642814	27.934	
O	-0.0301175309	-0.095822545	-0.0001095525	-0.277179
C	-0.0094277241	 1.115669894	 0.0098729001	 0.05057
C	 1.2131501437	 1.9114797014	 0.0024352178	-0.026309
C	 1.319356332	 3.3068837803	 0.0131207665	 0.216612
N	 2.6520666726	 3.5682140668	-0.0004357393	-0.295348
N	 3.4188273898	 2.4595883121	-0.0187813602	-0.195742
C	 2.5539259582	 1.456086786	-0.0168550323	-0.062305
C	 0.342359953	 4.3211564306	 0.0330679864	 0.293661
C	-0.4851754823	 5.1955663146	 0.050389397	-0.4286
H	-0.9484981831	 1.7092141172	 0.0257925062	 0.076844
H	 3.0894915483	 4.4757614263	 0.0019935015	 0.286104
H	 2.8967462387	 0.4330152559	-0.0294554286	 0.149608
H	-1.2216308258	 5.9613771297	 0.0666367174	 0.212083
114.9976	138.1184	169.8364	212.0041	271.4634	427.3107	450.0639	562.9161	574.7423	601.3142	602.1564	689.4817	690.6017	724.9574	795.1895	915.6259	957.7717	1042.4261	1125.5272	1162.4467	1229.2936	1290.8744	1391.5828	1414.1601	1455.2932	1489.9803	1582.8051	1786.1816	2234.7141	2902.1488	3266.879	3496.1093	3658.9617
O=CC1=C(NN=C1)C#C	O=Cc1c([nH]nc1)C#C	
InChI=1S/C6H4N2O/c1-2-6-5(4-9)3-7-8-6/h1,3-4H,(H,7,8)	InChI=1S/C6H4N2O/c1-2-6-5(4-9)3-7-8-6/h1,3-4H,(H,7,8)
