19
gdb 32604	3.03031	1.21266	0.93771	3.257	81.13	-0.1815	0.0363	0.2178	1301.9446	0.158854	-419.245885	-419.236528	-419.235584	-419.280812	34.013	
C	 0.0194815838	 1.5704100353	 0.054633307	-0.378307
C	 0.0221668617	 0.0418222108	-0.0272417699	-0.14577
N	 0.644624869	-0.4644268479	-1.2366020003	-0.079362
C	 0.0312281767	-0.7787211087	-2.4512193	-0.223098
C	 0.988739565	-1.1397240575	-3.3143458936	 0.324079
C	 0.9915805315	-1.5949816751	-4.7231365726	-0.488861
O	 2.2203563347	-1.0475074078	-2.6709100202	-0.253266
C	 2.0069014095	-0.6116818025	-1.3791837396	 0.454389
N	 2.8818621825	-0.384113835	-0.4851061631	-0.624325
H	 1.0453489815	 1.9464761865	 0.0370411035	 0.152235
H	-0.5306706577	 2.0108924431	-0.7828783458	 0.115235
H	-0.4531663126	 1.8981207934	 0.9859259231	 0.11653
H	 0.5794019483	-0.3754019423	 0.8161965259	 0.144949
H	-0.9978758968	-0.3542807936	 0.0136109011	 0.107403
H	-1.0369342348	-0.7292170463	-2.5783993615	 0.141852
H	 1.5820535098	-0.9255081921	-5.3596920354	 0.140225
H	 1.4210862937	-2.5991462449	-4.8196333375	 0.14033
H	-0.0308137518	-1.6207711103	-5.1077357239	 0.134632
H	 3.814234956	-0.5852258751	-0.8349839172	 0.221129
35.9923	75.9111	166.7276	185.5581	210.5695	256.386	273.5461	311.435	389.8578	515.7848	589.8138	598.3731	664.9521	707.7633	731.4027	752.3269	783.5857	839.4494	944.7618	964.04	1002.8675	1053.2872	1067.4832	1092.6146	1106.4625	1163.7276	1218.6147	1258.8962	1298.594	1387.4528	1396.4119	1406.5569	1418.5749	1442.9554	1466.288	1477.7688	1489.9164	1497.002	1505.968	1724.8156	1771.7562	3025.6662	3040.2962	3048.9158	3074.1273	3096.6362	3113.4298	3124.87	3132.389	3280.7463	3545.3325
CCN1C=C(C)OC1=N	CCN1C=C(C)O[C@H]1[NH]	
InChI=1S/C6H10N2O/c1-3-8-4-5(2)9-6(8)7/h4,7H,3H2,1-2H3	InChI=1S/C6H11N2O/c1-3-8-4-5(2)9-6(8)7/h4,6-7H,3H2,1-2H3/t6-/m0/s1
