21
gdb 60023	4.19033	0.66582	0.60409	5.3132	76.92	-0.2357	-0.0106	0.2252	1835.0728	0.179041	-461.375483	-461.364694	-461.36375	-461.412451	38.415	
C	-0.0380366484	 1.5851179306	 0.0493414766	-0.400905
C	-0.021750815	 0.0584951264	 0.043244831	 0.106976
O	 0.5294074894	-0.4342811858	-1.1905946817	-0.433611
C	 0.821562346	-0.5298202001	 1.175845318	-0.198925
C	 0.8065959781	-2.0657823225	 1.2241484344	 0.117421
O	 1.491645125	-2.640926141	 0.1254662486	-0.448519
C	 1.4829197813	-2.5995832144	 2.4961057522	-0.279403
C	 1.4340746984	-4.1103650902	 2.5829015569	 0.150831
O	 1.0259061216	-4.7193310898	 3.5405936815	-0.249622
H	 0.9783870669	 1.9788170131	-0.0465679573	 0.130975
H	-0.6345574126	 1.9720322789	-0.784633832	 0.108693
H	-0.4762389509	 1.9678268463	 0.9764750713	 0.122783
H	-1.0533360743	-0.3144899237	 0.1501801615	 0.077098
H	-0.050945691	-0.1740219491	-1.9126293696	 0.290668
H	 1.8590963568	-0.1885212132	 1.0697232729	 0.111341
H	 0.4377378294	-0.1341393877	 2.1231945901	 0.102261
H	-0.2495530097	-2.3943149157	 1.2322391574	 0.065874
H	 1.2267279187	-2.1381653094	-0.658090734	 0.293677
H	 2.5393497096	-2.2982332996	 2.4634672216	 0.122021
H	 1.0230942932	-2.1850611028	 3.3973410444	 0.11015
H	 1.8084053975	-4.6351126104	 1.6799254765	 0.100216
43.9482	63.8516	66.9219	136.2405	159.5583	237.5138	266.1579	287.074	294.0977	341.4532	437.3278	453.4801	464.2143	508.1681	549.8535	560.926	819.6377	848.7401	873.2474	909.736	944.6092	1008.0248	1030.9278	1056.3829	1071.6691	1109.7457	1138.386	1158.6293	1195.4539	1234.8602	1277.3329	1304.6674	1320.6076	1339.3525	1385.8491	1393.0696	1408.9276	1418.3241	1423.5659	1447.0954	1459.5517	1470.939	1491.5267	1498.2726	1826.1909	2922.5384	2928.254	2971.3881	3021.3295	3029.3444	3033.5885	3079.7555	3098.8322	3105.4099	3117.9841	3720.0984	3825.2047
CC(O)CC(O)CC=O	C[C@@H](O)C[C@@H](O)CC=O	
InChI=1S/C6H12O3/c1-5(8)4-6(9)2-3-7/h3,5-6,8-9H,2,4H2,1H3	InChI=1S/C6H12O3/c1-5(8)4-6(9)2-3-7/h3,5-6,8-9H,2,4H2,1H3/t5-,6+/m1/s1
