17
gdb 24730	3.61023	1.59207	1.14828	3.5987	73.82	-0.2174	0.0294	0.2468	1025.378	0.14039	-418.047105	-418.040276	-418.039332	-418.078428	26.735	
C	-0.0121230345	 1.403146683	 0.0181651285	-0.088536
C	 1.4196781546	 1.9445415143	 0.0080565891	-0.170493
N	 2.1465556668	 1.277664751	-1.0602058545	-0.028042
C	 3.3500056927	 1.6183161886	-1.6427623768	-0.141289
C	 3.6146828348	 0.6169992033	-2.5391596563	-0.098602
N	 2.6173765382	-0.3319862339	-2.5197324803	-0.337152
C	 1.7597067594	 0.0935387938	-1.619051057	 0.338674
C	 0.4633569453	-0.54164279	-1.2107060436	-0.198111
O	-0.0117238689	-0.0102937836	 0.0196418847	-0.242246
H	-0.5283865252	 1.7246203396	 0.9262813977	 0.121342
H	-0.5657065421	 1.7909446505	-0.852477201	 0.103512
H	 1.4201132759	 3.0266661947	-0.1595973967	 0.121878
H	 1.9039986484	 1.7450423191	 0.9713118741	 0.13101
H	 3.8808941852	 2.5137185536	-1.3642949666	 0.122548
H	 4.4651806622	 0.5243961931	-3.1973660409	 0.107016
H	-0.2941519802	-0.4018123606	-2.0004860966	 0.114658
H	 0.5966994975	-1.6163257166	-1.0657742238	 0.143832
106.6479	181.2693	266.485	343.3109	377.8839	471.1957	528.3028	631.0055	683.4067	705.6304	723.7268	755.3363	850.6683	882.1883	935.3704	963.406	987.1951	1030.6569	1096.5401	1122.6982	1133.5319	1164.6325	1207.5009	1232.0096	1253.7961	1304.3844	1307.0161	1348.3921	1363.7853	1413.0386	1415.9517	1469.9659	1489.9131	1494.0053	1503.2293	1530.4544	1569.6051	2962.626	2978.9444	3032.4334	3080.7955	3100.2524	3102.3132	3247.0851	3275.6506
C1CN2C=CN=C2CO1	C1Cn2ccnc2CO1	
InChI=1S/C6H8N2O/c1-2-8-3-4-9-5-6(8)7-1/h1-2H,3-5H2	InChI=1S/C6H8N2O/c1-2-8-3-4-9-5-6(8)7-1/h1-2H,3-5H2
