19
gdb 11528	4.22656	1.11624	1.00799	3.8946	73.4	-0.2393	0.0332	0.2725	1211.949	0.165174	-365.072982	-365.064127	-365.063183	-365.107398	31.33	
C	-0.3255056765	 1.3443441183	-0.1063031133	-0.347239
N	 0.0588179293	-0.0490463176	 0.0313835915	-0.020396
C	 0.0905901026	-0.6406702757	 1.3594620414	-0.207825
C	-1.2749679726	-0.8340833117	 1.9901046146	 0.027594
C	-2.113577842	-2.0262354532	 1.6105044613	-0.252515
C	-1.4801176863	-1.9549330865	 2.9778200499	-0.269475
C	 0.3648470365	-0.7773250406	-1.079842532	 0.15555
O	 0.3418370415	-0.3715537801	-2.2231988849	-0.344864
H	 0.3007262485	 1.9786495902	 0.532504175	 0.121279
H	-0.1879181848	 1.6248918046	-1.1506316931	 0.168526
H	-1.3745409909	 1.503264531	 0.1694673426	 0.127666
H	 0.5900856258	-1.6126154473	 1.277321427	 0.111255
H	 0.7167970221	-0.0148032769	 2.011024852	 0.108874
H	-1.8138651986	 0.0855562164	 2.1990607929	 0.090325
H	-3.1869464387	-1.8976457118	 1.5302662919	 0.11781
H	-1.6988340719	-2.7292991735	 0.8951307476	 0.116102
H	-0.6398607899	-2.6108983286	 3.182601421	 0.113831
H	-2.1172940423	-1.7744992968	 3.8361574001	 0.117109
H	 0.6554717583	-1.8144908503	-0.8183308854	 0.066393
49.1315	64.9766	113.8099	155.9556	248.3086	306.2327	335.4463	346.2536	407.6207	443.5662	701.4885	774.5622	807.1091	842.1366	878.6089	913.059	958.6277	1007.7699	1028.7397	1058.1966	1081.34	1089.0562	1137.7016	1150.0117	1160.4953	1196.6946	1226.8156	1268.0459	1280.8838	1370.2217	1411.5885	1435.6275	1439.4765	1443.9286	1470.5107	1480.4325	1497.7189	1509.1006	1521.8077	1795.0683	2929.4506	3004.3754	3021.4108	3064.7565	3071.4024	3130.9372	3135.2572	3148.7049	3155.3058	3209.2116	3223.8897
CN(CC1CC1)C=O	CN(CC1CC1)C=O	
InChI=1S/C6H11NO/c1-7(5-8)4-6-2-3-6/h5-6H,2-4H2,1H3	InChI=1S/C6H11NO/c1-7(5-8)4-6-2-3-6/h5-6H,2-4H2,1H3
