14
gdb 42627	2.79213	1.98903	1.4422	5.2364	65.25	-0.2402	-0.0822	0.158	876.1612	0.102012	-436.670961	-436.664472	-436.663528	-436.701958	25.352	
O	-0.0176400164	-0.0263727793	 0.021592098	-0.288625
C	-0.0558160222	 1.1699026908	-0.0168793889	 0.347025
C	-1.2320907272	 2.1191391535	-0.0227884986	-0.189126
C	-1.1297876034	 3.0185607221	 1.2720652756	-0.263337
C	-0.3589443296	 4.054721077	 0.4443132218	-0.041597
C	-0.6859039939	 3.3426373011	-0.8150290669	-0.063445
N	 0.7195394079	 3.4319002928	-0.3764913303	-0.143733
C	 1.1764029402	 2.1333862307	 0.0072173216	 0.294142
O	 2.2946830226	 1.8500697703	 0.3173755108	-0.274927
H	-2.1973563402	 1.6798234896	-0.2568881196	 0.111696
H	-2.1174227403	 3.3967002613	 1.5433459324	 0.134899
H	-0.6488769891	 2.5934110543	 2.1577839234	 0.131497
H	-0.2460249126	 5.1110687315	 0.6524924129	 0.123047
H	-0.9530187357	 3.6875718343	-1.8053657222	 0.122485
101.3194	193.7422	315.4541	360.4786	464.2647	502.0919	621.3258	641.9244	691.1575	735.767	807.6542	847.2381	876.7726	890.048	924.3561	928.2321	972.2683	1005.8694	1035.3962	1051.3354	1118.8567	1159.5834	1200.4022	1220.1807	1235.2882	1264.1823	1276.471	1346.3444	1489.2228	1867.0207	1873.9967	3062.2661	3124.6162	3166.428	3196.7529	3209.9643
O=C1C2CC3C2N3C1=O	O=C1[C@H]2C[C@@H]3[C@H]2N3C1=O	
InChI=1S/C6H5NO2/c8-5-2-1-3-4(2)7(3)6(5)9/h2-4H,1H2	InChI=1S/C6H5NO2/c8-5-2-1-3-4(2)7(3)6(5)9/h2-4H,1H2/t2-,3+,4-,7?/m0/s1
