19
gdb 106539	2.12924	1.6366	1.13687	2.8236	76.31	-0.2486	-0.0066	0.242	1153.5944	0.156799	-422.982756	-422.973599	-422.972655	-423.016734	33.821	
C	 0.06928276	 1.5154046551	 0.0361597266	-0.388584
C	 0.0242899985	-0.0162502343	-0.0424744309	-0.331985
C	 0.6088358131	-0.5398806737	-1.3153886247	 0.277549
O	 2.0281197048	-0.1792871959	-1.665702289	-0.33835
C	 1.6283439272	-1.058770317	-2.7946830538	-0.089334
C	 0.9196594363	-2.0006735339	-1.7823382431	-0.033908
C	 1.7937126717	-2.8571363388	-0.8809047494	-0.435135
C	 0.3487196057	-0.1887873327	-2.8077108281	 0.449631
O	-0.3364630161	 0.4800147572	-3.5106660846	-0.324258
H	 1.1001234113	 1.8739436094	-0.025958936	 0.139593
H	-0.4931398067	 1.9632620022	-0.7880631877	 0.142074
H	-0.3614971277	 1.8670892391	 0.977493457	 0.115149
H	 0.5568408125	-0.4620521371	 0.8066051298	 0.116707
H	-1.0118499337	-0.3729093151	 0.0156183818	 0.118007
H	 2.3792382208	-1.2763481719	-3.5512112235	 0.11021
H	 0.0595303553	-2.5508367002	-2.1808345752	 0.086507
H	 2.6466409235	-2.2851026031	-0.5108992386	 0.141359
H	 1.2206442882	-3.2240154495	-0.0230279815	 0.122096
H	 2.1684722352	-3.73014476	-1.424502379	 0.122673
67.7044	133.4804	146.495	191.5486	222.6614	224.6839	271.7084	316.0746	410.6873	516.6534	553.8549	650.7622	694.0317	759.6719	774.1417	805.153	818.2397	872.4534	909.7641	975.9712	1002.9683	1035.3099	1063.8313	1092.7866	1109.5576	1140.2115	1174.5636	1202.0653	1220.0793	1287.166	1316.6873	1371.6076	1400.5332	1408.858	1416.7504	1470.4534	1495.0903	1497.0592	1503.1217	1508.8689	1925.2685	3027.8354	3040.303	3048.1955	3050.177	3062.809	3100.3598	3121.4309	3126.5489	3137.8493	3152.599
CCC12OC(C1C)C2=O	CC[C@@]12O[C@@H]([C@H]1C)C2=O	
InChI=1S/C7H10O2/c1-3-7-4(2)5(9-7)6(7)8/h4-5H,3H2,1-2H3	InChI=1S/C7H10O2/c1-3-7-4(2)5(9-7)6(7)8/h4-5H,3H2,1-2H3/t4-,5+,7-/m1/s1
