20
gdb 77995	2.9501	1.26134	1.04395	1.7617	88.03	-0.2246	0.0229	0.2475	1227.6428	0.169197	-365.937599	-365.928326	-365.927381	-365.970961	35.787	
C	-0.0826118958	 1.4867971222	-0.159737475	-0.430718
C	 0.0477484704	-0.0165331995	-0.0420189773	-0.008185
N	 1.2011797148	-0.867574854	-0.3924018724	-0.209251
C	 2.5027739902	-0.2425343411	 0.0607335043	 0.103572
C	 3.0854377338	 0.8890502319	-0.7704768458	-0.419194
C	 1.998606369	-0.0446036361	 1.5133928422	-0.352232
C	 0.7039772222	-0.7457605656	 1.0747302373	 0.140183
C	 0.0875638144	-1.8097494094	 1.7951642664	 0.205405
C	-0.4279745261	-2.6873378771	 2.4378187139	-0.395157
H	 0.671684505	 2.0390059723	 0.4021427379	 0.125899
H	-0.0284352414	 1.8013187018	-1.2072268175	 0.130992
H	-1.0636878726	 1.7856782658	 0.2245203451	 0.126606
H	-0.8476675585	-0.5280914908	-0.3915892877	 0.105945
H	 3.2193535541	-1.0695456097	 0.0492177565	 0.094461
H	 2.4853822311	 1.7998871031	-0.7485433729	 0.119163
H	 4.0879377192	 1.1388236517	-0.4058647215	 0.118638
H	 3.1802288452	 0.57121441	-1.8142664799	 0.129821
H	 2.5647232133	-0.6122022788	 2.2522344017	 0.120742
H	 1.8769703275	 0.9799102553	 1.8770467186	 0.105064
H	-0.8846739259	-3.4677982419	 2.9943930061	 0.188244
116.038	141.904	165.0467	202.903	230.2144	261.1755	299.7117	348.8562	414.2132	484.2229	517.3995	568.4569	586.8922	625.6612	652.684	674.711	748.7824	831.6405	835.5542	882.6013	935.3995	974.8631	1028.7838	1094.6768	1113.9905	1115.5506	1135.6975	1154.0649	1200.8702	1231.3352	1263.4334	1313.4832	1329.7249	1392.4564	1406.2362	1410.3004	1444.9372	1485.3148	1491.0768	1496.5359	1505.8552	1506.8118	2229.4472	3038.9941	3040.7132	3050.7842	3059.0684	3097.2244	3099.2419	3118.8413	3129.8317	3136.553	3146.3011	3501.9849
CC1N2C(C)CC12C#C	C[C@H]1N2[C@@H](C)C[C@@]12C#C	
InChI=1S/C8H11N/c1-4-8-5-6(2)9(8)7(8)3/h1,6-7H,5H2,2-3H3	InChI=1S/C8H11N/c1-4-8-5-6(2)9(8)7(8)3/h1,6-7H,5H2,2-3H3/t6-,7+,8-,9?/m0/s1
