16
gdb 31754	4.95292	0.9852	0.83037	1.6577	68.73	-0.1986	0.03	0.2285	1352.635	0.123447	-475.03387	-475.024968	-475.024024	-475.068329	30.789	
C	-0.0588636611	 1.3986451414	 0.0089967633	-0.23519
O	-0.0216760432	-0.0271291471	 0.0044368288	-0.271923
C	-1.2064300187	-0.6531187545	 0.011933221	 0.367371
C	-1.4107445706	-1.9938098767	 0.0092448491	-0.198056
O	-2.7958879185	-2.1760841722	 0.0198315517	-0.197238
C	-3.2898034544	-0.9302205939	 0.0278377315	 0.513138
O	-4.6036875126	-0.7613137549	 0.0389763194	-0.252097
C	-5.4130905086	-1.9407288888	 0.0416451573	-0.245001
N	-2.4146221336	 0.0261915236	 0.0238605283	-0.451515
H	 0.9840307239	 1.7188138144	 0.0014323742	 0.127869
H	-0.5763677745	 1.7849571499	-0.8743765446	 0.135218
H	-0.5618356343	 1.779646801	 0.903009411	 0.135216
H	-0.7984458472	-2.8744273946	 0.0014685781	 0.142158
H	-5.2312571854	-2.5425216676	-0.8536076398	 0.141943
H	-5.2168345864	-2.5483871645	 0.9298615428	 0.141945
H	-6.4432053549	-1.5857965455	 0.0511417979	 0.146162
58.5714	78.4204	150.3274	166.8085	181.0792	248.7971	265.4253	369.5856	472.7223	541.5077	582.5666	663.5301	690.4944	748.7139	752.3899	973.3411	992.108	1077.0954	1099.551	1104.7932	1179.0198	1179.1525	1200.7274	1207.4554	1253.0811	1356.411	1394.3875	1475.7304	1481.6388	1487.0159	1490.7933	1500.2871	1502.4889	1659.4369	1671.2947	3037.2767	3042.3283	3106.3126	3113.8547	3144.1611	3160.7881	3325.3157
COC1=COC(OC)=N1	COc1coc(OC)n1	
InChI=1S/C5H7NO3/c1-7-4-3-9-5(6-4)8-2/h3H,1-2H3	InChI=1S/C5H7NO3/c1-7-4-3-9-5(6-4)8-2/h3H,1-2H3
