20
gdb 87252	3.50389	1.01779	0.91286	4.5476	76.86	-0.2341	0.0123	0.2464	1344.3936	0.1699	-440.30212	-440.292448	-440.291504	-440.336857	35.762	
C	 0.0778884042	 1.4713895624	 0.1326005508	-0.402991
C	 0.3297549313	-0.0154477583	 0.0216690513	-0.047509
C	 1.6474482808	-0.6147327662	 0.4802088189	-0.346877
C	 0.3741547884	-0.8780273303	 1.2567674397	 0.433452
O	 0.1763374746	-0.2048604544	 2.4582369054	-0.481949
C	-0.2443801446	-2.2663489177	 1.2041761555	-0.25803
N	 0.5741933069	-3.3353776348	 1.7973130419	-0.262012
C	 1.0676107967	-3.3393686358	 3.0521699613	 0.169594
O	 0.985186355	-2.4285817879	 3.8613256276	-0.340479
H	 0.4722942629	 1.8588427065	 1.0738901468	 0.139016
H	 0.5527291012	 2.0097768039	-0.6948793368	 0.108854
H	-0.9945079387	 1.6929761967	 0.1068177023	 0.1144
H	-0.1090073063	-0.4817298407	-0.8582632161	 0.073457
H	 2.095391095	-1.4142427265	-0.1020272738	 0.093927
H	 2.3562440665	 0.0559179848	 0.9534309484	 0.11746
H	 0.4940169827	-0.8015177651	 3.1610672202	 0.299877
H	-1.2158657679	-2.2249424136	 1.7114546779	 0.133393
H	-0.4172809432	-2.5628177953	 0.1669288303	 0.110949
H	 0.7100964444	-4.1742707178	 1.2566421708	 0.2546
H	 1.5839686802	-4.2866005899	 3.2950117977	 0.090869
51.263	102.8243	140.3856	179.406	214.8153	261.6318	273.0522	346.0541	353.6594	412.0563	452.627	518.4834	598.1619	651.1266	714.2289	767.699	845.2176	879.1674	909.972	941.1569	953.6016	988.722	1028.6678	1034.6167	1042.4838	1109.4681	1137.8259	1190.6452	1223.4394	1248.3109	1275.4056	1345.2764	1369.6961	1384.777	1415.8663	1432.6757	1444.9451	1471.076	1491.5331	1496.1954	1514.566	1539.1922	1780.4095	2965.0965	3034.2959	3036.3748	3090.775	3103.5058	3115.2799	3124.2149	3137.6913	3215.5086	3584.253	3638.3105
CC1CC1(O)CNC=O	C[C@H]1C[C@]1(O)CNC=O	
InChI=1S/C6H11NO2/c1-5-2-6(5,9)3-7-4-8/h4-5,9H,2-3H2,1H3,(H,7,8)	InChI=1S/C6H11NO2/c1-5-2-6(5,9)3-7-4-8/h4-5,9H,2-3H2,1H3,(H,7,8)/t5-,6-/m0/s1
