18
gdb 127012	3.30902	1.06213	0.81306	2.7497	75.75	-0.1846	0.0401	0.2247	1396.5704	0.148255	-435.2749	-435.265486	-435.264542	-435.309493	33.932	
C	 0.0264546799	 1.5512060971	-0.0594590318	-0.392243
C	 0.0131741935	 0.034283288	-0.0171828693	-0.047027
O	 0.7021350748	-0.4498619744	-1.1608949216	-0.282059
C	 0.7766353783	-1.80211438	-1.2715630635	 0.231904
C	 0.2974189121	-2.8185895513	-0.4701328549	-0.154332
N	 0.6568068398	-3.97452587	-1.0912929618	-0.20945
N	 1.3368648921	-3.7717599281	-2.2456257601	-0.301818
C	 1.4166295041	-2.4519645424	-2.3592675739	 0.277642
N	 2.1065263441	-1.8245315671	-3.3953317598	-0.59507
H	 1.0534011958	 1.9267056431	-0.0554083016	 0.132959
H	-0.4702983382	 1.9157543407	-0.9629527209	 0.128884
H	-0.4958576649	 1.9575916217	 0.8115773596	 0.11876
H	 0.5061598229	-0.3388264291	 0.8935113665	 0.100273
H	-1.0178648627	-0.3519695379	-0.0171735658	 0.097911
H	-0.2496932658	-2.8101523904	 0.4573239882	 0.126426
H	 0.491213878	-4.9148969552	-0.7841534431	 0.269476
H	 2.1920398739	-2.4208903488	-4.2080745416	 0.248583
H	 1.7011718822	-0.9312119461	-3.6413341643	 0.249182
64.0808	91.874	128.2435	209.3348	233.5077	243.4482	276.6249	297.4465	349.564	400.0429	529.8268	629.3064	650.8691	691.0575	730.4289	767.8491	807.494	828.6792	922.4841	940.3631	1062.595	1076.4983	1110.6463	1142.0108	1188.2952	1234.226	1251.1439	1295.0499	1331.8554	1401.1518	1425.5688	1453.9599	1483.649	1487.8731	1501.0346	1527.0895	1577.7054	1630.6139	1654.2172	2978.0114	3009.4223	3047.1243	3121.9141	3124.987	3274.3067	3543.0233	3642.7674	3707.0159
CCOC1=CNN=C1N	CCOc1c[nH]nc1N	
InChI=1S/C5H9N3O/c1-2-9-4-3-7-8-5(4)6/h3H,2H2,1H3,(H3,6,7,8)	InChI=1S/C5H9N3O/c1-2-9-4-3-7-8-5(4)6/h3H,2H2,1H3,(H3,6,7,8)
