15
gdb 36563	2.66397	0.91179	0.71163	3.9969	78.3	-0.2657	-0.0059	0.2598	1502.1232	0.109743	-379.585972	-379.576321	-379.575377	-379.621248	34.029	
C	 0.0702364616	-1.134473766	 0.1624695242	-0.46014
C	-0.0235177753	 0.0601551824	 0.070364982	 0.339043
C	-0.068481464	 1.5339354627	-0.0127494047	-0.328228
N	 1.253797934	 2.1795912359	 0.0731357631	-0.283698
C	 1.9760004406	 1.8385355469	 1.2979926181	-0.270356
C	 3.2778201005	 2.5074036825	 1.3285591881	 0.261164
N	 4.3158238583	 3.0130861894	 1.3493572483	-0.294831
C	-0.7434573163	 1.9670294554	-1.2392243147	 0.309978
C	-1.2902648113	 2.3168992836	-2.2483412373	-0.39315
H	 0.1344291696	-2.1928558554	 0.2322587771	 0.211121
H	-0.6486294849	 1.902460401	 0.8467004444	 0.147497
H	 1.8037668693	 1.9167440344	-0.7393052581	 0.244888
H	 1.3884270823	 2.1848067742	 2.1577166486	 0.15817
H	 2.1378933111	 0.7571278844	 1.4382904266	 0.151105
H	-1.7764449456	 2.6293427486	-3.1397622656	 0.207439
55.5512	96.5211	105.6647	127.5767	206.2703	211.5203	321.9784	336.052	391.1987	463.9351	523.9332	559.6478	631.8528	645.8182	653.7128	670.792	673.1328	766.1454	889.7772	954.6656	991.5671	1043.1507	1098.8918	1122.7954	1240.6787	1304.573	1312.7463	1388.6505	1491.6177	1492.9591	2229.0646	2251.6452	2370.2968	2977.4074	2996.0935	3049.1402	3498.7124	3502.5729	3523.3694
C#CC(NCC#N)C#C	C#CC(NCC#N)C#C	
InChI=1S/C7H6N2/c1-3-7(4-2)9-6-5-8/h1-2,7,9H,6H2	InChI=1S/C7H6N2/c1-3-7(4-2)9-6-5-8/h1-2,7,9H,6H2
