20
gdb 17794	4.66177	1.33786	1.29648	1.585	74.71	-0.2414	0.0866	0.328	1046.1667	0.178382	-348.976191	-348.968442	-348.967498	-349.008882	28.898	
C	-0.0850537453	 1.4400508399	-0.1355470988	-0.211177
C	 1.466403947	 1.4630247553	-0.1140847139	-0.232369
C	 1.436734913	 0.1131252506	 0.6614117509	 0.026062
C	-0.0331728405	-0.0777000003	 0.1876123687	-0.228747
C	 2.4718835298	-0.9282713479	 0.3029734428	 0.130898
C	 2.2209826368	-2.4037864168	 0.6963761422	-0.295896
C	 2.4007784263	-2.6834422213	-0.8071913615	-0.057914
O	 2.4628220137	-1.2736849058	-1.1080263385	-0.292534
H	-0.510962655	 2.0167265877	 0.690895825	 0.097638
H	-0.5819983382	 1.7416876435	-1.060470928	 0.096381
H	 1.8845145356	 1.3199235359	-1.114201145	 0.120752
H	 1.9623417641	 2.3130323374	 0.3609449438	 0.090718
H	 1.4799482193	 0.2859488012	 1.7439074287	 0.066816
H	-0.7570156129	-0.4719771489	 0.9051049687	 0.088136
H	-0.0646655733	-0.6798693912	-0.724323477	 0.112661
H	 3.4711782926	-0.5697274974	 0.5945478073	 0.067842
H	 2.9465342803	-2.8595926983	 1.3713862434	 0.106771
H	 1.2116836889	-2.5913893227	 1.0686909222	 0.11193
H	 3.3353223147	-3.1957263307	-1.0716653587	 0.09883
H	 1.5687602031	-3.1766554901	-1.3226790923	 0.103203
82.1241	89.2062	123.3294	192.4496	256.4159	389.116	553.894	619.1451	713.2579	773.5264	787.4537	834.4829	885.5964	910.5401	935.2546	941.1383	951.6701	974.1271	999.5287	1009.5503	1035.7548	1119.2768	1132.1379	1146.5112	1170.2664	1204.2378	1216.3204	1245.0318	1249.2937	1258.3041	1261.2326	1270.7791	1285.2002	1290.5251	1348.7474	1383.8641	1384.4336	1472.2031	1484.3903	1487.0215	1507.4268	1530.6764	2979.3415	3010.5889	3033.0494	3053.6656	3055.3692	3056.741	3062.3541	3076.8586	3098.4723	3112.5172	3123.0143	3133.0322
C1CC(C1)C1CCO1	C1CC(C1)[C@H]1CCO1	
InChI=1S/C7H12O/c1-2-6(3-1)7-4-5-8-7/h6-7H,1-5H2	InChI=1S/C7H12O/c1-2-6(3-1)7-4-5-8-7/h6-7H,1-5H2/t7-/m1/s1
