17
gdb 107106	5.08917	0.85656	0.82726	2.4399	69.63	-0.2451	-0.029	0.216	1379.3312	0.133919	-458.923254	-458.914481	-458.913537	-458.95755	31.586	
O	 0.0222269465	 1.4079626977	-0.3172874271	-0.410167
C	 0.0768341449	 0.0404537771	 0.0538196994	-0.182692
C	-1.2892906535	-0.5309027441	 0.260291161	 0.404884
C	-2.3072062058	-0.2655823691	 1.3805960813	-0.320735
C	-2.9085549803	-1.7035736082	 1.1207698447	-0.102849
C	-4.3535995606	-1.7813815194	 0.701556676	 0.15623
O	-5.1969821812	-2.4147704652	 1.2855147396	-0.254024
C	-1.8655122882	-1.8593570546	-0.0119127395	-0.079898
O	-2.0676655801	-0.7804559746	-0.9297567894	-0.288376
H	-0.4696150146	 1.4574013018	-1.1446865422	 0.295509
H	 0.6080178518	-0.5683974806	-0.6929354929	 0.103284
H	 0.6455276262	 0.0013959055	 0.9886218544	 0.11897
H	-1.8654062316	-0.1890332024	 2.3757530694	 0.125005
H	-2.9696068727	 0.5852059139	 1.2073497523	 0.124202
H	-2.7337051075	-2.3815170409	 1.9580992621	 0.101608
H	-4.5956636837	-1.1934557843	-0.2096868722	 0.093561
H	-1.4266961896	-2.7708489726	-0.4020199271	 0.115489
65.0702	71.9857	106.0889	181.5055	257.6238	326.1426	345.5919	398.1229	414.0268	470.6221	583.4999	709.1262	740.0906	834.5439	878.5663	890.1807	939.1123	948.7105	985.3934	1019.2091	1070.1383	1080.0503	1104.1019	1161.0114	1177.657	1208.8199	1233.4912	1242.8711	1279.489	1305.5879	1370.238	1414.4594	1422.4592	1458.0032	1482.4869	1487.627	1823.7526	2908.5338	2997.8841	3076.2603	3080.9396	3104.9763	3136.917	3185.4115	3805.3001
OCC12CC(C=O)C1O2	OC[C@]12C[C@@H](C=O)[C@H]1O2	
InChI=1S/C6H8O3/c7-2-4-1-6(3-8)5(4)9-6/h2,4-5,8H,1,3H2	InChI=1S/C6H8O3/c7-2-4-1-6(3-8)5(4)9-6/h2,4-5,8H,1,3H2/t4-,5+,6+/m0/s1
