21
gdb 111593	4.1497	1.20967	1.17414	1.4801	81.78	-0.2382	0.0837	0.3218	1163.4928	0.184338	-387.053117	-387.045516	-387.044571	-387.085396	30.681	
C	-0.0064505308	 1.5999382352	-0.0990336834	-0.378724
C	 0.0497335114	 0.0849854723	 0.1282215774	-0.21301
C	-1.3195209086	-0.5748881287	 0.0641003397	 0.04019
C	-2.0250991518	-0.797341832	-1.3040790433	 0.055919
O	-1.0392243494	-1.5270131393	-2.0520292646	-0.268472
C	-1.034544502	-2.7091454633	-1.2336901471	 0.077569
C	-2.4626744223	-3.2558534666	-1.4501910586	-0.244231
C	-2.8417624891	-1.996102637	-0.6590813719	-0.065008
C	-1.5031429724	-2.0994115708	 0.1592541606	-0.102907
H	 0.9891964236	 2.0494327031	-0.0340697298	 0.11112
H	-0.4118211787	 1.8368545484	-1.0885956408	 0.119034
H	-0.6427406098	 2.0915717981	 0.6458803038	 0.109292
H	 0.7007881317	-0.3771981584	-0.6207243193	 0.110565
H	 0.4988021814	-0.1233995039	 1.1083334493	 0.089011
H	-2.0217340823	-0.0990924109	 0.7607071635	 0.067312
H	-2.4652727508	-0.0044018884	-1.9067482526	 0.074339
H	-0.1247722469	-3.2874921033	-1.384187761	 0.077692
H	-2.7932818303	-3.377781064	-2.4846962611	 0.100142
H	-2.6625311407	-4.1580955329	-0.86547118	 0.099028
H	-3.8157093381	-1.7953356557	-0.2173012888	 0.072386
H	-1.3806934541	-2.6930189019	 1.0637917179	 0.068754
66.6664	147.2059	192.4619	271.7473	331.6106	462.1903	481.7036	590.0985	678.9865	715.4845	766.3885	782.684	823.2226	838.1609	864.7512	911.9385	926.3858	935.6031	947.3476	981.0116	994.3511	1032.8898	1037.3603	1056.1281	1072.7989	1085.3921	1117.6697	1141.4952	1159.6655	1179.8401	1197.8298	1219.5132	1243.7137	1254.408	1276.4825	1280.4451	1298.5975	1343.3226	1344.9428	1406.1142	1413.4429	1481.6444	1483.3692	1500.5468	1504.8311	3022.228	3028.2975	3031.5641	3057.1963	3073.8206	3098.6406	3102.4826	3119.3031	3127.3409	3130.4147	3137.4952	3143.9724
CCC1C2OC3CC2C13	CC[C@H]1[C@H]2O[C@@H]3C[C@H]2[C@H]13	
InChI=1S/C8H12O/c1-2-4-7-5-3-6(7)9-8(4)5/h4-8H,2-3H2,1H3	InChI=1S/C8H12O/c1-2-4-7-5-3-6(7)9-8(4)5/h4-8H,2-3H2,1H3/t4-,5+,6-,7+,8-/m1/s1
