17
gdb 36056	2.34153	1.38693	1.06685	2.1092	79.6	-0.2516	0.0215	0.2731	1179.1039	0.132558	-384.596731	-384.587422	-384.586478	-384.631292	34.137	
C	-0.0682920802	-1.1826655885	 0.2868912108	-0.439225
C	-0.0006253442	 0.0074298855	 0.140218545	 0.323314
C	 0.0775073887	 1.4504802034	-0.0339574805	-0.407492
C	 1.5205301363	 1.9886213028	-0.1370719256	 0.213036
C	 1.6438160764	 3.5365729489	-0.003994639	-0.335594
C	 2.436502458	 3.2243869637	 1.2778269504	-0.065356
O	 2.2366629748	 1.8036505814	 1.1131777364	-0.297104
C	 2.2345943773	 1.4143599317	-1.2721788653	 0.348138
C	 2.8223734971	 0.9716200346	-2.2222064883	-0.469255
H	-0.1219445751	-2.2348851872	 0.4175679367	 0.196717
H	-0.4649407163	 1.7530056496	-0.9389316601	 0.137252
H	-0.4011034343	 1.9543728335	 0.8140861003	 0.130989
H	 2.198911603	 4.0226731412	-0.8048877766	 0.126717
H	 0.6896983042	 4.04558121	 0.1446160886	 0.115693
H	 3.4992000659	 3.4905634586	 1.2465210616	 0.112611
H	 2.0044316647	 3.5891893865	 2.2162902887	 0.10835
H	 3.3424020438	 0.5634397744	-3.0535975231	 0.20121
58.038	76.0128	113.4732	181.9399	188.2867	306.258	340.8405	368.5455	446.8761	520.7501	542.2425	619.4613	629.3919	644.1397	667.2382	707.0375	779.5592	851.852	873.9724	936.7073	981.4738	986.9879	1020.8484	1035.9355	1131.4758	1157.194	1188.8916	1218.6192	1258.6628	1284.9257	1333.7725	1353.5557	1453.3658	1486.0304	1531.0741	2234.4769	2244.7163	3024.0058	3027.7864	3064.911	3068.8521	3085.6233	3152.0652	3500.5813	3507.6969
C#CCC1(CCO1)C#C	C#CC[C@]1(CCO1)C#C	
InChI=1S/C8H8O/c1-3-5-8(4-2)6-7-9-8/h1-2H,5-7H2	InChI=1S/C8H8O/c1-3-5-8(4-2)6-7-9-8/h1-2H,5-7H2/t8-/m0/s1
