15
gdb 53030	4.24764	1.00393	0.89649	1.2422	76.55	-0.243	0.0075	0.2504	1305.4907	0.109739	-420.479321	-420.471307	-420.470363	-420.513998	29.072	
C	 0.0258752737	 1.4271185986	 0.0589289416	-0.518063
C	 0.0483101612	-0.0255953082	 0.0324730816	 0.357289
C	 0.0712623701	-1.2303436437	 0.015117495	-0.410064
C	 0.075552026	-2.6511869982	-0.0294608257	 0.428356
O	 0.9393367373	-3.437595144	 0.8578222175	-0.349113
C	 0.2593295639	-4.4712348094	 0.1021798641	 0.012512
C	-1.0979014831	-3.709852521	 0.0151195649	-0.004707
O	-1.2060235026	-3.8259286095	-1.4268483571	-0.321634
C	 0.2226945034	-3.6667292331	-1.2322808453	-0.004707
H	 0.723150277	 1.8125766789	 0.810626932	 0.160549
H	 0.31471507	 1.8459404273	-0.91107009	 0.157139
H	-0.9727839694	 1.8039379429	 0.3047431732	 0.157138
H	 0.485762365	-5.5157587963	 0.3057894045	 0.108439
H	-1.9987009957	-3.7467893528	 0.6265431424	 0.113433
H	 0.8848284833	-3.6526292815	-2.0971638586	 0.113433
14.1045	86.8637	108.2735	279.9557	299.2303	413.6131	472.6255	484.5871	541.9382	607.9854	757.0814	773.9527	812.9759	815.7461	869.7195	884.8782	896.9826	1001.1747	1031.5319	1038.488	1051.393	1054.2542	1120.6325	1129.7817	1158.8134	1161.1351	1247.2439	1301.4768	1388.6717	1414.3293	1472.3403	1474.8889	2364.1654	3030.1844	3093.7232	3095.0866	3132.0602	3132.2896	3155.5001	14.1038	86.8638	108.2737	279.9555	299.23	413.613	472.6254	484.587	541.9382	607.9854	757.0814	773.9527	812.9759	815.7462	869.7194	884.8782	896.9827	1001.1747	1031.5319	1038.488	1051.3929	1054.2542	1120.6325	1129.7817	1158.8134	1161.1351	1247.2439	1301.4767	1388.6717	1414.3293	1472.3403	1474.8889	2364.1653	3030.1844	3093.7232	3095.0866	3132.0602	3132.2896	3155.5001
CC#CC12OC3C1OC23	CC#C[C@@]12O[C@H]3[C@@H]1O[C@@H]23	
InChI=1S/C7H6O2/c1-2-3-7-5-4(9-7)6(7)8-5/h4-6H,1H3	InChI=1S/C7H6O2/c1-2-3-7-5-4(9-7)6(7)8-5/h4-6H,1H3/t4-,5-,6+,7+
