23
gdb 41897	2.02144	1.91509	1.6702	1.3756	83.16	-0.2371	0.0669	0.304	1014.9025	0.211015	-388.312992	-388.305399	-388.304455	-388.344804	31.481	
C	-0.0106473439	 1.4945717669	 0.1162409561	-0.208025
C	 1.3933057796	 2.0867153971	-0.1724218378	-0.204912
C	 2.4906296607	 1.015014911	-0.2791527116	 0.128722
C	 2.4009432635	 0.0078113782	 0.8791848302	-0.233618
C	 0.9837632207	-0.6136458252	 1.053616327	-0.217646
C	-0.0327206359	-0.0437565241	 0.0439612814	 0.015981
C	 0.2142703248	-0.5699802025	-1.3908639168	-0.218114
C	 1.6915912452	-0.7415402275	-1.7546717045	-0.063962
O	 2.4859274893	 0.414428638	-1.5793433129	-0.271916
H	-0.3387214766	 1.7929589821	 1.1190563266	 0.089255
H	-0.7504332891	 1.9057458402	-0.5787038364	 0.093513
H	 1.3983255631	 2.6523435763	-1.1084844595	 0.104114
H	 1.6742245273	 2.7905599696	 0.6197057895	 0.090412
H	 3.464865604	 1.5147482142	-0.2289327665	 0.071603
H	 3.1588372453	-0.7693556004	 0.7396625914	 0.106514
H	 2.6850907368	 0.5477036687	 1.7889948011	 0.097985
H	 1.0320673163	-1.7037958421	 0.9570183304	 0.094199
H	 0.6162946606	-0.4146596774	 2.0661837027	 0.092975
H	-1.0342615661	-0.3724957788	 0.3455201226	 0.060736
H	-0.2614945637	-1.5525628958	-1.5068449302	 0.090994
H	-0.2686276913	 0.0994141917	-2.1129807839	 0.095915
H	 2.1107241241	-1.587508382	-1.1871054581	 0.084563
H	 1.7872553852	-0.9991608384	-2.8146755708	 0.100712
77.9863	236.2449	282.2725	291.5811	347.7979	378.4641	412.8076	477.6737	540.9557	664.3859	738.3343	778.2437	779.4691	805.1248	843.5055	869.0916	915.3755	930.661	950.9747	961.8247	1022.7933	1026.6151	1070.9547	1098.0639	1102.6036	1119.1546	1160.5418	1165.6111	1214.9682	1245.0755	1267.5473	1276.8089	1293.4114	1304.6648	1332.5907	1348.2079	1352.4884	1366.8139	1374.4399	1387.0256	1394.4506	1401.6834	1424.1339	1475.5606	1478.1109	1484.8846	1496.2611	1507.1517	1519.7249	2975.8876	3013.2472	3021.1235	3026.6709	3028.29	3039.6508	3041.5075	3052.9429	3058.7032	3061.1108	3062.3064	3070.3799	3086.7531	3091.2828
C1CC2CCC1CCO2	C1C[C@H]2CC[C@@H]1CCO2	
InChI=1S/C8H14O/c1-3-8-4-2-7(1)5-6-9-8/h7-8H,1-6H2	InChI=1S/C8H14O/c1-3-8-4-2-7(1)5-6-9-8/h7-8H,1-6H2/t7-,8+
