19
gdb 107364	3.35846	1.19335	1.00828	2.4071	75.49	-0.2415	-0.0193	0.2222	1213.505	0.158253	-423.035529	-423.027	-423.026056	-423.068834	32.44	
C	-0.4468908864	 1.3261232812	-0.1539877764	-0.256066
O	 0.0132970069	 0.004189958	 0.0651582693	-0.287347
C	 0.7815597811	-0.5032209728	-0.9758399542	 0.440925
C	 0.0895502354	-1.027600243	-2.2107824446	-0.352995
C	 0.7391235091	-1.9909671856	-1.2318556652	-0.111439
C	 2.1329344388	-2.4826479525	-1.5608331299	-0.335946
C	 2.9795713308	-1.2088144069	-1.7260360613	 0.382726
O	 4.0656957155	-1.1529073828	-2.2378393629	-0.302186
C	 2.211619657	-0.0161111468	-1.1329184109	-0.399046
H	 0.3827385209	 2.0439856084	-0.2208792839	 0.111999
H	-1.0447559895	 1.3980661019	-1.0734882278	 0.110467
H	-1.0722593541	 1.5905216147	 0.701509517	 0.12908
H	-0.994079661	-0.9964638974	-2.202084874	 0.122022
H	 0.5395744839	-0.8773620296	-3.1887956284	 0.115328
H	 0.0817734587	-2.6051795239	-0.6286818789	 0.102204
H	 2.5575713337	-3.0664560899	-0.7338359714	 0.134191
H	 2.2071843986	-3.1007649467	-2.4608190684	 0.131314
H	 2.3496895124	 0.8685718764	-1.760715524	 0.127739
H	 2.6326269983	 0.2084116374	-0.143897774	 0.137029
80.6765	103.8647	170.2378	188.7671	291.0725	351.2519	381.4586	419.1516	473.3657	484.1419	591.406	622.5093	705.9121	783.6454	819.8244	843.418	908.1447	929.3059	960.4321	1015.1548	1037.5709	1049.4373	1085.961	1113.8741	1142.0925	1161.7333	1183.0473	1198.876	1210.3734	1238.711	1275.7295	1289.2492	1317.7276	1387.7973	1449.3277	1454.4564	1474.2053	1488.1499	1492.452	1508.4414	1850.1176	2992.6476	3032.8001	3036.3582	3045.4517	3086.7632	3094.0313	3117.8681	3122.1604	3188.6244	3215.4656
COC12CC1CC(=O)C2	CO[C@]12C[C@H]1CC(=O)C2	
InChI=1S/C7H10O2/c1-9-7-3-5(7)2-6(8)4-7/h5H,2-4H2,1H3	InChI=1S/C7H10O2/c1-9-7-3-5(7)2-6(8)4-7/h5H,2-4H2,1H3/t5-,7+/m1/s1
