18
gdb 10735	2.48265	1.90197	1.5447	1.7947	72.91	-0.2569	0.0529	0.3098	942.9924	0.150583	-347.750596	-347.741627	-347.740682	-347.783579	33.364	
C	-0.0757020457	 1.457186015	-0.1850065228	-0.405504
C	 0.011352736	-0.0685130905	 0.0564654219	 0.018375
C	 0.7383092514	-0.359743199	 1.3900893472	-0.409491
C	-1.3414043111	-0.6303355203	 0.102212584	 0.353303
C	-2.4551949304	-1.0766892643	 0.1761222019	-0.496913
C	 0.8308949725	-0.6844538273	-1.0818204707	 0.110167
C	 0.5397625534	-1.9760917499	-1.7110756258	-0.200387
O	 0.2361939923	-0.7407731794	-2.3715591466	-0.243113
H	 0.9286356282	 1.8938444529	-0.2028959211	 0.1114
H	-0.56208784	 1.6626154962	-1.1412046737	 0.143778
H	-0.648773976	 1.9409678754	 0.6102478252	 0.123062
H	 0.2004539327	 0.0963471062	 2.2250850329	 0.128647
H	 0.8063811777	-1.4355050975	 1.5727047973	 0.126795
H	 1.7520136114	 0.0541133392	 1.36734442	 0.11468
H	-3.4410671656	-1.4679685137	 0.2286840145	 0.196359
H	 1.867117438	-0.3371931286	-1.0845232975	 0.088642
H	 1.3505822085	-2.5533690395	-2.1532405456	 0.112102
H	-0.3264951531	-2.5449414949	-1.3821040912	 0.128099
83.4083	146.111	181.5699	212.0793	239.0502	254.5401	311.5275	317.0766	411.2797	457.9558	562.7885	606.6888	625.0501	644.8499	669.5829	835.7973	879.3899	940.2407	945.9275	954.8952	1016.3212	1038.9761	1098.5181	1161.107	1164.0567	1177.9134	1209.835	1264.269	1313.3274	1392.9899	1405.3353	1429.4933	1481.7926	1485.6484	1497.806	1508.4155	1521.3494	2232.9457	3036.8133	3040.4024	3077.5943	3092.6737	3110.0027	3113.7337	3125.1384	3133.702	3186.9403	3501.2075
CC(C)(C#C)C1CO1	CC(C)(C#C)[C@H]1CO1	
InChI=1S/C7H10O/c1-4-7(2,3)6-5-8-6/h1,6H,5H2,2-3H3	InChI=1S/C7H10O/c1-4-7(2,3)6-5-8-6/h1,6H,5H2,2-3H3/t6-/m1/s1
