23
gdb 89106	5.24974	0.51838	0.49774	2.9325	88.32	-0.2466	-0.0183	0.2283	2221.9802	0.203579	-388.294658	-388.284005	-388.283061	-388.332017	37.672	
C	 0.1566218441	 1.5571067359	-0.3146399809	-0.404353
C	-0.0199488698	 0.0851374927	-0.0087462623	-0.005036
C	 1.1590376161	-0.8590087071	 0.0069811265	-0.291798
C	 0.4213636313	-0.5505018274	 1.2913526647	 0.008804
C	 1.0904303947	 0.2195316546	 2.4115492994	-0.208998
C	 1.912452856	-0.690675785	 3.3349581157	-0.181905
C	 2.5844864851	 0.0748900575	 4.4883015197	-0.274773
C	 3.4669250546	-0.8255737616	 5.3203004525	 0.159388
O	 3.3578454199	-1.0030477379	 6.5061445158	-0.238001
H	 1.109506004	 1.9439123217	 0.0577256443	 0.114627
H	 0.1372086146	 1.7307087382	-1.3962328427	 0.117552
H	-0.643154314	 2.1590445245	 0.1315984937	 0.116552
H	-0.936825303	-0.3314609236	-0.4190087049	 0.082602
H	 1.0586129435	-1.8419955985	-0.4402830964	 0.108347
H	 2.144739233	-0.417807511	-0.114859113	 0.104057
H	-0.2316729948	-1.3432828763	 1.6510812684	 0.080007
H	 1.7473223225	 0.9952337409	 2.0004448198	 0.094326
H	 0.3317240771	 0.7458078287	 3.0069198951	 0.099717
H	 1.2633727209	-1.4718893905	 3.7506029274	 0.109873
H	 2.6764695619	-1.210136965	 2.742070211	 0.105937
H	 3.2223934268	 0.8668902881	 4.0682389117	 0.115101
H	 1.8470815088	 0.5459559181	 5.1451871657	 0.120297
H	 4.2606536466	-1.3501716972	 4.7357493489	 0.067676
44.3684	49.3357	89.8156	101.5759	122.4964	186.4354	220.7383	265.0299	334.1303	360.5585	427.134	511.1486	528.9924	740.0364	764.3684	805.2373	828.27	867.5339	885.5158	923.9892	948.2399	999.1208	1018.6161	1049.6439	1057.3894	1083.2118	1109.6961	1119.2916	1151.8816	1164.9742	1199.228	1214.08	1246.4876	1253.6203	1291.0891	1329.0962	1332.2791	1379.9647	1397.376	1419.2136	1430.2372	1432.5973	1464.4159	1480.2236	1493.6213	1494.7392	1504.7039	1507.6244	1836.1771	2843.9661	3006.8358	3011.6983	3023.2361	3029.7383	3046.126	3067.0398	3086.786	3096.2229	3103.4664	3119.491	3120.5496	3135.3188	3204.9254
CC1CC1CCCC=O	C[C@H]1C[C@H]1CCCC=O	
InChI=1S/C8H14O/c1-7-6-8(7)4-2-3-5-9/h5,7-8H,2-4,6H2,1H3	InChI=1S/C8H14O/c1-7-6-8(7)4-2-3-5-9/h5,7-8H,2-4,6H2,1H3/t7-,8+/m0/s1
