18
gdb 37677	3.03513	2.40791	2.02847	1.7167	75.47	-0.2152	0.0863	0.3016	778.9516	0.152957	-364.777761	-364.772459	-364.771515	-364.806992	24.296	
C	-0.0074421783	 1.5759497653	 0.0920812453	-0.24892
C	 1.4612414297	 1.9312791928	-0.0351326805	-0.033987
C	 2.4581180341	 1.0993906739	 0.6930492828	-0.054375
C	 2.0294044055	-0.1358214151	 1.4524362745	-0.0579
C	 0.6085675985	-0.6412240291	 1.2655723708	-0.086367
C	 1.7477805544	-1.2373706816	 0.4596228483	-0.075826
C	 1.3402697756	-0.346660621	-0.7431856291	-0.046341
C	 0.024840323	 0.0525756132	 0.0316653489	-0.045467
N	 2.2152160676	 0.8617254818	-0.754333875	-0.123822
H	-0.4546419434	 1.9511426499	 1.0195755632	 0.103646
H	-0.565695792	 2.0049677871	-0.7478347038	 0.10227
H	 1.7242821203	 2.9499422641	-0.3099859865	 0.082701
H	 3.4244560227	 1.5271281001	 0.9482499584	 0.084438
H	 2.5200435191	-0.3771257188	 2.3873590408	 0.086013
H	 0.0469756628	-1.0756158058	 2.0848927893	 0.081159
H	 2.1805955552	-2.2285516219	 0.4626886878	 0.088359
H	 1.2514969634	-0.7874082423	-1.7340586562	 0.074025
H	-0.8840411081	-0.4221573124	-0.3402945791	 0.070394
308.9086	429.2264	526.2514	631.5866	642.3889	715.2065	719.9252	750.8988	766.9684	800.4576	808.413	860.9334	863.4173	905.5298	916.7497	919.1434	974.563	987.2067	1019.0324	1031.2342	1051.5351	1058.546	1063.0084	1077.6906	1096.6164	1110.0972	1157.2334	1198.9309	1219.917	1226.3337	1260.5451	1272.104	1285.3035	1298.8391	1350.9494	1362.8256	1390.6368	1415.7387	1484.9165	3034.1619	3074.7598	3100.493	3128.6387	3133.4705	3140.0441	3169.3517	3191.944	3207.5681
C1C2C3C4C5C4C(C15)N23	C1[C@H]2[C@H]3[C@H]4[C@@H]5[C@H]4[C@@H]([C@H]15)N23	
InChI=1S/C8H9N/c1-2-4-5-6(4)8-3(1)9(8)7(2)5/h2-8H,1H2	InChI=1S/C8H9N/c1-2-4-5-6(4)8-3(1)9(8)7(2)5/h2-8H,1H2/t2-,3+,4+,5-,6+,7-,8+,9?/m1/s1
