20
gdb 89117	5.1288	0.5722	0.55351	2.5923	79.43	-0.261	0.0235	0.2844	2012.2485	0.168701	-440.262662	-440.252371	-440.251426	-440.300218	35.147	
C	 0.3593809685	 1.5458738517	-0.2041009755	-0.41988
C	 0.1725496062	 0.0722928372	 0.0487828254	 0.07815
O	 1.3452726853	-0.7148084821	 0.290085971	-0.265567
C	 0.3756171169	-0.6021133222	 1.3427065095	 0.054764
C	 0.8209801238	 0.0759506168	 2.6154516622	-0.242693
C	 1.8421370111	-0.7776994306	 3.3592556694	-0.065744
O	 2.1819163525	-0.1022514495	 4.5702159249	-0.183478
C	 3.3369745302	-0.4595208289	 5.161662783	 0.126147
N	 3.6422885862	 0.0135752741	 6.2913601802	-0.438694
H	 1.0798911859	 1.9918547146	 0.4838088384	 0.131695
H	 0.7245378977	 1.7059999724	-1.2238439928	 0.132829
H	-0.5952235893	 2.0736727881	-0.104426927	 0.125774
H	-0.5331921485	-0.408939181	-0.6323608922	 0.09003
H	-0.1900567021	-1.5236996195	 1.5040675413	 0.089676
H	 1.2663819293	 1.0523265691	 2.4106720735	 0.118793
H	-0.0479756794	 0.2409329822	 3.2631946871	 0.120379
H	 1.4262755532	-1.7673959659	 3.5943819194	 0.10895
H	 2.7327626631	-0.9218543471	 2.7348584681	 0.125618
H	 3.9387067039	-1.1580143915	 4.5626356051	 0.084785
H	 4.5524883958	-0.3397155278	 6.5790361888	 0.228465
27.5126	66.0622	67.2048	90.3248	138.1982	168.8368	240.6934	251.5905	370.2774	403.6852	479.1082	536.1142	641.3274	757.6457	806.1508	822.5787	835.0842	927.4518	992.2936	998.2022	1037.3748	1045.7228	1062.8217	1114.8179	1133.1133	1142.3001	1175.6691	1185.9255	1233.2705	1289.7961	1303.9412	1315.129	1320.2857	1397.1398	1409.0136	1421.4948	1433.2308	1469.5107	1480.459	1491.9336	1513.8838	1518.3101	1748.217	3001.0756	3018.2626	3041.2021	3047.0071	3057.2636	3066.955	3083.7446	3102.1444	3112.9456	3138.8748	3517.8579
CC1OC1CCOC=N	C[C@H]1O[C@H]1CCO[CH][NH]	
InChI=1S/C6H11NO2/c1-5-6(9-5)2-3-8-4-7/h4-7H,2-3H2,1H3	InChI=1S/C6H11NO2/c1-5-6(9-5)2-3-8-4-7/h4-7H,2-3H2,1H3/t5-,6+/m1/s1
