18
gdb 72364	2.46321	1.71183	1.44587	2.6462	77.1	-0.2548	-0.0032	0.2515	995.5978	0.14872	-401.967254	-401.959494	-401.95855	-401.999328	30.306	
C	-0.0912760425	 1.4538383357	 0.0208184976	-0.474359
C	-0.008934845	-0.0651874703	-0.0197053565	 0.170053
C	-1.3739967574	-0.7909421997	-0.114631945	-0.331691
C	-1.2495869446	-1.9269938644	 0.8728311702	-0.053023
C	-0.0906976479	-1.9310522626	 1.5345626857	-0.093718
C	 0.7924092393	-0.8100682737	 1.0865428786	 0.051602
O	 1.7957746048	-1.2262546367	 0.0758297004	-0.282017
C	 1.0759818527	-0.6223847984	-0.9302749072	 0.40537
N	 1.2874272173	-0.5620538539	-2.1656342753	-0.553935
H	 0.896416527	 1.904801402	 0.156418324	 0.125916
H	-0.5045263193	 1.8345882369	-0.9181504366	 0.141323
H	-0.7379076725	 1.7856794501	 0.8401438937	 0.118011
H	-2.1993124033	-0.1177976798	 0.1525463044	 0.111223
H	-1.5796000733	-1.1441619782	-1.1312848761	 0.136204
H	-2.0428217493	-2.6545317254	 1.0110168072	 0.10697
H	 0.2077756866	-2.6525757857	 2.285591779	 0.10632
H	 1.2890669518	-0.2354041613	 1.8714197851	 0.090584
H	 2.1393731257	-1.0636063346	-2.4231990295	 0.225168
97.4707	185.6152	217.0161	243.7159	284.2746	306.7969	435.7671	520.0156	601.2396	667.7078	698.8092	723.1997	793.4116	810.9407	866.1504	887.6018	921.7076	938.6072	960.1322	979.7865	989.8555	1011.6762	1026.5616	1117.2693	1129.6548	1165.9439	1204.9919	1222.6014	1247.6275	1291.9511	1333.906	1357.837	1374.1465	1411.386	1478.9939	1490.4757	1495.4034	1674.3815	1815.9095	3021.7562	3033.9311	3067.0966	3090.3066	3104.5684	3112.0239	3183.8934	3213.9451	3472.3239
CC12CC=CC1OC2=N	C[C@]12CC=C[C@H]1O[C]2[NH]	
InChI=1S/C7H9NO/c1-7-4-2-3-5(7)9-6(7)8/h2-3,5,8H,4H2,1H3	InChI=1S/C7H9NO/c1-7-4-2-3-5(7)9-6(7)8/h2-3,5,8H,4H2,1H3/t5-,7+/m1/s1
