16
gdb 48933	4.2691	1.49623	1.32173	1.3384	71.37	-0.2353	-0.0321	0.2032	945.3797	0.125274	-400.696195	-400.689492	-400.688548	-400.727627	26.339	
O	-0.2714060161	 0.5055754892	-0.8006201772	-0.267888
C	 0.1461431039	 1.1016907265	 0.1655375926	 0.040968
C	 1.3595359608	 1.9431143159	 0.1694298587	 0.21623
C	 1.8950788561	 2.6962197941	 1.3745336709	-0.248371
N	 3.088242896	 3.3480961182	 0.8244137755	-0.121655
C	 3.6758865073	 2.4885057061	-0.2174306172	-0.071761
C	 2.8552701736	 3.6734017872	-0.5931742582	-0.071771
C	 1.7210086494	 2.7334085532	-1.0919071039	-0.109901
C	 2.5448749296	 1.5437907651	-0.7146363785	-0.109933
H	-0.3852127923	 1.0442352044	 1.1420303696	 0.075732
H	 1.2005023832	 3.4545361245	 1.7503289144	 0.115826
H	 2.1823919938	 2.0368032773	 2.1999567927	 0.11583
H	 4.7418614177	 2.3053517632	-0.2329984266	 0.103385
H	 3.1178962624	 4.6501949017	-0.9765715832	 0.103385
H	 1.0312423467	 2.867332065	-1.9118619666	 0.11496
H	 2.619152558	 0.5745025385	-1.1847446927	 0.114964
68.5972	187.9756	199.6555	408.1713	447.1662	538.6173	675.6379	726.9555	757.5908	761.6038	790.4236	801.5305	846.7935	880.6504	908.1253	921.8786	951.4933	1006.6358	1010.7799	1026.1594	1042.0379	1067.015	1092.982	1150.1477	1184.2245	1192.4825	1217.6789	1240.6565	1256.3032	1288.9678	1319.5888	1383.8569	1440.7692	1498.4459	1798.3804	2877.1341	3047.9182	3094.9043	3199.104	3211.2641	3229.3118	3239.2572
O=CC12CN3C4C3C1C24	O=C[C@]12CN3[C@@H]4[C@H]3[C@H]1[C@H]24	
InChI=1S/C7H7NO/c9-2-7-1-8-5-3(7)4(7)6(5)8/h2-6H,1H2	InChI=1S/C7H7NO/c9-2-7-1-8-5-3(7)4(7)6(5)8/h2-6H,1H2/t3-,4+,5-,6+,7-,8?
