18
gdb 119800	3.6105	1.11928	1.05034	1.2388	72.44	-0.2445	0.0051	0.2496	1213.4895	0.147816	-439.065274	-439.056953	-439.056009	-439.099276	30.45	
C	-0.5572580143	 0.4560018804	-0.0723398936	-0.240968
O	 0.1343116019	 0.2291434737	-1.2866274243	-0.231171
C	 1.3139437806	-0.536658593	-1.1299404335	-0.16652
C	 1.023230193	-2.0011908633	-0.9638444092	 0.380769
N	 0.9199204102	-2.6356160858	 0.140328634	-0.300697
C	 0.5361979902	-3.9843746113	-0.19830285	-0.022051
C	-0.7920267617	-4.1371248689	-0.9153473327	-0.319807
C	 0.4668070915	-4.0114457157	-1.7186268175	 0.058366
O	 0.8254598778	-2.7003666651	-2.1207275758	-0.236251
H	-0.8615125921	-0.4797758129	 0.4138307854	 0.126185
H	 0.0607537321	 1.0266120821	 0.637735672	 0.108099
H	-1.4457519885	 1.0405358074	-0.3217315384	 0.127566
H	 1.9003213699	-0.3884654011	-2.040821088	 0.126081
H	 1.8969979163	-0.2032222295	-0.2612123227	 0.116364
H	 0.9168601958	-4.7784519331	 0.4319841822	 0.104511
H	-1.244292658	-5.1225210359	-0.894615097	 0.123704
H	-1.4875542886	-3.3046276386	-0.8950028398	 0.130931
H	 0.8286673039	-4.7777118693	-2.3912205812	 0.11489
37.6553	94.2006	127.6771	203.5179	277.0737	349.5846	375.9082	427.3466	489.6063	649.7968	746.7873	758.5566	793.446	808.1203	914.975	932.7139	941.6446	973.9581	1002.8464	1036.449	1062.3818	1080.9903	1120.5488	1130.8287	1139.1826	1184.9286	1187.0572	1214.0619	1254.5355	1312.4553	1338.4489	1371.3321	1405.6549	1461.5779	1470.8226	1482.9462	1485.5922	1513.6478	1692.1341	2987.5019	3021.9812	3051.5733	3102.0304	3121.7897	3131.9515	3186.4075	3202.9471	3226.6617
COCC1=NC2CC2O1	COCC1=N[C@H]2C[C@H]2O1	
InChI=1S/C6H9NO2/c1-8-3-6-7-4-2-5(4)9-6/h4-5H,2-3H2,1H3	InChI=1S/C6H9NO2/c1-8-3-6-7-4-2-5(4)9-6/h4-5H,2-3H2,1H3/t4-,5+/m0/s1
