17
gdb 106983	2.92785	1.33526	1.04813	1.9605	68.9	-0.2435	-0.0337	0.2097	1159.7261	0.133642	-458.933884	-458.924918	-458.923973	-458.967911	32.421	
C	 0.0831520963	 1.6543096157	 0.0800653083	-0.413648
C	 0.0200193067	 0.1421609486	-0.0871390263	-0.134259
C	 0.7252673021	-0.4995918426	-1.2995555611	-0.064574
O	 2.108190433	-0.166982869	-1.1885189773	-0.278836
C	 1.6398971962	-1.3251122955	-0.4640847857	 0.286296
C	 2.3290955903	-2.6490849789	-0.6111938861	-0.208679
O	 1.6079444706	-3.6610424709	 0.0672032873	-0.413137
C	 0.9493777876	-0.7723433312	 0.7765026334	 0.367246
O	 0.9678943183	-1.0877552526	 1.9326433298	-0.319902
H	 1.0950262171	 2.018099987	-0.1137793594	 0.140473
H	-0.6049624818	 2.1563205735	-0.6074221516	 0.122833
H	-0.1949875398	 1.9351562263	 1.1001662036	 0.13608
H	-1.0043386871	-0.2333645892	 0.0304541329	 0.110205
H	 0.3326183492	-0.7313226972	-2.2823750522	 0.123885
H	 2.3811163944	-2.9356549036	-1.6659205397	 0.129795
H	 3.363184552	-2.5608329542	-0.2438659175	 0.113578
H	 1.5913258748	-3.4269405763	 1.0029543116	 0.302645
65.847	112.4	133.1416	196.6162	209.7154	254.8154	261.2619	417.1641	457.7352	483.5122	540.7358	622.406	670.8555	768.1641	804.0683	860.3657	889.6154	920.4705	974.7033	1028.3208	1059.6125	1067.0738	1082.3611	1138.9984	1159.0431	1211.4276	1256.2525	1267.5658	1338.3525	1376.1922	1401.2426	1410.4976	1456.715	1493.5081	1499.0621	1503.2319	1875.5022	2990.5434	3041.6266	3044.6973	3085.5871	3109.0056	3129.5431	3198.595	3794.0964
CC1C2OC2(CO)C1=O	C[C@H]1[C@H]2O[C@@]2(CO)C1=O	
InChI=1S/C6H8O3/c1-3-4(8)6(2-7)5(3)9-6/h3,5,7H,2H2,1H3	InChI=1S/C6H8O3/c1-3-4(8)6(2-7)5(3)9-6/h3,5,7H,2H2,1H3/t3-,5-,6+/m1/s1
