19
gdb 117390	5.07425	0.61697	0.59383	2.2269	72.78	-0.2501	-0.0162	0.2339	1872.4831	0.156062	-460.148718	-460.138543	-460.137598	-460.186123	34.875	
O	-0.3074883714	 1.4210599355	-0.3523074383	-0.424254
C	-0.0296001576	 0.05118794	-0.102254961	-0.075046
C	-1.3657676196	-0.6739535212	-0.0512762557	-0.288399
C	-1.2390468194	-2.1605718583	 0.2128917778	 0.380785
O	-0.1664459602	-2.7188755805	 0.2718630665	-0.307474
C	-2.5472862213	-2.9223552517	 0.4359034147	-0.342829
C	-2.4467863732	-4.3794555932	 0.0566837417	 0.112861
C	-3.6361969368	-5.1763363363	-0.2605967452	-0.186477
O	-2.7775844076	-4.6992045351	-1.297780301	-0.233877
H	 0.5303905549	 1.8888595431	-0.4121525626	 0.288299
H	 0.5970915584	-0.390290457	-0.8892584855	 0.107478
H	 0.5036161027	-0.0894169559	 0.8493139445	 0.099637
H	-2.0140007578	-0.2245513395	 0.7130310153	 0.128824
H	-1.9027530912	-0.5374109116	-1.0001664746	 0.140264
H	-2.7792626921	-2.8305771935	 1.5076080294	 0.135089
H	-3.3707515493	-2.4459282409	-0.1055955439	 0.121584
H	-1.5588457956	-4.8861049774	 0.4298039392	 0.115583
H	-3.6255644673	-6.2533691768	-0.0992521736	 0.117497
H	-4.6219403558	-4.7133101599	-0.2202309378	 0.110454
23.4099	57.6938	82.3565	94.1857	125.4634	213.8297	272.2847	302.6847	367.5872	387.619	435.8599	474.1853	688.1196	743.0924	807.8747	855.2776	870.1071	918.4982	964.8971	999.0447	1053.717	1054.6783	1093.1137	1106.4486	1136.805	1158.3758	1168.045	1201.0794	1240.8379	1253.8983	1296.2964	1303.5148	1313.5506	1361.5482	1434.0759	1444.2635	1451.356	1470.5433	1522.4903	1531.1396	1803.6104	2995.4411	3012.3846	3025.1341	3025.9089	3059.5759	3079.3367	3084.7166	3139.2935	3165.9554	3832.1371
OCCC(=O)CC1CO1	OCCC(=O)C[C@H]1CO1	
InChI=1S/C6H10O3/c7-2-1-5(8)3-6-4-9-6/h6-7H,1-4H2	InChI=1S/C6H10O3/c7-2-1-5(8)3-6-4-9-6/h6-7H,1-4H2/t6-/m0/s1
