20
gdb 65266	2.82659	1.47862	1.25238	1.3299	73.99	-0.2356	0.0764	0.312	1089.6932	0.171692	-440.259313	-440.25059	-440.249645	-440.293172	32.368	
C	 0.0013833834	 1.5106383945	-0.1635627375	-0.475456
C	-0.1432447313	 0.0117404952	-0.0169521279	 0.28675
C	 1.0233167972	-0.874275902	-0.2502045115	-0.277247
N	 0.5038006056	-0.6709056057	 1.1191172702	-0.351327
C	-1.5439140524	-0.5078624747	-0.3398054281	 0.166397
O	-1.6310475209	-1.9109098151	-0.2639918407	-0.267075
C	-2.2241276513	-2.2625215168	 0.9860646566	-0.084021
C	-2.6142088055	-0.9139987548	 1.6233634422	-0.104178
O	-2.5114426835	 0.0150195953	 0.5472222628	-0.259652
H	 1.0235668522	 1.8311506953	 0.0618575374	 0.109814
H	-0.2312425618	 1.8317053399	-1.1854411634	 0.124039
H	-0.6865848208	 2.0296074999	 0.5110061499	 0.138176
H	 0.8675323871	-1.8735126099	-0.6420256372	 0.130865
H	 1.967256915	-0.4071405043	-0.5194894366	 0.106132
H	 1.0956999526	-0.0098474381	 1.6170271976	 0.226309
H	-1.8253886774	-0.1937236296	-1.3541114174	 0.086901
H	-3.0934780084	-2.8993435776	 0.7870951495	 0.102558
H	-1.5055605452	-2.8094305003	 1.6030531677	 0.11825
H	-3.6436820637	-0.8902422542	 1.9902723245	 0.109383
H	-1.9306548611	-0.6495308472	 2.436927932	 0.11338
56.8611	88.2142	156.9066	203.8623	224.9597	278.0007	328.077	363.6605	470.9683	524.8026	712.3933	731.131	802.4276	858.3681	867.1176	903.8593	945.1951	954.7775	967.5301	973.7998	1000.3491	1013.7922	1066.9373	1071.7195	1119.4752	1152.0325	1154.0721	1169.0928	1229.6623	1245.2973	1270.3967	1304.6001	1327.7049	1378.5218	1379.7217	1392.9139	1405.8052	1414.2109	1480.6909	1497.334	1508.4385	1511.9578	1526.1003	3018.9889	3029.4058	3035.0944	3043.2348	3082.4322	3093.2218	3103.2139	3108.5101	3114.3659	3210.5986	3491.285
CC1(CN1)C1OCCO1	C[C@]1(CN1)C1OCCO1	
InChI=1S/C6H11NO2/c1-6(4-7-6)5-8-2-3-9-5/h5,7H,2-4H2,1H3	InChI=1S/C6H11NO2/c1-6(4-7-6)5-8-2-3-9-5/h5,7H,2-4H2,1H3/t6-/m0/s1
