13
gdb 50071	2.89888	0.99042	0.96333	1.7149	61.33	-0.2686	-0.1234	0.1452	1242.2743	0.085084	-493.686036	-493.677352	-493.676408	-493.720927	29.103	
O	-0.0861497132	-0.2735156945	 0.1505231651	-0.236243
C	 0.5760086556	 0.4424544326	-0.5561160101	 0.130162
C	 1.1001068291	 1.7638573016	-0.0707986974	-0.048864
O	 2.2392933003	 2.2791772314	-0.7427836164	-0.21579
C	 1.0340401351	 3.0049167983	-0.9056490045	-0.048776
C	 0.422624907	 3.0053460988	-2.2780470136	 0.284722
O	 0.6274266683	 2.171105	-3.1270934315	-0.275887
C	-0.5258014461	 4.1692907842	-2.5928262839	 0.088437
O	-0.778336945	 5.0449469602	-1.8083281512	-0.210587
H	 0.859594782	 0.1836865631	-1.5928870428	 0.12964
H	 1.0725546474	 1.8982935512	 1.0101301476	 0.13485
H	 0.9689250356	 3.949942916	-0.371580789	 0.14359
H	-0.9514755261	 4.1119328671	-3.6153197125	 0.124749
36.9689	80.4675	125.8206	180.6475	191.8627	255.5705	336.9475	339.6755	493.8739	523.5022	607.9279	637.4908	798.9681	872.6206	905.9587	989.6461	1031.8817	1047.998	1111.0401	1151.5689	1168.9418	1251.649	1334.1031	1362.5945	1401.0595	1449.9104	1805.3249	1820.6497	1822.5648	2943.8941	2978.7912	3131.7157	3156.0686
O=CC1OC1C(=O)C=O	O=C[C@H]1O[C@H]1C(=O)C=O	
InChI=1S/C5H4O4/c6-1-3(8)5-4(2-7)9-5/h1-2,4-5H	InChI=1S/C5H4O4/c6-1-3(8)5-4(2-7)9-5/h1-2,4-5H/t4-,5+/m1/s1
