13
gdb 28546	3.17845	1.45908	1.00002	1.3993	66.04	-0.2112	-0.0361	0.1752	1070.8619	0.090679	-489.953469	-489.946293	-489.945348	-489.984911	28.058	
O	 0.0578327721	 1.3101683564	-0.037894489	-0.421351
C	 0.0701624312	-0.0407684577	-0.0365236103	 0.391087
C	 0.0238455209	-0.7439609573	-1.2319753981	-0.118408
N	 0.0363792397	-2.0847957374	-1.2243446739	-0.318055
C	 0.092937307	-2.7117507632	-0.0709545129	 0.341213
O	 0.106983773	-4.0626114071	-0.0308168718	-0.414663
C	 0.1397527458	-1.9867622667	 1.1404993955	 0.343874
O	 0.197201446	-2.6524874603	 2.3067793374	-0.40146
N	 0.127871582	-0.6676064125	 1.143098317	-0.428326
H	 0.0959488303	 1.5899536274	 0.8857332963	 0.299648
H	-0.0228889069	-0.2341906545	-2.1866850305	 0.124388
H	 0.0690372713	-4.3568629091	-0.951144119	 0.300266
H	 0.2219393577	-1.9845652481	 3.0058797991	 0.301786
130.2661	246.1055	302.4377	346.1147	396.4253	443.026	460.7624	488.1212	507.8914	543.5202	552.6861	608.2027	689.3037	738.0575	795.27	817.9768	883.04	1030.8818	1130.2346	1188.4988	1212.1211	1300.2008	1325.3412	1370.841	1422.0958	1502.6262	1538.0261	1616.0277	1678.0455	3202.9202	3771.0743	3774.8527	3790.49
OC1=CN=C(O)C(O)=N1	Oc1cnc(O)c(O)n1	
InChI=1S/C4H4N2O3/c7-2-1-5-3(8)4(9)6-2/h1H,(H,5,8)(H2,6,7,9)	InChI=1S/C4H4N2O3/c7-2-1-5-3(8)4(9)6-2/h1H,(H,5,8)(H2,6,7,9)
