21
gdb 104464	3.12245	1.16944	1.05074	3.085	74.2	-0.2377	0.0583	0.2959	1219.4556	0.183236	-461.367526	-461.358554	-461.35761	-461.400658	35.08	
O	-0.0682374683	 1.4454262451	 0.0891508157	-0.437188
C	 0.0171740216	 0.0258363117	-0.0255747994	-0.136108
C	-1.4183638279	-0.5048134448	-0.0112589208	 0.375163
O	-2.0547778171	-0.0356125598	 1.1782951378	-0.484489
C	-2.2047445681	-0.0379162531	-1.2568820047	-0.229508
C	-3.5913821772	-0.6807867578	-1.2801070426	-0.080414
O	-3.5064971485	-2.0975509921	-1.2549473868	-0.253319
C	-2.8759154304	-2.562378714	-0.0734914002	-0.08177
C	-1.4411460627	-2.0374962692	 0.0484432641	-0.231705
H	 0.7980874039	 1.7899881423	 0.3208739717	 0.295946
H	 0.5285547009	-0.2676449279	-0.9539457308	 0.091546
H	 0.5638020441	-0.4033447882	 0.8262187283	 0.093481
H	-1.8113872895	 0.8965971166	 1.2484805034	 0.283913
H	-2.2860016277	 1.0538831073	-1.2541957212	 0.101417
H	-1.6585931097	-0.3271660737	-2.1631574705	 0.093941
H	-4.1775202263	-0.3198475081	-0.4209507259	 0.098258
H	-4.1287162457	-0.422626715	-2.1971951584	 0.09939
H	-3.4534170319	-2.2577143986	 0.8126395898	 0.105847
H	-2.8849297054	-3.6548173891	-0.129416156	 0.100116
H	-0.838313435	-2.4410820682	-0.7735891666	 0.097134
H	-1.000537439	-2.3730333035	 0.9937254731	 0.09835
118.2862	143.7768	198.727	230.7237	237.3286	313.2827	347.2596	368.6658	419.6708	443.4661	459.7275	508.2643	550.4151	644.2102	740.1824	808.6953	862.5835	911.3539	946.5168	991.4615	1011.8312	1018.7093	1040.5144	1056.6385	1101.5538	1124.8949	1157.0054	1192.484	1206.6605	1243.3272	1251.4009	1269.7534	1315.9856	1326.8582	1347.8384	1368.8675	1386.2064	1417.6237	1429.0024	1448.5435	1459.2658	1477.6493	1490.9982	1507.0076	1507.8902	2987.2128	2991.3665	2994.8425	3028.4488	3031.8827	3036.5801	3081.0978	3085.0128	3086.3789	3088.9104	3768.958	3847.6039
OCC1(O)CCOCC1	OCC1(O)CCOCC1	
InChI=1S/C6H12O3/c7-5-6(8)1-3-9-4-2-6/h7-8H,1-5H2	InChI=1S/C6H12O3/c7-5-6(8)1-3-9-4-2-6/h7-8H,1-5H2
