21
gdb 106985	2.91381	1.24874	1.00474	2.9341	83.66	-0.2315	-0.0066	0.225	1278.3435	0.181289	-387.096018	-387.086506	-387.085562	-387.130422	35.336	
C	 0.1111336706	 1.5301896799	 0.2174810208	-0.378181
C	 0.0551090715	 0.0309392202	-0.1104139228	-0.301412
C	-1.3530910629	-0.5009386623	-0.1049047156	 0.253368
C	-2.0784593496	-0.9451875115	 1.1632543729	-0.325882
C	-1.9487170812	-1.9287446689	 0.0522963145	-0.145907
C	-3.0118979157	-1.6595655926	-1.0310555474	-0.097041
C	-4.497033648	-1.8414560664	-0.742203828	-0.415012
C	-2.392563853	-0.2378073422	-1.1568377081	 0.344906
O	-2.5620508731	 0.6577819435	-1.9392794796	-0.328757
H	 1.1398456742	 1.9010717485	 0.1792152726	 0.110252
H	-0.4866199812	 2.0987988627	-0.5000781319	 0.146303
H	-0.2840435869	 1.7291693269	 1.2190609953	 0.114494
H	 0.5011704447	-0.1415589186	-1.097788072	 0.107601
H	 0.6595770729	-0.5362811482	 0.6084386873	 0.097405
H	-1.4120130995	-1.0867145945	 2.0091929268	 0.122071
H	-3.0432152604	-0.5266981981	 1.4344049698	 0.120872
H	-1.3841001852	-2.8473787968	 0.1513963803	 0.099849
H	-2.7485891701	-2.1849794211	-1.9584697831	 0.102274
H	-4.7922708209	-1.3679563512	 0.1987739881	 0.118479
H	-5.0927873853	-1.3916946059	-1.5425626529	 0.135247
H	-4.7604432309	-2.9024600836	-0.680581187	 0.11907
66.8731	94.5677	169.1866	184.934	189.4173	224.3149	255.109	319.3762	362.7173	471.742	510.3309	623.4512	644.804	739.9294	777.6885	801.1853	846.8962	857.8338	925.8969	959.4221	973.7209	997.7668	1017.7339	1057.5229	1079.0555	1092.2681	1108.3404	1127.1254	1147.6424	1209.3136	1241.3267	1280.7157	1326.6648	1347.3926	1350.7999	1388.5153	1407.9428	1411.9245	1482.014	1491.0615	1496.0826	1496.5532	1504.9697	1511.5316	1865.1023	3020.9861	3030.0886	3037.1957	3038.3382	3055.3818	3103.7485	3106.1104	3111.303	3118.7763	3122.792	3191.9747	3201.005
CCC12CC1C(C)C2=O	CC[C@]12C[C@H]1[C@@H](C)C2=O	
InChI=1S/C8H12O/c1-3-8-4-6(8)5(2)7(8)9/h5-6H,3-4H2,1-2H3	InChI=1S/C8H12O/c1-3-8-4-6(8)5(2)7(8)9/h5-6H,3-4H2,1-2H3/t5-,6+,8+/m1/s1
