15
gdb 132088	3.01868	1.41066	0.96719	3.7078	74.77	-0.2034	-0.0564	0.147	1133.3447	0.113187	-458.132629	-458.124686	-458.123742	-458.16543	29.464	
C	-0.0421849844	 1.5151832991	 0.0564401608	-0.506616
C	 0.0107411415	 0.0232973248	-0.0295972681	 0.261119
C	 0.170068315	-0.6808317367	-1.1833803439	 0.139383
F	 0.2951059589	-0.0623401336	-2.3685364928	-0.083564
C	 0.2035543583	-2.0994290975	-1.1231272637	-0.058407
N	 0.0913163579	-2.7886839749	-0.0275188297	-0.309706
C	-0.0738784285	-2.1126050335	 1.1821330111	 0.415244
N	-0.1974222875	-2.6477034906	 2.3355283047	-0.573921
N	-0.1061610934	-0.7050343441	 1.1134621442	-0.375374
H	 0.0645836919	 1.9534507169	-0.9353440867	 0.163156
H	-0.994461398	 1.8448670517	 0.4863991174	 0.153493
H	 0.7612023511	 1.8947545652	 0.6974322472	 0.153516
H	 0.331887949	-2.6470178402	-2.0575079277	 0.129677
H	-0.1556427859	-3.6592334236	 2.2303762799	 0.223289
H	-0.2265688557	-0.239280813	 2.0016593673	 0.268711
87.641	107.153	178.8422	270.2105	321.8467	344.9169	444.5747	458.7858	530.5102	560.1584	582.4699	648.7013	760.7708	762.9365	791.1518	832.075	896.4307	986.9704	1018.4043	1062.1678	1091.3588	1182.7305	1267.8274	1305.6258	1328.0908	1407.3616	1437.8533	1463.9725	1484.8534	1494.787	1596.9477	1696.9984	1725.0061	3038.5865	3093.0633	3128.1894	3160.5769	3522.0833	3610.7985
CC1=C(F)C=NC(=N)N1	C[C@H]1C(=CN=C([NH])N1)F	
InChI=1S/C5H6FN3/c1-3-4(6)2-8-5(7)9-3/h2H,1H3,(H2,7,8,9)	InChI=1S/C5H7FN3/c1-3-4(6)2-8-5(7)9-3/h2-3,7H,1H3,(H,8,9)/t3-/m0/s1
