18
gdb 44676	3.28776	1.44885	1.11316	2.9755	78.24	-0.2573	-0.0012	0.2561	1092.1454	0.15048	-401.965415	-401.958092	-401.957148	-401.997398	28.814	
N	 0.0595703464	 1.1778118507	 0.3027793526	-0.550462
C	 0.009568606	-0.0348232191	-0.0138963389	 0.431283
O	 0.989308313	-0.876375913	-0.4970384064	-0.277109
C	 0.0234697725	-1.9917896708	-0.6049482201	 0.092132
C	 0.3941070186	-3.2161615865	 0.1555786804	-0.088809
C	-0.4203784454	-3.7274608008	 1.0798834688	-0.04349
C	-1.6986467882	-3.0485241626	 1.5068203691	-0.265231
C	-1.5692645802	-1.5194572047	 1.4010239247	-0.219776
C	-1.0773811085	-1.0921292275	 0.008129634	-0.164898
H	 0.9972082454	 1.5587598154	 0.1631566822	 0.225582
H	-0.1179535598	-2.213001211	-1.6687440763	 0.099559
H	 1.3215885521	-3.7112240098	-0.1184142009	 0.101562
H	-0.1618022609	-4.6653812262	 1.5647165139	 0.098734
H	-2.5398148243	-3.4071657921	 0.8960006362	 0.115893
H	-1.9409792623	-3.3273146494	 2.537788254	 0.111163
H	-2.5190893928	-1.0286857842	 1.6295097766	 0.111787
H	-0.8509218161	-1.1828749711	 2.154908584	 0.121006
H	-1.9095791454	-0.8862158674	-0.668038484	 0.101075
79.1778	156.0382	221.492	294.3579	378.2067	459.5718	484.1198	524.9278	646.3362	701.091	739.9604	782.5565	804.2827	868.7963	876.0716	911.3598	933.8367	976.7278	993.0018	1005.6987	1030.0688	1062.023	1070.9819	1121.2284	1159.1503	1192.2664	1230.6164	1244.7128	1257.1895	1318.7207	1338.5276	1350.5558	1361.1023	1383.3398	1418.3789	1480.5241	1496.8327	1711.2611	1820.1795	3007.0535	3042.4074	3053.5075	3068.8843	3086.4403	3104.967	3154.4106	3177.5709	3472.7035
N=C1OC2C=CCCC12	[NH][C]1O[C@H]2C=CCC[C@@H]12	
InChI=1S/C7H9NO/c8-7-5-3-1-2-4-6(5)9-7/h2,4-6,8H,1,3H2	InChI=1S/C7H9NO/c8-7-5-3-1-2-4-6(5)9-7/h2,4-6,8H,1,3H2/t5-,6+/m1/s1
