20
gdb 111778	2.47312	1.46863	1.19893	2.1948	79.96	-0.2355	0.002	0.2375	1142.6897	0.171783	-403.137208	-403.128876	-403.127932	-403.170191	32.085	
C	-0.0698405901	 1.6087426658	-0.1467274648	-0.383372
C	 0.0118617213	 0.0875714477	-0.0456757941	-0.139465
N	-1.3291740445	-0.4984515933	 0.0934992672	-0.097331
C	-1.9344245016	-0.4536457706	 1.4851352502	-0.114611
C	-3.313687507	-1.0709258865	 1.2150734384	-0.217688
C	-2.8793629435	-2.2553345704	 0.2809654457	-0.220252
C	-1.3656690461	-2.0032830083	 0.2575174956	-0.109652
C	-1.0329748155	-1.684590968	 1.7340745514	 0.407072
O	-0.1859966019	-1.993776516	 2.5203604201	-0.328918
H	 0.9241874016	 2.0317514255	-0.3198762921	 0.118603
H	-0.7254252033	 1.9061237295	-0.9699786974	 0.126145
H	-0.4616416167	 2.0509999838	 0.7748804384	 0.120224
H	 0.4356330166	-0.3193195146	-0.9708217672	 0.106452
H	 0.6948176241	-0.2006357164	 0.7711125297	 0.11041
H	-1.8580349228	 0.4692680486	 2.0561959235	 0.089668
H	-3.8036420401	-1.4043474386	 2.1333289506	 0.109622
H	-3.9687558807	-0.3634363763	 0.7030003201	 0.112936
H	-3.1280063035	-3.2383066232	 0.6889102509	 0.109599
H	-3.3100351814	-2.1691903133	-0.7185484907	 0.11259
H	-0.7235102449	-2.6039243054	-0.3845377555	 0.08797
81.3178	132.8014	181.6007	209.7195	258.4798	298.1824	406.876	440.7726	471.6851	615.9693	671.0784	678.3509	787.3793	831.0013	836.4242	837.8687	905.8962	930.5964	955.2873	990.7334	1009.5203	1035.773	1062.1074	1080.8712	1116.5823	1157.9156	1161.2813	1182.1693	1229.8714	1232.3143	1254.6102	1267.8534	1311.8941	1322.2424	1327.7768	1396.2313	1414.3982	1480.0994	1490.4229	1495.1732	1498.851	1512.9518	1876.8614	2966.0854	3040.9352	3055.0967	3064.8097	3073.8348	3109.3105	3110.6114	3120.433	3127.3472	3142.9647	3152.6474
CCN1C2CCC1C2=O	CCN1[C@H]2CC[C@@H]1C2=O	
InChI=1S/C7H11NO/c1-2-8-5-3-4-6(8)7(5)9/h5-6H,2-4H2,1H3	InChI=1S/C7H11NO/c1-2-8-5-3-4-6(8)7(5)9/h5-6H,2-4H2,1H3/t5-,6+
