21
gdb 116068	2.45684	1.27228	0.88615	4.326	79.56	-0.2555	0.0156	0.2711	1352.5443	0.183154	-424.287054	-424.277964	-424.277019	-424.321369	33.879	
C	-0.0392755362	 1.5606204087	 0.0445370159	-0.390182
C	 0.0913750342	 0.0365209619	-0.0121216806	-0.182963
C	 0.6521493316	-0.5773591631	 1.2680031901	 0.154112
C	 0.6894948361	-2.100544617	 1.2552757728	-0.220884
C	 1.4036611297	-2.6095007451	 2.5063332518	-0.231864
C	 2.8283405105	-2.0515610749	 2.5305987177	-0.322903
C	 2.9538774584	-0.5735398585	 2.1835547647	 0.401043
O	 3.9255329442	 0.0751924417	 2.4630829589	-0.323529
O	 1.9647390612	 0.007018333	 1.4616218398	-0.244812
H	 0.9311245728	 2.0255471646	 0.2326818554	 0.146185
H	-0.4325797678	 1.9527219642	-0.8978084074	 0.113192
H	-0.7214272641	 1.8688424905	 0.8447509032	 0.112582
H	-0.8888279395	-0.4196078816	-0.1988633126	 0.097715
H	 0.7408176522	-0.2563229487	-0.8462158754	 0.106589
H	 0.039656907	-0.2475877949	 2.1211816318	 0.085622
H	-0.3384863713	-2.4742091457	 1.2043236976	 0.107017
H	 1.2079709882	-2.450144247	 0.3528021053	 0.105333
H	 0.8551111618	-2.2811385223	 3.3982151504	 0.108212
H	 1.4256107249	-3.703203947	 2.535682826	 0.105353
H	 3.3243102614	-2.1957853223	 3.4929982222	 0.135948
H	 3.4443137945	-2.5761273365	 1.7877490022	 0.138234
79.4448	87.0719	108.2481	180.9616	219.058	277.2195	359.6465	423.9197	438.4744	476.0774	529.3435	554.7791	641.0908	736.9201	802.5712	861.8757	894.0872	917.0166	939.4697	980.3826	1026.0359	1048.6858	1069.3145	1099.6393	1131.9292	1147.0413	1185.7573	1216.3704	1253.5165	1278.2537	1300.622	1321.2922	1355.2159	1374.2144	1377.4059	1396.6837	1410.5595	1412.3485	1460.2795	1473.0811	1485.328	1496.9882	1501.5323	1509.5202	1838.6605	2988.0066	3023.1462	3027.3539	3030.4858	3035.1712	3039.055	3065.0544	3079.4836	3083.966	3104.567	3110.0058	3131.1665
CCC1CCCC(=O)O1	CC[C@H]1CCCC(=O)O1	
InChI=1S/C7H12O2/c1-2-6-4-3-5-7(8)9-6/h6H,2-5H2,1H3	InChI=1S/C7H12O2/c1-2-6-4-3-5-7(8)9-6/h6H,2-5H2,1H3/t6-/m0/s1
