19
gdb 98173	2.35808	1.10944	1.02756	2.3498	72.93	-0.263	-0.061	0.202	1282.6947	0.154628	-460.188739	-460.178208	-460.177264	-460.22538	37.175	
C	 0.3903625677	 1.5108657106	 0.303661288	-0.435213
C	 0.1815854959	 0.0121124771	 0.0681964984	 0.044905
C	 0.3449412299	-0.8053781177	 1.3701739009	-0.419476
C	-1.2484843245	-0.2564701814	-0.4417060317	 0.151994
O	-2.0655488199	 0.5979728971	-0.6500338089	-0.237097
C	 1.0915090728	-0.5881071505	-1.0131197048	 0.33092
O	 1.2624491711	-1.7877536247	-1.0968211414	-0.33536
C	 1.732930076	 0.3149246187	-2.0577164778	-0.140462
O	 2.4651357366	-0.4259212793	-2.9843667	-0.419662
H	 1.4001667221	 1.7120495086	 0.6724494693	 0.121249
H	 0.2203518208	 2.0968557472	-0.6019733474	 0.138896
H	-0.322832336	 1.8674484219	 1.0507336475	 0.135805
H	-0.3779497495	-0.4726146849	 2.1206099369	 0.128639
H	 0.2040172639	-1.87090182	 1.1818695658	 0.149196
H	 1.350398165	-0.6645219476	 1.7772597776	 0.132619
H	-1.4706940948	-1.3350243547	-0.5912741405	 0.105988
H	 0.929265492	 0.8932529351	-2.5459149189	 0.127372
H	 2.3706543386	 1.0535076626	-1.5472611498	 0.123982
H	 2.3500421723	-1.3525695678	-2.7193338032	 0.295706
17.303	82.5948	121.9266	194.5987	206.3983	219.126	237.5094	279.186	317.6081	334.4435	359.6887	419.4764	461.0134	498.8885	564.1803	680.1059	789.2	832.4322	905.3013	961.0101	973.6139	1013.6566	1049.8906	1071.4739	1151.8295	1182.5226	1216.4502	1250.703	1257.0057	1311.6797	1395.9847	1402.4338	1428.4644	1448.2224	1477.8886	1485.5998	1489.8002	1500.926	1506.4686	1766.258	1834.6667	2907.2373	2966.6237	2998.4074	3046.6136	3053.1645	3116.1632	3124.0055	3133.978	3144.1993	3685.986
CC(C)(C=O)C(=O)CO	CC(C)(C=O)C(=O)CO	
InChI=1S/C6H10O3/c1-6(2,4-8)5(9)3-7/h4,7H,3H2,1-2H3	InChI=1S/C6H10O3/c1-6(2,4-8)5(9)3-7/h4,7H,3H2,1-2H3
