16
gdb 30457	5.01375	1.02737	0.85716	3.2577	81.4	-0.1839	-0.0524	0.1315	1299.7121	0.124583	-434.090892	-434.082085	-434.08114	-434.125158	31.293	
C	-0.0437704994	 1.4186883019	 0.1169001318	-0.322792
N	 0.0681387356	-0.0236129196	 0.0542610158	-0.360983
C	 0.584726159	-0.5661414812	-0.9781904884	 0.454866
N	 0.6685162028	-1.9743742405	-0.9853440541	-0.339458
C	 1.1894568378	-2.7025545503	-2.0042524423	-0.020725
C	 1.6698912666	-2.0601938384	-3.1033937342	 0.257117
O	 2.2022139839	-2.767981879	-4.1483955272	-0.450718
C	 1.578179873	-0.6348161809	-3.0817773566	-0.071677
N	 1.0823981729	 0.0725341342	-2.1139782087	-0.303065
H	 0.4924163911	 1.7907100623	 0.9997861669	 0.109455
H	 0.3431518624	 1.9357253026	-0.7685423318	 0.122991
H	-1.0963506505	 1.6998929566	 0.2524912498	 0.109454
H	 0.3054993182	-2.4251967755	-0.1588652332	 0.267793
H	 1.2007950293	-3.7799305783	-1.8975903201	 0.14405
H	 2.4866903848	-2.1515414676	-4.8302891696	 0.301221
H	 1.9544879026	-0.0814558762	-3.9490151181	 0.102471
56.3871	77.1233	99.6042	213.845	219.0515	325.4387	368.1846	387.4393	446.8384	469.4813	569.9493	645.7775	651.071	767.9657	780.8642	812.4849	905.2483	969.6944	1002.4678	1075.1277	1114.7952	1135.8707	1181.839	1215.1671	1225.7614	1307.4949	1402.1913	1436.0447	1441.5139	1484.3133	1497.3095	1497.3386	1580.5897	1713.0902	1740.6199	3001.9657	3046.377	3066.3344	3078.4959	3218.2021	3624.7458	3831.5217
CN=C1NC=C(O)C=N1	C[N]C1=NC=C(CN1)O	
InChI=1S/C5H7N3O/c1-6-5-7-2-4(9)3-8-5/h2-3,9H,1H3,(H,6,7,8)	InChI=1S/C5H8N3O/c1-6-5-7-2-4(9)3-8-5/h2,9H,3H2,1H3,(H,7,8)
