16
gdb 54321	2.7718	1.43915	1.06333	1.923	64.43	-0.2521	0.0086	0.2607	1104.0633	0.123015	-475.005561	-474.99697	-474.996026	-475.03929	31.449	
N	-0.4025706246	 1.6190027175	 0.0466933334	-0.533505
C	 0.0012931036	 0.3757150517	-0.3219886115	 0.330244
O	 1.1063405149	 0.098545085	-0.7477924667	-0.361999
C	-1.0600166388	-0.6951480653	-0.1338809794	 0.279527
C	-1.6421867664	-0.9132229631	 1.2021495903	-0.210969
O	-2.3755427271	-0.2159752587	 0.1899211891	-0.290874
C	-0.9829456041	-1.8243323946	-1.1172835452	 0.009668
C	-0.1679782922	-3.0089324025	-0.841486354	-0.15786
O	-1.5951227196	-3.0520236553	-0.7330412448	-0.239652
H	 0.2191489306	 2.3929310025	-0.1190720391	 0.26599
H	-1.3819148601	 1.7836301931	 0.2151109803	 0.275947
H	-2.0192072964	-1.9046799008	 1.4376750629	 0.148935
H	-1.3026010423	-0.3027969755	 2.0363541087	 0.124695
H	-1.1495782854	-1.5382129348	-2.155408365	 0.111857
H	 0.2569725564	-3.5696030877	-1.6710372134	 0.125957
H	 0.3756396615	-3.0739978616	 0.0985988744	 0.122039
65.9623	76.2008	170.499	226.7786	273.7155	295.7236	366.307	383.3936	425.7877	548.159	583.634	625.4918	686.5773	765.1027	853.5686	871.6537	897.2129	921.3542	955.651	1050.6898	1090.0688	1096.7962	1136.5931	1151.0395	1164.3225	1171.2916	1191.5809	1288.0093	1365.7365	1397.9213	1436.1008	1503.4996	1529.8831	1595.279	1798.8901	3099.375	3101.8831	3118.6219	3190.54	3205.3329	3591.2574	3729.6637
NC(=O)C1(CO1)C1CO1	NC(=O)[C@]1(CO1)[C@H]1CO1	
InChI=1S/C5H7NO3/c6-4(7)5(2-9-5)3-1-8-3/h3H,1-2H2,(H2,6,7)	InChI=1S/C5H7NO3/c6-4(7)5(2-9-5)3-1-8-3/h3H,1-2H2,(H2,6,7)/t3-,5+/m1/s1
