19
gdb 73752	2.45083	1.54426	1.03067	0.8902	91.79	-0.2112	-0.0126	0.1986	1186.3246	0.158694	-348.736543	-348.727982	-348.727038	-348.769362	33.412	
C	 0.0697608873	 1.4967438891	 0.1118210471	-0.511977
C	 0.0085103264	 0.0076256582	 0.0246776676	 0.197436
C	-0.0263010056	-0.7409027012	-1.099469442	 0.135247
C	-0.0511466788	-0.2543934965	-2.428895359	 0.199235
C	-0.0842841151	 0.125566091	-3.5730070041	-0.437768
C	-0.0009471592	-2.2090095675	-0.7872953415	-0.149974
C	 1.2537235812	-2.6947626364	-0.0922341895	-0.278841
C	 0.0532651018	-2.2940059564	 0.7265122402	-0.043923
C	-0.0090994806	-0.866842474	 1.2636459518	-0.305266
H	 0.985761016	 1.826478465	 0.619132274	 0.127061
H	 0.0428194366	 1.9547238509	-0.8795163978	 0.138784
H	-0.7689968164	 1.8909707571	 0.7005257548	 0.125705
H	-0.1086139314	 0.4676017621	-4.5775900172	 0.18684
H	-0.5738392124	-2.8951652354	-1.3999448747	 0.091352
H	 1.4788746342	-3.7548644389	-0.1468531808	 0.109873
H	 2.1234710295	-2.0451781466	-0.1069709072	 0.111617
H	-0.4826711138	-3.0727425185	 1.2556214378	 0.085879
H	 0.8249382668	-0.6300059853	 1.9384489079	 0.109878
H	-0.9263894067	-0.6925923968	 1.8444910026	 0.108842
126.4359	140.8436	158.6614	172.1015	303.0694	331.4616	398.5032	409.6314	491.6755	555.9442	559.4065	618.251	639.0238	683.7034	732.8367	807.4191	816.3283	884.605	921.9139	960.6534	976.9391	1014.2657	1056.9957	1064.8689	1092.6183	1102.9183	1129.7719	1177.6856	1189.2757	1203.4216	1236.3088	1327.7357	1356.4621	1377.4176	1411.4188	1470.7567	1479.2434	1480.8402	1484.2928	1673.3858	2215.7175	3002.0681	3014.8796	3029.8509	3057.5302	3121.9228	3123.183	3175.8103	3182.9555	3211.388	3504.0514
CC1=C(C#C)C2CC2C1	CC1=C(C#C)[C@H]2C[C@H]2C1	
InChI=1S/C9H10/c1-3-8-6(2)4-7-5-9(7)8/h1,7,9H,4-5H2,2H3	InChI=1S/C9H10/c1-3-8-6(2)4-7-5-9(7)8/h1,7,9H,4-5H2,2H3/t7-,9+/m1/s1
