17
gdb 32012	2.90965	1.26337	0.93703	4.6848	80.23	-0.2248	-0.0554	0.1693	1244.1396	0.137803	-418.07592	-418.067823	-418.066879	-418.109069	30.19	
C	 0.0199973802	 1.5546495673	 0.1779465996	-0.376739
C	-0.0069146382	 0.0368372774	-0.0786250694	-0.297881
C	-1.3945502561	-0.5390327042	-0.1024791071	 0.380266
C	-2.0174559251	-1.0197231568	-1.2174442352	-0.129718
N	-3.2919854186	-1.5167815927	-1.19091193	-0.21681
C	-3.9371047191	-1.5356414882	-0.0648042453	-0.099236
C	-3.4017276335	-1.058914076	 1.2125271674	 0.375958
O	-3.9690353793	-1.0624110771	 2.2900092806	-0.387995
N	-2.0947722416	-0.5711084119	 1.0723359873	-0.392766
H	 1.0504208122	 1.9200771211	 0.1908022128	 0.129545
H	-0.5254378518	 2.0903968772	-0.6040154023	 0.136395
H	-0.4366991385	 1.8117106597	 1.1389458317	 0.123254
H	 0.470335259	-0.1851055258	-1.0370792301	 0.129748
H	 0.5831715825	-0.4767231046	 0.6919115911	 0.121407
H	-1.5097948874	-1.0215829343	-2.1741423832	 0.112402
H	-4.9494629937	-1.9315567279	-0.0417477566	 0.131951
H	-1.6742813211	-0.2325600933	 1.9286577287	 0.260219
63.377	130.0377	178.5543	201.7661	286.6002	337.9055	458.0545	476.2204	523.3082	562.8558	642.6066	706.1218	727.29	775.2839	791.6434	854.9631	917.1954	939.3848	977.5614	1049.1812	1081.5307	1087.9085	1135.8868	1232.2718	1235.1953	1279.7022	1348.6591	1356.0386	1397.1035	1414.1915	1473.1663	1489.3233	1497.4173	1505.6897	1570.7062	1645.7409	1787.0719	3026.0412	3043.7348	3089.5229	3116.4643	3123.7537	3165.8877	3202.6881	3582.9647
CCC1=CN=CC(=O)N1	CCc1cncc(=O)[nH]1	
InChI=1S/C6H8N2O/c1-2-5-3-7-4-6(9)8-5/h3-4H,2H2,1H3,(H,8,9)	InChI=1S/C6H8N2O/c1-2-5-3-7-4-6(9)8-5/h3-4H,2H2,1H3,(H,8,9)
