18
gdb 22918	2.32128	1.49959	1.0752	1.5961	70.44	-0.2553	-0.0119	0.2434	1146.7411	0.146577	-476.1807	-476.171716	-476.170772	-476.214433	33.675	
C	 0.0835984921	 1.5875268954	 0.0085216216	-0.395636
C	 0.0201714081	 0.0583282658	 0.0604777662	 0.042786
O	 0.6330057571	-0.5512898475	-1.079747167	-0.266736
C	 1.9945345536	-0.8260237844	-0.7737527895	-0.107549
C	 2.0130444147	-1.2515387574	 0.7032180507	 0.017224
O	 3.2218949609	-0.8614237343	 1.3149314461	-0.434908
C	 0.784081826	-0.5282160021	 1.2305824228	 0.354389
N	 0.4065538447	-0.3872031501	 2.4344797858	-0.228195
O	 1.292450412	-1.049244732	 3.3217032748	-0.407135
H	 1.118547984	 1.9419317632	 0.0079609427	 0.12556
H	-0.4105104098	 1.9477470935	-0.8978589659	 0.126185
H	-0.4206166027	 2.0096991605	 0.8825423631	 0.132368
H	-1.0262120535	-0.2641344653	 0.0679137817	 0.10591
H	 2.3389463273	-1.6008779293	-1.4611878334	 0.117008
H	 2.6357838792	 0.0602508822	-0.8868290431	 0.109468
H	 1.8470414493	-2.3369962172	 0.7942549111	 0.096955
H	 3.094708404	-0.9795950085	 2.2644396897	 0.299271
H	 0.921530213	-0.8351268425	 4.1839422923	 0.313035
55.246	157.5375	179.1803	217.5076	231.5213	299.2433	342.7748	386.9277	410.9035	459.1639	466.951	495.0215	595.3696	656.6027	706.4968	812.7982	868.8449	945.634	967.2913	1004.1283	1039.6342	1080.2135	1089.1125	1131.4196	1134.7642	1213.3841	1227.8618	1268.8199	1310.6759	1318.8129	1359.3479	1385.2336	1389.021	1399.741	1427.8833	1486.1565	1491.8959	1518.3484	1760.6406	2973.5341	3004.7367	3043.8818	3054.799	3112.2304	3122.1585	3125.6259	3783.2011	3827.5831
CC1OCC(O)C1=NO	C[C@H]1OC[C@@H](O)C1=NO	
InChI=1S/C5H9NO3/c1-3-5(6-8)4(7)2-9-3/h3-4,7-8H,2H2,1H3	InChI=1S/C5H9NO3/c1-3-5(6-8)4(7)2-9-3/h3-4,7-8H,2H2,1H3/t3-,4-/m1/s1
