21
gdb 119460	4.3611	0.82666	0.7746	1.0246	79.45	-0.2297	0.0785	0.3082	1543.8338	0.180892	-424.185634	-424.176031	-424.175087	-424.220394	35.625	
C	-0.1026764323	 1.5162903048	-0.0057341112	-0.408295
C	 0.1148280869	 0.0197626588	 0.0775723724	 0.153526
O	 1.1655972477	-0.4703644854	-0.8115565045	-0.350219
C	 1.7661919692	-1.1994087487	 0.2743052455	 0.491643
C	 2.2761685416	-2.5748101074	-0.0155518997	-0.295446
C	 3.4598446648	-2.5577926526	-0.9808552745	-0.071064
O	 3.8521368633	-3.9048481081	-1.1993415016	-0.422454
C	 2.273455064	-0.2340959254	 1.3033072853	-0.341053
C	 0.8036632691	-0.6176640303	 1.2847885661	-0.225903
H	 0.7942861202	 2.0702965599	 0.2830459218	 0.120872
H	-0.3688548809	 1.8032602039	-1.0281002986	 0.127263
H	-0.9237737064	 1.8137381389	 0.6554828552	 0.117277
H	-0.8170825909	-0.5114403064	-0.1583640608	 0.080615
H	 2.5845278317	-3.0548993837	 0.9197764558	 0.108806
H	 1.4777526421	-3.1859413694	-0.4514850773	 0.113156
H	 3.1567526935	-2.0674729295	-1.9176099179	 0.107133
H	 4.2811182663	-1.9651501514	-0.5474061895	 0.087196
H	 4.5539423081	-3.9093515316	-1.8564281991	 0.285424
H	 2.8325154761	-0.6736189198	 2.1239268298	 0.113176
H	 2.6026635342	 0.7566624575	 1.0041066558	 0.111619
H	 0.3053303716	-1.0785323741	 2.127429917	 0.096727
67.2162	95.3835	103.7828	195.2104	219.3469	257.0639	267.8971	323.3473	356.2952	400.5689	478.7456	542.7845	690.5161	736.4581	796.4442	841.2396	867.826	886.2756	947.8822	973.4892	979.0299	1008.7477	1026.3663	1047.6297	1065.9073	1086.1763	1088.8774	1117.369	1148.2432	1181.0679	1238.8237	1246.6651	1275.2639	1305.9602	1313.7533	1337.05	1383.8451	1402.4147	1418.5941	1458.9149	1477.8438	1484.5939	1492.3599	1496.6337	1529.5409	2974.4185	3011.3476	3012.9322	3037.9763	3040.2125	3087.2823	3105.6982	3116.3514	3121.6766	3195.2378	3207.2777	3832.4845
CC1OC2(CCO)CC12	C[C@H]1O[C@@]2(CCO)C[C@@H]12	
InChI=1S/C7H12O2/c1-5-6-4-7(6,9-5)2-3-8/h5-6,8H,2-4H2,1H3	InChI=1S/C7H12O2/c1-5-6-4-7(6,9-5)2-3-8/h5-6,8H,2-4H2,1H3/t5-,6+,7+/m1/s1
