23
gdb 72152	2.53988	1.84551	1.73514	0.0072	87.33	-0.2742	0.0928	0.367	974.8079	0.211174	-351.16414	-351.157321	-351.156377	-351.194692	30.504	
C	-0.0166593107	 1.4949350254	 0.0032185738	-0.50314
C	-0.0219974016	-0.0195478262	-0.0403887836	 0.350402
C	 0.6032885308	-0.7225392283	-1.2749779361	-0.234772
C	 0.6141868086	-2.1159908198	-0.6061576768	-0.034439
C	 1.6533971805	-1.7852085815	 0.4919246141	-0.20058
C	 0.7119542888	-0.7814824509	 1.1986570469	-0.069232
C	-0.3459256941	-1.8117247845	 1.6598952497	-0.200576
C	-0.7856037835	-2.1345677192	 0.2115773385	-0.034443
C	-1.3903528841	-0.7490090542	-0.110341247	-0.234773
H	 1.0050181082	 1.8916554564	 0.0070205072	 0.110818
H	-0.532000397	 1.9180024405	-0.8672165402	 0.110181
H	-0.5209898629	 1.8712857168	 0.9005687436	 0.110823
H	-0.030342077	-0.6271312214	-2.1607062051	 0.082511
H	 1.6090375597	-0.3855047653	-1.5411283145	 0.082208
H	 0.8040978241	-2.9821371095	-1.2400094493	 0.054935
H	 1.9319482947	-2.6165579953	 1.1444532029	 0.084387
H	 2.5694964696	-1.3604710543	 0.0741414171	 0.084422
H	 1.1445700404	-0.1244593728	 1.9541148795	 0.052803
H	 0.1020988883	-2.6408172254	 2.2134346915	 0.084388
H	-1.1679497775	-1.4100353379	 2.25747822	 0.084422
H	-1.413763259	-3.0115773768	 0.0556499348	 0.054936
H	-2.1226243716	-0.4350551524	 0.6387719988	 0.08221
H	-1.8525670449	-0.6513109333	-1.0961997858	 0.082513
223.7585	235.3855	273.4112	368.3252	522.6974	532.0264	546.3533	561.5487	637.7676	661.4031	773.3634	793.4495	809.3559	870.7343	887.5599	900.7928	910.462	919.1102	930.6136	942.0947	948.7779	985.7434	1009.7995	1020.3633	1054.1744	1074.8892	1093.1939	1117.4109	1118.8044	1168.5439	1183.4664	1193.4699	1206.2226	1246.1369	1252.6297	1258.1301	1272.8659	1273.79	1293.5917	1309.1158	1317.4325	1353.7164	1414.0514	1488.3054	1494.2333	1496.1767	1523.1952	1524.7753	1556.694	3018.9902	3048.6418	3055.8012	3056.4811	3064.98	3082.5679	3084.7684	3087.2736	3100.975	3101.9681	3105.148	3107.5832	3109.9781	3119.5337
CC12CC3CC1CC3C2	C[C@@]12C[C@H]3C[C@@H]1C[C@H]3C2	
InChI=1S/C9H14/c1-9-4-6-2-8(9)3-7(6)5-9/h6-8H,2-5H2,1H3	InChI=1S/C9H14/c1-9-4-6-2-8(9)3-7(6)5-9/h6-8H,2-5H2,1H3/t6-,7+,8-,9+
