16
gdb 20785	4.87602	1.80169	1.4233	3.1029	71.41	-0.2336	0.0329	0.2665	879.	0.1332	-342.773603	-342.766863	-342.765919	-342.804686	25.321	
C	-0.1767908935	 1.5863040145	 0.0340960093	-0.396966
C	 0.0270098662	 0.0762051293	 0.0193363836	-0.15255
C	 0.7791490429	-0.5287879516	-1.2448550376	-0.186144
N	 1.7919025084	-0.9750177062	-0.2819681785	 0.090917
N	 2.9337769255	-1.6447685045	-0.08853221	-0.308587
C	 3.0608771328	-1.5605502232	 1.2483520711	 0.014648
C	 2.0043289773	-0.852817588	 1.8876183169	-0.404273
C	 1.200170748	-0.4954576257	 0.8200961422	 0.387312
H	 0.7592687941	 2.1122609236	-0.177847335	 0.128744
H	-0.9191333143	 1.8876902335	-0.7122485753	 0.121299
H	-0.5336132494	 1.9174307188	 1.0141943682	 0.129798
H	-0.9187017497	-0.4400946586	 0.2113416464	 0.101006
H	 0.2653753006	-1.3433057805	-1.7622161931	 0.13181
H	 1.1446884416	 0.2064133597	-1.9673805049	 0.129848
H	 3.9199863876	-2.0150604354	 1.7210548045	 0.109123
H	 1.8857313716	-0.6599450657	 2.9404167722	 0.104016
93.0387	143.7711	236.1894	278.0428	426.8288	483.2289	650.8014	670.1426	721.8944	754.3424	779.5621	847.5017	872.459	917.5818	955.7759	1004.4715	1055.1765	1083.9389	1108.3989	1132.6635	1168.9385	1191.8967	1225.9256	1271.2122	1301.7212	1331.203	1372.5261	1411.5755	1412.3209	1484.5642	1494.4125	1498.4351	1521.5594	1561.3663	3035.8327	3056.1555	3060.3542	3106.3632	3111.2373	3115.6641	3240.3334	3278.4571
CC1CN2N=CC=C12	C[C@H]1Cn2nccc12	
InChI=1S/C6H8N2/c1-5-4-8-6(5)2-3-7-8/h2-3,5H,4H2,1H3	InChI=1S/C6H8N2/c1-5-4-8-6(5)2-3-7-8/h2-3,5H,4H2,1H3/t5-/m0/s1
