15
gdb 68646	2.47855	2.12117	1.59016	3.5272	63.72	-0.2583	-0.0367	0.2216	871.951	0.112848	-457.79069	-457.783704	-457.78276	-457.821856	27.545	
C	 0.0158469497	 1.5223445096	-0.0670663998	-0.497774
C	-0.0348115643	 0.0219319578	-0.0178823098	 0.160119
O	 0.6730384926	-0.6344549048	-1.1028136326	-0.246112
C	 0.4268440513	-1.9344199759	-0.6467639442	 0.124654
O	 1.0110836972	-1.920135476	 0.7059846303	-0.255791
C	 0.7227270613	-0.6669383174	 1.1568932458	 0.469613
O	 1.0101869167	-0.2374070361	 2.2335408628	-0.349239
C	-1.0947862977	-1.9515170856	-0.4642361799	-0.082133
C	-1.3816730139	-0.7198449242	-0.048467224	-0.129895
H	 1.0494128549	 1.8623182169	-0.1652873748	 0.147141
H	-0.5668407528	 1.9057801724	-0.9081735081	 0.13395
H	-0.3880172057	 1.9287054387	 0.8639673203	 0.147799
H	 0.9282020645	-2.6980857276	-1.2344897983	 0.113987
H	-1.7310471367	-2.818395673	-0.5636013563	 0.130446
H	-2.3176159771	-0.3065396547	 0.2985144286	 0.133233
151.7735	171.387	237.385	313.3223	395.2402	451.2807	519.1881	620.1279	644.3886	681.8262	710.3162	773.7335	778.6613	839.6669	860.3707	871.683	896.5592	927.5552	942.6323	1037.4186	1073.8838	1139.849	1151.5502	1158.6118	1267.7935	1325.0026	1325.9972	1345.8691	1418.1394	1478.1677	1491.4627	1637.7624	1899.0906	3055.6343	3133.4372	3136.2657	3176.4333	3234.8932	3260.2135
CC12OC(OC1=O)C=C2	C[C@@]12O[C@@H](OC1=O)C=C2	
InChI=1S/C6H6O3/c1-6-3-2-4(9-6)8-5(6)7/h2-4H,1H3	InChI=1S/C6H6O3/c1-6-3-2-4(9-6)8-5(6)7/h2-4H,1H3/t4-,6+/m1/s1
