19
gdb 55108	4.39454	0.95604	0.85843	3.6661	77.91	-0.2331	0.0555	0.2887	1368.841	0.160067	-419.215326	-419.206588	-419.205644	-419.249076	33.01	
N	-0.0927899884	 1.3385836832	 0.2124160443	-0.557299
C	-0.0092312809	-0.0489533049	 0.1847355784	 0.411282
O	 1.0472267379	-0.6532071319	 0.1511689299	-0.393856
N	-1.2289974331	-0.6830814063	 0.1714586644	-0.111409
C	-2.5006913511	-0.2146250404	-0.41437993	-0.260278
C	-2.8002523062	-1.675292613	-0.7815276355	 0.344149
C	-4.0878593303	-2.4127060062	-0.5873470409	-0.320403
C	-3.5322559233	-2.1917694836	-1.9785685377	-0.317703
C	-1.4056691439	-2.0744626652	-0.2735073601	-0.234576
H	 0.7836590764	 1.7729680907	 0.4593498672	 0.259398
H	-0.8974585731	 1.7481411127	 0.6629668993	 0.251408
H	-3.1852234903	 0.2493402234	 0.3072710749	 0.104356
H	-2.3646368099	 0.4628309224	-1.2670175875	 0.117824
H	-4.0436869478	-3.4141685231	-0.1709933546	 0.11919
H	-4.9641219595	-1.8447900892	-0.2905153429	 0.115311
H	-4.033006323	-1.4746546349	-2.6214702348	 0.116092
H	-3.1121239017	-3.0433028482	-2.5043249528	 0.120022
H	-0.6845914617	-2.3676268448	-1.0444937085	 0.123371
H	-1.3774668902	-2.8075928306	 0.5396237269	 0.113123
57.4766	108.6169	159.6736	183.7103	284.9136	318.28	385.9873	388.4524	424.2888	543.9015	555.413	603.1894	717.5244	771.6574	778.5929	863.6317	877.1705	903.6396	918.3931	994.3838	1025.6442	1056.5564	1075.8405	1079.8962	1118.9519	1132.4089	1160.2951	1177.955	1186.8132	1188.5898	1249.3169	1295.0064	1316.5747	1396.2805	1441.333	1465.1442	1509.1214	1511.2367	1529.4861	1623.0499	1791.8608	3004.798	3033.784	3047.9937	3077.8877	3122.5886	3126.5048	3200.7658	3215.6225	3573.0322	3688.1972
NC(=O)N1CC2(CC2)C1	NC(=O)N1CC2(CC2)C1	
InChI=1S/C6H10N2O/c7-5(9)8-3-6(4-8)1-2-6/h1-4H2,(H2,7,9)	InChI=1S/C6H10N2O/c7-5(9)8-3-6(4-8)1-2-6/h1-4H2,(H2,7,9)
