18
gdb 30780	3.19542	1.25041	0.95481	1.9601	75.9	-0.191	0.0465	0.2374	1249.7664	0.148524	-435.289969	-435.280602	-435.279658	-435.324664	33.289	
C	 0.4437400381	 1.1473681269	-0.3656746485	-0.317808
N	-0.2801422977	-0.0127953041	 0.1728118087	-0.404191
C	 0.3982454048	-0.6980126139	 1.2062600431	 0.121384
C	 0.7956494558	-2.0055380087	 1.115431558	 0.32609
O	 0.6619481714	-2.9224053793	 0.1335752803	-0.446802
N	 1.4192437203	-2.3210417004	 2.2923791024	-0.056322
C	 1.9979923215	-3.6003614326	 2.6438857104	-0.335216
C	 1.3718216279	-1.1725186808	 3.0541398323	-0.023661
N	 0.770714177	-0.1878679478	 2.435911542	-0.310363
H	 1.3765874943	 0.8059933375	-0.824820123	 0.120322
H	-0.1646417174	 1.6229939929	-1.1413212846	 0.109072
H	 0.6947006706	 1.8958501986	 0.3984096092	 0.124978
H	-1.1953372228	 0.2891804147	 0.4935586027	 0.228778
H	 0.1745576537	-2.4672895703	-0.5683894011	 0.305435
H	 2.8102492317	-3.8648171458	 1.9601910163	 0.147772
H	 2.3965811812	-3.5354707366	 3.6579314649	 0.141568
H	 1.2439989922	-4.3921931704	 2.6092307764	 0.14847
H	 1.7975352674	-1.14535682	 4.0464309804	 0.120496
65.3893	73.8889	118.8037	178.3039	208.411	244.7595	282.2769	295.0718	403.7067	474.9685	546.023	599.8265	661.9892	705.2625	749.8106	756.1068	766.4229	835.0993	1004.2643	1067.3819	1093.155	1147.1065	1154.5057	1174.8531	1196.4116	1259.9866	1308.5669	1323.4642	1400.846	1450.1817	1454.7389	1469.3352	1479.7153	1486.58	1500.4236	1518.2142	1521.5479	1574.1843	1672.8942	3006.3976	3043.7144	3076.0139	3105.2687	3107.1878	3139.4169	3242.2789	3498.0531	3751.5545
CNC1=C(O)N(C)C=N1	CNc1c(O)n(C)cn1	
InChI=1S/C5H9N3O/c1-6-4-5(9)8(2)3-7-4/h3,6,9H,1-2H3	InChI=1S/C5H9N3O/c1-6-4-5(9)8(2)3-7-4/h3,6,9H,1-2H3
