21
gdb 86386	2.50527	1.43439	1.09344	1.6278	77.85	-0.2468	0.0704	0.3172	1182.9033	0.182282	-424.225434	-424.216374	-424.215429	-424.258498	35.782	
C	-0.0059786326	 1.5684668926	 0.0176100527	-0.394176
C	 0.0445455283	 0.0397082315	 0.021464747	 0.02504
C	 0.7729840939	-0.5695649312	-1.2028924823	-0.288495
C	 1.2819887333	-1.9486041818	-0.7338655403	 0.051775
O	 2.4753418828	-2.3960945032	-1.3690886536	-0.448767
C	 1.5270858195	-1.7853353764	 0.752633322	 0.42154
O	 1.5622061076	-2.9453289936	 1.5248802124	-0.485129
C	 2.2917181284	-0.562490971	 1.1966873608	-0.352633
C	 0.7718554223	-0.5763700348	 1.2173839707	-0.094639
H	 1.0039157014	 1.9921042227	 0.0446172041	 0.115449
H	-0.5053523721	 1.9462686013	-0.8812442656	 0.109446
H	-0.5511628376	 1.9497249442	 0.8875102572	 0.11232
H	-0.9862613225	-0.3400641552	 0.03555496	 0.07446
H	 0.1262074581	-0.633386151	-2.0832228571	 0.091149
H	 1.6383955551	 0.0413377636	-1.4829526113	 0.108331
H	 0.4906729479	-2.7064901602	-0.8453583579	 0.070451
H	 2.2604916095	-2.6419830484	-2.2740278772	 0.282638
H	 2.3585598778	-3.4255683836	 1.2699321218	 0.286759
H	 2.7744291756	-0.6526200544	 2.1632906074	 0.112412
H	 2.8303403753	 0.0433772848	 0.4760155829	 0.113352
H	 0.2848555778	-0.5785988259	 2.1864785464	 0.088717
120.8972	144.7456	227.1824	239.7422	244.5107	274.3724	321.5924	358.4122	406.543	438.9929	472.9651	531.4759	576.8392	611.1777	696.8682	792.4951	878.9724	903.569	939.5385	956.504	966.3463	976.4151	1021.4165	1047.5231	1050.8245	1083.5854	1091.5269	1126.6116	1156.6862	1188.3899	1206.9053	1266.2467	1267.3626	1287.4532	1331.1101	1338.4464	1358.5149	1373.0333	1409.683	1413.2129	1442.1174	1487.6904	1494.9789	1499.4894	1508.3226	2979.3471	3007.2817	3027.6303	3043.7238	3087.6518	3095.3821	3099.2294	3134.0798	3170.7548	3222.1653	3791.2259	3822.8131
CC1CC(O)C2(O)CC12	C[C@H]1C[C@@H](O)[C@@]2(O)C[C@@H]12	
InChI=1S/C7H12O2/c1-4-2-6(8)7(9)3-5(4)7/h4-6,8-9H,2-3H2,1H3	InChI=1S/C7H12O2/c1-4-2-6(8)7(9)3-5(4)7/h4-6,8-9H,2-3H2,1H3/t4-,5-,6+,7+/m0/s1
