16
gdb 125629	3.20219	1.42565	0.99384	5.1973	78.93	-0.2198	-0.0372	0.1826	1146.2372	0.125794	-430.26715	-430.258912	-430.257968	-430.299683	31.459	
C	-0.0403652236	 1.4448831337	-0.0174395126	-0.454106
C	-0.0081894037	-0.0516006886	 0.0299218483	 0.327101
N	-0.0184976893	-0.7134568891	-1.0835858401	-0.257143
N	-0.0086580775	-2.0925511985	-1.1045673078	-0.316404
C	 0.0721206826	-2.7186276536	 0.0305204274	 0.498413
N	 0.1858641491	-4.0943746718	 0.0464165939	-0.567624
N	 0.1066647059	-2.0891484143	 1.2440277355	-0.408137
H	 0.2609820541	-2.6295684113	 2.0838641791	 0.251524
C	 0.050391954	-0.6961082508	 1.3516065453	 0.318995
N	 0.0630635433	-0.0247954887	 2.4398596669	-0.537756
H	 0.8413584228	 1.8656246059	 0.4768301015	 0.140734
H	-0.0772370285	 1.7736824694	-1.0565269766	 0.134291
H	-0.9087292921	 1.8290719719	 0.5277282105	 0.14032
H	 0.0372232026	-4.479283735	-0.8771804385	 0.274228
H	-0.3494404449	-4.5747960044	 0.7570592655	 0.255797
H	 0.1150995153	-0.626670035	 3.2639240016	 0.199766
114.2003	145.3912	170.8691	296.0828	326.2603	335.4492	358.5837	414.1306	490.6153	532.9922	549.9837	583.4844	642.5054	729.3103	741.7114	774.6226	789.4801	828.3567	968.0355	1053.2685	1058.7459	1075.9308	1138.5098	1182.4196	1227.8699	1322.6738	1381.0408	1412.9311	1466.3496	1468.1718	1526.1445	1588.8182	1611.2706	1656.7516	1715.9653	3044.2383	3097.7011	3152.4948	3449.5096	3549.4884	3591.849	3652.9993
CC1=N[N-]C(N)=[NH+]C1=N	Cc1nnc(N)[nH]c1[NH]	
InChI=1S/C4H6N5/c1-2-3(5)7-4(6)9-8-2/h1H3,(H3-,5,6,7,9)/q-1/p+1	InChI=1S/C4H12N5/c1-2-3(5)7-4(6)9-8-2/h2-5,7-9H,6H2,1H3
