19
gdb 26413	4.22775	0.94061	0.84542	1.1432	77.97	-0.2052	0.0254	0.2306	1407.8516	0.158488	-423.049536	-423.040662	-423.039717	-423.083435	33.258	
C	-0.1191055931	 1.5640012943	 0.1232497456	-0.392775
C	 0.007565536	 0.0515191513	-0.0013032011	 0.137431
C	 0.7564948875	-0.5756389573	 1.1745934662	-0.395551
O	-1.3345736762	-0.4548650574	-0.0792085912	-0.282466
C	-1.5070889956	-1.6785060643	-0.6241221482	 0.3197
C	-0.6122591201	-2.5601667796	-1.163250935	-0.15324
O	-1.2788222841	-3.6691216626	-1.6153983808	-0.150831
C	-2.5928214185	-3.4786855158	-1.3555717499	 0.020883
C	-2.8024587898	-2.2832588216	-0.7488776387	-0.305115
H	 0.8704943953	 2.0276124813	 0.1708544461	 0.116517
H	-0.658229361	 1.9772184675	-0.7329660882	 0.12592
H	-0.6672519691	 1.8244733221	 1.0340548944	 0.12705
H	 0.5197898013	-0.192455254	-0.9434248706	 0.082639
H	 0.7739674095	-1.6654146357	 1.0981217103	 0.129498
H	 1.7901799639	-0.2167230076	 1.2016687884	 0.116361
H	 0.2716194316	-0.304987284	 2.1177352385	 0.12529
H	 0.4546336801	-2.5686879337	-1.2928475409	 0.129182
H	-3.2516293153	-4.2755843376	-1.659428626	 0.134898
H	-3.7402587823	-1.860579295	-0.426843749	 0.114609
67.7963	88.7275	153.5309	209.0623	249.0297	307.2081	318.0478	388.4846	448.8382	486.5832	607.7434	648.7203	692.3627	713.3367	765.4839	821.6987	842.6504	883.281	933.8964	943.9203	955.2605	1014.1019	1064.5533	1089.722	1149.773	1157.0745	1200.7021	1218.3334	1266.9647	1315.6506	1372.3205	1380.4366	1401.0839	1413.8289	1424.2162	1480.1544	1487.8655	1493.8716	1511.7165	1545.2715	1641.3216	2999.4006	3041.4028	3045.7161	3111.6223	3119.8401	3125.1501	3126.8206	3261.9368	3284.1615	3297.5452
CC(C)OC1=COC=C1	CC(C)Oc1cocc1	
InChI=1S/C7H10O2/c1-6(2)9-7-3-4-8-5-7/h3-6H,1-2H3	InChI=1S/C7H10O2/c1-6(2)9-7-3-4-8-5-7/h3-6H,1-2H3
