25
gdb 120631	4.28531	0.6589	0.62885	1.344	90.61	-0.2581	0.0758	0.3339	1913.2986	0.22678	-389.484627	-389.473304	-389.47236	-389.521346	41.244	
C	 0.0797788901	 1.5133606164	-0.2094164723	-0.381815
C	 0.2249175142	-0.006330911	-0.0975117082	-0.15111
C	 0.4811697658	-0.4831324107	 1.339081941	-0.203878
C	 0.609280451	-1.9896432774	 1.4407404177	-0.047039
C	 1.924506085	-2.6935250376	 1.1930428244	-0.316944
C	 1.3168779	-2.6988205513	 2.5782134058	 0.340785
C	 1.9955282397	-1.9224935547	 3.6914814986	-0.4666
C	 0.6901960085	-3.9956671056	 3.0406960066	-0.139298
O	 1.7158647816	-4.8472805568	 3.5408669871	-0.421836
H	 0.9870284942	 2.0249245854	 0.1316108746	 0.112521
H	-0.1069615415	 1.8226194415	-1.2426550156	 0.110086
H	-0.7526396942	 1.8785294307	 0.4027281577	 0.112105
H	-0.6826307632	-0.4907109133	-0.4819853679	 0.091826
H	 1.0454035508	-0.3497687336	-0.7400725969	 0.099096
H	 1.3884346409	 0.0018717648	 1.7183452593	 0.092565
H	-0.3391383678	-0.1371596907	 1.9840532902	 0.090958
H	-0.2675227126	-2.5132499601	 1.0613404617	 0.071785
H	 1.9310682616	-3.6174871198	 0.6244997828	 0.107993
H	 2.8026124806	-2.0736116715	 1.0384419612	 0.103391
H	 2.5349145011	-1.0491585727	 3.3176824666	 0.110694
H	 1.2677184266	-1.5740465864	 4.434945464	 0.106063
H	 2.7132371457	-2.5684018226	 4.2048349665	 0.134777
H	-0.0571980134	-3.7850157487	 3.8239602299	 0.081044
H	 0.1607876526	-4.4721893405	 2.2003287703	 0.077865
H	 1.2974067326	-5.6017443941	 3.9653116852	 0.284967
63.1664	81.5791	88.5409	125.4651	184.8384	198.3416	237.3332	244.4448	268.3211	296.8781	318.0963	370.4996	393.7476	463.3443	591.0492	705.4297	746.7453	843.9032	855.8981	884.5074	905.7704	940.0549	955.1648	978.7759	1010.8146	1050.3737	1054.3564	1063.6262	1090.2515	1112.128	1130.5105	1148.5521	1196.0346	1240.2889	1247.8611	1258.0085	1288.5068	1312.4737	1330.7792	1358.5791	1386.1947	1412.2858	1414.0108	1430.7709	1459.9752	1478.4984	1489.4898	1493.1189	1496.5656	1499.7695	1510.1764	1512.939	1517.6214	2955.7118	2988.3939	3005.697	3017.5355	3027.7249	3028.4962	3041.8023	3060.7061	3093.9001	3096.9349	3099.8556	3107.2755	3122.289	3125.1066	3206.7711	3830.0701
CCCC1CC1(C)CO	CCC[C@H]1C[C@]1(C)CO	
InChI=1S/C8H16O/c1-3-4-7-5-8(7,2)6-9/h7,9H,3-6H2,1-2H3	InChI=1S/C8H16O/c1-3-4-7-5-8(7,2)6-9/h7,9H,3-6H2,1-2H3/t7-,8+/m0/s1
