17
gdb 47165	2.33311	1.9784	1.15662	1.0651	73.91	-0.2328	-0.0268	0.206	1030.8578	0.138006	-418.020625	-418.013161	-418.012217	-418.052954	28.77	
O	 0.0696684366	-0.0670558981	-0.2082800266	-0.309735
C	-0.018770177	 1.1148384577	 0.0162123595	 0.377559
C	-1.3253071331	 1.7955639927	 0.4472436326	-0.312104
C	-1.2037480748	 3.2980402297	 0.8045695067	-0.182445
N	-0.0139682019	 3.5995505131	 1.6248100451	-0.31785
C	 1.0104105433	 3.0528004976	 1.1268658419	 0.410805
N	 2.3346076281	 2.9015305172	 1.5098239215	-0.367988
C	 2.5314589682	 1.7309684482	 0.6082986442	-0.189875
C	 1.1561854783	 2.0768561779	-0.0273934861	-0.231646
H	-2.0718674802	 1.6363363741	-0.3392045	 0.132301
H	-1.6788871202	 1.2328779843	 1.319319598	 0.144815
H	-1.1911099728	 3.903035649	-0.1139344519	 0.10521
H	-2.0937307539	 3.6040153076	 1.3604007407	 0.113007
H	 2.6407109475	 2.9421552738	 2.4734442255	 0.246968
H	 3.4093105024	 1.8125371866	-0.0357704526	 0.121248
H	 2.530415987	 0.7631003006	 1.1190605445	 0.131717
H	 1.2099761726	 2.5486965781	-1.0141745129	 0.128012
54.9728	160.989	231.2946	289.3554	349.8196	459.9415	481.4952	510.0079	557.3396	606.1139	682.2488	718.7446	752.048	863.3957	923.5095	957.3999	967.8884	978.8052	1016.5939	1059.0361	1077.2677	1137.7503	1145.4462	1153.1864	1204.5595	1212.69	1257.7477	1289.466	1315.5507	1322.0642	1358.0705	1382.601	1435.8623	1506.4891	1518.7616	1799.1263	1820.0008	2997.6703	3042.4448	3055.8022	3064.051	3080.7686	3088.4977	3114.7711	3576.1258
O=C1CCN=C2NCC12	O=C1CC[N][C]2NC[C@@H]12	
InChI=1S/C6H8N2O/c9-5-1-2-7-6-4(5)3-8-6/h4H,1-3H2,(H,7,8)	InChI=1S/C6H8N2O/c9-5-1-2-7-6-4(5)3-8-6/h4H,1-3H2,(H,7,8)/t4-/m0/s1
