14
gdb 84060	3.63663	1.21946	1.01582	3.3053	69.24	-0.2774	-0.0706	0.2067	1113.2979	0.101596	-436.676631	-436.669268	-436.668324	-436.708703	27.724	
O	 0.0640993646	 1.3961676315	-0.1340339114	-0.424328
C	 0.0444534992	-0.0150925441	-0.0613830877	 0.088635
C	 0.7183915371	-0.5426406748	 1.1990759743	-0.218806
C	-0.1124369893	-1.2863483142	 1.9452222953	 0.221368
C	 0.1802791042	-1.906030536	 3.1888931639	 0.206618
N	 0.3907729911	-2.4349064291	 4.197632293	-0.327513
C	-1.4726134784	-1.3470049266	 1.2953727145	-0.079057
O	-2.0753579614	-0.0412670597	 1.170897097	-0.254646
C	-1.372696316	-0.5911956012	 0.0460716091	-0.006643
H	-0.5274160076	 1.7074748244	 0.5645769453	 0.296853
H	 0.552907488	-0.3748934394	-0.9628459142	 0.111484
H	 1.7304300211	-0.2651224522	 1.4667564306	 0.141154
H	-2.1553334126	-2.1704376186	 1.4726188661	 0.126449
H	-1.9706878799	-0.7901259601	-0.8372951659	 0.11843
105.1016	148.2364	172.0483	277.6319	407.4978	459.5238	468.1947	501.7328	562.6943	588.8308	660.8395	756.9183	820.1054	859.0928	884.2566	908.788	931.9177	1003.6834	1066.7696	1073.1501	1105.5527	1166.8352	1249.4213	1254.7715	1273.3038	1306.2372	1332.0443	1415.6529	1428.6445	1660.4536	2340.8412	3056.8269	3171.3498	3190.7226	3221.3643	3764.5224
OC1C=C(C#N)C2OC12	O[C@H]1C=C(C#N)[C@H]2O[C@@H]12	
InChI=1S/C6H5NO2/c7-2-3-1-4(8)6-5(3)9-6/h1,4-6,8H	InChI=1S/C6H5NO2/c7-2-3-1-4(8)6-5(3)9-6/h1,4-6,8H/t4-,5+,6-/m0/s1
