16
gdb 51337	4.61787	1.09575	1.03234	3.0943	69.55	-0.2427	0.0264	0.2691	1148.3678	0.125251	-437.83877	-437.831593	-437.830649	-437.871194	27.416	
O	-0.1294307577	 0.1351385981	-0.6095661718	-0.325779
C	-0.0300624444	 1.2097781711	-0.0557177981	 0.152373
N	 1.1382545919	 1.7821069361	 0.3429427538	-0.292107
C	 2.421242512	 1.1482694094	 0.2115511502	 0.075758
C	 3.5586877734	 1.8659632671	-0.5229500905	-0.152815
C	 4.1877024988	 2.7659965726	 0.5489781371	 0.082827
O	 3.4039660937	 2.6437833424	 1.742763824	-0.303461
C	 3.3529493643	 1.213111855	 1.4526623921	 0.022627
C	 4.5810534269	 1.3331259685	 0.4840912269	-0.145184
H	-0.9027078596	 1.8504629689	 0.1803874006	 0.075056
H	 1.1217522369	 2.6612988687	 0.8380263827	 0.255099
H	 2.2759944693	 0.1326232834	-0.1544320876	 0.127333
H	 3.6795682925	 2.0301100832	-1.5854273265	 0.103151
H	 4.72143267	 3.6873229031	 0.3606512808	 0.117995
H	 3.2206435813	 0.5938463552	 2.3364782419	 0.095567
H	 5.5157439908	 0.8045170473	 0.3737509445	 0.111562
49.2109	145.0261	208.4802	237.421	378.8476	550.1269	606.8737	619.2267	719.2763	765.4668	774.371	796.4316	837.0529	844.1453	899.8353	955.1252	969.3428	989.8391	1022.8306	1030.6443	1034.9007	1055.9717	1072.8229	1104.5195	1158.1686	1171.522	1208.9519	1224.9983	1243.9849	1307.753	1347.912	1372.0409	1431.3553	1522.7716	1802.8344	2937.1102	3140.9895	3156.7255	3208.9355	3216.6581	3235.351	3622.8125
O=CNC1C2C3OC1C23	O=CN[C@H]1[C@H]2[C@H]3O[C@@H]1[C@@H]23	
InChI=1S/C6H7NO2/c8-1-7-4-2-3-5(2)9-6(3)4/h1-6H,(H,7,8)	InChI=1S/C6H7NO2/c8-1-7-4-2-3-5(2)9-6(3)4/h1-6H,(H,7,8)/t2-,3-,4-,5+,6+/m0/s1
