17
gdb 38532	3.39636	1.66228	1.33862	2.4247	73.35	-0.2347	0.0115	0.2462	961.246	0.137927	-421.810313	-421.803606	-421.802662	-421.841448	26.756	
C	-0.0449305899	 1.4887789939	-0.0089749495	-0.11037
O	 1.3088273241	 1.9580502553	 0.0379066519	-0.282193
C	 2.1718480991	 0.8635123334	-0.2064325082	 0.070865
C	 3.3125968476	 0.5850402841	 0.7628942195	-0.002074
O	 2.9053231513	 0.0269896821	 2.0149368745	-0.245105
C	 3.3386089553	-0.8760322975	 0.9957801044	 0.048043
C	 2.1781498804	-1.5616896868	 0.2602730819	-0.362873
C	 1.3180987726	-0.3759770101	-0.0604943539	 0.300939
C	 0.0480292313	-0.0181126745	 0.0595039887	-0.251227
H	-0.5969617853	 1.9051984432	 0.8444103416	 0.116428
H	-0.5377998563	 1.8494512551	-0.927027257	 0.102083
H	 2.6206637187	 0.9553344891	-1.2139487432	 0.071809
H	 4.2052540604	 1.2037093813	 0.7886846842	 0.09914
H	 4.2543603	-1.4213121631	 1.2092839777	 0.098388
H	 2.5654465313	-2.0627664406	-0.6371168263	 0.115421
H	 1.6745473676	-2.3140998964	 0.8737289622	 0.125142
H	-0.806082328	-0.6533399586	 0.2570927616	 0.105586
108.4771	197.8005	257.7788	362.067	380.7211	493.2362	595.6788	668.0716	716.8007	787.7184	814.502	837.3151	857.4108	882.7287	919.9182	936.3997	972.3267	980.6147	1021.2166	1041.0295	1057.0053	1096.7384	1115.8492	1175.9808	1187.256	1197.9181	1253.3633	1258.4628	1277.7189	1306.0326	1336.5718	1356.0465	1379.3958	1422.5937	1469.7219	1515.6445	1754.9502	2918.3777	2966.8112	3023.22	3025.2964	3091.6367	3147.0713	3160.9984	3216.2953
C1OC2C3OC3CC2=C1	C1O[C@H]2[C@H]3O[C@H]3C[C]2[CH]1	
InChI=1S/C7H8O2/c1-2-8-6-4(1)3-5-7(6)9-5/h1,5-7H,2-3H2	InChI=1S/C7H8O2/c1-2-8-6-4(1)3-5-7(6)9-5/h1,5-7H,2-3H2/t5-,6+,7-/m0/s1
