19
gdb 64566	2.87823	1.52844	1.27344	2.4885	75.5	-0.2517	-0.043	0.2087	1041.5004	0.160564	-423.022405	-423.014813	-423.013868	-423.054227	30.826	
O	 0.0142382416	 1.3801942382	 0.0023136315	-0.505827
C	 0.0366417517	-0.019553053	-0.0303629016	 0.383201
C	 0.9993379793	-0.4661981305	-1.0990570255	 0.073008
O	 1.610216882	 0.3361032649	-1.7712561472	-0.281743
C	 0.1204972565	-0.6592876104	 1.411296609	-0.071945
C	-1.3807643106	-0.2613280803	 1.5386882262	-0.236456
C	-1.4094570001	-0.6516284845	 0.0303548645	-0.071956
C	-1.146516422	-2.166914137	 0.0975656754	-0.2306
C	 0.0185987473	-2.1727113206	 1.1488927815	-0.230617
H	 0.6378547083	 1.6593517417	-0.6868914539	 0.291478
H	 1.1354706503	-1.5504559414	-1.2556243662	 0.101559
H	 0.8776263604	-0.3022993688	 2.1091881212	 0.073947
H	-1.9997189284	-0.8512764746	 2.2211660955	 0.086848
H	-1.5240393391	 0.804095642	 1.7032994445	 0.132907
H	-2.1790720358	-0.2870984659	-0.6497630412	 0.073937
H	-2.0290349608	-2.7057694687	 0.4526824683	 0.106372
H	-0.862561655	-2.6065548203	-0.8624114364	 0.099759
H	 0.9420695079	-2.6154572952	 0.7659346619	 0.099775
H	-0.2472430535	-2.7147378456	 2.0604057024	 0.106354
91.4743	223.5854	240.3085	323.8798	365.5193	397.2157	426.846	488.3223	495.0545	525.7895	646.0677	814.2999	820.209	836.4143	847.6448	878.1594	899.8914	938.3762	966.1714	975.4112	1013.6884	1018.566	1061.4442	1084.2542	1107.2831	1112.6952	1164.1147	1202.4729	1221.4125	1251.9129	1253.4871	1262.4506	1278.9715	1313.3375	1331.4377	1394.5984	1449.6135	1497.2853	1501.5276	1525.6951	1787.4611	2979.3929	3055.2535	3060.7099	3064.1474	3088.3542	3106.0882	3120.2879	3123.2822	3166.5074	3681.1097
OC1(C=O)C2CC1CC2	O[C@@]1(C=O)[C@H]2C[C@@H]1CC2	
InChI=1S/C7H10O2/c8-4-7(9)5-1-2-6(7)3-5/h4-6,9H,1-3H2	InChI=1S/C7H10O2/c8-4-7(9)5-1-2-6(7)3-5/h4-6,9H,1-3H2/t5-,6+,7+
