16
gdb 126449	4.89862	0.90048	0.79858	2.9006	83.46	-0.2474	-0.0423	0.205	1422.2963	0.12321	-400.722171	-400.713623	-400.712679	-400.756018	31.172	
C	-0.4550374789	 1.4506568705	 0.268772171	-0.377337
C	 0.2890937673	 0.1503299246	-0.0753604004	-0.302807
C	 0.882205104	-0.5176134008	 1.1284122932	 0.388582
N	 2.1872421675	-0.6021805493	 1.2646516371	-0.186899
O	 2.4177000263	-1.2509622574	 2.4674133281	-0.213073
C	 1.2265746063	-1.5489513336	 3.0394458463	 0.308984
C	 0.2143863043	-1.1074125726	 2.2380745383	-0.433042
C	 1.2379593306	-2.2185475765	 4.2782343302	 0.24179
C	 1.2402213122	-2.7901443357	 5.3370530251	-0.384607
H	 0.221422658	 2.1757431232	 0.7303959926	 0.133728
H	-0.8748321338	 1.901868386	-0.6348133072	 0.121629
H	-1.2781230683	 1.267916334	 0.9668064206	 0.121024
H	-0.3990753148	-0.5473882047	-0.5673376736	 0.11719
H	 1.0987568497	 0.3540198265	-0.7817253211	 0.131629
H	-0.8440526155	-1.1965849926	 2.4156816069	 0.127957
H	 1.2443255451	-3.2950013316	 6.271846613	 0.205253
51.5504	101.7658	140.4347	197.6674	219.8463	333.1983	384.9263	471.84	533.4827	542.0267	606.5116	678.5699	687.1391	704.3694	730.5679	794.0559	838.6233	957.7164	967.7116	1013.4804	1028.5667	1074.1064	1098.8443	1154.8125	1251.112	1282.954	1352.1182	1409.7288	1447.8482	1480.2213	1495.0865	1498.3675	1510.7804	1615.2944	2240.6311	3038.9221	3041.5319	3091.2935	3114.775	3120.2371	3280.7475	3499.5078
CCC1=NOC(=C1)C#C	CCc1noc(c1)C#C	
InChI=1S/C7H7NO/c1-3-6-5-7(4-2)9-8-6/h2,5H,3H2,1H3	InChI=1S/C7H7NO/c1-3-6-5-7(4-2)9-8-6/h2,5H,3H2,1H3
