21
gdb 121088	4.65206	0.73683	0.68474	2.8579	82.52	-0.2286	0.0203	0.2489	1694.5593	0.181268	-424.232007	-424.222082	-424.221138	-424.267549	35.618	
C	 0.0563386261	 1.4729526051	-0.1257748662	-0.492885
C	-0.0184563765	-0.0175109536	-0.0587654143	 0.298092
C	-1.0685048955	-0.7990372691	 0.178384476	-0.215043
C	-0.6739012695	-2.2497614916	 0.1465947252	 0.087701
C	-1.430291715	-3.0965915713	-0.8831268581	-0.206132
C	-0.9624037796	-4.5530379148	-0.9087696307	-0.062259
O	-1.7018055571	-5.3496395816	-1.8237818124	-0.42193
O	 0.7271245791	-2.2312634141	-0.1666049847	-0.281671
C	 1.1948373722	-0.8915848686	-0.256833718	-0.151914
H	 0.7558748431	 1.8690904541	 0.6211467667	 0.130715
H	 0.4229002287	 1.8077194757	-1.1044063731	 0.130155
H	-0.9201228684	 1.9323238852	 0.0465040066	 0.12962
H	-2.0831328852	-0.472522324	 0.3720856305	 0.09826
H	-0.8031277643	-2.7165547866	 1.1398357833	 0.078612
H	-2.5031742243	-3.071291401	-0.6559988264	 0.099516
H	-1.2944712243	-2.6434406856	-1.8741975112	 0.085962
H	 0.1155797843	-4.5898057106	-1.1169646666	 0.108106
H	-1.1194176813	-5.0112378118	 0.0745732366	 0.106352
H	-1.5070751759	-5.0302216329	-2.7104101008	 0.279038
H	 1.6751887559	-0.7267644744	-1.2347624661	 0.10025
H	 1.9638914876	-0.7033788485	 0.5115641835	 0.099454
55.9934	95.7872	98.7797	133.8865	170.9568	224.2042	284.2552	295.1683	332.4974	390.2021	428.1098	547.2118	610.4942	752.3024	790.3514	835.2394	877.3803	905.4932	976.8518	1000.1122	1020.6873	1026.8322	1049.0714	1073.4885	1089.0074	1097.0565	1113.9249	1172.2614	1201.5609	1214.2793	1263.2298	1299.1433	1312.2051	1345.3932	1375.5732	1387.7585	1402.3352	1414.2892	1420.005	1474.1805	1479.3805	1489.4145	1514.6167	1523.1516	1734.4414	2934.2339	2958.8796	2980.2972	3012.7784	3019.7099	3020.2697	3055.8275	3065.8753	3079.0701	3116.7335	3207.6653	3817.4699
CC1=CC(CCO)OC1	CC1=C[C@@H](CCO)OC1	
InChI=1S/C7H12O2/c1-6-4-7(2-3-8)9-5-6/h4,7-8H,2-3,5H2,1H3	InChI=1S/C7H12O2/c1-6-4-7(2-3-8)9-5-6/h4,7-8H,2-3,5H2,1H3/t7-/m1/s1
