20
gdb 32623	2.94526	1.26944	0.96616	1.017	83.22	-0.1743	0.0579	0.2322	1282.2911	0.169964	-403.190332	-403.180293	-403.179349	-403.225879	36.052	
C	-0.0562143486	 1.6013083027	 0.0936777418	-0.374268
C	-0.0212591212	 0.0743492054	-0.0143042617	-0.1503
N	-1.3414144934	-0.5324724921	 0.0076266883	-0.035154
C	-1.989059404	-1.0585982081	 1.1121446779	-0.114229
C	-3.2353432653	-1.471217507	 0.7211478124	-0.254142
C	-3.3849568453	-1.1874170263	-0.6749309844	 0.147747
C	-4.5718778315	-1.4660898161	-1.546931162	-0.512894
C	-2.1946102662	-0.6111490552	-1.0591694794	 0.277845
O	-1.7492011141	-0.1236264627	-2.2524264496	-0.450345
H	 0.9613829798	 2.0051083994	 0.0894163985	 0.113835
H	-0.6004903517	 2.0320913825	-0.7508460469	 0.138749
H	-0.5486618609	 1.9148200547	 1.0188978989	 0.125268
H	 0.476576416	-0.224411581	-0.941601667	 0.127402
H	 0.5469756867	-0.3568036735	 0.8152932996	 0.113112
H	-1.4912666667	-1.0904581289	 2.0677048322	 0.109693
H	-3.9760589265	-1.9350852751	 1.3555940027	 0.086889
H	-4.4981699951	-0.9530401165	-2.5144773205	 0.093109
H	-4.6989581908	-2.5349099299	-1.7618034204	 0.125074
H	-5.502440629	-1.1192927516	-1.0835277177	 0.128996
H	-2.3880664924	-0.3646715108	-2.9298996926	 0.303613
56.6295	60.8186	88.3842	166.6677	212.4544	224.8157	264.7041	294.6322	307.6443	395.8357	498.992	573.72	615.2914	634.5668	695.5269	727.4872	737.3888	782.3424	801.692	950.8487	976.9681	1033.428	1056.5248	1070.2683	1105.0226	1124.0888	1214.8951	1233.8847	1256.6	1319.8231	1374.3603	1392.6304	1409.9885	1415.9786	1425.2041	1478.1166	1481.5829	1491.5944	1503.1489	1507.1006	1528.8804	1554.3605	1641.2073	3008.0943	3041.4538	3055.1124	3055.8837	3073.7928	3095.0765	3114.0096	3129.7021	3236.8055	3266.9123	3842.4514
CCN1C=CC(C)=C1O	CCn1ccc(C)c1O	
InChI=1S/C7H11NO/c1-3-8-5-4-6(2)7(8)9/h4-5,9H,3H2,1-2H3	InChI=1S/C7H11NO/c1-3-8-5-4-6(2)7(8)9/h4-5,9H,3H2,1-2H3
