19
gdb 105432	2.36031	1.43987	1.17858	4.3669	80.48	-0.2377	0.006	0.2437	1138.9148	0.159951	-382.082245	-382.073428	-382.072484	-382.115648	33.246	
C	 0.1157233628	 1.2977731039	 0.2471584145	-0.341265
N	 0.1662527397	-0.12162927	-0.0895178199	-0.309275
C	 0.6775977968	-0.4696351571	-1.4204293661	 0.123003
C	 2.1931017601	-0.1125083231	-1.6505101209	-0.298035
C	 2.8997736944	-1.3941189965	-1.2853259174	-0.068231
C	 2.0640158344	-2.4292950447	-1.2327131902	-0.073213
C	 0.6446371949	-2.0293071395	-1.5470738318	-0.295702
C	-0.1778976082	 0.1693665902	-2.4324284621	 0.293754
N	-0.8289633392	 0.6707920804	-3.2449367635	-0.357664
H	 1.0828200372	 1.8254574518	 0.2082410585	 0.102791
H	-0.5730033406	 1.8081783939	-0.4324479608	 0.152786
H	-0.2802858569	 1.3978285325	 1.2612290635	 0.127193
H	 0.7216266684	-0.6269109299	 0.5937096512	 0.227044
H	 2.3860418962	 0.1601923411	-2.6958370126	 0.131141
H	 2.4935035965	 0.7479439959	-1.0450842704	 0.118175
H	 3.9703925548	-1.4396384124	-1.1217274923	 0.102746
H	 2.3430725083	-3.4560923094	-1.0264347818	 0.103406
H	-0.1052543564	-2.4345086189	-0.8613536743	 0.128059
H	 0.3588104566	-2.3423127681	-2.5583798834	 0.133287
90.3184	118.7583	169.8693	174.8571	233.9352	278.9897	369.2202	382.3251	446.4202	508.8496	562.2995	605.1499	683.2838	745.7328	771.5532	787.9486	900.116	935.2137	958.7165	974.2448	982.5245	1029.9398	1065.5261	1071.7198	1125.8392	1131.8309	1162.3172	1174.3112	1203.7019	1284.0661	1291.4036	1331.3591	1361.3341	1459.4633	1472.9893	1481.823	1483.2731	1499.0803	1521.0196	1687.076	2357.574	2968.7103	3031.7599	3038.7396	3077.536	3084.613	3087.8157	3119.897	3189.5151	3214.0635	3521.8469
CNC1(CC=CC1)C#N	CN[C@]1(CC=CC1)C#N	
InChI=1S/C7H10N2/c1-9-7(6-8)4-2-3-5-7/h2-3,9H,4-5H2,1H3	InChI=1S/C7H10N2/c1-9-7(6-8)4-2-3-5-7/h2-3,9H,4-5H2,1H3
