16
gdb 49083	2.89437	1.7793	1.2644	3.0035	69.01	-0.2288	-0.0336	0.1952	963.6619	0.125007	-437.814909	-437.808005	-437.807061	-437.846236	27.308	
O	 0.015676905	-0.0570798622	 0.1723792651	-0.263503
C	 0.0782719088	 1.107640662	-0.1422499966	 0.059436
C	 1.346239544	 1.8873109437	-0.1400815945	 0.261679
N	 2.5789141683	 1.1756663773	 0.0352366448	-0.371066
C	 3.5717537206	 2.270934349	 0.182795475	-0.19888
C	 2.6951247286	 3.4815826955	-0.1156753192	-0.069213
C	 1.5969211652	 3.0565944861	-1.1446004669	 0.023913
O	 0.5964766394	 3.9072814806	-0.4993693509	-0.312211
C	 1.3314890773	 3.3012671361	 0.6091218431	 0.001793
H	-0.8181546541	 1.6975511823	-0.4175232912	 0.102802
H	 2.5458760186	 0.5276483889	 0.8123348077	 0.236295
H	 4.0053115836	 2.3192390765	 1.18915974	 0.108965
H	 4.394480154	 2.1596942432	-0.532325512	 0.11772
H	 3.1313169453	 4.4767129423	-0.1854801214	 0.092601
H	 1.6284157146	 3.0240890615	-2.2334423931	 0.106641
H	 1.0323274908	 3.5542622972	 1.6267714701	 0.103029
115.3507	187.6287	254.0489	324.6837	379.3168	431.1724	574.239	638.5604	667.3204	729.2246	757.7786	776.5325	816.0049	877.0535	905.834	939.8397	955.99	987.2373	1029.2746	1053.5175	1062.7628	1086.9126	1146.422	1157.4502	1170.4069	1219.3499	1243.2658	1262.1726	1287.5767	1322.4121	1361.3233	1410.1722	1428.8425	1518.4429	1809.0413	2944.7987	3026.3982	3062.1985	3115.2935	3125.2186	3144.7534	3565.7764
O=CC12NCC3C1OC23	O=C[C@@]12NC[C@H]3[C@@H]1O[C@@H]23	
InChI=1S/C6H7NO2/c8-2-6-4-3(1-7-6)5(6)9-4/h2-5,7H,1H2	InChI=1S/C6H7NO2/c8-2-6-4-3(1-7-6)5(6)9-4/h2-5,7H,1H2/t3-,4-,5+,6+
