14
gdb 8604	2.07731	2.07722	1.47452	0.4854	74.58	-0.2652	0.0245	0.2896	936.0356	0.102155	-308.1507	-308.141739	-308.140794	-308.183503	33.169	
C	-0.0190006627	 1.536138021	 0.0104332123	-0.39663
C	 0.0022499419	-0.0243592367	 0.0019505305	-0.316162
C	 0.7165429323	-0.508463603	 1.1987382135	 0.361916
C	 1.3029997014	-0.8674124029	 2.1823503013	-0.466206
C	-1.3836102514	-0.5304937442	 0.0123841365	 0.361974
C	-2.5230127744	-0.9072568686	 0.0212854011	-0.466252
C	 0.6936637395	-0.4955367367	-1.2133048928	 0.361811
C	 1.261274774	-0.8437387308	-2.2117249049	-0.466128
H	 1.0052596971	 1.91351325	 0.002005678	 0.138657
H	-0.5476303847	 1.8970552979	-0.8738056535	 0.138661
H	-0.5294741644	 1.8876683558	 0.9090053209	 0.138657
H	 1.8195935696	-1.2016147676	 3.0481044984	 0.203234
H	-3.5259269618	-1.2568279152	 0.028983336	 0.20323
H	 1.7612424636	-1.168327239	-3.0907971074	 0.203237
124.2705	124.3753	149.7505	214.5248	214.8179	255.5419	341.4675	466.1995	466.3096	550.4475	550.5207	564.3964	643.3044	643.453	644.3861	651.4291	651.7809	653.7614	653.8247	944.5024	944.7298	1045.8036	1188.8981	1189.1619	1398.2002	1484.9894	1485.31	2241.6901	2241.7227	2249.6541	3058.1873	3149.0036	3149.086	3501.4283	3501.4919	3502.5149
CC(C#C)(C#C)C#C	CC(C#C)(C#C)C#C	
InChI=1S/C8H6/c1-5-8(4,6-2)7-3/h1-3H,4H3	InChI=1S/C8H6/c1-5-8(4,6-2)7-3/h1-3H,4H3
