19
gdb 105155	2.46769	1.1484	0.97537	2.479	84.63	-0.2498	-0.0279	0.2219	1294.8744	0.156205	-385.863581	-385.853837	-385.852893	-385.898117	35.916	
C	 0.2583980391	 1.506958825	 0.3174042433	-0.386881
C	-0.2034356296	 0.1151472755	-0.132532297	-0.264871
C	 0.6182758424	-0.4405306506	-1.2795147746	 0.235202
C	 2.0090259744	-0.9904954327	-1.0309849	-0.325503
C	 0.9162094148	-1.9614208126	-1.3813684831	-0.2666
C	 0.3773050347	-2.8665522373	-0.4121423183	 0.319788
C	-0.0767528391	-3.6406623656	 0.3888344854	-0.425254
C	 0.4064826333	 0.1795237182	-2.6150415644	 0.125377
O	-0.3855908036	 1.0575482946	-2.8509494306	-0.26571
H	 1.3036910547	 1.4928474177	 0.6447448682	 0.109548
H	 0.1638786568	 2.2309904955	-0.4954408853	 0.140919
H	-0.3489103528	 1.8592336289	 1.1565185925	 0.114468
H	-0.1607572237	-0.5862568457	 0.7059892248	 0.110829
H	-1.2496994188	 0.1633228137	-0.4526653702	 0.119008
H	 2.7807531457	-0.8133056855	-1.7730697866	 0.127315
H	 2.3519892627	-0.9748661353	-0.003135188	 0.139924
H	 0.941918866	-2.3524642068	-2.3955398587	 0.123625
H	-0.4770195365	-4.3240827239	 1.0961924269	 0.20138
H	 1.0510073796	-0.2444752931	-3.4225257644	 0.067435
86.3666	99.0062	122.7723	187.3031	203.7422	227.7143	282.2463	319.6322	345.2306	404.064	517.0935	535.3073	592.487	621.2618	656.8339	743.9189	768.3715	797.3051	847.9635	924.9471	964.384	1010.5002	1022.1886	1052.3662	1080.6364	1101.8629	1122.1067	1143.6007	1238.2075	1315.7573	1327.8713	1371.1518	1397.5422	1408.4716	1443.529	1475.519	1485.7369	1497.2317	1511.8569	1816.2782	2237.1639	2841.3071	3039.0396	3051.2752	3089.9358	3105.4487	3129.2699	3134.2376	3135.3143	3229.1591	3503.5097
CCC1(CC1C#C)C=O	CC[C@]1(C[C@H]1C#C)C=O	
InChI=1S/C8H10O/c1-3-7-5-8(7,4-2)6-9/h1,6-7H,4-5H2,2H3	InChI=1S/C8H10O/c1-3-7-5-8(7,4-2)6-9/h1,6-7H,4-5H2,2H3/t7-,8+/m1/s1
