17
gdb 124077	4.87356	0.99615	0.9407	3.2856	73.97	-0.242	0.0183	0.2603	1249.6068	0.138872	-418.002711	-417.995106	-417.994162	-418.036232	27.857	
C	-0.0241292935	 1.3645631058	-0.3623697616	-0.082259
O	 1.3101563998	 1.641965974	 0.1039064136	-0.27472
C	 1.4418261518	 0.3180122639	 0.6557191642	-0.082253
C	 0.0635771742	-0.1178319143	 0.0898646276	-0.138874
C	-0.9628927758	-0.6341348871	 1.0371692438	 0.33682
N	-1.6000828974	-1.7774226237	 0.7797831017	-0.295176
N	-2.4392575833	-1.9414314916	 1.8197180706	-0.182338
C	-2.3593948652	-0.9425158246	 2.730924249	-0.014447
C	-1.4071699359	-0.0669875605	 2.2595372984	-0.291174
H	-0.7797783096	 1.9579787849	 0.1687054122	 0.099355
H	-0.1291829664	 1.533553589	-1.4404971424	 0.10388
H	 2.3151437027	-0.2114579518	 0.257060037	 0.103882
H	 1.4998870266	 0.3305037069	 1.7519212166	 0.099356
H	 0.1477977222	-0.8130362481	-0.7460441352	 0.095778
H	-3.0335505774	-2.7523517266	 1.8422797843	 0.275935
H	-2.9704306626	-0.9336905722	 3.61973244	 0.134372
H	-1.0792607601	 0.847472176	 2.7270158903	 0.111861
46.4911	57.9364	155.0249	220.5755	387.3482	401.0534	509.8787	616.1014	664.7235	735.7512	776.161	831.4326	848.3563	888.4684	923.2054	951.0841	988.0438	1016.5265	1033.6985	1043.7235	1074.1851	1100.0291	1120.2065	1161.8744	1162.5071	1199.6188	1257.3279	1299.7138	1306.8789	1329.2747	1377.3835	1417.4638	1478.774	1493.751	1513.9253	1540.2771	1576.6632	3005.4858	3017.0493	3056.2536	3057.2324	3109.6815	3255.3934	3274.0762	3677.2199
C1OCC1C1=NNC=C1	C1OCC1c1n[nH]cc1	
InChI=1S/C6H8N2O/c1-2-7-8-6(1)5-3-9-4-5/h1-2,5H,3-4H2,(H,7,8)	InChI=1S/C6H8N2O/c1-2-7-8-6(1)5-3-9-4-5/h1-2,5H,3-4H2,(H,7,8)
