18
gdb 32939	6.19409	0.81116	0.72589	1.8168	76.21	-0.1847	0.058	0.2428	1560.5298	0.14849	-435.300406	-435.29107	-435.290126	-435.335167	33.433	
C	-0.1368003707	 1.5014699374	 0.0121204065	-0.391816
C	-0.016701304	-0.0099822076	-0.0110981271	-0.036096
O	-1.346649537	-0.550507449	 0.0369470604	-0.284384
C	-1.4136679667	-1.8883860623	 0.0295940401	 0.486693
N	-0.4319078718	-2.7470897241	-0.0136626967	-0.364071
C	-1.0542592713	-3.9911335821	-0.017111585	-0.158787
C	-2.4118372522	-3.8590139975	 0.0346013595	 0.257654
N	-3.5022773488	-4.7469468085	 0.1221094736	-0.613401
N	-2.6378505527	-2.483786568	 0.0620156045	-0.36302
H	 0.8590028137	 1.9530103093	-0.0233191338	 0.121436
H	-0.7095928153	 1.8609659563	-0.8475750584	 0.126662
H	-0.6366443399	 1.8392888934	 0.9244854043	 0.127025
H	 0.4816153444	-0.3679347699	-0.9187665668	 0.119914
H	 0.5540124844	-0.3892150357	 0.8436616539	 0.120876
H	-0.4785223266	-4.9035241373	-0.0546149318	 0.094117
H	-3.2177133626	-5.6220377698	 0.5449169899	 0.248559
H	-3.9025092602	-4.9617835108	-0.7872952975	 0.243845
H	-3.5286000426	-2.0311543137	 0.1770263447	 0.264795
55.6189	80.849	122.572	143.209	215.5495	253.088	329.8113	348.3413	370.7169	466.3948	504.3911	641.5002	687.1611	726.4563	766.4509	803.1576	809.6494	815.4822	910.2305	1005.2685	1051.1887	1079.468	1128.5266	1167.6977	1185.3779	1192.5638	1235.0294	1285.5403	1290.251	1386.3489	1404.4228	1418.1634	1484.6803	1497.0033	1500.7555	1523.6308	1604.9888	1628.7975	1660.4835	3040.035	3044.8497	3076.3649	3120.1416	3122.3754	3245.6003	3484.6212	3590.9802	3673.6479
CCOC1=NC=C(N)N1	CCOc1ncc(N)[nH]1	
InChI=1S/C5H9N3O/c1-2-9-5-7-3-4(6)8-5/h3H,2,6H2,1H3,(H,7,8)	InChI=1S/C5H9N3O/c1-2-9-5-7-3-4(6)8-5/h3H,2,6H2,1H3,(H,7,8)
