18
gdb 32099	3.01385	1.25727	0.9567	3.1032	82.76	-0.2314	-0.014	0.2173	1256.4265	0.149856	-398.208247	-398.199748	-398.198804	-398.242075	31.914	
C	-0.0079776733	 1.5309277164	 0.0172004506	-0.375055
C	 0.0307746233	-0.0067113377	-0.0172857385	-0.24745
C	 0.7157431778	-0.5109292304	-1.2618148221	 0.346292
N	-0.0539212637	-0.7302241033	-2.3337582162	-0.307442
C	 0.590522541	-1.1447409445	-3.4329991349	 0.011636
C	 1.9553340044	-1.3391825127	-3.4895442078	-0.201349
C	 2.6682354365	-1.0760922243	-2.3066177066	 0.388186
N	 4.0299786857	-1.1870989101	-2.2352821036	-0.56693
N	 2.0424693568	-0.6665811983	-1.1959487506	-0.346161
H	 1.0052505039	 1.943973224	 0.0000376052	 0.124654
H	-0.5517437864	 1.9229945347	-0.8476316641	 0.127675
H	-0.5066992426	 1.8857931397	 0.9241304159	 0.111623
H	 0.5705531761	-0.381400668	 0.8570753543	 0.106978
H	-0.9884236161	-0.4019842873	 0.0011414631	 0.112435
H	-0.0263288165	-1.3308169341	-4.3100776704	 0.108119
H	 2.4492746018	-1.6738619603	-4.3942822049	 0.090514
H	 4.5059375969	-1.755824251	-2.9150759855	 0.256402
H	 4.4175022544	-1.1795043627	-1.304903614	 0.259871
30.7993	126.6231	200.8961	220.9972	295.605	319.8537	382.3821	442.4238	457.5604	502.3664	558.4099	584.91	715.9579	763.0116	798.6235	824.3076	842.4414	941.2899	992.9278	1002.7629	1004.985	1056.7034	1080.6441	1118.295	1140.1538	1262.9694	1276.6003	1316.6776	1351.1122	1385.6844	1400.1489	1444.307	1477.2631	1493.9754	1498.2249	1510.4056	1604.915	1617.2876	1647.7846	3038.0228	3058.1556	3100.4982	3111.2271	3123.2572	3147.8349	3195.1718	3594.6091	3718.2769
CCC1=NC=CC(N)=N1	CCc1nccc(N)n1	
InChI=1S/C6H9N3/c1-2-6-8-4-3-5(7)9-6/h3-4H,2H2,1H3,(H2,7,8,9)	InChI=1S/C6H9N3/c1-2-6-8-4-3-5(7)9-6/h3-4H,2H2,1H3,(H2,7,8,9)
