17
gdb 28417	3.03667	1.31748	0.92414	2.7891	79.71	-0.1944	0.0026	0.1969	1215.5585	0.136046	-421.901157	-421.8927	-421.891756	-421.933715	32.698	
C	 0.0485692888	 1.4967509142	 0.0234152158	-0.536707
C	 0.0559560696	-0.0120993976	 0.0157394077	 0.223265
C	 0.0476245372	-0.7286547752	-1.184000081	-0.354952
C	 0.0543771899	-2.1214859936	-1.1992855968	 0.395169
O	 0.0464944549	-2.849531299	-2.3584075035	-0.451236
C	 0.0697823848	-2.8199894816	 0.0072749099	-0.199493
C	 0.0781890642	-2.1223628166	 1.2069370831	-0.167881
C	 0.0714081916	-0.7286353705	 1.2193347645	 0.27189
O	 0.0804830409	-0.1130197509	 2.4435167076	-0.446257
H	 0.936209293	 1.9103602562	 0.521141997	 0.132271
H	 0.0366612694	 1.8943614479	-0.993947168	 0.13239
H	-0.8332191243	 1.9016194795	 0.5384328555	 0.132269
H	 0.0356003426	-0.1807419887	-2.1239679287	 0.075359
H	 0.0362920779	-2.2440621407	-3.1062748425	 0.293092
H	 0.0749936788	-3.9036108475	-0.0094984404	 0.103822
H	 0.0901730564	-2.6479528905	 2.1551341585	 0.103274
H	 0.0743760643	 0.8404897446	 2.3199716314	 0.293724
139.8839	160.8163	199.7058	276.4147	289.5388	324.0567	342.9858	377.0101	452.1476	456.7515	501.0684	577.9536	590.0721	724.7767	737.113	785.4031	837.1989	849.6909	938.4215	962.9391	1008.9724	1053.8928	1114.2675	1170.063	1195.2073	1216.409	1263.7837	1334.1468	1337.5553	1374.4931	1409.8643	1476.6252	1487.4321	1513.2059	1541.6891	1648.7305	1666.806	3005.4751	3049.6569	3115.4111	3142.437	3190.7735	3206.6027	3828.781	3841.0545
CC1=CC(O)=CC=C1O	Cc1cc(O)ccc1O	
InChI=1S/C7H8O2/c1-5-4-6(8)2-3-7(5)9/h2-4,8-9H,1H3	InChI=1S/C7H8O2/c1-5-4-6(8)2-3-7(5)9/h2-4,8-9H,1H3
