20
gdb 18054	3.30383	2.07308	1.52606	1.6752	73.76	-0.2393	0.0826	0.3219	896.2383	0.180584	-349.006566	-348.999643	-348.998699	-349.037636	27.58	
C	 0.00229603	 1.5584266337	 0.0797155872	-0.084112
O	 1.4398151037	 1.541880318	-0.0500139565	-0.297253
C	 1.3847847386	 0.1755585765	-0.5368755445	 0.160896
C	 2.5104227041	-0.7167897725	-0.0439248251	-0.227793
C	 2.3394557229	-1.1669298441	 1.4124449546	-0.189473
C	 0.933576733	-1.7390912196	 1.6363566578	-0.191173
C	-0.1236615028	-0.6460315648	 1.4265809346	-0.205087
C	-0.0505326842	 0.0167318555	 0.0357051294	-0.05741
H	-0.3253031254	 2.049611272	 1.0029380438	 0.100279
H	-0.4744560557	 2.0499495474	-0.7808944322	 0.089641
H	 1.3747552192	 0.1846993743	-1.6382256379	 0.06098
H	 2.5409402779	-1.6032735214	-0.692150404	 0.094572
H	 3.4601647747	-0.1888663163	-0.1909060407	 0.107437
H	 3.1057274636	-1.9089386247	 1.6607018382	 0.088793
H	 2.4935057768	-0.3136672585	 2.0847324212	 0.105824
H	 0.7616348534	-2.5756778231	 0.9442246986	 0.08919
H	 0.8409510404	-2.1480793742	 2.6484178934	 0.092134
H	-1.1306775544	-1.0442643854	 1.5912362812	 0.092307
H	 0.0333113511	 0.1186365923	 2.1977680656	 0.101911
H	-0.776553037	-0.4235221052	-0.6520615646	 0.068335
107.1201	147.8607	292.4768	349.5738	373.6134	435.1426	470.3309	624.5397	742.1099	772.1217	812.1182	840.8948	859.1577	903.2049	940.349	954.5569	998.5697	1012.9512	1043.3363	1052.9939	1073.3428	1125.8686	1140.4967	1153.7449	1175.6407	1210.6512	1240.6142	1274.0962	1297.1813	1304.0723	1344.5394	1359.4253	1365.5644	1374.0213	1385.2117	1389.2149	1408.2638	1464.7597	1485.1541	1490.2305	1499.6438	1524.7271	2967.6331	2994.3846	3008.7363	3018.5074	3022.8811	3029.3146	3059.1425	3059.7	3062.5637	3066.5869	3075.2431	3083.2112
C1OC2CCCCC12	C1O[C@H]2CCCC[C@@H]12	
InChI=1S/C7H12O/c1-2-4-7-6(3-1)5-8-7/h6-7H,1-5H2	InChI=1S/C7H12O/c1-2-4-7-6(3-1)5-8-7/h6-7H,1-5H2/t6-,7-/m0/s1
