20
gdb 9347	7.07655	0.77473	0.73064	3.6007	74.36	-0.2357	0.0669	0.3027	1613.0769	0.176166	-382.36705	-382.356659	-382.355715	-382.403903	35.188	
C	-0.1703279383	 1.5038438215	-0.0599395185	-0.378166
C	-0.1609110246	-0.0172781963	-0.2305293049	-0.165914
C	 1.0889025189	-0.5115754712	-0.9646613448	-0.136081
N	 1.1100344479	-1.9572247217	-1.1146818948	-0.371795
C	 1.4039508046	-2.5477398045	-2.3275914808	 0.494903
O	 1.5232068011	-1.9213265152	-3.3676223207	-0.407194
N	 1.5591256282	-3.9208262433	-2.2542890822	-0.361239
C	 1.6484010114	-4.7004196898	-3.4754420761	-0.320522
H	 0.6991426106	 1.8456700951	 0.5127918563	 0.114369
H	-0.1452468606	 2.0101402367	-1.0309655082	 0.122275
H	-1.0681095862	 1.8387740198	 0.4677748501	 0.114288
H	-0.2203408041	-0.498933267	 0.7551516179	 0.084673
H	-1.0471738531	-0.3438707763	-0.7867696078	 0.106281
H	 1.1318541423	-0.1023362982	-1.9766314883	 0.149451
H	 1.9900847133	-0.1636052851	-0.4371587159	 0.093863
H	 1.2682828191	-2.4999224874	-0.2803897666	 0.229388
H	 1.1559672213	-4.3844199722	-1.4552346218	 0.231052
H	 0.6669620777	-5.0194602998	-3.8524661984	 0.116485
H	 2.1158325426	-4.0743351917	-4.2354435289	 0.166872
H	 2.2651850777	-5.5883266333	-3.3079322155	 0.117012
25.9522	65.0028	84.7396	89.3994	147.3622	223.6447	235.0054	271.6201	334.9225	349.0492	362.3364	484.0808	566.7743	716.5124	756.8109	764.2152	878.2506	898.6231	963.6366	1032.066	1068.1249	1128.3062	1148.8	1158.3893	1181.6137	1193.6646	1238.962	1276.9936	1322.7942	1338.9469	1406.2547	1414.6811	1439.7141	1487.2609	1488.427	1497.8499	1498.2889	1500.4407	1512.7804	1522.7415	1563.4467	1783.3574	2988.2164	3009.2919	3014.698	3032.3031	3060.3848	3081.9564	3097.6371	3107.2471	3116.866	3157.2988	3616.7661	3623.3979
CCCNC(=O)NC	CCCNC(=O)NC	
InChI=1S/C5H12N2O/c1-3-4-7-5(8)6-2/h3-4H2,1-2H3,(H2,6,7,8)	InChI=1S/C5H12N2O/c1-3-4-7-5(8)6-2/h3-4H2,1-2H3,(H2,6,7,8)
