18
gdb 133658	2.34458	1.27784	1.00658	2.8447	60.74	-0.2735	0.0678	0.3412	1207.0263	0.141455	-570.603937	-570.593841	-570.592897	-570.63942	36.225	
C	 0.0174723069	 1.5898362261	 0.1495295991	-0.407526
C	 0.006728963	 0.0718896434	-0.0532688681	 0.143262
O	 0.8685672867	-0.5586957469	 0.8833588832	-0.430269
C	-1.4280755135	-0.5132028455	-0.0382556635	-0.183663
C	-2.2574974339	-0.0362177071	-1.2409353979	-0.416108
C	-1.4125830533	-2.0423386365	 0.0138466309	 0.30636
F	-1.0032214936	-2.5061220771	 1.2058739359	-0.084176
F	-2.6457367198	-2.5488988733	-0.1823003198	-0.088139
F	-0.6173087676	-2.5690803457	-0.9281952963	-0.079562
H	 1.0537468482	 1.9334522932	 0.1944900854	 0.132509
H	-0.4857610529	 2.1249563228	-0.6601086041	 0.121055
H	-0.4722667553	 1.8607500137	 1.0930218135	 0.109338
H	 0.4510534315	-0.1632461631	-1.0272353997	 0.10319
H	 0.4524553294	-0.5326246507	 1.7516823539	 0.278089
H	-1.9261770573	-0.1988415139	 0.8891636492	 0.095064
H	-2.3532941996	 1.0507645208	-1.2390554031	 0.126831
H	-1.783688185	-0.3363766781	-2.1809869286	 0.134911
H	-3.2604240038	-0.4648980721	-1.21550339	 0.138834
46.7215	72.0732	176.5398	184.1067	197.6991	233.3528	259.9578	307.5569	331.0961	346.9946	422.9598	459.7485	498.9231	550.0342	582.925	671.0023	795.8422	851.2714	932.9019	976.0441	1032.5718	1081.0518	1084.5006	1103.7725	1154.7406	1173.5521	1206.4827	1269.0977	1285.384	1330.3127	1357.6032	1387.7176	1404.7983	1413.9508	1429.4784	1491.129	1494.0062	1500.1372	1510.8805	3023.137	3031.068	3052.7717	3056.8132	3106.3321	3125.9189	3130.6719	3146.115	3810.0255
CC(O)C(C)C(F)(F)F	C[C@@H](O)[C@@H](C)C(F)(F)F	
InChI=1S/C5H9F3O/c1-3(4(2)9)5(6,7)8/h3-4,9H,1-2H3	InChI=1S/C5H9F3O/c1-3(4(2)9)5(6,7)8/h3-4,9H,1-2H3/t3-,4-/m1/s1
