19
gdb 84706	2.86498	1.57385	1.10508	1.7129	82.37	-0.2359	0.0084	0.2443	1107.0387	0.161575	-385.904287	-385.896749	-385.895804	-385.93609	30.356	
O	-0.0722676176	 1.4300074102	-0.0663634999	-0.425127
C	 0.0350173903	 0.0142727496	-0.0504005914	-0.014664
C	 0.6929652099	-0.5661270536	 1.2015624927	-0.11454
C	 0.0305269399	-1.6152257555	 1.6988175849	-0.103855
C	-1.1727827129	-1.9619032681	 0.8473110678	-0.088738
C	-2.6001064843	-2.0922989212	 1.4306944272	-0.235031
C	-3.494483932	-1.3977831831	 0.3608790333	-0.242854
C	-2.5448777778	-0.3924648225	-0.2710305169	-0.223871
C	-1.281233413	-0.7196185276	-0.0170818822	 0.28771
H	-0.6668707811	 1.6694195841	 0.6541766936	 0.273259
H	 0.6336652575	-0.2226950932	-0.941339517	 0.10255
H	 1.6109840003	-0.1429968415	 1.5947742799	 0.099801
H	 0.3348291874	-2.1915672761	 2.5665027408	 0.097618
H	-0.9458466328	-2.8536572496	 0.2397082757	 0.085561
H	-2.898262154	-3.1243492867	 1.6348769422	 0.093153
H	-2.664045606	-1.5322666102	 2.3704004719	 0.101241
H	-3.8690120778	-2.1189352884	-0.3800686927	 0.106409
H	-4.3782314706	-0.9226689923	 0.8004967789	 0.102251
H	-2.8772576655	 0.4850607457	-0.8138929788	 0.099127
117.6443	171.5152	240.9379	282.1439	333.2094	359.4521	487.4656	530.0013	590.758	620.4286	687.8315	754.5129	783.0806	838.1488	852.5221	903.1376	909.9352	948.4224	964.6623	976.6731	990.0173	1049.0549	1057.173	1088.1648	1128.2661	1152.3414	1166.9844	1215.6203	1241.0984	1253.7978	1269.7574	1282.3464	1311.8886	1315.8061	1343.6003	1367.0861	1420.6313	1484.6689	1498.5915	1654.7048	1734.6192	2959.8582	3003.7548	3008.059	3041.4657	3062.9699	3097.0453	3177.3351	3198.3726	3204.2071	3791.249
OC1C=CC2CCC=C12	O[C@H]1C=C[C@H]2CC[CH][C]12	
InChI=1S/C8H10O/c9-8-5-4-6-2-1-3-7(6)8/h3-6,8-9H,1-2H2	InChI=1S/C8H10O/c9-8-5-4-6-2-1-3-7(6)8/h3-6,8-9H,1-2H2/t6-,8+/m1/s1
