20
gdb 43677	5.08773	0.78876	0.71629	2.7269	80.88	-0.2292	-0.0219	0.2073	1571.2293	0.16989	-403.120543	-403.111733	-403.110789	-403.154805	32.862	
O	 0.0020830486	 0.0124724015	-0.2117816938	-0.279891
C	-0.0057020901	 1.1904148836	-0.0228032165	 0.391942
C	-1.0756519317	 2.2353622087	 0.3291121525	-0.286647
N	 0.0255861309	 3.1866409674	 0.6000017163	-0.082497
C	-0.1143598874	 4.5425462414	 0.1005779537	-0.1703
C	 1.0395227826	 5.4247363718	 0.5179364085	 0.028538
C	 2.2730763819	 5.5488350456	-0.3455310796	-0.254344
C	 1.314175443	 6.7058621209	-0.2256706821	-0.276085
C	 1.0494091292	 2.3058360968	-0.0098800819	-0.282494
H	-1.6909871078	 2.4840827338	-0.5526989515	 0.113745
H	-1.7376108267	 2.021681381	 1.1751191405	 0.131073
H	-0.2116328905	 4.5669857111	-1.00530512	 0.069473
H	-1.0510872998	 4.9451392357	 0.5067234922	 0.107801
H	 1.2034765226	 5.4434987733	 1.59142388	 0.092764
H	 3.2385464406	 5.6228210293	 0.1423045134	 0.114912
H	 2.292675395	 5.0095492064	-1.287078658	 0.109582
H	 0.6922789493	 6.9362660053	-1.0848457064	 0.111806
H	 1.6192062681	 7.5754948851	 0.3451961958	 0.114698
H	 1.9551588396	 2.1446151369	 0.5827241814	 0.132499
H	 1.3415025327	 2.5850194743	-1.0364966944	 0.113424
74.4757	76.7587	95.9919	170.3034	273.454	330.2902	352.7687	406.0023	433.7817	494.8497	666.5276	758.3245	772.8493	780.9149	817.5763	842.8872	906.528	949.8546	958.2964	1002.4692	1052.7402	1057.7009	1066.3145	1081.5367	1095.4202	1114.6685	1141.7762	1154.4477	1187.8567	1198.2658	1214.7097	1225.0465	1248.0752	1288.3774	1311.6554	1366.7297	1426.8219	1458.6298	1467.6676	1478.9533	1494.7708	1508.6427	1921.38	2881.6213	2961.9098	2973.3851	3037.4856	3066.6844	3076.5728	3129.8002	3134.4446	3152.6164	3208.2383	3223.1815
O=C1CN(CC2CC2)C1	O=C1CN(CC2CC2)C1	
InChI=1S/C7H11NO/c9-7-4-8(5-7)3-6-1-2-6/h6H,1-5H2	InChI=1S/C7H11NO/c9-7-4-8(5-7)3-6-1-2-6/h6H,1-5H2
