16
gdb 51541	7.07304	0.66586	0.637	3.5755	70.45	-0.2558	-0.0089	0.2469	1654.9715	0.122868	-475.044318	-475.03532	-475.034376	-475.080969	29.893	
O	 0.3267345157	-0.0753207638	-0.0116358679	-0.260815
C	 0.1607651237	 1.1022043463	-0.0779187448	 0.168855
O	 1.1444564891	 1.9918231068	 0.189794554	-0.185269
C	 0.8559411673	 3.3732210505	 0.0900217163	 0.102747
C	 1.3001857443	 4.2006868547	 1.3296387274	-0.206394
N	 2.1458691033	 4.9856363168	 0.4285486946	-0.048033
C	 1.8757840633	 4.1797563822	-0.7604996781	-0.193319
C	 2.8988458363	 6.0990197324	 0.5718003419	 0.134493
O	 3.5218967954	 6.6205823528	-0.3290389501	-0.323613
H	-0.792190327	 1.5914942533	-0.358666151	 0.085933
H	-0.1880789649	 3.5263548736	-0.1971681333	 0.106188
H	 0.5117700797	 4.7655782349	 1.8375167807	 0.127417
H	 1.8528373656	 3.59913196	 2.05965159	 0.138806
H	 2.7291031598	 3.5804838565	-1.0939276679	 0.143267
H	 1.4713225241	 4.7432682722	-1.6060970234	 0.13511
H	 2.8761046643	 6.4849428906	 1.6115398115	 0.074628
14.7983	42.7934	82.7007	150.6539	183.039	267.7962	312.042	359.9311	400.6231	557.2187	610.3097	792.4535	872.103	878.6801	962.9776	1013.1914	1033.9269	1040.2844	1050.2114	1136.1391	1142.9152	1171.7822	1187.8837	1209.5966	1259.5891	1285.2438	1316.608	1388.287	1403.4286	1439.4673	1457.4628	1498.2647	1517.6119	1794.2214	1877.1066	2926.8177	2950.7888	3034.6832	3050.4808	3067.2306	3088.4043	3103.1514
O=COC1CN(C1)C=O	O=COC1CN(C1)C=O	
InChI=1S/C5H7NO3/c7-3-6-1-5(2-6)9-4-8/h3-5H,1-2H2	InChI=1S/C5H7NO3/c7-3-6-1-5(2-6)9-4-8/h3-5H,1-2H2
