18
gdb 16415	3.45458	2.15288	1.7662	1.6766	71.64	-0.2409	0.0076	0.2485	808.8486	0.156521	-347.796065	-347.78948	-347.788536	-347.826324	27.23	
O	 0.1348918653	 1.390401015	-0.1888666679	-0.442174
C	 0.0244093313	-0.0234460904	-0.0262536828	 0.114025
C	 0.7588284066	-0.5058114148	 1.206920488	-0.121051
C	 0.097013092	-1.2167426193	 2.1220521285	-0.05929
C	-1.3627056823	-1.5283524291	 1.8717342039	-0.050628
C	-1.5074246389	-2.0020318093	 0.3893277981	-0.226228
C	-1.4432445004	-0.4915509458	 0.0179832236	-0.037986
C	-2.0660155831	-0.2123720353	 1.416951632	-0.225072
H	-0.1549505658	 1.7962318502	 0.6356262304	 0.275998
H	 0.4984504888	-0.4315366799	-0.9287681314	 0.090126
H	 1.8046131448	-0.2329038983	 1.3116979056	 0.09301
H	 0.5756997179	-1.5791877044	 3.0270055777	 0.091134
H	-1.8168701429	-2.1240735097	 2.664635755	 0.059985
H	-0.7312225914	-2.6652640091	-0.0011585872	 0.096481
H	-2.4947955138	-2.4248616168	 0.1829874288	 0.096348
H	-1.9763714822	-0.141249044	-0.8682506795	 0.067368
H	-3.1539966991	-0.3155255146	 1.3927324519	 0.09798
H	-1.7995879969	 0.7088602657	 1.9437707353	 0.079973
163.2371	257.2115	316.6538	379.5278	404.3327	442.0521	492.1959	615.4374	673.767	748.9662	813.418	822.9567	861.4108	906.1543	922.7292	946.7551	965.8232	987.6444	1007.954	1052.3811	1080.1808	1089.9605	1112.7548	1127.0812	1141.2977	1181.6291	1244.8061	1247.0569	1260.918	1270.1024	1324.8276	1331.9183	1360.2967	1391.8593	1421.7713	1476.8247	1505.2189	1691.9641	3021.8154	3044.984	3051.223	3087.0989	3095.3231	3103.742	3109.79	3161.4976	3185.3182	3802.7907
OC1C=CC2CC1C2	O[C@H]1C=C[C@@H]2C[C@H]1C2	
InChI=1S/C7H10O/c8-7-2-1-5-3-6(7)4-5/h1-2,5-8H,3-4H2	InChI=1S/C7H10O/c8-7-2-1-5-3-6(7)4-5/h1-2,5-8H,3-4H2/t5-,6+,7-/m0/s1
