13
gdb 129784	3.58811	1.67829	1.14448	1.9379	67.98	-0.1971	-0.0101	0.187	963.6918	0.092516	-448.923767	-448.917047	-448.916103	-448.954605	26.326	
N	 0.0355383321	 1.3765833243	 0.1865051645	-0.596213
C	-0.0789445525	 0.018833851	 0.0724026667	 0.36706
C	-1.1366738168	-0.8555586886	 0.0480666485	 0.094885
N	-2.5208173134	-0.9833918888	 0.0525945853	-0.353059
C	-2.7026157491	-2.2714269479	 0.0036315992	 0.00472
N	-1.5284413488	-3.0296090027	-0.0349394635	-0.407365
C	-0.5013019754	-2.1166138593	-0.0074122098	 0.471321
N	 0.8112480058	-2.107240235	-0.0218964429	-0.314823
O	 1.0664453287	-0.6852492318	 0.0311155395	-0.225604
H	 0.9071401706	 1.7608978092	-0.1485815339	 0.270086
H	-0.7783865599	 1.894975764	-0.1076875957	 0.275814
H	-3.6665220293	-2.761046688	-0.0091174409	 0.137489
H	-1.4627728021	-4.0317950764	-0.0729562171	 0.275689
194.0951	250.0233	270.557	319.2092	384.928	423.9715	544.4173	569.1453	631.6002	641.1528	657.8788	706.2235	776.4091	802.2901	850.8331	877.4108	943.8731	1046.863	1059.4343	1147.0163	1275.6385	1327.8041	1347.5744	1400.4892	1450.3474	1552.946	1607.4887	1648.0723	1722.0598	3241.9064	3573.2852	3682.3602	3682.7276
NC1=C2N=CNC2=NO1	Nc1c2nc[nH]c2no1	
InChI=1S/C4H4N4O/c5-3-2-4(8-9-3)7-1-6-2/h1H,5H2,(H,6,7,8)	InChI=1S/C4H4N4O/c5-3-2-4(8-9-3)7-1-6-2/h1H,5H2,(H,6,7,8)
