17
gdb 127044	6.61329	0.8244	0.74323	0.325	72.16	-0.255	-0.0093	0.2457	1534.1267	0.13498	-455.160181	-455.151138	-455.150194	-455.195123	31.269	
C	-0.1060220179	 1.4890703043	 0.1121470682	-0.393622
C	-0.0152783563	-0.0129143807	-0.0667499317	-0.04841
O	-1.3372609488	-0.5530730401	 0.130182982	-0.252279
C	-1.4507498884	-1.8660917336	 0.0110002534	 0.446005
N	-0.4569102107	-2.6776415956	-0.26787329	-0.237261
O	-1.0954396478	-3.9354518387	-0.2798696257	-0.208404
C	-2.3875649711	-3.7142459414	-0.006883009	 0.423061
C	-3.3004055238	-4.8855161804	 0.0435280962	-0.493958
N	-2.6760755789	-2.4623617963	 0.1832560656	-0.365349
H	 0.8812462019	 1.9379889688	-0.0300341482	 0.12493
H	-0.794044636	 1.926292331	-0.616496162	 0.134705
H	-0.4599431041	 1.740157787	 1.115717819	 0.134705
H	 0.3327230849	-0.287518691	-1.0687962338	 0.127238
H	 0.6657516891	-0.4730558138	 0.6578721737	 0.127238
H	-2.9727306689	-5.5952911678	 0.8089864941	 0.158499
H	-4.3096044988	-4.5452149122	 0.2736176412	 0.164416
H	-3.3039202545	-5.4114495196	-0.9158678331	 0.158483
54.0169	62.7946	100.1895	143.1646	218.9806	257.676	315.506	347.8787	380.0519	500.1972	660.9133	689.6095	774.6217	778.276	814.7529	916.8771	940.0164	999.8341	1042.7567	1052.8065	1068.7619	1112.452	1137.5515	1183.1832	1295.7629	1302.0663	1381.536	1406.8386	1414.4496	1451.1565	1475.4507	1475.971	1484.2312	1497.682	1518.8044	1598.1619	1643.6524	3038.5441	3048.691	3054.0012	3078.016	3113.3247	3124.1911	3128.6567	3165.1327
CCOC1=NOC(C)=N1	CCOc1noc(C)n1	
InChI=1S/C5H8N2O2/c1-3-8-5-6-4(2)9-7-5/h3H2,1-2H3	InChI=1S/C5H8N2O2/c1-3-8-5-6-4(2)9-7-5/h3H2,1-2H3
