19
gdb 88775	3.41377	1.2317	1.07726	2.8719	75.65	-0.2436	0.0283	0.2719	1175.5711	0.160905	-419.193243	-419.18486	-419.183916	-419.227042	30.932	
C	 0.020858662	 1.5642739573	-0.2380668682	-0.404511
C	 0.082340832	 0.0825466803	 0.0465576618	 0.001459
N	 1.4006427749	-0.5802400007	 0.0150369578	-0.330714
C	 0.6428268122	-0.5571465452	 1.2697271989	-0.039049
C	 1.2731039733	 0.1151870695	 2.4729538256	 0.071623
C	 2.3868764288	-0.750799956	 3.1381140377	-0.191451
N	 3.6224026447	 0.0362879062	 3.0007025612	-0.26232
C	 3.276879476	 1.1147150317	 2.4378543366	 0.131495
O	 1.977334137	 1.3305916027	 2.1185300922	-0.216342
H	 0.8735341123	 2.0840236589	 0.1953049045	 0.149972
H	 0.0147366093	 1.7372168514	-1.3197790316	 0.115226
H	-0.8991066217	 1.994975868	 0.1729678411	 0.111562
H	-0.7399308547	-0.4794460588	-0.3987814507	 0.081637
H	 1.3465292155	-1.491515597	-0.4300170281	 0.232014
H	 0.1473881164	-1.4810866787	 1.5753869455	 0.084844
H	 0.4878562162	 0.3951600884	 3.183268125	 0.094643
H	 2.1893353454	-0.9505113962	 4.1963749684	 0.114735
H	 2.50506906	-1.7166788534	 2.635435391	 0.114813
H	 3.9393759804	 1.9330064515	 2.1792885015	 0.140364
57.2223	70.9211	162.4343	200.8978	241.4667	276.2609	392.6921	486.214	487.0203	645.5464	738.8542	773.0481	786.7742	860.2725	887.2586	927.1782	957.6007	976.5548	983.2595	991.2812	1023.9271	1059.3004	1074.9364	1096.8548	1126.8836	1154.3275	1200.7914	1213.6302	1259.7135	1280.2161	1301.5541	1321.2641	1337.3639	1381.1743	1402.2341	1428.7185	1471.18	1496.3026	1499.1264	1505.8924	1716.9876	3037.4634	3039.2455	3048.6525	3077.8969	3080.2597	3091.8163	3094.1737	3172.5911	3219.5139	3512.5787
CC1NC1C1CN=CO1	C[C@H]1N[C@H]1[C@H]1CN=CO1	
InChI=1S/C6H10N2O/c1-4-6(8-4)5-2-7-3-9-5/h3-6,8H,2H2,1H3	InChI=1S/C6H10N2O/c1-4-6(8-4)5-2-7-3-9-5/h3-6,8H,2H2,1H3/t4-,5-,6-/m1/s1
