14
gdb 25300	3.22408	1.30833	0.93067	4.3047	72.44	-0.2341	-0.0832	0.1509	1157.6514	0.101782	-436.745457	-436.737791	-436.736847	-436.778251	27.81	
O	-0.8987421159	 1.3111389595	 0.0817508584	-0.245686
C	 0.2266816139	 0.9899081655	-0.200533115	 0.092271
C	 1.4423519176	 1.9242236045	-0.3158717646	 0.190947
O	 2.4948363672	 1.3835343347	-0.6153621167	-0.321966
C	 1.2963904769	 3.3484692849	-0.0747513163	 0.174964
C	 0.145300738	 4.0496955836	 0.2693431289	-0.160501
N	 0.4856028093	 5.3563364676	 0.3918162891	-0.240385
C	 1.8344561048	 5.5288030865	 0.1359548288	-0.059057
C	 2.3625362171	 4.3041032581	-0.1557237212	-0.238226
H	 0.5193694125	-0.0599207866	-0.4171087299	 0.107689
H	-0.8592328434	 3.6985981103	 0.4267311483	 0.167523
H	-0.1537501665	 6.0938660737	 0.6352043817	 0.272532
H	 2.2842033095	 6.5069404404	 0.1867556444	 0.133862
H	 3.3864245591	 4.0761334571	-0.4031195857	 0.126034
76.6824	128.0825	177.1071	180.8846	268.0021	442.7114	541.8607	561.891	562.5592	645.6018	667.3886	692.8827	729.4606	837.7947	878.9853	901.0643	942.6646	1028.8975	1041.2424	1100.8145	1123.0934	1164.561	1266.9821	1357.5274	1376.51	1406.7358	1454.1917	1535.6405	1583.0234	1739.7855	1822.1191	2918.3407	3264.0664	3283.2446	3301.9559	3672.5799
O=CC(=O)C1=CNC=C1	O=CC(=O)c1c[nH]cc1	
InChI=1S/C6H5NO2/c8-4-6(9)5-1-2-7-3-5/h1-4,7H	InChI=1S/C6H5NO2/c8-4-6(9)5-1-2-7-3-5/h1-4,7H
