14
gdb 27399	2.03377	1.87817	0.97644	4.3624	69.01	-0.2037	0.0087	0.2124	1108.4711	0.103043	-470.060082	-470.052466	-470.051522	-470.092103	29.371	
O	-0.1638012891	 1.3149535244	 0.0108980079	-0.423189
C	 0.048485244	-0.0177045989	 0.0024326851	 0.473281
C	 1.2183461489	-0.6791079028	-0.0073038101	-0.311964
C	 1.2308935972	-2.1412411239	-0.0154477382	 0.340344
N	 2.3400143842	-2.7826816983	-0.0247492815	-0.552973
N	-0.0279969124	-2.7906921948	-0.0125008492	-0.432247
C	-1.0916136729	-2.0824978321	-0.0030595706	 0.503064
O	-2.3164467929	-2.6342825728	 0.0002469701	-0.410935
N	-1.1444002	-0.7159872288	 0.0047801658	-0.407619
H	 0.6889767973	 1.7636323038	 0.0089477289	 0.317146
H	 2.1650136887	-0.1551680925	-0.0093281078	 0.103382
H	 2.1377881155	-3.7839059661	-0.0292316957	 0.205004
H	-2.1705820698	-3.5907941555	-0.0058041904	 0.315271
H	-2.0250720086	-0.2273286715	 0.0120259289	 0.281434
124.0996	171.4128	232.5354	336.6554	360.3213	361.8092	414.1666	508.9737	535.4244	539.3301	582.3649	643.1979	648.7096	692.0115	751.5554	828.4179	889.8838	935.2203	1025.5805	1042.2716	1145.4299	1184.3932	1214.3473	1264.5676	1323.6952	1368.9316	1486.7864	1557.4487	1661.0317	1697.9728	1754.9887	3219.4305	3464.8083	3657.2858	3777.8013	3827.9102
OC1=CC(=N)N=C(O)N1	O[C@H]1C=C([NH])N=C(O)N1	
InChI=1S/C4H5N3O2/c5-2-1-3(8)7-4(9)6-2/h1H,(H4,5,6,7,8,9)	InChI=1S/C4H6N3O2/c5-2-1-3(8)7-4(9)6-2/h1,3,5,8H,(H2,6,7,9)/t3-/m0/s1
