14
gdb 127530	3.75839	1.17314	0.89917	1.8868	73.57	-0.2312	-0.085	0.1463	1210.8443	0.100077	-470.017579	-470.009151	-470.008207	-470.052439	28.825	
C	 0.1271046995	 1.4161446378	-0.0099382324	-0.328828
N	 0.093366302	-0.0294444351	 0.0012783995	-0.032159
N	 0.1408223382	-0.7601054463	-1.1359659296	-0.241927
C	 0.0899175817	-1.9893735896	-0.7419216876	 0.299308
O	 0.0094249929	-2.1187416403	 0.6239461832	-0.228549
C	 0.0105526284	-0.829930348	 1.1303795201	 0.455786
N	-0.0487430026	-0.4452616362	 2.3304960262	-0.602775
C	 0.108150086	-3.2080617954	-1.5617906879	 0.085566
O	 0.1764437479	-3.2111131629	-2.7659679677	-0.241774
H	 1.0530697071	 1.7712557322	-0.4699238495	 0.154106
H	-0.7274291897	 1.8124649685	-0.564819473	 0.154018
H	 0.0791668299	 1.7426987502	 1.0289840896	 0.18404
H	-0.1035446085	-1.2248405234	 2.9785740638	 0.239776
H	 0.0522629672	-4.1360724913	-0.9572354047	 0.103412
17.4178	109.2632	142.3394	170.6376	225.6893	298.0866	298.8937	422.3578	537.0841	661.0719	670.602	703.2719	736.3959	759.9035	850.0919	975.2449	1018.84	1022.2816	1068.5248	1144.2585	1156.4314	1274.8603	1326.4374	1416.2041	1440.7868	1455.1629	1484.7719	1507.7804	1606.2628	1789.0111	1807.3981	2932.9931	3051.978	3119.2816	3167.4109	3559.9098
CN1N=C(OC1=N)C=O	CN1N=C(O[C@H]1[NH])C=O	
InChI=1S/C4H5N3O2/c1-7-4(5)9-3(2-8)6-7/h2,5H,1H3	InChI=1S/C4H6N3O2/c1-7-4(5)9-3(2-8)6-7/h2,4-5H,1H3/t4-/m0/s1
