21
gdb 78317	2.89159	1.40363	1.19546	1.8519	82.	-0.2407	0.066	0.3068	1151.5859	0.182131	-387.03705	-387.02867	-387.027726	-387.069385	33.348	
C	-0.0514612485	 1.4314784726	-0.0140243754	-0.428206
C	 0.0597086381	-0.0787323133	 0.0265422863	-0.020459
C	 1.4163716849	-0.6774031435	-0.2128705635	-0.069222
C	 0.7882791139	-0.6825196272	 1.1959658085	-0.132095
C	 0.7877456838	-2.2359024257	 1.2139090913	 0.30098
C	 1.5070713643	-2.8757599979	 2.3782449587	-0.49528
C	-0.4296250429	-2.950498809	 0.5819367915	-0.147566
O	 0.1293746166	-2.8112745337	-0.750504182	-0.302274
C	 1.3449040946	-2.2173888277	-0.2252069995	 0.055121
H	 0.8391858636	 1.908846497	 0.4086738177	 0.113894
H	-0.1643617627	 1.7891015578	-1.0429843768	 0.121361
H	-0.9183913764	 1.7782931354	 0.5585289157	 0.118309
H	-0.7941187857	-0.6008380277	-0.3950380202	 0.101705
H	 2.240644799	-0.0880129034	-0.5984949012	 0.078759
H	 1.0561201893	-0.0791202605	 2.0569996588	 0.079249
H	 0.9345766704	-2.7621535354	 3.3068744231	 0.11979
H	 1.6648562481	-3.9462216942	 2.2095294138	 0.11866
H	 2.4857303167	-2.4095807958	 2.5373478831	 0.120741
H	-0.520254081	-4.0082344426	 0.8623039515	 0.095287
H	-1.4091885902	-2.4674287916	 0.6771745066	 0.099024
H	 2.2469178043	-2.7525819034	-0.5344310279	 0.072221
178.233	180.1072	212.388	228.7733	230.0066	271.3236	333.4068	363.2353	449.6723	514.0873	654.2033	714.3678	768.0716	828.0938	842.4973	878.9451	893.043	922.8895	950.8083	979.0772	986.8081	998.2179	1014.3973	1036.8895	1048.0428	1110.2636	1143.2472	1149.6699	1167.4066	1183.5488	1195.8694	1229.3935	1244.1937	1275.6729	1289.986	1320.3342	1371.7855	1411.148	1415.6741	1422.8066	1491.6048	1494.0216	1495.0136	1502.1895	1516.4497	3006.6283	3022.0611	3028.3838	3056.4132	3071.1525	3084.2874	3093.8444	3095.2284	3097.1513	3149.4281	3159.9017	3173.8434
CC1C2C1C1(C)COC21	C[C@H]1[C@H]2[C@@H]1[C@@]1(C)CO[C@@H]21	
InChI=1S/C8H12O/c1-4-5-6(4)8(2)3-9-7(5)8/h4-7H,3H2,1-2H3	InChI=1S/C8H12O/c1-4-5-6(4)8(2)3-9-7(5)8/h4-7H,3H2,1-2H3/t4-,5-,6+,7-,8+/m0/s1
