21
gdb 94700	3.30123	1.36353	1.18821	0.6776	78.12	-0.2449	0.0711	0.316	1119.0679	0.183321	-424.222086	-424.213835	-424.212891	-424.254217	33.476	
C	-0.5835395687	 1.487072202	 0.1481168204	-0.399149
C	 0.1940972841	 0.1954661784	-0.0622117847	 0.145727
O	 1.1765821818	 0.4724250315	-1.0654601837	-0.272901
C	 2.2903702111	-0.4056691814	-1.0855381764	-0.123374
C	 2.6965480683	-0.8554698104	 0.3300005906	 0.384263
O	 3.9605042274	-1.4615303887	 0.3561757695	-0.482322
C	 1.5493192665	-1.6943964524	 0.9194909739	-0.270412
C	 0.873653578	-0.3281214408	 1.2164835125	-0.037908
C	 2.3042347368	 0.2767018433	 1.325722778	-0.291456
H	 0.0552931779	 2.2570392809	 0.5917726678	 0.120777
H	-0.9561316453	 1.8622538068	-0.8087690882	 0.125161
H	-1.4373462348	 1.316633742	 0.8110604489	 0.111589
H	-0.4948864416	-0.5834159943	-0.432913212	 0.0647
H	 2.0966817984	-1.2933598956	-1.709213662	 0.095285
H	 3.1094901475	 0.1593366941	-1.5509618155	 0.089485
H	 4.6017798816	-0.8502998974	-0.0237694178	 0.27619
H	 1.0348375459	-2.3969370982	 0.2561139667	 0.091215
H	 1.8650979678	-2.2059816193	 1.8320478656	 0.103775
H	 0.2060211553	-0.2621279027	 2.0772995666	 0.069248
H	 2.7446194094	 0.0971759649	 2.3089060934	 0.100918
H	 2.4564782127	 1.3141884073	 1.0191039065	 0.099187
128.2635	207.5341	242.316	268.2778	285.7748	339.7984	377.8635	422.9245	432.515	457.8008	549.1597	594.5752	669.9913	779.6781	861.1114	874.9086	881.1231	920.1339	938.1915	962.8552	1001.7564	1032.8035	1037.7064	1081.6755	1098.5443	1117.3554	1142.5949	1156.1634	1179.1549	1195.6099	1242.0685	1245.7227	1270.5108	1277.9069	1324.856	1353.825	1377.1536	1386.578	1408.6247	1410.1234	1471.8596	1485.9564	1495.2647	1501.709	1513.6864	2945.529	2974.8667	3030.5574	3041.31	3046.3823	3065.0385	3092.9095	3110.1826	3114.3996	3121.3284	3127.6341	3794.4371
CC1OCC2(O)CC1C2	C[C@H]1OC[C@]2(O)C[C@H]1C2	
InChI=1S/C7H12O2/c1-5-6-2-7(8,3-6)4-9-5/h5-6,8H,2-4H2,1H3	InChI=1S/C7H12O2/c1-5-6-2-7(8,3-6)4-9-5/h5-6,8H,2-4H2,1H3/t5-,6-,7-/m1/s1
