19
gdb 31142	1.92249	1.78209	0.99071	2.4065	79.79	-0.1817	0.0527	0.2344	1215.2984	0.158847	-419.228733	-419.218707	-419.217763	-419.264098	36.17	
C	 0.1563307011	 1.4148867981	-0.3063462338	-0.321062
N	-0.1015366361	 0.0092391364	 0.0307575427	-0.391843
C	 0.626996192	-0.46779198	 1.1525530523	 0.084938
C	 1.781047409	-1.2282473105	 1.0967795022	 0.290516
C	 2.51967926	-1.7332990004	-0.0949392975	-0.508323
N	 2.1736173033	-1.4721129471	 2.3861078671	-0.314099
C	 1.2886785828	-0.8965168011	 3.2832470902	-0.234538
C	 0.3259470612	-0.2644258532	 2.5342755658	 0.248985
O	-0.7721443749	 0.4455458771	 2.9378008466	-0.456926
H	 1.2051765825	 1.5284252051	-0.5969989148	 0.118257
H	-0.4639666047	 1.6983263471	-1.1630414837	 0.107174
H	-0.0450244847	 2.114991825	 0.5190007543	 0.109981
H	-1.0948509814	-0.1068658476	 0.2024505709	 0.225538
H	 3.4865410166	-1.2336865474	-0.2386770502	 0.120955
H	 2.7143861856	-2.811015832	-0.0317075956	 0.117197
H	 1.9095024714	-1.5479539442	-0.9821202704	 0.15211
H	 2.980908535	-2.0089882219	 2.6464150318	 0.25434
H	 1.4218052608	-0.9898156786	 4.3487129541	 0.103736
H	-0.8250342794	 0.4198179952	 3.897623828	 0.293065
27.6792	139.6444	146.4129	182.626	187.4033	244.2172	260.3626	272.2506	283.2562	375.9245	448.0016	521.2901	567.2993	607.3579	635.2347	701.0819	721.6349	760.7217	821.9084	969.7984	1040.4323	1047.6015	1063.8428	1113.5268	1151.4728	1156.2687	1189.0663	1262.3777	1294.348	1346.0353	1406.4837	1441.2868	1454.6209	1476.1171	1486.5175	1488.132	1496.1125	1513.1588	1525.16	1587.5109	1658.0281	2984.1621	3012.8264	3057.8405	3066.1725	3103.7193	3124.2618	3257.6629	3517.2892	3692.3229	3837.3857
CNC1=C(C)NC=C1O	CNc1c(C)[nH]cc1O	
InChI=1S/C6H10N2O/c1-4-6(7-2)5(9)3-8-4/h3,7-9H,1-2H3	InChI=1S/C6H10N2O/c1-4-6(7-2)5(9)3-8-4/h3,7-9H,1-2H3
