18
gdb 77103	2.9377	1.18674	0.97492	4.5384	77.79	-0.2356	0.0139	0.2495	1233.1659	0.148322	-398.092874	-398.08408	-398.083136	-398.127054	32.993	
N	 0.3220749069	 1.1494893954	-0.2629944136	-0.508675
C	-0.012283099	-0.2352963712	-0.0553012651	-0.102271
C	-0.012947484	-0.7170730558	 1.4394221122	-0.070988
N	-1.3952335234	-1.2739878978	 1.2880043518	-0.387615
C	-1.4682557715	-0.7507955063	-0.0882830672	 0.363901
C	-2.6640599865	-0.0247668888	-0.6242981336	-0.3084
C	-2.2388366	-1.3588201032	-1.2125705451	-0.338718
C	 1.0173057874	-1.6765646411	 1.8086630524	 0.257402
N	 1.8190542099	-2.4648028039	 2.0800407628	-0.325206
H	 0.4652924441	 1.3536157297	-1.2454974096	 0.239098
H	-0.4183667099	 1.7586995146	 0.0716460606	 0.235782
H	 0.6549169078	-0.8507402758	-0.6642134674	 0.108605
H	 0.0055272586	 0.1220745954	 2.1428825012	 0.127215
H	-1.3884126406	-2.2894859056	 1.3141868149	 0.23633
H	-3.5532735108	-0.0051713209	-0.0037412568	 0.127002
H	-2.498555204	 0.870818434	-1.2161265684	 0.106435
H	-1.7879479033	-1.3719404577	-2.2004028872	 0.117567
H	-2.8571166816	-2.224323671	-0.9947250219	 0.122534
27.8853	145.4112	185.7122	205.7366	243.1258	259.1605	361.526	387.6968	469.4336	497.1414	557.3621	627.5602	725.5295	766.5928	775.7333	830.2122	872.8647	913.3472	930.3207	953.4157	991.1817	1046.9813	1054.296	1074.233	1080.6152	1157.9499	1165.4241	1188.113	1234.2436	1244.3661	1268.1067	1303.4637	1372.1626	1391.8412	1430.7475	1453.7984	1496.8199	1662.5847	2349.5188	3051.4637	3080.8965	3119.9416	3123.3988	3200.6511	3218.4614	3503.286	3514.8723	3590.7816
NC1C(NC11CC1)C#N	N[C@H]1[C@@H](NC21CC2)C#N	
InChI=1S/C6H9N3/c7-3-4-5(8)6(9-4)1-2-6/h4-5,9H,1-2,8H2	InChI=1S/C6H9N3/c7-3-4-5(8)6(9-4)1-2-6/h4-5,9H,1-2,8H2/t4-,5-/m0/s1
