23
gdb 114825	3.11856	1.2107	1.15187	1.6225	84.17	-0.2345	0.081	0.3155	1221.8383	0.208883	-388.310038	-388.301907	-388.300963	-388.342657	32.753	
C	-0.2620255749	 1.6266045384	-0.1481544502	-0.383994
C	-0.0765435672	 0.1116063145	-0.006734744	-0.207484
C	 0.7403407557	-0.4979743466	-1.1502409559	 0.067296
C	 2.2605647456	-0.1079802228	-1.1661520956	-0.232278
C	 2.9484009761	-1.4798465398	-1.3065996253	 0.111518
C	 1.972288153	-2.2633673855	-2.1956439522	-0.237479
C	 0.8097634409	-2.0507750497	-1.2013745464	-0.069252
C	 1.4798274238	-2.5873921913	 0.07351942	-0.075165
O	 2.849716964	-2.1568316161	-0.0423350849	-0.282342
H	 0.7011928334	 2.1475426741	-0.1543745693	 0.119949
H	-0.7784334452	 1.8757806233	-1.0821240393	 0.112087
H	-0.8532330076	 2.0331764744	 0.6781594032	 0.11147
H	 0.4064618669	-0.1021436385	 0.9545266637	 0.102916
H	-1.0627964277	-0.3703864349	 0.0299126072	 0.089475
H	 0.2807691124	-0.1682953725	-2.0911347901	 0.064309
H	 2.5101745783	 0.5620832403	-1.9947986296	 0.09189
H	 2.5763177999	 0.3731775159	-0.2359606301	 0.104027
H	 4.000038257	-1.4571015701	-1.5949883664	 0.068862
H	 1.7983972277	-1.8029445645	-3.1717886744	 0.094225
H	 2.2629084945	-3.3090622984	-2.3250020139	 0.099552
H	-0.1396570143	-2.5349875516	-1.4377317622	 0.060746
H	 1.0467976363	-2.1953616586	 0.9999434067	 0.098388
H	 1.4422782516	-3.6846288501	 0.1201434689	 0.091284
104.3017	113.5	192.0141	243.0838	320.2326	360.369	413.9758	465.5585	489.8935	570.6635	749.6844	781.0699	784.3919	821.6107	851.0963	889.6759	931.4147	938.9718	950.6141	961.7503	979.8098	981.6648	1022.6969	1027.0861	1066.2328	1080.3122	1098.0101	1139.4852	1155.9896	1186.4998	1209.4761	1220.4813	1261.078	1271.7643	1288.7768	1299.3501	1320.0333	1330.2109	1338.7045	1365.4816	1385.7691	1395.1816	1412.8805	1477.1692	1489.9507	1498.0996	1500.6949	1507.7099	1534.162	3003.8312	3008.9205	3014.5648	3030.6169	3048.0948	3052.3729	3062.0904	3062.9245	3095.3278	3097.9737	3098.9707	3103.9116	3112.9856	3117.8296
CCC1CC2CC1CO2	CC[C@H]1C[C@@H]2C[C@H]1CO2	
InChI=1S/C8H14O/c1-2-6-3-8-4-7(6)5-9-8/h6-8H,2-5H2,1H3	InChI=1S/C8H14O/c1-2-6-3-8-4-7(6)5-9-8/h6-8H,2-5H2,1H3/t6-,7-,8+/m0/s1
