15
gdb 25731	2.77783	1.60257	1.01768	2.3669	73.29	-0.197	-0.0175	0.1795	1091.1634	0.114977	-450.173242	-450.165242	-450.164298	-450.205613	30.706	
N	-0.1238753575	 1.3631601468	-0.132119426	-0.560539
C	 0.0418475632	-0.0064954224	-0.0156799891	 0.23847
N	 1.1612445536	-0.6501869781	 0.0001946429	-0.567067
C	-1.1707805936	-0.7880354928	 0.0325151852	 0.298776
C	-1.3755863128	-2.1457759487	 0.0718993939	 0.236571
N	-0.4441500448	-3.1325156306	 0.1707956847	-0.589432
N	-2.7386006847	-2.4004584525	 0.0541296324	-0.30999
C	-3.2805196789	-1.2234923324	 0.0163452186	 0.065775
O	-2.4243297287	-0.1912150677	 0.0056899885	-0.206707
H	 0.66649841	 1.9311082438	 0.1304432188	 0.248577
H	-1.0177419895	 1.7384763624	 0.145552343	 0.260022
H	 1.958870358	-0.0180097082	-0.0559666722	 0.200693
H	 0.5002614703	-2.8179929503	-0.0202287618	 0.277124
H	-0.7180098724	-4.0390756169	-0.1724598463	 0.256388
H	-4.3325159723	-0.9843250523	-0.0061664125	 0.151339
95.9068	170.4125	182.8846	312.686	329.4716	399.122	407.6094	437.1293	469.2679	533.9751	599.5449	615.7895	658.1605	680.6641	746.4349	777.232	790.2436	844.8091	950.8381	1035.3092	1090.1383	1127.1959	1177.144	1188.6005	1245.5352	1327.4359	1394.7718	1502.6145	1544.8857	1591.5402	1638.5862	1673.0849	1698.7851	3271.6413	3481.1353	3524.907	3579.4072	3681.8759	3692.2822
NC(=N)C1=C(N)N=CO1	NC(=N)c1c(N)nco1	
InChI=1S/C4H6N4O/c5-3(6)2-4(7)8-1-9-2/h1H,7H2,(H3,5,6)	InChI=1S/C4H6N4O/c5-3(6)2-4(7)8-1-9-2/h1H,7H2,(H3,5,6)
