17
gdb 34003	3.35204	1.37185	1.15116	4.9302	78.08	-0.2529	0.0013	0.2541	1076.0204	0.13774	-380.865842	-380.858249	-380.857305	-380.897901	29.373	
N	 0.0792222023	-1.1629192481	-0.4798363399	-0.340567
C	 0.055489395	-0.0316483752	-0.2430683028	 0.257409
C	-0.0241706011	 1.3829868016	 0.066457148	 0.141822
C	 0.2451022103	 2.3701684649	-1.0309294519	-0.268905
N	 1.2608210631	 2.0962611831	-0.0289572329	-0.118445
C	 1.5467777019	 3.1399091235	 0.9637216359	-0.204495
C	 0.3604019644	 3.7039702894	 1.697495894	-0.067093
C	-0.8073186334	 3.0717970693	 1.7740014003	-0.06771
C	-1.0485343065	 1.7266623671	 1.1486941657	-0.325576
H	 0.4699718969	 2.0195158282	-2.033671641	 0.136255
H	-0.3113357657	 3.3035347766	-0.9709203573	 0.127024
H	 2.2587958564	 2.7125513769	 1.6830093253	 0.133365
H	 2.0891609855	 3.9373836186	 0.4412742803	 0.123883
H	 0.5006284387	 4.6629010481	 2.1890618544	 0.099529
H	-1.6350297307	 3.5066776098	 2.3265373578	 0.10128
H	-2.0570947681	 1.6704107954	 0.721218085	 0.131389
H	-1.0133654291	 0.9503962507	 1.9247296591	 0.140837
101.4057	148.8668	172.7762	309.5992	371.7641	398.1999	428.9865	529.8953	565.5581	574.3171	655.1736	687.2186	761.9615	847.8656	894.9706	903.8118	950.408	977.0404	997.3531	1001.0933	1034.2459	1096.5063	1133.3422	1156.6879	1198.5043	1215.3494	1242.7738	1280.1583	1339.8667	1371.0184	1381.1803	1411.0822	1478.423	1480.4553	1501.0911	1731.0706	2356.8795	3015.2744	3020.5665	3050.0859	3051.5516	3102.6397	3157.1206	3179.6517	3197.0325
N#CC12CN1CC=CC2	N#C[C@]12CN1CC=CC2	
InChI=1S/C7H8N2/c8-5-7-3-1-2-4-9(7)6-7/h1-2H,3-4,6H2	InChI=1S/C7H8N2/c8-5-7-3-1-2-4-9(7)6-7/h1-2H,3-4,6H2/t7-,9?/m1/s1
