16
gdb 11878	4.82365	1.54098	1.31713	3.0892	65.04	-0.2424	0.0332	0.2757	924.2336	0.132709	-379.939838	-379.932815	-379.931871	-379.971337	26.738	
O	 0.0115076707	-0.0343398339	 0.1069196805	-0.377596
C	-0.0336426393	 1.1752894715	 0.1108877304	 0.416291
C	-1.2900450088	 2.0574997884	 0.093452771	-0.432257
C	-0.7709828191	 3.4578207279	 0.3792767747	 0.329914
C	-1.6000025137	 4.6781835777	 0.302319703	-0.294494
N	-1.1353064259	 4.1735323193	 1.610968778	-0.341515
C	 0.7222648135	 3.4404300859	 0.0376299627	-0.212443
N	 1.0393942141	 2.0249068365	 0.1122854484	-0.312442
H	-1.7473213066	 1.9766788793	-0.8997341286	 0.136538
H	-2.0217578346	 1.6976500192	 0.8211551007	 0.130254
H	-1.1581363689	 5.6232625111	-0.0042218601	 0.119865
H	-2.6486920015	 4.5659852417	 0.0378597219	 0.115672
H	-1.8954955403	 3.6903531574	 2.0845408011	 0.231427
H	 0.9137033945	 3.8470907499	-0.966137206	 0.107234
H	 1.2858062844	 4.0301889265	 0.7663326917	 0.130446
H	 1.9741618414	 1.6578777515	 0.0310704806	 0.253106
69.5909	142.9633	270.3023	356.1607	382.7687	473.8554	480.9924	513.5168	596.4985	688.8399	783.8261	838.5896	874.0345	890.8818	938.4205	959.8383	990.4996	1058.1241	1066.0952	1085.3168	1134.3889	1172.0201	1219.3154	1241.6798	1254.7402	1273.7441	1307.2471	1349.3943	1406.0132	1449.9572	1460.6025	1515.6619	1526.4027	1835.5765	2994.691	3046.0832	3081.2453	3101.0122	3102.6031	3184.1764	3489.7528	3645.0772
O=C1CC2(CN2)CN1	O=C1C[C@]2(CN2)CN1	
InChI=1S/C5H8N2O/c8-4-1-5(2-6-4)3-7-5/h7H,1-3H2,(H,6,8)	InChI=1S/C5H8N2O/c8-4-1-5(2-6-4)3-7-5/h7H,1-3H2,(H,6,8)/t5-/m1/s1
