20
gdb 94589	3.14876	1.02451	0.83715	6.454	75.52	-0.2461	0.0288	0.275	1388.6588	0.171739	-440.307133	-440.298147	-440.297203	-440.341501	33.21	
C	-0.3281944501	 1.5753558228	-0.1912781087	-0.414215
C	-0.0078883672	 0.0941821289	-0.0636111914	 0.012391
C	 1.3267094772	-0.4487532418	-0.6353182056	-0.191085
N	 1.5712879887	-1.243928544	 0.6113882295	-0.338416
H	 1.3408723489	-2.2216924559	 0.4653100532	 0.237973
H	 2.6308584812	-1.179474663	 2.0394174226	 0.304945
C	 0.4367506618	-0.5255126565	 1.3013117807	-0.004206
C	 0.9684743971	 0.434305698	 2.3706041168	-0.333037
C	 1.7795296447	-0.257474301	 3.4724378101	 0.392803
O	 2.7263690484	-1.0954154041	 3.0237920793	-0.373908
O	 1.6109304758	-0.0503205666	 4.6448812562	-0.330861
H	 0.491202428	 2.2066771138	 0.1657654477	 0.123653
H	-0.5110249955	 1.8363396782	-1.23913264	 0.121982
H	-1.2274415992	 1.8393076072	 0.375013364	 0.126863
H	-0.8438330288	-0.4917708749	-0.459701003	 0.083816
H	 1.2738869595	-1.0424235938	-1.5512734178	 0.114855
H	 2.0978196271	 0.3181981089	-0.7642425967	 0.118708
H	-0.2904709852	-1.2067490012	 1.7537801579	 0.09321
H	 1.6285534085	 1.1759488475	 1.9034691473	 0.123206
H	 0.1495365292	 0.9741873376	 2.8494619878	 0.131321
59.7199	104.2951	124.7009	170.7656	213.642	260.6309	335.926	385.0857	457.3147	489.7484	607.1103	675.0907	692.1672	840.4747	854.1331	860.665	886.0011	916.5703	928.765	966.7744	981.0608	1004.9042	1024.7478	1113.9334	1136.1834	1141.0297	1172.1501	1214.504	1259.1243	1276.8538	1287.8176	1303.0299	1336.3232	1357.228	1383.1406	1402.6626	1416.1831	1466.3888	1488.9953	1494.0126	1499.2105	1511.2192	1861.4754	3032.4156	3035.876	3044.4301	3046.5286	3061.3616	3099.1167	3101.1096	3108.9763	3123.3454	3246.5164	3523.1237
CC1C[NH2+]C1CC([O-])=O	C[C@H]1CN[C@H]1CC(=O)O	
InChI=1S/C6H11NO2/c1-4-3-7-5(4)2-6(8)9/h4-5,7H,2-3H2,1H3,(H,8,9)	InChI=1S/C6H11NO2/c1-4-3-7-5(4)2-6(8)9/h4-5,7H,2-3H2,1H3,(H,8,9)/t4-,5-/m0/s1
