21
gdb 42092	3.57726	1.24562	1.20666	1.26	84.15	-0.2252	0.0197	0.245	1148.7288	0.184392	-387.114087	-387.105987	-387.105043	-387.147654	31.456	
C	 0.0231662958	 1.6810531076	 0.1567063148	-0.203551
C	 1.5252832149	 1.9537998927	-0.0712579691	-0.203154
C	 2.2054563606	 0.7249908537	 0.5456157801	-0.230702
C	 1.3217267172	-0.4463465171	 0.0637526625	 0.40593
C	-0.1212820923	 0.1348448573	 0.1274389417	-0.244534
O	 1.6526771121	-0.7435025958	-1.3117717241	-0.317825
C	 2.0928493183	-2.0894036027	-1.4466229851	-0.13242
C	 1.9669290379	-2.6830367804	-0.0720387167	-0.105839
C	 1.5324608523	-1.7552536806	 0.7716602155	-0.15732
H	-0.2815478369	 2.0698844676	 1.1344554686	 0.0946
H	-0.6071575635	 2.1728342147	-0.5887909306	 0.097436
H	 1.746530754	 1.9821286188	-1.1432443931	 0.113616
H	 1.858331365	 2.9000282277	 0.3640868409	 0.086927
H	 3.2471449697	 0.5853175609	 0.246967246	 0.0975
H	 2.1683614924	 0.781032195	 1.6417150516	 0.086955
H	-0.6441838579	-0.2327169393	 1.0156708602	 0.09265
H	-0.6719117967	-0.2223803221	-0.7451841486	 0.110936
H	 1.4732338818	-2.6128950635	-2.19177685	 0.103185
H	 3.1305189755	-2.1168614018	-1.8179347104	 0.101453
H	 2.2097521139	-3.713070903	 0.1565524692	 0.104305
H	 1.3464919759	-1.8747609697	 1.8318864467	 0.099853
38.1807	70.0289	184.8659	223.7062	360.1214	381.2993	430.4325	504.1834	574.6418	712.9977	734.5424	766.9162	790.8973	819.4742	850.5703	878.3094	906.4475	947.6084	954.3518	961.7952	978.5453	1018.2269	1039.6354	1044.3635	1074.533	1112.1375	1122.5636	1136.0399	1197.938	1211.9851	1224.221	1240.0803	1272.7884	1296.671	1328.6629	1338.0865	1349.5336	1369.8894	1381.1704	1469.5509	1473.5384	1488.8456	1508.481	1520.6732	1691.4201	2966.793	2985.0037	3022.8565	3040.3541	3050.3018	3058.9074	3085.3351	3098.1352	3104.6665	3115.8153	3202.2433	3227.4242
C1CCC2(C1)OCC=C2	C1CCC2(C1)OCC=C2	
InChI=1S/C8H12O/c1-2-5-8(4-1)6-3-7-9-8/h3,6H,1-2,4-5,7H2	InChI=1S/C8H12O/c1-2-5-8(4-1)6-3-7-9-8/h3,6H,1-2,4-5,7H2
