21
gdb 103221	3.42642	1.37308	1.17405	1.0429	82.88	-0.2437	0.0886	0.3323	1136.3893	0.181617	-387.00648	-386.998031	-386.997087	-387.03928	33.088	
C	-0.2252456635	 1.337959473	 0.0350355431	-0.249128
O	 0.2277792932	 0.0050264806	-0.0530484658	-0.295547
C	 0.826011367	-0.5184419791	 1.1207809886	 0.442809
C	 2.1696146722	 0.1363264923	 1.414681049	-0.473024
C	-0.140903952	-0.8218612991	 2.2950238725	-0.108432
C	-0.7938604496	-2.0233197808	 1.5221706798	-0.040917
C	-0.5922648875	-2.9853987563	 2.7078914011	-0.272709
C	 0.6687553465	-2.1006823042	 2.7122544514	-0.059073
C	 0.7296586421	-2.0533929718	 1.1454773119	-0.096656
H	 0.5979467015	 2.0618586742	 0.1209037276	 0.105329
H	-0.7723447905	 1.549509399	-0.8874053271	 0.124401
H	-0.9055902002	 1.4867482112	 0.8867054261	 0.103309
H	 2.0567856542	 1.1927547718	 1.6785510172	 0.115582
H	 2.6765984731	-0.3569146418	 2.2480141466	 0.119569
H	 2.815739552	 0.0767082368	 0.5328999904	 0.122799
H	-0.649951649	-0.1405525234	 2.9796953071	 0.06411
H	-1.6217781953	-1.9573549556	 0.8189430608	 0.079613
H	-1.2744483494	-2.8734826035	 3.5571403574	 0.089605
H	-0.4505600213	-4.0442030484	 2.4671265159	 0.090804
H	 1.5212995822	-2.1299256101	 3.3913823048	 0.070079
H	 1.2209812243	-2.7763057349	 0.4919806315	 0.067477
81.7708	167.1923	200.002	202.1433	241.2951	289.4892	366.958	385.971	499.6752	563.1018	625.4337	749.8324	815.5393	845.2604	853.2236	879.5115	898.4198	905.3642	924.8767	965.8358	1003.1607	1028.987	1066.8206	1082.1346	1090.9348	1133.1246	1142.9361	1147.3528	1154.6112	1169.8417	1181.489	1185.7747	1194.2227	1214.9568	1244.6525	1246.1988	1308.9877	1338.5968	1407.575	1475.6808	1484.1582	1490.2926	1504.6153	1511.1919	1513.3575	2983.8046	3030.7083	3034.4412	3040.329	3089.6649	3090.068	3097.0119	3101.7415	3107.4105	3108.5195	3119.6308	3134.7172
COC1(C)C2C3CC2C13	CO[C@@]1(C)[C@H]2[C@@H]3C[C@H]2[C@H]13	
InChI=1S/C8H12O/c1-8(9-2)6-4-3-5(6)7(4)8/h4-7H,3H2,1-2H3	InChI=1S/C8H12O/c1-8(9-2)6-4-3-5(6)7(4)8/h4-7H,3H2,1-2H3/t4-,5+,6-,7+,8-
