13
gdb 48903	3.30377	1.44556	1.15501	1.7883	63.77	-0.2511	-0.0557	0.1954	997.3078	0.086922	-456.479858	-456.472818	-456.471873	-456.511753	26.243	
O	 0.046167177	-0.0262580771	 0.0438714592	-0.228916
C	 0.086503698	 1.172698	-0.0006822255	 0.034677
C	 1.3496770981	 1.961818197	-0.0023235553	 0.411351
O	 2.6499855531	 1.3394925241	 0.0506346292	-0.333453
C	 2.9117783607	 2.7676972977	 0.0016249339	 0.088244
C	 1.7740283349	 3.0965712164	-1.0330539453	-0.296645
C	 1.225193829	 4.1576632528	-0.0895241144	 0.448687
O	 0.6820706568	 5.2176616202	-0.1423975051	-0.317419
C	 1.7294502111	 3.172950605	 0.956170835	-0.296694
H	-0.8251449194	 1.8094089484	-0.0449465785	 0.10281
H	 3.939430202	 3.1219603063	 0.011059724	 0.134772
H	 1.8166471	 2.9991462012	-2.1142302896	 0.1263
H	 1.7235700687	 3.1588613481	 2.0424568424	 0.126288
108.3197	109.2954	221.6069	278.6518	397.6745	428.8049	594.3308	618.9359	625.875	717.7107	772.3579	792.6716	815.5672	841.2449	952.0518	953.1835	998.8923	1012.7233	1075.4873	1090.8713	1091.3851	1119.1342	1185.2109	1190.23	1268.4427	1323.9084	1415.944	1832.8677	1925.9966	2889.7383	3155.6417	3173.1593	3176.5851
O=CC12OC3C1C(=O)C23	O=C[C@@]12O[C@H]3[C@@H]1C(=O)[C@@H]23	
InChI=1S/C6H4O3/c7-1-6-2-4(8)3(6)5(2)9-6/h1-3,5H	InChI=1S/C6H4O3/c7-1-6-2-4(8)3(6)5(2)9-6/h1-3,5H/t2-,3+,5-,6+
