18
gdb 13119	4.04898	1.2052	1.02543	2.2674	69.47	-0.2379	-0.0218	0.2161	1167.4368	0.152015	-384.934371	-384.92561	-384.924665	-384.969086	30.409	
C	-0.8946256716	 0.6857421173	-0.1388365644	-0.23852
O	 0.0325223034	 0.4989889681	-1.1836689239	-0.228445
C	 1.2261994377	-0.1493024107	-0.7944635737	-0.075453
C	 1.0652021754	-1.6563167374	-0.5905208804	-0.12697
C	 0.732042272	-2.5487867682	-1.8264856259	-0.236462
C	 1.9473415705	-3.4741849584	-1.5107608832	-0.338965
C	 2.3718881612	-2.4603345025	-0.4362904197	 0.388304
O	 3.3656491639	-2.2937428367	 0.2101297528	-0.296062
H	-1.2964092142	-0.2632267937	 0.2470262381	 0.1049
H	-0.4500420852	 1.2386087561	 0.7033749407	 0.107909
H	-1.7233231063	 1.2697963883	-0.5463880213	 0.13057
H	 1.9389889725	 0.0350407594	-1.6058032428	 0.108453
H	 1.6406256286	 0.3015629873	 0.1207878095	 0.104982
H	 0.4002172787	-1.8596495346	 0.2573875156	 0.101792
H	-0.2461074404	-3.0301289983	-1.8126218754	 0.109812
H	 0.8396666775	-2.0068078957	-2.768646749	 0.119528
H	 1.6748500826	-4.4411136365	-1.0750424665	 0.133279
H	 2.6769242536	-3.6518902138	-2.3053773004	 0.131346
45.2845	57.757	104.4792	131.3043	201.3478	260.7762	379.1432	436.0135	465.3373	559.2505	664.2184	725.074	807.2543	871.1456	908.3625	944.7477	961.5531	1013.1012	1082.2039	1097.7755	1121.3431	1152.3977	1180.795	1201.9233	1213.3594	1230.356	1233.3371	1267.0077	1296.7927	1334.5864	1404.4495	1438.6631	1475.1029	1486.955	1490.1805	1497.3548	1509.1971	1883.2798	2974.8786	2989.1489	3021.9959	3041.329	3056.6153	3069.4644	3080.6335	3108.1885	3114.4802	3136.8105
COCC1CCC1=O	COC[C@H]1CCC1=O	
InChI=1S/C6H10O2/c1-8-4-5-2-3-6(5)7/h5H,2-4H2,1H3	InChI=1S/C6H10O2/c1-8-4-5-2-3-6(5)7/h5H,2-4H2,1H3/t5-/m1/s1
