14
gdb 7038	3.47371	0.9367	0.7446	4.1354	81.15	-0.2536	-0.0667	0.1869	1495.2295	0.103485	-345.370657	-345.360894	-345.35995	-345.410429	30.72	
C	 0.0408730666	 1.4457356639	-0.1189798583	-0.50099
C	 0.0319860124	-0.0021234259	-0.0102590192	-0.013384
C	 0.0162576637	-1.2055326796	 0.0810437852	 0.094996
C	-0.0230759157	-2.646289709	 0.192745637	 0.139589
O	-1.0591215283	-3.2639823055	 0.3596810085	-0.273906
C	 1.2642166503	-3.2961095582	 0.0906801868	 0.094999
C	 2.3313002942	-3.8539570517	 0.0075104736	-0.013383
C	 3.6103914342	-4.5339056783	-0.0914355362	-0.500989
H	 1.0552817433	 1.8319070059	-0.2622007382	 0.158194
H	-0.5712364977	 1.774201726	-0.9660418797	 0.164175
H	-0.3737154851	 1.9046092366	 0.7852434854	 0.164165
H	 3.6138622483	-5.2311579322	-0.9363712293	 0.16418
H	 4.4327354521	-3.8249209865	-0.2320078654	 0.158195
H	 3.8120304415	-5.1138750355	 0.8157773199	 0.164159
6.7816	7.4047	59.0244	121.2718	152.3451	172.8806	297.4358	345.961	376.7128	413.8024	502.7444	514.3417	665.577	773.3691	898.5409	1043.412	1044.557	1053.158	1053.6287	1107.7654	1266.2318	1408.3039	1410.4897	1469.4561	1469.7025	1472.6608	1472.8747	1712.0416	2338.8082	2343.4905	3031.2281	3031.3873	3094.8474	3094.8603	3098.7949	3098.8272
CC#CC(=O)C#CC	CC#CC(=O)C#CC	
InChI=1S/C7H6O/c1-3-5-7(8)6-4-2/h1-2H3	InChI=1S/C7H6O/c1-3-5-7(8)6-4-2/h1-2H3
