17
gdb 128221	5.11819	1.03295	0.86985	3.5635	82.19	-0.2204	-0.0554	0.165	1328.6979	0.136155	-414.208869	-414.199995	-414.199051	-414.243027	31.507	
C	 0.0726333508	 1.4381607771	 0.0711644866	-0.328187
N	-0.0496363647	 0.0030495614	-0.0537722128	-0.346893
C	-1.2368560474	-0.6659427883	-0.0038850133	 0.412107
C	-2.4993899804	-0.0372620008	-0.0819070614	-0.080526
N	-3.6049396259	-0.751155052	-0.0652541171	-0.263094
C	-3.4564828582	-2.0866459592	 0.0328908967	 0.369708
C	-4.6947635946	-2.9346588517	 0.0447583305	-0.454613
N	-2.2805484275	-2.7103139385	 0.1274188217	-0.222173
N	-1.1632199177	-1.999733858	 0.1135669043	-0.274522
H	 1.130656128	 1.7029530731	 0.0353850416	 0.139462
H	-0.4243400415	 1.9527051821	-0.7596853318	 0.138545
H	-0.3463379984	 1.8243873088	 1.011878821	 0.128312
H	 0.7521015823	-0.5722789143	 0.1531275369	 0.254136
H	-2.5975084944	 1.0431035413	-0.154724179	 0.114574
H	-5.266067791	-2.7941402271	-0.8786924849	 0.13639
H	-4.4250981765	-3.9865428711	 0.1443248896	 0.140563
H	-5.3499910428	-2.6480035629	 0.8736072113	 0.136211
67.7824	83.1147	108.6418	170.7116	197.7561	339.8269	348.4328	404.1088	437.3592	467.0974	560.7795	572.386	665.9756	762.8496	804.2971	866.4298	936.0998	1001.6578	1057.0611	1066.5469	1083.1069	1154.359	1170.5836	1182.5875	1290.8791	1322.6346	1398.9424	1401.9236	1425.1681	1471.4122	1479.541	1484.5166	1486.2899	1515.5449	1533.9822	1562.7445	1622.8548	2995.8125	3044.0092	3056.2405	3099.1717	3132.1782	3152.2139	3154.2609	3625.4728
CNC1=CN=C(C)N=N1	CNc1cnc(C)nn1	
InChI=1S/C5H8N4/c1-4-7-3-5(6-2)9-8-4/h3H,1-2H3,(H,6,9)	InChI=1S/C5H8N4/c1-4-7-3-5(6-2)9-8-4/h3H,1-2H3,(H,6,9)
