17
gdb 74818	3.72328	1.16654	1.00032	3.5311	80.28	-0.2478	-0.0064	0.2414	1198.7313	0.136863	-380.876499	-380.868499	-380.867555	-380.908909	30.624	
C	 0.0594686886	 1.4820052533	 0.0492280242	-0.489001
C	-0.0220744527	-0.0085896663	-0.0175784474	 0.312542
C	-0.0838907961	-0.7729235447	-1.1138185903	-0.15407
C	-0.0577048368	-2.2226882016	-0.7755499196	-0.12613
N	 1.182930727	-2.6335265111	-0.0753630169	-0.358502
C	-0.0190566436	-2.2854270796	 0.726279558	 0.203199
C	-0.0176821534	-0.8493566577	 1.2504369893	-0.363785
C	-0.686849825	-3.3228455135	 1.4568091394	 0.195479
N	-1.2125743084	-4.1602022101	 2.0588297915	-0.344629
H	 0.9984152932	 1.8040446627	 0.5165502768	 0.136646
H	 0.0045671053	 1.9321017957	-0.9451258157	 0.130461
H	-0.7520501746	 1.895818865	 0.6608840432	 0.130876
H	-0.1041380384	-0.4081259868	-2.1335290153	 0.103736
H	-0.5925763299	-2.9612734467	-1.3625950075	 0.115507
H	 1.2636446455	-3.6499261118	-0.1030936785	 0.245539
H	 0.8632684216	-0.6535869442	 1.8719383189	 0.134215
H	-0.9021443322	-0.6520009326	 1.86852762	 0.127917
113.9612	148.1363	180.3085	219.2184	315.9816	351.8406	414.7252	473.1766	500.3439	559.7184	593.5322	666.2067	729.1488	807.4535	850.3527	880.8448	910.2442	954.3317	966.6328	1016.8137	1058.9109	1075.127	1076.5487	1139.5188	1182.9879	1198.2164	1259.8396	1273.9486	1325.123	1353.9688	1402.1779	1417.3123	1464.7061	1478.9276	1486.6873	1705.0463	2346.3287	3021.1671	3034.961	3068.8179	3075.1598	3117.6513	3177.6113	3207.9195	3474.0982
CC1=CC2NC2(C1)C#N	CC1=C[C@H]2N[C@]2(C1)C#N	
InChI=1S/C7H8N2/c1-5-2-6-7(3-5,4-8)9-6/h2,6,9H,3H2,1H3	InChI=1S/C7H8N2/c1-5-2-6-7(3-5,4-8)9-6/h2,6,9H,3H2,1H3/t6-,7-/m1/s1
