19
gdb 69579	3.56208	1.30648	1.18366	1.9935	81.82	-0.229	0.0031	0.2321	1116.7933	0.159244	-385.869537	-385.861658	-385.860714	-385.901506	31.599	
C	-0.066143454	 1.54117143	 0.0215161781	-0.48395
C	 0.0434165905	 0.0352789762	 0.0086085367	 0.305845
C	-0.7799661224	-0.8177109309	 0.9548244017	-0.319293
C	 0.7266078694	-0.7723688504	 1.098671511	-0.186026
C	 1.5134937329	-1.858412455	 0.4078042424	 0.442881
C	 2.7734735003	-2.4177366039	 0.9230599287	-0.255353
O	 1.5669524884	-3.1765444928	 0.9837805177	-0.284481
C	 1.1957566562	-1.7286859196	-1.0464520911	-0.168635
C	 0.4060069977	-0.6749709347	-1.2645993263	-0.151306
H	 0.861637087	 2.0123462064	-0.321736201	 0.120732
H	-0.8757531036	 1.8831336022	-0.6340309201	 0.119425
H	-0.2793022933	 1.9120098519	 1.0287119185	 0.117864
H	-1.350084022	-0.3016398023	 1.721356232	 0.109328
H	-1.2399926767	-1.7238232735	 0.5760479293	 0.121458
H	 1.147237883	-0.2926735707	 1.9746663921	 0.086818
H	 3.5294718966	-2.7856589203	 0.2292587301	 0.109678
H	 3.1578713525	-2.0683675063	 1.8819783836	 0.110454
H	 1.5462745128	-2.4441075762	-1.7802068264	 0.105287
H	 0.0254973246	-0.3583508803	-2.2299303171	 0.099275
111.1239	207.7912	214.8658	255.3448	318.1986	359.9104	384.4991	451.475	519.5276	605.3657	624.8929	753.0737	787.0406	796.0036	841.0144	852.4631	909.1517	934.9025	951.7502	969.8905	980.2724	984.7018	1049.0983	1067.6309	1079.2281	1108.9837	1126.3665	1129.8668	1159.7266	1231.0732	1250.5029	1301.9647	1352.8914	1357.3708	1418.9449	1439.6159	1483.0542	1489.2142	1500.7561	1524.9878	1664.357	3024.498	3067.2799	3083.8515	3102.1696	3124.9881	3152.9251	3177.9406	3184.2712	3216.2254	3216.9775
CC12CC1C1(CO1)C=C2	C[C@]12C[C@H]1[C@]1(CO1)C=C2	
InChI=1S/C8H10O/c1-7-2-3-8(5-9-8)6(7)4-7/h2-3,6H,4-5H2,1H3	InChI=1S/C8H10O/c1-7-2-3-8(5-9-8)6(7)4-7/h2-3,6H,4-5H2,1H3/t6-,7+,8-/m1/s1
