25
gdb 95757	2.22759	1.40375	1.10603	1.1166	88.94	-0.2392	0.0793	0.3185	1282.488	0.228665	-389.524799	-389.515003	-389.514058	-389.558373	39.007	
C	 0.031567355	 1.5279967152	 0.0928939599	-0.396774
C	 0.0183735821	 0.0123929471	-0.0547523412	 0.146779
C	 0.777830775	-0.4771640457	-1.2920010319	-0.187139
C	 0.8518763246	-2.0083296562	-1.3057357563	-0.234643
C	 1.4253219006	-2.517797141	 0.022927474	-0.204364
C	 0.6855328387	-1.9394800117	 1.2489394681	 0.373027
C	-0.7133102575	-2.558549529	 1.4225116973	-0.421434
C	 1.5067419718	-2.167404104	 2.5197182315	-0.411879
O	 0.5987956775	-0.5096290955	 1.1373159414	-0.305643
H	 1.0602748043	 1.8930464928	 0.1747892452	 0.119182
H	-0.4394413831	 2.0039269612	-0.7727800707	 0.108498
H	-0.5095419036	 1.8283585016	 0.9942254698	 0.118851
H	-1.0294767092	-0.3234724976	-0.1352678926	 0.059073
H	 0.2894914646	-0.1000152389	-2.198076911	 0.088352
H	 1.7916762741	-0.0557569036	-1.2679717968	 0.094512
H	-0.1507706882	-2.4228059666	-1.4716990742	 0.096135
H	 1.4699784325	-2.3583690995	-2.1396735742	 0.092801
H	 1.401369072	-3.6128376205	 0.0632604976	 0.088636
H	 2.4788416837	-2.2188758468	 0.0913463447	 0.093566
H	-0.6305535002	-3.6240097638	 1.6595023075	 0.111197
H	-1.2372634057	-2.0628663795	 2.2450015888	 0.118752
H	-1.3310384288	-2.4693250241	 0.5254980861	 0.113772
H	 2.4760110193	-1.6681575797	 2.4361357985	 0.11621
H	 0.985948184	-1.7571951065	 3.3898905192	 0.115525
H	 1.6756791867	-3.2356910577	 2.6870870592	 0.107006
127.2153	149.9232	205.8068	227.6094	235.0211	268.9127	274.0765	327.8905	331.5521	402.446	443.1233	460.4487	477.1945	500.0921	573.2593	723.583	822.0141	848.4805	858.9669	899.1362	924.7225	937.6229	965.0845	976.1274	1007.9163	1023.5724	1060.9235	1081.5858	1106.204	1155.4725	1177.8478	1212.129	1237.4113	1248.5978	1257.2754	1303.9933	1339.1749	1369.7153	1377.0418	1383.8748	1394.8307	1400.4654	1410.5675	1415.1017	1467.9313	1475.2559	1481.0896	1484.6277	1488.8961	1496.0041	1499.7915	1500.9341	1513.6934	2955.628	3018.1271	3022.2611	3023.6844	3038.3964	3039.6245	3044.9718	3062.4204	3065.8238	3073.504	3108.9247	3112.5354	3115.8372	3118.1511	3118.9858	3121.0531
CC1CCCC(C)(C)O1	C[C@H]1CCCC(C)(C)O1	
InChI=1S/C8H16O/c1-7-5-4-6-8(2,3)9-7/h7H,4-6H2,1-3H3	InChI=1S/C8H16O/c1-7-5-4-6-8(2,3)9-7/h7H,4-6H2,1-3H3/t7-/m0/s1
