15
gdb 31387	2.93388	1.26205	0.89104	4.2592	70.72	-0.2347	-0.0365	0.1983	1220.859	0.113285	-457.802482	-457.794669	-457.793725	-457.835217	28.949	
O	 0.51331725	 0.6367685614	-0.8378193994	-0.395075
C	-0.1264211688	 0.2718834164	 0.3603617563	-0.143525
C	-1.4560150902	-0.408952585	 0.1447160903	 0.329555
C	-1.9584231561	-0.8203049197	-1.0325631263	-0.336194
C	-3.2723027779	-1.465207507	-1.1263559761	 0.386375
O	-3.7700772836	-1.8460006843	-2.1754231668	-0.374045
C	-3.9260223106	-1.6070683869	 0.1827092474	-0.264671
C	-3.3333304211	-1.1660624385	 1.3009438934	 0.066895
O	-2.118412326	-0.5634886769	 1.3225084247	-0.227197
H	-0.0183092563	 1.3154905989	-1.2675439422	 0.294312
H	 0.5506354523	-0.4190326962	 0.8768296458	 0.146378
H	-0.2802985249	 1.125385058	 1.0391427635	 0.119405
H	-1.3736805196	-0.6854331988	-1.9332958544	 0.127254
H	-4.9002005782	-2.0773961263	 0.2330298939	 0.125463
H	-3.7470260792	-1.2341023852	 2.2995025099	 0.145071
87.2554	156.5754	173.5855	191.9941	337.4903	410.2269	418.2575	476.6952	509.1259	556.6905	595.4781	745.0148	753.4771	854.7661	910.9925	921.4559	944.9895	970.1595	996.558	1047.1614	1112.9554	1169.9309	1209.817	1223.7336	1259.1922	1352.6816	1398.5406	1418.8446	1426.7176	1486.3858	1633.8096	1696.3573	1756.0384	2989.2865	3060.431	3208.6168	3224.9688	3227.945	3812.1184
OCC1=CC(=O)C=CO1	OCc1cc(=O)cco1	
InChI=1S/C6H6O3/c7-4-6-3-5(8)1-2-9-6/h1-3,7H,4H2	InChI=1S/C6H6O3/c7-4-6-3-5(8)1-2-9-6/h1-3,7H,4H2
