16
gdb 72978	2.69406	1.55086	1.22779	3.5837	69.95	-0.2325	0.0077	0.2402	1024.7129	0.124209	-434.008932	-434.000298	-433.999354	-434.041801	32.411	
N	-0.1075264873	 1.4745119234	-0.0710901798	-0.586851
C	-0.1215647636	 0.0278998049	-0.0505051467	 0.111273
C	 0.8771985014	-0.5928231455	-0.8833503324	 0.231047
N	 1.6412490482	-1.1211091991	-1.5743958604	-0.340227
C	-0.4882275728	-0.8121587287	 1.1923586977	-0.155019
N	-1.4305780005	 0.0250596645	 1.9563341766	-0.352374
C	-2.4413499701	-0.095743552	 0.8441265557	-0.250637
C	-1.4068375463	-0.7919352616	-0.0320852652	 0.373751
O	-1.7953965274	-1.7004187009	-0.9830301428	-0.451655
H	-0.556068533	 1.782059448	 0.7923125307	 0.257322
H	 0.8541732969	 1.7998157267	-0.0188844574	 0.241199
H	 0.1756768166	-1.5364463673	 1.6490191994	 0.118516
H	-1.7472533147	-0.4466966602	 2.7958909917	 0.237971
H	-3.2569548445	-0.7817968336	 1.0875263704	 0.131258
H	-2.8480007355	 0.8572166253	 0.4932279067	 0.126843
H	-1.1043882573	-1.7876882641	-1.6517785542	 0.307583
118.045	134.8483	198.1833	212.479	261.3372	276.0694	306.1564	382.4093	445.8606	494.0571	546.0794	579.6477	682.4846	711.3325	741.6633	790.5916	916.6738	961.8311	979.0064	984.3311	1005.3503	1019.0166	1059.9447	1115.0456	1132.9807	1219.2977	1234.0652	1294.9813	1329.6696	1356.8862	1407.4209	1442.2971	1506.7005	1658.6463	2342.4931	3055.9459	3112.6032	3188.9962	3453.692	3541.9523	3543.038	3777.2847
NC1(C#N)C2NCC12O	N[C@@]1(C#N)[C@H]2NC[C@@]12O	
InChI=1S/C5H7N3O/c6-1-4(7)3-5(4,9)2-8-3/h3,8-9H,2,7H2	InChI=1S/C5H7N3O/c6-1-4(7)3-5(4,9)2-8-3/h3,8-9H,2,7H2/t3-,4+,5+/m1/s1
