19
gdb 65725	3.97008	0.98424	0.9293	2.2348	75.33	-0.2518	-0.0256	0.2262	1287.1093	0.156651	-422.995171	-422.986266	-422.985322	-423.029229	33.067	
C	-0.0978833978	 1.5335399332	 0.169219089	-0.45781
C	 0.0352506955	 0.0228429138	-0.0005428671	 0.282761
C	-1.3047988293	-0.6474241046	-0.3471524263	-0.341546
C	-1.9009872585	-0.1604014995	-1.6504221381	 0.165029
O	-3.0272780752	 0.2447489406	-1.7804243672	-0.241044
C	 1.2298136805	-0.4809900557	-0.9148151862	-0.314828
C	 1.8160386992	-1.1861889045	 0.311965431	 0.036437
O	 2.0437289835	-0.1825417672	 1.3106715488	-0.24996
C	 0.7253592524	-0.7132966502	 1.1761927496	-0.004161
H	 0.8490339203	 1.9569198271	 0.5117889823	 0.138293
H	-0.370378244	 2.0191698791	-0.7742810105	 0.122231
H	-0.8741101151	 1.7797294978	 0.9025026736	 0.120373
H	-1.152216489	-1.7334221149	-0.4404875708	 0.116839
H	-2.0426001746	-0.4814124872	 0.4448779369	 0.120813
H	-1.2094664592	-0.2053202178	-2.5235707415	 0.076197
H	 0.9066575495	-1.1709141642	-1.6982050691	 0.105698
H	 1.8673561546	 0.2914951408	-1.3511456952	 0.115382
H	 2.4251028336	-2.0808298904	 0.3647519007	 0.107923
H	 0.2668945737	-1.1464058862	 2.0592533602	 0.101372
54.6042	94.8237	158.0469	196.0361	239.949	285.4475	318.3999	375.5309	426.4918	474.9025	569.0271	660.4034	782.9565	816.4234	832.876	858.7167	868.8538	927.7246	955.5537	979.0146	987.5577	1006.2334	1047.4913	1064.6234	1123.5389	1153.365	1167.0633	1217.9341	1228.9042	1255.8644	1270.8937	1299.8455	1322.2266	1385.2905	1412.8677	1433.3575	1459.3388	1476.7928	1488.4008	1504.6498	1832.5023	2862.353	3003.0192	3031.4763	3065.2234	3082.0473	3092.7609	3121.0651	3126.6295	3169.6415	3193.1671
CC1(CC=O)CC2OC12	C[C@@]1(CC=O)C[C@H]2O[C@@H]12	
InChI=1S/C7H10O2/c1-7(2-3-8)4-5-6(7)9-5/h3,5-6H,2,4H2,1H3	InChI=1S/C7H10O2/c1-7(2-3-8)4-5-6(7)9-5/h3,5-6H,2,4H2,1H3/t5-,6-,7-/m1/s1
