17
gdb 75755	2.72801	1.24368	1.12249	1.6754	75.38	-0.2489	-0.0349	0.214	1146.0546	0.132057	-421.79627	-421.786736	-421.785792	-421.830304	35.187	
C	 0.2988409209	 1.3378429665	-0.0163126096	-0.439162
C	-0.0716795594	-0.1503077352	-0.0431479463	 0.043157
C	 0.8677382956	-0.9823355802	-0.9975588683	-0.368168
C	 1.7275045884	-1.2627601916	 0.2371185386	 0.331602
O	 2.9046536893	-1.3788705293	 0.4342568353	-0.302878
C	 0.5814529837	-0.9330052244	 1.1919950279	 0.03574
O	 0.8710834149	-0.2843699543	 2.3852768604	-0.417945
C	-1.4951539063	-0.3622646676	-0.2165802735	 0.247648
C	-2.6758207924	-0.5480106778	-0.3512760444	-0.423042
H	 1.3828703777	 1.4681217811	 0.07191466	 0.117045
H	-0.0309336288	 1.8317349284	-0.933882539	 0.131563
H	-0.17196495	 1.830714122	 0.8370110694	 0.145159
H	 0.3781967569	-1.8806040797	-1.3815051995	 0.142586
H	 1.3514365166	-0.4476109032	-1.8166847837	 0.138618
H	-0.0343723493	-1.8186287886	 1.3910599577	 0.122451
H	 1.807394967	-0.0502639716	 2.3707586628	 0.300193
H	-3.7189768848	-0.7072686142	-0.4705037078	 0.195431
82.1359	127.5807	160.0653	173.4451	218.787	234.0563	263.6335	342.2409	392.0204	423.5963	515.163	560.3436	593.6709	618.1648	638.0038	650.9977	764.7534	776.4534	842.0072	891.0497	955.2902	1015.7803	1088.5603	1114.694	1125.0792	1188.3921	1193.4971	1223.0356	1274.0475	1331.0996	1410.5809	1411.1814	1446.5459	1487.3753	1494.4788	1878.2419	2232.9148	3040.2778	3041.0237	3077.1891	3111.4269	3134.6438	3140.2	3501.5129	3781.1502
CC1(CC(=O)C1O)C#C	C[C@]1(CC(=O)[C@H]1O)C#C	
InChI=1S/C7H8O2/c1-3-7(2)4-5(8)6(7)9/h1,6,9H,4H2,2H3	InChI=1S/C7H8O2/c1-3-7(2)4-5(8)6(7)9/h1,6,9H,4H2,2H3/t6-,7-/m1/s1
