17
gdb 13805	4.05851	1.3698	1.154	11.542	69.72	-0.1901	-0.0018	0.1883	1038.7932	0.140204	-400.93789	-400.929814	-400.92887	-400.970612	29.71	
N	-0.0380426221	 1.1581974431	 0.1229025155	-0.40472
H	 0.6392553169	 0.4171629531	-0.1169450486	 0.282199
H	 0.5076110826	 1.9982518281	 0.3210936786	 0.309993
H	-0.6053520805	 1.3440510687	-0.7034105751	 0.312135
C	-0.9477329546	 0.8999941973	 1.336864569	-0.392957
C	-0.0678229296	 0.7406087882	 2.5375881415	-0.028388
C	 0.652689444	 1.9737492563	 3.0521910917	-0.307641
C	-0.526498398	 1.4274828269	 3.8228153602	-0.132794
C	-1.8040219085	 2.2457628913	 3.8887942055	 0.389402
O	-2.2912097176	 2.515420271	 4.9654513166	-0.379603
O	-2.2928829858	 2.6441524132	 2.7287874332	-0.420789
H	-1.8265045459	 2.0463721129	 1.9482560579	 0.302537
H	-1.4739432801	-0.0269191868	 1.0881078071	 0.080776
H	 0.4714821391	-0.1958605746	 2.7074369019	 0.063417
H	 1.641869248	 1.8588448974	 3.4814159408	 0.113187
H	 0.4882891442	 2.9180201514	 2.539553908	 0.111352
H	-0.3047462322	 0.9279665424	 4.757693896	 0.101895
84.6272	101.7583	196.5481	203.3515	248.2073	322.8569	375.3377	461.2735	517.5651	647.4652	723.2645	767.2086	788.0152	829.7934	859.7895	870.0883	923.5179	971.337	993.5208	1069.0641	1074.0335	1099.0016	1137.0066	1175.2906	1200.0135	1243.3092	1269.9424	1349.4141	1373.5573	1381.6019	1426.5586	1475.5824	1604.9147	1644.5193	1656.3628	1704.303	1890.3271	3039.5015	3069.7676	3117.5916	3191.1756	3209.344	3258.785	3463.9901	3531.9309
[NH3+]CC1CC1C([O-])=O	[NH3][CH][C@H]1C[C@H]1C(=O)O	
InChI=1S/C5H9NO2/c6-2-3-1-4(3)5(7)8/h3-4H,1-2,6H2,(H,7,8)	InChI=1S/C5H9NO2/c6-2-3-1-4(3)5(7)8/h2-4H,1H2,6H3,(H,7,8)/t3-,4-/m1/s1
