19
gdb 68687	2.72773	1.84486	1.55834	1.7445	74.51	-0.253	-0.0072	0.2458	941.2321	0.161262	-423.03041	-423.023204	-423.02226	-423.061392	30.05	
C	 0.0484823574	 1.5043205699	 0.0969048778	-0.468534
C	-0.0219296407	-0.0021975721	-0.0346102668	 0.379998
C	 0.6791125381	-0.632582784	-1.2559638061	-0.240611
C	 0.1358369321	-2.0615138768	-1.1003913544	 0.063567
O	 0.802094267	-2.6497755036	 0.0345754402	-0.276182
C	 0.5307904004	-1.9578055136	 1.2365799856	 0.027296
O	 0.6399365811	-0.5526944372	 1.1340734548	-0.308979
C	-1.3355497785	-1.7866457211	-0.7891755012	-0.109514
C	-1.4232658052	-0.6093674571	-0.1688216572	-0.120143
H	 1.0892981859	 1.8310430989	 0.1737030306	 0.127669
H	-0.4061105188	 1.9840847035	-0.7750929109	 0.117096
H	-0.4797185159	 1.837056148	 0.9955870656	 0.122776
H	 0.3417479948	-0.174858274	-2.1902234013	 0.095248
H	 1.7671997884	-0.5857800617	-1.1799499953	 0.103793
H	 0.3206643431	-2.7382869614	-1.9353378483	 0.077634
H	-0.4714878996	-2.2267228599	 1.6008333643	 0.085726
H	 1.2844926012	-2.2789329998	 1.9592290731	 0.114988
H	-2.1357713024	-2.4969918151	-0.9573558887	 0.105623
H	-2.3094096083	-0.1637993529	 0.268159748	 0.102549
210.1372	223.5527	284.772	329.0001	341.8515	403.7943	435.2738	493.0805	584.1467	591.7357	675.4715	778.8247	798.8846	818.4253	855.1357	867.5233	912.8028	947.5354	963.1047	978.7333	1008.4306	1014.0714	1083.7152	1098.1819	1132.2718	1159.6838	1173.4406	1221.8619	1243.8343	1277.7467	1300.5925	1305.0614	1359.1326	1370.9338	1411.6173	1442.5643	1472.4586	1480.5189	1495.1829	1514.2158	1654.1722	2991.0026	3040.889	3061.431	3102.1853	3109.0494	3114.3503	3118.9328	3126.3825	3191.062	3217.2898
CC12CC(OCO1)C=C2	C[C@@]12C[C@@H](OCO1)C=C2	
InChI=1S/C7H10O2/c1-7-3-2-6(4-7)8-5-9-7/h2-3,6H,4-5H2,1H3	InChI=1S/C7H10O2/c1-7-3-2-6(4-7)8-5-9-7/h2-3,6H,4-5H2,1H3/t6-,7+/m0/s1
