25
gdb 101700	2.46939	1.00116	0.89671	1.1458	89.55	-0.2458	0.0808	0.3266	1507.1455	0.226241	-389.477941	-389.466825	-389.46588	-389.514887	40.822	
C	-0.5990555853	 1.9900077463	-0.2591915672	-0.234472
O	-0.4717661217	 0.591499464	-0.1780387373	-0.238728
C	 0.2794978434	-0.0060978242	-1.2303419388	 0.142278
C	 1.7860104816	 0.1678807632	-1.0105945815	-0.40135
C	-0.1152457714	-1.4874952368	-1.2766594756	-0.279019
C	-1.5405752199	-1.7782682232	-1.7254961805	 0.39394
C	-1.8505110783	-1.4461318545	-3.1740566586	-0.464696
C	-2.2060393123	-3.0062312676	-1.1431672167	-0.32255
C	-2.6502888622	-1.6286037975	-0.713886914	-0.283255
H	 0.3606695471	 2.5146940838	-0.1399301763	 0.103294
H	-1.0434554521	 2.3038999933	-1.2171282669	 0.101374
H	-1.2622895449	 2.3012168835	 0.5522749966	 0.124496
H	 0.0036851482	 0.4781271479	-2.1819505269	 0.062038
H	 2.0937033581	-0.3240196439	-0.0820825418	 0.121082
H	 2.3494999008	-0.2728280821	-1.8392279381	 0.113123
H	 2.064495363	 1.2236571618	-0.9457961846	 0.113388
H	 0.5847667635	-2.0077328442	-1.9443065201	 0.088897
H	 0.0462271798	-1.8981572063	-0.2724900395	 0.098536
H	-1.176971352	-1.9787970789	-3.8569461925	 0.109069
H	-2.8755059521	-1.7316028516	-3.4306079564	 0.111193
H	-1.7510014601	-0.3742857654	-3.3798023184	 0.113577
H	-2.8649920288	-3.5812612159	-1.7856455956	 0.102512
H	-1.6451670533	-3.6079843801	-0.4351539679	 0.104037
H	-2.3837095139	-1.284299851	 0.2776001785	 0.120893
H	-3.6139856175	-1.2722909406	-1.0635484197	 0.100344
27.7525	66.5125	102.8872	151.9668	202.0997	213.9031	233.551	278.2842	293.4687	324.365	359.0327	377.2818	414.7028	477.8886	542.5963	728.2621	782.6367	810.0844	866.6723	887.0001	904.4074	949.8881	954.2613	972.6507	1025.2705	1051.5428	1071.9556	1075.2663	1111.2282	1118.6582	1129.2071	1162.9605	1182.9374	1187.4169	1204.6418	1261.8038	1310.1547	1334.2804	1361.5937	1381.5107	1399.2324	1405.0562	1420.7825	1463.6425	1472.7722	1478.184	1482.8077	1492.717	1494.9392	1500.3372	1502.6115	1512.3486	1512.9706	2961.4656	2973.7559	3013.6997	3017.9747	3020.0103	3038.0122	3059.7129	3077.4395	3096.2367	3106.1904	3108.7951	3112.2685	3124.0808	3136.0409	3204.0963	3227.6555
COC(C)CC1(C)CC1	CO[C@@H](C)CC1(C)CC1	
InChI=1S/C8H16O/c1-7(9-3)6-8(2)4-5-8/h7H,4-6H2,1-3H3	InChI=1S/C8H16O/c1-7(9-3)6-8(2)4-5-8/h7H,4-6H2,1-3H3/t7-/m0/s1
