18
gdb 65501	3.65879	1.07589	0.96894	2.307	73.54	-0.2511	-0.038	0.2131	1235.037	0.146325	-439.054138	-439.04567	-439.044726	-439.087317	32.485	
O	 0.4237976564	 1.4683765482	-0.4771951261	-0.486114
C	-0.0185380069	 0.2507187046	 0.0250370706	 0.345938
C	 0.1006883208	 0.0400652104	 1.5789120909	-0.387235
C	-1.330554748	-0.500877229	 1.5677166865	 0.387247
C	-1.7866407437	-1.7917303865	 2.1306049257	-0.311596
N	-2.3075832015	-0.5055444326	 2.6434426969	-0.365505
C	-1.5716377396	 0.0593328323	 0.1661967302	-0.360869
C	 0.6129619541	-0.8898372302	-0.7311757728	 0.11635
O	 1.3869507031	-0.7045756272	-1.6402674203	-0.282209
H	 1.0373402307	 1.2515025066	-1.1981076084	 0.291202
H	 0.9018968235	-0.602835764	 1.9549917089	 0.108597
H	 0.1741459873	 1.0253469388	 2.0486824795	 0.129865
H	-2.5162636632	-2.3954799512	 1.5969068531	 0.122667
H	-1.0913098019	-2.3581198714	 2.7459957136	 0.114123
H	-1.8613969243	-0.2735135494	 3.5282209073	 0.232816
H	-2.0462630492	 1.0435031451	 0.1899812391	 0.133432
H	-2.0809081499	-0.572915786	-0.5658543402	 0.109828
H	 0.3269007823	-1.9107271684	-0.4056860546	 0.101463
68.8265	107.5712	240.2842	275.4991	291.6374	338.0048	349.0017	394.7287	422.5294	451.6226	515.9986	633.527	775.9938	832.0492	841.2642	866.1356	881.4437	911.7036	938.6259	969.4061	989.4259	1012.0451	1074.5845	1075.7839	1102.3886	1123.6914	1178.8718	1218.6337	1229.6539	1265.6003	1286.2586	1315.5707	1386.2143	1419.9508	1442.2727	1461.7473	1488.3852	1517.1126	1807.0736	2932.2577	3049.7634	3061.5556	3099.8859	3108.3435	3121.447	3185.3461	3491.0303	3678.5083
OC1(CC2(CN2)C1)C=O	O[C@]1(C[C@]2(CN2)C1)C=O	
InChI=1S/C6H9NO2/c8-4-6(9)1-5(2-6)3-7-5/h4,7,9H,1-3H2	InChI=1S/C6H9NO2/c8-4-6(9)1-5(2-6)3-7-5/h4,7,9H,1-3H2/t5-,6+
