19
gdb 104259	2.23951	1.30773	1.08782	2.7428	77.47	-0.2512	0.0191	0.2703	1219.1007	0.155798	-422.969168	-422.95927	-422.958326	-423.00397	36.277	
C	-0.0134117622	 1.6218666544	-0.1112297115	-0.417139
C	-0.0313274522	 0.0897819064	-0.1673593174	-0.225484
C	-1.4251522842	-0.5120604311	-0.0095413947	 0.315242
O	-2.0167263752	-0.2157895012	 1.2330561537	-0.477288
C	-2.3366187846	-0.3828005964	-1.2613325887	-0.116175
O	-2.132847645	-1.7713932382	-1.5964989276	-0.287402
C	-1.530258882	-2.0404344179	-0.3062406748	-0.07412
C	-0.3334713166	-2.8564556524	-0.3706242123	 0.321465
C	 0.6595655657	-3.532960018	-0.4090310559	-0.440129
H	 0.9974666622	 2.0010962526	-0.2839884725	 0.128969
H	-0.6671376414	 2.0641117635	-0.8707793369	 0.125242
H	-0.3267971724	 2.006254823	 0.8672338908	 0.110862
H	 0.382115559	-0.2492728336	-1.1229742273	 0.121423
H	 0.6138499464	-0.3238972498	 0.615664714	 0.115367
H	-1.8638481793	 0.7126959049	 1.4355412375	 0.282939
H	-3.3805426673	-0.1677273144	-1.0008228336	 0.101081
H	-2.0068985321	 0.2808337644	-2.0683210727	 0.102273
H	-2.2597405843	-2.4931486425	 0.3794562372	 0.111758
H	 1.5326464156	-4.1367110237	-0.4466180875	 0.201116
67.3068	105.3054	118.717	179.9207	204.6489	217.4942	264.6423	322.4746	352.1178	395.1547	440.4338	530.6466	587.415	624.0765	673.8711	678.8098	779.1104	797.1137	913.0167	946.3224	980.7208	1003.335	1013.4043	1036.1705	1070.7943	1107.0788	1154.3203	1191.7512	1197.0161	1267.2736	1305.5931	1310.0838	1356.7616	1369.701	1396.6042	1416.5937	1474.6591	1499.4187	1511.501	1512.7102	2234.7004	3010.1054	3018.8023	3026.9241	3045.454	3072.1833	3075.9622	3098.3119	3111.7396	3501.291	3817.9391
CCC1(O)COC1C#C	CC[C@@]1(O)CO[C@H]1C#C	
InChI=1S/C7H10O2/c1-3-6-7(8,4-2)5-9-6/h1,6,8H,4-5H2,2H3	InChI=1S/C7H10O2/c1-3-6-7(8,4-2)5-9-6/h1,6,8H,4-5H2,2H3/t6-,7+/m0/s1
