23
gdb 58891	3.03131	1.22482	1.04206	1.4882	84.35	-0.2235	0.0806	0.3041	1266.9591	0.206015	-388.286818	-388.277634	-388.276689	-388.320584	35.805	
C	-0.3315442339	 1.5979346925	-0.2728136972	-0.381943
C	-0.0649451842	 0.104500775	-0.0177961874	-0.062241
C	-1.3867895156	-0.6436953528	 0.2044332557	-0.407165
C	 0.8065183585	-0.4877596771	-1.119317164	 0.334484
C	 0.2346465692	-0.9526845185	-2.454907001	-0.379519
C	 0.8730797152	-1.9398158804	-1.5066696424	 0.06865
O	 2.1951075591	-2.3502885093	-1.7335511306	-0.261047
C	 2.9834554844	-1.1769841349	-1.9292064301	-0.095865
C	 2.2646667433	-0.0293885343	-1.187203108	-0.30335
H	 0.59965721	 2.1667003552	-0.3548319542	 0.113139
H	-0.8911174901	 1.7373169907	-1.2047540225	 0.115346
H	-0.9197151173	 2.0355231026	 0.5406023235	 0.107519
H	 0.5143481465	 0.0242027379	 0.9143252687	 0.071849
H	-2.0417148502	-0.5790066765	-0.6714657039	 0.116725
H	-1.2243783763	-1.7017022125	 0.4305626129	 0.11578
H	-1.9302347427	-0.2052832247	 1.0473672783	 0.113145
H	-0.8445521167	-0.9983217996	-2.5527143224	 0.110813
H	 0.7478916094	-0.6901340428	-3.3742545211	 0.110413
H	 0.2831086353	-2.724076667	-1.0480790729	 0.09892
H	 3.9889137838	-1.3792623875	-1.5497864826	 0.109012
H	 3.0690044538	-0.9546393771	-3.002059066	 0.097842
H	 2.4064969347	 0.9271591954	-1.6993420868	 0.104128
H	 2.6499187637	 0.0785416057	-0.1665245758	 0.103364
52.7378	154.786	199.485	217.6251	245.3049	260.9161	306.9237	319.296	421.8672	440.628	467.5133	601.1749	687.2823	701.4556	818.9161	852.6375	885.4347	898.0475	924.428	930.0257	960.26	966.0611	1000.9827	1008.2364	1032.9062	1065.8451	1088.1946	1121.2624	1138.5904	1169.9978	1175.2118	1217.0792	1236.2247	1244.7169	1281.1701	1314.656	1346.0089	1370.7163	1378.9917	1398.4475	1409.5991	1420.5093	1477.9241	1488.6472	1492.9016	1497.1845	1506.1594	1511.8381	1528.8236	2987.9203	3001.7406	3028.9394	3034.3513	3035.4629	3078.7879	3089.7062	3094.1021	3100.0754	3104.2929	3108.1775	3130.3256	3186.9419	3213.7902
CC(C)C12CC1OCC2	CC(C)[C@]12C[C@H]1OCC2	
InChI=1S/C8H14O/c1-6(2)8-3-4-9-7(8)5-8/h6-7H,3-5H2,1-2H3	InChI=1S/C8H14O/c1-6(2)8-3-4-9-7(8)5-8/h6-7H,3-5H2,1-2H3/t7-,8+/m1/s1
