26
gdb 8708	2.32054	1.52076	1.20636	0.0443	87.79	-0.2937	0.0719	0.3656	1217.1339	0.244656	-315.487757	-315.476831	-315.475887	-315.522949	40.785	
C	-0.1203569846	 1.5087717514	 0.1913750807	-0.401931
C	-0.0225879425	-0.0144148381	 0.0468329567	-0.183987
C	 0.6971518705	-0.5484583994	-1.2184482588	 0.280375
C	 0.6820499969	-2.0890642063	-1.1617292907	-0.418821
C	-0.0023493705	-0.0703634993	-2.520153274	-0.180119
C	-1.4909460011	-0.4028026497	-2.677050604	-0.40577
C	 2.1648654783	-0.0464997279	-1.2973700081	-0.180135
C	 3.074126066	-0.352067267	-0.1011547717	-0.40577
H	 0.8657116844	 1.9820147378	 0.2315432615	 0.117157
H	-0.6723794284	 1.9656120438	-0.6359513781	 0.117147
H	-0.6447101557	 1.7704078682	 1.1161304889	 0.110443
H	 0.4831005402	-0.4221179915	 0.9303576989	 0.091209
H	-1.0335962361	-0.4382811452	 0.0744925348	 0.091207
H	-0.3394211665	-2.4805190536	-1.1328388136	 0.110124
H	 1.1808826923	-2.5215411442	-2.0367611788	 0.103466
H	 1.1912642794	-2.4637317516	-0.2685343942	 0.110116
H	 0.1255202835	 1.0155256924	-2.6088241311	 0.090821
H	 0.5452345083	-0.500097841	-3.3694701282	 0.087316
H	-1.8599198335	-0.0359681295	-3.640354719	 0.110717
H	-1.6792305319	-1.4803045695	-2.6470291272	 0.116392
H	-2.1016779861	 0.062786684	-1.8971989548	 0.117402
H	 2.6159884353	-0.477546238	-2.2010006176	 0.087312
H	 2.1565102005	 1.0378410274	-1.4632351266	 0.090821
H	 4.0833019059	 0.029513058	-0.2872398563	 0.110721
H	 2.714804065	 0.1170041463	 0.820147603	 0.117403
H	 3.1634483904	-1.4264117875	 0.0863654585	 0.116385
70.7582	96.7974	115.1191	190.6723	213.7373	218.4192	226.1519	286.003	293.1554	323.6745	339.0269	377.703	403.7251	480.5954	509.5647	682.1765	755.7422	786.7876	790.7861	871.4003	886.9342	968.0148	1006.4658	1012.1064	1024.8665	1034.5221	1052.0778	1060.5487	1103.6857	1123.4974	1206.5235	1217.519	1252.9836	1296.0877	1311.0783	1338.2425	1374.422	1374.4721	1388.2383	1409.3906	1411.1352	1414.5016	1418.4964	1475.0875	1480.2108	1490.0711	1497.5037	1499.7656	1500.8508	1504.5635	1507.9043	1509.6455	1515.2821	1517.5381	3011.8791	3018.1484	3026.4962	3031.2524	3037.1582	3037.365	3040.3159	3044.1521	3052.5767	3054.7437	3094.5543	3098.1978	3099.6819	3100.1543	3100.7134	3106.9167	3110.1182	3110.8254
CCC(C)(CC)CC	CCC(C)(CC)CC	
InChI=1S/C8H18/c1-5-8(4,6-2)7-3/h5-7H2,1-4H3	InChI=1S/C8H18/c1-5-8(4,6-2)7-3/h5-7H2,1-4H3
