19
gdb 112526	2.11049	1.36319	1.23335	2.5227	77.51	-0.242	0.0469	0.2889	1165.5603	0.156795	-422.966018	-422.956386	-422.955442	-423.000545	35.484	
C	 0.3972960512	 0.4741754358	-0.7620915362	-0.236042
O	-0.0773848127	-0.6492496566	-0.0536040835	-0.253536
C	-1.4424532609	-0.5854433543	 0.2923656344	 0.083521
C	-2.3991809684	-0.9799086133	-0.8658214286	-0.267538
C	-2.3660796981	-2.4690826496	-0.3769884077	-0.251433
C	-1.453572235	-3.3287698398	-1.1008780361	 0.354416
C	-0.6897000475	-4.0483616225	-1.689039623	-0.480109
C	-1.7947168651	-1.924563538	 0.9976918906	 0.141508
O	-0.7818685997	-2.6016770261	 1.6573270221	-0.420495
H	 1.4633484891	 0.3164705972	-0.9405041342	 0.132319
H	-0.1081254835	 0.597618346	-1.7303295927	 0.112554
H	 0.2636121894	 1.3985867386	-0.1799265449	 0.109722
H	-1.6578505011	 0.349401718	 0.8290893814	 0.063075
H	-3.3917138421	-0.5366455536	-0.7543081625	 0.107436
H	-2.0355261335	-0.7999062829	-1.8779178534	 0.118863
H	-3.3446133697	-2.9507386288	-0.2945879304	 0.100005
H	-0.0221963457	-4.6866410032	-2.2125761529	 0.194476
H	-2.6205572097	-1.7927903671	 1.7019485681	 0.093721
H	 0.007505403	-2.5140952198	 1.1069505795	 0.297536
64.8774	114.3657	126.7891	173.7113	190.5058	218.3503	307.0681	352.2401	388.0828	425.5089	481.7367	583.2131	612.0847	619.0836	628.2982	731.4128	784.4853	834.6759	896.5876	931.3397	1006.0003	1031.1252	1079.9365	1116.2781	1136.9133	1167.7357	1180.8193	1183.5751	1222.1231	1251.3598	1259.0462	1274.1044	1317.0938	1354.4601	1376.9816	1449.1482	1470.2651	1481.7034	1487.955	1508.6859	2230.7009	2983.8479	2999.7825	3036.866	3060.1921	3072.2269	3082.9538	3120.112	3137.1934	3505.3325	3776.104
COC1CC(C#C)C1O	CO[C@H]1C[C@@H](C#C)[C@H]1O	
InChI=1S/C7H10O2/c1-3-5-4-6(9-2)7(5)8/h1,5-8H,4H2,2H3	InChI=1S/C7H10O2/c1-3-5-4-6(9-2)7(5)8/h1,5-8H,4H2,2H3/t5-,6+,7-/m1/s1
