22
gdb 63627	2.82156	1.1465	1.1055	2.7166	82.87	-0.24	0.0718	0.3118	1274.2087	0.191851	-404.315118	-404.305172	-404.304228	-404.349507	37.714	
C	-0.8462268872	 1.4034426221	 0.5315471959	-0.451815
C	-0.3111525539	 0.0095049398	 0.2717190817	 0.330371
C	-1.3692710187	-1.0028021644	-0.1253801955	-0.456006
N	 0.9876775873	-0.0437605396	-0.433266351	-0.37015
C	 0.913002712	-0.5105563455	 0.9567746632	-0.146876
C	 1.726076909	 0.2055465286	 2.00557646	 0.41954
C	 1.4320206644	-0.2170653538	 3.4290853666	-0.46356
C	 3.0528240768	 0.7340669695	 1.6451204122	-0.220834
O	 1.935227361	 1.6082439897	 1.8243915034	-0.267692
H	-0.0335276884	 2.1000046057	 0.7295728302	 0.162595
H	-1.4082120533	 1.755360771	-0.3415010259	 0.10871
H	-1.5312280504	 1.4029832103	 1.3873512211	 0.105933
H	-1.8667698408	-0.6956291833	-1.0530124459	 0.121515
H	-0.9386807101	-1.9974350445	-0.2833013448	 0.107429
H	-2.1416063011	-1.0898401274	 0.6469275189	 0.122682
H	 1.0177914155	-0.837993518	-1.0681897573	 0.223193
H	 0.9221459357	-1.5897157732	 1.1190893568	 0.071882
H	 1.6222597531	-1.2868700276	 3.568649835	 0.118874
H	 2.0557693833	 0.3421954961	 4.1302280468	 0.128034
H	 0.3819717403	-0.0282997384	 3.6771002432	 0.12742
H	 3.829334257	 0.8102687226	 2.4055634261	 0.104752
H	 3.3946937685	 0.6389693803	 0.616850319	 0.124001
62.7643	140.0873	165.3545	196.0058	213.657	241.2389	286.1682	318.8998	353.0303	373.423	392.3015	418.6795	529.5043	550.3443	712.7717	732.0155	816.3328	864.1085	909.6002	926.6164	957.8169	961.8405	980.3622	1013.399	1041.976	1080.3361	1100.5512	1112.1291	1134.3885	1156.6345	1169.7917	1210.5715	1251.0242	1309.4729	1353.0354	1390.1644	1411.6267	1414.5081	1422.4683	1460.1967	1480.8546	1484.7281	1488.9605	1495.2851	1506.662	1513.9245	1518.1677	3021.2365	3030.7346	3034.7464	3082.531	3084.3135	3086.2741	3088.1779	3095.7307	3098.0396	3125.7781	3170.2498	3180.7616	3490.5352
CC1(C)NC1C1(C)CO1	CC1(C)N[C@H]1[C@@]1(C)CO1	
InChI=1S/C7H13NO/c1-6(2)5(8-6)7(3)4-9-7/h5,8H,4H2,1-3H3	InChI=1S/C7H13NO/c1-6(2)5(8-6)7(3)4-9-7/h5,8H,4H2,1-3H3/t5-,7-/m1/s1
