18
gdb 75426	3.20186	1.27278	0.97433	4.3492	74.98	-0.2498	0.0081	0.258	1211.3809	0.148566	-439.128417	-439.119789	-439.118845	-439.162672	31.704	
C	-0.0138459638	 1.5733983761	 0.1083334957	-0.474896
C	-0.0019533616	 0.0746868305	-0.0408724787	 0.297913
C	 0.0382813385	-0.522274125	-1.2303096704	-0.137538
C	 0.0018864708	-2.0056730282	-1.4944118524	-0.221335
N	-0.7864301345	-2.7833107594	-0.5415700205	-0.335432
C	-0.4364035697	-2.9810234091	 0.7660368779	 0.410647
O	-0.8055187698	-3.9084827671	 1.439191395	-0.366316
O	 0.4132928668	-2.0220430377	 1.2556502954	-0.237037
C	-0.0477319641	-0.6696962789	 1.2719711792	-0.170391
H	 0.8637197204	 1.9246550587	 0.6657684269	 0.130091
H	-0.025988335	 2.0721834328	-0.8634768787	 0.127667
H	-0.8952416948	 1.9092231334	 0.6701210778	 0.13006
H	 0.1136854911	 0.0977615465	-2.1204817691	 0.088357
H	-0.4559943023	-2.1696433	-2.4744144922	 0.11816
H	 1.0274703254	-2.4004592807	-1.5665988618	 0.130826
H	-1.328618121	-3.5466527715	-0.9165487646	 0.256631
H	 0.6119651627	-0.1655067219	 1.9868599151	 0.127125
H	-1.0605423892	-0.6303312585	 1.7005325054	 0.125469
23.2712	147.3034	170.5321	211.579	243.3553	300.2856	336.101	378.7121	455.6532	530.3326	583.651	645.9848	741.9502	785.4428	815.3884	831.2131	881.3917	924.3868	1004.4411	1019.544	1054.0779	1088.2423	1093.2116	1153.8455	1181.8368	1284.5176	1295.0589	1304.0619	1362.6201	1400.0789	1415.3627	1424.9744	1468.719	1477.8195	1483.6873	1492.3062	1499.1803	1759.1847	1847.0596	2981.1512	2995.1214	3017.5908	3061.7056	3065.2459	3075.9792	3119.6821	3153.4589	3626.8194
CC1=CCNC(=O)OC1	CC1=CCNC(=O)OC1	
InChI=1S/C6H9NO2/c1-5-2-3-7-6(8)9-4-5/h2H,3-4H2,1H3,(H,7,8)	InChI=1S/C6H9NO2/c1-5-2-3-7-6(8)9-4-5/h2H,3-4H2,1H3,(H,7,8)
