12
gdb 20325	5.97147	1.32268	1.20665	1.0164	60.1	-0.2732	-0.0308	0.2424	951.8307	0.083762	-377.485036	-377.47821	-377.477266	-377.516876	24.188	
C	 0.0124174818	-1.209230746	-0.1272052469	-0.447357
C	 0.0140464752	-0.0119344729	-0.0411288358	 0.312241
C	 0.0134035842	 1.4436601892	 0.0701082481	-0.444434
C	 1.3953415533	 2.0300616063	 0.0307310681	 0.379564
N	 1.8919536913	 2.6899127898	 1.0427245414	-0.166383
O	 3.1649202311	 3.0648285343	 0.5933922472	-0.150256
C	 3.2745255712	 2.5799588547	-0.643789327	 0.110608
N	 2.2334368844	 1.9357484142	-1.0615638158	-0.293097
H	 0.0113817955	-2.2681475228	-0.2064030346	 0.204628
H	-0.5694400399	 1.8762512621	-0.7526472533	 0.16004
H	-0.4631397088	 1.7561724156	 1.004775706	 0.164564
H	 4.2004491606	 2.7694292154	-1.1668571373	 0.169883
51.3894	107.3489	286.6029	319.8166	328.7504	454.9827	626.1926	634.3821	651.2577	687.1208	807.9239	904.5613	907.3219	939.6988	964.797	986.6793	1016.0906	1146.575	1214.5844	1297.0868	1334.447	1375.0637	1454.1923	1520.7467	1603.4347	2249.0821	3035.694	3087.0385	3268.1477	3506.4733
C#CCC1=NOC=N1	C#CCc1nocn1	
InChI=1S/C5H4N2O/c1-2-3-5-6-4-8-7-5/h1,4H,3H2	InChI=1S/C5H4N2O/c1-2-3-5-6-4-8-7-5/h1,4H,3H2
