20
gdb 70542	2.61195	1.50671	1.13485	3.7654	78.44	-0.2295	0.036	0.2655	1129.5346	0.172779	-403.187215	-403.1789	-403.177956	-403.219892	32.769	
C	-0.0097578674	 1.5030612311	 0.0220115895	-0.471552
C	-0.0285963498	-0.0121377591	 0.0292892981	 0.370563
C	-0.8753878316	-0.7285148291	 1.0525016421	-0.349673
C	 0.6302260232	-0.7457280046	 1.1757061223	-0.053808
C	 1.4314645172	-1.9799719618	 0.7829351482	-0.203384
N	 2.1882035429	-1.7196627542	-0.4372768673	-0.293109
C	 1.6384135858	-1.1366890872	-1.5453943441	 0.393866
O	 2.2391236667	-1.0179369233	-2.5968671054	-0.377616
C	 0.196679547	-0.6691083768	-1.3364843674	-0.407426
H	 0.9227477686	 1.8841290707	-0.4098768466	 0.128351
H	-0.8391144482	 1.9046182776	-0.5718018723	 0.120054
H	-0.0991043424	 1.9063266896	 1.0356331249	 0.11266
H	-1.4349565357	-0.1286291662	 1.7625662492	 0.112507
H	-1.3722597895	-1.6498679924	 0.7617378274	 0.10821
H	 1.0717925014	-0.1367778582	 1.9582393402	 0.089836
H	 2.1401574746	-2.2489247442	 1.5705361864	 0.117242
H	 0.7639036285	-2.8446705424	 0.6533566423	 0.109429
H	 3.1015421741	-2.127762316	-0.5640348051	 0.246245
H	-0.4479018159	-1.5501124564	-1.4509010731	 0.119752
H	-0.0453142294	 0.0085938331	-2.1570817995	 0.127852
81.8937	153.1459	208.6616	239.8521	331.543	348.3828	431.297	447.3739	466.9258	471.3582	496.9167	628.7143	667.9676	780.9347	805.5965	860.4083	881.26	931.5748	948.9614	954.4311	979.1143	1032.2997	1064.097	1079.9373	1113.3594	1127.92	1151.6376	1173.2482	1260.5592	1287.1632	1303.2161	1315.5186	1339.4307	1378.257	1410.0327	1420.1764	1463.8079	1468.8964	1489.4601	1493.5685	1502.1572	1515.8805	1797.5927	2989.339	3023.2289	3030.0762	3084.7872	3085.1127	3100.1671	3117.5338	3119.6844	3152.4978	3205.8742	3628.5319
CC12CC1CNC(=O)C2	C[C@]12C[C@H]1CNC(=O)C2	
InChI=1S/C7H11NO/c1-7-2-5(7)4-8-6(9)3-7/h5H,2-4H2,1H3,(H,8,9)	InChI=1S/C7H11NO/c1-7-2-5(7)4-8-6(9)3-7/h5H,2-4H2,1H3,(H,8,9)/t5-,7+/m0/s1
