18
gdb 108028	3.9539	1.40476	1.28588	3.0242	73.67	-0.222	0.0637	0.2857	1013.5703	0.149131	-401.881001	-401.873799	-401.872854	-401.91266	28.811	
O	-0.0133381984	 1.2889359052	-0.4098174628	-0.419689
C	-0.0538888692	-0.0442592981	 0.0861188374	-0.200161
C	-1.4813031131	-0.502081772	 0.0899468711	 0.34406
C	-2.5545958558	 0.1932201197	 0.9065348607	-0.296303
C	-3.7337579806	-0.6513657352	 0.4873803582	-0.050971
C	-3.3160673703	-2.0495087572	 0.2076763722	-0.05386
C	-1.8033986558	-1.9885375674	-0.0548230262	-0.17602
C	-2.1152406746	-1.031620577	-1.1728040178	-0.048462
N	-3.6068947385	-1.1186488397	-0.9319741787	-0.164914
H	 0.8857650113	 1.6165840049	-0.312316345	 0.287739
H	 0.5493824619	-0.7216893611	-0.5400320752	 0.086384
H	 0.3557302533	-0.0956461463	 1.1077985872	 0.090031
H	-2.372853992	 0.1355424176	 1.9859777786	 0.100516
H	-2.660998608	 1.243722735	 0.621431175	 0.123979
H	-4.747596837	-0.4210531034	 0.7949557212	 0.094593
H	-3.9083029656	-2.9401462606	 0.3818248506	 0.094237
H	-1.0811800891	-2.7897394653	 0.0183394093	 0.089354
H	-1.7271852383	-0.914594429	-2.1755482158	 0.099487
88.8167	159.1138	242.3882	293.1915	357.7888	439.8377	541.0753	636.0268	708.4411	749.0594	759.934	798.1221	805.8016	867.4863	890.1899	915.6403	934.4261	967.5834	986.2849	999.8512	1032.3555	1041.4287	1060.0836	1072.0654	1083.7154	1151.1156	1162.8541	1174.5432	1213.8276	1231.9964	1254.3961	1270.6556	1290.5447	1342.7338	1368.9537	1401.6792	1468.0168	1490.7163	1514.8406	2961.1462	2987.9537	3043.9903	3099.3416	3174.3269	3185.6727	3200.8089	3213.0514	3827.0038
OCC12CC3C4C1C2N34	OC[C@]12C[C@@H]3[C@@H]4[C@H]1[C@H]2N34	
InChI=1S/C7H9NO/c9-2-7-1-3-5-4(7)6(7)8(3)5/h3-6,9H,1-2H2	InChI=1S/C7H9NO/c9-2-7-1-3-5-4(7)6(7)8(3)5/h3-6,9H,1-2H2/t3-,4+,5-,6-,7-,8?/m1/s1
