22
gdb 91921	2.32874	1.61903	1.08686	0.6222	82.37	-0.2167	0.0859	0.3026	1194.2336	0.194833	-404.33276	-404.323963	-404.323019	-404.365885	34.388	
C	 0.0818351141	 1.5258418846	 0.0847449618	-0.406725
C	 0.0413879124	 0.0072655209	 0.0203166814	 0.135179
C	 0.5918086204	-0.5387061038	-1.3043166029	-0.162449
N	 0.9314718864	-1.9723010459	-1.2808600476	-0.113953
C	 2.2242735282	-2.3281470275	-0.6915234689	-0.245817
C	 0.9640048504	-2.6533846632	 0.0215867986	-0.01081
C	 0.5923584498	-1.8938133564	 1.2857431801	 0.10127
C	 1.391278985	-2.344545293	 2.5010155573	-0.403172
O	 0.8007928303	-0.5004182572	 1.113071246	-0.268309
H	 1.1163944744	 1.8795006234	 0.0364956644	 0.124983
H	-0.4726703328	 1.9612926021	-0.7523936072	 0.117528
H	-0.3599042771	 1.8834699972	 1.0185653057	 0.122644
H	-1.0016756408	-0.3351193605	 0.1371670233	 0.066217
H	-0.1563406309	-0.3818793821	-2.0912329293	 0.102634
H	 1.4833834343	 0.0323319847	-1.5911806407	 0.100409
H	 2.7835332787	-3.100260168	-1.214041672	 0.107881
H	 2.8265693571	-1.5212081428	-0.2784372334	 0.115539
H	 0.5886765847	-3.6758024026	-0.007755768	 0.086728
H	-0.4822150854	-2.0652613263	 1.4797613729	 0.065548
H	 2.4593990424	-2.1721957219	 2.342747933	 0.125557
H	 1.0768315418	-1.7878924275	 3.3881647823	 0.122565
H	 1.2357527166	-3.4117844644	 2.686230773	 0.116554
81.5109	174.1617	213.0378	220.7192	233.9279	260.6982	362.516	378.5096	451.0006	457.0747	480.4412	584.2533	673.1108	748.3233	819.0904	848.8333	886.8878	912.3859	940.3008	973.1292	1004.1498	1025.1427	1070.5189	1097.9798	1111.3351	1120.5447	1141.0249	1156.1552	1166.6578	1180.0304	1209.7406	1270.0501	1311.3956	1335.8091	1358.144	1368.2224	1385.1507	1400.2131	1405.719	1411.7031	1432.7506	1482.3918	1483.7845	1491.2339	1497.5263	1501.3499	1506.3798	2933.1435	2948.8854	3016.4325	3041.7843	3043.8151	3055.2483	3093.3292	3107.2095	3114.8261	3118.2401	3120.984	3123.7862	3179.0553
CC1CN2CC2C(C)O1	C[C@H]1CN2C[C@H]2[C@@H](C)O1	
InChI=1S/C7H13NO/c1-5-3-8-4-7(8)6(2)9-5/h5-7H,3-4H2,1-2H3	InChI=1S/C7H13NO/c1-5-3-8-4-7(8)6(2)9-5/h5-7H,3-4H2,1-2H3/t5-,6+,7-,8?/m0/s1
