17
gdb 15528	3.00779	1.89273	1.24336	4.0254	74.61	-0.2514	0.0084	0.2598	975.0785	0.143112	-326.766596	-326.758779	-326.757835	-326.798867	28.731	
C	-0.0616114994	 1.5090652537	 0.0335322746	-0.499415
C	 0.014827009	 0.0176038648	-0.0183024242	 0.334706
C	 0.0288322631	-0.7756557528	-1.0894627044	-0.166204
C	 0.0535229684	-2.2440325931	-0.7499420192	-0.260643
C	 0.399256791	-2.2493190524	 0.758251638	-0.223586
C	 0.0098434026	-0.8270718148	 1.2595561505	-0.224058
C	 0.9003624146	-0.3210497933	 2.3050074436	 0.270969
N	 1.6079326751	 0.0860033241	 3.1238162455	-0.33599
H	 0.7809855402	 1.9299490327	 0.5943637699	 0.151408
H	-0.0600305328	 1.9408350453	-0.9702636889	 0.128175
H	-0.9735625362	 1.8415069482	 0.5463346747	 0.130143
H	-0.0189608699	-0.4137444015	-2.1111706179	 0.096726
H	-0.9247187733	-2.7055229465	-0.9451817254	 0.112464
H	 0.7824260608	-2.8097636542	-1.3401690962	 0.113623
H	-0.1066635657	-3.0358707513	 1.3214914827	 0.11491
H	 1.4751602628	-2.3874521031	 0.8911719184	 0.130908
H	-1.0051778004	-0.8287898958	 1.6845442984	 0.125864
82.1183	139.67	178.7061	230.7735	247.8028	322.6203	439.5581	500.6252	566.497	592.4809	663.2126	798.1196	840.2582	871.3581	928.0732	948.3681	987.0497	1037.9582	1041.6468	1063.7291	1075.2686	1156.0991	1196.3728	1234.9508	1261.4004	1294.7998	1311.9859	1331.4645	1357.246	1417.7504	1477.6826	1485.5977	1488.5548	1501.8624	1728.2244	2353.1776	2994.5574	3010.1582	3022.1373	3059.6066	3073.2098	3075.4515	3119.6794	3122.1038	3189.0921
CC1=CCCC1C#N	CC1=CCC[C@H]1C#N	
InChI=1S/C7H9N/c1-6-3-2-4-7(6)5-8/h3,7H,2,4H2,1H3	InChI=1S/C7H9N/c1-6-3-2-4-7(6)5-8/h3,7H,2,4H2,1H3/t7-/m0/s1
