21
gdb 118389	3.0583	0.79275	0.66393	2.6137	85.74	-0.2487	-0.0232	0.2255	1725.9775	0.178411	-387.073702	-387.062679	-387.061735	-387.111095	38.47	
C	-0.0641479916	 1.5625269887	 0.0062593769	-0.382746
C	 0.046284571	 0.0365318063	-0.0481524219	-0.18168
C	 0.6811166226	-0.5539591884	 1.2162692717	-0.191636
C	 0.771097247	-2.0976408195	 1.2128067761	-0.066223
C	 1.6709541915	-2.5987626902	 2.3666540846	-0.388696
C	 1.8071706851	-4.0500838134	 2.3978869145	 0.284588
C	 1.8946813738	-5.2486843046	 2.39607169	-0.420543
C	-0.6284873036	-2.6701608434	 1.352807407	 0.178063
O	-1.3081462961	-3.0716165058	 0.445298761	-0.250379
H	 0.9195315765	 2.0294320485	 0.1297124692	 0.113611
H	-0.5080204913	 1.9596822759	-0.9114811829	 0.117764
H	-0.6905359136	 1.8856022368	 0.8452465809	 0.115442
H	-0.9456566249	-0.4025600429	-0.2034669617	 0.120578
H	 0.6448802249	-0.2597591017	-0.9188305626	 0.102776
H	 1.6944942604	-0.1500394979	 1.3402778784	 0.101259
H	 0.1175943738	-0.2270494301	 2.1026055828	 0.099135
H	 1.1737918224	-2.4405611682	 0.254439024	 0.106137
H	 2.6591240588	-2.1328392869	 2.2721593064	 0.136939
H	 1.2608494695	-2.2469450005	 3.3235753806	 0.133376
H	 1.9761813999	-6.3074415927	 2.4016583021	 0.200029
H	-1.0198432461	-2.6518165401	 2.3992331728	 0.072207
52.6376	54.5553	78.6222	100.3983	111.2198	193.423	243.9644	276.4497	314.9654	341.2911	350.6193	374.385	519.4795	578.3692	630.4021	646.5813	740.7622	834.2546	862.311	889.0208	959.1423	975.566	1001.4669	1026.5706	1059.2443	1090.3756	1125.9159	1158.6446	1215.7463	1242.9385	1273.7765	1323.2326	1331.023	1351.9606	1354.7416	1395.14	1414.9504	1427.8786	1467.7495	1485.9052	1493.9153	1500.4805	1511.1236	1836.0378	2240.0159	2837.7001	3001.526	3014.3287	3028.424	3031.446	3037.3733	3052.2809	3068.5978	3074.4977	3097.8915	3105.8352	3506.1841
CCCC(CC#C)C=O	CCC[C@@H](CC#C)C=O	
InChI=1S/C8H12O/c1-3-5-8(7-9)6-4-2/h1,7-8H,4-6H2,2H3	InChI=1S/C8H12O/c1-3-5-8(7-9)6-4-2/h1,7-8H,4-6H2,2H3/t8-/m1/s1
