22
gdb 64215	2.71306	1.2289	1.07022	2.4286	82.66	-0.2374	0.0807	0.3181	1256.4345	0.192424	-404.305195	-404.295608	-404.294663	-404.339867	35.946	
C	-0.2620363011	 1.5178807691	 0.15445882	-0.421533
C	-0.0207260176	 0.0185086949	 0.0486328576	 0.411957
C	-1.2613879662	-0.7387663606	-0.4028471394	-0.429984
O	 1.0965976573	-0.2577123976	-0.8521298559	-0.325424
C	 1.9213577341	-0.7401443238	 0.2233940169	-0.090193
C	 0.7655649465	-0.6323728436	 1.232415673	-0.060984
N	 1.02764982	 0.197556863	 2.3885057149	-0.055612
C	 0.1405350409	 0.0178754068	 3.535804955	-0.225549
C	 1.5362403588	-0.4949403674	 3.5714246256	-0.225251
H	 0.6301760071	 2.0325998867	 0.5142190218	 0.131473
H	-0.5270705901	 1.9118249655	-0.8319878906	 0.116207
H	-1.08383734	 1.7369539165	 0.8442534462	 0.109529
H	-1.5980366362	-0.3693697002	-1.3769241731	 0.123666
H	-1.0498503943	-1.8075984391	-0.4997664927	 0.114354
H	-2.0798054746	-0.6076150374	 0.3137407002	 0.111498
H	 2.3123592666	-1.7452216717	 0.0263721405	 0.095973
H	 2.7551502748	-0.0624566037	 0.4466246127	 0.102099
H	 0.3443249164	-1.6122667048	 1.511551265	 0.052946
H	-0.1283884976	 0.9244514148	 4.0696915523	 0.120291
H	-0.6580664958	-0.7179438359	 3.4539643682	 0.112415
H	 1.6710092857	-1.573873477	 3.5130596171	 0.11202
H	 2.3045334455	 0.0307340655	 4.1305345848	 0.120101
54.9365	73.2046	163.7471	196.2024	222.3202	244.2103	308.8347	330.2258	347.1044	405.7587	453.8653	518.4049	651.8065	738.3936	821.5014	859.6161	889.8989	897.9679	928.1638	947.9847	984.8236	997.1364	1023.4183	1033.4712	1082.6186	1097.0659	1112.8496	1118.3409	1166.6718	1171.0045	1176.201	1186.8672	1229.1746	1268.6751	1288.2905	1325.3165	1340.2223	1392.1528	1402.2828	1413.6055	1474.2028	1476.3493	1489.4673	1494.5509	1502.4047	1516.3971	1520.398	2953.7566	3013.4199	3030.739	3041.0616	3060.1044	3094.6454	3099.0055	3100.6437	3108.1024	3111.2789	3139.7939	3179.7262	3193.7712
CC1(C)OCC1N1CC1	CC1(C)OC[C@H]1N1CC1	
InChI=1S/C7H13NO/c1-7(2)6(5-9-7)8-3-4-8/h6H,3-5H2,1-2H3	InChI=1S/C7H13NO/c1-7(2)6(5-9-7)8-3-4-8/h6H,3-5H2,1-2H3/t6-/m1/s1
