15
gdb 16637	3.24887	2.34023	1.58969	3.3638	60.42	-0.2447	0.011	0.2557	792.5521	0.120859	-399.822635	-399.81596	-399.815016	-399.853422	26.029	
O	 0.0799255701	 1.3989770349	 0.2017892228	-0.43614
C	-0.0265132819	 0.00020936	 0.0683071157	 0.028039
C	-1.4450325676	-0.5155446615	-0.0522564437	-0.050813
C	-2.2627732615	-0.103633968	-1.2567937477	-0.294918
C	-1.4850573981	-1.3963138737	-1.2807141885	-0.017022
N	-0.1699527313	-1.3449774736	-1.8678736829	-0.304705
C	 0.6434853408	-0.4343446073	-1.253764016	 0.356552
O	 1.6825267424	 0.0323243455	-1.6718845778	-0.384435
H	 0.9257728452	 1.6311456898	-0.2090083832	 0.293086
H	 0.4808299033	-0.5127760071	 0.902024434	 0.090831
H	-1.9683385483	-0.8149230884	 0.8463881995	 0.101805
H	-3.3408046279	-0.1612523723	-1.1544790745	 0.121655
H	-1.9038510365	 0.7187333113	-1.8662778434	 0.132459
H	-1.9788776359	-2.3603499572	-1.2883552051	 0.108562
H	-0.009531993	-1.5683189524	-2.8396605093	 0.255044
100.6795	204.5412	265.3215	417.9116	438.3671	480.3897	516.7661	559.7546	628.8528	720.2495	740.8021	792.2197	832.74	875.4321	942.6444	971.2556	1033.5351	1059.8015	1068.3204	1093.7464	1136.982	1147.7276	1201.6213	1246.2522	1270.9161	1339.7205	1378.0775	1381.0777	1416.943	1432.0193	1484.0656	1824.8574	2966.2769	3135.9131	3182.7858	3196.1614	3227.3285	3608.0721	3730.8102
OC1C2CC2NC1=O	O[C@H]1[C@H]2C[C@H]2NC1=O	
InChI=1S/C5H7NO2/c7-4-2-1-3(2)6-5(4)8/h2-4,7H,1H2,(H,6,8)	InChI=1S/C5H7NO2/c7-4-2-1-3(2)6-5(4)8/h2-4,7H,1H2,(H,6,8)/t2-,3+,4-/m0/s1
