18
gdb 98331	4.34522	0.81204	0.70401	4.1262	74.7	-0.2529	0.0132	0.2661	1556.6269	0.147624	-435.313205	-435.303062	-435.302118	-435.349245	35.2	
C	-0.2229227186	 1.554417988	-0.7809256665	-0.335484
N	-0.1547689827	 0.1112220842	-0.881049086	-0.311577
C	 0.8521385867	-0.6147912801	-0.3451579246	 0.421208
O	 1.8125627728	-0.1493023474	 0.2479053683	-0.392072
C	 0.6802701148	-2.1412793689	-0.5088616779	-0.099927
N	-0.2049203419	-2.4728385414	-1.6224931421	-0.529144
C	 2.0864944672	-2.7917403208	-0.5456235208	-0.343655
C	 1.9951723055	-4.2473713424	-0.554741559	 0.250836
N	 1.8736875099	-5.3968944506	-0.5737393372	-0.311036
H	 0.6699284097	 1.8916508699	-0.252716045	 0.169544
H	-0.2504699127	 2.0194893085	-1.7723921588	 0.128082
H	-1.1101029769	 1.8727914158	-0.2223719579	 0.130297
H	-0.8795228187	-0.4160194529	-1.3470880595	 0.26144
H	 0.1810369214	-2.4837488612	 0.4062061003	 0.136121
H	 0.277182187	-2.3553368404	-2.5100019377	 0.23807
H	-0.4891020173	-3.4461654225	-1.5705890531	 0.256567
H	 2.6283606152	-2.4602298238	-1.4392023762	 0.148924
H	 2.6629389386	-2.445934024	 0.3160438238	 0.181804
54.626	71.8523	88.8494	119.3529	154.7398	213.0024	288.0493	303.9699	365.3814	395.2485	403.0275	470.6146	518.1994	635.2275	688.0127	768.4596	858.6366	874.2496	903.9322	959.0982	1015.6184	1102.9921	1123.3711	1151.9914	1162.9604	1182.9672	1232.8459	1263.2751	1276.7318	1351.5194	1407.7398	1441.2132	1459.4675	1495.1119	1500.1014	1569.0693	1663.1869	1775.1786	2358.0538	3029.9081	3039.0546	3055.2257	3082.3892	3114.4722	3150.8768	3490.0309	3571.2289	3598.1687
CNC(=O)C(N)CC#N	CNC(=O)[C@@H](N)CC#N	
InChI=1S/C5H9N3O/c1-8-5(9)4(7)2-3-6/h4H,2,7H2,1H3,(H,8,9)	InChI=1S/C5H9N3O/c1-8-5(9)4(7)2-3-6/h4H,2,7H2,1H3,(H,8,9)/t4-/m0/s1
