18
gdb 11531	5.53669	1.02293	0.93085	2.1693	69.4	-0.2645	-0.0371	0.2274	1243.0655	0.152091	-384.934021	-384.925459	-384.924515	-384.967801	30.967	
O	 0.2762729991	 1.5364055118	-0.1990554624	-0.429264
C	 0.0529557262	 0.1601617594	-0.0582313603	 0.057846
C	 0.601373972	-0.6378117729	-1.2591108434	-0.231827
C	-0.1153410132	-0.3208715759	-2.5537182717	 0.033239
C	 0.2595858997	 0.896395591	-3.3565498887	-0.235325
C	 0.5984710169	-0.4790276209	-3.8740321821	-0.285614
C	 0.6638247886	-0.3403283938	 1.2339082411	 0.13454
O	 1.2485127886	 0.3959755075	 1.9918454885	-0.2612
H	 0.751312903	 1.8052542892	 0.6033575555	 0.292885
H	-1.0321086994	-0.0480729867	 0.0183130478	 0.090817
H	 1.6703085719	-0.411922494	-1.3570969082	 0.107368
H	 0.5158764238	-1.7115057819	-1.0404371337	 0.095958
H	-1.1710074617	-0.5832683414	-2.5486040498	 0.08016
H	-0.5318511407	 1.4517545326	-3.8470709551	 0.110919
H	 1.062712232	 1.5147186103	-2.973752859	 0.12299
H	 1.6383250768	-0.7893852371	-3.852807188	 0.109299
H	 0.0390707602	-0.8685044619	-4.717455593	 0.110844
H	 0.5459530061	-1.4228557853	 1.4475573725	 0.096366
57.0533	82.3802	108.4143	197.179	283.4476	319.4832	343.8466	402.1239	432.5179	504.4656	746.6047	767.2997	804.1662	834.0651	841.4657	880.0987	940.3092	960.2168	1010.7765	1039.8729	1062.8123	1073.0766	1132.8375	1151.4699	1176.0437	1195.4777	1230.599	1255.7334	1271.7684	1328.5433	1354.5853	1402.3684	1415.3507	1441.0903	1468.1363	1474.0206	1508.4112	1812.4775	2915.0491	2931.7063	3010.1572	3061.407	3128.2149	3130.3014	3144.1917	3209.7329	3230.7015	3688.2044
OC(CC1CC1)C=O	O[C@@H](CC1CC1)C=O	
InChI=1S/C6H10O2/c7-4-6(8)3-5-1-2-5/h4-6,8H,1-3H2	InChI=1S/C6H10O2/c7-4-6(8)3-5-1-2-5/h4-6,8H,1-3H2/t6-/m0/s1
