20
gdb 123243	4.64913	0.56119	0.54604	2.4342	74.8	-0.2536	0.0292	0.2828	2019.6011	0.169807	-477.432371	-477.421935	-477.420991	-477.470036	35.727	
O	 0.0409439432	 1.1919869969	 0.1610143502	-0.418544
C	-0.026150794	-0.2116648239	 0.0139803864	-0.058343
C	-1.4648958229	-0.6915171254	-0.0891916329	-0.071431
O	-2.0256422659	-0.0642355151	-1.2317007349	-0.271138
C	-3.4152647136	-0.288621938	-1.3922127169	-0.062419
C	-3.8456311524	 0.3820946695	-2.6871054543	-0.167967
N	-3.1262067639	-0.1603408221	-3.8243543192	-0.269433
C	-3.7444073534	-0.6455912775	-4.9327956271	 0.157127
O	-4.9430323303	-0.6541435607	-5.1199612636	-0.324177
H	-0.525934189	 1.5557165273	-0.5290316303	 0.287107
H	 0.5300834658	-0.5528191572	-0.8743649743	 0.090517
H	 0.4476502771	-0.6549464063	 0.8957402442	 0.113068
H	-1.5099382139	-1.7883446768	-0.1838543444	 0.093361
H	-2.0232912919	-0.3988657845	 0.8134501488	 0.101524
H	-3.6227283672	-1.3690502313	-1.4364788027	 0.103711
H	-3.9761139247	 0.1317308376	-0.542701968	 0.100298
H	-4.9093526099	 0.2174740281	-2.8708842252	 0.151828
H	-3.6758238167	 1.4635943141	-2.606272304	 0.116733
H	-2.1239943587	-0.2301412995	-3.7470469707	 0.253338
H	-3.0151897677	-1.0410555252	-5.6673895111	 0.07484
31.1763	46.4606	68.9157	97.6202	177.6671	199.8808	239.6183	255.2879	335.0371	366.4758	428.0771	530.2187	533.96	573.013	758.2663	833.9296	879.8007	908.3743	949.9349	1031.7265	1057.0079	1082.5006	1086.7765	1129.6193	1139.2207	1153.7149	1213.0707	1237.3547	1251.785	1271.0072	1288.6264	1374.7325	1385.1854	1395.3324	1429.0574	1433.1408	1447.018	1486.7756	1497.9762	1500.9018	1522.0603	1529.3493	1805.3312	2937.8995	2971.1249	2974.7736	2981.0401	3010.043	3018.5331	3032.1952	3082.1316	3125.6399	3641.862	3798.6419
OCCOCCNC=O	OCCOCCNC=O	
InChI=1S/C5H11NO3/c7-2-4-9-3-1-6-5-8/h5,7H,1-4H2,(H,6,8)	InChI=1S/C5H11NO3/c7-2-4-9-3-1-6-5-8/h5,7H,1-4H2,(H,6,8)
