18
gdb 107193	3.53149	1.23975	1.14158	2.1119	71.34	-0.2273	0.0548	0.2821	1114.2889	0.147206	-438.977069	-438.968856	-438.967911	-439.009752	32.076	
O	-0.135956359	 1.4165305255	 0.1404231248	-0.417415
C	 0.0086474157	 0.0179683555	-0.0431252653	-0.149357
C	-1.3094260632	-0.6933179312	 0.0629998552	 0.271486
C	-1.7826324133	-1.717288914	-0.8920103034	-0.296772
N	-2.3870157635	-0.3578059034	-0.9414758508	-0.200846
C	-3.3329948458	-0.1390454667	 0.213320211	-0.075446
C	-3.5107120132	-1.1845705584	 1.2842822753	 0.089956
O	-3.602754516	-2.5774503053	 1.1588286066	-0.419727
C	-2.2392485536	-0.4142850426	 1.2631533069	-0.162398
H	-0.8044053134	 1.6968371011	-0.4968037347	 0.291159
H	 0.4680904687	-0.2176098858	-1.015494749	 0.092528
H	 0.6925233336	-0.3259785722	 0.7418815749	 0.112851
H	-1.1503938279	-1.8891120058	-1.7596292787	 0.116075
H	-2.3640787324	-2.5622092394	-0.5566016221	 0.150452
H	-4.0162686666	 0.6961893198	 0.1091350527	 0.100376
H	-4.1734104389	-0.7870929734	 2.0583522312	 0.100384
H	-4.4840823025	-2.7819172381	 0.8262491626	 0.288761
H	-1.9097978188	 0.2016042043	 2.0896788227	 0.107934
83.477	135.7012	187.0215	264.5787	305.2924	324.9974	435.5382	453.6257	489.9148	553.4096	611.0223	653.3824	722.3401	723.8028	758.7648	849.3863	924.613	936.097	967.4642	987.0371	1000.4562	1026.0598	1068.8334	1076.0864	1096.4966	1136.712	1140.842	1191.6331	1221.2236	1246.0803	1289.8034	1311.2882	1329.1508	1371.0121	1397.7995	1429.5435	1466.374	1489.53	1500.1067	2987.0681	3061.7857	3064.0416	3127.1023	3171.5044	3201.1126	3264.7191	3784.0387	3797.9932
OCC12CN1C1C(O)C21	OC[C@]12CN1[C@H]1[C@@H](O)[C@@H]21	
InChI=1S/C6H9NO2/c8-2-6-1-7(6)4-3(6)5(4)9/h3-5,8-9H,1-2H2	InChI=1S/C6H9NO2/c8-2-6-1-7(6)4-3(6)5(4)9/h3-5,8-9H,1-2H2/t3-,4+,5-,6-,7?/m0/s1
