15
gdb 43281	2.98594	1.78746	1.47653	2.1132	69.96	-0.2411	-0.0642	0.1769	896.6896	0.11363	-420.586034	-420.579379	-420.578435	-420.616961	26.443	
O	-0.0451048475	-0.0622093834	-0.0374547641	-0.320774
C	-0.0301325363	 1.1420394312	 0.0268469934	 0.331598
C	-1.2356501615	 2.0447072201	 0.1062686146	-0.179519
C	-0.8946473669	 3.3399196162	-0.019526618	-0.161942
C	 0.5840151795	 3.4661860397	-0.0590801178	 0.360357
C	 1.424768242	 3.0545282688	 1.1065013917	-0.356197
C	 1.1628013672	 2.0729882009	-0.0317039049	 0.00816
C	 1.9129875411	 2.5362270313	-1.2917044622	-0.140702
O	 1.3608892037	 3.8842262837	-1.1913157838	-0.320043
H	-2.2346406675	 1.6491427171	 0.2480141452	 0.126283
H	-1.5796124905	 4.1804385094	-0.0396868284	 0.129729
H	 2.4235145603	 3.4688879926	 1.2065834257	 0.13526
H	 0.906003248	 2.8566221107	 2.0369113134	 0.139236
H	 3.0069600195	 2.5380247877	-1.2475659054	 0.119869
H	 1.5746612191	 2.0406885342	-2.2068044794	 0.128685
121.8305	224.5749	284.1473	368.0484	406.4398	440.0613	584.5064	602.4951	686.8466	737.5769	768.4554	797.2272	852.2191	877.7808	905.7085	948.9319	971.2439	984.3749	991.5311	1044.2392	1074.9681	1108.9979	1119.7143	1151.4036	1209.0279	1280.2442	1309.1155	1351.1512	1372.1932	1464.0815	1513.5971	1603.3599	1816.129	3039.8528	3096.0867	3130.3561	3190.3376	3216.9582	3231.8802
O=C1C=CC23CC12CO3	O=C1C=C[C@@]23C[C@@]12CO3	
InChI=1S/C7H6O2/c8-5-1-2-7-3-6(5,7)4-9-7/h1-2H,3-4H2	InChI=1S/C7H6O2/c8-5-1-2-7-3-6(5,7)4-9-7/h1-2H,3-4H2/t6-,7-/m1/s1
