19
gdb 30059	3.01057	1.35667	1.01596	3.5927	83.46	-0.2016	0.0342	0.2357	1202.6612	0.160992	-382.099115	-382.090486	-382.089542	-382.134361	31.337	
C	-0.2316689551	 1.4559168841	 0.0378092882	-0.344099
N	 0.0080430896	 0.025781236	 0.0145578861	-0.047582
C	 0.0456464332	-0.7686489541	-1.1172352511	-0.140992
C	 0.2982600353	-2.0355292789	-0.670995556	-0.099198
N	 0.4175077909	-2.0481221978	 0.697140147	-0.330999
C	 0.239266327	-0.7992294072	 1.0840650678	 0.370163
C	 0.2793624932	-0.3295849677	 2.4812879776	-0.128618
C	-0.2349375191	-1.2445477167	 3.5774942807	-0.252872
C	 1.2375337729	-0.9957016425	 3.4515870276	-0.25287
H	 0.6195358205	 1.9945841884	 0.4657726679	 0.144745
H	-0.3788419837	 1.8049237127	-0.9852349021	 0.143353
H	-1.1282962052	 1.6991348252	 0.6163919456	 0.144754
H	-0.1087538357	-0.3531463971	-2.0993666612	 0.119353
H	 0.4010029982	-2.9379218244	-1.2545199263	 0.102393
H	 0.1116796977	 0.732525164	 2.6193566391	 0.077997
H	-0.7729219785	-0.7910933577	 4.4027779355	 0.107927
H	-0.6076344938	-2.2079126923	 3.2502190351	 0.139306
H	 1.8447597824	-1.7934596716	 3.0405574431	 0.139317
H	 1.7265513703	-0.3686888924	 4.1890571653	 0.107924
23.9244	36.1273	161.1371	174.6815	204.6693	288.9966	403.696	479.2547	615.7311	632.0214	703.0574	731.5055	745.5074	800.9314	818.2323	842.2104	908.8934	909.6113	945.556	1053.3901	1065.673	1087.8872	1089.2086	1106.3959	1121.7731	1149.6417	1160.8658	1206.8227	1207.4954	1230.4413	1313.573	1355.8919	1391.5178	1448.1291	1455.2162	1483.7747	1486.7047	1508.8237	1515.9322	1528.2978	1566.3815	3038.9067	3097.9412	3136.3463	3138.9594	3140.2025	3171.268	3226.1065	3240.3616	3244.297	3273.5055
CN1C=CN=C1C1CC1	Cn1ccnc1C1CC1	
InChI=1S/C7H10N2/c1-9-5-4-8-7(9)6-2-3-6/h4-6H,2-3H2,1H3	InChI=1S/C7H10N2/c1-9-5-4-8-7(9)6-2-3-6/h4-6H,2-3H2,1H3
