18
gdb 64516	2.72623	1.76637	1.36218	2.7414	74.54	-0.2399	-0.0274	0.2126	978.6208	0.147018	-401.884044	-401.876247	-401.875303	-401.916215	30.207	
C	-0.0422539059	 1.5773576498	-0.2227751879	-0.462028
C	 0.0223283074	 0.0473958497	-0.1157595166	 0.224377
C	-1.3959228754	-0.4770000239	-0.0714129522	 0.100793
O	-1.9276886809	-0.9670551024	 0.8926165474	-0.254516
C	 0.9848006801	-0.5467484278	-1.1632366181	-0.092371
C	 2.1257633687	-0.4594276562	-0.222208363	-0.054641
C	 1.0532345437	-0.4577611427	 0.9375030526	-0.124573
C	 1.0479467237	-1.9830905084	 0.7406043172	-0.166827
N	 1.6286891329	-1.798279785	-0.6351297435	-0.154031
H	 0.9656967772	 1.9970328188	-0.2925638781	 0.132431
H	-0.5984001501	 1.8911980589	-1.1132686691	 0.124233
H	-0.5380684416	 2.0086574152	 0.6527345307	 0.134171
H	-1.9552823125	-0.3455599198	-1.0293996877	 0.074255
H	 0.9653018124	-0.4270682237	-2.239093922	 0.101384
H	 3.1473227245	-0.1199645208	-0.3274452391	 0.101949
H	 1.118851672	 0.0178170429	 1.9136450187	 0.080932
H	 1.7973062306	-2.491460065	 1.3519529015	 0.110593
H	 0.0968241732	-2.5175609295	 0.7917173093	 0.123869
89.7192	175.2468	213.526	229.2221	284.755	315.5423	425.6175	499.7554	532.3874	697.4895	767.4652	772.8082	799.5125	831.6324	908.9368	913.0636	933.8007	944.7584	980.5251	993.7691	1005.0487	1029.5212	1056.3255	1135.0435	1148.4011	1150.8635	1172.3003	1190.1064	1211.4094	1246.7812	1277.8346	1292.9161	1334.4655	1403.2409	1423.3421	1489.8213	1496.5403	1517.5533	1823.5851	2838.9502	3030.196	3068.1045	3096.7171	3111.4717	3126.291	3141.6804	3194.7912	3210.5813
CC1(C=O)C2C3C1CN23	C[C@@]1(C=O)[C@H]2[C@H]3[C@@H]1CN23	
InChI=1S/C7H9NO/c1-7(3-9)4-2-8-5(4)6(7)8/h3-6H,2H2,1H3	InChI=1S/C7H9NO/c1-7(3-9)4-2-8-5(4)6(7)8/h3-6H,2H2,1H3/t4-,5+,6+,7-,8?/m0/s1
