15
gdb 22650	3.1816	1.06936	1.01677	3.5227	68.41	-0.265	-0.0194	0.2456	1193.1533	0.112376	-453.912785	-453.904555	-453.903611	-453.946259	29.825	
O	-0.1796046309	 1.3062485136	 0.2006407516	-0.391447
N	-0.0102750934	-0.0864332991	 0.2015602224	-0.202997
C	-1.112910693	-0.669331973	-0.032704033	 0.371323
C	-2.4728059008	-0.0485310235	-0.2523463945	-0.162462
O	-3.3471563869	-1.1471377065	-0.5234984006	-0.248251
C	-2.7924581744	-2.3179182879	 0.0566626081	-0.047556
C	-1.2616654849	-2.1691176236	-0.0999041488	-0.325319
C	-3.1894886371	-2.4523277476	 1.4767109003	 0.275092
N	-3.4994919976	-2.5521657414	 2.5852632798	-0.313218
H	 0.7051047138	 1.6252906396	 0.4092201497	 0.314225
H	-2.7910973472	 0.5093380526	 0.6393828417	 0.145198
H	-2.4976854591	 0.6324223868	-1.1075195292	 0.147925
H	-3.1926468378	-3.1748918604	-0.4908184812	 0.140502
H	-0.9685565783	-2.5447971109	-1.0858655617	 0.141969
H	-0.6825221625	-2.6936700187	 0.6603219055	 0.155016
52.9798	115.4826	187.5943	219.8142	266.3949	308.799	380.1945	440.9479	502.5241	531.5667	583.2531	670.5223	760.4848	823.763	849.2847	937.3466	961.7304	985.9304	995.8067	1054.6208	1087.4002	1178.7436	1203.6294	1233.7676	1266.5712	1305.9707	1344.8371	1367.496	1410.6271	1467.7311	1490.1307	1772.5352	2355.16	3016.6952	3056.4062	3090.3706	3093.5271	3137.4207	3819.3279
ON=C1COC(C1)C#N	ON=C1CO[C@@H](C1)C#N	
InChI=1S/C5H6N2O2/c6-2-5-1-4(7-8)3-9-5/h5,8H,1,3H2	InChI=1S/C5H6N2O2/c6-2-5-1-4(7-8)3-9-5/h5,8H,1,3H2/t5-/m0/s1
