20
gdb 81189	2.99073	1.57263	1.43206	1.3262	85.	-0.2038	0.0106	0.2145	1023.1866	0.17222	-365.921607	-365.914281	-365.913337	-365.95283	30.689	
C	-0.1019368864	 1.639289388	 0.0930544363	-0.451088
C	 0.0456509879	 0.1265071608	 0.0273784326	 0.038406
C	 1.1759361489	-0.5863105155	-0.7514881536	-0.052915
C	 2.1945311109	-0.1730342765	 0.3721521635	-0.294699
C	 0.9120206325	-0.722435376	 1.0573450972	 0.28489
C	 0.3206884673	-1.3466506201	 2.279568547	-0.217445
C	-0.3472782876	-2.4323207989	 1.8676623985	-0.055514
C	-0.2073641926	-2.6618776197	 0.3587541766	-0.253077
N	 0.9977632536	-1.8597361147	 0.0785019717	-0.113654
H	 0.8374510998	 2.1662376246	 0.2772756486	 0.117598
H	-0.5155544268	 2.0236974191	-0.8467045451	 0.117582
H	-0.7998011957	 1.9181298635	 0.8906700666	 0.119198
H	-0.9372440525	-0.3192425062	-0.14569953	 0.068635
H	 1.3579167206	-0.6149865837	-1.8273939757	 0.077105
H	 3.068660058	-0.8181985198	 0.4562722527	 0.108746
H	 2.4341284932	 0.884500842	 0.4718389717	 0.094513
H	 0.3397615247	-0.9445124258	 3.2837688544	 0.103966
H	-0.9558676777	-3.0736912423	 2.4953686705	 0.099336
H	-0.0246078509	-3.7112910877	 0.1024045844	 0.107228
H	-1.1382631773	-2.3671761311	-0.1541681179	 0.101188
168.1609	188.9971	246.964	292.969	379.5142	440.9604	491.3609	535.5138	596.46	636.8586	707.9969	761.9219	793.6792	815.6271	831.5706	850.7966	908.1267	933.9728	940.2558	970.0471	1004.418	1026.1846	1050.1341	1088.8553	1095.4407	1112.9812	1121.8269	1130.7211	1165.9676	1186.3874	1199.47	1223.3316	1234.6739	1255.1818	1313.2316	1359.303	1402.6981	1416.9027	1486.4774	1495.3184	1505.2019	1508.9244	1626.6204	2956.994	3030.0073	3049.8976	3071.5129	3084.3882	3089.4404	3101.2354	3119.7662	3170.1993	3193.6354	3226.8268
CC1C2CC11C=CCN21	C[C@H]1[C@H]2C[C@]31C=CCN23	
InChI=1S/C8H11N/c1-6-7-5-8(6)3-2-4-9(7)8/h2-3,6-7H,4-5H2,1H3	InChI=1S/C8H11N/c1-6-7-5-8(6)3-2-4-9(7)8/h2-3,6-7H,4-5H2,1H3/t6-,7+,8-/m0/s1
