21
gdb 70921	3.42655	1.49225	1.2743	0.0862	88.63	-0.2364	0.0187	0.2551	1075.0719	0.184199	-349.899809	-349.892378	-349.891434	-349.931015	31.424	
C	 0.1146738526	 1.5277381528	 0.00752823	-0.510538
C	 0.0256894327	 0.024349443	-0.0095320821	 0.300806
C	 0.6050698773	-0.9437773082	-1.1251778316	-0.351358
C	-0.0738715072	-1.8629127125	-0.071013509	 0.338437
C	 0.6041618899	-0.9719122585	 1.0210172825	-0.281291
C	-0.6150352604	-3.2436981428	 0.2561086792	-0.406938
C	-1.8329945493	-2.8188180338	 1.0919738933	-0.036436
C	-2.1472246261	-1.5178107469	 0.9786985952	-0.158596
C	-1.2670194015	-0.8808644226	-0.0689208168	-0.044943
H	 1.1583462988	 1.8613826959	-0.0151471492	 0.116439
H	-0.3962555118	 1.965175706	-0.8573896629	 0.115804
H	-0.3477996178	 1.9367099756	 0.9125855841	 0.11811
H	 0.134930206	-0.8922287853	-2.1118851569	 0.087496
H	 1.6958842481	-0.9789063304	-1.2021495239	 0.086443
H	 1.6955412276	-1.0317452558	 1.0776103645	 0.077795
H	 0.1513099134	-0.9768337129	 2.0139994816	 0.092583
H	-0.9281823527	-3.8173676772	-0.6275112942	 0.108473
H	 0.0828815847	-3.8726788006	 0.8200241894	 0.104979
H	-2.3774228253	-3.5319813207	 1.7035746289	 0.090356
H	-2.9942649076	-1.0490030165	 1.4681497785	 0.08745
H	-1.8070128613	-0.7760553087	-1.0210117004	 0.064929
200.5466	208.051	224.4243	281.1139	357.233	428.9833	475.0078	520.6258	566.3698	621.7303	695.8194	718.1752	774.2941	802.2056	835.2071	892.8363	902.2059	923.9277	961.7637	970.9322	995.6874	1011.9678	1028.1018	1046.9841	1085.8172	1101.5153	1116.4992	1128.4849	1145.8567	1159.0542	1174.3076	1199.9126	1223.6852	1262.4203	1289.4887	1316.8183	1357.9092	1371.1655	1407.9606	1473.8588	1488.1753	1490.2296	1493.9552	1538.6111	1625.0284	2992.6135	3012.0934	3023.6296	3040.1475	3051.183	3062.0675	3090.2388	3092.7608	3106.3165	3122.7644	3169.9554	3195.2258
CC12CC3(C1)CC=CC23	C[C@@]12C[C@]3(C1)CC=C[C@@H]23	
InChI=1S/C9H12/c1-8-5-9(6-8)4-2-3-7(8)9/h2-3,7H,4-6H2,1H3	InChI=1S/C9H12/c1-8-5-9(6-8)4-2-3-7(8)9/h2-3,7H,4-6H2,1H3/t7-,8-,9+/m0/s1
