22
gdb 91908	2.39781	1.46913	1.02291	2.2552	81.85	-0.2179	0.0678	0.2857	1229.1979	0.195462	-404.329355	-404.320544	-404.3196	-404.362443	34.67	
C	-0.0293991976	 1.5739909123	 0.0184970087	-0.402717
C	 0.0181217954	 0.0441614069	-0.0165584382	 0.023236
C	 0.7349868623	-0.499389325	-1.2583718157	-0.242263
C	 0.5770151764	-2.0207340063	-1.3383573422	 0.092366
O	 1.4161649099	-2.6121113718	-2.326747521	-0.436798
C	 0.8868931311	-2.7092126122	-0.0231268828	 0.007033
C	 2.1710571326	-2.4626465964	 0.6793385112	-0.237282
N	 0.9197746931	-1.9703482957	 1.2493181923	-0.111364
C	 0.692906464	-0.5139492215	 1.2458908598	-0.146649
H	 0.9805167577	 2.0000241462	 0.0024723808	 0.115124
H	-0.5723678568	 1.9724100421	-0.8448377209	 0.111721
H	-0.5289139507	 1.9356154427	 0.9236631676	 0.115254
H	-1.0166092869	-0.3292385696	-0.0370908481	 0.076906
H	 0.3267645302	-0.0458479368	-2.1710139165	 0.082861
H	 1.8009857197	-0.2402784614	-1.228692514	 0.102723
H	-0.4791537987	-2.2336261337	-1.5754337321	 0.065529
H	 1.1418211972	-2.2732500884	-3.1856401033	 0.27816
H	 0.4425332424	-3.6987165526	 0.0645833441	 0.089886
H	 2.6579773578	-3.2658197521	 1.2270403393	 0.10978
H	 2.8567937874	-1.7408604693	 0.2390416289	 0.109529
H	 1.6523000632	 0.0012136547	 1.3938507958	 0.094946
H	 0.0740072105	-0.2769739421	 2.1196964264	 0.10202
92.0887	154.4501	215.9814	235.3171	254.7335	288.9368	366.1373	394.8652	423.4558	429.6252	443.1386	584.4332	610.5675	750.6832	831.3305	864.9088	904.394	908.559	941.7056	962.7187	991.7095	1029.9952	1066.4482	1069.418	1109.9298	1114.8401	1122.3441	1160.5621	1164.2838	1179.4393	1213.1086	1252.0534	1285.5173	1292.0695	1327.0561	1337.3622	1376.9379	1383.0944	1398.0871	1411.4182	1422.2505	1441.1707	1491.8009	1496.4257	1499.2434	1503.3908	1522.7609	2951.3374	2992.3004	3005.1237	3015.9862	3026.9482	3044.3785	3058.2315	3093.291	3093.7027	3098.1722	3119.4995	3174.1277	3803.8457
CC1CC(O)C2CN2C1	C[C@H]1C[C@@H](O)[C@H]2CN2C1	
InChI=1S/C7H13NO/c1-5-2-7(9)6-4-8(6)3-5/h5-7,9H,2-4H2,1H3	InChI=1S/C7H13NO/c1-5-2-7(9)6-4-8(6)3-5/h5-7,9H,2-4H2,1H3/t5-,6+,7+,8?/m0/s1
