16
gdb 113349	2.62069	1.04795	0.84432	3.9684	66.56	-0.2903	-0.0047	0.2856	1343.8186	0.122011	-474.991143	-474.981566	-474.980621	-475.026388	33.448	
O	-0.0678450752	 1.3322670174	-0.5586961749	-0.407448
C	 0.056156769	 0.1156540882	 0.1525989683	-0.099465
C	-1.2864451587	-0.5695815917	 0.2654648095	-0.002198
O	-1.7235344941	-1.3438325963	-0.8601262272	-0.281412
C	-1.4983267938	-2.0323908128	 0.3830797741	 0.163512
C	-0.3920033255	-3.0754238509	 0.3585699377	-0.132907
O	-0.8037504803	-4.2327333617	-0.3319277618	-0.399926
C	-2.7185745791	-2.4740677777	 1.0444216631	 0.279013
N	-3.6707684782	-2.8186651472	 1.6004384224	-0.323662
H	-0.3432251794	 1.120317809	-1.4575377806	 0.297235
H	 0.7970255622	-0.5503443638	-0.3075109857	 0.104221
H	 0.412309277	 0.3810483592	 1.1536980389	 0.132118
H	-2.0675057056	 0.0676815883	 0.6813803005	 0.127402
H	 0.5108381539	-2.6327902504	-0.0793245802	 0.105785
H	-0.1598188893	-3.3882897013	 1.3811591552	 0.137936
H	-1.0142255328	-3.9762252483	-1.2371919492	 0.299793
58.5663	74.9797	132.1276	149.9496	164.6694	236.691	315.4907	355.2847	385.8631	411.8839	436.8386	496.3483	584.7978	663.7107	707.6943	812.8033	904.4045	959.4033	990.4541	1067.7428	1079.9362	1092.1781	1114.776	1191.6188	1232.2172	1258.7293	1318.6978	1368.683	1382.1171	1414.9903	1421.5967	1470.6302	1481.7779	1492.618	2362.0264	3018.5903	3037.1219	3083.3376	3095.709	3120.3289	3801.8922	3807.5465
OCC1OC1(CO)C#N	OC[C@H]1O[C@]1(CO)C#N	
InChI=1S/C5H7NO3/c6-2-5(3-8)4(1-7)9-5/h4,7-8H,1,3H2	InChI=1S/C5H7NO3/c6-2-5(3-8)4(1-7)9-5/h4,7-8H,1,3H2/t4-,5+/m1/s1
