20
gdb 103570	2.29596	1.25584	1.14226	3.2667	75.03	-0.2422	0.007	0.2491	1224.3067	0.169761	-440.31857	-440.308692	-440.307748	-440.353176	36.331	
C	-0.0939049355	 1.5222514693	-0.3804476794	-0.398198
C	-0.1172946406	 0.0172511608	-0.0916901866	-0.206579
C	-1.5041887187	-0.5460192015	 0.2006175325	 0.427314
C	-2.2115332534	 0.0865440497	 1.3853447085	-0.45182
O	-2.3577469551	-0.4393710018	-1.014923967	-0.286533
C	-2.3653205183	-1.7930164565	-1.2107109802	 0.417011
O	-2.8034904236	-2.3957626514	-2.1399424627	-0.334574
C	-1.6142130211	-2.1013419462	 0.0988342062	-0.23083
N	-0.4191269031	-2.9107200565	 0.1179018117	-0.51699
H	 0.9092421538	 1.835508494	-0.6833159072	 0.11756
H	-0.7856017331	 1.7710931458	-1.1905387012	 0.139169
H	-0.3707665609	 2.1134594651	 0.4972516766	 0.119994
H	 0.2967914556	-0.5145641869	-0.9561127671	 0.094496
H	 0.5319853646	-0.2272973584	 0.7565966037	 0.116759
H	-2.3559711218	 1.1595688946	 1.2378963169	 0.136642
H	-3.1953312784	-0.368143748	 1.5329055751	 0.124518
H	-1.6222297084	-0.0590913407	 2.2966081768	 0.1293
H	-2.3110096917	-2.4853477055	 0.8495314629	 0.112973
H	-0.6561478732	-3.886682904	 0.2541542126	 0.246552
H	 0.082172933	-2.8537022219	-0.7621596521	 0.243235
73.6161	99.3169	174.7338	190.1953	214.9429	223.4804	243.4088	303.71	327.366	345.5938	444.7951	465.5018	591.5202	641.7211	712.6883	772.3251	796.8686	808.9642	855.0288	917.9612	952.8074	1002.5345	1021.8715	1063.0655	1098.5572	1139.3864	1180.5677	1204.4924	1231.562	1241.9849	1277.1906	1331.1752	1384.9957	1411.9234	1413.7557	1431.6855	1469.5501	1487.5605	1494.6843	1507.9781	1511.9807	1671.3129	1922.3032	3035.7665	3042.8752	3045.6043	3073.6188	3075.9699	3112.2628	3113.8512	3120.3336	3126.0957	3518.0408	3595.3139
CCC1(C)OC(=O)C1N	CC[C@@]1(C)OC(=O)[C@H]1N	
InChI=1S/C6H11NO2/c1-3-6(2)4(7)5(8)9-6/h4H,3,7H2,1-2H3	InChI=1S/C6H11NO2/c1-3-6(2)4(7)5(8)9-6/h4H,3,7H2,1-2H3/t4-,6-/m1/s1
