22
gdb 93894	2.65514	1.44635	1.15505	2.7442	80.88	-0.2464	0.0632	0.3095	1159.1872	0.196983	-404.346545	-404.338167	-404.337223	-404.379173	33.855	
C	-0.0521082608	 1.5473319524	 0.0337132877	-0.403158
C	 0.0258750509	 0.0164326598	 0.0000113074	 0.033376
C	 0.6183151296	-0.5057416319	-1.3203673558	-0.212631
C	 0.8341564625	-2.0218832259	-1.2809343693	-0.224796
C	 1.8886765425	-2.4283004883	-0.2373074146	 0.138366
O	 3.2039877677	-2.1637310864	-0.6992218151	-0.446091
C	 1.6537024339	-1.7257680246	 1.1062604924	-0.084599
N	 2.2601052893	-0.378492951	 1.1686120654	-0.349993
C	 0.7924260108	-0.5157008628	 1.1990590338	-0.010721
H	 0.9526918295	 1.9802484785	-0.007569154	 0.126741
H	-0.6231042672	 1.9306588548	-0.8182659161	 0.111258
H	-0.5363324	 1.9055079711	 0.9490487075	 0.104591
H	-0.9948916095	-0.3852979201	 0.0873188677	 0.071247
H	-0.0511784678	-0.2354080893	-2.1441536161	 0.089765
H	 1.5739092258	-0.0063571994	-1.5183555141	 0.107805
H	-0.1149302355	-2.522703812	-1.0436305593	 0.083217
H	 1.1640717515	-2.3946017326	-2.2555837774	 0.101589
H	 1.8293254407	-3.5116691283	-0.0806862671	 0.072735
H	 3.4047496865	-1.2712847385	-0.381268723	 0.288785
H	 1.7474639514	-2.3463976176	 1.9935316231	 0.086407
H	 2.6295868366	-0.1903575011	 2.0950861253	 0.236477
H	 0.3124148718	-0.3309029968	 2.1596975916	 0.079629
78.203	190.2211	228.1934	259.6269	290.4497	327.4995	363.4705	435.9743	487.2957	507.4915	558.664	611.8299	708.6647	760.5757	771.0326	865.5653	878.5997	910.3716	929.2932	940.3714	960.8527	1001.235	1033.4473	1054.7109	1093.577	1100.0183	1131.1345	1158.2325	1166.044	1178.6762	1225.4359	1244.3511	1271.1708	1306.0092	1331.6509	1348.6931	1355.861	1378.3237	1389.6726	1398.3328	1408.5274	1447.4162	1456.6584	1476.0917	1493.4326	1496.739	1504.8777	2992.5388	3011.2007	3028.3978	3037.0858	3037.7201	3075.3182	3082.6095	3094.4381	3105.5324	3107.8562	3139.0795	3521.7942	3717.4371
CC1CCC(O)C2NC12	C[C@H]1CC[C@@H](O)[C@H]2N[C@@H]12	
InChI=1S/C7H13NO/c1-4-2-3-5(9)7-6(4)8-7/h4-9H,2-3H2,1H3	InChI=1S/C7H13NO/c1-4-2-3-5(9)7-6(4)8-7/h4-9H,2-3H2,1H3/t4-,5+,6-,7+/m0/s1
