19
gdb 91893	2.3142	1.57022	1.04822	2.0058	75.55	-0.236	-0.0111	0.225	1148.3763	0.160526	-423.046657	-423.038556	-423.037611	-423.079272	31.787	
O	-0.0394440546	 1.4402391922	 0.0395193519	-0.435548
C	 0.0174119057	 0.0231265011	-0.004797968	 0.124265
C	-1.4208982014	-0.4791085752	 0.1428149511	-0.224275
C	-1.585782508	-1.9704908144	-0.1507718746	-0.048754
C	-1.7986535306	-2.4379020703	-1.554288822	-0.289374
C	-0.4719782296	-2.7366248526	-0.8675456287	-0.112102
C	 0.7604947827	-2.0093564561	-1.2788857212	 0.388496
O	 1.8003640939	-2.5889504055	-1.5062288719	-0.332465
C	 0.6522017419	-0.4891012831	-1.3113067434	-0.345521
H	 0.8618192656	 1.7777773547	 0.016440628	 0.2838
H	 0.615826243	-0.3600566544	 0.838287283	 0.077625
H	-1.7653218936	-0.259501349	 1.157106132	 0.113542
H	-2.0462615819	 0.1159862993	-0.5329631648	 0.115537
H	-2.0927742655	-2.5401141092	 0.6206505609	 0.099606
H	-2.4468358543	-3.2870279807	-1.738099674	 0.125275
H	-1.8056285158	-1.6921438488	-2.3425487071	 0.123167
H	-0.2890649771	-3.768476959	-0.5905528302	 0.105662
H	 0.0336068269	-0.1591572858	-2.1555733779	 0.120904
H	 1.6592257929	-0.0863199032	-1.4529024132	 0.110158
92.4171	131.7436	212.7372	290.8453	325.7247	351.2319	404.9049	439.2237	463.7201	497.4822	572.0686	689.4845	762.1605	798.9659	860.8216	876.9806	879.9042	949.8545	955.1964	996.7536	1051.6947	1065.3793	1089.9445	1096.4669	1114.8732	1131.853	1177.9546	1210.1146	1230.1043	1256.7833	1271.9397	1297.233	1336.1307	1368.0032	1385.5202	1395.2222	1433.0082	1469.6921	1485.7893	1501.2959	1796.1557	2962.1813	3034.5968	3042.1076	3091.1098	3097.2277	3135.0752	3162.6248	3181.5142	3222.1432	3816.8623
OC1CC2CC2C(=O)C1	O[C@H]1C[C@H]2C[C@H]2C(=O)C1	
InChI=1S/C7H10O2/c8-5-1-4-2-6(4)7(9)3-5/h4-6,8H,1-3H2	InChI=1S/C7H10O2/c8-5-1-4-2-6(4)7(9)3-5/h4-6,8H,1-3H2/t4-,5-,6+/m0/s1
