14
gdb 132960	2.36101	1.93725	1.07131	2.9612	68.56	-0.2308	-0.0604	0.1704	1018.7139	0.101074	-478.023085	-478.015434	-478.01449	-478.055925	27.738	
C	-0.0155683041	 1.4662684092	 0.0500347862	-0.365737
N	 0.0030981872	 0.00242966	 0.0208902425	-0.198778
C	-0.0240286436	-0.65832419	-1.2420921682	 0.382982
O	-0.0622707057	-0.0289141575	-2.2826317964	-0.386281
C	-0.0011932053	-2.1122363015	-1.1130419618	-0.090761
N	 0.0394688144	-2.7657318523	 0.0082983879	-0.220593
C	 0.0638329153	-2.0752521999	 1.1829898622	-0.192802
C	 0.0453700347	-0.7164641239	 1.1689472438	 0.361104
F	 0.0673047606	 0.0092369336	 2.2763928445	-0.050808
H	 0.8832458132	 1.8497096907	 0.5379680496	 0.15268
H	-0.0498103543	 1.7923284815	-0.9878592046	 0.186002
H	-0.8946717226	 1.826002809	 0.5892286499	 0.152678
H	-0.0205347401	-2.6672856499	-2.0466746348	 0.137099
H	 0.0976922102	-2.6213018291	 2.1157820492	 0.133217
54.3314	119.905	206.4133	247.2352	322.7095	374.2711	481.0925	508.8994	526.5828	604.3167	665.1125	699.4351	761.1985	810.1133	827.286	925.1171	975.6503	1115.1517	1153.8113	1178.1632	1200.5997	1246.3675	1299.6945	1381.0475	1420.7332	1490.3493	1501.4733	1510.2166	1551.6443	1657.6081	1775.5956	3062.1608	3130.7675	3176.6197	3181.4622	3223.2286
CN1C(=O)C=NC=C1F	Cn1c(=O)cncc1F	
InChI=1S/C5H5FN2O/c1-8-4(6)2-7-3-5(8)9/h2-3H,1H3	InChI=1S/C5H5FN2O/c1-8-4(6)2-7-3-5(8)9/h2-3H,1H3
