23
gdb 77569	2.28057	1.43278	1.28475	1.7422	85.35	-0.2418	0.0851	0.3269	1186.2511	0.20272	-388.275992	-388.265891	-388.264947	-388.309885	38.886	
C	-0.4509101092	 1.4934250872	 0.3908542686	-0.417402
C	-0.1485802878	 0.0054127134	 0.274771926	-0.101526
C	 0.2385488282	-0.5266974659	-1.1208448295	 0.42374
C	-0.6593329359	-0.9572876656	-2.2353682474	-0.505854
O	 1.4839131718	 0.1108136922	-1.4665258888	-0.300616
C	 1.5199293509	-1.0452865669	-0.6178483811	-0.082148
C	 1.2289874415	-0.5833310284	 0.8247231427	 0.299964
C	 2.235582609	 0.4068940793	 1.4033328171	-0.449124
C	 1.0013121015	-1.7694175289	 1.7619231349	-0.450169
H	 0.3166467454	 2.0879553485	-0.1105410474	 0.132642
H	-1.4165622018	 1.7298518076	-0.0703122524	 0.110299
H	-0.502409961	 1.8104481041	 1.4377319522	 0.112536
H	-0.9767194839	-0.580637188	 0.689144559	 0.066377
H	-1.1944192726	-0.1003415495	-2.6605676863	 0.129436
H	-0.0784343443	-1.4239297541	-3.035522784	 0.132853
H	-1.4059899979	-1.6741147379	-1.8780556094	 0.121926
H	 2.1262542366	-1.8834463325	-0.9497282908	 0.088865
H	 2.4750414691	 1.1901190994	 0.6809222695	 0.1326
H	 1.8487454373	 0.8808107564	 2.3124302321	 0.109443
H	 3.1680831276	-0.1038364269	 1.6703593176	 0.107258
H	 1.9435107955	-2.2856528552	 1.9801922223	 0.111904
H	 0.5753034211	-1.4378455156	 2.7154039954	 0.116307
H	 0.3139328889	-2.5023222027	 1.3249046699	 0.110689
110.0106	185.1196	198.5819	208.6905	223.0354	228.6148	244.2161	258.2453	298.0061	327.9322	360.6677	450.4047	544.7697	573.823	576.659	693.5766	741.1627	822.8706	854.4386	883.0897	946.8501	953.5173	993.8501	1009.7571	1019.077	1049.2337	1057.2739	1098.4509	1135.0209	1184.5511	1188.3592	1207.0156	1237.0851	1279.3617	1305.8983	1364.9279	1394.9216	1402.9325	1404.0532	1416.6169	1464.8961	1480.4202	1482.9776	1487.2548	1493.8343	1495.278	1501.6442	1504.5057	1515.064	3019.8952	3028.807	3031.1586	3032.1227	3042.8987	3084.3333	3088.0219	3090.5358	3092.2744	3092.878	3118.2912	3119.9644	3128.0862	3156.0205
CC1C2(C)OC2C1(C)C	C[C@H]1[C@@]2(C)O[C@H]2C1(C)C	
InChI=1S/C8H14O/c1-5-7(2,3)6-8(5,4)9-6/h5-6H,1-4H3	InChI=1S/C8H14O/c1-5-7(2,3)6-8(5,4)9-6/h5-6H,1-4H3/t5-,6+,8-/m1/s1
