17
gdb 32570	2.07523	1.83694	1.05842	5.6215	70.35	-0.196	0.0436	0.2396	1122.3239	0.136479	-455.196418	-455.187581	-455.186637	-455.230268	32.379	
C	 0.1246555141	 1.5932340918	 0.0448629782	-0.382112
C	-0.0269391532	 0.0745244253	-0.0632746681	-0.157581
N	 0.6926132712	-0.4959761586	-1.1915551461	-0.154966
C	 0.0733832986	-0.8003748187	-2.3915373947	 0.48824
O	-1.097594186	-0.7404018701	-2.6664711033	-0.421147
O	 1.0638469765	-1.1998146257	-3.2496857006	-0.218691
C	 2.2770298238	-1.1471177517	-2.5720708679	-0.11379
C	 2.0692819604	-0.7047935282	-1.321664089	 0.257009
N	 2.9386460152	-0.3731635175	-0.2806431266	-0.601505
H	 1.1729521136	 1.8715239919	 0.1790429089	 0.138173
H	-0.2546698013	 2.0793185971	-0.8582332784	 0.139842
H	-0.4466387685	 1.9658844596	 0.9007881886	 0.119283
H	 0.3099019378	-0.4138797066	 0.8579500562	 0.104051
H	-1.0734800899	-0.1996214555	-0.2172448411	 0.152343
H	 3.1578599999	-1.4328029256	-3.1170702206	 0.138792
H	 3.9042478544	-0.528210282	-0.5420504745	 0.256906
H	 2.7446255934	-0.8849393757	 0.5743746891	 0.255153
60.0914	96.8699	175.7567	217.3693	220.0788	296.0503	340.1431	354.6457	406.2093	584.291	596.2069	608.011	633.8879	716.5705	761.1517	779.0378	789.6093	807.15	960.2198	1009.7164	1069.0334	1103.7078	1125.079	1147.9734	1218.0645	1275.7798	1312.2661	1377.732	1389.6863	1410.1169	1462.1737	1490.4192	1494.598	1508.036	1640.4	1726.7715	1868.8958	3042.4429	3045.6281	3107.3128	3118.9402	3135.2746	3306.7504	3507.2776	3610.0622
CCN1C(=O)OC=C1N	CCn1c(=O)occ1N	
InChI=1S/C5H8N2O2/c1-2-7-4(6)3-9-5(7)8/h3H,2,6H2,1H3	InChI=1S/C5H8N2O2/c1-2-7-4(6)3-9-5(7)8/h3H,2,6H2,1H3
