17
gdb 102048	2.48953	1.04231	0.80955	3.8485	66.52	-0.2666	-0.0568	0.2098	1391.2587	0.131644	-496.10883	-496.098507	-496.097563	-496.145416	34.983	
O	 0.0309390696	 1.4036208986	 0.0375542542	-0.425173
C	 0.0904314921	-0.0121804122	-0.0367466915	-0.104133
C	-1.3490826623	-0.5023650189	 0.0580281767	-0.171074
C	-2.1877806508	 0.0315911288	-1.1161881799	 0.160758
O	-3.3826965045	-0.0714017645	-1.18711815	-0.237908
C	-1.440490438	-2.0249620129	 0.083490584	 0.33037
O	-0.5405759683	-2.7284083104	-0.3252540758	-0.323038
C	-2.7065054471	-2.6465492614	 0.6385582496	-0.137853
O	-2.7016215366	-4.0359720405	 0.5040003481	-0.419875
H	 0.9143835252	 1.7553095649	-0.1069575866	 0.296564
H	 0.5301478887	-0.3569066889	-0.9834765712	 0.114792
H	 0.6893358324	-0.4440190847	 0.7763669805	 0.111098
H	-1.8230415296	-0.1079052562	 0.9650879409	 0.133919
H	-1.5938840606	 0.5179915771	-1.9167595474	 0.109737
H	-2.7817356622	-2.338066364	 1.6973126756	 0.114665
H	-3.5672473062	-2.1899440655	 0.12710976	 0.152518
H	-1.819898132	-4.2617236194	 0.1702718128	 0.294633
49.0121	58.0696	95.6892	116.7732	161.6587	205.76	247.6112	292.179	333.3537	341.759	378.6855	419.1894	526.5499	592.7698	702.4457	840.4207	884.6883	956.1352	1004.9328	1022.4645	1077.8802	1103.8867	1125.1195	1142.968	1220.1295	1241.3327	1252.8229	1274.7465	1313.1664	1329.9778	1418.5271	1445.9067	1456.5586	1490.1489	1520.6598	1780.687	1829.9527	2927.2674	2951.3978	3002.2537	3020.0923	3034.5709	3054.5833	3707.6992	3832.4606
OCC(C=O)C(=O)CO	OC[C@@H](C=O)C(=O)CO	
InChI=1S/C5H8O4/c6-1-4(2-7)5(9)3-8/h1,4,7-8H,2-3H2	InChI=1S/C5H8O4/c6-1-4(2-7)5(9)3-8/h1,4,7-8H,2-3H2/t4-/m1/s1
