16
gdb 123543	4.15399	1.59044	1.39348	4.9104	74.31	-0.2205	0.0075	0.228	922.2511	0.129038	-396.876043	-396.870066	-396.869121	-396.906358	24.771	
C	-0.0448357787	 1.5734108971	-0.0548995303	-0.208551
C	 1.5216881178	 1.3850607475	 0.023986408	-0.169875
C	 1.1820255154	 0.1685829105	 0.9729414759	-0.208551
C	-0.0470672135	-0.0026189159	-0.0001423157	-0.151511
C	 0.7027303149	-0.2930060279	-1.2919821496	 0.323217
C	 1.7286763716	 0.6195773533	-1.26936274	 0.389245
N	 2.4041416631	 0.382381764	-2.3998464426	-0.378215
N	 1.8151997912	-0.6436417127	-3.099043638	-0.147012
N	 0.7728098949	-1.046838298	-2.4058111098	-0.320693
H	-0.4513107313	 2.0326094514	 0.851226992	 0.103779
H	-0.4519243565	 2.0494488013	-0.9492823799	 0.110231
H	 2.1961045304	 2.1870861769	 0.3151640053	 0.081
H	 1.904348225	-0.6486191494	 1.0247560236	 0.110232
H	 0.8904797645	 0.4961719217	 1.9753572253	 0.103779
H	-0.929922294	-0.5754778297	 0.2706958627	 0.087211
H	 3.225805195	 0.8155070699	-2.7887245468	 0.275714
119.0576	311.7227	413.4845	475.6049	518.3916	566.999	666.0649	694.6602	697.9662	771.2186	798.9466	832.4756	860.1768	898.6995	961.0315	988.1711	999.2351	1036.2966	1045.615	1070.5609	1080.5362	1096.5343	1157.6741	1196.8559	1216.7718	1226.3251	1226.8937	1257.4102	1281.9825	1352.265	1425.2944	1479.293	1502.9273	1516.6336	1569.3304	3049.9156	3059.1746	3124.003	3128.0879	3144.4957	3158.1851	3663.9846
C1C2CC1C1=C2NN=N1	C1[C@H]2C[C@@H]1c1c2[nH]nn1	
InChI=1S/C6H7N3/c1-3-2-4(1)6-5(3)7-9-8-6/h3-4H,1-2H2,(H,7,8,9)	InChI=1S/C6H7N3/c1-3-2-4(1)6-5(3)7-9-8-6/h3-4H,1-2H2,(H,7,8,9)/t3-,4+
