17
gdb 118621	1.66324	1.22098	0.76399	3.5816	70.71	-0.2768	-0.0017	0.2751	1444.8839	0.134539	-455.171234	-455.161109	-455.160165	-455.207852	34.255	
O	 0.1106756967	 1.219707619	-0.07752491	-0.420658
C	 0.0584383761	-0.1963199019	-0.0488456109	-0.086803
C	-1.4162615203	-0.5778475827	 0.0319974948	-0.172462
C	-1.6334736021	-2.1040029809	 0.0697646532	-0.142051
N	-1.0989898447	-2.741633047	 1.2679410983	-0.279079
C	 0.0329474147	-3.501500899	 1.2289543005	 0.16359
O	 0.7179998525	-3.663973296	 0.2428813099	-0.318694
C	-3.0620894228	-2.4269576437	-0.0624263088	 0.280207
N	-4.1903070595	-2.6614307921	-0.1443754385	-0.31126
H	 1.0336087368	 1.4861730677	-0.1211820776	 0.291571
H	 0.507665654	-0.6393649903	-0.9510777794	 0.106559
H	 0.6016981201	-0.6018392758	 0.8171226426	 0.099614
H	-1.8652001408	-0.1171910275	 0.9185771928	 0.121055
H	-1.938338705	-0.1695350871	-0.8392011806	 0.136561
H	-1.0956812952	-2.5666007188	-0.765904776	 0.169659
H	-1.6223655336	-2.6774697939	 2.1273461898	 0.265464
H	 0.263218393	-3.9497231702	 2.2134195497	 0.096727
36.5123	74.9983	97.4157	116.9333	156.1671	216.244	255.1884	263.4427	314.267	365.6629	453.1324	515.6791	551.1525	590.3778	755.9149	797.0164	938.12	974.9196	1030.0076	1031.4182	1075.683	1091.8598	1132.6431	1194.6531	1227.467	1242.5249	1303.654	1313.8154	1342.9136	1369.2477	1423.2115	1469.0685	1483.2384	1518.2348	1524.223	1800.4422	2362.3292	2964.5404	2982.7651	3015.9201	3051.2288	3064.0413	3101.5744	3632.9132	3832.9794
OCCC(NC=O)C#N	OCC[C@@H](NC=O)C#N	
InChI=1S/C5H8N2O2/c6-3-5(1-2-8)7-4-9/h4-5,8H,1-2H2,(H,7,9)	InChI=1S/C5H8N2O2/c6-3-5(1-2-8)7-4-9/h4-5,8H,1-2H2,(H,7,9)/t5-/m1/s1
