21
gdb 38698	2.59587	2.03573	1.53701	0.2806	86.31	-0.212	0.0243	0.2364	955.6038	0.186452	-349.945108	-349.938304	-349.93736	-349.975667	29.825	
C	 0.02763047	 1.4976814057	 0.0199492385	-0.399159
C	 1.373263778	 0.8026548548	-0.0325454902	-0.013051
C	 2.2170062714	 0.2226848613	 1.1103838854	-0.249331
C	 1.5441119548	-1.1607839608	 1.3370999574	 0.005299
C	 0.0701224197	-0.7307955257	 1.3110413677	-0.267259
C	 0.0705831514	 0.0000392449	-0.0449024473	 0.313311
C	-0.0279865962	-0.9885167829	-1.154659422	-0.179427
C	 0.7961738947	-2.0339698882	-1.0190536237	-0.044321
C	 1.7629367476	-2.1667089985	 0.1534914966	-0.263903
H	-0.3321480286	 1.9360993345	 0.9470548234	 0.108108
H	-0.2374284151	 2.0714167298	-0.8643062367	 0.110232
H	 1.8779387575	 0.8969193031	-0.988034227	 0.086678
H	 3.2696277368	 0.1479684023	 0.8201519395	 0.092258
H	 2.1761279782	 0.8146513457	 2.0334507639	 0.09298
H	 1.8639621807	-1.6305630486	 2.2745239042	 0.052022
H	-0.6415634323	-1.5593069692	 1.3293412882	 0.09521
H	-0.1589114095	-0.0593912702	 2.1460258982	 0.086328
H	-0.7203317226	-0.8880599604	-1.9859017653	 0.08348
H	 0.7965671622	-2.8469839639	-1.7409132972	 0.082278
H	 2.7967450736	-2.0879012126	-0.2146397219	 0.103674
H	 1.6800144879	-3.189849171	 0.5444918783	 0.104595
175.5599	288.5981	338.3305	365.3925	445.8106	447.8468	485.3983	609.6518	635.0853	709.5343	739.571	762.1565	797.3372	838.422	880.4718	891.3261	901.2106	934.6049	954.9241	960.6253	973.1899	995.4129	1029.7891	1051.1028	1071.9407	1097.0391	1116.3429	1138.8116	1172.0927	1185.4605	1204.1372	1248.8384	1271.785	1289.5063	1304.606	1321.8313	1335.7823	1363.4736	1375.07	1429.4442	1468.3008	1484.929	1485.1691	1506.2667	1673.0201	2997.6236	3021.3616	3025.6354	3035.3042	3048.5268	3079.4768	3103.548	3107.0781	3147.6716	3159.4364	3171.8547	3190.2141
C1C2CC3CC12C=CC3	C1[C@H]2C[C@H]3C[C@@]12C=CC3	
InChI=1S/C9H12/c1-2-7-4-8-6-9(8,3-1)5-7/h1,3,7-8H,2,4-6H2	InChI=1S/C9H12/c1-2-7-4-8-6-9(8,3-1)5-7/h1,3,7-8H,2,4-6H2/t7-,8+,9-/m0/s1
