16
gdb 69389	3.27715	1.30779	1.03542	6.0282	72.56	-0.2562	-0.0315	0.2247	1143.449	0.122869	-437.902722	-437.894245	-437.893301	-437.936135	30.464	
C	-0.1502880965	 1.5721634513	 0.0832965913	-0.491958
C	 0.0766928762	 0.0918696165	 0.0035216457	 0.150804
C	-0.7349242406	-0.951848664	 0.7790020393	-0.331044
C	 0.7491821144	-0.8927183021	 0.9528347734	-0.059798
N	 1.4028081107	-1.5432501875	-0.1905200091	-0.129072
C	 1.9210982175	-2.8199085893	-0.2952150045	 0.14472
O	 2.2620006765	-3.3507293004	-1.3196226469	-0.275043
C	 0.8135749942	-0.6235945897	-1.1217330237	 0.402119
O	 0.9360014242	-0.4846693562	-2.2973423349	-0.311768
H	 0.7673932832	 2.1265529487	-0.1353061283	 0.139988
H	-0.9093429421	 1.8836589956	-0.6412902404	 0.147523
H	-0.4983328511	 1.863276489	 1.0787145188	 0.127014
H	-1.3351735218	-0.529968276	 1.5805477925	 0.132803
H	-1.1820086408	-1.80175916	 0.2724205636	 0.137692
H	 1.291345884	-0.688902988	 1.8660037791	 0.132449
H	 2.0086659219	-3.2929141379	 0.7049504343	 0.08357
72.6156	149.6436	156.7873	178.8603	213.2476	256.373	298.1239	460.6695	480.8642	521.2599	655.0693	696.387	754.6677	841.9728	870.1347	931.649	941.3986	978.315	998.0492	1033.9219	1077.8604	1102.9844	1111.9011	1139.1363	1227.0855	1259.4133	1361.4199	1387.3986	1423.2503	1429.7801	1483.0622	1488.7047	1496.9736	1809.3328	1921.9375	2919.5107	3039.511	3106.7183	3112.607	3119.1637	3207.8389	3217.8354
CC12CC1N(C=O)C2=O	C[C@]12C[C@H]1N(C=O)C2=O	
InChI=1S/C6H7NO2/c1-6-2-4(6)7(3-8)5(6)9/h3-4H,2H2,1H3	InChI=1S/C6H7NO2/c1-6-2-4(6)7(3-8)5(6)9/h3-4H,2H2,1H3/t4-,6+/m1/s1
