19
gdb 41476	3.15116	1.68714	1.35855	1.2861	74.01	-0.2456	0.0787	0.3243	985.7434	0.161345	-423.002631	-422.995537	-422.994593	-423.034167	28.563	
C	 0.1330084019	 1.5356970435	 0.3557116127	-0.227865
C	 1.5509193257	 1.6228368535	-0.2985872204	-0.319338
C	 1.4675409649	 0.1314978082	-0.5993234372	 0.437703
O	 2.0313039472	-0.3752958149	-1.7722667289	-0.287373
C	 2.1087904364	-1.7722803283	-1.5751033226	-0.005954
O	 2.3746156396	-1.9929097627	-0.2039828078	-0.261419
C	 1.7857141397	-0.9163092238	 0.5077639409	 0.041194
C	 0.2678848548	-1.0444568347	 0.843194487	-0.267569
C	-0.0541160144	 0.0788964047	-0.1745190309	-0.110118
H	 0.135215417	 1.6089929768	 1.4466352615	 0.10219
H	-0.5868804762	 2.2579384149	-0.0328020178	 0.109086
H	 1.5367359498	 2.2077929297	-1.2218837302	 0.117054
H	 2.3869048589	 1.9620177267	 0.3197577854	 0.101062
H	 1.1575517519	-2.2497617112	-1.8690557036	 0.088153
H	 2.9319533864	-2.1760741401	-2.170545965	 0.121334
H	 2.4558950363	-0.6427990964	 1.3266765378	 0.083157
H	-0.1221194045	-2.0247433869	 0.5567392841	 0.109334
H	-0.0066003133	-0.8493554253	 1.8839529813	 0.098835
H	-0.8735177021	-0.0745411437	-0.8770294562	 0.070535
89.1071	201.0774	220.3432	324.7843	402.2478	438.6879	470.8138	633.672	701.3242	735.648	765.8761	796.5365	852.4691	870.4931	891.2266	924.529	965.399	972.6728	1015.477	1027.8204	1072.8404	1078.8849	1099.5891	1132.6546	1167.0518	1185.5661	1194.2577	1217.5406	1224.8171	1234.1676	1244.7727	1270.6336	1288.6825	1293.6751	1312.2364	1353.3514	1431.0721	1469.3154	1477.9697	1495.1404	1542.3165	2948.0232	3053.4611	3055.0072	3064.045	3075.2862	3093.8839	3101.168	3106.6679	3112.4206	3125.4398
C1CC23OCOC2CC13	C1C[C@@]23OCO[C@@H]2C[C@@H]13	
InChI=1S/C7H10O2/c1-2-7-5(1)3-6(7)8-4-9-7/h5-6H,1-4H2	InChI=1S/C7H10O2/c1-2-7-5(1)3-6(7)8-4-9-7/h5-6H,1-4H2/t5-,6-,7+/m1/s1
