19
gdb 112344	2.05184	1.49799	0.91641	5.2504	79.32	-0.2615	-0.0354	0.2261	1293.6467	0.158564	-423.095599	-423.086514	-423.085569	-423.129616	33.263	
C	 0.0595942865	 1.5561990154	 0.0421516269	-0.386271
C	-0.0348626389	 0.0301617139	-0.0265936596	-0.18718
C	 0.6787297754	-0.5531757736	-1.2514282381	 0.021134
O	 2.0671151252	-0.205282858	-1.2178857245	-0.241136
C	 2.8419255245	-1.3431446204	-1.2584137575	 0.442844
O	 4.0395752969	-1.3045026111	-1.2332651702	-0.352182
C	 1.9228972458	-2.4971886255	-1.3370618867	-0.380382
C	 0.6598989892	-2.0633031404	-1.3402296756	 0.332004
C	-0.6069046705	-2.8464851297	-1.4232300813	-0.499523
H	 1.1037196433	 1.8764585317	 0.0734019323	 0.147524
H	-0.4099821903	 2.021120091	-0.831713061	 0.115919
H	-0.4445188732	 1.936663461	 0.9350822084	 0.116484
H	 0.4035439938	-0.4207014903	 0.8715481144	 0.111626
H	-1.085972619	-0.2812360992	-0.0619098571	 0.101559
H	 0.2483662369	-0.1124669993	-2.1638471582	 0.102337
H	 2.2828017282	-3.5147642335	-1.3880175906	 0.12681
H	-0.4085538494	-3.9130278125	-1.5489906006	 0.141222
H	-1.2126916238	-2.7153468806	-0.51882648	 0.146015
H	-1.2227615905	-2.5078045991	-2.2650781609	 0.141197
94.2714	126.1018	138.6885	172.0311	189.7058	241.7159	265.565	360.0761	419.6289	535.8258	549.4512	588.2309	686.7176	742.2443	790.2334	857.679	887.5718	910.867	964.7077	992.0685	1014.3801	1046.0076	1083.44	1112.6444	1138.5363	1164.2929	1183.5113	1280.8299	1296.9708	1331.5591	1361.3889	1377.5616	1412.09	1415.0676	1475.7324	1481.2034	1482.2897	1496.652	1509.0474	1702.0954	1870.0811	2993.219	3028.6646	3031.4064	3040.2677	3071.5574	3079.5191	3107.2894	3126.9034	3130.6984	3243.2223
CCC1OC(=O)C=C1C	CC[C@H]1OC(=O)C=C1C	
InChI=1S/C7H10O2/c1-3-6-5(2)4-7(8)9-6/h4,6H,3H2,1-2H3	InChI=1S/C7H10O2/c1-3-6-5(2)4-7(8)9-6/h4,6H,3H2,1-2H3/t6-/m1/s1
