18
gdb 9630	3.34016	1.37336	1.18855	4.292	70.26	-0.2402	-0.013	0.2272	1078.7963	0.150674	-384.929817	-384.920762	-384.919818	-384.963517	32.283	
C	 0.1890981656	 1.2935396561	 0.226718456	-0.249757
O	-0.2406776175	 0.0337521578	-0.2575502557	-0.27983
C	 0.5681549638	-0.5156262157	-1.2609013192	 0.42665
C	 0.4458254338	 0.1430605945	-2.6182131026	-0.453711
C	 1.8571609928	-1.1351338438	-0.8264391074	-0.357309
C	 0.6707513596	-2.0306748306	-1.207308539	-0.169766
C	-0.0055467039	-2.7926377997	-0.129324242	 0.175534
O	-0.4751924863	-3.8944868659	-0.2800672946	-0.275815
H	 1.2273038828	 1.2579594906	 0.5852672801	 0.110328
H	 0.1091252776	 2.0803827759	-0.5351499271	 0.114574
H	-0.4679690185	 1.5479955499	 1.0611163638	 0.134042
H	 0.8069343938	 1.176471619	-2.5946270378	 0.124271
H	 1.0347467838	-0.3957934987	-3.3650685749	 0.125014
H	-0.5997061794	 0.1514136804	-2.9407476148	 0.135932
H	 2.7128892477	-1.1304406503	-1.4920665425	 0.126593
H	 2.0982109859	-1.0894865928	 0.2307190684	 0.127734
H	 0.7158161799	-2.5549219056	-2.1556637197	 0.106079
H	-0.0451193315	-2.2736346511	 0.8510162389	 0.079438
86.8976	98.8912	142.6236	184.1192	216.0566	236.2848	287.7355	374.0264	382.6483	439.051	449.6211	600.9567	688.8467	851.1271	858.6316	909.388	929.4324	1016.8699	1042.6123	1063.2644	1074.7581	1105.6791	1122.2248	1179.5978	1181.4581	1218.2078	1241.3158	1295.1565	1369.7043	1414.621	1441.289	1471.9642	1474.3591	1481.0507	1493.5636	1503.1998	1510.3575	1814.1749	2914.7683	2996.9746	3038.7118	3051.9154	3104.9724	3122.0234	3123.4986	3132.3691	3178.0168	3223.4252
COC1(C)CC1C=O	CO[C@@]1(C)C[C@H]1C=O	
InChI=1S/C6H10O2/c1-6(8-2)3-5(6)4-7/h4-5H,3H2,1-2H3	InChI=1S/C6H10O2/c1-6(8-2)3-5(6)4-7/h4-5H,3H2,1-2H3/t5-,6-/m0/s1
