17
gdb 67113	2.69191	2.0586	1.74929	0.8013	71.37	-0.232	0.0695	0.3015	853.4706	0.137249	-421.728477	-421.721857	-421.720912	-421.759	27.609	
O	 0.2017936146	 1.3636345464	 0.1294897967	-0.480985
C	 0.1544190204	-0.0069010622	 0.0081991931	 0.42309
C	 0.3729424038	-0.9984905269	 1.171557822	-0.148385
C	-1.1365140124	-0.9520970056	 1.5845492037	-0.355876
C	-1.1478183387	-0.9169969036	 0.0410236341	 0.204668
C	-1.7838790823	-0.8002601767	-1.3229229299	-0.207195
O	-0.5667978344	-0.8044588416	-2.1247083844	-0.303372
C	 0.5211167275	-0.9143608385	-1.1678384318	-0.01565
C	 0.0666845264	-1.8916515846	-0.0759411999	-0.074775
H	-0.0861646392	 1.7474155167	-0.7074775113	 0.293662
H	 1.2437044917	-1.0686014936	 1.8228205684	 0.080622
H	-1.5473320902	-1.8463252181	 2.0619026299	 0.099664
H	-1.4707248875	-0.046626898	 2.0971447552	 0.112878
H	-2.4187782268	-1.6426415645	-1.6181238533	 0.109098
H	-2.3315820551	 0.1368261569	-1.4850687628	 0.099268
H	 1.4623839802	-0.9380050641	-1.7165525783	 0.07865
H	-0.014469788	-2.9752636722	-0.1070250716	 0.084637
212.167	237.2888	299.4834	320.9429	400.5026	469.2671	517.1596	651.4625	695.3738	743.509	774.5952	822.8849	866.5581	884.8005	891.4638	927.808	939.1815	960.247	992.5124	1030.0836	1045.3058	1064.8405	1110.9944	1115.9141	1137.3149	1173.113	1185.1596	1203.5152	1215.3319	1240.5605	1252.2469	1284.8895	1335.3743	1368.837	1406.5652	1505.0147	1522.4831	3017.5783	3053.6919	3063.7203	3116.8302	3117.4593	3125.9948	3154.4423	3790.7493
OC12C3CC11COC2C31	O[C@@]12[C@H]3C[C@]41CO[C@@H]2[C@@H]34	
InChI=1S/C7H8O2/c8-7-3-1-6(7)2-9-5(7)4(3)6/h3-5,8H,1-2H2	InChI=1S/C7H8O2/c8-7-3-1-6(7)2-9-5(7)4(3)6/h3-5,8H,1-2H2/t3-,4+,5+,6-,7+/m0/s1
