17
gdb 98350	2.47794	0.99178	0.74731	3.0839	67.11	-0.2782	-0.0457	0.2326	1461.9322	0.131686	-496.132906	-496.122806	-496.121862	-496.169705	34.387	
C	 1.3888243284	 1.5090458118	-0.4579298743	-0.392526
C	 0.3494112766	 0.472178042	-0.0428477889	 0.00692
O	 0.4076382708	-0.67334819	-0.9034299743	-0.189372
C	-0.5538971099	-0.820126559	-1.8428063156	 0.173394
O	-0.5594922984	-1.7224531506	-2.6203703046	-0.26127
C	 0.5448052455	 0.0151244164	 1.403507629	 0.334349
O	 0.7125957439	 0.8303482904	 2.2841290232	-0.325201
C	 0.5104310579	-1.4655544935	 1.7324231597	-0.12889
O	 0.6603580823	-1.6791330455	 3.1025928875	-0.420134
H	 2.3829862297	 1.0554450848	-0.4917623496	 0.144858
H	 1.1547365439	 1.9085729184	-1.4478246972	 0.1307
H	 1.3967739965	 2.3236379818	 0.2687490343	 0.156363
H	-0.6579959924	 0.9123451535	-0.0930329115	 0.12352
H	-1.3195550524	-0.0206015853	-1.797397866	 0.086306
H	-0.438670551	-1.8837977013	 1.3587625706	 0.125139
H	 1.3008830821	-1.9637328657	 1.1490092075	 0.139674
H	 0.7709469763	-0.7989254983	 3.4947813504	 0.296168
32.7161	40.6127	120.3096	139.7861	180.057	223.1506	231.0352	315.9339	340.5824	377.094	425.8119	437.9764	511.1579	643.1859	692.1358	826.6605	919.1982	948.5588	1028.4348	1042.4247	1105.9422	1118.8174	1134.8937	1177.6919	1188.9776	1242.4397	1303.5701	1324.8429	1351.2704	1401.3892	1432.3968	1446.6578	1476.1349	1487.7209	1494.7662	1797.7277	1875.569	2945.1034	2983.8649	3001.0592	3003.311	3054.6271	3130.7031	3148.7794	3698.1921
CC(OC=O)C(=O)CO	C[C@@H](OC=O)C(=O)CO	
InChI=1S/C5H8O4/c1-4(9-3-7)5(8)2-6/h3-4,6H,2H2,1H3	InChI=1S/C5H8O4/c1-4(9-3-7)5(8)2-6/h3-4,6H,2H2,1H3/t4-/m1/s1
