22
gdb 63660	3.98641	0.80006	0.76884	2.2718	83.68	-0.2305	0.0757	0.3062	1581.7396	0.192343	-404.29782	-404.288011	-404.287067	-404.332753	37.06	
C	-0.049962092	 1.5316012623	-0.1929196259	-0.447909
C	 0.0515348549	 0.0368710857	 0.0174174147	 0.388233
O	-1.0281101672	-0.6786919867	-0.535424283	-0.465872
C	 1.3956858901	-0.654615675	 0.0258058739	-0.351388
C	 0.5565091214	-0.5727851053	 1.2920753683	-0.01797
C	 0.9892214501	 0.2360814928	 2.4935769746	-0.182747
N	 1.7376953078	-0.5984349266	 3.4306258614	-0.056229
C	 3.1827353177	-0.6560390838	 3.2447532202	-0.213061
C	 2.5907871613	 0.1014220818	 4.3824460885	-0.221438
H	 0.7862185553	 2.069137176	 0.2613747579	 0.116849
H	-0.0460602179	 1.7661255862	-1.2649550597	 0.105744
H	-0.9829480803	 1.9173689318	 0.2305840685	 0.126392
H	-0.9786684362	-0.5866249822	-1.4938232393	 0.276958
H	 1.4681257367	-1.6167262838	-0.4687844634	 0.111088
H	 2.2876822575	-0.0382610753	-0.0377724952	 0.101713
H	 0.0469661286	-1.4940655272	 1.5570753634	 0.107265
H	 1.5747617473	 1.1187389172	 2.177563419	 0.072551
H	 0.1073652542	 0.6126467891	 3.0275971703	 0.107701
H	 3.6447229641	-1.6261396422	 3.4038002733	 0.115696
H	 3.6186033422	-0.0722287765	 2.4354424478	 0.105827
H	 2.6332957561	 1.188744041	 4.3286673888	 0.105123
H	 2.609673778	-0.3042238395	 5.3900688359	 0.115477
55.8301	84.5437	124.3877	204.9184	226.329	256.6124	313.4742	325.7319	372.1346	402.7455	427.9217	459.632	524.0462	702.3935	766.9763	832.1272	859.3486	881.5717	911.5465	913.1129	930.3089	989.894	1014.9003	1028.1593	1041.1119	1078.136	1092.0283	1112.0476	1116.0185	1124.2914	1152.8691	1172.2168	1198.7733	1240.0917	1287.2089	1294.0405	1321.7968	1342.1922	1383.3093	1414.3127	1430.2271	1477.9462	1487.087	1488.3585	1494.8303	1511.5865	1523.0059	2931.7416	3023.8328	3036.9179	3085.8218	3090.2355	3096.9387	3118.6038	3123.811	3163.5548	3174.0644	3188.7346	3215.7849	3786.6127
CC1(O)CC1CN1CC1	C[C@@]1(O)C[C@H]1CN1CC1	
InChI=1S/C7H13NO/c1-7(9)4-6(7)5-8-2-3-8/h6,9H,2-5H2,1H3	InChI=1S/C7H13NO/c1-7(9)4-6(7)5-8-2-3-8/h6,9H,2-5H2,1H3/t6-,7+/m0/s1
