15
gdb 27197	3.45785	1.63757	1.11903	2.9149	75.53	-0.1883	-0.005	0.1833	1023.4266	0.114964	-416.846014	-416.838741	-416.837796	-416.877689	27.649	
C	 0.0703123922	 1.4851328401	 0.0053664395	-0.497041
C	-0.0620561483	 0.0078282525	 0.0351613051	 0.253065
C	-1.1138384048	-0.862693958	-0.046646629	 0.15482
N	-2.4992924291	-0.9050617866	-0.1867138045	-0.353904
C	-2.7714552613	-2.1778450075	-0.1772281535	 0.00871
N	-1.6734704538	-3.0174113794	-0.0407057574	-0.437888
C	-0.5719591062	-2.1858729257	 0.0473359226	 0.27831
C	 0.7749006164	-2.0758909537	 0.1815013679	-0.159586
O	 1.0782129765	-0.7329967634	 0.1731415744	-0.193478
H	 0.6969125	 1.8209091501	-0.8292610288	 0.135589
H	-0.9205155947	 1.9302840011	-0.1085639316	 0.148333
H	 0.5179473717	 1.872461123	 0.9281854477	 0.135586
H	-3.7658226581	-2.5955349496	-0.2664278844	 0.132164
H	-1.698180276	-4.0208983607	-0.0137353914	 0.265697
H	 1.6074767257	-2.7474996622	 0.2861022834	 0.129621
108.7921	179.1438	245.794	251.9158	321.8687	379.9794	542.0782	598.4467	604.0035	615.6341	636.0181	706.375	767.4616	810.3616	875.8229	934.4449	953.9238	1060.7998	1073.3837	1102.0401	1126.2241	1160.9686	1274.7412	1295.8348	1316.6861	1364.0821	1414.9863	1430.7898	1473.49	1489.2383	1555.4807	1631.3363	1717.5545	3024.7861	3072.8405	3130.6842	3229.8148	3295.4459	3689.9487
CC1=C2N=CNC2=CO1	Cc1c2nc[nH]c2co1	
InChI=1S/C6H6N2O/c1-4-6-5(2-9-4)7-3-8-6/h2-3H,1H3,(H,7,8)	InChI=1S/C6H6N2O/c1-4-6-5(2-9-4)7-3-8-6/h2-3H,1H3,(H,7,8)
