21
gdb 105677	1.88809	1.64268	1.16634	1.8401	79.17	-0.2392	-0.0282	0.2109	1182.3209	0.179723	-424.218465	-424.20848	-424.207536	-424.253235	36.307	
C	-0.4103281453	 1.3888161818	 0.1618647417	-0.260071
O	-0.5530446777	 0.0147521719	-0.1486605717	-0.289322
C	 0.4256140738	-0.4810432302	-1.0294151455	 0.327268
C	 1.9212064439	-0.4756557863	-0.6121956292	-0.286687
C	 2.024087734	-1.9479955256	-1.0917661355	-0.224766
C	 0.4711640791	-2.0530434018	-1.0896556992	-0.052626
C	-0.1205556689	-2.7359402569	 0.1391709365	-0.397129
C	 0.1816583704	 0.0571871962	-2.4296244103	 0.103219
O	 1.0299944305	 0.2477240817	-3.2634935901	-0.252918
H	 0.5470321853	 1.5965326576	 0.6592402007	 0.117527
H	-0.4790528268	 2.0266717124	-0.7319536646	 0.114605
H	-1.2258749724	 1.6476516772	 0.8404947704	 0.133059
H	 2.5568452844	 0.2551996988	-1.1138525703	 0.116212
H	 2.0245330959	-0.3785021784	 0.4708944341	 0.108443
H	 2.4483318489	-2.0201218271	-2.0945742071	 0.121661
H	 2.5462680175	-2.6449691869	-0.4324020389	 0.099714
H	 0.0294909649	-2.4801149761	-1.9959094934	 0.077459
H	 0.3137424511	-2.3459585564	 1.0642081307	 0.119099
H	-1.2022323151	-2.5893836488	 0.1948397343	 0.128101
H	 0.0816475617	-3.8114867741	 0.0948035991	 0.112905
H	-0.9002191652	 0.2276271111	-2.6396820515	 0.084246
84.6962	102.8677	129.7616	170.3611	189.5349	229.7913	244.6144	271.547	299.7437	380.4863	413.0029	467.8776	597.6251	636.7451	741.5618	799.7929	882.2828	903.7728	910.2648	955.5691	977.6771	1033.8346	1072.0959	1087.0814	1114.0701	1175.0657	1181.7879	1189.3648	1206.6067	1223.1312	1237.9521	1268.3778	1279.2297	1289.4888	1360.3635	1397.9845	1406.3971	1463.8199	1480.0804	1486.6795	1489.3049	1491.6444	1494.9908	1508.1794	1824.0667	2865.418	2987.7622	3038.369	3041.5441	3046.3927	3069.3902	3075.1484	3107.3159	3120.8869	3122.7409	3123.3473	3139.889
COC1(CCC1C)C=O	CO[C@]1(CC[C@H]1C)C=O	
InChI=1S/C7H12O2/c1-6-3-4-7(6,5-8)9-2/h5-6H,3-4H2,1-2H3	InChI=1S/C7H12O2/c1-6-3-4-7(6,5-8)9-2/h5-6H,3-4H2,1-2H3/t6-,7-/m1/s1
