25
gdb 58265	2.71631	1.05763	0.80847	1.3367	89.18	-0.2545	0.072	0.3266	1513.4992	0.227664	-389.486873	-389.476301	-389.475356	-389.52243	39.927	
C	 0.067796066	 1.5837892366	 0.0360733336	-0.412787
C	-0.0147622667	 0.0549818992	 0.0547069507	 0.141295
O	 0.6944347842	-0.456206331	 1.1844905606	-0.426798
C	-1.4548320057	-0.4976589627	-0.0173691515	-0.028687
C	-2.1779705894	-0.0197880855	-1.2877712554	-0.406227
C	-1.4810025144	-2.0274160687	 0.0635815842	 0.093582
C	-1.1620263055	-2.7674962378	 1.3939803546	-0.219538
C	-2.2709134711	-3.7948541686	 1.047783536	-0.228947
C	-2.8564459952	-2.7587834903	 0.0520130571	-0.237637
H	 1.1056814511	 1.89247632	 0.1875176498	 0.123035
H	-0.2811858916	 2.0076812495	-0.9092196011	 0.119307
H	-0.5381029044	 2.0174777369	 0.8422973562	 0.10383
H	 0.5421944774	-0.3386651019	-0.8063678862	 0.08405
H	 0.2512395032	-0.1329569556	 1.9766672966	 0.273573
H	-2.0031377809	-0.1043057684	 0.8556086916	 0.050676
H	-1.6233470875	-0.3137114206	-2.1872710678	 0.113155
H	-3.1751586381	-0.4636296001	-1.3568239013	 0.120355
H	-2.2999302348	 1.0661756584	-1.3098629979	 0.113857
H	-0.8497651948	-2.4357409775	-0.7370791442	 0.064263
H	-0.1431013701	-3.1255470909	 1.5446573279	 0.104835
H	-1.4445576495	-2.15848157	 2.2598758643	 0.079281
H	-1.8661587402	-4.6687046489	 0.5284769676	 0.099301
H	-2.9175809616	-4.1436445421	 1.8566148086	 0.091054
H	-3.6314825857	-2.1459087522	 0.5265177914	 0.09339
H	-3.2416165445	-3.1221283076	-0.9043095152	 0.091783
54.6268	89.0821	139.7028	162.9184	200.3334	222.7498	271.8419	297.4975	300.8463	342.4698	365.1268	452.5572	478.0902	511.7367	642.5954	768.3397	786.5323	824.6832	897.5572	923.1337	934.2742	947.2619	955.0811	974.6294	1009.2399	1018.4253	1057.4007	1084.4821	1099.0385	1123.9749	1167.7717	1195.7902	1202.2443	1228.5343	1254.5339	1257.8795	1262.5201	1282.441	1290.0117	1311.2253	1333.7632	1374.0418	1388.8507	1401.2968	1408.7501	1420.866	1476.8753	1486.6936	1492.2492	1493.6308	1497.8698	1508.7674	1510.1551	2957.8638	3013.735	3020.5602	3027.7994	3032.7556	3036.8265	3046.3269	3054.4098	3091.3395	3098.3534	3099.5786	3106.3277	3113.7437	3124.211	3124.8588	3801.3674
CC(O)C(C)C1CCC1	C[C@@H](O)[C@@H](C)C1CCC1	
InChI=1S/C8H16O/c1-6(7(2)9)8-4-3-5-8/h6-9H,3-5H2,1-2H3	InChI=1S/C8H16O/c1-6(7(2)9)8-4-3-5-8/h6-9H,3-5H2,1-2H3/t6-,7-/m1/s1
