24
gdb 117490	1.78721	1.16736	0.84784	0.6316	89.63	-0.2363	0.0384	0.2746	1555.4646	0.214216	-405.567101	-405.555296	-405.554352	-405.60511	41.235	
C	 0.1050232886	 1.4613379749	-0.1085282384	-0.391161
C	 0.0757784787	-0.0529761241	-0.0064188435	-0.025242
O	 0.6348618576	-0.5758246929	-1.2163190394	-0.262163
C	 0.7067555773	-1.9256395678	-1.3388273486	 0.41284
N	 0.2861882432	-2.6641874007	-0.3998373477	-0.318779
C	 0.3243621611	-4.1068353285	-0.4458263156	-0.329135
C	 1.3255426265	-2.2770903645	-2.6835175348	-0.055712
C	 0.4493453323	-1.758639383	-3.8378031831	-0.385317
C	 2.7615709988	-1.7319108249	-2.7808646505	-0.385324
H	 1.1296770182	 1.8257156576	-0.2273384934	 0.123963
H	-0.4823010356	 1.8071623638	-0.9642480869	 0.123965
H	-0.3150505627	 1.9050486346	 0.7992056974	 0.117301
H	 0.6567985422	-0.4174731989	 0.8476546507	 0.111257
H	-0.9431517215	-0.4358769036	 0.1162901412	 0.111248
H	-0.6926868777	-4.4992330328	-0.3248581363	 0.123649
H	 0.7473258346	-4.5502023468	-1.3578012198	 0.103556
H	 0.9046923911	-4.4801967767	 0.4067035625	 0.123654
H	 1.3711935241	-3.3666518337	-2.7558917655	 0.084727
H	 0.8844907315	-2.043238399	-4.80119714	 0.109973
H	-0.5620607679	-2.1740387539	-3.7874190503	 0.116307
H	 0.3700380301	-0.6691822151	-3.8034664127	 0.132056
H	 3.3930472325	-2.128380511	-1.9795605804	 0.116307
H	 3.21078254	-2.0162689262	-3.7378520027	 0.10998
H	 2.766662587	-0.641480067	-2.7078695121	 0.132051
37.2764	66.5463	73.4213	111.3212	143.1101	216.7919	224.9751	240.388	249.4144	254.7949	295.662	297.9957	369.9142	401.9155	551.6657	603.891	721.2098	772.2577	810.9765	888.8309	917.6154	933.5868	970.6123	1040.053	1083.5992	1115.3647	1119.9119	1138.6725	1141.0203	1149.9033	1184.4198	1201.493	1284.2277	1287.955	1337.2778	1354.8364	1391.417	1393.6914	1414.4351	1424.3509	1452.0455	1485.8894	1485.9902	1487.4048	1493.634	1496.2767	1500.6135	1501.7815	1515.1708	1522.0872	1753.779	2995.7281	3036.5689	3039.3943	3042.1132	3042.9191	3054.6077	3064.8498	3070.5734	3076.1575	3102.7031	3104.9529	3116.7958	3119.9322	3122.5565	3128.6585
CCOC(=NC)C(C)C	CCOC(=NC)C(C)C	
InChI=1S/C7H15NO/c1-5-9-7(8-4)6(2)3/h6H,5H2,1-4H3	InChI=1S/C7H15NO/c1-5-9-7(8-4)6(2)3/h6H,5H2,1-4H3
