16
gdb 86490	2.73195	1.166	0.9405	4.2483	70.13	-0.2784	-0.0476	0.2308	1227.6666	0.122487	-437.887457	-437.878596	-437.877652	-437.921442	31.993	
O	 0.7232317956	 0.5283642218	-0.8468770668	-0.423401
C	 0.007382861	-0.3147291323	 0.0060872221	 0.173206
C	 0.1497865306	-0.1492215152	 1.5423834892	-0.313809
C	-1.3976229926	-0.4135689637	 1.691476299	 0.018008
C	-1.5282193305	-0.1391682132	 0.1440180296	-0.313758
C	-1.6769054898	-1.8738123496	 2.0156511964	 0.142114
O	-2.404557149	-2.2646596704	 2.8842203997	-0.229346
C	-2.1235183866	 0.4900991203	 2.5689177888	 0.255769
N	-2.6762108022	 1.2531369348	 3.23763166	-0.332203
H	 0.5324473113	 1.4431838907	-0.6113198528	 0.285353
H	 0.2631068713	-1.3306160968	-0.3081076928	 0.109162
H	 0.8209210328	-0.8219208488	 2.0804443155	 0.133217
H	 0.3819874695	 0.8819058108	 1.819702619	 0.134338
H	-1.8355995046	 0.8951925265	-0.028179991	 0.134352
H	-2.1832161452	-0.8039413624	-0.422988822	 0.133244
H	-1.1267569418	-2.5784794827	 1.3517387863	 0.093755
79.2745	81.48	154.5209	181.4967	277.483	278.147	334.3152	389.8427	397.8197	459.6568	505.8619	572.6837	695.808	740.7694	814.881	865.1175	902.6669	931.2385	1017.2444	1043.9397	1083.0523	1086.7586	1091.3411	1168.4964	1228.887	1263.4351	1282.5202	1295.9708	1343.1509	1430.213	1444.6608	1465.8747	1488.9811	1843.1703	2362.0447	2880.4845	3069.3791	3071.7529	3076.634	3130.6959	3133.1639	3800.8209
OC1CC(C1)(C=O)C#N	O[C@H]1C[C@@](C1)(C=O)C#N	
InChI=1S/C6H7NO2/c7-3-6(4-8)1-5(9)2-6/h4-5,9H,1-2H2	InChI=1S/C6H7NO2/c7-3-6(4-8)1-5(9)2-6/h4-5,9H,1-2H2/t5-,6-
