20
gdb 61449	3.20774	0.85549	0.77396	2.6995	75.73	-0.2477	0.0309	0.2786	1523.9857	0.168963	-440.302899	-440.292676	-440.291732	-440.339242	36.461	
C	-0.1828043768	 1.804801553	-0.1892935653	-0.410654
C	 0.0268225597	 0.289172291	-0.0718381144	 0.007544
C	-1.2971751963	-0.4759774482	 0.0708737302	-0.3236
C	-1.9915792444	-0.2294715142	 1.4097948711	 0.407683
N	-3.2985468602	-0.6290027008	 1.4533004324	-0.522422
O	-1.4389058826	 0.2785414082	 2.3669792569	-0.358012
C	 0.7956070217	-0.2373792621	-1.2647791191	 0.086168
C	 2.238677729	-0.4994517658	-1.2182910584	-0.183213
O	 1.2962764845	-1.5741280089	-1.1677199424	-0.247945
H	 0.774728188	 2.3275553438	-0.2796753947	 0.114386
H	-0.7833018555	 2.0551241752	-1.0724718411	 0.105918
H	-0.696018229	 2.1847302284	 0.6962528075	 0.145241
H	 0.61288263	 0.0853398577	 0.8304166808	 0.102096
H	-1.9827873048	-0.229377496	-0.7506688449	 0.104248
H	-1.0957578015	-1.5525670902	-0.0033829574	 0.142742
H	-3.7103516619	-1.1693716569	 0.7123541336	 0.25724
H	-3.764110268	-0.6114908511	 2.3463388968	 0.259462
H	 0.358008479	-0.0059856428	-2.2397352714	 0.084352
H	 2.83503489	-0.4435559714	-2.1280431929	 0.112819
H	 2.784210789	-0.3150755191	-0.2935527473	 0.115946
34.157	67.2481	93.1654	142.6135	206.3043	228.5864	239.1045	297.457	335.0148	369.2533	475.0044	510.8705	515.4734	618.0552	645.827	813.5691	845.3442	866.995	896.613	921.4551	960.1883	982.1126	1080.2614	1087.0251	1106.2438	1142.2388	1156.6316	1167.568	1192.7644	1231.7576	1262.679	1293.3038	1313.924	1354.8769	1399.2332	1409.1331	1446.559	1461.7182	1498.094	1508.157	1529.1238	1616.9736	1793.1671	3019.7687	3029.0132	3054.1185	3064.0892	3075.6376	3082.2933	3095.2302	3133.9975	3168.0362	3596.7842	3731.3308
CC(CC(N)=O)C1CO1	C[C@@H](CC(=O)N)[C@H]1CO1	
InChI=1S/C6H11NO2/c1-4(2-6(7)8)5-3-9-5/h4-5H,2-3H2,1H3,(H2,7,8)	InChI=1S/C6H11NO2/c1-4(2-6(7)8)5-3-9-5/h4-5H,2-3H2,1H3,(H2,7,8)/t4-,5+/m0/s1
