17
gdb 26954	3.03019	1.27598	0.95954	2.6243	76.27	-0.1992	0.0413	0.2405	1203.9694	0.137233	-418.011771	-418.00329	-418.002346	-418.045744	31.229	
N	 0.3177951655	 1.4244767851	 0.3708366899	-0.619037
C	 0.065691848	 0.0555150797	 0.1138419832	 0.143759
C	-1.0708353626	-0.6692086195	-0.2019217967	 0.280273
C	-0.6725586565	-2.031592652	-0.3512311397	-0.268478
C	 0.6803848664	-2.0960464661	-0.1235324867	-0.080403
N	 1.1179336685	-0.8259545289	 0.1509497073	-0.248144
C	-2.4286185613	-0.1168995237	-0.3438178585	-0.044412
C	-3.3814849187	-0.564905945	-1.3762810469	-0.186569
O	-3.5318214292	-0.9815738324	-0.0213343254	-0.239075
H	-0.0794984739	 2.0238552737	-0.3432390877	 0.246021
H	-0.0585652063	 1.723547413	 1.2652519577	 0.24641
H	-1.3250451311	-2.8633977875	-0.5663513619	 0.103877
H	 1.3599123174	-2.9327011811	-0.1256165076	 0.11893
H	 2.0636034847	-0.5397587603	 0.3382011484	 0.259961
H	-2.5504076944	 0.9028333516	 0.0259146522	 0.067396
H	-4.1458341377	 0.1188826033	-1.7464320079	 0.108058
H	-3.0726805888	-1.34139836	-2.0749083999	 0.111434
47.8515	84.0501	156.0927	165.7452	256.2031	300.8285	438.8419	509.0013	518.572	612.4693	643.0605	684.0273	725.1886	738.6828	788.0305	827.5283	835.2994	892.6254	930.5714	998.2659	1065.2295	1095.3795	1100.5835	1146.1166	1168.8891	1172.619	1203.6823	1266.4847	1273.0769	1331.6032	1407.2555	1445.1374	1491.536	1513.3534	1524.2186	1619.376	1661.6558	3072.5692	3088.8429	3162.7412	3250.2594	3271.8705	3499.8205	3575.1375	3677.898
NC1=C(C=CN1)C1CO1	Nc1c(cc[nH]1)[C@H]1CO1	
InChI=1S/C6H8N2O/c7-6-4(1-2-8-6)5-3-9-5/h1-2,5,8H,3,7H2	InChI=1S/C6H8N2O/c7-6-4(1-2-8-6)5-3-9-5/h1-2,5,8H,3,7H2/t5-/m1/s1
