20
gdb 99219	4.69859	0.6733	0.60155	2.0762	77.98	-0.2422	-0.0281	0.214	1870.862	0.167512	-440.350638	-440.339534	-440.33859	-440.390096	37.267	
C	 0.1703096118	 1.4619170244	 0.256810512	-0.366495
C	-0.1532893236	 0.0393338084	-0.2009932535	-0.298989
C	 0.6775356744	-0.3770878644	-1.4127528696	 0.42574
O	 1.0893945936	 0.4176034464	-2.2422052218	-0.383835
N	 0.9121847751	-1.7136180024	-1.5207387516	-0.332029
C	 1.5918760571	-2.2752874822	-2.6558549939	-0.228368
C	 1.5360848735	-3.7958731965	-2.5990113437	 0.366599
C	 2.2001220938	-4.5355367116	-3.7390889821	-0.476745
O	 0.9869886707	-4.3660212134	-1.6821233332	-0.298351
H	 1.1889200784	 1.5269912393	 0.6510610679	 0.120877
H	 0.0987915042	 2.1508077366	-0.5871762229	 0.143932
H	-0.5201019436	 1.7850123918	 1.0408214617	 0.107509
H	-0.0200533661	-0.6811026492	 0.6141587609	 0.103747
H	-1.2083118888	-0.026220789	-0.4992779809	 0.127826
H	 0.5381850578	-2.3832666178	-0.8640891818	 0.25702
H	 1.1497563718	-1.9265331254	-3.599654254	 0.144025
H	 2.6450838863	-1.960383835	-2.6984952625	 0.140102
H	 1.7234213461	-4.2711699052	-4.6895641236	 0.149578
H	 3.2535782526	-4.2466190952	-3.8207301488	 0.147849
H	 2.1232472647	-5.6108655796	-3.5768894387	 0.15001
19.1366	28.8316	43.4488	90.5669	106.6265	167.442	214.9853	248.8328	286.2776	325.2132	460.7729	476.2032	522.2984	602.0715	605.2299	693.9677	809.6386	814.7298	854.6789	929.3159	968.2148	1031.9643	1071.2113	1088.9857	1098.5731	1155.7172	1191.15	1237.7877	1241.305	1287.1391	1347.8713	1384.1256	1392.1235	1409.1315	1461.1268	1466.523	1474.5898	1485.4768	1493.2849	1505.2234	1522.8382	1767.6549	1809.4797	3006.8802	3024.6025	3028.9602	3041.613	3048.6743	3064.6044	3102.0138	3114.5434	3139.086	3157.8528	3608.4947
CCC(=O)NCC(C)=O	CCC(=O)NCC(=O)C	
InChI=1S/C6H11NO2/c1-3-6(9)7-4-5(2)8/h3-4H2,1-2H3,(H,7,9)	InChI=1S/C6H11NO2/c1-3-6(9)7-4-5(2)8/h3-4H2,1-2H3,(H,7,9)
