23
gdb 53232	3.59337	0.8056	0.73999	0.1144	95.72	-0.2354	0.058	0.2934	1675.2915	0.20393	-351.134251	-351.123468	-351.122524	-351.173253	38.754	
C	 0.1423387794	 1.5663644367	-0.0983041097	-0.499233
C	 0.0748444148	 0.1123192317	-0.0539441222	 0.08561
C	 0.0270780773	-1.0919017	-0.0208846549	 0.058647
C	-0.0438669796	-2.5378680306	 0.0377994211	-0.177867
C	 0.2801442917	-3.2647171733	 1.3804769442	-0.243097
C	-0.8423708855	-4.2855405887	 1.0594094904	 0.044872
C	-1.6873590236	-4.8404897759	 2.1962277315	-0.416766
C	-1.4465857942	-3.2572249261	 0.0436268923	-0.010508
C	-2.5956339169	-2.4001705085	 0.562305171	-0.393594
H	 1.1648649568	 1.9231192086	 0.0699024846	 0.145545
H	-0.1846374516	 1.9526824529	-1.0703716287	 0.144863
H	-0.4951440024	 2.0210921285	 0.6683736822	 0.144283
H	 0.56946725	-2.969162904	-0.7614825193	 0.093167
H	 1.298229803	-3.6389070292	 1.5121304671	 0.096918
H	 0.0249056618	-2.6354394608	 2.2377090084	 0.104897
H	-0.4138545124	-5.1199791924	 0.4917029627	 0.069184
H	-2.1359253455	-4.042117957	 2.7957983541	 0.115113
H	-2.4996664411	-5.4735316559	 1.8214182137	 0.112602
H	-1.0759177025	-5.4532594192	 2.8682787422	 0.112864
H	-1.7264042012	-3.6851497009	-0.9240414161	 0.064773
H	-2.3600585767	-1.9279389158	 1.5212247408	 0.117995
H	-2.8209147864	-1.5965251503	-0.1451140243	 0.120887
H	-3.5017454755	-3.0004027797	 0.695750269	 0.108846
2.59	60.612	86.4926	151.699	215.7034	236.6186	245.4956	251.54	304.7894	340.6811	367.3169	434.3254	501.1207	526.5993	636.9448	717.2459	782.4966	878.0027	882.0163	904.941	947.364	996.3241	1019.2995	1042.0101	1052.7439	1053.9165	1101.2599	1126.7918	1161.4387	1177.3977	1200.1697	1238.4083	1244.0222	1274.469	1291.1047	1342.4336	1367.8422	1384.7545	1412.244	1415.0563	1415.3181	1479.0047	1479.6501	1488.3566	1490.0935	1491.9963	1502.2589	1503.3024	2362.118	3022.7438	3024.6819	3027.2596	3031.8939	3035.1309	3052.1128	3058.2066	3081.7498	3082.0563	3087.2316	3099.9374	3102.4207	3107.2684	3113.7985
CC#CC1CC(C)C1C	CC#C[C@H]1C[C@@H](C)[C@H]1C	
InChI=1S/C9H14/c1-4-5-9-6-7(2)8(9)3/h7-9H,6H2,1-3H3	InChI=1S/C9H14/c1-4-5-9-6-7(2)8(9)3/h7-9H,6H2,1-3H3/t7-,8-,9+/m1/s1
