16
gdb 67858	2.45732	1.52669	1.2061	3.1389	70.05	-0.2456	-0.0259	0.2197	1059.7986	0.123636	-437.890051	-437.882073	-437.881129	-437.922803	29.404	
C	-0.0577510092	 1.5231898096	-0.0034329328	-0.469042
C	-0.044999801	 0.0215433869	 0.0862404613	 0.281005
N	-1.3169933114	-0.6516692989	-0.1198526591	-0.285126
C	-1.3073751218	-1.6667404032	 0.6454711322	 0.085237
O	-0.2117779977	-1.8891188337	 1.4193177407	-0.200847
C	 0.6790423821	-0.8366745483	 1.0887436801	 0.001724
C	 1.205696144	-0.7768481338	-0.3414946703	-0.197616
C	 1.1835550768	-1.9114670184	-1.2947364722	 0.159668
O	 2.1074461597	-2.1645181213	-2.0314946104	-0.26851
H	 0.9226104493	 1.9389877588	 0.2442641776	 0.123464
H	-0.3207193079	 1.8405498741	-1.016693241	 0.144294
H	-0.7976207222	 1.9402992482	 0.6865318876	 0.13419
H	-2.0962408051	-2.4013106257	 0.7491575924	 0.155706
H	 1.2986103484	-0.5277567389	 1.9204734546	 0.13082
H	 2.1035863049	-0.1732075514	-0.4314826862	 0.116923
H	 0.2591806211	-2.5216920538	-1.3111738745	 0.08811
85.4296	166.6463	180.5534	193.717	234.7974	312.1054	412.7042	466.1639	513.8187	604.742	690.8016	749.9606	801.5885	878.1174	905.1792	933.073	947.7207	999.1546	1016.0609	1050.7298	1083.64	1104.136	1116.5073	1153.2756	1231.8885	1244.7817	1304.942	1341.3847	1403.2044	1420.8036	1459.6969	1479.5028	1496.2421	1664.4634	1803.1288	2933.5753	3043.0314	3113.9316	3122.3424	3168.3654	3202.5476	3235.5469
CC12N=COC1C2C=O	C[C@]12N=CO[C@H]1[C@H]2C=O	
InChI=1S/C6H7NO2/c1-6-4(2-8)5(6)9-3-7-6/h2-5H,1H3	InChI=1S/C6H7NO2/c1-6-4(2-8)5(6)9-3-7-6/h2-5H,1H3/t4-,5+,6-/m1/s1
