16
gdb 11121	6.50251	1.07835	0.98664	2.4149	67.49	-0.2564	0.0134	0.2698	1155.0544	0.129161	-383.678154	-383.669994	-383.669049	-383.71135	29.598	
O	 0.2894736773	 1.2629837155	 0.4451022758	-0.419508
C	 0.2007716144	-0.1202173599	 0.1760307382	-0.066084
C	-1.1684824853	-0.4666708958	-0.3836746318	 0.134495
C	-1.621454524	-1.9367870148	-0.3074126619	-0.326434
C	-2.6441868155	-1.4280098925	 0.7459569913	-0.023828
O	-2.1993534412	-0.0557174174	 0.5590341794	-0.313842
C	-4.0539839383	-1.620794307	 0.4557528789	 0.325717
C	-5.2181096025	-1.7959976873	 0.2134418164	-0.449345
H	-0.4838136753	 1.4765910165	 0.9824568812	 0.29416
H	 0.9820498794	-0.361838273	-0.5539597168	 0.109111
H	 0.3886584302	-0.7226558364	 1.0812618409	 0.081279
H	-1.3176787599	 0.0310813243	-1.3487144326	 0.093382
H	-2.0762220742	-2.3322213608	-1.2144812862	 0.128376
H	-0.8803543865	-2.6421719882	 0.0729869335	 0.11705
H	-2.4291112044	-1.7645367218	 1.768041757	 0.110083
H	-6.2484581042	-1.9451576614	 0.0027402167	 0.205391
46.9019	103.3289	144.5218	219.1799	245.3265	369.8158	462.7928	472.9258	522.9137	558.8635	621.7603	674.75	743.2624	801.819	898.5712	914.2666	972.2664	1007.6578	1029.3019	1081.1014	1094.1976	1112.4287	1170.3405	1223.9462	1255.5616	1257.4089	1308.1216	1341.2783	1368.1525	1399.71	1437.6996	1488.1425	1498.1863	2236.3492	2958.9902	3021.1139	3042.9386	3067.2042	3087.0818	3152.6485	3502.5363	3779.9093
OCC1CC(O1)C#C	OC[C@H]1C[C@@H](O1)C#C	
InChI=1S/C6H8O2/c1-2-5-3-6(4-7)8-5/h1,5-7H,3-4H2	InChI=1S/C6H8O2/c1-2-5-3-6(4-7)8-5/h1,5-7H,3-4H2/t5-,6+/m0/s1
