21
gdb 88369	2.07135	1.37735	1.22457	2.6639	82.62	-0.2642	0.0316	0.2958	1194.2938	0.181685	-383.270807	-383.260695	-383.259751	-383.305266	37.988	
C	-1.061512214	 1.3010158841	 0.4730495574	-0.432995
C	-0.280984291	 0.0374021869	 0.17579119	-0.005562
C	 1.080149855	 0.0751660616	-0.4793218957	-0.332925
C	 0.9380735845	-0.4351821507	 0.9360724821	 0.010713
C	 1.5900162388	 0.2342618678	 2.1482005437	 0.064469
C	 0.7318461442	 0.0335020908	 3.4110471937	-0.390483
N	 2.8843294628	-0.4413349898	 2.3596437801	-0.513954
C	 1.8101032293	 1.6867959929	 1.939347189	 0.265735
N	 2.0548670786	 2.8096151346	 1.8034676069	-0.367476
H	-0.4173933286	 2.1327688508	 0.7638487623	 0.15157
H	-1.6206858426	 1.6129783431	-0.4158380884	 0.120083
H	-1.7894304036	 1.1385856277	 1.2759502785	 0.116029
H	-0.9159249671	-0.7845487255	-0.1471179755	 0.088915
H	 1.314939383	-0.6323410643	-1.2669663022	 0.112553
H	 1.5292543281	 1.055293503	-0.610236238	 0.13455
H	 1.0134711668	-1.5118555827	 1.0602636448	 0.103225
H	 0.5781295184	-1.0374654511	 3.5632150755	 0.133747
H	 1.2344073958	 0.4419067604	 4.2931570233	 0.1244
H	-0.2367330884	 0.5265816893	 3.3072912643	 0.138097
H	 3.4621427125	-0.3329605735	 1.5301807869	 0.241654
H	 3.3860428375	 0.0028373547	 3.1243880213	 0.237655
68.1642	141.6781	167.3229	196.8447	211.0565	238.7572	241.6418	307.7726	337.3053	345.8383	374.7647	439.8269	512.7922	596.1059	644.3877	654.2972	773.0605	840.6863	862.8168	897.072	918.4906	954.9507	966.4876	1038.3227	1056.6903	1081.6505	1083.0753	1120.9999	1157.6249	1174.5725	1204.8722	1215.5914	1263.9337	1324.5128	1383.1371	1405.6761	1414.1772	1428.4206	1484.8373	1489.5664	1495.1569	1500.1407	1509.3704	1653.6238	2335.0708	3034.133	3048.2484	3086.8113	3121.979	3122.3077	3127.3997	3141.4663	3143.0609	3149.4506	3213.2556	3483.5999	3565.7794
CC1CC1C(C)(N)C#N	C[C@H]1C[C@H]1[C@@](C)(N)C#N	
InChI=1S/C7H12N2/c1-5-3-6(5)7(2,9)4-8/h5-6H,3,9H2,1-2H3	InChI=1S/C7H12N2/c1-5-3-6(5)7(2,9)4-8/h5-6H,3,9H2,1-2H3/t5-,6+,7-/m0/s1
