23
gdb 61598	3.16396	0.81515	0.70363	0.8321	92.34	-0.2534	0.0588	0.3122	1681.3639	0.203339	-351.116536	-351.105879	-351.104935	-351.152606	39.545	
C	-0.1559600292	 1.6227309724	-0.1421938272	-0.381522
C	 0.0158137426	 0.0935268097	-0.049140261	-0.163048
C	-1.3347632638	-0.6607758048	 0.0718261559	-0.202859
C	-2.0973821539	-0.3314079545	 1.3399723877	 0.00644
C	-3.1721018046	 0.7336219889	 1.3802143593	-0.287002
C	-3.5473832029	-0.7189294961	 1.5407000957	-0.018479
C	-4.3584359354	-1.4411771349	 0.486015668	-0.403414
C	 0.7761679963	-0.4123134191	-1.1914683259	 0.314595
C	 1.3795927141	-0.8250775935	-2.1462982975	-0.460034
H	 0.8165287231	 2.1162804177	-0.2170637137	 0.122248
H	-0.7390896459	 1.8905049691	-1.0288976754	 0.120786
H	-0.6747198102	 2.0042044652	 0.74019135	 0.125328
H	 0.5949414088	-0.1247893989	 0.8600651737	 0.102304
H	-1.9372521494	-0.4354869466	-0.8148777042	 0.103346
H	-1.1243780656	-1.7364461761	 0.036052373	 0.107422
H	-1.4846734441	-0.405353722	 2.2369472687	 0.077561
H	-3.2302618431	 1.3944450207	 2.2386732957	 0.106797
H	-3.4309147757	 1.2100713226	 0.4389366447	 0.108214
H	-3.7923463529	-1.0221481966	 2.5558501682	 0.081478
H	-4.1334651166	-1.0816655584	-0.5220263384	 0.11689
H	-4.1690295474	-2.5204823934	 0.502993939	 0.116699
H	-5.4306414091	-1.2907481805	 0.6537816027	 0.116014
H	 1.9233018451	-1.191392091	-2.9814114591	 0.190236
47.3652	77.5229	101.1357	173.0082	193.9756	216.9256	233.9496	279.9857	295.0289	369.6242	421.9152	470.6778	532.8018	556.5327	623.9854	632.1438	760.1805	808.8241	830.6518	867.9548	877.7996	917.342	932.8399	963.9128	1021.9048	1055.0907	1073.2792	1102.4194	1111.0406	1128.891	1152.5686	1177.5653	1199.6872	1243.2561	1257.6652	1298.8119	1338.5129	1359.9437	1393.646	1406.0812	1419.7756	1430.7119	1480.1573	1491.0605	1493.6827	1496.2296	1501.037	1506.9011	2232.6599	2997.1547	3028.392	3033.0677	3044.9949	3073.2319	3086.4115	3106.37	3113.8355	3116.0965	3121.5871	3130.4921	3135.211	3204.729	3505.2637
CC(CC1CC1C)C#C	C[C@@H](C[C@H]1C[C@H]1C)C#C	
InChI=1S/C9H14/c1-4-7(2)5-9-6-8(9)3/h1,7-9H,5-6H2,2-3H3	InChI=1S/C9H14/c1-4-7(2)5-9-6-8(9)3/h1,7-9H,5-6H2,2-3H3/t7-,8-,9+/m1/s1
