23
gdb 119189	1.87686	1.17219	0.83625	0.8185	93.37	-0.2355	0.0573	0.2928	1520.0674	0.203019	-351.122308	-351.111514	-351.11057	-351.158158	40.032	
C	-0.152161443	 1.597881005	-0.0081742082	-0.382413
C	-0.2304161048	 0.0766867261	-0.1588212481	-0.161033
C	 0.8700456352	-0.4867012186	-1.0676251632	-0.260976
C	 0.8203206512	-2.0065463426	-1.2084734404	 0.134044
C	-0.1461470848	-2.6244350169	-2.2167170287	-0.317935
C	 1.3316601201	-2.7040584036	-2.4731933589	-0.0383
C	 1.9888733229	-1.9646699682	-3.6174919864	-0.416191
C	 1.0220325954	-2.7271904437	 0.0230353298	 0.301506
C	 1.2045015425	-3.3185314111	 1.0557087675	-0.475774
H	 0.8061365036	 1.9045849259	 0.4259475086	 0.114341
H	-0.2504190729	 2.1013328832	-0.9768645118	 0.109983
H	-0.9469681003	 1.9743761259	 0.6432520847	 0.111507
H	-0.1589688381	-0.3990353703	 0.8258309466	 0.112898
H	-1.2100470324	-0.2062560152	-0.5647408789	 0.094528
H	 0.7854983612	-0.027388648	-2.0582432826	 0.091329
H	 1.8524342303	-0.1965686167	-0.6730699026	 0.101136
H	-0.6826584097	-3.5205296376	-1.9281659266	 0.121124
H	-0.7233883305	-1.92526068	-2.8148926615	 0.111089
H	 1.7769361435	-3.673678967	-2.2694722504	 0.097497
H	 1.4803149036	-1.0265195113	-3.8540856424	 0.119408
H	 3.0365766842	-1.7333175146	-3.3967124208	 0.122853
H	 1.9688201368	-2.5814059501	-4.5228983919	 0.120863
H	 1.3613216159	-3.8437220407	 1.9648228863	 0.188516
74.3911	80.949	123.7657	141.9333	163.8278	197.6708	242.2438	265.2297	308.7015	358.6912	388.6326	463.1369	542.8201	554.7383	577.6541	641.6759	700.7287	745.6331	791.6676	870.4072	889.8929	894.8629	922.8344	949.4868	1022.0089	1034.7308	1054.2027	1069.7733	1121.4765	1129.256	1139.3667	1192.952	1241.8389	1286.0552	1294.7412	1320.2675	1335.8124	1389.8568	1406.0705	1412.8732	1427.0379	1475.1008	1489.5705	1493.5482	1496.1606	1499.7288	1503.3941	1511.0295	2226.9683	3019.9632	3026.6645	3030.8823	3034.2491	3057.4032	3075.6858	3090.7411	3096.1754	3101.1089	3113.1634	3128.2156	3151.2438	3220.4598	3503.6536
CCCC1(CC1C)C#C	CCC[C@]1(C[C@H]1C)C#C	
InChI=1S/C9H14/c1-4-6-9(5-2)7-8(9)3/h2,8H,4,6-7H2,1,3H3	InChI=1S/C9H14/c1-4-6-9(5-2)7-8(9)3/h2,8H,4,6-7H2,1,3H3/t8-,9+/m1/s1
