25
gdb 118489	1.60367	1.14214	0.71279	1.7031	89.35	-0.2615	0.0835	0.345	1693.0105	0.227082	-389.480805	-389.469721	-389.468777	-389.517848	39.813	
C	 1.2421346198	 1.6832639449	-1.9044538271	-0.379468
C	 1.0873717366	 0.3344124638	-1.1960792089	-0.171435
C	 1.3274907398	-0.8569326972	-2.1326501344	-0.178079
C	 1.1172237491	-2.2412220963	-1.4912487653	-0.010524
C	 1.2261387186	-3.3934043428	-2.5123663239	-0.181153
C	 0.106625679	-3.4329795983	-3.5572343246	-0.393848
C	 2.1106771983	-2.4748201718	-0.3696184538	 0.09524
C	 1.7834033549	-2.2981712001	 1.0510028228	-0.182886
O	 1.8679474913	-3.6028685949	 0.4765252906	-0.246679
H	 2.2504481017	 1.8004413304	-2.3172079944	 0.113721
H	 0.5339085128	 1.7772182762	-2.7352849089	 0.114003
H	 1.0645781152	 2.5181626925	-1.2193693968	 0.111233
H	 1.7799955459	 0.2874796245	-0.3474951294	 0.100094
H	 0.0783838854	 0.259509169	-0.76891575	 0.093556
H	 0.6609676895	-0.7600307199	-2.997614	 0.096463
H	 2.3498373208	-0.8024495863	-2.5353524221	 0.090516
H	 0.1108851061	-2.276602253	-1.0492407199	 0.06895
H	 2.2006688064	-3.3347224369	-3.0168399356	 0.089005
H	 1.225504224	-4.3349047855	-1.9522080393	 0.116474
H	-0.8773496718	-3.4908232283	-3.0781834629	 0.114811
H	 0.1092946766	-2.5507491175	-4.2047652394	 0.116836
H	 0.2112862823	-4.310521996	-4.2028969105	 0.113617
H	 3.1598969387	-2.3671493347	-0.6586468417	 0.086706
H	 2.5662173817	-2.0490309627	 1.7667066516	 0.111517
H	 0.7811721873	-1.9762511391	 1.3317943439	 0.111329
66.7759	75.7617	90.7382	91.1867	153.5894	174.742	223.5126	250.094	274.7969	318.3616	338.2951	428.6723	474.2244	531.0339	737.7863	768.5564	810.594	865.8529	886.1841	896.4863	903.2101	973.485	988.2631	1025.667	1045.3543	1059.9389	1070.8872	1096.0918	1142.776	1156.4356	1170.3043	1174.2517	1194.5493	1253.9875	1279.8387	1291.6149	1305.7999	1321.9315	1336.8737	1360.2212	1383.1257	1393.276	1413.1375	1413.1966	1449.0612	1483.6466	1489.4528	1494.4538	1499.7856	1500.8464	1507.7266	1511.6688	1530.5686	2998.5971	3005.0216	3017.3577	3022.0572	3029.0917	3032.4768	3045.8469	3064.6206	3066.9945	3071.5249	3079.3949	3096.5247	3098.7366	3101.3413	3105.8227	3163.5865
CCCC(CC)C1CO1	CCC[C@@H](CC)[C@H]1CO1	
InChI=1S/C8H16O/c1-3-5-7(4-2)8-6-9-8/h7-8H,3-6H2,1-2H3	InChI=1S/C8H16O/c1-3-5-7(4-2)8-6-9-8/h7-8H,3-6H2,1-2H3/t7-,8-/m1/s1
