17
gdb 34598	3.7145	1.3036	1.1291	3.2707	79.74	-0.2325	-0.0487	0.1838	1082.3621	0.139119	-380.858024	-380.851043	-380.850099	-380.889412	27.836	
N	 0.0634334844	-1.1420435422	 0.0248554763	-0.339438
C	-0.0025248549	 0.0148828748	 0.0180992936	 0.184308
C	-0.036247176	 1.4374777796	 0.0078936951	 0.198672
C	-1.1775696788	 2.143794593	 0.036824324	-0.147136
C	-1.0780419392	 3.6545073969	 0.0219157946	-0.221219
N	 0.3108610576	 4.1491172462	-0.0239747774	-0.121542
C	 1.0646016028	 3.3661556949	-1.0740519564	-0.173638
C	 1.2663746374	 2.2315323318	-0.03774852	-0.127699
C	 1.1270295919	 3.382429153	 0.9908528803	-0.173637
H	-2.1515592988	 1.6660528931	 0.0700287577	 0.120304
H	-1.6227957557	 4.0581710615	-0.8419658647	 0.128887
H	-1.5698090034	 4.0719842638	 0.9106624533	 0.128888
H	 0.5060728617	 3.1383370375	-1.9852610102	 0.112503
H	 1.9890520715	 3.8939573627	-1.3234429765	 0.114881
H	 2.1566857834	 1.6024376401	-0.0597067975	 0.088487
H	 2.0646054822	 3.9136518737	 1.175603997	 0.11488
H	 0.624672024	 3.1692549896	 1.9376113308	 0.1125
113.971	160.8303	306.9805	373.5065	400.5505	439.0039	449.0679	560.0987	659.7051	660.8794	728.3172	811.5102	836.7338	849.3872	888.4126	904.7853	950.2829	980.9578	995.7085	1057.7962	1070.8672	1113.1681	1119.903	1167.1116	1207.4379	1255.1046	1262.1623	1274.9973	1288.3063	1300.011	1350.6398	1353.7652	1463.3408	1489.1509	1515.8698	1675.5266	2333.6793	3016.6113	3045.8233	3051.6575	3057.9323	3107.8262	3115.046	3116.5599	3185.3106
N#CC1=CCN2CC1C2	N#CC1=CCN2C[C@H]1C2	
InChI=1S/C7H8N2/c8-3-6-1-2-9-4-7(6)5-9/h1,7H,2,4-5H2	InChI=1S/C7H8N2/c8-3-6-1-2-9-4-7(6)5-9/h1,7H,2,4-5H2
