15
gdb 45970	3.00831	1.61026	1.16034	1.3785	66.25	-0.2549	-0.0187	0.2362	1003.492	0.114609	-453.976663	-453.969299	-453.968355	-454.008808	27.63	
O	-0.1522012062	 0.2006518591	 0.7979108379	-0.314609
C	-0.1023572975	 1.2224806469	 0.1628408719	 0.379826
C	-1.3194244368	 1.9146305906	-0.4483523207	-0.263021
N	-1.3302602956	 3.3015986459	 0.0154065035	-0.331573
C	-0.2244258808	 4.1047962669	 0.0767862219	 0.402223
O	-0.2699901781	 5.2991235101	 0.2901458783	-0.364692
C	 1.0726464065	 3.3685999773	-0.1609048773	-0.147741
C	 1.7750844878	 2.6447068288	 0.9531097004	-0.235858
N	 1.0865135497	 1.9138982958	-0.099418047	-0.09743
H	-1.2872606397	 1.8460379749	-1.5453331728	 0.136682
H	-2.215296995	 1.4033632587	-0.095649614	 0.149775
H	-2.2154477397	 3.7745103206	 0.1276535759	 0.260368
H	 1.6858969245	 3.8131738835	-0.9406792626	 0.134321
H	 2.8589735917	 2.5863698502	 0.9445236881	 0.141844
H	 1.3164041091	 2.6468602207	 1.9378941964	 0.149886
75.2037	161.2241	204.0637	260.2875	399.6037	402.2922	463.3228	542.3338	561.8164	638.7329	695.0547	726.1065	786.0735	821.3498	941.6287	962.9568	1006.6074	1036.8085	1067.2595	1095.4792	1124.5283	1164.245	1176.5372	1245.1736	1301.9847	1343.6395	1351.1327	1415.9382	1457.3712	1503.1747	1511.5677	1803.295	1831.0419	3003.0691	3121.0436	3132.8199	3147.5898	3214.0723	3611.2497
O=C1CNC(=O)C2CN12	O=C1CNC(=O)[C@H]2CN12	
InChI=1S/C5H6N2O2/c8-4-1-6-5(9)3-2-7(3)4/h3H,1-2H2,(H,6,9)	InChI=1S/C5H6N2O2/c8-4-1-6-5(9)3-2-7(3)4/h3H,1-2H2,(H,6,9)/t3-,7?/m1/s1
