22
gdb 116791	3.65456	0.73438	0.64437	2.8837	86.48	-0.2393	0.0271	0.2664	1789.9028	0.193117	-404.326682	-404.316498	-404.315554	-404.36328	35.719	
C	 0.3695982446	 0.5840086524	 0.5828569326	-0.250578
O	-0.0892351263	 0.0591738061	-0.6545966522	-0.196256
C	 0.6736567022	-0.923076694	-1.1873872395	 0.137223
N	 0.3301651165	-1.4641146949	-2.267595667	-0.23575
C	 1.1368575704	-2.5137756294	-2.8662880828	-0.150983
C	 2.4109526006	-2.9799151998	-2.1670530002	 0.031777
C	 2.3166692932	-3.8370451857	-0.8681188157	-0.217831
C	 3.4552508505	-4.7363865298	-1.4177607229	-0.210973
C	 3.1804681902	-4.1579208778	-2.8318997377	-0.242037
H	 0.3839111541	-0.1829584898	 1.3675344472	 0.123968
H	 1.3717088971	 1.021896823	 0.490959675	 0.122979
H	-0.3347936251	 1.3674181086	 0.8656315676	 0.144385
H	 1.5654836698	-1.1610892277	-0.5931749581	 0.074583
H	 0.477498583	-3.3825520521	-3.0087872343	 0.103985
H	 1.3937657474	-2.1822419416	-3.8831207521	 0.108791
H	 3.0919158475	-2.1334908753	-2.0158409213	 0.068855
H	 2.4832291422	-3.3406119005	 0.09183012	 0.089404
H	 1.3618158562	-4.3706735772	-0.8165322043	 0.103671
H	 4.4337300698	-4.4286390225	-1.0378311148	 0.100818
H	 3.358653762	-5.8164052819	-1.2842208469	 0.097058
H	 2.5025271583	-4.7982748672	-3.4065912235	 0.100389
H	 4.0389534456	-3.912396313	-3.461803879	 0.096521
45.0449	72.0853	94.577	109.1457	148.5436	154.0686	233.4298	294.9931	333.5688	385.5085	471.456	594.0853	656.6511	763.0528	792.7101	873.5747	898.7626	937.6305	962.9206	974.3901	987.2593	1022.0963	1062.6636	1069.4107	1110.2649	1156.4938	1176.7791	1178.1308	1204.7791	1230.9907	1256.6575	1265.5041	1273.3876	1276.4192	1283.7424	1307.9223	1348.1234	1388.8765	1415.1322	1472.9431	1477.8472	1486.2592	1487.3917	1494.6827	1502.0074	1509.5606	1780.5482	2995.4283	3006.1431	3013.5026	3030.2247	3037.9913	3043.3073	3047.7061	3057.628	3068.8148	3090.9872	3098.3913	3115.2811	3140.98
COC=NCC1CCC1	COC=NCC1CCC1	
InChI=1S/C7H13NO/c1-9-6-8-5-7-3-2-4-7/h6-7H,2-5H2,1H3	InChI=1S/C7H13NO/c1-9-6-8-5-7-3-2-4-7/h6-7H,2-5H2,1H3
