21
gdb 64494	2.93045	1.51338	1.19631	1.6678	82.35	-0.2604	0.0906	0.351	1104.2856	0.182783	-387.007569	-386.999373	-386.998429	-387.040343	32.414	
C	-0.1231582503	 1.5734712588	 0.1018797515	-0.476244
C	-0.0051335946	 0.045965366	 0.0073363148	 0.338967
C	-1.4183441502	-0.4656549572	-0.2333497674	-0.003209
C	-2.0976806163	-0.2892042249	-1.526611633	-0.175741
O	-1.673453522	-1.5800250927	-1.0912702945	-0.233859
C	 1.1753419322	-0.619306955	-0.7914363585	-0.081177
C	 2.1442465552	-0.1331401808	 0.326712641	-0.239301
C	 0.8944337088	-0.6967526499	 1.067519692	-0.093687
C	 0.9783991794	-1.8985401726	 0.0824906222	-0.227068
H	 0.7835124163	 2.0648806106	 0.4552525705	 0.120819
H	-0.3828724887	 2.0052680758	-0.8706052549	 0.117303
H	-0.9271933338	 1.8439423412	 0.7969605684	 0.115407
H	-2.0542232868	-0.4521051028	 0.6557338124	 0.090838
H	-3.1753450733	-0.1356283057	-1.5633956731	 0.111969
H	-1.5423328422	 0.118084001	-2.3707621948	 0.112712
H	 1.3406958873	-0.5762931618	-1.8696597861	 0.067112
H	 3.0579319003	-0.7217611969	 0.4405848055	 0.090468
H	 2.3644398796	 0.9311357148	 0.3995182238	 0.089663
H	 0.7296210131	-0.7351332708	 2.1467858883	 0.063571
H	 0.0852048546	-2.4929136474	-0.0855863742	 0.128144
H	 1.8649975013	-2.5285265899	 0.1915856763	 0.083311
71.6042	151.6752	158.1189	228.9461	277.0531	369.0351	412.2361	444.7853	576.332	597.9774	647.2905	772.24	800.4341	850.2732	863.9989	891.0825	896.1737	900.8868	954.8667	1005.5621	1012.3592	1014.1596	1028.5255	1061.4776	1093.059	1099.3153	1114.0549	1131.4047	1151.4914	1171.4147	1179.7919	1186.8614	1191.8774	1221.4615	1238.9395	1249.6549	1276.2373	1315.3677	1407.8588	1421.2079	1487.9097	1496.0229	1518.8795	1526.5997	1552.7976	3032.627	3068.1943	3069.2438	3071.6394	3080.5792	3084.9642	3085.8648	3096.3581	3128.3477	3146.1434	3166.0104	3183.1122
CC1(C2CO2)C2CC1C2	C[C@@]1([C@H]2CO2)[C@H]2C[C@@H]1C2	
InChI=1S/C8H12O/c1-8(7-4-9-7)5-2-6(8)3-5/h5-7H,2-4H2,1H3	InChI=1S/C8H12O/c1-8(7-4-9-7)5-2-6(8)3-5/h5-7H,2-4H2,1H3/t5-,6+,7-,8-/m1/s1
