19
gdb 80291	2.3267	1.57684	1.2929	4.1673	75.26	-0.2626	0.0129	0.2755	1084.0242	0.158707	-423.071575	-423.062974	-423.06203	-423.104577	32.709	
C	-0.2891608883	 1.4982905046	-0.128993742	-0.426896
C	-0.0213718419	 0.0126116056	-0.0347306242	-0.074101
C	 1.3516366293	-0.6237725431	-0.2408822809	-0.139792
C	 2.5789653986	 0.2446309164	-0.0881864897	-0.377536
C	 2.5059488261	 0.7693775943	 1.3492559675	 0.408626
O	 3.2379200462	 1.5404322389	 1.8949996301	-0.332348
O	 1.4157125318	 0.2317770799	 1.9752556327	-0.246679
C	 0.6915974582	-0.6462554427	 1.1185130632	 0.400281
C	 0.1829306715	-1.8582347601	 1.843297925	-0.465914
H	 0.4880389948	 2.1000699158	 0.3472231798	 0.14094
H	-0.3618915312	 1.8134355299	-1.1753031564	 0.122908
H	-1.2354741781	 1.7481059519	 0.361434737	 0.128582
H	-0.8266287176	-0.6000483401	-0.4343348283	 0.092321
H	 1.4189121244	-1.5256331947	-0.8379243615	 0.096852
H	 3.5058083165	-0.3252069174	-0.2065655823	 0.142156
H	 2.6374892979	 1.0967746929	-0.7718023655	 0.142324
H	-0.5230659235	-1.5760412731	 2.6309338731	 0.135878
H	-0.3319825703	-2.5251222394	 1.1463201775	 0.12252
H	 1.0071549758	-2.4101176595	 2.3064441947	 0.129877
98.4046	156.7027	194.305	201.8639	215.0998	252.4623	312.8146	468.0477	504.3536	533.3319	569.8769	596.5669	689.7239	726.8599	797.3458	831.6681	873.3642	927.6226	988.5794	989.8907	1018.591	1051.1727	1092.3913	1121.8219	1128.7936	1148.1527	1174.9055	1196.9761	1239.6938	1290.388	1300.506	1351.969	1416.7965	1422.569	1455.5205	1468.0529	1478.5703	1492.1889	1500.1599	1508.9847	1883.5277	3038.0031	3040.0829	3061.4619	3098.3619	3098.6662	3104.5492	3117.8677	3120.4248	3137.1779	3177.1456
CC1C2CC(=O)OC12C	C[C@H]1[C@H]2CC(=O)O[C@@]12C	
InChI=1S/C7H10O2/c1-4-5-3-6(8)9-7(4,5)2/h4-5H,3H2,1-2H3	InChI=1S/C7H10O2/c1-4-5-3-6(8)9-7(4,5)2/h4-5H,3H2,1-2H3/t4-,5+,7-/m0/s1
