16
gdb 84065	2.62971	1.52459	0.97686	5.6043	75.25	-0.23	-0.0892	0.1408	1173.194	0.123253	-437.945746	-437.936709	-437.935765	-437.979787	31.541	
C	-0.0252260159	 1.4768018585	 0.0409614434	-0.353786
N	 0.0000705303	 0.0305487658	 0.0121540659	-0.104698
C	-1.1156362722	-0.8127823097	 0.0288303939	-0.100229
C	-0.8203899093	-2.1317013471	-0.0030297163	 0.125963
C	-1.7453374029	-3.3036844295	 0.0019309478	-0.493542
C	 0.6439725852	-2.2212769657	-0.0460287393	 0.225664
O	 1.3649861674	-3.1882673819	-0.08380522	-0.294445
C	 1.1556431287	-0.7336170961	-0.0336501551	 0.326216
O	 2.2886029225	-0.3272827965	-0.0577339128	-0.332899
H	 1.0115076247	 1.8171058992	 0.017853409	 0.17363
H	-0.5538630654	 1.8837711272	-0.8279609815	 0.138118
H	-0.5028303163	 1.8492649213	 0.9538156208	 0.138111
H	-2.0986204365	-0.3579743808	 0.0646845403	 0.142704
H	-1.6047286391	-3.9205820061	-0.8924456324	 0.143773
H	-1.5540385434	-3.9530795686	 0.8632769636	 0.143791
H	-2.7913641879	-2.9866519799	 0.0379752728	 0.121629
101.4843	110.8799	121.9801	133.5734	228.3509	266.516	283.3805	318.8094	345.5838	515.0642	545.9587	557.7601	657.178	777.2677	824.5003	912.1495	942.2223	983.6863	1018.5485	1067.8663	1090.6218	1154.4961	1185.6899	1291.1184	1368.8488	1401.0061	1425.9692	1458.5148	1474.8451	1493.3365	1496.5819	1512.2403	1679.2875	1816.7148	1842.121	3028.0188	3032.8557	3085.0314	3085.9986	3113.0544	3145.0928	3207.548
CN1C=C(C)C(=O)C1=O	CN1C=C(C)C(=O)C1=O	
InChI=1S/C6H7NO2/c1-4-3-7(2)6(9)5(4)8/h3H,1-2H3	InChI=1S/C6H7NO2/c1-4-3-7(2)6(9)5(4)8/h3H,1-2H3
