21
gdb 32728	2.91974	1.01012	0.79514	0.6448	86.7	-0.2062	0.0277	0.2339	1509.2532	0.182092	-387.137841	-387.128191	-387.127247	-387.173214	35.059	
C	 0.1887611435	 1.5991099765	 0.2206495172	-0.382061
C	 0.1299593985	 0.0714747882	 0.1589982405	-0.154458
C	 0.5155434546	-0.4825795551	-1.2270664862	-0.302439
C	 0.4956585291	-1.9702832145	-1.3052296281	 0.278107
C	-0.2840668867	-2.8779305362	-1.962955608	 0.156489
C	-1.4318899627	-2.6091068921	-2.8873169819	-0.508839
C	 0.2213738924	-4.1737485176	-1.5892223061	-0.259023
C	 1.2555892745	-3.9542763932	-0.7420569184	-0.02171
O	 1.4400287173	-2.6212851637	-0.5552985928	-0.187205
H	 1.1966220457	 1.9664159945	-0.0031139976	 0.115114
H	-0.4959932391	 2.053425795	-0.5045696701	 0.112407
H	-0.0866881231	 1.967736985	 1.2135294143	 0.113093
H	 0.8016927215	-0.3600740384	 0.9094263445	 0.111727
H	-0.8787797629	-0.2761570765	 0.4125911917	 0.099031
H	-0.1674857317	-0.0843745423	-1.9852547128	 0.107264
H	 1.5173701107	-0.1160241752	-1.4902586725	 0.111731
H	-1.2597021749	-3.0459241323	-3.8778895239	 0.127951
H	-2.364742803	-3.0406167299	-2.5058290309	 0.128046
H	-1.5979518435	-1.5372817042	-3.0242093608	 0.123147
H	-0.147524076	-5.1330450283	-1.9195120038	 0.103884
H	 1.9346285761	-4.6007711996	-0.2107460143	 0.127744
46.5317	85.2032	108.9714	122.5874	239.965	246.7251	261.889	315.2101	341.3649	425.8518	620.9005	633.2735	673.5528	738.8953	745.5072	771.6238	818.7435	866.3176	894.3567	912.4073	980.1654	1037.5805	1044.538	1062.5095	1074.689	1110.1949	1168.4811	1184.396	1233.2164	1267.9748	1280.6097	1311.0541	1328.183	1381.5692	1412.5425	1416.2088	1435.9622	1472.7538	1483.5841	1492.8054	1498.7573	1499.63	1509.8801	1550.9311	1667.1016	3012.9215	3026.6387	3028.2937	3035.808	3060.2229	3074.007	3078.6588	3098.7428	3102.9347	3111.1442	3244.6327	3280.0635
CCCC1=C(C)C=CO1	CCCc1c(C)cco1	
InChI=1S/C8H12O/c1-3-4-8-7(2)5-6-9-8/h5-6H,3-4H2,1-2H3	InChI=1S/C8H12O/c1-3-4-8-7(2)5-6-9-8/h5-6H,3-4H2,1-2H3
