21
gdb 73800	2.69626	1.25963	0.92198	0.8644	92.48	-0.2241	0.0292	0.2533	1323.0408	0.180946	-349.952451	-349.942639	-349.941695	-349.986829	36.775	
C	 0.069767556	 1.5995328179	-0.2176812962	-0.494765
C	 0.0441802571	 0.1049010738	-0.1319618928	 0.211796
C	-0.9854850777	-0.6886421128	 0.1891772635	 0.230783
C	-2.3880172919	-0.3136419045	 0.5482579135	-0.500471
C	-0.5965259905	-2.1663783902	 0.0700887303	-0.23969
C	 0.9567293654	-2.1161990752	 0.001082996	-0.221766
C	 1.2790608242	-0.6937735577	-0.4966522397	-0.300816
C	-1.1049000919	-3.0215973639	 1.1379326512	 0.325587
C	-1.5166253566	-3.7233331488	 2.0238903528	-0.475193
H	 0.845017062	 2.0163300147	 0.4381929719	 0.124512
H	 0.3173514166	 1.9289189495	-1.2355706538	 0.124046
H	-0.8840208808	 2.0553112217	 0.057483871	 0.122927
H	-2.526933693	 0.7679633492	 0.609981434	 0.119281
H	-3.1001432355	-0.7020128541	-0.1923802694	 0.123071
H	-2.6737303054	-0.7538385333	 1.5102955941	 0.139213
H	-0.998847076	-2.5524669623	-0.8810453041	 0.101894
H	 1.3529174503	-2.2560512357	 1.0103669626	 0.115863
H	 1.3697777513	-2.9074984961	-0.6287680064	 0.101989
H	 1.4428403121	-0.6666637801	-1.5845267595	 0.100888
H	 2.1921826208	-0.2893206427	-0.0431591794	 0.099399
H	-1.8802916265	-4.3462368293	 2.8029714705	 0.191451
76.7239	134.3423	146.6956	167.7676	171.801	224.2623	294.3917	308.298	355.8356	463.3722	505.626	530.8781	577.6037	613.6024	626.2394	632.6604	713.5216	850.2614	880.5443	937.9112	975.5496	995.6634	1009.4982	1033.1371	1062.4662	1080.6142	1123.7409	1167.3448	1194.3189	1227.263	1259.0391	1280.9272	1296.8637	1342.0763	1351.4598	1409.5881	1420.7872	1476.5868	1481.0097	1484.8866	1488.3497	1493.0488	1502.3153	1743.7187	2230.4578	2962.3715	2994.5446	3015.074	3018.9285	3041.1346	3057.2363	3067.3413	3070.582	3112.7499	3115.8774	3122.8326	3504.5286
CC1=C(C)C(CC1)C#C	CC1=C(C)[C@@H](CC1)C#C	
InChI=1S/C9H12/c1-4-9-6-5-7(2)8(9)3/h1,9H,5-6H2,2-3H3	InChI=1S/C9H12/c1-4-9-6-5-7(2)8(9)3/h1,9H,5-6H2,2-3H3/t9-/m1/s1
