21
gdb 82959	3.01499	1.36653	1.26386	1.3752	80.63	-0.2466	0.0745	0.3211	1101.482	0.185338	-387.068222	-387.060513	-387.059569	-387.100046	31.984	
O	 0.1542155535	 1.388209417	 0.0911585866	-0.410108
C	 0.0378843286	-0.0049112649	 0.0352090699	 0.066379
C	-0.4531800602	-0.7020003516	 1.2725989281	-0.049353
C	-0.971121184	 0.1002112325	 2.4661756196	-0.269653
C	-2.4629142166	-0.1440166537	 2.6951156204	 0.003208
C	-3.4699385037	 0.9658543411	 2.518788633	-0.304788
C	-3.3303362343	-0.097801722	 1.4577290735	 0.005517
C	-2.5948905707	 0.1830846124	 0.1469631161	-0.269039
C	-1.3275549016	-0.6606525424	 0.0260352231	-0.072762
H	-0.0563433775	 1.7403010786	-0.7801836968	 0.28909
H	 0.8308198936	-0.4947060534	-0.5302142006	 0.08036
H	 0.026526692	-1.6466285195	 1.5094889177	 0.079355
H	-0.4043707051	-0.163824422	 3.3633383735	 0.096598
H	-0.7862586447	 1.1629532203	 2.2873007837	 0.123467
H	-2.7024203059	-0.9054568024	 3.4313385769	 0.075162
H	-4.3591316404	 0.9636392104	 3.1406392822	 0.103166
H	-3.0907657001	 1.9587084722	 2.2918481517	 0.107274
H	-4.1307558676	-0.8286623014	 1.3922147183	 0.075279
H	-3.2547621522	-0.0084267646	-0.7041816653	 0.095682
H	-2.3252907994	 1.2435237694	 0.09722678	 0.099022
H	-1.4186796737	-1.5773393558	-0.5491806015	 0.076142
101.7225	209.8306	278.5809	286.5368	301.3035	401.4932	452.419	465.2898	547.6885	613.0986	631.7344	767.1181	796.443	802.0487	826.865	833.2465	890.1404	924.2862	925.2531	976.4744	1000.0382	1024.6606	1038.9589	1067.8311	1081.7757	1106.7797	1127.39	1132.6479	1157.5636	1163.7952	1225.9714	1233.584	1237.6935	1275.9967	1292.2889	1306.106	1330.5778	1368.1892	1376.6657	1383.7341	1407.4395	1449.1692	1480.4493	1483.9437	1500.8489	3041.2113	3057.4411	3080.7647	3091.4455	3095.2635	3115.7743	3137.9881	3141.3599	3147.979	3153.8668	3201.4743	3803.6209
OC1C2CC3CC3CC12	O[C@H]1[C@H]2C[C@H]3C[C@H]3C[C@@H]12	
InChI=1S/C8H12O/c9-8-6-2-4-1-5(4)3-7(6)8/h4-9H,1-3H2	InChI=1S/C8H12O/c9-8-6-2-4-1-5(4)3-7(6)8/h4-9H,1-3H2/t4-,5+,6+,7-,8+
