18
gdb 44786	2.40504	2.17006	1.57979	3.4341	76.19	-0.2406	0.0132	0.2538	905.7376	0.150093	-401.887379	-401.880639	-401.879695	-401.918033	28.514	
O	 0.0637222299	 0.0879130864	 0.0683479783	-0.385651
C	 0.0313988433	 1.2926790479	 0.0918059138	 0.404852
N	-1.0788164981	 2.1237383915	 0.2472051984	-0.309277
C	-0.5095491264	 3.4470144066	-0.0319059645	-0.072294
C	 0.7331639255	 3.4030076274	 0.9659535473	-0.30591
C	 1.1850521661	 2.311491039	-0.0885792664	 0.139838
C	 2.2122860502	 1.7941985098	-1.13140184	-0.311027
C	 1.1237729419	 2.2051393978	-2.2251526278	-0.295348
C	 0.592585906	 3.220476664	-1.1525930365	 0.019501
H	-1.9590992555	 1.8328919526	-0.153402443	 0.249566
H	-1.2391238975	 4.2562661844	-0.0246525632	 0.084632
H	 1.3479339168	 4.3033285998	 0.942011884	 0.113789
H	 0.5083615703	 3.0988549553	 1.9909937569	 0.114618
H	 3.1104261067	 2.4104488828	-1.2091665429	 0.107953
H	 2.4796306321	 0.7380039049	-1.0651790663	 0.126654
H	 1.4833300185	 2.6281827671	-3.1654335098	 0.100106
H	 0.4527899443	 1.3703901029	-2.4356878348	 0.134147
H	 1.1873026358	 4.1354950198	-1.2358355635	 0.083851
177.4753	243.7197	285.5222	401.2411	423.8571	486.5496	525.0782	614.8815	646.7437	669.6345	749.2631	753.829	774.9849	815.5005	848.0373	879.8109	900.647	984.8873	993.1595	1026.1523	1028.7449	1060.076	1091.0943	1108.9992	1140.128	1152.2023	1172.7915	1198.1311	1206.237	1213.183	1240.0848	1265.6053	1316.8151	1368.1982	1391.4996	1470.3274	1483.5783	1495.9563	1854.289	3050.5026	3069.7379	3072.0918	3076.6815	3125.0053	3130.5279	3143.4331	3146.2534	3609.9787
O=C1NC2CC11CCC21	O=C1N[C@H]2C[C@]31CC[C@@H]23	
InChI=1S/C7H9NO/c9-6-7-2-1-4(7)5(3-7)8-6/h4-5H,1-3H2,(H,8,9)	InChI=1S/C7H9NO/c9-6-7-2-1-4(7)5(3-7)8-6/h4-5H,1-3H2,(H,8,9)/t4-,5-,7+/m0/s1
