18
gdb 8114	3.10074	1.97903	1.54106	1.7643	67.84	-0.2293	0.0759	0.3052	901.8545	0.152498	-384.903606	-384.895543	-384.894599	-384.935359	31.016	
C	-0.1058935909	 1.5643401664	-0.0088489368	-0.424037
C	 0.1843692966	 0.076332783	-0.0042873419	 0.144601
O	 1.4114363683	-0.3085939493	-0.7140636603	-0.358669
C	 1.7909920979	-1.1778150769	 0.3755881571	 0.389444
C	 2.3140224178	-2.5314869459	 0.0244167769	-0.493696
C	 2.1172237028	-0.3077352471	 1.5372851789	 0.085363
O	 2.696901721	 0.9504017851	 1.3787781029	-0.436646
C	 0.6557139583	-0.6400052446	 1.2559626204	-0.254999
H	-0.1875148836	 1.931248849	-1.0374397652	 0.12388
H	-1.0638168639	 1.7497277174	 0.4893082974	 0.120538
H	 0.6678570242	 2.1258538722	 0.5163679983	 0.13907
H	-0.6478660665	-0.4696157202	-0.4677957433	 0.085578
H	 3.2443365247	-2.4463231144	-0.5487192502	 0.134056
H	 2.5276283836	-3.1042294406	 0.9315193294	 0.12604
H	 1.5929069329	-3.0904097051	-0.580523234	 0.128359
H	 2.5084126901	-0.8220939715	 2.4113672968	 0.105148
H	 2.7112673682	 1.1089958133	 0.424664833	 0.292031
H	 0.0179991386	-1.1437536107	 1.9715169007	 0.093938
168.969	193.2995	211.3357	223.3388	245.0717	266.7272	350.6231	428.0553	478.4905	574.5761	600.6923	686.3112	742.8119	797.6279	856.0022	890.0985	930.936	957.9065	974.2363	1030.7772	1075.1053	1083.8773	1116.1841	1139.0696	1152.9067	1206.4832	1260.4624	1298.4784	1320.3101	1375.6508	1389.9877	1408.1222	1415.0065	1475.4297	1485.0698	1486.6796	1502.7434	1505.4241	3013.0806	3031.9899	3040.4388	3095.7578	3101.9778	3115.1325	3147.2412	3150.6772	3190.0666	3747.4548
CC1OC2(C)C(O)C12	C[C@H]1O[C@@]2(C)[C@@H](O)[C@@H]12	
InChI=1S/C6H10O2/c1-3-4-5(7)6(4,2)8-3/h3-5,7H,1-2H3	InChI=1S/C6H10O2/c1-3-4-5(7)6(4,2)8-3/h3-5,7H,1-2H3/t3-,4-,5+,6-/m1/s1
