16
gdb 75661	2.88633	1.28993	1.10598	3.1959	78.09	-0.2365	-0.03	0.2065	1129.3801	0.122181	-400.687103	-400.678555	-400.677611	-400.720209	32.108	
C	-0.0352201647	 1.6130080314	 0.0551337319	-0.42193
C	 0.045945662	 0.0957368439	-0.0042287621	-0.166259
C	 1.1160338475	-0.5957168467	-0.903262867	 0.457534
O	 1.2878925877	-0.6408113151	-2.0847092681	-0.308199
C	 1.7190751086	-1.3226620135	 0.2817699741	-0.257822
N	 2.0813858622	-0.2369868491	 1.2444095685	-0.359798
C	 0.6740779939	-0.6843455118	 1.1797175173	 0.193448
C	-0.0023353871	-1.2567104511	 2.2888660367	 0.149849
C	-0.5951071343	-1.7160184979	 3.2301327297	-0.376855
H	 0.9136591545	 2.034846	 0.3934508646	 0.144692
H	-0.2590355058	 2.0142594732	-0.9379113362	 0.134932
H	-0.8265751814	 1.9377226722	 0.7378535258	 0.124625
H	-0.9213526539	-0.3483953581	-0.2686692436	 0.114086
H	 2.1838556448	-2.2988919128	 0.338946701	 0.127553
H	 2.5155161723	-0.6983101595	 2.0447763914	 0.248332
H	-1.1163576663	-2.1285555252	 4.058444496	 0.195813
85.5594	131.8303	188.7973	201.7617	224.6083	272.6734	409.6064	497.1402	498.922	533.9749	587.0961	601.4685	645.973	667.8932	705.1327	766.5544	828.5551	872.4952	948.3482	999.3412	1013.7221	1082.9184	1090.7352	1115.2876	1136.6928	1192.0691	1249.0002	1303.4072	1337.9099	1394.2033	1403.5668	1490.5675	1503.9515	1900.741	2235.8383	3043.5619	3050.3605	3109.7792	3134.2993	3204.5504	3469.6576	3500.802
CC1C(=O)C2NC12C#C	C[C@H]1C(=O)[C@H]2N[C@@]12C#C	
InChI=1S/C7H7NO/c1-3-7-4(2)5(9)6(7)8-7/h1,4,6,8H,2H3	InChI=1S/C7H7NO/c1-3-7-4(2)5(9)6(7)8-7/h1,4,6,8H,2H3/t4-,6+,7-/m0/s1
