23
gdb 119985	1.93963	1.19899	0.89811	2.9096	82.73	-0.243	0.0722	0.3153	1442.4506	0.204083	-425.402808	-425.392099	-425.391155	-425.439113	38.642	
C	-0.2080839354	 1.4025801389	-0.2087610621	-0.390813
C	-0.2802943123	-0.0624626578	 0.1831298112	-0.035332
O	-1.3749119423	-0.6588857508	-0.5023960436	-0.258811
C	-1.5186144332	-2.0286231413	-0.2535837405	 0.094912
C	-2.440614074	-2.5027553004	 0.8504886817	-0.061792
C	-3.0838967518	-1.5316015008	 1.8183503755	-0.412976
C	-2.8553711499	-2.6069866746	-0.6152573857	-0.101403
C	-3.8923194793	-1.6942136762	-1.2465710826	-0.075672
O	-3.4697533924	-1.2098118136	-2.5122658206	-0.429963
H	 0.6316560284	 1.8894251041	 0.2957492362	 0.119594
H	-0.0698414261	 1.5056602979	-1.2889261464	 0.128245
H	-1.1285916626	 1.9231215224	 0.0706915084	 0.129047
H	 0.6514292989	-0.5842850721	-0.087447896	 0.093673
H	-0.4139366805	-0.1739545005	 1.2689816025	 0.098244
H	-0.617659964	-2.6053950518	-0.4664676949	 0.08329
H	-2.1559730132	-3.4497716069	 1.3027695786	 0.08379
H	-3.14891938	-0.5254040832	 1.3990381512	 0.131847
H	-4.0950389806	-1.8497960772	 2.0941722829	 0.118801
H	-2.4958454057	-1.467373141	 2.7403361203	 0.113789
H	-2.824425007	-3.6019577869	-1.0500704128	 0.090218
H	-4.8169983698	-2.2525377206	-1.4263387944	 0.103677
H	-4.143200807	-0.8648249241	-0.5733979533	 0.089066
H	-2.6628599603	-0.7098970736	-2.3388464056	 0.288568
64.2463	79.3146	96.0866	115.9212	164.3283	203.8963	224.7043	255.6716	290.4888	353.7343	386.6946	485.1259	504.2614	596.6956	629.4052	768.3171	788.3115	820.3101	879.555	912.7705	949.4462	980.7398	1013.9259	1063.3862	1077.4496	1087.6837	1127.2522	1143.7484	1147.8203	1155.1582	1180.68	1188.9566	1245.3941	1257.6805	1294.8703	1351.4865	1365.4032	1392.6151	1404.2927	1414.5564	1424.4452	1441.7899	1459.1378	1484.9993	1497.6151	1499.1566	1501.6075	1509.8958	1527.105	2978.0636	3015.4734	3020.8508	3034.7958	3045.0367	3071.156	3088.5123	3088.5632	3119.299	3120.6358	3120.9747	3134.1113	3149.8626	3786.5583
CCOC1C(C)C1CO	CCO[C@H]1[C@@H](C)[C@H]1CO	
InChI=1S/C7H14O2/c1-3-9-7-5(2)6(7)4-8/h5-8H,3-4H2,1-2H3	InChI=1S/C7H14O2/c1-3-9-7-5(2)6(7)4-8/h5-8H,3-4H2,1-2H3/t5-,6+,7-/m0/s1
