19
gdb 91092	2.90254	1.6374	1.49848	1.1249	73.75	-0.2388	0.0746	0.3135	976.885	0.160398	-422.997518	-422.990121	-422.989177	-423.029224	29.673	
C	 0.2741190504	 1.545457621	-0.1182344987	-0.410068
C	 0.0965974938	 0.0535388435	 0.0496031465	 0.131414
O	 0.9027213574	-0.7429173412	-0.8640732548	-0.313621
C	 1.3603010841	-1.602849536	 0.208502316	 0.080765
C	 2.8493477383	-1.5974048072	 0.4942533322	-0.091921
C	 3.5865862122	-0.3018308583	 0.205609163	-0.317246
C	 3.0261259468	-0.5588939545	 1.5716198377	 0.100275
O	 1.7830600139	 0.0112442914	 1.918030142	-0.267829
C	 0.722918492	-0.6700862273	 1.2643494608	 0.035741
H	 1.2885828409	 1.8535693374	 0.141492218	 0.133908
H	 0.0658960819	 1.8306534763	-1.1540077188	 0.125447
H	-0.4237327586	 2.0834414052	 0.5320312112	 0.11916
H	-0.9616660977	-0.2240573332	-0.0621636883	 0.073062
H	 0.953326397	-2.614175647	 0.1117959573	 0.07773
H	 3.3840002726	-2.538866508	 0.504800808	 0.091359
H	 4.6632832286	-0.362999303	 0.0881921833	 0.11288
H	 3.0891035751	 0.4079422647	-0.4434467707	 0.13752
H	 3.6801031088	-0.6908264964	 2.4267780065	 0.100559
H	 0.0292691423	-1.0708143073	 2.0094211188	 0.080865
104.2891	195.761	202.5111	241.7246	370.2389	413.1732	513.6871	531.427	644.6218	696.5396	756.5809	796.6578	820.2695	847.712	881.7406	906.2164	926.041	962.3687	987.0483	990.8346	1040.0743	1053.4795	1069.6142	1098.6438	1108.5008	1121.6945	1156.1373	1170.2472	1196.6287	1238.148	1247.0669	1306.8284	1324.1227	1335.0985	1361.224	1379.3355	1394.393	1411.2171	1474.8584	1485.1136	1495.1761	2996.0271	3044.1023	3054.7114	3067.955	3109.5969	3139.5747	3142.1082	3168.3267	3189.3098	3237.9795
CC1OC2C3CC3OC12	C[C@H]1O[C@H]2[C@H]3C[C@H]3O[C@@H]12	
InChI=1S/C7H10O2/c1-3-6-7(8-3)4-2-5(4)9-6/h3-7H,2H2,1H3	InChI=1S/C7H10O2/c1-3-6-7(8-3)4-2-5(4)9-6/h3-7H,2H2,1H3/t3-,4+,5-,6+,7+/m1/s1
