16
gdb 19561	4.09225	2.1247	1.92425	1.457	68.53	-0.2179	0.0006	0.2184	752.9655	0.133124	-342.693726	-342.687714	-342.68677	-342.723463	24.966	
C	 0.0278613679	 1.4934622664	-0.0094277022	-0.332319
N	 1.2733832459	 0.6729457836	 0.0481847641	-0.391726
C	-0.0078795245	 0.027745715	 0.0104337624	 0.469146
C	-0.6112273543	-1.0000712851	 1.0094027354	-0.140834
N	-1.7543617094	-1.0528601568	 0.0270008822	-0.300107
C	-0.6472637127	-0.9772158402	-0.9915879749	-0.159525
C	 0.2050811799	-2.2282961152	-0.6894005038	-0.100029
C	 0.2284547416	-2.2411308576	 0.6481476188	-0.07452
H	-0.1757410452	 2.0696370023	 0.8888023907	 0.123505
H	-0.2227097005	 1.9991637304	-0.938856133	 0.114835
H	 1.7340306915	 0.6431148487	-0.8579275527	 0.231921
H	-0.8324994453	-0.7723696618	 2.0511288046	 0.073597
H	-2.18083113	-1.9814728579	 0.0233171882	 0.202342
H	-0.9056719774	-0.7259780352	-2.0207302121	 0.068902
H	 0.6917452396	-2.8742783318	-1.4059669	 0.10571
H	 0.7447007428	-2.8979109047	 1.3332311224	 0.109101
192.4864	264.1219	304.5868	458.1228	555.2503	576.0286	608.9597	722.0008	772.8144	825.127	832.2395	857.1959	878.3339	905.6693	912.7982	938.6523	958.8281	973.3261	1006.633	1042.8218	1088.7202	1122.2705	1134.4635	1151.8924	1219.5588	1221.6387	1237.3301	1253.7092	1269.4593	1301.1408	1330.406	1433.2366	1524.1656	1607.2982	3106.0983	3115.3318	3133.2196	3190.4446	3224.8882	3252.1489	3430.2558	3501.0542
C1NC11C2NC1C=C2	C1N[C@]21[C@H]1N[C@@H]2C=C1	
InChI=1S/C6H8N2/c1-2-5-6(3-7-6)4(1)8-5/h1-2,4-5,7-8H,3H2	InChI=1S/C6H8N2/c1-2-5-6(3-7-6)4(1)8-5/h1-2,4-5,7-8H,3H2/t4-,5+,6+
