19
gdb 99537	2.19733	1.22145	0.8321	3.004	81.93	-0.269	0.0224	0.2914	1388.5611	0.157366	-382.046845	-382.036352	-382.035408	-382.082567	37.614	
C	 0.076881416	 1.5720266184	 0.0035631403	-0.395767
C	 0.0229043878	 0.0437932141	-0.0200444386	-0.177322
C	-1.420590635	-0.5105262044	 0.0028054975	-0.151054
C	-2.1577095769	-0.1398537572	-1.2020867068	 0.331
C	-2.7349541322	 0.1545782834	-2.214206095	-0.451575
C	-1.4194128642	-2.0591370724	 0.1866421591	-0.141078
N	-0.760744059	-2.4256129459	 1.4419427865	-0.497596
C	-2.7890906785	-2.6094161743	 0.0946696736	 0.264322
N	-3.8456142979	-3.0790730111	 0.1016656936	-0.324451
H	 1.1132482969	 1.9211007258	-0.0231375745	 0.117607
H	-0.4484559569	 2.001641249	-0.8542801152	 0.132725
H	-0.3844867774	 1.9708967295	 0.9139416445	 0.115066
H	 0.5230373452	-0.3339794734	-0.9201041812	 0.103686
H	 0.5521164185	-0.3732483978	 0.840328227	 0.125826
H	-1.9411280733	-0.0864503152	 0.8741705815	 0.112499
H	-3.2661818234	 0.4122728919	-3.0970717611	 0.203428
H	-0.8364636674	-2.4882284275	-0.6361601527	 0.139962
H	-1.3538278374	-2.1735101474	 2.228310225	 0.244171
H	-0.6380044849	-3.4323931255	 1.4871375763	 0.24855
52.4101	92.6228	116.7512	156.8779	186.2211	231.3117	244.6343	260.7094	295.5749	338.6879	403.1772	476.0082	519.5601	587.8842	611.0866	640.5042	658.349	774.6091	852.0367	874.7499	923.1305	967.6091	1011.6652	1051.3441	1108.525	1115.7438	1142.0109	1188.5999	1269.0767	1291.5213	1332.853	1356.6341	1365.1953	1390.1483	1414.1062	1492.3321	1498.0487	1509.1421	1662.0082	2237.3437	2346.6733	2999.5272	3035.1598	3039.7417	3057.6106	3095.3722	3106.9486	3120.9308	3494.4	3503.5991	3574.7161
CCC(C#C)C(N)C#N	CC[C@@H](C#C)[C@@H](N)C#N	
InChI=1S/C7H10N2/c1-3-6(4-2)7(9)5-8/h1,6-7H,4,9H2,2H3	InChI=1S/C7H10N2/c1-3-6(4-2)7(9)5-8/h1,6-7H,4,9H2,2H3/t6-,7+/m1/s1
