21
gdb 41599	3.85383	1.26503	1.1332	0.2161	86.97	-0.2313	0.0326	0.2639	1156.4472	0.18459	-349.936285	-349.928643	-349.927699	-349.969043	30.865	
C	-0.1031263016	 1.4360164211	-0.1574107608	-0.238279
C	 1.45204687	 1.5253192752	-0.0120248953	-0.238269
C	 1.5120409832	-0.0006724662	 0.1214578349	-0.105646
C	-0.0131972061	-0.0882683599	-0.0212849666	-0.105627
C	 0.8909119971	-0.6923424231	-1.063762572	 0.362949
C	 0.9987184452	-0.1976527136	-2.5202634784	-0.346398
C	 1.1447866754	-1.4719624037	-3.3131824526	-0.065636
C	 1.1354384717	-2.5590816329	-2.546231885	-0.060154
C	 0.9812070575	-2.2345389291	-1.0830064992	-0.342531
H	-0.620217451	 1.9038855834	 0.6832125614	 0.101338
H	-0.5413013498	 1.8188349545	-1.084982409	 0.09438
H	 2.0077151241	 1.9650550683	-0.8467729762	 0.094385
H	 1.7484668664	 2.0400262148	 0.9045665972	 0.101326
H	 2.1678026872	-0.5419829511	 0.7957562455	 0.075808
H	-0.7166071183	-0.7076668357	 0.5257768634	 0.075815
H	 0.113816566	 0.3714898282	-2.8354374508	 0.105652
H	 1.8573134349	 0.4700826118	-2.6728489367	 0.105652
H	 1.2450748478	-1.470937573	-4.3935910945	 0.088156
H	 1.2267445477	-3.5790769109	-2.9040200264	 0.088752
H	 1.8304027727	-2.6087892703	-0.4944221467	 0.104163
H	 0.0867008998	-2.7089007579	-0.6558744623	 0.104162
29.5789	193.2598	210.335	277.5108	381.9135	414.0883	426.2927	526.2077	687.7484	732.194	762.9667	773.1346	796.008	845.5563	846.0392	928.4489	950.7115	963.1098	975.8681	979.0842	982.1083	988.406	1000.8432	1030.3923	1057.0498	1093.0329	1098.0817	1132.635	1168.1285	1175.178	1210.7932	1224.0259	1245.8043	1248.6124	1254.8963	1288.3413	1297.8724	1332.7803	1371.9001	1416.4428	1481.0815	1484.0333	1488.8638	1501.7014	1699.0414	3001.0408	3008.0767	3021.2988	3028.6723	3044.0115	3051.7577	3093.2204	3111.7206	3151.9186	3163.6723	3176.0254	3201.9715
C1CC2C1C21CC=CC1	C1C[C@H]2[C@@H]1[C@]12CC=CC1	
InChI=1S/C9H12/c1-2-6-9(5-1)7-3-4-8(7)9/h1-2,7-8H,3-6H2	InChI=1S/C9H12/c1-2-6-9(5-1)7-3-4-8(7)9/h1-2,7-8H,3-6H2/t7-,8+
