12
gdb 20507	9.68939	1.02671	0.93375	2.1771	68.3	-0.253	-0.0339	0.2191	1175.1097	0.084757	-373.665094	-373.657832	-373.656888	-373.699016	24.197	
C	-0.0392265015	 1.4465373735	 0.0102086394	-0.509179
C	 0.0100663599	-0.0052306257	 0.0022326981	 0.213335
C	 0.053837493	-1.2087702471	-0.0043277791	 0.006462
C	 0.0754259295	-2.6205015276	-0.0118282293	 0.213273
N	 1.1924832622	-3.3554773108	-0.0223053285	-0.251755
N	 0.6880284309	-4.5778128816	-0.0256134242	-0.10234
N	-0.6374566081	-4.6396074529	-0.0180370576	-0.097781
N	-1.0486489817	-3.4035519474	-0.0091674647	-0.255711
H	 0.9690397666	 1.8735159805	 0.0026946596	 0.15982
H	-0.5729690377	 1.8264562966	-0.8676353948	 0.160574
H	-0.5558999687	 1.8173525389	 0.9020525075	 0.160563
H	 1.2658754355	-5.4054000564	-0.0333387866	 0.302739
10.6017	99.0048	113.0102	304.4789	323.4886	489.1221	497.211	537.7142	581.2497	732.0289	792.654	987.5609	1038.3897	1049.3281	1052.3892	1085.7539	1113.9137	1206.9769	1261.6018	1317.1043	1410.8382	1472.153	1473.162	1479.1262	1526.0628	2377.6673	3031.9317	3094.6302	3099.1981	3645.8499
CC#CC1=NNN=N1	CC#Cc1n[nH]nn1	
InChI=1S/C4H4N4/c1-2-3-4-5-7-8-6-4/h1H3,(H,5,6,7,8)	InChI=1S/C4H4N4/c1-2-3-4-5-7-8-6-4/h1H3,(H,5,6,7,8)
