14
gdb 33326	3.0697	0.88399	0.72134	4.0597	90.18	-0.2467	-0.0291	0.2177	1495.2842	0.099557	-362.358532	-362.349893	-362.348949	-362.392543	31.286	
C	-0.0534374023	-3.8043951797	-0.0299480551	-0.557719
C	-0.0301805908	-2.5972119193	-0.0130861247	 0.304313
C	-0.0071247811	-1.2382082326	 0.0051289504	-0.266012
C	 0.0174815266	-0.0279857881	 0.0287926653	 0.453865
C	 0.0210698269	 1.3991717658	 0.0397155545	-0.234758
C	 0.4845128856	 2.1634345097	 1.2603361977	-0.2835
C	 1.3444395621	 2.1883771208	 0.0177744611	-0.167677
C	 2.6006497907	 1.4947989926	-0.0027758026	 0.295942
N	 3.6213997011	 0.9518110714	-0.0253638038	-0.324757
H	-0.0683203942	-4.8660283684	-0.0446685241	 0.196458
H	-0.769067553	 1.8663287575	-0.5415617687	 0.137456
H	-0.0421788444	 3.0745259612	 1.5178452694	 0.140981
H	 0.8446814286	 1.57944142	 2.0977374673	 0.159898
H	 1.3306892243	 3.0964908391	-0.5750951667	 0.14551
56.0525	95.6362	150.671	204.8991	259.5266	270.3315	421.1161	461.0825	535.6911	547.0879	563.2674	587.7017	609.2736	622.114	702.7834	763.1254	832.8648	895.5259	956.379	1030.343	1087.1061	1115.022	1133.9333	1173.7276	1240.4992	1373.9	1394.9288	1478.9255	2184.9125	2359.585	2360.8213	3146.8026	3153.6549	3174.9848	3252.1113	3504.0417
C#CC#CC1CC1C#N	C#CC#C[C@H]1C[C@H]1C#N	
InChI=1S/C8H5N/c1-2-3-4-7-5-8(7)6-9/h1,7-8H,5H2	InChI=1S/C8H5N/c1-2-3-4-7-5-8(7)6-9/h1,7-8H,5H2/t7-,8-/m0/s1
