14
gdb 69225	2.78216	1.69027	1.19511	2.4887	64.2	-0.2833	-0.0454	0.2379	998.264	0.100232	-473.852158	-473.844579	-473.843634	-473.884264	28.151	
C	-0.0747699084	 1.5321893805	 0.032712988	-0.497064
C	 0.1453566829	 0.0524331983	 0.0254031896	 0.253022
O	-0.7124094214	-0.7875299555	 0.8200109341	-0.269106
C	 0.6972985148	-0.8033807635	 1.0885718373	-0.14187
C	 1.3590900334	-1.955450476	 0.4125210322	 0.451103
N	 2.0790282916	-2.8322582952	 0.9478134926	-0.521251
O	 1.067435189	-1.8833536121	-0.9468472844	-0.234368
C	 0.4646223453	-0.6746946544	-1.2652584728	 0.438719
O	 0.2762676513	-0.3325759329	-2.389203765	-0.312203
H	 0.8208617545	 2.0561823066	-0.313105728	 0.145606
H	-0.8970870069	 1.7906681376	-0.640022259	 0.159568
H	-0.3211840451	 1.8704687776	 1.0411742063	 0.144252
H	 1.0259524372	-0.4626057813	 2.0626753488	 0.138445
H	 2.4262582718	-3.5018245095	 0.2584585403	 0.245147
133.174	147.0693	172.4642	246.9024	305.8961	351.3279	410.0035	537.3913	559.2273	632.8177	702.4345	727.2126	777.7746	830.3207	881.1081	920.9811	926.6746	1008.9888	1041.3734	1064.4216	1089.6036	1107.2622	1254.2451	1279.8242	1333.875	1408.491	1452.5589	1478.7341	1491.3076	1801.194	1917.7961	3053.387	3123.6039	3141.7845	3206.8207	3478.8144
CC12OC1C(=N)OC2=O	C[C@]12O[C@H]1[C]([NH])OC2=O	
InChI=1S/C5H5NO3/c1-5-2(9-5)3(6)8-4(5)7/h2,6H,1H3	InChI=1S/C5H5NO3/c1-5-2(9-5)3(6)8-4(5)7/h2,6H,1H3/t2-,5-/m0/s1
