16
gdb 30835	2.37034	1.37878	0.91916	1.1206	68.39	-0.1978	0.0313	0.229	1243.3292	0.123998	-475.068854	-475.060132	-475.059188	-475.102594	31.845	
C	-0.290819986	 1.6132611432	-0.1808431136	-0.371001
C	 0.0516734289	 0.1248720953	 0.0098872821	-0.303249
C	 0.8239265282	-0.4667316135	-1.1088559607	 0.231013
C	 2.057066031	-1.0014847969	-1.2703499204	 0.242271
O	 3.0163014392	-1.1576341347	-0.335046814	-0.433299
N	 2.2636450109	-1.4077362083	-2.5838300285	-0.464683
C	 1.1419388713	-1.0963706843	-3.1546418473	 0.474053
O	 0.7929040366	-1.2687760428	-4.4273764857	-0.397798
O	 0.2202159411	-0.5355696195	-2.3804180089	-0.20691
H	 0.6188753181	 2.2145405669	-0.2699842014	 0.121177
H	-0.8832725527	 1.7623707143	-1.0882496008	 0.128704
H	-0.8704413176	 1.9890784677	 0.6679381087	 0.112011
H	 0.6538022873	-0.0095921234	 0.9147245641	 0.127099
H	-0.8762015543	-0.441856178	 0.168595812	 0.11348
H	 3.7663673059	-1.5759332432	-0.7729204856	 0.305025
H	 1.5452234023	-1.6806521427	-4.8706691003	 0.322105
60.0648	121.2257	182.4138	238.9399	271.2024	283.6504	317.3741	347.6074	425.4368	448.0895	568.8253	622.8734	652.942	701.4423	751.0463	780.4553	823.0916	966.7505	1027.5056	1054.2553	1084.6086	1127.2177	1188.2191	1214.6964	1283.202	1319.1335	1366.8022	1404.4688	1416.4783	1470.9086	1495.738	1506.2364	1510.6385	1652.9785	1754.5197	3010.969	3039.5254	3076.9009	3111.5495	3118.1312	3812.1027	3818.6142
CCC1=C(O)N=C(O)O1	CCc1c(O)nc(O)o1	
InChI=1S/C5H7NO3/c1-2-3-4(7)6-5(8)9-3/h7H,2H2,1H3,(H,6,8)	InChI=1S/C5H7NO3/c1-2-3-4(7)6-5(8)9-3/h7H,2H2,1H3,(H,6,8)
