16
gdb 49580	1.98557	1.73642	1.10748	4.0534	74.94	-0.2314	-0.0238	0.2076	1098.6984	0.122806	-400.66604	-400.657726	-400.656782	-400.699556	30.793	
O	 0.0052298425	-0.0927384878	 0.0639632875	-0.257885
C	 0.0197389053	 1.0865090954	-0.1895056261	 0.155109
C	 1.2484540726	 1.9516346321	-0.040947824	-0.112949
C	 1.5488116062	 2.9279108653	-1.1927936543	-0.072618
N	 0.3804015649	 3.8366560518	-1.2837357411	-0.323078
C	 1.4475897199	 4.1132210452	-0.3044612347	-0.054067
C	 1.1645023993	 3.2262347996	 0.9244682421	-0.216993
C	-0.0383979172	 3.4694257641	 1.6953407684	 0.349019
C	-1.0299237453	 3.6644340584	 2.3462482613	-0.449904
H	-0.8771908625	 1.6160320792	-0.5649645651	 0.109049
H	 2.0966078096	 1.3208517347	 0.2276360027	 0.099298
H	 2.1862261009	 2.7439571759	-2.0478381544	 0.10975
H	 0.5322378459	 4.4499461477	-2.0833079294	 0.238068
H	 1.9869187642	 5.0515989884	-0.3102838264	 0.108437
H	 2.036365637	 3.2016752705	 1.5842179753	 0.118211
H	-1.9102996833	 3.8386040995	 2.9139949081	 0.200553
56.549	110.7584	132.5504	191.274	280.7086	348.0014	431.6725	472.2949	522.2437	612.04	628.1211	648.5317	712.6764	806.5316	818.8412	849.31	901.5079	945.9116	973.3892	1023.6912	1043.1287	1083.5319	1084.8208	1105.5262	1119.3393	1176.5799	1236.0257	1246.2443	1306.5408	1310.3652	1346.5667	1378.3619	1419.6702	1818.678	2237.0652	2953.0025	3068.8606	3113.2361	3194.0417	3207.4013	3486.3889	3503.5502
O=CC1C2NC2C1C#C	O=C[C@H]1[C@H]2N[C@H]2[C@H]1C#C	
InChI=1S/C7H7NO/c1-2-4-5(3-9)7-6(4)8-7/h1,3-8H	InChI=1S/C7H7NO/c1-2-4-5(3-9)7-6(4)8-7/h1,3-8H/t4-,5+,6-,7+/m0/s1
