20
gdb 58545	2.29833	1.39487	1.16127	3.7408	75.43	-0.2349	-0.0207	0.2142	1170.4123	0.168153	-440.277887	-440.267807	-440.266863	-440.31281	37.028	
C	 0.0557915031	 1.4778275031	-0.2509350841	-0.429666
C	-0.0214475462	-0.01371317	 0.0727548095	 0.129519
O	 0.7042331598	-0.3515561999	 1.2453479275	-0.427775
C	-1.4790033863	-0.5355619758	 0.144501873	 0.17114
C	-2.2651079075	-0.0005505889	 1.3413785777	-0.474524
N	-2.158627826	-0.4080390192	-1.1882361521	-0.356669
C	-2.4131947922	-1.8703790966	-1.2995779493	-0.289093
C	-1.6023865922	-2.0703588361	-0.0093020453	 0.354117
O	-1.2426199481	-3.0154617593	 0.6238215049	-0.285526
H	 1.1004404485	 1.7758193562	-0.3751867219	 0.127167
H	-0.4864444814	 1.6961744597	-1.1742533536	 0.13793
H	-0.3749854115	 2.0866671398	 0.5535768146	 0.10477
H	 0.4719024683	-0.5649500585	-0.735888676	 0.092127
H	 0.4976671085	 0.2985852846	 1.9246854685	 0.280651
H	-2.3800537661	 1.0875783706	 1.2880026967	 0.123568
H	-3.2659990988	-0.4419870626	 1.3828397619	 0.122251
H	-1.7556246054	-0.2540050999	 2.2750600892	 0.139982
H	-3.0092166216	 0.1419825056	-1.1468793317	 0.220063
H	-3.4591896164	-2.1874095446	-1.1952823634	 0.125013
H	-2.0005324387	-2.3324100382	-2.2031665359	 0.134955
60.509	86.8186	135.0122	200.4179	226.7193	253.1274	267.1157	286.5088	299.6873	372.4516	393.1183	483.2961	528.4328	557.3089	670.3909	706.9756	776.5753	863.1528	903.5586	930.8997	957.5211	1008.0519	1026.0514	1051.5337	1072.7049	1095.6398	1129.1947	1159.7321	1207.4585	1213.006	1283.345	1298.9362	1359.4125	1380.8913	1394.7998	1396.6692	1408.9305	1473.255	1486.7627	1495.1926	1500.3862	1502.9669	1910.7287	3019.6544	3027.9955	3034.3257	3045.4526	3069.5254	3096.9965	3103.4435	3116.9124	3131.1158	3537.4508	3812.4258
CC(O)C1(C)NCC1=O	C[C@@H](O)[C@@]1(C)NCC1=O	
InChI=1S/C6H11NO2/c1-4(8)6(2)5(9)3-7-6/h4,7-8H,3H2,1-2H3	InChI=1S/C6H11NO2/c1-4(8)6(2)5(9)3-7-6/h4,7-8H,3H2,1-2H3/t4-,6-/m1/s1
