16
gdb 10426	2.66421	1.89847	1.37107	2.1296	66.29	-0.2552	0.0296	0.2848	929.7707	0.128943	-383.673455	-383.665218	-383.664274	-383.706189	30.009	
O	 0.1011606866	 1.3184414237	-0.2574120445	-0.419486
C	-0.0193257537	-0.0554698918	 0.0357898623	-0.112189
C	-1.487693793	-0.5180524667	 0.0752873656	 0.064918
C	-2.1266501541	-0.5704342537	-1.3417704582	-0.107028
O	-1.9494388963	-1.999729612	-1.4038451903	-0.27018
C	-1.6260192893	-2.0647282728	-0.0041572187	-0.117266
C	-2.2156701182	 0.1860307816	 1.1134272596	 0.248092
C	-2.7835648513	 0.8056104881	 1.9748941174	-0.447916
H	-0.3761843248	 1.8002660599	 0.4288239318	 0.289103
H	 0.4953546808	-0.5923118892	-0.7674667396	 0.121796
H	 0.4661828746	-0.3188594267	 0.9883872679	 0.096854
H	-3.18516258	-0.2855462957	-1.3655902559	 0.107638
H	-1.5787135666	-0.0393796158	-2.1262131644	 0.12495
H	-0.7124605972	-2.6398658704	 0.188681471	 0.109758
H	-2.4490893826	-2.469597083	 0.5970863621	 0.108675
H	-3.3070151151	 1.3327054144	 2.7343207239	 0.202282
94.8656	111.7483	160.8775	175.0618	248.0076	349.6525	394.7568	440.6188	522.7001	533.6226	633.1431	649.3144	660.7041	834.2053	900.7747	926.3108	976.2776	997.1283	1034.1299	1068.2665	1102.7896	1151.1485	1154.6382	1162.5042	1224.2613	1295.3718	1300.9681	1365.4519	1381.002	1425.1173	1502.9223	1511.2986	1534.9258	2226.7273	2984.9245	3014.3569	3029.1217	3065.3828	3082.0918	3089.4228	3497.9611	3785.0497
OCC1(COC1)C#C	OCC1(COC1)C#C	
InChI=1S/C6H8O2/c1-2-6(3-7)4-8-5-6/h1,7H,3-5H2	InChI=1S/C6H8O2/c1-2-6(3-7)4-8-5-6/h1,7H,3-5H2
