17
gdb 110093	1.8044	1.33301	1.00476	4.9088	72.5	-0.2444	-0.0317	0.2127	1245.0319	0.133219	-458.954357	-458.94473	-458.943786	-458.98997	33.242	
O	 0.7852337918	-0.2596523537	-0.5151683655	-0.405173
C	-0.2590687094	 0.2233488688	 0.3128200767	-0.118851
C	-1.4999453538	-0.6321329087	 0.1927971676	-0.04203
C	-2.033598309	-1.2433888574	-1.0832271066	-0.14106
C	-1.3412461373	-1.1806821573	-2.4022843503	 0.145433
O	-1.9586555885	-1.0552565065	-3.433536293	-0.268685
C	-1.5279612583	-2.1397929846	 0.0790092024	-0.141109
C	-0.3151438886	-2.9983888209	-0.0442425492	 0.145423
O	-0.2508601219	-4.0800356407	 0.4908146456	-0.268668
H	 1.551835595	 0.3111736238	-0.4084646079	 0.300543
H	 0.0497794085	 0.2313806583	 1.3698638175	 0.110893
H	-0.5285448435	 1.2563575398	 0.0425335885	 0.110887
H	-2.2846065871	-0.2406300749	 0.8361024357	 0.118198
H	-3.1122348704	-1.228682464	-1.20472425	 0.120199
H	-0.2397658075	-1.2434687354	-2.3929331815	 0.106901
H	-2.3128771273	-2.6457442843	 0.6324828356	 0.120197
H	 0.5242910374	-2.5967404722	-0.6369456856	 0.106903
47.3901	61.1492	108.844	186.4757	204.6949	232.1154	233.9915	294.2341	360.8495	394.222	445.9289	530.9526	650.9613	737.6776	869.4331	906.2094	930.1562	970.6763	1040.69	1042.6923	1052.5455	1081.7116	1145.4745	1153.0416	1169.9613	1231.1664	1254.3113	1277.5718	1331.1323	1342.4711	1424.6035	1429.0887	1458.4801	1479.4346	1518.8586	1798.4518	1806.0326	2975.0356	2984.2033	3001.0883	3003.7734	3138.6239	3162.4756	3172.6442	3834.9486
OCC1C(C=O)C1C=O	OC[C@H]1[C@@H](C=O)[C@H]1C=O	
InChI=1S/C6H8O3/c7-1-4-5(2-8)6(4)3-9/h1-2,4-6,9H,3H2	InChI=1S/C6H8O3/c7-1-4-5(2-8)6(4)3-9/h1-2,4-6,9H,3H2/t4-,5+,6-
