22
gdb 87856	2.98222	1.33877	1.20952	1.6304	85.16	-0.225	0.0888	0.3138	1153.2796	0.195713	-367.186865	-367.178572	-367.177627	-367.219426	33.269	
C	-0.2686008789	 1.4567461666	 0.5824321998	-0.414218
C	-0.1008357006	-0.0334051418	 0.3860537042	-0.024497
C	 1.0659279795	-0.5827932057	-0.4000371985	-0.37607
C	 0.9774025384	-0.8442527001	 1.0794239228	 0.330808
C	 1.9469860617	-0.2440733984	 2.097663472	-0.308591
C	 1.6136194577	-0.9924760591	 3.3803139871	-0.007418
C	 0.1800382332	-1.1275722158	 3.7456370841	-0.250948
N	 0.8742942138	-2.2362547884	 3.0726416587	-0.09903
C	 0.6730175552	-2.2498524722	 1.6118794068	-0.226322
H	 0.6962696414	 1.9701390699	 0.6375909511	 0.117529
H	-0.8225249094	 1.8962967276	-0.2543198262	 0.11903
H	-0.8200210071	 1.6864597697	 1.5019309534	 0.116185
H	-1.0410493696	-0.5650989573	 0.2500752694	 0.080288
H	 0.8987366141	-1.413028736	-1.0800147646	 0.107836
H	 1.8134931346	 0.1257676624	-0.746184901	 0.107089
H	 2.9867730301	-0.4494681267	 1.8141878357	 0.104172
H	 1.8480309702	 0.8399300706	 2.2046509477	 0.105503
H	 2.3761605584	-1.0628355488	 4.1509582662	 0.086038
H	-0.0999556169	-1.3323952107	 4.7748876268	 0.111331
H	-0.5506180236	-0.5504534197	 3.1838009848	 0.116004
H	-0.339020397	-2.5905414713	 1.3668270612	 0.10168
H	 1.3790525547	-2.9801309947	 1.1966036184	 0.103601
93.34	152.3459	198.7404	227.0355	305.7659	352.043	395.1319	413.271	461.2279	528.2383	661.5383	751.1481	756.2372	805.3797	837.6699	877.7425	883.8004	908.833	919.3806	963.3923	994.2846	1017.2321	1052.1529	1052.6754	1087.1562	1096.3857	1108.4785	1121.7579	1131.9817	1167.4393	1186.8784	1200.9106	1226.5435	1251.0323	1265.689	1304.1744	1324.5215	1346.1005	1393.9487	1406.493	1426.796	1485.1094	1487.8026	1493.7767	1497.671	1501.8734	1506.1113	3020.958	3024.5258	3030.3806	3068.1389	3083.739	3085.2588	3096.6331	3107.0406	3112.1959	3120.6037	3145.3652	3191.4071	3194.4194
CC1CC11CC2CN2C1	C[C@H]1C[C@]21C[C@H]1CN1C2	
InChI=1S/C8H13N/c1-6-2-8(6)3-7-4-9(7)5-8/h6-7H,2-5H2,1H3	InChI=1S/C8H13N/c1-6-2-8(6)3-7-4-9(7)5-8/h6-7H,2-5H2,1H3/t6-,7-,8-,9?/m0/s1
