19
gdb 124636	4.29569	0.94237	0.86693	1.568	78.23	-0.2005	0.0218	0.2224	1392.8767	0.160893	-415.421282	-415.41228	-415.411336	-415.455407	33.294	
C	-0.0060229661	 1.5281111143	 0.0299911287	-0.399414
C	-0.0024469521	-0.0009684647	-0.0035724453	 0.071526
C	 0.6522738239	-0.6023185873	 1.2496959687	-0.386016
N	-1.372084106	-0.4695213021	-0.2090477691	-0.382767
C	-1.6304505705	-1.7636387917	-0.5784519208	 0.450128
N	-0.720793072	-2.5741476173	-1.113085016	-0.315227
N	-1.4689954769	-3.6930343851	-1.3611271882	-0.189127
C	-2.7367701485	-3.5048511484	-0.9663378107	 0.023701
N	-2.8886614636	-2.2963978936	-0.4607739011	-0.341068
H	 1.0119601394	 1.9137117063	 0.135959097	 0.1174
H	-0.4430664809	 1.9380272402	-0.8844051149	 0.124113
H	-0.5890433558	 1.8986462309	 0.8825844171	 0.109479
H	 0.5641567029	-0.33414485	-0.8797293095	 0.111504
H	 0.6412102777	-1.693848801	 1.2003348548	 0.133236
H	 1.6932832924	-0.2742827335	 1.3389913757	 0.109843
H	 0.1200298093	-0.2881640733	 2.1553197094	 0.104345
H	-2.0680762837	-0.0967607754	 0.4207521104	 0.239826
H	-1.0368687552	-4.4994492208	-1.7778120697	 0.27678
H	-3.5055445043	-4.2572579674	-1.0618781266	 0.141737
62.6177	78.0331	139.3606	228.6025	258.0535	301.2636	320.5175	390.1289	439.988	452.2739	488.7236	521.9274	658.9828	777.8593	798.9711	850.9317	853.1931	929.7847	948.5154	969.1692	993.4711	1033.4177	1091.1628	1146.5443	1162.5061	1193.598	1204.8535	1274.0426	1314.1758	1355.6378	1383.4744	1395.1688	1416.7807	1456.6978	1480.2706	1485.6222	1487.5034	1501.0753	1509.4739	1564.7919	1611.3362	3026.2362	3030.1668	3055.6165	3092.3868	3102.4002	3121.8288	3124.0804	3254.3718	3604.4773	3681.6029
CC(C)NC1=NNC=N1	CC(C)Nc1n[nH]cn1	
InChI=1S/C5H10N4/c1-4(2)8-5-6-3-7-9-5/h3-4H,1-2H3,(H2,6,7,8,9)	InChI=1S/C5H10N4/c1-4(2)8-5-6-3-7-9-5/h3-4H,1-2H3,(H2,6,7,8,9)
