18
gdb 31975	5.13683	0.88941	0.80082	1.8771	76.49	-0.185	0.0542	0.2392	1457.0483	0.148572	-435.287022	-435.277694	-435.27675	-435.321862	32.998	
C	 0.4763282151	 0.8983860192	-0.6046533096	-0.326009
N	-0.3471446841	 0.1649369652	 0.3659287294	-0.393834
C	 0.3526366484	-0.4855175978	 1.3930448085	 0.287443
C	 0.6583438135	-0.1853344472	 2.6899872805	-0.173399
N	 1.3423239194	-1.2331463156	 3.297275168	-0.366167
C	 1.4532565119	-2.136967479	 2.3632105619	 0.490233
N	 0.8837306635	-1.7602324759	 1.1859319069	-0.372063
O	 2.0473766284	-3.3360510376	 2.4379038243	-0.274426
C	 2.6208802618	-3.6342754116	 3.7110438188	-0.233464
H	 1.1439645612	 0.1995471595	-1.1170784897	 0.126141
H	-0.1758792058	 1.3506838821	-1.3572601575	 0.12006
H	 1.0966780275	 1.6851353289	-0.1494625091	 0.11274
H	-1.052230417	 0.7732874443	 0.7620246569	 0.236417
H	 0.4230004905	 0.7172693818	 3.2333620684	 0.096422
H	 0.768036739	-2.3274694353	 0.3634784069	 0.26584
H	 3.3909882494	-2.9018418595	 3.9705967579	 0.138473
H	 1.85545433	-3.6261759576	 4.4926617102	 0.138792
H	 3.0571765574	-4.6290770741	 3.6141107571	 0.126801
52.9299	79.3504	141.2465	161.2005	166.0261	224.6756	284.4483	365.1472	434.1777	463.3416	516.9501	639.1371	665.2778	720.5875	729.936	765.9655	810.5662	976.4886	1024.1412	1057.1519	1080.5883	1139.2324	1156.5414	1171.5697	1184.1912	1222.9625	1245.4784	1279.7555	1373.4699	1452.9519	1458.4615	1467.9237	1476.4853	1487.4645	1499.3291	1508.9775	1517.9513	1612.7477	1636.0487	2989.1475	3040.9565	3077.592	3110.7892	3114.3704	3149.7412	3245.7137	3563.3036	3672.9167
CNC1=CN=C(N1)OC	CNc1cnc([nH]1)OC	
InChI=1S/C5H9N3O/c1-6-4-3-7-5(8-4)9-2/h3,6H,1-2H3,(H,7,8)	InChI=1S/C5H9N3O/c1-6-4-3-7-5(8-4)9-2/h3,6H,1-2H3,(H,7,8)
