19
gdb 31622	2.38395	1.4494	0.91691	2.1188	80.19	-0.1909	0.0529	0.2439	1295.1126	0.15887	-419.250438	-419.240584	-419.23964	-419.285959	34.182	
C	 0.0294811859	 1.3456740574	 0.043227958	-0.233069
O	 0.0367428793	-0.0807063147	-0.0155519037	-0.275931
C	 0.6425005291	-0.5936598561	-1.0967464566	 0.47812
N	 1.2119485254	 0.0590827607	-2.0760869901	-0.431416
C	 1.68155966	-0.9293029774	-2.9334382568	 0.271333
C	 2.4042916455	-0.5810671945	-4.1922180495	-0.484799
C	 1.3758983669	-2.1632721905	-2.4366282007	-0.216511
N	 0.6980085588	-1.9457887721	-1.2384500578	-0.08567
C	 0.1657517673	-2.9432376168	-0.3349399574	-0.349429
H	 1.0505353748	 1.7378311585	 0.0569638103	 0.139374
H	-0.4932431935	 1.7661366701	-0.820781508	 0.139341
H	-0.4909359915	 1.6022169183	 0.9667816273	 0.126474
H	 3.3087001006	 0.0009349309	-3.9818524795	 0.127827
H	 2.6978273445	-1.4823805193	-4.7375327674	 0.113715
H	 1.7781709174	 0.0293758538	-4.8527277255	 0.127831
H	 1.5640923071	-3.1603326726	-2.7995903008	 0.117709
H	 0.9620623565	-3.592251746	 0.0442675183	 0.137063
H	-0.3037652502	-2.4338107975	 0.5064327169	 0.160975
H	-0.5844480237	-3.5641274124	-0.835759937	 0.137062
45.1097	90.2943	131.3712	147.62	163.1904	193.3686	232.1411	260.5157	353.4986	365.3344	551.9504	613.7173	638.8282	648.7984	679.8546	730.7958	852.8848	996.9539	1022.3291	1063.4576	1064.0507	1076.9178	1154.4964	1184.4842	1190.5244	1219.3065	1253.8376	1329.1449	1363.6371	1418.8299	1448.059	1458.4415	1474.979	1476.8129	1489.489	1491.7778	1500.6498	1510.049	1551.4659	1598.9628	1624.0907	3028.8866	3034.9994	3042.2215	3080.2165	3089.4215	3112.5906	3113.1973	3149.2582	3157.1017	3266.0909
COC1=NC(C)=CN1C	COc1nc(C)cn1C	
InChI=1S/C6H10N2O/c1-5-4-8(2)6(7-5)9-3/h4H,1-3H3	InChI=1S/C6H10N2O/c1-5-4-8(2)6(7-5)9-3/h4H,1-3H3
