17
gdb 117740	2.34565	1.1514	0.99933	2.2227	72.31	-0.2458	-0.0362	0.2097	1275.6827	0.130786	-458.912095	-458.901711	-458.900767	-458.948016	36.136	
C	 0.1578599253	 1.4307882214	 0.1388708137	-0.233005
O	 0.2152686215	 0.0207116755	 0.0911941829	-0.265163
C	 0.5994239521	-0.4870606802	-1.1704915676	-0.102895
C	 0.6279298956	-2.0154576058	-1.0118140182	 0.075728
O	 1.3122652247	-2.3873644734	 0.1735006129	-0.456883
C	-0.8200378838	-2.5744227911	-0.9265431393	 0.127432
O	-1.7900328777	-2.0355701584	-1.3814289695	-0.239835
C	 1.2590232813	-2.6518148821	-2.1651819274	 0.318703
C	 1.7231664777	-3.1856659227	-3.1363261197	-0.442842
H	 1.1343194607	 1.8816838219	-0.0927510262	 0.114061
H	-0.5863885845	 1.8239947611	-0.5678413258	 0.122517
H	-0.1327083594	 1.7089996712	 1.1540993886	 0.1359
H	-0.125160403	-0.215099813	-1.9483534685	 0.128476
H	 1.5967197482	-0.1219621974	-1.4541445391	 0.107938
H	 1.1101509074	-1.6833976666	 0.8072021234	 0.298329
H	-0.8582896582	-3.5394627814	-0.3783075375	 0.103948
H	 2.1476955221	-3.6566555891	-3.9888275926	 0.20759
57.1004	80.2451	108.8588	122.158	168.2258	209.3021	234.4533	271.2539	363.2483	370.8681	452.2894	462.0431	480.0973	546.8459	621.3603	640.0305	676.2716	814.2885	928.9137	957.734	989.3966	1105.6004	1133.2051	1145.0767	1171.0006	1187.5287	1228.526	1272.8709	1375.8727	1384.1837	1425.6672	1475.238	1485.8057	1495.0031	1517.2563	1838.9517	2236.8251	2918.3913	2987.1534	3005.0122	3042.299	3061.1246	3125.3725	3499.5187	3735.9676
COCC(O)(C=O)C#C	COC[C@@](O)(C=O)C#C	
InChI=1S/C6H8O3/c1-3-6(8,4-7)5-9-2/h1,4,8H,5H2,2H3	InChI=1S/C6H8O3/c1-3-6(8,4-7)5-9-2/h1,4,8H,5H2,2H3/t6-/m0/s1
