23
gdb 95588	2.38411	1.41603	1.04831	0.3836	92.27	-0.2286	0.0157	0.2443	1257.4593	0.20767	-351.160895	-351.151929	-351.150984	-351.19452	35.242	
C	-0.5538167839	 1.3949165081	 0.0514129067	-0.389668
C	-0.031410592	-0.056656794	 0.0632114782	-0.010053
C	 0.5015600719	-0.4537467903	-1.3281080852	-0.204813
C	 1.0452947981	-1.8924295858	-1.4578015629	-0.254953
C	 2.5219934845	-2.1325074544	-1.2566428801	-0.01731
C	 3.4335186509	-1.408295455	-0.6072779369	-0.064235
C	 3.2050167831	-0.1242877175	 0.1732390311	-0.315312
C	 2.2174678607	-0.28291709	 1.3107092887	-0.053906
C	 0.8867527883	-0.2676669412	 1.2471157355	-0.044324
H	 0.2632705715	 2.0985058947	-0.1412754836	 0.117136
H	-1.3139322496	 1.5342342497	-0.7251097864	 0.108262
H	-1.0009020036	 1.6629176831	 1.013874201	 0.111888
H	-0.9032521856	-0.7029483782	 0.2467123082	 0.076111
H	-0.3441124484	-0.3518474348	-2.0190985995	 0.089823
H	 1.2478987386	 0.2624176862	-1.6842600483	 0.101339
H	 0.4812736276	-2.5559171137	-0.7840034663	 0.10871
H	 0.8060538531	-2.2556110638	-2.4656869698	 0.100598
H	 2.8759159604	-3.0484285678	-1.7288369084	 0.079759
H	 4.4554343084	-1.7807495096	-0.6051229395	 0.082629
H	 4.162561348	 0.202220556	 0.5897515809	 0.097755
H	 2.8889509145	 0.6811596293	-0.496562187	 0.117756
H	 2.6670087637	-0.4622552474	 2.2853947026	 0.084575
H	 0.3514898198	-0.3983843737	 2.1874597712	 0.078234
48.0304	143.2543	211.3971	244.9705	265.6671	294.6676	311.0612	343.1724	391.6408	496.7898	570.3682	632.357	673.0874	728.5376	746.3116	784.0581	829.6341	885.9714	915.31	943.9113	974.0987	991.8675	1006.2706	1010.5948	1026.5617	1071.6354	1079.5684	1111.6243	1163.7424	1183.4336	1237.0735	1269.4838	1281.8086	1297.478	1317.626	1336.5539	1365.1677	1386.7423	1396.19	1401.7455	1419.3949	1431.1162	1469.6422	1482.359	1494.1541	1498.8465	1517.0412	1726.4831	1733.772	2979.9366	2992.5523	3021.104	3027.0077	3039.5136	3050.3534	3074.8187	3088.473	3097.482	3101.8177	3117.0715	3122.0036	3148.0551	3154.1996
CC1CCC=CCC=C1	C[C@H]1CCC=CCC=C1	
InChI=1S/C9H14/c1-9-7-5-3-2-4-6-8-9/h2-3,6,8-9H,4-5,7H2,1H3/b3-2-,8-6-	InChI=1S/C9H14/c1-9-7-5-3-2-4-6-8-9/h2-3,6,8-9H,4-5,7H2,1H3/b3-2-,8-6-/t9-/m0/s1
