16
gdb 14282	3.6706	1.79857	1.72975	4.1407	63.66	-0.2691	0.0108	0.2799	831.6387	0.13133	-383.774176	-383.76717	-383.766226	-383.805492	26.493	
C	-0.3341892167	 1.4608351478	 0.0988922128	-0.423563
C	-0.0226852898	-0.0136528261	-0.0282603548	-0.044791
C	 0.7206794403	-0.6346443112	-1.2056647783	-0.100818
C	 1.5908108266	 0.2547565825	-2.0654738472	-0.378536
C	 2.6407278291	 0.826051027	-1.1054866408	 0.422022
O	 3.5038679133	 1.6184175517	-1.3364244637	-0.328344
O	 2.445913063	 0.3043216715	 0.1461633673	-0.212404
C	 1.3520309804	-0.5918175327	 0.164892955	 0.072587
H	 0.4977951839	 2.0974054333	-0.2108026924	 0.140785
H	-1.2037771079	 1.7271154262	-0.5108655155	 0.124467
H	-0.563718165	 1.7137071665	 1.1388521371	 0.130384
H	-0.8066604808	-0.6624044763	 0.3559062819	 0.097249
H	 0.3505557356	-1.5632182266	-1.6219552289	 0.101013
H	 2.1040018896	-0.3073513144	-2.8516278647	 0.14369
H	 1.0719941498	 1.0860441587	-2.5516585865	 0.143968
H	 1.5436261087	-1.4552413878	 0.7894095387	 0.11229
100.2888	147.0087	196.1347	258.7575	431.1941	487.2621	555.4789	568.8531	684.8702	711.1207	765.2129	789.9524	832.248	901.7575	956.287	991.0603	1020.4882	1053.2099	1085.3986	1093.6031	1137.9152	1146.9584	1164.644	1195.091	1223.2568	1290.1721	1348.4295	1361.4861	1425.6167	1433.2693	1462.4943	1491.5704	1504.4558	1887.145	3041.3513	3063.7397	3100.9644	3101.2521	3119.5359	3139.0452	3183.7806	3194.8729
CC1C2CC(=O)OC12	C[C@H]1[C@H]2CC(=O)O[C@@H]12	
InChI=1S/C6H8O2/c1-3-4-2-5(7)8-6(3)4/h3-4,6H,2H2,1H3	InChI=1S/C6H8O2/c1-3-4-2-5(7)8-6(3)4/h3-4,6H,2H2,1H3/t3-,4+,6-/m0/s1
