19
gdb 43851	2.75816	1.4544	1.09817	3.609	82.02	-0.2325	-0.0467	0.1858	1134.4309	0.160496	-385.918245	-385.910445	-385.909501	-385.950534	30.977	
O	 0.0094955049	-0.0442848067	 0.1409220746	-0.332937
C	-0.0030164495	 1.1629399599	 0.0084754688	 0.37844
C	-1.3041427897	 1.9616209679	-0.0453944192	-0.39972
C	-1.1766007823	 3.1989708295	-0.9160641463	 0.363334
C	-1.4971925517	 3.0654321564	-2.3867654182	-0.296229
C	-2.4188157109	 3.8398964978	-1.4722046433	-0.328724
C	-0.0068498041	 4.08089859	-0.5123085829	-0.339184
C	 1.2427311737	 3.2790084077	-0.2696467015	-0.04232
C	 1.2435689812	 1.9569875937	-0.0563567492	-0.143721
H	-2.1036433469	 1.2970986888	-0.3834172259	 0.119439
H	-1.5454402813	 2.2526806476	 0.9886864221	 0.119758
H	-0.8969581496	 3.6227389382	-3.0983136805	 0.11154
H	-1.8319372357	 2.099660629	-2.7502647035	 0.119813
H	-3.3782920339	 3.4007891334	-1.2195378031	 0.114976
H	-2.4375814498	 4.9212035161	-1.5654675557	 0.111029
H	 0.184683806	 4.8434551716	-1.2769499983	 0.111307
H	-0.2475702884	 4.6423391244	 0.4054677483	 0.120571
H	 2.1839968115	 3.8249418974	-0.2663838014	 0.107242
H	 2.1632475466	 1.4011450573	 0.0977092451	 0.105386
91.4089	121.8432	264.8894	300.8049	348.709	352.3061	452.1451	475.1391	481.8192	583.2226	658.8222	750.7563	775.4572	794.2961	842.6433	899.4011	915.806	953.4328	980.6013	982.7163	992.3316	1022.4815	1038.7596	1059.2569	1084.9114	1131.8439	1181.9885	1188.1789	1204.748	1253.4585	1296.7136	1319.005	1338.0244	1402.1416	1405.7828	1455.3608	1464.1323	1476.0492	1508.7022	1682.3102	1780.015	2979.4598	2998.8791	3046.7802	3095.9151	3125.0556	3131.5664	3148.6473	3188.0805	3203.8608	3219.0342
O=C1CC2(CC2)CC=C1	O=C1CC2(CC2)CC=C1	
InChI=1S/C8H10O/c9-7-2-1-3-8(6-7)4-5-8/h1-2H,3-6H2	InChI=1S/C8H10O/c9-7-2-1-3-8(6-7)4-5-8/h1-2H,3-6H2
