19
gdb 114934	4.21244	0.86843	0.80163	1.1691	87.3	-0.2229	-0.0133	0.2097	1449.4752	0.158609	-385.871838	-385.862699	-385.861755	-385.905945	34.26	
O	 0.2668589798	 1.0379485313	-0.5166458364	-0.421317
C	-0.0306559446	-0.3028827537	-0.1559086811	-0.079823
C	-1.5199977428	-0.3948103778	 0.1727085863	 0.009045
C	-2.3909470574	-0.0554471595	-1.0691186268	-0.25846
C	-2.8398094843	-1.3997353317	-1.5715007167	-0.172322
C	-2.5830297675	-2.3861292566	-0.6989850731	 0.213536
C	-1.9035562268	-1.8495642005	 0.5531209007	-0.348781
C	-2.9086792486	-3.7557146696	-0.8460470958	 0.194008
C	-3.1618197186	-4.9318175202	-0.9231989131	-0.417656
H	 1.1823538922	 1.0764394046	-0.8073862199	 0.287409
H	 0.2050156366	-0.999834341	-0.9770790996	 0.090379
H	 0.5560784572	-0.6156858246	 0.7223760668	 0.086872
H	-1.7192781271	 0.2989978978	 0.9938673175	 0.078517
H	-3.2571672682	 0.5658871679	-0.8019928404	 0.10907
H	-1.824762623	 0.5198394765	-1.8091346608	 0.121445
H	-3.3407936001	-1.5419197918	-2.5220834932	 0.097064
H	-1.0330037298	-2.4528716283	 0.8367656919	 0.107476
H	-2.5932794956	-1.8862133732	 1.4051991383	 0.114504
H	-3.3954018015	-5.9640293099	-1.0064708447	 0.189035
56.3071	120.1985	158.6962	166.6703	245.1391	256.1341	349.1688	360.5334	439.5641	535.2187	541.4837	569.2423	590.1905	633.316	735.5536	810.3828	854.3615	882.4711	904.8338	938.351	983.1277	1019.2785	1067.0374	1075.5559	1099.8073	1159.0109	1177.3943	1190.8633	1241.6092	1273.2088	1282.8417	1285.3459	1324.8943	1338.4868	1369.5502	1454.9438	1485.4054	1493.8071	1519.0722	1674.1139	2220.2462	2962.4155	2993.485	3010.6904	3027.2815	3057.2845	3069.7401	3076.0092	3202.1018	3504.3572	3834.47
OCC1CC=C(C1)C#C	OC[C@H]1CC=C(C1)C#C	
InChI=1S/C8H10O/c1-2-7-3-4-8(5-7)6-9/h1,3,8-9H,4-6H2	InChI=1S/C8H10O/c1-2-7-3-4-8(5-7)6-9/h1,3,8-9H,4-6H2/t8-/m0/s1
