17
gdb 89976	3.46313	1.20262	1.05666	3.1355	69.13	-0.2367	-0.0401	0.1966	1157.1151	0.134351	-458.937672	-458.929019	-458.928075	-458.971533	31.219	
O	 0.927086732	 0.5174365267	 0.756822737	-0.438498
C	 0.104138291	-0.3284787463	 0.0122387343	 0.07024
C	-1.4505556652	-0.130130431	 0.0004300484	-0.357283
C	-1.4746399307	-0.4009640863	-1.5311815456	 0.355537
C	-1.9484210591	-1.7512611104	-2.1214338048	-0.350643
C	-2.7695617944	-0.8617023521	-3.0764766272	-0.074165
O	-2.3418230693	 0.3354022782	-2.3844537104	-0.303075
C	 0.0290359951	-0.0584947959	-1.4981670261	 0.27449
O	 0.768723998	 0.5510823903	-2.2185345167	-0.308407
H	 1.3261278855	 1.1414755824	 0.1367003727	 0.296766
H	 0.3483646069	-1.375912958	 0.2330717922	 0.106373
H	-2.0408031872	-0.7984188023	 0.6286598516	 0.113625
H	-1.7098915655	 0.9118341453	 0.2045857401	 0.134983
H	-1.1800508565	-2.3742290386	-2.5812071832	 0.125963
H	-2.540619722	-2.3519230149	-1.4288635956	 0.122109
H	-2.4346803406	-0.8647694502	-4.1193891208	 0.118722
H	-3.857233438	-0.982460827	-3.0435342459	 0.113265
75.5333	83.0987	148.1205	166.8584	243.5073	274.6672	302.7753	375.0251	470.5269	558.6512	712.8921	730.0075	778.0173	819.2996	863.4688	892.3087	929.0991	962.4335	983.0415	1023.9449	1038.4089	1111.5675	1143.4994	1152.9208	1176.0115	1187.7693	1213.6793	1226.2568	1257.037	1275.6811	1344.6299	1355.3047	1405.4088	1467.0635	1485.8236	1529.1997	1869.9725	3022.9292	3035.5107	3074.4264	3079.2098	3082.4154	3137.9719	3141.7877	3765.6165
OC1CC2(CCO2)C1=O	O[C@H]1C[C@]2(CCO2)C1=O	
InChI=1S/C6H8O3/c7-4-3-6(5(4)8)1-2-9-6/h4,7H,1-3H2	InChI=1S/C6H8O3/c7-4-3-6(5(4)8)1-2-9-6/h4,7H,1-3H2/t4-,6+/m0/s1
