14
gdb 64646	2.32285	1.63307	1.40253	2.9485	69.35	-0.2337	-0.0303	0.2034	975.5788	0.099456	-436.677742	-436.669444	-436.6685	-436.710471	31.226	
O	 0.2621707261	 1.4394366818	 0.1454528439	-0.442366
C	 0.1993999822	 0.0238774181	 0.0840396421	 0.087692
C	 0.6751947799	-0.6150033817	 1.3706393394	-0.168795
C	-0.3244420902	-1.3303822848	 1.8890023167	-0.020332
N	-1.4930968317	-1.2534307199	 1.1073176205	-0.334225
C	-1.3119818859	-0.3990744137	 0.0460450063	 0.375803
O	-2.1398696339	 0.0131447552	-0.7280247912	-0.366298
C	 0.9002951457	-0.5136799751	-1.0857779203	 0.329158
C	 1.4681933755	-0.9475429887	-2.052316579	-0.494206
H	-0.3123318505	 1.7628167076	-0.5631467309	 0.294004
H	 1.683567549	-0.5377127638	 1.7437091126	 0.126098
H	-0.3317278345	-1.9414745966	 2.7802377791	 0.141061
H	-2.4050199786	-1.567511417	 1.3975300794	 0.268618
H	 1.970511717	-1.3266172816	-2.9080662087	 0.203788
86.7241	128.8182	184.7683	229.7956	288.1546	371.4296	401.3992	459.3113	488.3556	566.3489	586.8851	630.9556	640.8768	667.8029	709.5701	728.3139	784.0047	799.9369	917.9732	1022.5958	1061.3298	1096.3571	1100.4395	1161.0151	1215.1338	1366.4601	1389.1876	1408.8235	1672.9499	1848.2615	2228.3533	3239.9216	3272.5647	3499.6081	3651.5054	3750.325
OC1(C=CNC1=O)C#C	O[C@]1(C=CNC1=O)C#C	
InChI=1S/C6H5NO2/c1-2-6(9)3-4-7-5(6)8/h1,3-4,9H,(H,7,8)	InChI=1S/C6H5NO2/c1-2-6(9)3-4-7-5(6)8/h1,3-4,9H,(H,7,8)/t6-/m0/s1
