21
gdb 109229	2.79867	1.1877	1.06032	1.4558	84.25	-0.2147	0.0319	0.2466	1252.9024	0.182608	-387.086516	-387.077439	-387.076494	-387.120297	34.447	
C	-0.115470453	 1.5529542142	 0.0022100858	-0.417548
C	 0.0499010834	 0.0520372913	 0.0722757817	 0.003494
C	 1.3527405677	-0.6707908383	-0.1732432546	-0.067634
C	 2.6731380054	 0.0970804132	-0.0677859416	-0.275562
C	 2.7223070831	 0.5410515425	 1.3783712705	-0.173135
C	 1.6744346514	 0.0934714628	 2.0775342862	 0.32812
C	 1.3896635303	 0.3256191132	 3.5258568347	-0.185924
O	 2.4480314676	 1.0584462257	 4.1158213959	-0.414369
C	 0.7318704206	-0.6863747416	 1.2195164642	-0.171334
H	 0.711994968	 2.0786368123	 0.484326257	 0.127865
H	-0.1670756994	 1.8897106999	-1.039595817	 0.112799
H	-1.0426709469	 1.8657643263	 0.4954991462	 0.110111
H	-0.8089967759	-0.4898941837	-0.3191292303	 0.079667
H	 1.3244217824	-1.5556757562	-0.7989110332	 0.079067
H	 3.5263047772	-0.5464456851	-0.3211342521	 0.104049
H	 2.7204679525	 0.948427023	-0.7609737043	 0.105319
H	 3.5049025137	 1.1709770543	 1.7816679309	 0.103739
H	 0.4269670862	 0.8586832639	 3.6243356146	 0.097036
H	 1.2490106218	-0.6501295239	 4.0256927428	 0.092024
H	 2.2330104411	 1.1998058537	 5.0418182979	 0.288539
H	 0.2408256228	-1.5644945575	 1.629303655	 0.073678
72.325	130.0029	181.3121	198.2753	215.1702	233.3729	260.4245	378.2792	406.6073	487.5043	607.0106	646.7293	713.5438	748.2288	792.2283	826.2256	862.1466	931.5842	940.4303	978.3393	988.3982	1015.3191	1045.3776	1064.3783	1079.9511	1089.4904	1117.7645	1135.6447	1172.704	1186.1342	1211.7934	1227.0496	1248.0832	1277.4264	1313.1245	1357.0018	1372.5611	1410.6077	1427.6128	1467.3701	1478.4756	1498.3633	1501.5675	1507.4364	1708.8859	2935.4149	2947.6276	3008.7945	3028.8641	3030.7821	3082.6035	3111.5594	3126.7045	3143.549	3169.3957	3218.4635	3839.474
CC1C2CC=C(CO)C12	C[C@H]1[C@H]2CC=C(CO)[C@@H]12	
InChI=1S/C8H12O/c1-5-7-3-2-6(4-9)8(5)7/h2,5,7-9H,3-4H2,1H3	InChI=1S/C8H12O/c1-5-7-3-2-6(4-9)8(5)7/h2,5,7-9H,3-4H2,1H3/t5-,7+,8+/m0/s1
