20
gdb 119181	3.38336	0.93542	0.81205	2.9645	74.64	-0.2441	0.0742	0.3183	1443.9453	0.170117	-440.224051	-440.214524	-440.21358	-440.259124	34.59	
O	-0.2482426079	 1.4885339148	 0.1049505706	-0.420354
C	-0.0102057218	 0.0914783201	 0.0167392696	-0.097575
C	-1.3717489146	-0.5823907691	-0.106610336	-0.242249
C	-1.3706545975	-2.0994605461	-0.0347692212	 0.344036
C	-0.1997410242	-2.9121145482	-0.4048685997	-0.220887
O	-0.5312856194	-2.6873567258	 0.9728408343	-0.27127
C	-2.7442262841	-2.7124509396	-0.1193231524	-0.046234
C	-3.0211034351	-4.0490828963	 0.4522747653	-0.248623
N	-3.5529540208	-2.8382539636	 1.1077778032	-0.326059
H	 0.5977399374	 1.9294868992	 0.2245706349	 0.287011
H	 0.6146039047	-0.1437377821	-0.8592777125	 0.083851
H	 0.5060401235	-0.2907852502	 0.9087018543	 0.108331
H	-2.0110898687	-0.1993669491	 0.6981299952	 0.127317
H	-1.8461768935	-0.2733567365	-1.0457614962	 0.115088
H	-0.3533898372	-3.9306565121	-0.7568019907	 0.115671
H	 0.7219046528	-2.4404657009	-0.7388289138	 0.117783
H	-3.3202458088	-2.3835594776	-0.9823933662	 0.092368
H	-3.7686907698	-4.6881232234	-0.0086314852	 0.115914
H	-2.1986648854	-4.5657066048	 0.9371988191	 0.125687
H	-2.9576004397	-2.6267848787	 1.9074294376	 0.240195
65.4697	75.3739	104.6802	146.8651	236.0425	255.3909	262.5739	344.9277	359.998	392.2645	499.0478	606.3529	712.2176	782.1448	825.7584	856.4371	882.0838	919.076	954.4331	985.4445	1012.8907	1037.8014	1074.8629	1105.7856	1115.587	1139.0281	1145.7431	1171.8037	1174.8627	1204.2744	1243.0686	1254.3145	1275.4431	1305.3983	1316.79	1361.0092	1391.7281	1426.8996	1464.7235	1484.335	1498.2502	1525.3266	1539.4359	2972.7425	3019.2605	3035.9291	3075.2384	3093.1014	3115.9588	3125.0224	3180.554	3206.9932	3479.0648	3832.7733
OCCC1(CO1)C1CN1	OCC[C@]1(CO1)[C@H]1CN1	
InChI=1S/C6H11NO2/c8-2-1-6(4-9-6)5-3-7-5/h5,7-8H,1-4H2	InChI=1S/C6H11NO2/c8-2-1-6(4-9-6)5-3-7-5/h5,7-8H,1-4H2/t5-,6+/m1/s1
