20
gdb 99706	1.93672	1.21717	0.89646	1.6746	83.78	-0.2382	0.0479	0.2861	1405.9944	0.168826	-403.082417	-403.071926	-403.070982	-403.12013	36.487	
C	 0.9586526016	 0.997069458	 0.4955660908	-0.499301
C	 0.4718841413	-0.3696880284	 0.3695054055	 0.011191
C	 0.0513102054	-1.49494232	 0.2709453501	 0.1238
C	-0.4510357808	-2.8682963611	 0.1514170482	-0.138866
C	-1.9049699832	-2.9152115085	-0.3645717312	-0.062775
O	-2.0275771761	-2.494265659	-1.7065794793	-0.417671
N	 0.3491479142	-3.775322896	-0.6963530021	-0.098315
C	 1.1293655803	-3.2105910637	-1.800350725	-0.230028
C	 1.8025976373	-3.7304839189	-0.5808913571	-0.225637
H	 2.0513124573	 1.0385165694	 0.4287527244	 0.14844
H	 0.5523750279	 1.6390538771	-0.2935833356	 0.152602
H	 0.6704588635	 1.431665461	 1.4590828167	 0.150447
H	-0.4581468932	-3.3230980512	 1.1519981481	 0.105402
H	-2.2723166399	-3.9428623329	-0.2296811632	 0.093403
H	-2.525436088	-2.2425523199	 0.2345074146	 0.111962
H	-1.5614701786	-3.1426883075	-2.2443074999	 0.294026
H	 1.1235516651	-3.7951298747	-2.7165533217	 0.110613
H	 1.1184113928	-2.1324655283	-1.9329556844	 0.133903
H	 2.2342197666	-2.9881474344	 0.0868358707	 0.121727
H	 2.2999450065	-4.696177891	-0.5867997998	 0.115077
14.1475	72.3186	81.1428	92.5116	130.0972	231.1728	263.6213	296.6678	335.6956	380.6984	401.4233	431.0607	549.6553	633.6562	746.3352	808.3292	828.8168	892.2127	932.7358	992.7177	1029.4604	1050.6256	1053.2815	1055.0173	1102.4842	1119.7272	1127.7162	1147.0222	1176.2836	1183.3812	1241.2249	1295.3359	1313.3473	1338.6354	1401.5571	1414.0066	1419.0211	1477.0871	1479.1398	1481.3482	1490.4267	1509.41	2357.9925	2996.7311	3012.2121	3027.8137	3088.8851	3089.8518	3092.1243	3103.3579	3108.214	3186.8117	3201.4603	3820.0245
CC#CC(CO)N1CC1	CC#C[C@@H](CO)N1CC1	
InChI=1S/C7H11NO/c1-2-3-7(6-9)8-4-5-8/h7,9H,4-6H2,1H3	InChI=1S/C7H11NO/c1-2-3-7(6-9)8-4-5-8/h7,9H,4-6H2,1H3/t7-/m0/s1
