18
gdb 85008	2.18862	1.68652	1.02009	6.4375	76.97	-0.2227	-0.0078	0.2149	1171.5418	0.146972	-439.1583	-439.148931	-439.147987	-439.192426	34.275	
C	-0.0492370273	 1.5366047354	-0.0239193186	-0.401327
C	 0.0248235773	 0.0114008259	 0.0332697618	 0.042731
O	 0.7638207695	-0.4756530393	-1.0835441231	-0.248663
C	 1.8348564207	-1.2355075936	-0.6406102103	 0.393533
O	 2.606704099	-1.740916833	-1.4105927328	-0.368096
C	 1.8157532183	-1.2669778466	 0.8241026314	 0.035309
C	 2.8402092343	-2.0086791336	 1.6219233025	-0.525003
C	 0.7568194766	-0.5405196791	 1.2364185338	 0.242311
N	 0.2870333286	-0.3307740573	 2.50305563	-0.591869
H	 0.9535808707	 1.9680422694	 0.0375521635	 0.135235
H	-0.5078615573	 1.8495086783	-0.964880721	 0.14382
H	-0.6574730719	 1.9347851546	 0.7956983422	 0.108671
H	-0.988783848	-0.41082004	-0.0170452516	 0.109899
H	 3.6761839457	-2.2782402853	 0.9716516311	 0.158251
H	 3.2325527551	-1.40680533	 2.4513538199	 0.111624
H	 2.4412452633	-2.9364125946	 2.0504427754	 0.131114
H	 0.9111162	-0.5442309843	 3.2660219231	 0.263403
H	-0.2897161146	 0.4801990331	 2.6625223428	 0.259057
72.4786	107.4893	144.0485	214.2464	228.3586	238.9733	293.3118	340.7814	379.5757	425.7402	481.9686	566.9361	585.2249	653.9262	679.0117	727.7308	770.6589	864.3547	938.5019	999.3765	1055.6099	1059.7199	1074.2762	1110.8961	1140.2169	1224.5438	1258.3052	1337.0319	1358.4094	1391.6688	1404.0888	1430.2186	1483.8326	1487.5539	1495.4227	1496.9219	1647.1755	1728.7681	1856.5701	3010.9168	3015.8465	3038.855	3062.5007	3111.1041	3120.8527	3133.7785	3579.7494	3685.5733
CC1OC(=O)C(C)=C1N	C[C@H]1OC(=O)C(=C1N)C	
InChI=1S/C6H9NO2/c1-3-5(7)4(2)9-6(3)8/h4H,7H2,1-2H3	InChI=1S/C6H9NO2/c1-3-5(7)4(2)9-6(3)8/h4H,7H2,1-2H3/t4-/m1/s1
