21
gdb 74973	2.58	1.56292	1.55128	1.7418	82.48	-0.2302	0.0228	0.253	1032.6481	0.185542	-387.112805	-387.10508	-387.104136	-387.144608	31.258	
C	-0.0417804189	 1.4991384392	 0.0361435672	-0.508012
C	 0.0061072271	 0.0043620242	-0.0237112426	 0.351749
C	-0.0132265151	-0.7533922571	-1.12504489	-0.187169
C	 0.0170130157	-2.2336805445	-0.8400033621	 0.062027
C	 1.3136404346	-2.5745004361	-0.0746416468	-0.202578
C	 1.3377263876	-1.7021041139	 1.2112406386	-0.20642
C	 0.0529886156	-0.8310208034	 1.2394648245	-0.132953
C	-1.1506055387	-1.797797546	 1.1902413522	-0.057112
O	-1.0943153028	-2.5942705049	 0.0109552579	-0.27634
H	 0.8303895259	 1.9036462059	 0.5660209202	 0.124471
H	-0.0680462664	 1.9412444515	-0.9639004234	 0.123455
H	-0.9261845997	 1.8474283689	 0.585308999	 0.126583
H	-0.0586391717	-0.3635039144	-2.1365935725	 0.084284
H	-0.0979035345	-2.8443642849	-1.7369390716	 0.069441
H	 1.3066288985	-3.6404613042	 0.1714371253	 0.100747
H	 2.1856304385	-2.3849954748	-0.7077383139	 0.096029
H	 1.3670778545	-2.3311619439	 2.1072211725	 0.096285
H	 2.2219416209	-1.0593459691	 1.240166939	 0.096812
H	 0.0083063297	-0.2219620671	 2.1467120516	 0.060227
H	-1.1353696092	-2.4639638019	 2.0651008218	 0.089148
H	-2.0970799813	-1.2392104536	 1.2054721033	 0.089326
138.1976	173.6723	192.912	272.1509	329.6292	379.981	413.3951	492.6268	529.3749	657.9332	662.9098	782.7047	821.0938	824.5923	837.0865	855.4237	887.0526	947.5796	972.2733	997.7098	1011.2803	1035.4136	1058.9357	1066.0419	1092.9555	1104.8017	1175.5557	1187.4557	1209.5041	1243.5282	1260.2789	1295.3514	1301.6947	1338.1057	1338.9955	1365.1053	1380.456	1405.0334	1413.2757	1478.56	1480.3104	1487.6259	1500.4349	1524.661	1713.8988	2987.5682	3013.4515	3019.4367	3039.3691	3051.7827	3059.3923	3070.2473	3078.6838	3099.0504	3100.4574	3106.9939	3179.5075
CC1=CC2CCC1CO2	CC1=C[C@H]2CC[C@@H]1CO2	
InChI=1S/C8H12O/c1-6-4-8-3-2-7(6)5-9-8/h4,7-8H,2-3,5H2,1H3	InChI=1S/C8H12O/c1-6-4-8-3-2-7(6)5-9-8/h4,7-8H,2-3,5H2,1H3/t7-,8-/m1/s1
