19
gdb 94416	2.42962	1.48559	1.38604	1.6635	76.73	-0.219	0.0166	0.2356	1064.2722	0.159543	-419.179228	-419.170671	-419.169727	-419.212443	31.94	
C	-0.1407567704	 1.49598639	-0.1236801676	-0.340671
N	-0.0900934652	 0.0628025795	 0.0932697826	-0.104962
C	-1.3087836649	-0.6644738907	 0.5012848566	-0.164466
C	-0.4194653253	-1.5862545963	 1.369940256	-0.306133
C	 0.6748343268	-0.5045772449	 1.2010591031	 0.205187
C	 2.1897678987	-0.7751984822	 1.0981314495	-0.143483
O	 2.418419889	 0.0028631715	 2.3173875074	-0.26262
C	 1.0799105293	 0.3193349562	 2.4229751818	 0.378458
N	 0.4690559136	 1.0426560893	 3.2467589115	-0.549145
H	 0.8618322151	 1.8707596675	-0.3572771381	 0.119911
H	-0.7801548407	 1.7022361097	-0.9882048046	 0.120992
H	-0.5252244587	 2.0551798587	 0.7434207765	 0.128336
H	-1.9954241333	-0.0592836158	 1.110620203	 0.10852
H	-1.8665452186	-1.115642488	-0.3262200684	 0.100346
H	-0.7502485942	-1.7750461564	 2.3905061693	 0.126981
H	-0.1566184042	-2.5256966631	 0.8799092566	 0.113756
H	 2.5150963879	-1.8109673603	 1.2245417679	 0.118775
H	 2.6828100288	-0.3157949517	 0.2375774937	 0.122913
H	 1.1040963765	 1.445222977	 3.9390163631	 0.227306
99.339	119.6451	145.5866	200.5353	237.0077	259.8353	347.3218	368.1549	493.8776	556.1185	663.0624	715.5684	750.3048	791.0599	864.2263	895.8176	912.9079	955.7061	968.1368	978.8917	1008.401	1113.3894	1118.6818	1150.2899	1156.9254	1176.4812	1191.3843	1212.7024	1231.815	1248.4515	1259.7536	1292.2784	1335.9887	1365.5172	1449.6529	1477.8616	1484.7239	1502.9927	1508.2274	1524.0732	1809.4288	2985.891	2999.2793	3057.7825	3060.0207	3065.2372	3084.9247	3097.6087	3120.5813	3151.4391	3466.1897
CN1CCC11COC1=N	CN1CC[C@]21CO[C]2[NH]	
InChI=1S/C6H10N2O/c1-8-3-2-6(8)4-9-5(6)7/h7H,2-4H2,1H3	InChI=1S/C6H10N2O/c1-8-3-2-6(8)4-9-5(6)7/h7H,2-4H2,1H3/t6-/m0/s1
