15
gdb 5472	3.2821	1.93667	1.22723	2.768	73.27	-0.2253	-0.0403	0.185	939.6066	0.11985	-362.727879	-362.720343	-362.719399	-362.760822	26.991	
C	 0.0080104361	 1.5375840577	 0.0779431787	-0.510263
C	 0.0282990134	 0.0392250897	 0.0293608014	 0.214466
C	-0.0391953677	-0.7686855876	-1.1081500165	 0.134884
N	 0.0111280139	-2.0826087029	-0.6920436788	-0.277403
C	 0.1072475865	-2.1336661522	 0.6568595205	-0.058679
C	 0.1205700166	-0.8345819326	 1.1384694875	-0.234622
C	-0.143298701	-0.4832724028	-2.5181844243	 0.071025
O	-0.1901579717	-1.3481760958	-3.3778373148	-0.327204
H	 0.9186558596	 1.9308226736	 0.5435958166	 0.135793
H	-0.0711966276	 1.9801788585	-0.9176126724	 0.130429
H	-0.8379484898	 1.9028531872	 0.6709416489	 0.135766
H	-0.0228477437	-2.8482805936	-1.3457919071	 0.277994
H	 0.1592616685	-3.0749327235	 1.1816971562	 0.133048
H	 0.1893865412	-0.5488749476	 2.177453226	 0.102731
H	-0.1792807543	 0.5926787818	-2.7841556619	 0.072034
24.6542	155.6687	188.6376	226.6994	309.446	325.4557	542.5264	572.2068	625.3457	664.3181	676.7154	768.9587	812.0416	847.7371	919.6208	992.7595	1020.0869	1058.5681	1076.3036	1110.4213	1188.6841	1269.9016	1330.6092	1391.305	1418.54	1461.0594	1467.7328	1481.908	1495.1177	1514.9716	1600.0691	1746.3225	2920.8445	3033.2563	3082.3905	3121.4264	3241.9373	3264.0095	3659.9864
CC1=C(NC=C1)C=O	Cc1c([nH]cc1)C=O	
InChI=1S/C6H7NO/c1-5-2-3-7-6(5)4-8/h2-4,7H,1H3	InChI=1S/C6H7NO/c1-5-2-3-7-6(5)4-8/h2-4,7H,1H3
