18
gdb 40150	2.65324	1.53161	1.24294	1.4446	71.22	-0.2509	0.0545	0.3055	1055.4305	0.147635	-439.006186	-438.998247	-438.997303	-439.039192	29.865	
C	 0.1568931695	 1.4875991392	-0.1522076229	-0.303329
N	 1.3121848988	 0.6051401361	 0.1209113142	-0.355433
C	-0.0189747309	 0.0333054455	 0.0226395631	 0.200913
C	-0.6991958601	-0.7822879614	 1.1128261138	-0.137434
O	-1.1921496354	-1.7088472255	 0.1105581569	-0.319501
C	-0.5475869345	-1.0121171843	-0.9603367274	 0.307721
C	-1.359144954	-0.6850943173	-2.2271177172	-0.13401
O	-0.3459604773	-1.2747306663	-3.0690430263	-0.273819
C	 0.3569606221	-1.8022037313	-1.9258329513	-0.138309
H	-0.0980575418	 2.1687370311	 0.6554277141	 0.126541
H	 0.040346161	 1.9030162092	-1.1503550709	 0.123631
H	 1.8409502	 0.4396915643	-0.7331903393	 0.238559
H	-0.0170841002	-1.2638071316	 1.8221804254	 0.118068
H	-1.5178169647	-0.2953495207	 1.6545905778	 0.111019
H	-2.3104188272	-1.2315272882	-2.2662654346	 0.114463
H	-1.5319172754	 0.372152042	-2.4596977301	 0.104311
H	 1.4261370358	-1.5549138359	-1.9440875579	 0.10024
H	 0.2363744543	-2.887730535	-1.8165129975	 0.116367
75.6504	79.4108	193.734	249.9129	280.5561	350.0548	422.7759	498.4101	511.6648	571.8651	811.3901	835.2788	889.4568	896.2	923.3914	931.6815	967.9509	994.3519	1007.6556	1025.759	1045.9299	1057.8697	1120.8383	1127.7631	1142.7871	1146.8443	1151.7563	1190.0615	1209.1068	1260.3477	1291.2064	1306.0655	1325.4825	1375.3352	1442.3964	1493.4869	1518.6149	1521.4861	1523.2087	3004.5469	3018.7514	3028.8302	3056.2396	3067.4791	3079.4913	3104.2116	3189.1367	3487.6941
C1NC11COC11COC1	C1N[C@]21COC12COC1	
InChI=1S/C6H9NO2/c1-5(7-1)2-9-6(5)3-8-4-6/h7H,1-4H2	InChI=1S/C6H9NO2/c1-5(7-1)2-9-6(5)3-8-4-6/h7H,1-4H2/t5-/m1/s1
