14
gdb 25306	2.7496	1.32776	0.89539	2.9433	77.13	-0.251	-0.0812	0.1698	1190.1383	0.101935	-436.754499	-436.74687	-436.745926	-436.787051	27.553	
O	 0.1148358755	-0.077921331	-0.0022991605	-0.307573
C	 0.0285181374	 1.1359109571	 0.0094496838	 0.081492
C	 1.1940908179	 2.0026378588	 0.0033640999	 0.145374
C	 1.367586008	 3.3947242187	 0.0135189444	 0.110159
C	 0.3176056866	 4.4135277878	 0.0347712758	 0.075703
O	 0.532396306	 5.6055581561	 0.0427419401	-0.275347
C	 2.7645991198	 3.6408632674	-0.0005523498	-0.238892
C	 3.3960845172	 2.4149785346	-0.0189883346	-0.048546
N	 2.440672122	 1.4429211852	-0.016242888	-0.278568
H	-0.9529442908	 1.6471246484	 0.025435003	 0.093443
H	-0.7238280579	 4.0251114385	 0.0435249032	 0.069933
H	 3.2310868014	 4.6126211345	 0.0026258778	 0.13946
H	 4.4449865343	 2.1640327193	-0.0335865157	 0.147254
H	 2.5734429627	 0.4428112545	-0.0266199694	 0.286108
114.4063	152.0791	171.6096	228.947	230.3323	320.5575	424.4347	553.8246	617.1	681.0775	682.052	753.7608	786.013	827.5099	885.1702	924.1893	1016.7013	1030.9217	1066.7668	1092.4831	1169.9386	1272.4406	1348.1695	1391.0196	1420.8366	1443.7742	1473.768	1515.4224	1586.7358	1754.4316	1785.5808	2889.7798	2949.3424	3261.2069	3280.7255	3641.1989
O=CC1=C(C=O)C=CN1	O=Cc1c(C=O)cc[nH]1	
InChI=1S/C6H5NO2/c8-3-5-1-2-7-6(5)4-9/h1-4,7H	InChI=1S/C6H5NO2/c8-3-5-1-2-7-6(5)4-9/h1-4,7H
