21
gdb 92654	2.7842	1.45341	1.16796	0.9429	77.89	-0.2358	0.0797	0.3155	1134.6663	0.184653	-424.217073	-424.208967	-424.208023	-424.249806	31.695	
C	-0.0878349828	 1.5846346688	-0.1376581863	-0.419041
C	 0.0677567251	 0.0888806627	 0.0401592969	 0.157877
O	 0.9596607924	-0.5107482588	-0.931813992	-0.317612
C	 1.400486672	-1.4720390855	 0.0586794129	 0.153976
C	 2.8825035489	-1.7975255718	 0.0101745875	-0.236969
C	 3.721342144	-0.6948258775	 0.6563525546	-0.080668
O	 3.2143571415	-0.3819892284	 1.9436431502	-0.245333
C	 1.9702407495	 0.2917270866	 1.8515605721	-0.092444
C	 0.8682933566	-0.5670586804	 1.2006381695	-0.114886
H	 0.874331788	 2.1014946997	-0.1410598397	 0.127657
H	-0.5791750857	 1.7883188055	-1.0944070967	 0.129533
H	-0.7121637813	 2.0036970356	 0.6587931306	 0.118165
H	-0.9252751175	-0.3847607313	-0.030197881	 0.067795
H	 0.8062363607	-2.3936777569	-0.0339883279	 0.066081
H	 3.0479629579	-2.731556162	 0.5596813121	 0.105545
H	 3.1833567748	-1.9672488594	-1.030226617	 0.109257
H	 4.75573832	-1.0201416108	 0.797574558	 0.104366
H	 3.728860993	 0.2067777645	 0.0228959389	 0.095406
H	 1.6938286736	 0.5576750741	 2.8753692187	 0.106661
H	 2.1145204719	 1.228445889	 1.2940287411	 0.091903
H	 0.2698550975	-1.0740402735	 1.9603323375	 0.07273
73.4444	144.4236	186.5143	259.6595	323.6883	345.748	387.9199	461.2522	487.0162	513.0452	635.9837	770.8768	784.8752	794.8869	876.3367	889.3404	914.3003	952.374	977.4786	1018.0226	1051.7168	1062.3	1096.3008	1119.109	1135.6032	1156.006	1176.5696	1228.1509	1242.6071	1257.6345	1285.6392	1325.9465	1348.2051	1359.4346	1362.5438	1387.8253	1388.7827	1405.4883	1424.8761	1435.4082	1456.7641	1479.6762	1491.7082	1502.0437	1506.2714	2961.1735	2978.6304	2980.1889	3000.5026	3036.3621	3040.4561	3075.4605	3079.7642	3089.054	3094.5243	3106.3619	3127.0491
CC1OC2CCOCC12	C[C@H]1O[C@H]2CCOC[C@@H]12	
InChI=1S/C7H12O2/c1-5-6-4-8-3-2-7(6)9-5/h5-7H,2-4H2,1H3	InChI=1S/C7H12O2/c1-5-6-4-8-3-2-7(6)9-5/h5-7H,2-4H2,1H3/t5-,6+,7+/m1/s1
