15
gdb 15477	2.84136	2.06593	1.45358	3.8538	66.85	-0.2392	0.02	0.2592	876.7411	0.119882	-362.674064	-362.666629	-362.665685	-362.705932	27.633	
O	-0.0075685917	 0.0368878535	-0.6441921193	-0.370805
C	 0.0425104845	 1.1886096278	-0.2855091873	 0.406641
N	-1.0109491378	 1.9866697531	 0.0598274537	-0.295727
C	-0.6592962312	 3.316267322	 0.5266996982	-0.163042
C	 0.7564197481	 3.5008348249	-0.0571942728	-0.222554
C	 1.3227001025	 2.0609509734	-0.1157254159	-0.279796
C	 2.0230936418	 1.6735075329	 1.1021051565	 0.345907
C	 2.5828007613	 1.3752433924	 2.1232019077	-0.483357
H	-1.9315788381	 1.5880113763	 0.1542266976	 0.255265
H	-1.3610385236	 4.0678926888	 0.1530261524	 0.116832
H	-0.6516563207	 3.3732059099	 1.6236719503	 0.119949
H	 0.6843846515	 3.8989882896	-1.0731696298	 0.117352
H	 1.3718516103	 4.1758580497	 0.53784132	 0.12335
H	 1.9701727676	 1.900555066	-0.9820244455	 0.128917
H	 3.0863853754	 1.0947828095	 3.0149775842	 0.201068
82.8491	140.9856	168.8081	245.1061	389.4133	443.6168	493.2179	529.0894	626.3515	636.5898	660.9203	690.9747	721.2342	823.3563	876.3235	927.9433	968.0089	1027.5842	1076.8346	1105.9462	1182.2872	1212.9511	1249.4893	1265.6746	1306.1546	1343.5438	1362.915	1446.6722	1491.0439	1532.8034	1843.2099	2234.8122	3012.3888	3063.3096	3075.1626	3081.76	3135.2983	3504.4399	3642.8556
O=C1NCCC1C#C	O=C1NCC[C@H]1C#C	
InChI=1S/C6H7NO/c1-2-5-3-4-7-6(5)8/h1,5H,3-4H2,(H,7,8)	InChI=1S/C6H7NO/c1-2-5-3-4-7-6(5)8/h1,5H,3-4H2,(H,7,8)/t5-/m1/s1
