19
gdb 111866	2.30307	1.41072	1.12328	1.0823	70.7	-0.2537	0.0654	0.3192	1149.3947	0.159237	-460.135283	-460.126441	-460.125497	-460.168727	33.315	
O	 0.0444345692	 1.4320526256	-0.1928406314	-0.41822
C	 0.0378990349	 0.0827622767	 0.2624332058	-0.103475
C	-1.3273901328	-0.5535749206	 0.1062456959	-0.119049
C	-1.8286007315	-1.2204721511	-1.1721223361	-0.141904
C	-0.8127253504	-1.7313062718	-2.1757137259	-0.097184
O	 0.1458128806	-2.4835156427	-1.427672751	-0.251395
C	-0.4820423372	-2.996928657	-0.2597773707	-0.148689
C	-1.6158708117	-2.0349114925	 0.0762694491	 0.337815
O	-2.7048978076	-2.5555921957	 0.7733214765	-0.464692
H	-0.1914972577	 1.4209439207	-1.1260416301	 0.280995
H	 0.8079341274	-0.5149219445	-0.2394045067	 0.117017
H	 0.3007056076	 0.1384469546	 1.3247823702	 0.105394
H	-2.1138659282	 0.0080932273	 0.6060285605	 0.098221
H	-2.8330808166	-0.9956955446	-1.5102251422	 0.103481
H	-1.3151421462	-2.3629847482	-2.9249693424	 0.103252
H	-0.2570298812	-0.9521065426	-2.7099760209	 0.102497
H	-0.9255346886	-3.9902183786	-0.4314365759	 0.104421
H	 0.2910594583	-3.0896404445	 0.5112098482	 0.104018
H	-2.5173483782	-2.4928733104	 1.7158572969	 0.287497
81.1595	137.4103	216.8231	224.8597	229.4038	268.94	299.6941	331.9542	386.2147	466.7988	546.5984	581.9245	706.7207	729.9138	858.2114	880.5595	934.0847	935.3405	982.4331	1029.5719	1043.4713	1055.8604	1080.539	1095.8894	1115.2416	1142.2555	1188.933	1215.8317	1236.4891	1255.3375	1271.2251	1323.7205	1334.0891	1355.2171	1368.1442	1402.1201	1424.3701	1472.0807	1510.757	1517.4972	1525.0895	2982.2106	2988.688	3031.5343	3052.4724	3061.17	3072.1433	3137.7317	3188.7779	3803.908	3815.4246
OCC1C2COCC12O	OC[C@H]1[C@H]2COC[C@@]12O	
InChI=1S/C6H10O3/c7-1-4-5-2-9-3-6(4,5)8/h4-5,7-8H,1-3H2	InChI=1S/C6H10O3/c7-1-4-5-2-9-3-6(4,5)8/h4-5,7-8H,1-3H2/t4-,5+,6+/m0/s1
