17
gdb 29958	3.32751	1.23825	0.91275	7.6553	79.89	-0.2338	-0.03	0.2038	1241.4191	0.135876	-418.064409	-418.055492	-418.054547	-418.098298	31.393	
C	 0.009408646	 1.4501781282	 0.0361682375	-0.344506
N	 0.0075289593	 0.0003819678	 0.0333672179	-0.046416
C	-0.0213734712	-0.8110770042	-1.0777978317	-0.000745
N	-0.0159565634	-2.0768002918	-0.7739397362	-0.303673
C	 0.0185594719	-2.1150626952	 0.6084567677	 0.093283
C	 0.0355514924	-3.3606729966	 1.3715187796	 0.083392
O	 0.02172676	-4.4766746097	 0.9056779993	-0.274354
C	 0.0335677035	-0.8276432201	 1.1290491213	 0.232085
C	 0.0691152963	-0.2974531916	 2.5225844393	-0.508123
H	 0.9110940666	 1.8420848172	 0.5166570005	 0.149595
H	-0.0151781283	 1.802652833	-0.9962046004	 0.153319
H	-0.8669156964	 1.8443534338	 0.559802174	 0.149602
H	-0.045484177	-0.3923449205	-2.0743087657	 0.133117
H	 0.0637571197	-3.2087535219	 2.4758130687	 0.049289
H	 0.9575886721	 0.3207651209	 2.6997676187	 0.139809
H	-0.8082490073	 0.3222878707	 2.7442677305	 0.139832
H	 0.0865550458	-1.1157223501	 3.2432525691	 0.154493
94.9973	113.8711	131.5764	186.3236	191.1067	252.3307	267.7206	318.4645	377.2708	509.2581	643.2442	646.927	708.5961	738.9236	818.3405	827.3087	962.3846	1022.1914	1058.7998	1069.3871	1095.9736	1150.3197	1195.4745	1274.7384	1344.6693	1376.9313	1416.1083	1429.0346	1443.0256	1466.6209	1475.4834	1481.1599	1488.9397	1513.7025	1555.4502	1585.6716	1799.2268	2849.6064	3024.0857	3041.7901	3070.1744	3102.7319	3142.3479	3143.4231	3236.818
CN1C=NC(C=O)=C1C	Cn1cnc(C=O)c1C	
InChI=1S/C6H8N2O/c1-5-6(3-9)7-4-8(5)2/h3-4H,1-2H3	InChI=1S/C6H8N2O/c1-5-6(3-9)7-4-8(5)2/h3-4H,1-2H3
