16
gdb 16863	4.20167	1.82672	1.38082	4.1142	64.24	-0.234	0.0353	0.2694	871.8411	0.133801	-379.936737	-379.929954	-379.92901	-379.968134	25.979	
O	 0.0170518969	-0.0540319624	 0.2253457604	-0.375898
C	-0.0172927034	 1.1493672984	 0.0475513159	 0.389752
C	-1.3290443624	 1.9216192359	-0.0944909392	-0.325458
C	-1.2309866028	 3.1541131196	-0.9803555008	-0.035727
N	-1.1333120515	 4.4560918895	-0.2960253947	-0.330433
C	 0.0495723099	 3.9043199085	-0.9773914307	-0.030369
C	 1.1504867456	 3.3674621732	-0.0734894872	-0.172608
N	 1.1167404534	 1.9090901193	-0.036295742	-0.304893
H	-2.0733522221	 1.2120484786	-0.4596814784	 0.13136
H	-1.6400484947	 2.2312562774	 0.9104006933	 0.142071
H	-1.7870323532	 3.1164275228	-1.9130868665	 0.096267
H	-1.5557605324	 5.1847970929	-0.8654280215	 0.234225
H	 0.3732214943	 4.3722893875	-1.9025267215	 0.094455
H	 2.1337769095	 3.6695195625	-0.4450830978	 0.114719
H	 1.0278490926	 3.8020423037	 0.9275694569	 0.125518
H	 1.9706007805	 1.4067851027	 0.1548480336	 0.247019
58.4092	144.766	313.6622	429.5586	437.0893	464.6323	494.448	540.4508	634.834	745.5798	783.3379	839.2389	864.6189	902.4198	933.5905	973.6271	998.751	1037.6328	1099.573	1125.4817	1163.7858	1199.7367	1234.1788	1259.5648	1278.8958	1311.2971	1317.7046	1381.3541	1398.0811	1444.7575	1453.0238	1478.5343	1514.1162	1793.9466	3013.6516	3047.9993	3080.5423	3120.5432	3141.0695	3151.3973	3504.778	3621.2818
O=C1CC2NC2CN1	O=C1C[C@H]2N[C@H]2CN1	
InChI=1S/C5H8N2O/c8-5-1-3-4(7-3)2-6-5/h3-4,7H,1-2H2,(H,6,8)	InChI=1S/C5H8N2O/c8-5-1-3-4(7-3)2-6-5/h3-4,7H,1-2H2,(H,6,8)/t3-,4+/m1/s1
