18
gdb 51586	2.68189	0.97491	0.82109	2.5676	79.04	-0.2398	-0.0238	0.216	1409.8615	0.144497	-401.880192	-401.870576	-401.869632	-401.915859	34.122	
O	 1.4930225439	 2.3676774956	 2.0934648393	-0.235299
C	 1.845516958	 2.4128015263	 0.9437185576	 0.162887
C	 1.0735832071	 1.8334771687	-0.224738456	-0.321571
C	 0.747759195	 2.9189901291	-1.2392720868	 0.00464
C	 1.7327089039	 3.3421449143	-2.2818399552	-0.253569
N	 0.5017123696	 2.6610409786	-2.6574405885	-0.100039
C	 0.5257229526	 1.3052318892	-3.2230528838	-0.283776
C	 1.767686979	 0.5303764789	-3.1316397255	 0.296605
C	 2.798597133	-0.08882153	-3.0907639823	-0.456919
H	 2.799055913	 2.9114534882	 0.6534326014	 0.076711
H	 1.7000455962	 1.0622903405	-0.687185675	 0.139519
H	 0.1638153589	 1.3635306907	 0.1612633303	 0.122201
H	 0.078299096	 3.6821244181	-0.8437947226	 0.106753
H	 1.8094136507	 4.3823480212	-2.5872706548	 0.119883
H	 2.6613068431	 2.777312528	-2.3388866753	 0.124814
H	-0.29566677	 0.7394551001	-2.7675164039	 0.143127
H	 0.2721966053	 1.4078407814	-4.2855577679	 0.147505
H	 3.7008080346	-0.6486038691	-3.0536124808	 0.206528
50.2301	62.1187	92.7292	130.131	180.6343	243.1607	327.1408	333.9133	413.7142	458.9426	514.2411	581.9073	620.482	668.6548	744.0883	810.6455	854.6912	908.5177	939.4468	948.4171	999.6831	1050.3847	1076.0068	1111.5309	1129.0795	1154.0618	1178.8086	1235.3258	1284.2118	1298.4552	1331.4122	1366.61	1412.8131	1426.0534	1462.6886	1469.3783	1506.5645	1834.7191	2222.5008	2867.1924	3027.0085	3044.7152	3059.8981	3097.02	3098.9496	3114.085	3184.0611	3499.7497
O=CCC1CN1CC#C	O=CC[C@H]1CN1CC#C	
InChI=1S/C7H9NO/c1-2-4-8-6-7(8)3-5-9/h1,5,7H,3-4,6H2	InChI=1S/C7H9NO/c1-2-4-8-6-7(8)3-5-9/h1,5,7H,3-4,6H2/t7-,8?/m0/s1
