15
gdb 53881	4.47908	0.83158	0.72241	6.2073	65.59	-0.2665	-0.075	0.1915	1472.3482	0.110366	-491.119908	-491.110395	-491.109451	-491.155429	32.664	
N	-0.2904307688	 1.1345348751	 0.2659528238	-0.535903
C	 0.035035935	-0.1450402096	-0.054814762	 0.280075
N	 1.1700710925	-0.6747814359	-0.3251948878	-0.51556
C	-1.1746316909	-1.0603385486	-0.0949976739	 0.36806
O	-2.2730408433	-0.6593771138	 0.2119368648	-0.304737
C	-0.9199504967	-2.5088176728	-0.4960922241	-0.202265
O	-2.1304972532	-3.1864742673	-0.7821731627	-0.165709
C	-2.900860954	-3.5429587635	 0.2708627394	 0.18796
O	-3.96488454	-4.0628692572	 0.1360734258	-0.271285
H	 0.4189055377	 1.815497974	 0.4729720402	 0.261474
H	-1.2407411757	 1.313945698	 0.5506380127	 0.278271
H	 1.9373598412	-0.00321585	-0.259701644	 0.215118
H	-0.3004061272	-2.5502192891	-1.3916189866	 0.174513
H	-0.3499722569	-2.9990601955	 0.3044365885	 0.152292
H	-2.4240416499	-3.3281111838	 1.2459581257	 0.077693
48.3967	69.523	82.2849	171.5503	216.0257	219.2185	298.0767	361.4146	375.2401	388.0482	510.5259	541.7699	597.7445	666.7858	700.1806	836.2766	874.6369	992.9851	1034.5128	1052.8608	1079.5249	1099.7547	1148.5203	1180.7034	1277.0574	1370.3968	1427.0324	1437.9634	1457.4669	1604.277	1720.5857	1808.4453	1876.7819	2958.2287	3034.4644	3145.4458	3457.4934	3593.7239	3729.0423
NC(=N)C(=O)COC=O	NC(=N)C(=O)COC=O	
InChI=1S/C4H6N2O3/c5-4(6)3(8)1-9-2-7/h2H,1H2,(H3,5,6)	InChI=1S/C4H6N2O3/c5-4(6)3(8)1-9-2-7/h2H,1H2,(H3,5,6)
