17
gdb 133856	3.39337	1.65217	1.37761	1.4779	81.04	-0.2185	-0.0383	0.1802	948.1845	0.135036	-384.576055	-384.568668	-384.567724	-384.607015	30.795	
O	 1.5690706528	-0.2821219583	-2.0350622181	-0.483438
C	 2.6978830665	-0.306799953	-1.2200080071	 0.403396
C	 2.8341166294	-1.2778224492	 0.0595099458	-0.315968
C	 4.2732062102	-1.3232436359	-0.4290072158	 0.178189
C	 5.4776866514	-0.8708964401	 0.3722586274	-0.324182
C	 5.4724106604	 0.666945669	 0.0772062822	-0.195477
C	 4.2993469271	 1.2322395969	-0.1230860976	 0.17399
C	 3.0489505549	 1.0574435012	-0.4792770353	-0.302478
C	 3.9629486288	-0.9378068986	-1.6942539554	-0.190847
H	 0.8885929833	 0.2548648213	-1.6143810957	 0.277567
H	 2.2872302268	-2.2125002718	-0.0857541714	 0.116913
H	 2.6176226739	-0.855434447	 1.0442495784	 0.097207
H	 6.428600844	-1.2696588591	 0.0030958443	 0.125755
H	 5.3962550262	-1.132910683	 1.4304478724	 0.124365
H	 6.4088338142	 1.1083083098	-0.2531536743	 0.112503
H	 2.2082628694	 1.5549739438	 0.0022305917	 0.103766
H	 4.5861563708	-0.6889251859	-2.5453091715	 0.098738
221.5001	241.4905	279.9283	317.1224	347.0902	396.8478	448.7164	479.5596	500.6442	616.7324	631.1321	649.2492	718.7945	734.3056	774.733	834.8453	849.7191	888.7476	913.1112	936.3751	1003.2906	1025.7836	1070.6473	1115.7916	1137.1305	1141.9165	1184.7052	1222.2977	1237.078	1257.4011	1276.0126	1355.9884	1413.5088	1466.033	1488.7285	1583.9556	1917.8616	3050.6133	3055.0051	3099.1159	3113.1597	3129.3225	3154.4554	3192.1133	3801.5566
OC12CC34CC=C(C13)C24	O[C@]12C[C](C[CH][C][CH]1)[CH]2	
InChI=1S/C8H8O/c9-8-3-7-2-1-4(5(7)8)6(7)8/h1,5-6,9H,2-3H2	InChI=1S/C8H8O/c9-8-4-2-1-3-7(5-8)6-8/h1,4-5,9H,3,6H2/t8-/m1/s1
