23
gdb 114827	3.09121	1.21022	1.14101	1.4557	83.48	-0.2477	0.0773	0.325	1229.3534	0.209035	-388.315237	-388.307027	-388.306083	-388.348078	32.825	
C	-0.0505899376	 1.6554310976	 0.3392414863	-0.38289
C	 0.0375055617	 0.14375116	 0.101015837	-0.204201
C	-1.3337856787	-0.5172350457	-0.0610338774	 0.065542
C	-2.096855436	-0.1907139394	-1.3862312722	-0.24623
C	-2.4884416817	-1.6078251714	-1.8659221017	 0.085514
C	-1.2546964921	-2.3127491202	-2.4743656104	-0.215435
C	-0.4453568881	-2.6501495211	-1.1852882321	-0.221009
C	-1.3707125116	-2.0676005622	-0.0939832576	 0.040693
O	-2.676825776	-2.3205152255	-0.632850354	-0.26543
H	 0.9434830468	 2.0975927478	 0.4579570098	 0.111034
H	-0.5424826787	 2.1628301786	-0.4974019181	 0.118857
H	-0.6259286451	 1.8787772225	 1.2445617985	 0.115245
H	 0.6522098567	-0.0445624138	-0.7880282726	 0.095627
H	 0.5669655278	-0.3220511575	 0.9432088386	 0.093271
H	-1.9584672149	-0.2118308093	 0.786248083	 0.07367
H	-2.9822269669	 0.4227027079	-1.2042099236	 0.101005
H	-1.4700548443	 0.3336995592	-2.1145403682	 0.092668
H	-3.399075466	-1.6652097619	-2.4626664711	 0.071783
H	-1.5505425961	-3.219300685	-3.0073913576	 0.102341
H	-0.708457198	-1.6731500979	-3.1727380328	 0.094376
H	-0.345827168	-3.7298210233	-1.0517790023	 0.103497
H	 0.5589550612	-2.2217161189	-1.1780450163	 0.100106
H	-1.2820615344	-2.5405305206	 0.885201425	 0.069966
93.7724	100.7605	190.5308	235.9231	297.8145	348.54	403.1048	460.4629	551.9077	578.235	749.9709	775.4695	799.9056	816.5377	831.6365	854.8352	895.3579	933.6893	949.5811	959.7922	989.329	995.9842	1022.5489	1031.7781	1043.0201	1082.6422	1118.5285	1138.7064	1144.4141	1197.6755	1228.4979	1233.8288	1269.6672	1288.0561	1297.4129	1298.9202	1310.9775	1325.3882	1337.1407	1355.9811	1369.8802	1391.017	1412.4633	1483.1151	1484.0771	1496.6318	1500.4431	1506.8764	1509.76	3012.6957	3028.7885	3031.4842	3051.445	3051.9925	3060.8624	3073.5942	3097.979	3100.0713	3101.7163	3103.0638	3108.4223	3117.9933	3122.847
CCC1CC2CCC1O2	CC[C@H]1C[C@H]2CC[C@@H]1O2	
InChI=1S/C8H14O/c1-2-6-5-7-3-4-8(6)9-7/h6-8H,2-5H2,1H3	InChI=1S/C8H14O/c1-2-6-5-7-3-4-8(6)9-7/h6-8H,2-5H2,1H3/t6-,7+,8-/m0/s1
