20
gdb 63473	2.83785	1.22719	1.09527	3.514	76.25	-0.231	0.0608	0.2918	1207.2743	0.1687	-440.235426	-440.22577	-440.224826	-440.269372	36.969	
C	-0.0554846916	 1.5385441503	 0.0371717411	-0.442016
C	 0.0049074318	 0.0290639986	 0.0402852332	 0.362462
O	-1.1490188371	-0.5979669984	-0.4558052521	-0.457997
C	 1.3254288558	-0.6870204717	-0.197951809	-0.422562
C	 0.6667484998	-0.7136520589	 1.1720595159	 0.309794
O	 1.2213722145	 0.1037576039	 2.1732820199	-0.466924
C	 0.061509197	-1.9914169909	 1.682447095	-0.005648
C	 0.6807459868	-2.7068969593	 2.8256008493	-0.263478
N	-0.6041005098	-2.002431911	 2.992092728	-0.32212
H	 0.8161399034	 1.9705390991	 0.530636238	 0.130966
H	-0.0964591558	 1.917498738	-0.9914068689	 0.103962
H	-0.9541626985	 1.8784242477	 0.5608759136	 0.131081
H	-1.1975142703	-0.4173779286	-1.4011196819	 0.283014
H	 1.301075519	-1.600121006	-0.7832818423	 0.116125
H	 2.22088489	-0.083599315	-0.3085921272	 0.109748
H	 2.1134897908	-0.212595871	 2.3523602028	 0.288763
H	-0.4538450424	-2.5657362779	 0.9202386588	 0.103577
H	 0.6272359862	-3.7904763295	 2.8827465352	 0.115496
H	 1.5649549907	-2.276193939	 3.2892953571	 0.089212
H	-0.4197161304	-1.1084464104	 3.4446180233	 0.236545
76.0313	136.3284	179.5482	191.7796	259.3764	285.8213	291.0277	332.6491	342.1524	392.8128	429.3643	463.3979	504.0282	573.2925	700.6002	749.842	849.0551	857.6775	906.4703	912.7398	923.0171	973.4719	980.5022	1008.9391	1026.5913	1083.5554	1098.1677	1127.1058	1149.9872	1172.0218	1226.0935	1270.5854	1280.8968	1297.3706	1306.8537	1336.3717	1382.9586	1410.0456	1427.7358	1474.6384	1483.5763	1504.0524	1514.0309	3029.7576	3096.0419	3104.4861	3122.7424	3143.9682	3170.8476	3187.8285	3218.6356	3487.2464	3795.3046	3801.3589
CC1(O)CC1(O)C1CN1	C[C@@]1(O)C[C@]1(O)[C@H]1CN1	
InChI=1S/C6H11NO2/c1-5(8)3-6(5,9)4-2-7-4/h4,7-9H,2-3H2,1H3	InChI=1S/C6H11NO2/c1-5(8)3-6(5,9)4-2-7-4/h4,7-9H,2-3H2,1H3/t4-,5-,6+/m1/s1
