19
gdb 52426	12.75009	0.41262	0.40369	2.2218	80.33	-0.2695	0.0144	0.2839	2528.114	0.158022	-419.222367	-419.211891	-419.210947	-419.260545	34.624	
N	-0.1182148478	 1.3252991699	 0.0102923117	-0.435082
C	-0.0492769373	 0.065648728	 0.0027258701	 0.128893
O	-1.1780142697	-0.670105983	 0.0091868113	-0.183866
C	-1.0094084721	-2.087362308	-0.0001834978	-0.08
C	-2.3951270848	-2.7159064501	 0.0099065432	-0.201515
C	-2.3361015463	-4.2455126078	 0.0009345178	-0.188466
C	-3.745248882	-4.8703226631	 0.0112280938	-0.342207
C	-3.7095400384	-6.3311920352	 0.0028493634	 0.257332
N	-3.659569844	-7.4855666679	-0.0037785915	-0.3007
H	 0.8179804902	 1.7246571773	 0.0040308315	 0.230828
H	 0.8696125214	-0.5377350027	-0.0088361616	 0.085153
H	-0.4514826539	-2.3949373023	-0.8959264112	 0.11153
H	-0.4341502298	-2.4046433689	 0.8810934966	 0.111523
H	-2.9333523231	-2.3604920541	 0.896488668	 0.12163
H	-2.9505335901	-2.3508362221	-0.8620341166	 0.121636
H	-1.7965381877	-4.6001451904	-0.8846077594	 0.125262
H	-1.7794303948	-4.6097935824	 0.8718521025	 0.125262
H	-4.3001071747	-4.5407179146	 0.8974129591	 0.156398
H	-4.3172266152	-4.5310782826	-0.8603123609	 0.156391
21.8038	47.8371	71.126	99.0106	112.5904	156.8245	162.8767	266.5526	320.4787	400.0172	458.3004	556.7525	641.2289	742.4897	796.7266	823.6523	925.2968	937.7722	991.8414	1028.7359	1044.6554	1060.292	1099.0507	1133.1203	1143.0097	1209.161	1258.8556	1284.8452	1296.1777	1323.1303	1330.1514	1342.651	1395.7255	1414.9636	1439.2121	1469.3743	1490.3947	1503.5949	1522.5555	1751.4365	2363.9914	2992.2983	3019.6639	3033.4537	3033.6384	3038.4328	3047.9893	3064.1488	3079.0746	3097.2	3519.3627
N=COCCCCC#N	[NH][CH]OCCCCC#N	
InChI=1S/C6H10N2O/c7-4-2-1-3-5-9-6-8/h6,8H,1-3,5H2	InChI=1S/C6H10N2O/c7-4-2-1-3-5-9-6-8/h6,8H,1-3,5H2
