16
gdb 98381	2.9753	1.0637	0.86324	4.5123	69.92	-0.2582	-0.0474	0.2109	1327.5302	0.122733	-471.240953	-471.231292	-471.230348	-471.27617	33.017	
C	 0.2885272142	 1.4136354563	 0.1483831407	-0.313276
N	 0.3691043375	-0.0353769911	 0.0578169531	-0.295735
C	 0.4682686017	-0.6386043783	-1.1664309244	 0.363514
N	 0.4545869259	 0.0237269667	-2.2545528962	-0.515813
N	 0.5680542649	-2.0736673075	-1.070815245	-0.172601
C	-0.3966388899	-2.7784058268	-0.3119564372	 0.146621
O	-0.4147606327	-3.9616496651	-0.1332349275	-0.250453
C	 1.6012024736	-2.7000956433	-1.8068018963	 0.147384
O	 1.7817749905	-3.8792879653	-1.8958336723	-0.251106
H	 1.2150357064	 1.9038899115	-0.1739571816	 0.138254
H	-0.5168213128	 1.7677225443	-0.4976079661	 0.161476
H	 0.0716648634	 1.6888568624	 1.1825015163	 0.128641
H	 0.809496436	-0.5172664752	 0.8257172323	 0.256768
H	 0.3850628376	-0.587226953	-3.0639931768	 0.230571
H	-1.1459471655	-2.078278341	 0.0975164213	 0.113599
H	 2.2355836591	-1.9362588246	-2.2923334403	 0.112158
52.5579	110.2842	132.8144	147.1304	160.5946	229.4931	269.5602	270.7015	310.4142	406.1478	487.1239	513.3317	535.593	734.4813	779.3309	827.0826	931.26	980.5946	1026.3491	1044.9745	1150.2759	1156.6777	1159.4834	1187.5531	1251.8676	1332.5457	1432.4005	1453.8887	1460.6234	1478.5503	1502.9615	1540.8574	1729.057	1803.0843	1879.1957	2970.6036	2983.5395	3032.1587	3107.8598	3147.5282	3533.0082	3630.0365
CNC(=N)N(C=O)C=O	CNC(=N)N(C=O)C=O	
InChI=1S/C4H7N3O2/c1-6-4(5)7(2-8)3-9/h2-3H,1H3,(H2,5,6)	InChI=1S/C4H7N3O2/c1-6-4(5)7(2-8)3-9/h2-3H,1H3,(H2,5,6)
