20
gdb 120105	3.94215	0.89932	0.82575	3.1793	78.49	-0.2072	0.0681	0.2753	1433.0286	0.170896	-403.040066	-403.03149	-403.030546	-403.07421	32.885	
O	 0.2451950721	 1.4321970397	-0.3219570276	-0.423326
C	 0.0579151835	 0.0274782563	-0.2656270872	-0.075395
C	-1.3238953557	-0.3700436107	 0.2626227837	-0.201321
C	-1.4881644424	-1.8897628717	 0.2613085824	-0.020938
C	-2.0634823865	-2.8154097	 1.3086413682	-0.094437
C	-3.4308816099	-2.3751136615	 1.9038463701	-0.057058
N	-3.8179157225	-1.0565759193	 1.33640693	-0.332516
C	-4.0263783966	-2.3057251148	 0.5581312306	-0.055175
C	-2.6838110142	-2.7436643148	-0.0913457773	-0.091755
H	 0.0985681171	 1.7788866674	 0.5640601118	 0.278287
H	 0.1857159698	-0.3280137597	-1.2949728839	 0.106551
H	 0.8438262306	-0.4566364105	 0.3397727205	 0.079797
H	-1.4529001614	 0.0267075068	 1.2744384522	 0.097954
H	-2.0908180952	 0.1081446204	-0.3507375292	 0.115848
H	-0.6043092192	-2.3786423911	-0.1553129628	 0.087008
H	-1.4894796287	-3.6258933183	 1.740987327	 0.08643
H	-3.8462293518	-2.7278973597	 2.8386508634	 0.092666
H	-4.7201085661	-0.8151285285	 1.7473169367	 0.227221
H	-5.0099926974	-2.5914382498	 0.2094303825	 0.093286
H	-2.6476251557	-3.49132304	-0.8742254111	 0.086872
35.6357	104.1682	135.9546	228.8755	273.8497	302.41	369.1477	452.3864	491.6175	679.854	707.1105	725.061	728.5285	779.2531	833.2319	846.2645	874.9469	906.1207	930.2304	971.9704	995.1152	1001.3513	1032.3555	1040.4154	1071.5136	1081.6409	1098.5991	1122.0791	1134.196	1180.5817	1202.2734	1253.0602	1262.0302	1275.8173	1305.448	1318.6456	1350.081	1372.9573	1389.7022	1421.1862	1450.2499	1475.0013	1513.8832	2953.7143	3049.5303	3060.9551	3079.0635	3108.1204	3176.3452	3186.5962	3194.0615	3207.1886	3462.2864	3811.9705
OCCC1C2C3NC3C12	OCC[C@H]1[C@H]2[C@H]3N[C@H]3[C@@H]12	
InChI=1S/C7H11NO/c9-2-1-3-4-5(3)7-6(4)8-7/h3-9H,1-2H2	InChI=1S/C7H11NO/c9-2-1-3-4-5(3)7-6(4)8-7/h3-9H,1-2H2/t3-,4+,5-,6+,7-
