20
gdb 61798	2.40599	0.98109	0.88992	4.1942	78.44	-0.2508	-0.0271	0.2238	1425.7439	0.16712	-440.296658	-440.28584	-440.284896	-440.334403	37.026	
C	 0.0491768565	 1.5539023792	-0.0716885301	-0.400939
C	 0.0020463987	 0.0303815858	-0.0036566517	 0.097441
O	 0.6558209539	-0.4367693328	 1.1896297351	-0.198594
C	 1.9869869653	-0.635297394	 1.1339751012	 0.129765
N	 2.6255280973	-0.9417105147	 2.1777748932	-0.441035
C	-1.4282036325	-0.5497337938	 0.018838304	-0.072366
C	-1.4225134022	-2.080427926	-0.0900960488	-0.427551
C	-2.1546026238	-0.1097121806	 1.2851441932	 0.171044
O	-2.942623352	 0.8000917568	 1.3301883568	-0.256467
H	 1.0858989089	 1.903027875	-0.07453373	 0.121739
H	-0.4340993295	 1.9078547248	-0.9872705671	 0.127575
H	-0.4644223995	 2.001704496	 0.7823840586	 0.15263
H	 0.5206557039	-0.3938098708	-0.8762005531	 0.084507
H	 2.4033329771	-0.5177867692	 0.122966716	 0.085972
H	 3.6093067099	-1.0790910702	 1.9560052628	 0.230761
H	-1.9691142117	-0.1044785988	-0.8227741112	 0.099781
H	-0.8838392959	-2.5276371312	 0.7499233785	 0.147402
H	-2.4412480151	-2.4791150172	-0.096412563	 0.128675
H	-0.9329588224	-2.399639956	-1.0155934547	 0.121125
H	-1.9015375569	-0.6994550822	 2.1925315304	 0.098534
21.8984	59.1412	71.0215	114.837	177.6458	206.4199	216.8749	230.3391	287.3574	312.7841	376.1689	441.1924	511.7634	587.4611	617.4738	817.833	827.3963	895.5198	921.7914	964.0745	1006.7085	1035.867	1044.4939	1085.2742	1109.698	1144.1069	1155.0514	1176.8134	1276.6167	1301.409	1328.1447	1361.2329	1376.9884	1405.3803	1416.4792	1423.056	1432.5553	1486.7683	1491.4542	1498.0707	1503.8915	1745.2421	1827.5629	2904.3687	2992.9416	3013.3729	3041.5284	3046.0515	3063.9268	3109.3652	3116.4626	3123.3324	3134.1194	3519.7899
CC(OC=N)C(C)C=O	C[C@@H](O[CH][NH])[C@@H](C)C=O	
InChI=1S/C6H11NO2/c1-5(3-8)6(2)9-4-7/h3-7H,1-2H3	InChI=1S/C6H11NO2/c1-5(3-8)6(2)9-4-7/h3-7H,1-2H3/t5-,6+/m0/s1
