17
gdb 36268	4.56291	1.0108	0.94099	2.3135	77.11	-0.2345	0.0457	0.2802	1252.8881	0.134161	-384.562756	-384.554788	-384.553844	-384.596339	30.867	
C	 0.0357026737	-1.2111760439	 0.4428795867	-0.424801
C	-0.0414945827	-0.069163025	 0.0744374497	 0.263254
C	-0.1050262216	 1.3211269271	-0.3683251883	-0.376096
C	 1.2803062376	 1.9964238283	-0.3169721499	-0.013992
C	 1.9016854515	 2.9441624793	-1.3115561309	-0.127582
C	 0.9401947226	 4.0701782043	-1.7998412021	 0.016854
O	-0.357188996	 3.8863790225	-1.2123954092	-0.231833
C	 0.682282833	 4.4953278089	-0.4309019447	 0.016865
C	 1.6295793946	 3.3926595179	 0.1325810808	-0.127622
H	 0.088700476	-2.2210130681	 0.7658193678	 0.188665
H	-0.5088823543	 1.3640983402	-1.3835580947	 0.142956
H	-0.8167616325	 1.8713005384	 0.2532995531	 0.142919
H	 2.0410146533	 1.3060178036	 0.0408145528	 0.113393
H	 2.8574864361	 2.751545964	-1.7821379343	 0.096146
H	 0.9976138339	 4.6198416214	-2.731123427	 0.112367
H	 0.4829350816	 5.468281852	 0.0007634994	 0.112366
H	 2.3488526633	 3.5898542792	 0.9173514706	 0.096143
20.9868	134.1473	219.5163	223.3815	335.6599	409.3718	476.4961	496.8987	605.5891	638.6079	671.1941	725.164	732.0642	756.9745	813.7084	866.281	892.7632	910.125	948.3093	961.115	982.7144	985.7626	1008.0369	1042.0092	1048.6508	1088.0689	1182.9035	1231.493	1240.3184	1243.2355	1281.0706	1306.1571	1318.1181	1390.2372	1434.9994	1452.6549	2235.1375	3062.7615	3094.0138	3136.3496	3183.8697	3193.3603	3195.6481	3206.7218	3507.3048
C#CCC1C2C3OC3C12	C#CC[C@H]1[C@H]2[C@H]3O[C@H]3[C@@H]12	
InChI=1S/C8H8O/c1-2-3-4-5-6(4)8-7(5)9-8/h1,4-8H,3H2	InChI=1S/C8H8O/c1-2-3-4-5-6(4)8-7(5)9-8/h1,4-8H,3H2/t4-,5+,6-,7+,8-
