21
gdb 93000	2.60609	1.48829	1.10663	1.1303	83.99	-0.225	0.0206	0.2456	1166.535	0.183374	-387.095312	-387.086725	-387.085781	-387.127859	34.369	
C	 0.074583666	 1.5102391618	-0.0120472031	-0.47823
C	-0.0099238892	-0.0027607879	 0.0198528597	 0.304979
C	-0.8450885007	-0.6602132244	 1.1131716361	-0.317182
C	 0.6561297968	-0.7542316488	 1.1548547914	-0.059488
C	 1.4033831292	-2.0300311819	 0.8441608521	 0.105276
O	 1.4411505039	-2.8075067753	 2.0397831335	-0.435695
C	 0.7937850901	-2.8279782026	-0.3231503109	-0.3138
C	 0.3699806743	-1.9548611066	-1.4758389663	-0.093358
C	 0.0084093688	-0.6824106308	-1.3051956395	-0.095053
H	 1.006277953	 1.8478706473	-0.4803047126	 0.118068
H	-0.758570018	 1.9390317516	-0.5816129405	 0.115813
H	 0.0365146117	 1.9294174747	 0.9980051989	 0.114113
H	-1.3287212054	-0.0135225949	 1.8383157464	 0.107666
H	-1.4187605132	-1.5404018565	 0.8466647002	 0.11762
H	 1.1493916675	-0.1439210333	 1.9061301879	 0.086149
H	 2.4283661077	-1.7403644557	 0.5586407142	 0.065732
H	 1.9932846684	-3.5783166595	 1.8718293027	 0.277731
H	 1.5151746255	-3.583326894	-0.6598321987	 0.091594
H	-0.064982757	-3.3900317102	 0.0700022305	 0.120515
H	 0.3341087744	-2.4036204219	-2.4643862196	 0.086
H	-0.3099447238	-0.0883587012	-2.1589258726	 0.081552
126.1841	168.8292	219.3258	251.5453	281.7344	292.6697	362.9839	378.7311	436.0606	467.7238	524.5936	587.4218	664.7812	729.1746	750.1216	851.0155	878.1455	924.9535	941.6218	957.5026	971.5388	989.8217	1014.1793	1043.6989	1062.7172	1071.3066	1112.0273	1127.7153	1141.8842	1193.1703	1212.6216	1259.2051	1262.2204	1308.3118	1330.646	1373.0223	1406.9486	1417.5625	1428.3183	1443.6273	1482.9832	1489.6093	1499.2243	1503.2796	1711.7743	2956.051	3010.0632	3022.1613	3042.8191	3081.7789	3100.9977	3131.5136	3144.7417	3147.7968	3172.3105	3220.0954	3808.8998
CC12CC1C(O)CC=C2	C[C@]12C[C@H]1[C@@H](O)CC=C2	
InChI=1S/C8H12O/c1-8-4-2-3-7(9)6(8)5-8/h2,4,6-7,9H,3,5H2,1H3	InChI=1S/C8H12O/c1-8-4-2-3-7(9)6(8)5-8/h2,4,6-7,9H,3,5H2,1H3/t6-,7-,8-/m0/s1
