17
gdb 106903	2.8481	1.24895	1.06122	1.9016	69.5	-0.2351	-0.0217	0.2133	1154.4213	0.134269	-458.93818	-458.929175	-458.928231	-458.972265	32.782	
O	 0.1350367833	 1.3901461983	 0.1194528855	-0.405615
C	 0.0385819383	-0.0155608598	-0.0400446173	-0.17042
C	-1.3850145734	-0.4920072381	-0.0466480973	 0.314094
C	-2.1244581036	-0.9451418464	 1.1653932239	-0.330676
C	-1.9067155188	-1.9604318492	 0.0455217434	-0.252442
C	-2.8769375095	-1.6599925642	-1.0519549964	 0.402056
O	-3.6311546716	-2.3134629614	-1.7173583296	-0.325255
C	-2.4026407633	-0.1755622919	-1.147983823	-0.07388
O	-3.3095398513	 0.8564623511	-0.843211865	-0.431469
H	-0.39599862	 1.6374480778	 0.8840016216	 0.288415
H	 0.5188246904	-0.2340853349	-1.0003205008	 0.115832
H	 0.6017984376	-0.5561214774	 0.7385375955	 0.088753
H	-1.5210954478	-1.1417020158	 2.046842463	 0.12648
H	-3.1191282663	-0.5664360646	 1.3720115622	 0.142451
H	-1.3643094049	-2.8821774804	 0.216469295	 0.117505
H	-1.9062402721	-0.0176680116	-2.1186882725	 0.09628
H	-4.0346316669	 0.8049290686	-1.4757930581	 0.297892
67.2309	84.595	157.1202	204.9071	230.9483	282.6172	294.9625	360.6343	382.0245	484.0075	517.2993	602.4766	705.607	755.6128	817.1392	849.8613	926.4024	939.6854	986.9298	1000.9453	1042.5549	1068.5053	1096.9442	1109.8473	1136.4318	1153.9492	1196.2426	1234.0155	1278.8108	1305.8718	1353.4898	1384.2093	1421.4992	1436.8797	1494.0905	1507.0313	1881.6025	2968.6897	2986.342	3064.1388	3129.6235	3196.5948	3217.8435	3809.9453	3811.0585
OCC12CC1C(=O)C2O	OC[C@]12C[C@H]1C(=O)[C@H]2O	
InChI=1S/C6H8O3/c7-2-6-1-3(6)4(8)5(6)9/h3,5,7,9H,1-2H2	InChI=1S/C6H8O3/c7-2-6-1-3(6)4(8)5(6)9/h3,5,7,9H,1-2H2/t3-,5+,6+/m0/s1
