21
gdb 72154	2.62533	1.88377	1.76262	1.4822	80.11	-0.2384	0.093	0.3313	932.0284	0.18667	-387.093139	-387.086464	-387.085519	-387.123633	29.324	
C	-0.0175217552	 1.4948553699	 0.0079462264	-0.505399
C	-0.0250757512	-0.0184138847	-0.0453291536	 0.307805
C	 0.5942918049	-0.7307519117	-1.279065111	-0.244251
C	 0.6361407463	-2.1180230262	-0.5966197029	-0.070903
C	 1.6791303172	-1.7767828129	 0.4934643611	-0.201925
C	 0.7051161187	-0.8009467705	 1.1773851962	 0.037338
O	-0.2706757298	-1.7666206833	 1.6041184014	-0.265058
C	-0.7217678063	-2.1069312797	 0.2806943401	 0.06776
C	-1.3851015275	-0.7641754714	-0.0634236916	-0.232081
H	 1.0045743479	 1.8906618177	 0.0070746778	 0.112763
H	-0.5364215391	 1.9245450067	-0.856503513	 0.114886
H	-0.5168921616	 1.8637543994	 0.9106398763	 0.118308
H	-0.0513634014	-0.6587042078	-2.1580399321	 0.088608
H	 1.5910490355	-0.3798428121	-1.5595977659	 0.088255
H	 0.8039853575	-2.9979640352	-1.215671716	 0.06366
H	 1.9365902193	-2.5864850655	 1.1778121396	 0.101468
H	 2.5903872963	-1.3457873475	 0.0723503478	 0.089099
H	 1.0415400962	-0.1960507548	 2.0187591575	 0.0702
H	-1.3167307559	-3.0185114188	 0.3006135197	 0.073622
H	-2.0861500192	-0.4817038589	 0.7241973846	 0.098412
H	-1.8773442828	-0.6954727725	-1.0367457424	 0.087434
220.9226	242.5406	268.1915	388.9408	500.563	553.3404	556.3048	580.7423	640.3429	656.029	765.4695	815.8509	821.0389	877.1014	899.2115	912.6665	924.3674	938.3221	949.9387	959.1465	961.8731	1012.4193	1016.5656	1054.4786	1081.4645	1093.4751	1121.7259	1162.6658	1177.6123	1197.0287	1239.1307	1247.9244	1251.796	1263.9984	1269.5127	1280.8968	1297.0084	1335.7812	1352.591	1415.1046	1482.9019	1494.4139	1495.518	1497.7232	1532.9641	3022.265	3054.156	3065.9637	3071.201	3085.1479	3090.5167	3100.2926	3122.5177	3124.7456	3127.1738	3128.4467	3138.5197
CC12CC3CC1OC3C2	C[C@@]12C[C@H]3C[C@@H]1O[C@H]3C2	
InChI=1S/C8H12O/c1-8-3-5-2-7(8)9-6(5)4-8/h5-7H,2-4H2,1H3	InChI=1S/C8H12O/c1-8-3-5-2-7(8)9-6(5)4-8/h5-7H,2-4H2,1H3/t5-,6+,7+,8+/m1/s1
