19
gdb 108093	2.54274	1.53972	1.2561	1.0976	75.46	-0.2131	0.0798	0.2929	1093.1374	0.157745	-422.946248	-422.937638	-422.936694	-422.979494	32.321	
C	 0.1613900456	 1.1949555188	 0.2256422928	-0.258163
O	-0.2011928954	-0.0960346188	-0.2432825294	-0.28455
C	 0.5316787655	-0.5160229625	-1.3230793474	 0.338593
C	 0.4199715721	-0.1000573812	-2.7924257776	-0.312957
C	 1.3139891851	-1.3429636779	-3.0452551244	 0.02015
O	 2.6013939702	-0.983788526	-2.4649928824	-0.294813
C	 1.9604759239	-1.1081714821	-1.1959246564	-0.037172
C	 0.8266468134	-1.9652167384	-1.6728659158	 0.211639
C	 0.2349956466	-3.2693346672	-1.2517595355	-0.532415
H	 1.2219753911	 1.2339854415	 0.5080115448	 0.114647
H	-0.027513855	 1.9663837439	-0.5330454823	 0.117926
H	-0.4561570395	 1.3993918146	 1.1027041218	 0.128573
H	-0.5960000309	-0.2488282264	-3.1678373761	 0.106394
H	 0.8243328935	 0.8611690713	-3.1244139017	 0.09921
H	 1.387570549	-1.8289209359	-4.0159239815	 0.088305
H	 2.5500071241	-1.1177980745	-0.2879026074	 0.10668
H	 0.0408527508	-3.2631664003	-0.1744234088	 0.135864
H	-0.7190885985	-3.4599468226	-1.7561296765	 0.124437
H	 0.9072863884	-4.1059385963	-1.4706555562	 0.127653
88.1726	133.3975	164.6279	190.1503	211.4129	251.462	376.4141	408.6482	458.7348	559.3857	597.5947	690.0143	749.3307	785.4669	826.0195	909.9222	918.4277	924.5904	966.348	1016.2132	1041.1513	1065.1663	1095.7076	1124.8808	1129.7478	1158.8148	1177.2724	1181.3057	1209.716	1220.8182	1239.8424	1292.5746	1345.0845	1410.8563	1461.4352	1477.7607	1484.6488	1486.549	1493.7979	1504.643	1510.9567	2999.7641	3026.5562	3047.7871	3056.1357	3087.037	3102.041	3112.8465	3125.853	3142.9781	3201.9398
COC12CC3OC1C23C	CO[C@@]12C[C@H]3O[C@@H]1[C@@]23C	
InChI=1S/C7H10O2/c1-6-4-3-7(6,8-2)5(6)9-4/h4-5H,3H2,1-2H3	InChI=1S/C7H10O2/c1-6-4-3-7(6,8-2)5(6)9-4/h4-5H,3H2,1-2H3/t4-,5-,6+,7+/m1/s1
