20
gdb 89042	3.98485	0.69375	0.63309	3.7941	76.42	-0.24	0.0382	0.2782	1758.8751	0.169136	-440.301721	-440.291249	-440.290305	-440.339294	36.965	
N	-0.1052660571	 1.3523765129	 0.1216910849	-0.5225
C	 0.0591520379	 0.0077531704	-0.0639665089	 0.405591
O	 1.1579665152	-0.497638183	-0.1867771342	-0.35881
C	-1.2370645018	-0.7985977307	-0.1179926101	-0.305308
C	-1.0547296544	-2.2255460639	 0.4111269714	-0.19168
C	-2.282934742	-3.0835903269	 0.1962546919	-0.020901
C	-2.5188329907	-3.7523838476	-1.1479195536	-0.329727
C	-2.1674164811	-4.5746368133	 0.0682788499	 0.090672
O	-0.8878260512	-5.1247496724	 0.1875062144	-0.414035
H	 0.7093168532	 1.9417015428	 0.0654728854	 0.25776
H	-1.0121681788	 1.7834857315	 0.1458447702	 0.254859
H	-2.0369704112	-0.276885467	 0.4218456352	 0.092378
H	-1.5497775942	-0.8366308554	-1.1705265188	 0.127821
H	-0.1875203863	-2.6741897924	-0.0766040681	 0.138235
H	-0.8128321428	-2.1882236477	 1.4804693942	 0.102995
H	-3.1765068474	-2.7357275857	 0.7102848104	 0.079872
H	-3.5241466342	-3.8085703005	-1.5515288707	 0.106538
H	-1.7347392106	-3.6359108298	-1.8900310454	 0.115456
H	-2.9606996159	-5.1757501752	 0.5137282839	 0.08266
H	-0.8054948167	-5.8307279061	-0.4615306618	 0.288124
20.1281	55.7798	79.859	109.2621	138.0011	216.743	245.3956	287.3782	353.1588	421.1855	460.0854	517.7842	582.3239	608.8815	676.3709	758.5574	784.9999	831.5603	854.9122	908.7966	947.4746	989.1858	1042.5084	1060.6156	1070.6119	1084.9346	1132.7992	1143.2168	1178.2776	1216.7957	1238.4105	1251.0383	1295.4093	1305.2534	1343.5503	1393.109	1407.8811	1425.4491	1465.7099	1487.9729	1495.3133	1615.8739	1797.555	3017.5639	3036.8294	3056.9806	3090.3476	3116.3762	3125.559	3132.3496	3214.059	3601.2642	3739.3139	3811.3238
NC(=O)CCC1CC1O	NC(=O)CC[C@H]1C[C@H]1O	
InChI=1S/C6H11NO2/c7-6(9)2-1-4-3-5(4)8/h4-5,8H,1-3H2,(H2,7,9)	InChI=1S/C6H11NO2/c7-6(9)2-1-4-3-5(4)8/h4-5,8H,1-3H2,(H2,7,9)/t4-,5+/m0/s1
