19
gdb 111178	2.78453	1.16143	0.93483	1.4438	82.11	-0.2432	0.0331	0.2763	1308.3292	0.157378	-385.787149	-385.778416	-385.777472	-385.820707	33.373	
C	 0.1486766797	 1.5308569475	-0.1749080193	-0.379153
C	 0.0703689628	 0.0351846581	 0.1538082395	-0.22031
C	-1.3520298425	-0.4955130465	 0.1163121074	 0.022017
C	-2.0029817652	-0.8386458121	-1.2558733695	 0.031137
O	-1.1006406136	-2.0023970614	-1.3801989605	-0.31044
C	-1.5911084558	-2.0272975005	 0.0149750856	 0.016209
C	-3.0311123266	-1.777321307	-0.5425542732	-0.171529
C	-4.0934581231	-1.2573353829	 0.2890399912	 0.300803
C	-4.9898328916	-0.8380292176	 0.9728972883	-0.44736
H	 1.179662863	 1.892886965	-0.1192357535	 0.115297
H	-0.2200603737	 1.7355190922	-1.1858835979	 0.116518
H	-0.4516557997	 2.1257637861	 0.5225004826	 0.114578
H	 0.6822470848	-0.5400613269	-0.5468425932	 0.118374
H	 0.4829599965	-0.1391420732	 1.1560520164	 0.09526
H	-2.0124143376	 0.0261317133	 0.8153292915	 0.088952
H	-2.1580904368	-0.221319327	-2.1412800686	 0.099832
H	-1.2478290868	-2.8382835954	 0.6584233879	 0.099327
H	-3.3612101064	-2.5883427916	-1.1947942729	 0.112854
H	-5.7800510474	-0.4665229001	 1.5773814883	 0.197634
79.0206	119.4011	150.7872	196.1238	213.5084	304.9934	379.261	434.1733	499.9577	544.5315	633.547	641.2431	654.8044	736.0597	760.4981	829.7746	860.3439	894.1317	896.0859	908.9275	966.3115	1043.9972	1051.848	1068.6897	1078.7273	1134.6153	1141.3589	1164.3218	1187.048	1200.8053	1239.3088	1266.7712	1289.6429	1341.5979	1355.3329	1410.4387	1424.0989	1489.3283	1499.8342	1505.999	2231.6165	3025.8958	3030.9848	3070.666	3083.554	3096.5267	3103.7382	3106.4542	3112.3788	3119.2732	3502.5648
CCC1C2OC1C2C#C	CC[C@H]1[C@H]2O[C@@H]1[C@H]2C#C	
InChI=1S/C8H10O/c1-3-5-7-6(4-2)8(5)9-7/h1,5-8H,4H2,2H3	InChI=1S/C8H10O/c1-3-5-7-6(4-2)8(5)9-7/h1,5-8H,4H2,2H3/t5-,6-,7-,8+
