23
gdb 88100	2.33514	1.44915	1.05785	0.2604	93.01	-0.2095	0.0356	0.245	1261.786	0.205865	-351.170614	-351.161255	-351.160311	-351.20438	36.25	
C	-0.0584444011	 1.5377113992	-0.0102952104	-0.410055
C	-0.004720483	 0.0265930599	 0.0365148012	-0.045476
C	 1.2745001694	-0.7176502184	-0.246996357	-0.344902
C	 0.6991279749	-0.7054834103	 1.1616569171	 0.282504
C	 1.4030819584	 0.0382806695	 2.3073555931	-0.297636
C	 1.5863595881	-1.0237186087	 3.4238863689	-0.266167
C	 0.6320875432	-2.118479337	 3.0166814989	-0.17954
C	 0.1525545271	-1.9570756433	 1.7796228623	 0.283625
C	-0.7846301625	-2.8802257396	 1.0643965571	-0.508039
H	 0.8739180487	 1.9846333823	 0.3478929644	 0.116471
H	-0.2216184557	 1.891447179	-1.0344657868	 0.114741
H	-0.8727091633	 1.930141041	 0.6096546614	 0.115691
H	-0.9069172947	-0.4545024578	-0.3345662504	 0.076855
H	 1.2281073209	-1.6344204052	-0.8259106684	 0.105001
H	 2.1751729239	-0.1337150195	-0.4141644782	 0.105477
H	 2.3495436529	 0.4919877937	 2.0018452692	 0.094939
H	 0.7617448748	 0.8481245714	 2.6733808653	 0.102666
H	 2.6189165891	-1.3992565617	 3.4635183275	 0.102252
H	 1.3730012475	-0.6177563989	 4.4194961784	 0.098294
H	 0.402242596	-2.9634828054	 3.6575038138	 0.07956
H	-1.0099603355	-3.7602430746	 1.6724085632	 0.122548
H	-1.7339916717	-2.3852198512	 0.8249069383	 0.126843
H	-0.3643700475	-3.2296008744	 0.1129464111	 0.124346
77.4722	151.6828	172.6704	193.6323	203.2524	245.1843	274.1857	344.275	416.7917	444.631	514.2518	575.4329	638.8826	702.9272	772.46	821.0433	859.4737	876.1425	910.0175	918.2364	927.31	984.1591	1020.0693	1025.6639	1039.1439	1055.2569	1072.3875	1085.1304	1127.7728	1148.0075	1175.4413	1192.2527	1236.5417	1253.3808	1287.2817	1310.3912	1330.1734	1358.8497	1407.2526	1413.9382	1427.8971	1477.1911	1484.323	1489.0402	1491.289	1493.2594	1502.5032	1505.6153	1711.7706	3002.3444	3019.8469	3026.3109	3033.4073	3051.0235	3065.4396	3084.5141	3088.6869	3100.5324	3111.2007	3117.6719	3132.196	3182.7712	3202.4018
CC1CC11CCC=C1C	C[C@H]1C[C@]21CCC=C2C	
InChI=1S/C9H14/c1-7-4-3-5-9(7)6-8(9)2/h4,8H,3,5-6H2,1-2H3	InChI=1S/C9H14/c1-7-4-3-5-9(7)6-8(9)2/h4,8H,3,5-6H2,1-2H3/t8-,9+/m0/s1
