23
gdb 123264	6.36765	0.43044	0.41461	2.9692	81.36	-0.256	0.0806	0.3365	2639.1342	0.203096	-462.536375	-462.524871	-462.523926	-462.575109	38.852	
C	 0.0176328718	 1.2688063546	-0.0993586741	-0.228747
O	 0.0408231644	-0.1359039354	-0.0290387528	-0.229081
C	 0.7183394227	-0.6168855782	 1.1098131481	-0.050009
C	 0.6730878927	-2.13878258	 1.0871401814	-0.214367
C	 1.383055068	-2.7596773283	 2.2818782586	-0.051332
O	 1.285717646	-4.1655528351	 2.1802193253	-0.259843
C	 1.9246125085	-4.863432425	 3.2330257628	-0.070692
C	 1.8519900032	-6.3417175845	 2.8836904516	-0.05796
O	 2.4917241944	-6.610817688	 1.6524733526	-0.421526
H	 1.0331002167	 1.693685039	-0.150425546	 0.102873
H	-0.5248508154	 1.5426255475	-1.0074789219	 0.128149
H	-0.4948993327	 1.7140696768	 0.7686022972	 0.102678
H	 1.763641283	-0.2594322217	 1.1140724473	 0.084525
H	 0.2456901601	-0.2285559204	 2.0297571272	 0.084147
H	-0.3709197792	-2.4684203077	 1.0743293529	 0.118438
H	 1.1362400441	-2.4988518116	 0.1623495013	 0.115079
H	 2.4429765031	-2.4538272321	 2.3085696112	 0.089979
H	 0.9260841006	-2.4170053791	 3.2260067714	 0.088519
H	 2.9773918333	-4.5483407207	 3.3155478303	 0.094205
H	 1.4289746895	-4.6627030681	 4.1973607963	 0.086306
H	 2.3633876934	-6.9297367742	 3.6528869765	 0.10703
H	 0.7952858307	-6.6534396693	 2.8661296393	 0.09301
H	 2.1407229912	-5.9610933285	 1.0318491235	 0.288618
40.3353	51.1081	75.7282	94.5017	116.1903	134.9573	172.1354	219.5107	235.0857	286.7552	335.9503	414.0426	442.4321	519.4005	558.462	780.4553	866.9848	890.9395	908.581	981.69	1041.088	1063.2328	1083.806	1103.6047	1137.8541	1154.9159	1170.6667	1171.584	1195.0399	1225.9386	1237.2172	1240.9521	1264.7746	1299.849	1302.87	1304.824	1385.1401	1388.3725	1429.7056	1438.6348	1451.3649	1482.4038	1485.6687	1497.5462	1499.3237	1502.7044	1507.6862	1529.4673	1537.7696	2936.7241	2950.9017	2960.8827	2966.0452	2968.1802	2977.0562	2978.5202	3006.1988	3009.1487	3051.7773	3078.8882	3098.243	3114.3053	3792.7296
COCCCOCCO	COCCCOCCO	
InChI=1S/C6H14O3/c1-8-4-2-5-9-6-3-7/h7H,2-6H2,1H3	InChI=1S/C6H14O3/c1-8-4-2-5-9-6-3-7/h7H,2-6H2,1H3
