17
gdb 52180	6.97471	0.62062	0.5946	1.1948	70.8	-0.2514	-0.0367	0.2147	1766.7754	0.131714	-458.962282	-458.95296	-458.952016	-458.998347	32.16	
O	 0.0422538168	 0.0494135401	 0.7141929525	-0.233497
C	 0.1132900506	 1.1190762994	 0.1720466892	 0.13943
C	 1.4260794111	 1.767795948	-0.2345897409	-0.156697
O	 1.132190391	 2.9808470974	-0.8844120872	-0.255022
C	 2.2664061239	 3.7124489694	-1.2707772747	 0.139196
C	 3.048959092	 3.2095730114	-2.5301918058	-0.375117
C	 2.8986240438	 4.6302349922	-3.1020316706	 0.398908
O	 3.4194684963	 5.219089007	-4.0022239328	-0.281127
C	 1.9007129286	 5.0273589717	-2.0031618024	-0.372673
H	-0.7818364837	 1.7302801539	-0.0768249155	 0.099722
H	 2.037004946	 1.9254099284	 0.6703428462	 0.126818
H	 1.981637326	 1.0703104064	-0.8818766859	 0.128515
H	 2.9320102197	 3.8740500565	-0.4115776323	 0.084436
H	 4.067365385	 2.8336737442	-2.4102382861	 0.13278
H	 2.4602663358	 2.4865822811	-3.1060557789	 0.140736
H	 0.8679264766	 4.9946180404	-2.3665388616	 0.14789
H	 2.0720250504	 5.9768815425	-1.4924115134	 0.135702
39.8044	56.6435	73.0878	106.4344	149.6588	296.4312	325.2884	414.7221	432.7577	490.67	556.4474	656.8118	669.4361	742.5331	771.7789	906.6829	936.5735	995.0769	1027.3564	1044.9174	1092.4201	1114.75	1118.1515	1162.3481	1178.245	1219.7722	1238.2232	1240.3062	1278.8844	1340.979	1388.7028	1413.013	1415.4823	1440.1305	1484.3665	1846.8744	1900.9616	2901.9438	2968.1439	3002.0097	3009.9775	3052.9844	3062.8031	3122.6972	3128.4735
O=CCOC1CC(=O)C1	O=CCOC1CC(=O)C1	
InChI=1S/C6H8O3/c7-1-2-9-6-3-5(8)4-6/h1,6H,2-4H2	InChI=1S/C6H8O3/c7-1-2-9-6-3-5(8)4-6/h1,6H,2-4H2
