17
gdb 76257	2.51785	1.41143	0.98548	4.0477	73.35	-0.2497	-0.0297	0.22	1187.1071	0.134613	-455.1598	-455.150361	-455.149417	-455.194499	33.031	
C	 0.001974165	 1.5801965854	 0.056363187	-0.391036
C	 0.0237725173	 0.0613786456	 0.0149209689	 0.002531
C	 0.6749205496	-0.5895822819	-1.2482791186	-0.02925
O	 1.0846926925	 0.3060924032	-2.2471486267	-0.425622
C	 1.7818332721	-1.0920990242	-0.2966258321	 0.402362
O	 2.8299048423	-1.6504854332	-0.4454726329	-0.338007
N	 1.1022330675	-0.5775013528	 0.8117428152	-0.10601
C	 1.2974525318	-0.6003413175	 2.1826645451	 0.067516
N	 2.2832988924	-1.1862021192	 2.7251869619	-0.410217
H	 0.9748033023	 1.9902267102	-0.2218451487	 0.138627
H	-0.742009472	 1.96050645	-0.6495042054	 0.137135
H	-0.2637188809	 1.9399239482	 1.055408737	 0.117746
H	-0.9601503295	-0.3555198927	 0.2544434058	 0.094673
H	 0.0712618672	-1.4105575377	-1.6587835624	 0.101669
H	 1.9361177299	-0.0019303897	-2.5789941804	 0.305614
H	 0.4987380021	-0.0609108467	 2.708043579	 0.099905
H	 2.2333169605	-1.0883708072	 3.7379973672	 0.232365
63.1965	108.1166	141.6853	165.3445	180.9924	212.2048	244.7466	264.9462	373.2387	473.0211	486.3536	594.3625	661.0664	748.9739	818.5159	828.6902	853.7665	975.5967	1010.5635	1053.8902	1064.9871	1101.4035	1138.0739	1181.9592	1194.0714	1233.4699	1282.2709	1340.5681	1377.5284	1380.1199	1402.8433	1417.2332	1429.0863	1487.8398	1489.8784	1714.8056	1890.9744	3012.7155	3034.3594	3045.7385	3053.6136	3114.3263	3140.1894	3501.0077	3799.7598
CC1C(O)C(=O)N1C=N	C[C@H]1[C@@H](O)C(=O)N1[CH][NH]	
InChI=1S/C5H8N2O2/c1-3-4(8)5(9)7(3)2-6/h2-4,6,8H,1H3	InChI=1S/C5H8N2O2/c1-3-4(8)5(9)7(3)2-6/h2-4,6,8H,1H3/t3-,4+/m0/s1
