17
gdb 124263	2.65641	1.49162	0.96661	4.3094	76.82	-0.2409	-0.0318	0.2091	1183.1331	0.136096	-418.064826	-418.055995	-418.05505	-418.098717	31.817	
C	-0.0241412529	 1.5426934989	-0.036445243	-0.493604
C	 0.0513799077	 0.0221079075	-0.0282046964	 0.29589
O	 1.1255023498	-0.5516453805	-0.0490457485	-0.33119
C	-1.214717199	-0.7191722836	 0.005962406	 0.070525
C	-2.5078620239	-0.2152707687	 0.0316448533	-0.121695
N	-3.3294518303	-1.2780239639	 0.0577739074	-0.190931
N	-2.6716113979	-2.4642632887	 0.0519055563	-0.275401
C	-1.3853178389	-2.1408119152	 0.0202575462	 0.274791
C	-0.3319596403	-3.1984233978	 0.0041430145	-0.476651
H	 0.9872086588	 1.9492109013	-0.0643296417	 0.141837
H	-0.5841323412	 1.8993091006	-0.9079574844	 0.133792
H	-0.5398672403	 1.9105908382	 0.8574337242	 0.133934
H	-2.8840819272	 0.7957271521	 0.0327496313	 0.145588
H	-4.3353203944	-1.2819030367	 0.0805052712	 0.279297
H	 0.2980125698	-3.108608009	-0.8852205051	 0.142955
H	 0.3371766918	-3.0962115796	 0.8630650364	 0.142904
H	-0.8002567317	-4.1847291648	 0.0217251126	 0.127959
69.4369	125.6952	129.4621	174.8542	185.6397	285.2974	302.8097	409.0375	495.9247	529.9215	582.6449	629.651	674.3136	704.1847	724.076	816.2749	939.8731	944.8873	1011.2882	1042.7541	1069.0577	1073.3998	1082.358	1190.6167	1252.889	1345.4095	1376.8835	1391.2144	1416.2388	1469.1494	1471.5724	1474.1	1478.6435	1487.3641	1510.4576	1586.9456	1762.2395	3036.353	3051.8099	3098.4885	3110.8811	3139.6294	3153.2072	3260.5524	3671.8806
CC(=O)C1=CNN=C1C	CC(=O)c1c[nH]nc1C	
InChI=1S/C6H8N2O/c1-4-6(5(2)9)3-7-8-4/h3H,1-2H3,(H,7,8)	InChI=1S/C6H8N2O/c1-4-6(5(2)9)3-7-8-4/h3H,1-2H3,(H,7,8)
