17
gdb 48743	4.21202	1.24409	1.15503	3.7967	73.61	-0.2531	-0.0437	0.2095	1083.9507	0.135178	-421.769638	-421.762119	-421.761175	-421.80181	28.8	
O	-0.2088174386	 0.3236868984	-0.8477443728	-0.253084
C	 0.0254948845	 1.0891215099	 0.0529948534	 0.047449
C	 1.265270027	 1.887690501	 0.1850530415	 0.310906
O	 2.1067598321	 2.055671671	-0.9592408938	-0.246863
C	 2.6883972027	 1.4134195393	 0.1575773844	-0.0282
C	 3.1075778054	 2.4791360933	 1.195191908	-0.055781
C	 3.5559877231	 3.8605803663	 0.6313446682	-0.226246
C	 2.075340978	 4.3589172479	 0.6697801676	-0.228858
C	 1.6256552743	 2.9770858049	 1.2265979948	-0.119971
H	-0.6858153708	 1.2387858357	 0.8968634003	 0.075868
H	 3.0693140038	 0.4092394985	 0.0017347278	 0.12268
H	 3.5956346274	 2.0857410883	 2.086215326	 0.080856
H	 4.2190115299	 4.4013405539	 1.3098326697	 0.103758
H	 4.0117203416	 3.8274119067	-0.3593479655	 0.117014
H	 1.9066621806	 5.1766403296	 1.3737086902	 0.102877
H	 1.6476174704	 4.6291270289	-0.2970010729	 0.117014
H	 1.0347839186	 2.9371621465	 2.1422302832	 0.080583
90.9756	151.37	179.6903	226.5261	313.5125	375.2509	481.8247	608.3347	691.2034	731.1088	746.1078	799.2919	823.7227	858.7337	874.1787	891.0215	952.9195	958.2853	987.9558	1013.2289	1051.4137	1072.1925	1103.2559	1128.2075	1140.4659	1206.3796	1229.7062	1243.0366	1254.443	1278.3833	1285.4906	1310.4575	1400.5395	1430.1593	1463.2729	1482.414	1814.0531	2873.7988	3070.6638	3076.5161	3107.3197	3120.3185	3123.3805	3139.4031	3175.9085
O=CC12OC1C1CCC21	O=C[C@]12O[C@H]1[C@H]1CC[C@@H]21	
InChI=1S/C7H8O2/c8-3-7-5-2-1-4(5)6(7)9-7/h3-6H,1-2H2	InChI=1S/C7H8O2/c8-3-7-5-2-1-4(5)6(7)9-7/h3-6H,1-2H2/t4-,5+,6-,7+/m0/s1
