20
gdb 40572	4.16702	1.15323	1.08012	1.8543	81.8	-0.2392	0.0853	0.3245	1190.9391	0.173245	-365.936981	-365.929642	-365.928697	-365.969159	29.475	
C	-0.0994453234	 1.4694052853	-0.0940028009	-0.271314
C	 1.3162396442	 0.98569071	 0.0817702257	-0.269115
C	 0.1879448709	-0.0126844417	-0.0313126404	-0.009094
C	-0.2354639035	-0.806097662	 1.1749679414	 0.029685
C	-1.5505694204	-1.5707434988	 1.2206305135	-0.074135
C	-1.3312688583	-2.9554377065	 0.6982470183	-0.038279
C	 0.1262345504	-3.1140627349	 0.3075982886	-0.240519
C	 0.3816223988	-2.187777993	 1.5114636083	-0.036667
N	-0.9885777907	-2.6307873246	 2.1277765514	-0.168672
H	-0.5894272331	 1.9251211806	 0.7604121686	 0.112085
H	-0.3841362769	 1.8982663186	-1.0482952862	 0.112181
H	 2.0035607773	 1.0835026507	-0.7510725787	 0.111772
H	 1.7787858666	 1.1161823512	 1.0549433522	 0.111596
H	 0.1166083711	-0.5404812876	-0.9776762706	 0.082576
H	-0.1722791148	-0.179108209	 2.072780412	 0.07807
H	-2.5475883127	-1.1734051452	 1.3778791274	 0.090036
H	-2.1616505043	-3.6107454931	 0.4593192502	 0.093037
H	 0.4713215227	-4.1292912037	 0.5199196691	 0.111409
H	 0.4692848927	-2.8097382163	-0.6864226632	 0.096279
H	 1.2896491036	-2.2683100502	 2.1061151733	 0.079069
67.8563	152.1819	167.169	299.4364	377.4118	489.9338	504.9369	731.5536	757.1033	777.8306	785.9467	812.1119	819.2638	840.6288	886.2007	918.4037	934.7375	944.6391	981.8064	1010.5504	1028.6061	1041.0422	1059.6233	1064.5878	1071.692	1080.8465	1116.3779	1136.2832	1138.2355	1182.197	1198.2237	1211.8575	1215.1488	1229.4569	1265.215	1269.0165	1319.2271	1355.2979	1376.3702	1442.0052	1470.7205	1499.0079	1505.2325	3035.1303	3046.4747	3103.025	3128.4454	3132.7088	3134.9526	3149.9002	3168.8245	3181.5869	3206.6577	3221.9147
C1CC1C1C2C3CC1N23	C1CC1[C@H]1[C@H]2[C@H]3C[C@@H]1N23	
InChI=1S/C8H11N/c1-2-4(1)7-5-3-6-8(7)9(5)6/h4-8H,1-3H2	InChI=1S/C8H11N/c1-2-4(1)7-5-3-6-8(7)9(5)6/h4-8H,1-3H2/t5-,6+,7+,8+,9?/m0/s1
