19
gdb 48242	1.94563	1.33803	0.85162	2.9163	77.95	-0.2509	-0.0502	0.2007	1347.8191	0.156988	-423.028143	-423.0187	-423.017755	-423.063918	33.04	
O	-0.0169393564	-0.0378040717	 0.241999685	-0.245885
C	 0.0055376034	 1.1415467048	 0.0063205029	 0.158298
C	 1.273900699	 1.9628172785	-0.1252312331	-0.189168
C	 1.2218756645	 2.8876378009	-1.3262393364	 0.158317
O	 2.125250824	 3.0372866629	-2.1062574091	-0.245877
C	 1.4251204429	 2.8297410306	 1.1490114237	 0.020567
C	 1.6942338437	 2.1087671056	 2.5009036576	-0.233365
C	 2.7023939784	 3.2373701313	 2.8498556273	-0.218544
C	 2.7491040342	 3.6222846878	 1.346009295	-0.233379
H	-0.9385870446	 1.726438847	-0.0945750983	 0.080813
H	 2.1309034281	 1.2915372685	-0.2225029188	 0.114127
H	 0.2753457162	 3.4693170386	-1.4232472042	 0.080788
H	 0.562316415	 3.5003397358	 1.2397618079	 0.081925
H	 0.8433771289	 1.9534827059	 3.1676804512	 0.107999
H	 2.191504917	 1.1472692669	 2.34518063	 0.119917
H	 2.2421267504	 4.0215002965	 3.4570610607	 0.108053
H	 3.6419846428	 2.9415926339	 3.3204454712	 0.107521
H	 3.5807668071	 3.1405416569	 0.8242118278	 0.119896
H	 2.7455888156	 4.6827483891	 1.0851091395	 0.107996
54.6342	57.6765	82.039	117.99	192.7822	230.5524	275.8518	356.4615	402.5328	461.0729	567.0722	644.0395	768.9359	779.8692	888.8672	933.6528	938.5356	943.0232	955.6008	1005.3351	1013.4403	1071.6723	1101.1031	1107.0797	1159.2995	1208.096	1219.2148	1248.9816	1259.6017	1263.9601	1269.6112	1291.9897	1295.6694	1362.1464	1424.3117	1437.6485	1479.1347	1486.8426	1509.1226	1812.9447	1845.8757	2845.4962	2866.9017	3034.7757	3061.9223	3063.1903	3066.9126	3093.8507	3107.9692	3115.831	3128.5711
O=CC(C=O)C1CCC1	O=CC(C=O)C1CCC1	
InChI=1S/C7H10O2/c8-4-7(5-9)6-2-1-3-6/h4-7H,1-3H2	InChI=1S/C7H10O2/c8-4-7(5-9)6-2-1-3-6/h4-7H,1-3H2
