19
gdb 122335	5.09848	0.76427	0.68425	1.8181	75.19	-0.2096	0.0656	0.2752	1637.5519	0.160461	-456.357824	-456.348448	-456.347503	-456.393541	32.793	
O	 0.1001963594	 1.3180262502	-0.3250680532	-0.4243
C	-0.0105566476	-0.0708302578	-0.0301057277	-0.093384
C	-1.4886453711	-0.3763097017	 0.1379248691	-0.118012
N	-2.1939613295	-0.0384671732	-1.0847386155	-0.38638
C	-3.4700132802	-0.4613485019	-1.2781391988	 0.518798
N	-4.1002670249	-1.342956481	-0.6012923072	-0.37106
C	-5.3921093148	-1.5164405084	-1.2688481987	-0.176831
C	-5.4155949222	-0.4266458409	-2.3759558677	-0.107135
O	-4.083051322	 0.1236082458	-2.3496929607	-0.269957
H	 1.0073154325	 1.5056421695	-0.5814503323	 0.293217
H	 0.4004977907	-0.6817711047	-0.8467987689	 0.099902
H	 0.5224052269	-0.3281414752	 0.8972472676	 0.094848
H	-1.6370997225	-1.4394341249	 0.3415714541	 0.137833
H	-1.8814720256	 0.1809757915	 1.0011841335	 0.111682
H	-1.9575390948	 0.8571302364	-1.4844580012	 0.256642
H	-5.4772570389	-2.5269059284	-1.6896556362	 0.103065
H	-6.2182035672	-1.3954122797	-0.5592200766	 0.105173
H	-5.606414891	-0.8165178892	-3.3791775328	 0.114517
H	-6.1262188671	 0.3806975837	-2.1696040869	 0.111383
38.0071	72.6152	99.0373	114.8417	187.7154	250.6869	270.6446	304.2238	453.5251	488.501	571.6527	723.0351	738.175	768.0079	845.0649	880.1661	919.4579	934.9795	974.6424	1030.5395	1065.2926	1092.7819	1112.8453	1126.0398	1152.5355	1213.0873	1220.3733	1240.1744	1260.6289	1275.061	1303.9949	1338.0727	1370.269	1404.5988	1457.7133	1501.1738	1511.0947	1513.507	1523.1107	1543.9845	1747.7391	2987.5662	2998.3354	3013.475	3029.7986	3040.3812	3052.4872	3097.0287	3108.6311	3627.8854	3839.2554
OCCNC1=NCCO1	OCCNC1=NCCO1	
InChI=1S/C5H10N2O2/c8-3-1-6-5-7-2-4-9-5/h8H,1-4H2,(H,6,7)	InChI=1S/C5H10N2O2/c8-3-1-6-5-7-2-4-9-5/h8H,1-4H2,(H,6,7)
