17
gdb 78618	2.60581	1.66631	1.31789	3.3471	72.07	-0.2422	-0.0039	0.2384	1005.6862	0.135089	-421.801002	-421.79301	-421.792066	-421.833258	30.922	
C	 0.0019950109	 1.4847665187	-0.0280978302	-0.511597
C	-0.0260419523	-0.0147332736	 0.0084457265	 0.278224
C	 0.5064009583	-1.0170754922	-0.9639896163	-0.127264
C	 1.2263837475	-0.8339613046	 0.3918396825	-0.254243
C	 0.7545464625	-2.2025206094	 0.7689792501	 0.420128
O	 1.1978485216	-3.0927112681	 1.4398105267	-0.341497
C	-0.3985445004	-2.0989730095	-0.2529428457	-0.24322
C	-1.2450125875	-0.9116495464	 0.2942383133	 0.112967
O	-1.8239952271	-0.9832488207	 1.5652761634	-0.438934
H	 0.9591294061	 1.8610591266	-0.4026265673	 0.125646
H	-0.7892878473	 1.8679646566	-0.6814697303	 0.128985
H	-0.1569917156	 1.9020540813	 0.9716296567	 0.136494
H	 0.9258933664	-0.9567570084	-1.9557079896	 0.117897
H	 2.1752734493	-0.3536872343	 0.5889912251	 0.110747
H	-0.8498054745	-2.9854136336	-0.6891578175	 0.095222
H	-2.0546592929	-0.6583336408	-0.396900024	 0.097275
H	-1.1589051549	-1.2824730915	 2.1959877367	 0.293171
114.8476	173.8034	189.966	216.9324	277.5034	318.2503	419.1622	457.3759	536.6014	605.7095	650.9949	731.2235	776.1318	808.4651	828.1491	852.211	875.9	915.5037	950.0518	976.8401	1015.586	1052.1848	1095.8554	1106.0269	1129.101	1150.1811	1151.4416	1216.4527	1262.8592	1285.7878	1292.0779	1401.0512	1423.1258	1444.1622	1485.6616	1496.7109	1872.7538	3032.1846	3074.897	3097.8823	3105.0336	3169.3787	3215.6354	3249.3146	3796.1645
CC12C3C1C(=O)C3C2O	C[C@@]12[C@H]3[C@@H]1C(=O)[C@H]3[C@H]2O	
InChI=1S/C7H8O2/c1-7-3-2(6(7)9)5(8)4(3)7/h2-4,6,9H,1H3	InChI=1S/C7H8O2/c1-7-3-2(6(7)9)5(8)4(3)7/h2-4,6,9H,1H3/t2-,3+,4+,6+,7+/m0/s1
