16
gdb 105304	2.3959	1.40001	1.04707	1.7205	66.35	-0.2642	-0.0605	0.2037	1133.3842	0.122264	-475.003682	-474.994677	-474.993733	-475.037869	31.714	
O	 0.7773225469	 0.2750375506	 0.6719854942	-0.423099
C	-0.0615234547	 0.2688819897	-0.4614780472	-0.158835
C	-1.4111217441	-0.3579646815	-0.1446220385	 0.196365
N	-2.066444593	-1.1789549248	-1.1796205869	-0.367928
C	-1.5710594507	-1.8376855766	 0.0268282554	-0.138568
C	-0.4308915178	-2.8019816691	-0.1572729453	 0.164297
O	 0.7117362391	-2.5918721579	 0.1725944784	-0.242287
C	-2.328029468	 0.4480739839	 0.7265636979	 0.098283
O	-3.5195900416	 0.2529219285	 0.7820543597	-0.272866
H	 1.0181193377	-0.6512274243	 0.8222026419	 0.296438
H	-0.2047251438	 1.3155581904	-0.7540428966	 0.113901
H	 0.3799202939	-0.2523776464	-1.3197180025	 0.114769
H	-3.0756544633	-1.0456877053	-1.0900047284	 0.255876
H	-2.313079843	-2.1754372009	 0.7518080477	 0.133595
H	-0.717571268	-3.7687002091	-0.6207559997	 0.11498
H	-1.8345344297	 1.2433412227	 1.3189956999	 0.11508
69.7771	121.5936	138.1516	172.9107	192.896	236.3842	284.89	330.4743	394.0172	470.7906	581.2087	636.1236	727.0784	762.583	814.1147	894.9622	945.6511	969.2993	1022.1825	1038.5121	1082.6081	1110.6427	1119.9007	1196.5952	1236.6764	1295.0107	1330.9831	1389.686	1407.8819	1421.2578	1452.9871	1455.1345	1506.044	1798.8176	1812.005	2925.1356	2949.9737	3026.5896	3071.3657	3105.5564	3448.7365	3720.6889
OCC1(NC1C=O)C=O	OC[C@]1(N[C@H]1C=O)C=O	
InChI=1S/C5H7NO3/c7-1-4-5(2-8,3-9)6-4/h1-2,4,6,9H,3H2	InChI=1S/C5H7NO3/c7-1-4-5(2-8,3-9)6-4/h1-2,4,6,9H,3H2/t4-,5+/m0/s1
