18
gdb 84083	2.41825	1.58477	1.01092	3.559	75.22	-0.215	-0.011	0.204	1172.1643	0.146547	-439.130623	-439.121294	-439.120349	-439.164652	33.824	
C	-0.0115481039	 1.4467299523	-0.0623573544	-0.356091
N	-0.0328469152	 0.0026903925	 0.0387746326	-0.139618
C	-1.1837441822	-0.8331185487	-0.002539129	 0.352127
C	-2.5425022918	-0.2217703367	 0.0558743033	-0.496515
C	-0.8377962583	-2.1249927771	-0.0708909178	-0.247022
C	 0.6574508933	-2.2394075044	-0.0199102567	-0.005788
O	 1.2294798748	-2.9543730385	-1.0975441088	-0.432415
C	 1.1051069004	-0.7653844912	-0.0489120588	 0.369787
O	 2.2458473205	-0.3709467302	-0.1773488484	-0.397367
H	 1.0370992641	 1.7491956754	-0.0526813755	 0.169471
H	-0.470126978	 1.7967656338	-0.9942833471	 0.133316
H	-0.5280219126	 1.9147205506	 0.7816204831	 0.132233
H	-2.713707956	 0.4644713446	-0.7814771699	 0.139859
H	-3.303342442	-1.0034315965	 0.0165265884	 0.142997
H	-2.6867771974	 0.3523747627	 0.9786955471	 0.138869
H	-1.5210520702	-2.9604027711	-0.0822986309	 0.108334
H	 0.9794024966	-2.6693963965	 0.9462526935	 0.095721
H	 2.141787928	-2.6410917009	-1.1658956509	 0.292101
94.8985	114.4658	141.0791	176.8239	201.0748	250.4427	273.1182	323.1818	382.1112	430.8314	544.4705	558.8769	582.3532	651.2566	713.9215	740.0774	841.5677	934.7986	1000.1873	1031.2122	1065.6784	1080.1343	1101.7736	1152.1142	1173.7534	1221.4028	1253.1446	1314.4391	1344.3046	1394.6346	1416.29	1427.134	1454.4251	1474.8601	1487.0886	1497.0154	1511.9995	1710.872	1813.8053	2935.184	3025.9918	3032.5659	3079.8761	3086.9601	3135.0565	3143.3845	3249.9017	3756.0494
CN1C(C)=CC(O)C1=O	CN1C(=C[C@@H](O)C1=O)C	
InChI=1S/C6H9NO2/c1-4-3-5(8)6(9)7(4)2/h3,5,8H,1-2H3	InChI=1S/C6H9NO2/c1-4-3-5(8)6(9)7(4)2/h3,5,8H,1-2H3/t5-/m1/s1
