18
gdb 9760	3.47017	1.74257	1.61871	0.7881	69.38	-0.2495	0.0132	0.2627	904.6323	0.152315	-384.941654	-384.933417	-384.932473	-384.974085	30.573	
C	-0.0492401948	 1.3162833741	-0.2183260212	-0.250058
O	-0.1492194593	-0.0916496054	-0.0938583017	-0.271083
C	-1.4435254541	-0.6021495682	 0.1792603829	 0.434118
C	-2.0142009177	-0.0662658226	 1.4926433736	-0.43887
O	-2.3583524467	-0.2773482023	-0.8661097112	-0.290506
C	-2.5541369813	-1.4016834073	-1.7185381525	-0.133564
C	-1.9304987219	-2.5545984759	-0.9842785688	-0.096837
C	-1.3168682346	-2.1076354161	 0.1024618619	-0.116699
H	 0.9431325926	 1.520965491	-0.6275376474	 0.122507
H	-0.8078074527	 1.7115250803	-0.9036370209	 0.12467
H	-0.1376363157	 1.8298890678	 0.7490348557	 0.104426
H	-2.2496919723	 0.9975759581	 1.4095126512	 0.12805
H	-2.9370204155	-0.5970389494	 1.73737643	 0.123784
H	-1.2943519278	-0.2071228172	 2.3038930011	 0.120797
H	-3.6320236232	-1.5296559148	-1.887270673	 0.110963
H	-2.0837363797	-1.2400773917	-2.7011461323	 0.111016
H	-1.9792022735	-3.5775628376	-1.3354899992	 0.108499
H	-0.7495108518	-2.6752423128	 0.8273252918	 0.108786
96.6163	118.0238	185.7291	219.9907	244.925	310.9114	364.6286	387.7674	486.9776	548.4006	651.3924	737.8449	785.3223	824.0633	885.4707	912.9242	954.7487	958.4648	1038.1349	1048.3341	1082.9902	1101.5325	1142.8615	1175.2028	1176.3106	1199.1502	1209.5603	1255.1241	1366.4663	1374.5838	1398.9849	1465.5994	1482.3313	1486.6822	1503.608	1511.6096	1514.2573	1695.1336	2984.0824	3002.3915	3025.3471	3050.0945	3069.5711	3115.5761	3127.7663	3131.1703	3211.1091	3238.9734
COC1(C)OCC=C1	CO[C@@]1(C)OCC=C1	
InChI=1S/C6H10O2/c1-6(7-2)4-3-5-8-6/h3-4H,5H2,1-2H3	InChI=1S/C6H10O2/c1-6(7-2)4-3-5-8-6/h3-4H,5H2,1-2H3/t6-/m0/s1
