18
gdb 84561	2.93702	1.72649	1.44003	0.8876	75.28	-0.2286	-0.0091	0.2196	948.4313	0.150534	-401.905765	-401.898776	-401.897832	-401.936866	28.738	
O	 0.1825424359	 1.3735002179	-0.2765022343	-0.436608
C	 0.0547278743	-0.0244043244	-0.0075828158	 0.097493
C	 0.8265857995	-0.4156623832	 1.2307675499	-0.143309
C	 0.2103875359	-0.7424604466	 2.3707228068	-0.052469
C	-1.2668064731	-0.7299775151	 2.5149704834	-0.049625
C	-2.106055079	-0.188495898	 1.4285451629	-0.078305
C	-1.4029577631	-0.4815424516	 0.0895646931	-0.080243
C	-1.5966306181	-1.9782117341	 0.4538417598	-0.171831
N	-2.2131933174	-1.6515034734	 1.7846452777	-0.156688
H	-0.0250818166	 1.8388226804	 0.5414101244	 0.280309
H	 0.5026425831	-0.5126216859	-0.8823828131	 0.094177
H	 1.9105227912	-0.3839522661	 1.1704541158	 0.100002
H	 0.7887678864	-1.0088465296	 3.2511845122	 0.098404
H	-1.632114982	-0.586347422	 3.5271216127	 0.098545
H	-2.9243231613	 0.5061844524	 1.5898693842	 0.093919
H	-1.9579715797	-0.1568900487	-0.7910793682	 0.084989
H	-2.3493542591	-2.4776524875	-0.1589963959	 0.114703
H	-0.6998526772	-2.6030438344	 0.5063167244	 0.106539
119.5923	239.6712	304.7236	319.4485	379.529	432.0441	519.6514	539.0364	620.5729	715.8897	760.0169	772.9389	798.4492	831.0286	896.3524	924.329	949.3519	978.2706	995.1928	1008.0346	1024.3742	1055.3897	1072.4619	1087.7209	1122.7039	1170.2029	1181.3925	1227.995	1233.2035	1268.2726	1294.8943	1314.3299	1326.7773	1379.5012	1402.7189	1422.4446	1429.5734	1493.7105	1698.0384	3030.8608	3056.2508	3102.8549	3118.7894	3150.9009	3157.2252	3165.5951	3181.8478	3802.6324
OC1C=CC2C3C1CN23	O[C@H]1C=C[C@H]2[C@H]3[C@@H]1CN23	
InChI=1S/C7H9NO/c9-6-2-1-5-7-4(6)3-8(5)7/h1-2,4-7,9H,3H2	InChI=1S/C7H9NO/c9-6-2-1-5-7-4(6)3-8(5)7/h1-2,4-7,9H,3H2/t4-,5+,6+,7-,8?/m1/s1
