17
gdb 7758	3.29943	1.93829	1.30933	3.1137	72.21	-0.2519	0.011	0.2629	943.5944	0.142771	-363.886708	-363.878997	-363.878053	-363.919824	28.452	
C	 0.1591424497	 1.5289210811	-0.1295231391	-0.386919
C	 0.0043919343	 0.0258667779	 0.1051510037	 0.086949
O	 0.3412977367	-0.6241283828	-1.1349810127	-0.26898
C	 1.0259488413	-1.7998154697	-1.2047294114	 0.377028
N	 0.9509396699	-2.5406526007	-2.2290602004	-0.50655
C	 1.9637720957	-2.1606328742	-0.0738501995	-0.330146
C	 1.6841460759	-1.4370503429	 1.2068694534	-0.083416
C	 0.7943770319	-0.4556822369	 1.2819474637	-0.069371
H	 1.2096676595	 1.7821707078	-0.2974362822	 0.128762
H	-0.4205984437	 1.8330992473	-1.0047047405	 0.130579
H	-0.2015463556	 2.0881358659	 0.7390526499	 0.11851
H	-1.0619171934	-0.1873589413	 0.2819574184	 0.099424
H	 0.2933815253	-2.1385844852	-2.9005527683	 0.215607
H	 1.9203798942	-3.2458583065	 0.0617843025	 0.145352
H	 2.990099115	-1.9539210112	-0.4093765299	 0.143457
H	 2.2429995235	-1.7460971347	 2.0855927522	 0.10054
H	 0.5936588099	 0.0565409161	 2.2186721303	 0.099174
37.6613	55.4125	239.5534	263.1752	332.3003	455.2662	457.3799	505.4605	552.1463	564.4989	702.441	754.0293	860.1564	878.9296	912.6797	939.0434	970.5994	1003.18	1005.5832	1053.8504	1107.6283	1127.5714	1148.4539	1205.2428	1220.7416	1303.6115	1344.3433	1350.1995	1397.2912	1403.4389	1422.9684	1458.2897	1486.1061	1496.058	1743.1947	1747.558	2973.962	3015.1655	3044.3232	3077.2512	3120.6452	3128.5483	3159.5305	3181.3446	3462.2534
CC1OC(=N)CC=C1	C[C@H]1O[C]([NH])CC=C1	
InChI=1S/C6H9NO/c1-5-3-2-4-6(7)8-5/h2-3,5,7H,4H2,1H3	InChI=1S/C6H9NO/c1-5-3-2-4-6(7)8-5/h2-3,5,7H,4H2,1H3/t5-/m1/s1
