18
gdb 45685	3.78135	1.30323	1.01406	3.3412	80.33	-0.2106	-0.004	0.2066	1149.9498	0.150254	-401.983737	-401.976266	-401.975322	-402.015681	29.584	
O	 0.0389087313	-0.1268256831	-0.0338400328	-0.361746
C	-0.0073511941	 1.0864245117	-0.0261158242	 0.395223
C	-1.3161466046	 1.8836295054	 0.0589105212	-0.347004
C	-1.2277755514	 3.1910610022	-0.7266870011	-0.065824
C	-1.9317298603	 4.5066978913	-0.2443532357	-0.240559
C	-0.5652366713	 5.263824218	-0.3780122037	-0.323258
C	 0.0822665185	 3.9014700382	-0.4709392708	 0.300008
C	 1.1755315015	 3.2600308735	-0.0774120126	-0.173495
N	 1.1441904648	 1.8511064467	-0.0419640429	-0.322004
H	-2.1224045871	 1.2213516892	-0.2617023679	 0.128702
H	-1.474998634	 2.1029211157	 1.1242109435	 0.121465
H	-1.4092032764	 3.0170695903	-1.7953928501	 0.085046
H	-2.7618855584	 4.8729489416	-0.8517303	 0.10458
H	-2.2553673789	 4.4324057487	 0.7970541473	 0.107962
H	-0.502069339	 5.8381733376	-1.3093923388	 0.112748
H	-0.2679129866	 5.9160949845	 0.4472402814	 0.11208
H	 2.0950935703	 3.7221112973	 0.2638958984	 0.114119
H	 2.0033640258	 1.3226277612	-0.0317254812	 0.251957
104.6618	128.0689	256.6885	311.906	360.0688	448.9699	450.8188	528.6104	538.8582	638.5899	655.9403	737.3444	772.5187	814.7356	844.5387	866.4814	901.2123	926.6871	974.4334	1044.2921	1075.8993	1093.841	1120.927	1162.4296	1183.3954	1202.2552	1241.0285	1250.7388	1267.9012	1285.4587	1315.3756	1352.1208	1376.6235	1444.5623	1464.3477	1473.7018	1489.3567	1768.5231	1797.3371	3011.3522	3023.7216	3036.4336	3063.5056	3091.4345	3116.3267	3123.5945	3190.0004	3626.1419
O=C1CC2CCC2=CN1	O=C1C[C@H]2CC[C]2[CH]N1	
InChI=1S/C7H9NO/c9-7-3-5-1-2-6(5)4-8-7/h4-5H,1-3H2,(H,8,9)	InChI=1S/C7H9NO/c9-7-3-5-1-2-6(5)4-8-7/h4-5H,1-3H2,(H,8,9)/t5-/m1/s1
