14
gdb 27752	2.32767	1.46222	0.89806	6.0575	71.66	-0.2009	-0.0226	0.1784	1186.2672	0.100904	-473.873688	-473.865454	-473.86451	-473.906366	30.597	
O	 0.066632894	 1.3027363841	 0.1979614862	-0.41887
C	 0.0784276232	-0.0291762109	 0.0050468716	 0.434845
C	 0.1313201245	-0.7948495021	-1.1566276569	-0.451647
C	 0.1158613314	-2.1428768236	-0.7276929255	 0.300481
O	 0.1522854655	-3.2583888582	-1.4925616596	-0.429937
C	 0.0547166198	-2.1716477302	 0.6643002231	 0.129091
N	 0.0333864076	-0.836202357	 1.0766322307	-0.351968
C	 0.0150381893	-3.2291686595	 1.6249650899	 0.059545
O	-0.0386603412	-3.0418516719	 2.8337433304	-0.350294
H	 0.1033026521	 1.7438185975	-0.6565942918	 0.315146
H	 0.1748889597	-0.4235302684	-2.1693102951	 0.097285
H	 0.1921745696	-3.0039755532	-2.419471583	 0.304637
H	-0.0099248776	-0.5682375466	 2.0464951606	 0.284932
H	 0.036463042	-4.2498052001	 1.1933208195	 0.076754
135.9394	151.9648	220.9605	251.2786	285.8495	300.885	302.9524	424.4377	424.9902	521.483	584.7326	618.7698	676.7126	677.7011	688.9276	721.6094	876.2345	1021.9635	1032.1026	1114.8578	1178.5932	1206.6452	1262.3118	1277.2013	1384.0347	1404.3098	1491.5212	1549.4562	1613.3686	1642.8531	1732.4141	2928.856	3239.5701	3665.7863	3837.7335	3842.7387
OC1=CC(O)=C(N1)C=O	Oc1cc(O)c([nH]1)C=O	
InChI=1S/C5H5NO3/c7-2-3-4(8)1-5(9)6-3/h1-2,6,8-9H	InChI=1S/C5H5NO3/c7-2-3-4(8)1-5(9)6-3/h1-2,6,8-9H
