19
gdb 69474	4.34248	0.84185	0.80228	4.0965	78.6	-0.2648	0.0104	0.2752	1472.8302	0.157771	-423.024687	-423.015788	-423.014844	-423.059604	32.625	
C	-0.0041979253	 1.57629509	 0.0965074252	-0.499836
C	 0.0777841448	 0.083642891	-0.0327681638	 0.368355
C	-0.7557519215	-0.8691167746	 0.7768139442	-0.329876
C	 0.7468126829	-0.9628899031	 0.8698487585	-0.1263
C	 1.2685034604	-1.7157866872	-0.3510275923	 0.14326
C	 0.5989337939	-0.6610976149	-1.2767222761	-0.320604
O	 2.6929085906	-1.6532237169	-0.4683040009	-0.19559
C	 3.3923095435	-2.8007488981	-0.4072726648	 0.162724
O	 4.5847023115	-2.8354117994	-0.4670248971	-0.277466
H	 0.9352408346	 2.05477742	-0.2014088615	 0.125391
H	-0.8018595872	 1.9849676658	-0.5356969651	 0.122894
H	-0.2191461175	 1.8709870149	 1.1288656527	 0.120739
H	-1.2391573037	-0.4412537212	 1.6497137291	 0.116687
H	-1.3301074405	-1.6604522016	 0.2978812067	 0.104684
H	 1.2877189936	-0.8437725103	 1.8010095939	 0.099148
H	 0.9407451163	-2.7577135873	-0.4575108302	 0.08257
H	-0.1486410189	-1.0204245819	-1.991553187	 0.09814
H	 1.3722059377	-0.1040023715	-1.8099183797	 0.12799
H	 2.7449366348	-3.6937291734	-0.3047073019	 0.077092
23.6224	82.4151	145.7065	213.5835	267.9914	304.9421	348.849	360.1089	379.7348	439.4878	623.5391	657.3561	764.1663	807.8603	873.4736	898.818	936.0173	955.4363	996.5034	1029.1773	1035.5437	1044.3691	1048.0942	1080.0467	1096.2272	1134.3999	1172.5053	1203.4819	1237.8395	1245.3173	1271.7934	1295.6894	1375.887	1393.4741	1426.5022	1440.3513	1474.1269	1486.0703	1497.6772	1504.1731	1864.1514	2944.5267	3020.574	3022.9578	3048.5433	3083.0062	3096.9664	3099.2163	3119.356	3185.8997	3195.7389
CC12CC1C(C2)OC=O	C[C@]12C[C@H]1[C@@H](C2)OC=O	
InChI=1S/C7H10O2/c1-7-2-5(7)6(3-7)9-4-8/h4-6H,2-3H2,1H3	InChI=1S/C7H10O2/c1-7-2-5(7)6(3-7)9-4-8/h4-6H,2-3H2,1H3/t5-,6+,7+/m0/s1
