19
gdb 107679	3.11875	1.31275	1.09473	1.8979	70.56	-0.2463	0.0718	0.3181	1140.8867	0.160247	-460.134825	-460.126629	-460.125685	-460.167681	31.577	
O	 0.0433114752	 1.3967565329	 0.3110165123	-0.419737
C	-0.0268693469	 0.0633481846	-0.1567826839	-0.116502
C	-1.4036440164	-0.5262357831	 0.0249103571	 0.413666
C	-1.806305646	-1.1698409181	 1.3201809085	-0.353679
C	-1.6129790321	-2.0172231731	 0.0675051003	-0.134045
C	-2.8301602873	-2.5519154151	-0.6802767211	-0.106075
O	-3.3403871364	-1.6097352103	-1.6231170268	-0.223619
C	-3.5329479178	-0.3618323508	-1.0379451467	-0.003623
O	-2.3168979713	 0.2711215867	-0.6964467712	-0.306889
H	-0.676844965	 1.8703792736	-0.1207819918	 0.292387
H	 0.2463655082	-0.0026532132	-1.2219738145	 0.094165
H	 0.7036948374	-0.5151600522	 0.4170871515	 0.103051
H	-1.0632916237	-1.2294322622	 2.1077090414	 0.122691
H	-2.8231868596	-1.0356729907	 1.6757589117	 0.116483
H	-0.7268389221	-2.6425381432	 0.0231117438	 0.097041
H	-2.5632311561	-3.4354881796	-1.2638918917	 0.121015
H	-3.6312292186	-2.8379321846	 0.0193119906	 0.099472
H	-4.0105833341	 0.2824325517	-1.7785953296	 0.121898
H	-4.1796948774	-0.4486997032	-0.1451868999	 0.0823
86.8754	126.7022	157.8487	261.5058	354.3197	358.9077	395.9083	411.9448	435.1961	530.2436	568.0897	696.4584	760.4576	827.4592	876.409	909.0407	929.8049	964.5322	978.4388	1035.2201	1042.496	1064.1075	1084.7642	1087.4689	1101.2946	1157.4023	1194.2678	1205.3775	1260.9093	1275.2062	1307.4426	1326.8632	1378.6341	1397.6963	1404.9046	1436.228	1452.5058	1485.5677	1496.0504	1498.8298	1521.1123	2931.5702	2980.7665	2981.007	3081.7335	3101.5019	3112.2226	3131.1992	3153.85	3217.4203	3804.4801
OCC12CC1COCO2	OC[C@]12C[C@H]1COCO2	
InChI=1S/C6H10O3/c7-3-6-1-5(6)2-8-4-9-6/h5,7H,1-4H2	InChI=1S/C6H10O3/c7-3-6-1-5(6)2-8-4-9-6/h5,7H,1-4H2/t5-,6+/m0/s1
