18
gdb 45796	2.71041	1.65193	1.20433	3.1674	79.01	-0.2334	0.0018	0.2351	1050.9583	0.14966	-401.936208	-401.9286	-401.927656	-401.968575	29.96	
N	-0.0224032907	 1.2999790166	 0.0586989479	-0.49416
C	-0.0463124361	 0.0374649375	-0.046831715	 0.392978
C	-1.360892928	-0.6960358436	 0.0998161267	-0.356425
C	-1.3768355375	-1.7721015631	 1.1647589001	-0.099562
C	-0.5202727225	-2.7880506648	 1.2695070092	-0.034687
C	 0.6228460679	-3.0891368716	 0.3762709308	-0.100071
C	 0.4795846886	-2.9967516078	-1.1501962174	-0.339191
C	 1.3333390481	-2.0150452995	-0.4143818444	 0.129165
O	 1.1204330702	-0.6319564125	-0.2971503643	-0.253572
H	 0.9337344529	 1.6407703961	-0.0658447673	 0.216112
H	-2.0857854801	 0.0809923582	 0.3415871521	 0.14407
H	-1.6658450808	-1.1025776327	-0.8730163241	 0.131227
H	-2.1700333767	-1.6897948573	 1.9014416953	 0.101974
H	-0.6512564169	-3.4838370307	 2.094017739	 0.094814
H	 1.2699273816	-3.8812635051	 0.7390113721	 0.096074
H	 0.9795258813	-3.7390459624	-1.7628413488	 0.123058
H	-0.4841787773	-2.6870647727	-1.5296615017	 0.132963
H	 2.4045370658	-2.1434319147	-0.52229837	 0.115232
55.9065	150.3317	235.6113	297.9909	334.6397	440.4993	462.3338	517.4657	584.906	656.6695	680.7182	743.6433	775.5664	799.9708	838.9315	880.4939	917.0966	947.7053	977.8528	985.5883	1003.3147	1034.018	1056.7367	1077.8381	1131.4067	1138.955	1184.122	1211.0273	1254.1554	1291.9239	1323.8893	1343.8972	1397.2802	1427.1737	1434.334	1467.8535	1496.2553	1724.5147	1734.977	3028.5839	3131.0095	3147.2538	3149.0398	3160.6005	3173.1081	3181.098	3247.9425	3457.013
N=C1CC=CC2CC2O1	[NH][C]1CC=C[C@H]2C[C@H]2O1	
InChI=1S/C7H9NO/c8-7-3-1-2-5-4-6(5)9-7/h1-2,5-6,8H,3-4H2	InChI=1S/C7H9NO/c8-7-3-1-2-5-4-6(5)9-7/h1-2,5-6,8H,3-4H2/t5-,6+/m0/s1
