20
gdb 87463	2.78625	1.41907	1.29442	1.6014	80.11	-0.2248	0.082	0.3068	1095.3627	0.170351	-403.061819	-403.053377	-403.052433	-403.094358	33.387	
C	-0.2053706371	 1.3883672188	-0.0397749407	-0.318319
N	-0.002082133	-0.0510719022	 0.0778998968	-0.187343
C	 1.3800664265	-0.533881971	-0.1776865915	-0.374247
C	 0.7930255637	-0.5376893363	 1.1710488239	 0.400258
C	 1.1913120118	 0.050769545	 2.5383901283	-0.160754
C	-0.1728437414	-0.4837426663	 3.0766644823	-0.292479
C	 0.419579148	-1.6344669159	 2.1862544949	 0.328111
O	-0.0938448281	-2.8860489489	 1.9315227815	-0.471611
C	 1.7882621482	-1.3601266007	 2.8566498998	-0.255865
H	 0.6513381007	 1.9835163463	 0.3161004123	 0.100734
H	-0.3876265064	 1.6434725566	-1.0885194421	 0.122912
H	-1.0878668335	 1.6812479067	 0.5381443859	 0.122496
H	 1.4575568897	-1.4454273362	-0.7651646449	 0.117366
H	 2.1350851296	 0.2188088817	-0.4029103712	 0.107796
H	 1.6484866687	 1.0128389234	 2.7526262747	 0.085713
H	-0.2199338357	-0.684395605	 4.1500077025	 0.093359
H	-1.0766292437	 0.0092466155	 2.711178233	 0.096692
H	-0.8394343224	-2.7775277742	 1.3291324025	 0.291044
H	 2.6782122762	-1.6572101395	 2.297433053	 0.097883
H	 1.8627316683	-1.6130330577	 3.9167905091	 0.096255
127.9131	159.5954	176.6198	221.3658	270.0797	313.4829	371.8936	427.0323	471.9575	492.9982	606.0165	646.2495	676.2701	760.3252	806.9124	839.8636	915.1492	931.3593	947.7199	960.9463	1024.1608	1030.6868	1047.781	1058.5346	1106.1294	1107.8899	1112.1955	1147.4296	1160.4399	1170.382	1195.1215	1199.3601	1210.93	1228.1495	1305.7415	1386.0805	1441.9062	1450.0619	1488.5366	1492.69	1495.8044	1516.412	1550.2248	2970.2375	3056.5398	3062.3622	3066.5613	3086.7921	3100.6817	3127.1382	3131.954	3156.677	3172.6157	3793.5284
CN1CC11C2CC1(O)C2	CN1C[C@]21[C@H]1C[C@]2(O)C1	
InChI=1S/C7H11NO/c1-8-4-7(8)5-2-6(7,9)3-5/h5,9H,2-4H2,1H3	InChI=1S/C7H11NO/c1-8-4-7(8)5-2-6(7,9)3-5/h5,9H,2-4H2,1H3/t5-,6-,7-,8?/m0/s1
