16
gdb 128192	3.83625	1.14489	0.8898	7.35	77.77	-0.2118	-0.0262	0.1856	1253.3755	0.126064	-434.08886	-434.080523	-434.079579	-434.12201	30.682	
C	 0.0934631195	 1.4688619463	-0.0462106576	-0.349889
N	-0.1327731925	 0.0454251941	 0.1266778992	-0.365656
C	 0.5391179282	-0.7193839961	 1.0518293911	 0.519087
C	 0.6109693297	-2.0891135464	 1.0034263026	-0.383377
C	 1.2886795166	-2.8233423156	 2.0400494092	 0.369074
O	 1.4137586817	-4.0436752338	 2.0978311176	-0.410445
C	 1.858673012	-1.9401861271	 3.0852361113	-0.082335
N	 1.7890407795	-0.65027363	 3.1128062581	-0.182115
N	 1.1342938096	-0.055773157	 2.0884614916	-0.301883
H	 1.1493254487	 1.7256243522	-0.2156640557	 0.136022
H	-0.4823865778	 1.8071858975	-0.9088840487	 0.14891
H	-0.2709366679	 2.0358457663	 0.8190994845	 0.140818
H	-0.3835178819	-0.4623754362	-0.7059127993	 0.259104
H	 0.1517410177	-2.6293668036	 0.183825013	 0.096543
H	 2.3878663491	-2.4085162883	 3.9099711663	 0.133388
H	 1.0876577677	 0.9451686676	 2.1661978468	 0.272754
70.4199	155.3394	165.3965	215.9933	224.6346	362.1647	403.8941	439.8149	482.3389	512.3178	533.1888	612.3009	686.2679	737.5308	741.2669	844.1047	932.0402	948.6428	1034.0849	1063.7633	1130.203	1148.582	1183.6463	1245.5933	1308.1329	1355.3226	1393.7573	1456.8304	1477.4296	1491.6535	1521.6301	1542.577	1644.3425	1654.3242	1732.7357	2995.9139	3054.5039	3134.8895	3184.0525	3197.8742	3641.6742	3674.5532
CNC1=CC(=O)C=NN1	CNc1cc(=O)cn[nH]1	
InChI=1S/C5H7N3O/c1-6-5-2-4(9)3-7-8-5/h2-3H,1H3,(H2,6,8,9)	InChI=1S/C5H7N3O/c1-6-5-2-4(9)3-7-8-5/h2-3H,1H3,(H2,6,8,9)
