22
gdb 40716	4.64909	0.90405	0.89427	1.0224	87.39	-0.2222	0.0882	0.3105	1416.7063	0.19454	-367.150836	-367.142252	-367.141308	-367.184423	33.715	
C	-0.2489726542	 1.0400721638	-0.4776044563	-0.229153
C	 1.1194882047	 1.0510077647	 0.113508862	-0.219126
N	 0.3077316133	-0.1577052216	 0.1347954808	-0.078865
C	-0.2021991108	-0.6294986539	 1.4074343017	 0.074566
C	-0.7770607344	 0.3052040631	 2.531990941	-0.343126
C	-1.881849024	-0.7416390332	 2.7297313125	 0.389279
C	-2.148950143	-1.4861986952	 4.005715533	-0.314821
C	-3.2094559249	-0.588053647	 3.4038342471	-0.33363
C	-1.555116812	-1.3874481124	 1.3778928366	-0.316615
H	-1.0209926476	 1.5986100915	 0.0471383131	 0.111213
H	-0.3839634333	 0.9905672203	-1.5546807361	 0.114732
H	 2.0010058425	 1.023585892	-0.5214737027	 0.114324
H	 1.2455013221	 1.6010656367	 1.0449205531	 0.112105
H	 0.5765579671	-1.2654493545	 1.8401922036	 0.084914
H	-0.1232413145	 0.5182153222	 3.3821199848	 0.096206
H	-1.1725656935	 1.2515458895	 2.1485833437	 0.100148
H	-2.299512973	-2.5600844294	 3.9519099038	 0.110125
H	-1.6515348445	-1.1511803437	 4.9108120598	 0.108758
H	-3.4259715743	 0.3510553491	 3.903835275	 0.108114
H	-4.0748465313	-1.0563066991	 2.9449325951	 0.1098
H	-2.1974096809	-1.0127674006	 0.5732578888	 0.101395
H	-1.5183510834	-2.4784489022	 1.3226322895	 0.099657
53.6829	94.7785	165.207	249.0463	278.8527	310.9397	374.9279	435.3836	481.6886	530.6464	668.7042	775.4687	801.1307	821.4271	835.4855	868.0489	897.2915	909.4895	910.2479	926.0538	995.3799	1005.2767	1029.8149	1051.3275	1063.1007	1075.6535	1084.3262	1109.4402	1117.1052	1135.4543	1169.8798	1182.7619	1187.0567	1214.1395	1220.2337	1242.8976	1250.4084	1290.2177	1336.8455	1373.4453	1394.362	1464.198	1469.5351	1487.8173	1499.1133	1505.9811	1520.2099	3039.929	3044.6521	3051.4435	3092.003	3095.1698	3100.134	3102.6537	3117.163	3121.3732	3172.5362	3187.4715	3194.4328	3209.5424
C1CN1C1CC2(CC2)C1	C1CN1C1CC2(CC2)C1	
InChI=1S/C8H13N/c1-2-8(1)5-7(6-8)9-3-4-9/h7H,1-6H2	InChI=1S/C8H13N/c1-2-8(1)5-7(6-8)9-3-4-9/h7H,1-6H2
