18
gdb 15522	2.91969	1.79824	1.14936	3.7971	78.01	-0.2411	-0.0484	0.1927	1039.5274	0.15374	-347.846684	-347.838562	-347.837618	-347.879249	29.615	
C	-0.0166579033	 1.5084248493	 0.0895211807	-0.50068
C	 0.0412692706	 0.018129928	-0.014745335	 0.234933
C	 0.0359287525	-0.76057033	-1.1176119217	 0.152773
C	 0.0567679772	-2.2354055711	-0.7740395394	-0.301376
C	 0.4352060956	-2.243294044	 0.7258494632	-0.218524
C	 0.067756271	-0.8307513181	 1.2378662054	-0.289294
C	-0.0259609634	-0.3047355642	-2.5039581027	 0.057818
O	-0.0670578153	-1.0544956186	-3.4586686026	-0.276346
H	 0.8608575757	 1.887223462	 0.6284718242	 0.13715
H	-0.0652426969	 2.0103520027	-0.8779506491	 0.136766
H	-0.8921426187	 1.8142297692	 0.6766005124	 0.137405
H	-0.9320337686	-2.6780595529	-0.9521290697	 0.114199
H	 0.7562391571	-2.7955103964	-1.4006265821	 0.121003
H	-0.05980892	-3.0389745909	 1.2873837971	 0.102265
H	 1.5139464452	-2.3965058202	 0.8308511777	 0.108874
H	 0.7683475151	-0.4449907783	 1.9880324033	 0.108043
H	-0.9247200358	-0.8081089355	 1.7130412395	 0.115325
H	-0.0299540379	 0.7962299088	-2.6551488013	 0.059667
115.3783	136.2549	160.2628	189.7363	205.3252	313.4948	324.7244	505.1671	516.0593	582.5117	640.9778	756.3817	849.6526	879.9644	916.067	934.198	977.3705	1020.2922	1039.1085	1068.9012	1087.3761	1155.2515	1201.7687	1215.7519	1232.4423	1273.6971	1324.1471	1329.7707	1373.0657	1409.6096	1432.1498	1474.2199	1477.7664	1480.8096	1487.6897	1505.4307	1690.6635	1768.1643	2891.0999	2997.8994	3022.6468	3025.5255	3044.5391	3058.5582	3066.5771	3086.6651	3105.7369	3133.1186
CC1=C(CCC1)C=O	CC1=C(CCC1)C=O	
InChI=1S/C7H10O/c1-6-3-2-4-7(6)5-8/h5H,2-4H2,1H3	InChI=1S/C7H10O/c1-6-3-2-4-7(6)5-8/h5H,2-4H2,1H3
