15
gdb 50290	2.93095	1.34178	1.15074	2.3077	65.66	-0.2628	-0.0415	0.2214	1059.7653	0.112006	-457.751211	-457.743763	-457.742819	-457.783829	27.534	
O	 0.0605706849	-0.1023388377	 0.1377254783	-0.243318
C	 0.0452888783	 1.100624321	 0.1274027029	 0.145833
C	 1.2798331407	 1.9712620928	 0.08782878	-0.085526
C	 1.2351270145	 3.071567232	-1.0383728375	-0.272556
C	 1.3814009091	 4.3225084641	-0.1520865327	-0.0371
O	 2.3879003313	 3.9059476608	 0.8273718079	-0.282189
C	 1.4111631367	 2.9311253477	 1.3039884379	-0.06908
C	 0.377625698	 4.0448672164	 0.9913835475	 0.444066
O	-0.5675666515	 4.5552934818	 1.4993956541	-0.303312
H	-0.9173295673	 1.6638892925	 0.1449607938	 0.089291
H	 2.1596146677	 1.3308796343	 0.0121064588	 0.114399
H	 2.0676884874	 2.965582517	-1.7352194085	 0.13605
H	 0.2994466024	 3.0700048853	-1.6069366929	 0.126412
H	 1.5575556778	 5.2977889101	-0.5997432774	 0.115333
H	 1.61428206	 2.5247045419	 2.2919893779	 0.121696
76.0884	101.3363	165.9418	296.7925	355.9049	420.5489	447.2441	495.011	630.1684	698.8509	759.6638	861.411	871.0754	884.9076	895.9943	942.2983	945.5222	1036.7794	1044.4592	1062.5979	1079.7696	1147.8795	1163.7454	1217.0911	1228.9704	1261.0658	1296.217	1300.7761	1317.3637	1435.258	1481.2212	1833.0705	1928.7056	2858.9533	3061.3895	3107.3325	3127.26	3161.6737	3164.821
O=CC1CC2OC1C2=O	O=C[C@H]1C[C@@H]2O[C@H]1C2=O	
InChI=1S/C6H6O3/c7-2-3-1-4-5(8)6(3)9-4/h2-4,6H,1H2	InChI=1S/C6H6O3/c7-2-3-1-4-5(8)6(3)9-4/h2-4,6H,1H2/t3-,4+,6-/m1/s1
