20
gdb 41983	2.445	2.07569	1.62537	0.2304	76.96	-0.2207	0.0841	0.3048	927.4512	0.175044	-403.132805	-403.12588	-403.124935	-403.163939	28.502	
C	-0.098144297	 1.4420821246	-0.2431195034	-0.105462
O	 1.0469536834	 2.0489836792	 0.3477260767	-0.277952
C	 1.8993380447	 1.0709359255	 0.968789629	 0.092997
C	 1.8554429421	 1.2927096488	 2.4868438319	-0.21045
C	 0.3938070728	 1.2342652921	 2.947383392	-0.212089
C	-0.2893040004	-0.0844314209	 2.5227580544	-0.147594
N	 0.1076403951	-0.6873671459	 1.2454631121	-0.098257
C	 0.0346333348	-0.0581332374	-0.0677555305	-0.049047
C	 1.3492884515	-0.2998095028	 0.5918359821	-0.069635
H	-1.0083572995	 1.8525421529	 0.217267583	 0.099865
H	-0.1306909231	 1.6816399967	-1.3152989293	 0.103489
H	 2.9155572592	 1.1992299624	 0.5773091115	 0.075022
H	 2.4639397021	 0.5247821029	 2.9827998709	 0.093442
H	 2.2921169292	 2.2657415839	 2.7319220384	 0.102329
H	 0.3251995334	 1.3260136601	 4.0363282888	 0.091212
H	-0.1287067723	 2.0960601824	 2.5235722139	 0.117121
H	-0.0651129037	-0.8494572654	 3.2769732861	 0.107659
H	-1.3786873537	 0.0310415812	 2.5168238775	 0.105187
H	-0.3590712258	-0.6947040297	-0.8560049381	 0.094387
H	 2.0405072571	-1.0927615606	 0.3179242231	 0.087777
120.1176	184.2349	268.1893	336.5692	417.4115	472.7243	546.9475	601.7687	690.0774	728.1444	786.3887	805.4006	831.0731	857.7867	886.8207	915.7533	951.3669	972.8883	1008.0743	1027.8368	1044.1478	1059.9085	1099.6153	1107.6191	1123.8513	1141.6628	1198.2749	1218.2232	1231.0085	1289.4419	1320.0997	1321.5165	1335.3535	1343.6903	1363.1866	1377.1115	1380.8353	1394.0449	1427.5336	1477.6852	1486.0639	1497.3695	1522.4791	2995.0697	3019.4075	3021.4786	3022.7863	3034.8937	3050.3923	3064.3887	3080.2587	3099.7945	3133.2361	3143.3178
C1OC2CCCN3C1C23	C1O[C@H]2CCCN3[C@@H]1[C@@H]23	
InChI=1S/C7H11NO/c1-2-6-7-5(4-9-6)8(7)3-1/h5-7H,1-4H2	InChI=1S/C7H11NO/c1-2-6-7-5(4-9-6)8(7)3-1/h5-7H,1-4H2/t5-,6-,7-,8?/m0/s1
