18
gdb 85305	2.45336	1.83576	1.31997	5.0095	71.64	-0.2414	0.0118	0.2532	1004.1278	0.149816	-439.099653	-439.092215	-439.091271	-439.131409	29.403	
C	-0.2764055968	 1.5517724076	 0.1358015286	-0.401817
C	 0.0859295276	 0.0800399805	 0.00750449	 0.157738
O	 0.9290704964	-0.075408727	-1.1677880023	-0.257376
C	 2.1826775542	-0.5816426991	-1.0500139245	 0.472512
O	 2.8871351933	-0.697253967	-2.0128514339	-0.34005
C	 2.5529966609	-1.0039934417	 0.3621095709	-0.146262
C	 1.3996302419	-1.8667663328	 0.9346589037	-0.25138
C	 0.7862240766	-0.4811971324	 1.2429650974	-0.024144
N	 2.1594956302	 0.1397779976	 1.265684516	-0.329433
H	 0.6111041342	 2.1297662402	 0.4036485509	 0.14857
H	-0.6740467007	 1.9253135342	-0.8107320421	 0.133744
H	-1.0384690263	 1.6891090801	 0.9099732541	 0.112447
H	-0.8115366187	-0.5167505986	-0.1973720693	 0.093547
H	 3.588096525	-1.3395742224	 0.3968739579	 0.099564
H	 0.8657443513	-2.5528506588	 0.2698897278	 0.116055
H	 1.706762378	-2.3898251039	 1.8436252151	 0.10822
H	 0.1720415508	-0.3403103356	 2.1353319282	 0.082286
H	 2.5724398622	-0.0418293806	 2.1794638316	 0.22578
117.7154	167.5489	242.7648	273.6479	349.576	415.3161	444.6787	477.5847	536.0585	661.0248	733.2489	758.5496	824.0373	868.1999	898.8369	919.208	942.7165	964.0552	971.5821	1025.5667	1052.4382	1063.5706	1096.0503	1138.1675	1162.5907	1172.7008	1208.5524	1249.5828	1262.9954	1292.3642	1351.6676	1372.8666	1386.4544	1404.6613	1411.8282	1485.2928	1494.2506	1502.6021	1862.6534	3033.0886	3046.1654	3050.9229	3088.6823	3112.934	3119.9595	3137.0271	3141.0174	3468.4885
CC1OC(=O)C2CC1N2	C[C@H]1OC(=O)[C@@H]2C[C@H]1N2	
InChI=1S/C6H9NO2/c1-3-4-2-5(7-4)6(8)9-3/h3-5,7H,2H2,1H3	InChI=1S/C6H9NO2/c1-3-4-2-5(7-4)6(8)9-3/h3-5,7H,2H2,1H3/t3-,4-,5+/m1/s1
