14
gdb 129389	4.27016	1.12986	0.89503	4.291	66.26	-0.2262	-0.0126	0.2136	1202.6983	0.103497	-466.219804	-466.211955	-466.211011	-466.252401	29.567	
N	 0.2798487177	 0.3214981704	-1.1879030855	-0.552103
C	-0.0977438692	 0.1308370053	 0.1265173568	 0.252484
N	 0.4148018157	 0.6537502914	 1.1742183528	-0.501808
C	-1.270329262	-0.770829195	 0.2513825223	 0.376218
N	-1.9153820777	-0.9870587073	 1.3823742425	-0.258062
N	-2.8788700691	-1.8701225387	 0.995571325	-0.247983
C	-2.7626384346	-2.1292449613	-0.3189559593	 0.463639
O	-3.596331613	-2.9698935802	-0.9360501316	-0.418535
N	-1.7614790851	-1.4593261859	-0.8368095914	-0.434628
H	 1.2099467209	 0.6701790907	-1.3532944905	 0.244986
H	-0.0729112773	-0.3445124677	-1.8584521716	 0.263302
H	 1.2060411111	 1.2526926147	 0.9288310115	 0.198594
H	-3.5457372474	-2.2281486014	 1.6588025539	 0.291199
H	-3.3345495299	-2.999295175	-1.8649175848	 0.322698
62.7485	169.953	193.2618	341.3782	387.1823	397.707	402.5349	425.2947	484.9245	520.2811	548.3558	630.4933	646.7381	739.3512	764.2961	808.505	863.1492	1003.9991	1085.3064	1101.5251	1129.6334	1151.9122	1190.0458	1307.7459	1355.2769	1417.6921	1528.8372	1574.5008	1624.9096	1642.743	1722.7206	3447.4772	3577.881	3672.5292	3700.8973	3808.0485
NC(=N)C1=NNC(O)=N1	NC(=N)c1n[nH]c(O)n1	
InChI=1S/C3H5N5O/c4-1(5)2-6-3(9)8-7-2/h(H3,4,5)(H2,6,7,8,9)	InChI=1S/C3H5N5O/c4-1(5)2-6-3(9)8-7-2/h(H3,4,5)(H2,6,7,8,9)
