15
gdb 44833	2.71833	1.84557	1.46874	3.6784	67.01	-0.2773	-0.0096	0.2677	906.7876	0.115874	-453.975797	-453.969399	-453.968454	-454.00663	25.761	
N	-0.0456011057	 1.2695491085	-0.0281405234	-0.54999
C	-0.0297942963	 0.0149538964	-0.0066865992	 0.449692
O	 1.1010412969	-0.7916901724	-0.0043059006	-0.247981
C	 0.6036449481	-2.1333356322	 0.0143001457	 0.186429
C	-0.6305546262	-2.0632145291	-0.8863015658	-0.268454
C	-1.2148954529	-0.9405958429	 0.0149045222	-0.209266
C	-1.1209502625	-1.6494029366	 1.3590695414	 0.449692
N	-1.9234430955	-1.5947509728	 2.3222598984	-0.549989
O	 0.0517933191	-2.3921234128	 1.3089962368	-0.247978
H	 0.9035828707	 1.6479683334	-0.0427851047	 0.233497
H	 1.4170152803	-2.8261643335	-0.1801710826	 0.119148
H	-0.4029886681	-1.7429728259	-1.9036607247	 0.134624
H	-1.216122954	-2.9832528602	-0.8858928004	 0.134624
H	-2.175849126	-0.4904210318	-0.2042385354	 0.132455
H	-1.6056370877	-2.1793773381	 3.0978736623	 0.233497
141.365	162.9998	400.0749	422.7321	462.7809	493.3786	566.1699	659.4977	701.9093	741.4815	836.1596	853.6436	881.6658	883.0332	901.5375	914.6194	950.1002	967.001	973.7531	1008.671	1061.6101	1093.0462	1124.9467	1190.9739	1239.1258	1249.3329	1253.4388	1301.1153	1358.778	1372.132	1495.4978	1795.4913	1823.8731	3091.3951	3156.2517	3182.4084	3206.5358	3472.0024	3472.1419
N=C1OC2CC1C(=N)O2	[NH][C]1O[C@@H]2C[C@H]1[C]([NH])O2	
InChI=1S/C5H6N2O2/c6-4-2-1-3(8-4)9-5(2)7/h2-3,6-7H,1H2	InChI=1S/C5H6N2O2/c6-4-2-1-3(8-4)9-5(2)7/h2-3,6-7H,1H2/t2-,3+
