14
gdb 42505	6.27119	0.63486	0.58066	4.4578	70.93	-0.2946	-0.0568	0.2378	1752.9834	0.098373	-436.687966	-436.678619	-436.677675	-436.7239	31.392	
O	-0.0660977011	-0.1033206913	 0.0025462363	-0.341663
C	-0.0149417385	 1.0996028536	 0.0048998785	 0.298751
O	 1.1310191142	 1.8137771998	-0.003500564	-0.235077
C	 2.3347465333	 1.032104025	-0.0161741624	-0.06522
C	 3.4848106095	 2.042197317	-0.0202717953	-0.348147
C	 4.7837629697	 1.3757549821	-0.03340622	 0.250998
N	 5.8043170355	 0.8350296384	-0.0439658015	-0.291661
C	-1.1637104466	 1.9749221252	 0.017922199	 0.222197
C	-2.1538594684	 2.6548462715	 0.0288844115	-0.349722
H	 2.3687604825	 0.3859608583	 0.8650118702	 0.151064
H	 2.3554002606	 0.3941328505	-0.9037355414	 0.150971
H	 3.402919773	 2.6921578492	-0.8976565376	 0.169208
H	 3.4164829321	 2.683837084	 0.8643520037	 0.169196
H	-3.0310079259	 3.2555726367	 0.038671883	 0.219104
39.2291	52.3078	83.9937	154.654	155.6521	269.6699	294.6606	328.161	397.9887	488.3718	596.9098	608.4113	666.6929	705.5476	770.457	787.5897	893.3777	976.0089	1034.0452	1075.7525	1085.2075	1229.832	1242.8591	1296.0833	1306.1741	1410.6613	1470.7303	1512.9548	1799.4019	2239.794	2370.0352	3055.4481	3069.4082	3093.9881	3122.8554	3495.6744
O=C(OCCC#N)C#C	O=C(OCCC#N)C#C	
InChI=1S/C6H5NO2/c1-2-6(8)9-5-3-4-7/h1H,3,5H2	InChI=1S/C6H5NO2/c1-2-6(8)9-5-3-4-7/h1H,3,5H2
