16
gdb 80161	2.4197	1.65505	1.3683	3.8858	69.72	-0.2356	-0.0916	0.144	990.5782	0.123614	-437.883159	-437.87517	-437.874226	-437.915907	29.667	
C	-0.2967340311	 1.3626150497	 0.3140504481	-0.341199
N	 0.0553704467	-0.0199762831	-0.0046624535	-0.083188
C	 0.5379187104	-0.4464617787	-1.2929579718	-0.046018
C	 1.0447935432	 0.5920762063	-2.2845947114	-0.36029
C	 2.2017329344	 1.3005936105	-1.5809572921	 0.296664
O	 2.8025568167	 2.2698788189	-1.9525622067	-0.276239
C	 2.5251483539	 0.5082914301	-0.2737184958	 0.325361
O	 3.516698686	 0.6739837189	 0.3874871995	-0.292521
C	 1.4421116286	-0.5003479592	-0.0739021342	-0.162223
H	 0.2477252816	 2.1456447639	-0.2295891442	 0.128535
H	-1.3638000956	 1.4909306407	 0.1092451735	 0.13814
H	-0.1357516929	 1.5187938537	 1.3837898238	 0.147273
H	 0.0894756246	-1.3570085108	-1.6809302369	 0.111684
H	 1.4362862469	 0.1053068073	-3.1860257469	 0.148996
H	 0.2825497056	 1.3050863616	-2.6126767765	 0.145534
H	 1.666519031	-1.4011595398	 0.4882625451	 0.119493
77.9047	125.763	157.693	246.0702	316.5473	339.1605	421.7799	447.9922	502.283	624.8453	642.1999	701.0037	714.8318	732.038	846.6549	927.1293	970.4215	990.2078	1055.3332	1068.2493	1110.1608	1155.5934	1167.3197	1175.2904	1205.456	1272.3474	1292.0719	1327.7185	1384.9055	1442.9455	1460.2465	1494.9765	1504.4189	1830.1763	1857.0736	3011.6533	3047.8308	3085.0845	3094.0313	3121.2343	3145.1574	3166.6517
CN1C2CC(=O)C(=O)C12	CN1[C@H]2CC(=O)C(=O)[C@@H]12	
InChI=1S/C6H7NO2/c1-7-3-2-4(8)6(9)5(3)7/h3,5H,2H2,1H3	InChI=1S/C6H7NO2/c1-7-3-2-4(8)6(9)5(3)7/h3,5H,2H2,1H3/t3-,5-,7?/m0/s1
