23
gdb 64201	2.492	1.36202	1.29871	1.3135	85.26	-0.2487	0.0733	0.3219	1164.4337	0.204911	-388.276426	-388.267082	-388.266137	-388.309876	36.893	
C	-0.0995704141	 1.5444621027	-0.0121209167	-0.447522
C	-0.0193774651	 0.0200004608	-0.016403123	 0.335992
O	-1.3027095811	-0.5506788125	-0.1952663245	-0.478563
C	 1.1329192772	-0.5308143551	-0.9105769264	-0.278943
C	 2.0094216543	-0.6481932422	 0.3648502789	-0.296718
C	 0.7151435128	-0.5705409408	 1.2186663156	 0.362718
C	 0.7241500186	 0.035064965	 2.6433163654	-0.30137
C	 0.6946879474	-1.4059376206	 3.2213704848	-0.215097
C	 0.2256302759	-1.9125735955	 1.8315078867	-0.272529
H	 0.8791451021	 2.0002351425	 0.1662435172	 0.119571
H	-0.4595381736	 1.9114722687	-0.982066375	 0.102161
H	-0.7888491932	 1.8927867564	 0.7629650111	 0.122716
H	-1.7282240667	-0.1106187966	-0.9387720382	 0.272894
H	 0.8606740752	-1.5109600673	-1.3096715552	 0.106067
H	 1.494165845	 0.1035742463	-1.7251517446	 0.085395
H	 2.6179375797	-1.5496119263	 0.472002687	 0.097319
H	 2.6547045388	 0.2243445848	 0.5079631666	 0.096072
H	 1.5708781076	 0.6753678991	 2.9077514535	 0.088961
H	-0.2024900495	 0.5767836045	 2.8592642856	 0.10072
H	 1.6964940365	-1.7640894605	 3.4742838044	 0.099056
H	 0.0363627866	-1.5937020147	 4.0728191536	 0.093702
H	-0.8611343511	-1.9988836531	 1.7675020347	 0.118578
H	 0.674460757	-2.8315064358	 1.4438589883	 0.088821
102.0986	117.4395	186.0919	236.7741	244.6064	267.677	293.628	334.965	395.578	401.5853	478.7354	559.87	626.3335	702.1333	749.9507	791.9351	863.9746	885.688	895.2815	904.7317	929.9084	939.497	954.1338	970.6743	992.7645	1041.166	1089.2486	1154.8571	1175.1815	1183.4532	1185.2699	1202.9647	1211.6137	1224.7871	1252.9313	1258.6907	1266.959	1279.1818	1290.17	1294.6156	1373.9818	1403.9395	1472.3969	1473.4417	1484.455	1489.813	1493.3496	1495.75	1507.7695	3019.4772	3041.96	3046.302	3053.8677	3054.7226	3061.9388	3086.7472	3088.3857	3096.034	3105.7011	3111.9441	3117.6118	3123.9386	3804.9389
CC1(O)CCC11CCC1	C[C@@]1(O)CCC21CCC2	
InChI=1S/C8H14O/c1-7(9)5-6-8(7)3-2-4-8/h9H,2-6H2,1H3	InChI=1S/C8H14O/c1-7(9)5-6-8(7)3-2-4-8/h9H,2-6H2,1H3/t7-/m1/s1
