14
gdb 34905	2.00606	1.91626	1.20696	7.8832	69.91	-0.2727	-0.0046	0.2681	1010.5413	0.102093	-395.699399	-395.691813	-395.690869	-395.731926	27.742	
N	-0.3086570194	-1.1967426204	 0.0142085911	-0.319862
C	-0.1642347596	-0.0507716293	 0.0350402671	 0.320906
C	-0.0226065343	 1.3961365181	 0.0425274548	-0.187718
C	-0.277698974	 2.1306023772	 1.371677061	-0.052942
N	 0.7531752949	 1.652860893	 2.3073052943	-0.304272
C	 1.0815447912	 2.7323313338	 1.3621178936	-0.052967
C	 1.437649991	 2.0433202886	 0.0318003566	-0.187674
C	 2.604452424	 1.1762386364	 0.0141358596	 0.320814
N	 3.5501166096	 0.5133608494	-0.014886913	-0.319831
H	-0.6066345601	 1.8206944732	-0.7767862808	 0.140903
H	-1.2250193151	 2.528068827	 1.7093387038	 0.12576
H	 0.5749126434	 2.0699027428	 3.2192276692	 0.250168
H	 1.4279453546	 3.7026219419	 1.690694028	 0.125767
H	 1.5051901538	 2.7569542283	-0.7920774554	 0.140946
99.2581	100.3663	166.3733	216.21	333.4133	409.7072	451.1234	521.3378	599.0829	645.0053	731.7856	770.6785	843.669	845.8854	914.459	955.587	967.1102	1025.7433	1048.4036	1071.287	1104.2162	1107.0733	1162.3725	1235.0688	1248.6264	1307.3266	1341.7676	1353.5475	1382.9801	2364.4664	2365.1314	3090.8118	3102.7892	3208.9695	3221.251	3500.6076
N#CC1C2NC2C1C#N	N#C[C@H]1[C@H]2N[C@H]2[C@H]1C#N	
InChI=1S/C6H5N3/c7-1-3-4(2-8)6-5(3)9-6/h3-6,9H	InChI=1S/C6H5N3/c7-1-3-4(2-8)6-5(3)9-6/h3-6,9H/t3-,4+,5-,6+
