16
gdb 105580	1.97424	1.58756	1.30188	5.0014	70.36	-0.2526	-0.0061	0.2466	1064.4268	0.124925	-434.061215	-434.052489	-434.051545	-434.094738	31.526	
N	 0.1215549282	 1.5483966538	 0.0379133022	-0.501835
C	-0.0137373417	 0.1031589207	 0.026026294	-0.208925
C	 0.7836417044	-0.4915734693	 1.2028321605	-0.012225
C	 1.01997137	-2.0287468854	 1.1656151243	-0.126829
O	 2.443415836	-1.8123234196	 0.9243638107	-0.247473
C	 2.2987216314	-0.4480936655	 0.969129621	 0.438483
N	 3.1121207266	 0.486928738	 0.8031495227	-0.535634
C	 0.3379131077	 0.019281395	 2.4931659756	 0.287594
N	-0.0255108267	 0.3611157773	 3.535037075	-0.333885
H	 1.0927286358	 1.8116282049	-0.1027240121	 0.256416
H	-0.4306312403	 1.9676694409	-0.701076593	 0.237471
H	-1.0706859966	-0.1585899391	 0.1499294892	 0.125281
H	 0.3436998061	-0.3995485354	-0.8902907662	 0.095973
H	 0.852560243	-2.557092414	 2.1045870061	 0.149848
H	 0.5543310598	-2.5519042319	 0.3275893908	 0.133958
H	 4.0576275065	 0.1505570196	 0.6156114092	 0.241784
106.5647	117.9008	131.5773	171.8663	219.5883	286.5191	303.8362	387.599	424.3198	540.5138	562.9649	642.2817	712.8226	771.4845	836.8539	859.8288	904.6146	956.6965	969.6101	1013.0165	1029.1574	1092.6174	1153.1195	1157.6095	1207.7366	1222.2439	1247.5506	1334.3325	1366.6609	1423.8015	1508.6334	1510.5625	1661.2504	1826.3672	2364.2462	2940.3582	3061.0769	3076.4491	3147.1757	3487.0462	3502.8415	3594.2854
NCC1(COC1=N)C#N	NC[C@]1(CO[C]1[NH])C#N	
InChI=1S/C5H7N3O/c6-1-5(2-7)3-9-4(5)8/h8H,1,3,6H2	InChI=1S/C5H7N3O/c6-1-5(2-7)3-9-4(5)8/h8H,1,3,6H2/t5-/m1/s1
