23
gdb 65654	3.68727	0.9374	0.83815	1.6072	86.29	-0.2403	0.0818	0.3221	1477.4686	0.205379	-388.264403	-388.254898	-388.253954	-388.299386	35.733	
C	-0.0707307466	 1.5497254696	 0.4016378206	-0.457371
C	-0.0298850929	 0.0620496808	 0.0975058757	 0.385266
C	-1.3237300747	-0.5401006466	-0.4333210164	-0.28725
C	-1.7412863775	-0.0433381794	-1.8098281085	 0.168349
C	-3.0860499928	-0.5448234337	-2.3837991953	-0.298439
C	-3.4299111033	 0.95204959	-2.5052137218	-0.059518
O	-2.2213690169	 1.3286084397	-1.8156512688	-0.289041
C	 1.2667896288	-0.5194923682	-0.4189012829	-0.294061
C	 0.8180756421	-0.8076569015	 0.9953546419	-0.317469
H	 0.8958136767	 1.8944864898	 0.7832141507	 0.100655
H	-0.3222835765	 2.1345518952	-0.4867971385	 0.142366
H	-0.8284357841	 1.7714586327	 1.1626054127	 0.109514
H	-1.2142641661	-1.6311700181	-0.5021797156	 0.090699
H	-2.1459894928	-0.3471780388	 0.26918197	 0.094216
H	-0.9034062708	-0.1516305269	-2.5139319488	 0.072373
H	-3.0386126517	-1.1148876031	-3.312765221	 0.107434
H	-3.6961708401	-1.0878559742	-1.6581459965	 0.108234
H	-3.4501712275	 1.3377152431	-3.5332123617	 0.098581
H	-4.3276256117	 1.2993382014	-1.9808588278	 0.103569
H	 1.2202982001	-1.328724635	-1.1409805384	 0.102695
H	 2.107956185	 0.1503310656	-0.5630482419	 0.1085
H	 1.3544497174	-0.3288536826	 1.8080423736	 0.107062
H	 0.469574376	-1.8095059898	 1.2251358587	 0.103636
51.8403	74.551	111.3237	154.0338	227.8592	289.6046	294.0157	339.7947	392.007	428.4189	485.8057	721.0995	733.0955	786.5214	817.6459	859.0995	874.6278	886.0487	936.6374	953.4999	953.9455	972.1012	994.8212	1029.7025	1046.6813	1075.0746	1078.4114	1095.3402	1121.3738	1145.9755	1169.9082	1188.1675	1204.8903	1220.6307	1256.7782	1292.2558	1308.9979	1331.6617	1359.7961	1378.6527	1404.396	1426.6653	1461.44	1470.0295	1490.0479	1493.7109	1500.2951	1510.6454	1531.3411	2993.518	3006.849	3010.2014	3028.8169	3049.8492	3054.2687	3072.887	3089.5912	3119.7032	3122.6305	3127.6505	3129.5507	3199.8292	3214.2475
CC1(CC2CCO2)CC1	CC1(C[C@H]2CCO2)CC1	
InChI=1S/C8H14O/c1-8(3-4-8)6-7-2-5-9-7/h7H,2-6H2,1H3	InChI=1S/C8H14O/c1-8(3-4-8)6-7-2-5-9-7/h7H,2-6H2,1H3/t7-/m1/s1
