19
gdb 96579	2.55791	1.43839	1.04524	2.459	73.02	-0.2503	-0.0033	0.2471	1157.2772	0.160017	-460.138329	-460.129977	-460.129032	-460.171001	32.295	
O	-0.2359506101	 1.5327486427	-0.1615027839	-0.438294
C	 0.0098929218	 0.1385602481	-0.0226425464	 0.032259
C	-1.3949205114	-0.4916518288	 0.1360170314	-0.071688
O	-1.4465792914	-1.8938450305	-0.0149082701	-0.231521
C	-0.7152279868	-2.6854190391	 0.8889150552	 0.022228
O	 0.4071368666	-3.299707687	 0.3232118983	-0.226538
C	 1.5412854723	-2.4641720453	 0.0853641422	-0.135514
C	 1.4280639408	-1.5933658183	-1.1472143749	-0.063296
C	 0.7641550564	-0.4389775854	-1.1876025137	-0.06464
H	 0.6128864322	 1.9855629597	-0.1637002898	 0.285966
H	 0.5728037875	-0.0497809679	 0.9047830239	 0.072787
H	-1.8043413834	-0.1769042677	 1.1069843307	 0.101606
H	-2.0386045614	-0.0821523038	-0.6477921558	 0.124567
H	-0.4358193834	-2.0941490561	 1.7787964034	 0.073933
H	-1.3610692991	-3.5166548289	 1.1877904032	 0.113895
H	 1.7335277167	-1.8484429687	 0.9782284821	 0.095774
H	 2.3810860761	-3.1555231817	-0.0215809616	 0.111345
H	 1.8961784723	-1.9712470006	-2.0521498858	 0.097931
H	 0.6785038342	 0.1209265695	-2.1166905482	 0.0992
116.6977	168.7455	190.4081	264.5305	283.6272	314.2494	368.4491	385.5509	419.6922	499.5589	533.166	593.8591	625.7778	757.1487	869.4025	920.2125	939.7432	976.2297	999.1137	1011.7399	1035.1494	1077.1442	1095.4685	1111.3782	1157.3443	1205.094	1231.3319	1258.4082	1276.6543	1299.5537	1340.1447	1346.3675	1375.5817	1392.8317	1405.9171	1430.23	1448.438	1491.3548	1496.7595	1505.5378	1715.0689	2946.0201	2965.7472	2982.3057	3003.1041	3079.977	3090.1468	3095.0792	3146.4378	3171.3717	3825.6903
OC1COCOCC=C1	O[C@H]1COCOCC=C1	
InChI=1S/C6H10O3/c7-6-2-1-3-8-5-9-4-6/h1-2,6-7H,3-5H2/b2-1-	InChI=1S/C6H10O3/c7-6-2-1-3-8-5-9-4-6/h1-2,6-7H,3-5H2/b2-1-/t6-/m1/s1
