15
gdb 25076	3.40943	1.72691	1.15454	3.5815	77.3	-0.1851	-0.0296	0.1555	988.7133	0.115312	-416.837675	-416.830918	-416.829974	-416.86891	26.56	
N	-0.1382032638	 1.2819936984	-0.0184802303	-0.615489
C	-0.0566596973	 0.0167890582	-0.0246178399	 0.460672
O	 1.0983225322	-0.7603345167	-0.0264031244	-0.233324
C	 0.7409503773	-2.1052707908	-0.0338851692	-0.202773
C	-0.5987603403	-2.1928383363	-0.036471817	 0.346532
C	-1.7522544618	-3.0676225772	-0.0432044661	-0.222083
C	-2.8629169916	-2.307528273	-0.0414925801	-0.089947
C	-2.5315430202	-0.8272250662	-0.0332601218	-0.226396
N	-1.0858755141	-0.8846326656	-0.0307046677	-0.119905
H	 0.7865991422	 1.703332741	-0.0148417095	 0.224147
H	 1.5431245626	-2.8201258594	-0.0355942634	 0.151238
H	-1.7072181684	-4.1467992984	-0.0486752326	 0.124847
H	-3.8822839667	-2.6691427095	-0.0453428598	 0.12022
H	-2.9190008064	-0.297577114	-0.9150343757	 0.141127
H	-2.9225465439	-0.3064575702	 0.8522006276	 0.141134
103.4412	182.7656	291.9554	294.8859	459.2824	562.6105	629.8755	650.5292	652.275	668.0072	708.834	727.8063	764.4905	809.225	864.4825	940.97	948.4584	970.264	1012.4687	1063.0243	1087.5523	1146.9227	1181.9505	1190.1967	1267.5645	1285.8885	1364.7349	1382.9199	1429.5407	1505.0265	1611.1853	1707.1143	1789.7822	3003.8055	3024.349	3227.9347	3252.7477	3307.3527	3543.7865
N=C1OC=C2C=CCN12	[NH][C@H]1OC=C2C=CCN12	
InChI=1S/C6H6N2O/c7-6-8-3-1-2-5(8)4-9-6/h1-2,4,7H,3H2	InChI=1S/C6H7N2O/c7-6-8-3-1-2-5(8)4-9-6/h1-2,4,6-7H,3H2/t6-/m1/s1
