23
gdb 59388	2.683	0.96677	0.93925	0.9108	93.38	-0.2356	0.0575	0.2931	1451.9107	0.202495	-351.123396	-351.112617	-351.111673	-351.158677	40.688	
C	-1.489827714	 0.8813636612	-0.7708858422	-0.383958
C	-1.2285530023	-0.5190568917	-1.3477656963	 0.00665
C	-1.9972061114	-0.7284235934	-2.660705028	-0.387678
C	 0.262258898	-0.732593622	-1.5479973591	-0.000302
C	 1.1784897483	-1.1152738624	-0.4210620882	-0.336732
C	 0.9306182665	-2.1104577892	-1.5512808744	 0.121244
C	 0.1424119589	-3.3787124433	-1.2496318652	-0.463957
C	 1.995636876	-2.2965692955	-2.5030956456	 0.27596
C	 2.8768597977	-2.469972952	-3.3043286012	-0.463368
H	-0.9652384719	 1.0249624317	 0.1787809605	 0.114774
H	-1.145913542	 1.6590377192	-1.4629509456	 0.113186
H	-2.5591589893	 1.0407097751	-0.5973116895	 0.109208
H	-1.5938996261	-1.2505800122	-0.6163067919	 0.070167
H	-1.6619987758	-0.0168047614	-3.4243687203	 0.114598
H	-1.8450843269	-1.7364444187	-3.0577980209	 0.118589
H	-3.0722180852	-0.5784105237	-2.5162065966	 0.108972
H	 0.6950218711	-0.0472032924	-2.2737615392	 0.091109
H	 2.155451814	-0.6516035184	-0.3525832444	 0.120522
H	 0.7268328583	-1.3611459607	 0.535734125	 0.110348
H	 0.8103595569	-4.1516525703	-0.857043791	 0.127614
H	-0.6370035415	-3.2004271111	-0.5052216264	 0.117173
H	-0.3301940246	-3.7749470225	-2.1537444962	 0.127469
H	 3.6559147253	-2.6178784464	-4.0100223435	 0.188414
71.129	99.9228	132.8904	184.9584	221.4291	223.0243	242.2442	255.586	319.5449	336.4042	368.8196	439.8149	468.8929	541.9291	557.6053	582.7334	639.6369	689.5017	773.4776	858.2001	897.4605	929.1796	939.4774	952.1097	966.4514	978.8978	1059.9409	1068.1785	1104.6108	1113.7261	1142.705	1186.9848	1215.4122	1270.9487	1295.2063	1324.9243	1345.4235	1398.4309	1413.9719	1415.7413	1429.937	1484.312	1485.4786	1489.8956	1490.5706	1500.7852	1504.204	1511.7567	2230.3302	3025.3365	3025.9097	3030.9922	3041.2643	3090.5471	3097.3605	3103.4139	3104.558	3108.5373	3121.3185	3127.0585	3130.3461	3219.0853	3504.3693
CC(C)C1CC1(C)C#C	CC(C)[C@H]1C[C@]1(C)C#C	
InChI=1S/C9H14/c1-5-9(4)6-8(9)7(2)3/h1,7-8H,6H2,2-4H3	InChI=1S/C9H14/c1-5-9(4)6-8(9)7(2)3/h1,7-8H,6H2,2-4H3/t8-,9+/m1/s1
