23
gdb 96196	2.09721	1.47666	0.92748	0.9866	88.86	-0.2231	0.0249	0.248	1342.0889	0.20595	-388.308605	-388.299191	-388.298247	-388.342486	36.332	
C	 0.0628114543	 1.5791792149	 0.1141180468	-0.39502
C	 0.028306811	 0.0545948052	 0.0512125809	 0.133375
C	 0.4394504035	-0.4618530774	-1.3395277274	-0.294694
C	 0.1836245449	-1.9324439153	-1.6172909708	 0.318377
C	-0.5247064599	-2.2291762531	-2.9146488438	-0.477574
C	 0.5733702358	-2.9186433425	-0.8042105415	-0.152544
C	 1.3150532228	-2.7713028924	 0.5025388005	-0.257628
C	 0.7338488617	-1.744740897	 1.481439865	-0.065012
O	 0.8980857802	-0.3998054885	 1.0797687675	-0.255462
H	 1.0676697278	 1.9477787109	-0.116170018	 0.121351
H	-0.6391930703	 2.0162460271	-0.6020401654	 0.109767
H	-0.2023292084	 1.919394954	 1.1182847547	 0.120121
H	-0.9951689742	-0.296503697	 0.2669851475	 0.062627
H	-0.089274923	 0.1369229958	-2.090020768	 0.093241
H	 1.5083110802	-0.2371783515	-1.4674619972	 0.11389
H	 0.0294220419	-1.8175637647	-3.7688214382	 0.12176
H	-0.6486909461	-3.303187429	-3.0766317467	 0.117316
H	-1.5184765301	-1.7625748173	-2.9402938058	 0.119709
H	 0.3613765968	-3.9402377884	-1.1138538123	 0.07408
H	 1.3362063082	-3.7407224352	 1.0143548196	 0.096273
H	 2.3654946171	-2.5014249363	 0.3189106178	 0.113601
H	-0.3320607969	-1.9633097154	 1.6579446572	 0.084384
H	 1.2576540126	-1.8263083169	 2.4403787278	 0.098065
80.2339	119.301	198.1637	214.3389	229.2248	278.5209	331.7937	347.2146	350.3338	389.4376	457.8503	511.1246	546.1067	608.4098	785.7471	818.3254	841.0437	866.1253	903.5435	940.4852	966.0154	1011.359	1044.3771	1060.3942	1076.9924	1116.0448	1124.0622	1142.7157	1155.2237	1176.1842	1244.1632	1246.3455	1304.5122	1330.5403	1361.722	1369.6523	1381.4926	1396.7674	1407.7896	1412.688	1425.3908	1462.6908	1469.268	1480.2838	1485.472	1489.8508	1492.9316	1501.0507	1737.2039	2956.5435	2972.7515	3003.2942	3006.9802	3011.1085	3041.4812	3053.6075	3056.5271	3060.269	3063.3998	3109.2286	3113.4528	3124.0985	3138.5337
CC1CC(C)=CCCO1	C[C@H]1CC(=CCCO1)C	
InChI=1S/C8H14O/c1-7-4-3-5-9-8(2)6-7/h4,8H,3,5-6H2,1-2H3	InChI=1S/C8H14O/c1-7-4-3-5-9-8(2)6-7/h4,8H,3,5-6H2,1-2H3/t8-/m0/s1
