20
gdb 105975	3.84503	1.19941	1.17315	1.6113	82.66	-0.2074	0.0744	0.2818	1181.5841	0.169518	-365.907045	-365.898527	-365.897583	-365.939989	32.959	
C	 0.1434490113	 1.5229930866	-0.0803850995	-0.377162
C	-0.0914441943	 0.0207533039	 0.1260665862	-0.324746
C	 0.7171808646	-0.5392615842	 1.2465057498	 0.423191
C	 2.1797851324	-0.8786120118	 1.4136841661	-0.165199
C	 2.0560630079	-0.4334516979	 2.8881780936	-0.111048
N	 0.6020680862	-0.066363862	 2.7038129807	-0.255743
C	 1.0024953443	-1.4537360914	 3.1442087296	 0.365776
C	 0.4917528034	-2.0897101425	 4.3905679848	-0.522929
C	 1.0912334946	-1.936870994	 1.6691025232	-0.256282
H	 1.1844286977	 1.7238592979	-0.3530520519	 0.11495
H	-0.4988524129	 1.9156270962	-0.8741513403	 0.108752
H	-0.0737486987	 2.0730210519	 0.8398631682	 0.138995
H	-1.1543898332	-0.1641663338	 0.3307862774	 0.107804
H	 0.1502133861	-0.5353703356	-0.7891716341	 0.101326
H	 2.9937287317	-0.8996463583	 0.7025534316	 0.090671
H	 2.7068958663	 0.1169950552	 3.5583778314	 0.090609
H	-0.5381384823	-2.440934302	 4.260130319	 0.125814
H	 1.1104009453	-2.9459850918	 4.6818693033	 0.121606
H	 0.4997985766	-1.3638971991	 5.2098324021	 0.13348
H	 0.9419225932	-2.8914048773	 1.1828504089	 0.090135
85.6787	135.9675	175.2118	207.8368	240.5829	278.9838	340.5066	393.7707	562.1301	624.7651	674.5919	746.4103	764.358	782.6756	813.372	850.602	857.6446	888.6724	896.5673	941.3101	970.4726	991.4417	996.7188	1026.2026	1058.9547	1088.8008	1099.8491	1128.935	1155.6099	1193.3226	1244.6624	1261.6834	1294.1969	1349.0249	1395.5379	1407.7089	1436.5942	1459.7662	1470.0481	1478.1662	1490.9464	1497.0223	1509.9557	3015.3933	3026.0375	3039.5706	3050.4424	3088.9746	3106.8954	3108.9794	3117.4847	3170.1274	3203.3261	3215.1927
CCC12C3C4N1C4(C)C23	CC[C@@]12[C@H]3[C@H]4N1[C@@]4(C)[C@@H]23	
InChI=1S/C8H11N/c1-3-8-4-5(8)7(2)6(4)9(7)8/h4-6H,3H2,1-2H3	InChI=1S/C8H11N/c1-3-8-4-5(8)7(2)6(4)9(7)8/h4-6H,3H2,1-2H3/t4-,5+,6-,7+,8+,9?/m1/s1
