17
gdb 30343	3.10728	1.70182	1.15057	5.125	73.22	-0.2013	0.0412	0.2425	1038.3108	0.138951	-418.045375	-418.03803	-418.037086	-418.077357	28.075	
C	-0.0292572836	 1.5807903925	-0.0491590272	-0.409466
C	 0.0109287044	 0.0610498717	 0.0599665573	 0.004579
C	 0.7988539014	-0.6304675695	-1.0971143764	-0.10844
O	 1.5239679195	-1.7352461386	-0.5189319987	-0.270019
C	 1.5681977266	-1.4920302581	 0.810135171	 0.483147
N	 2.1618105459	-2.1037660117	 1.7895957137	-0.390676
C	 1.7068735627	-1.4036938763	 2.9063772593	-0.08591
C	 0.8470793143	-0.3935342422	 2.5655603322	-0.170435
N	 0.7888661318	-0.4452188767	 1.1772182098	-0.044316
H	 0.9833532823	 1.9936351626	-0.0793637971	 0.135389
H	-0.5577234431	 1.8813052969	-0.9594997373	 0.130379
H	-0.5573141298	 2.0200199421	 0.8019927495	 0.133857
H	-1.0145395901	-0.3301677684	 0.1138468744	 0.103802
H	 0.1511846079	-1.021055284	-1.8832116819	 0.132209
H	 1.5193125156	 0.0711659795	-1.5352357697	 0.120895
H	 2.0456436113	-1.671243079	 3.895625594	 0.109438
H	 0.3290527732	 0.3513062494	 3.1446859272	 0.125565
91.7526	137.9876	230.0292	264.034	308.6906	430.2379	507.7703	614.0015	625.2574	677.2925	696.7571	738.7478	756.9745	835.4034	901.738	941.4732	950.7435	1001.9061	1051.9502	1098.7784	1115.6091	1143.9635	1151.782	1186.4393	1247.8208	1293.7908	1305.7387	1364.0979	1392.1206	1393.0986	1413.8279	1487.9005	1492.8387	1499.1751	1515.0269	1522.6625	1628.3862	3003.5273	3032.5431	3041.3837	3113.9548	3120.5627	3125.9278	3251.1135	3287.458
CC1COC2=NC=CN12	C[C@H]1COc2nccn12	
InChI=1S/C6H8N2O/c1-5-4-9-6-7-2-3-8(5)6/h2-3,5H,4H2,1H3	InChI=1S/C6H8N2O/c1-5-4-9-6-7-2-3-8(5)6/h2-3,5H,4H2,1H3/t5-/m0/s1
