16
gdb 125604	3.27417	1.27055	0.92585	2.6893	80.08	-0.2566	-0.037	0.2196	1213.84	0.124983	-396.983866	-396.975002	-396.974058	-397.017644	31.413	
C	 0.0133275125	 1.4778091619	-0.0818120421	-0.497305
C	 0.0078079289	-0.0128682827	 0.0308274558	 0.293144
N	-0.0246446559	-0.782034096	-1.0602414376	-0.261621
N	-0.0197201456	-2.0387972343	-0.6083965185	-0.291308
C	 0.01507264	-2.102782136	 0.7554896867	 0.232601
C	 0.0265825358	-3.3270044274	 1.4609824302	 0.222321
N	 0.0360091673	-4.3305827761	 2.0402972637	-0.347272
C	 0.0341493424	-0.7925023137	 1.2146846656	 0.040019
C	 0.0735414687	-0.3220999305	 2.632642484	-0.521503
H	 0.9121746092	 1.9098726444	 0.3721792365	 0.134192
H	-0.017587401	 1.7712466982	-1.1326909498	 0.148157
H	-0.8501191454	 1.920482639	 0.427232898	 0.134065
H	-0.0414617107	-2.8074355429	-1.2578642909	 0.288349
H	 0.9632536016	 0.2877077057	 2.8261146667	 0.139539
H	-0.7980423769	 0.2976347561	 2.8717326709	 0.139535
H	 0.0868002792	-1.1645298355	 3.3283599207	 0.147086
104.7773	115.5973	121.2832	134.5397	232.9378	260.2878	302.3062	388.1015	471.5744	518.8642	532.1082	581.6696	693.1442	697.5358	717.8676	751.5776	962.75	1007.0504	1049.7198	1077.6698	1127.2382	1192.9502	1239.5253	1283.1116	1408.775	1413.9514	1421.8844	1473.3073	1479.6658	1487.664	1491.0584	1499.2819	1510.8337	1605.4406	2341.1555	3032.1581	3034.6304	3082.2152	3085.5303	3122.1661	3137.7872	3669.6487
CC1=NNC(C#N)=C1C	Cc1n[nH]c(C#N)c1C	
InChI=1S/C6H7N3/c1-4-5(2)8-9-6(4)3-7/h1-2H3,(H,8,9)	InChI=1S/C6H7N3/c1-4-5(2)8-9-6(4)3-7/h1-2H3,(H,8,9)
