15
gdb 42671	2.59234	1.72256	1.19859	3.0957	77.06	-0.247	-0.0004	0.2467	1010.9568	0.111894	-383.398594	-383.39141	-383.390466	-383.430242	28.344	
O	-0.0050125723	-0.0673769182	 0.0045460066	-0.323112
C	-0.0170697248	 1.1239125011	-0.0016360713	 0.46288
C	-1.0093785931	 2.2835669602	 0.0278813892	-0.242595
C	-0.0165020679	 3.1001970534	 0.9432858183	-0.072427
C	-0.0487391967	 4.3267442272	 0.0164917315	-0.318843
C	-0.0572762897	 3.1124444619	-0.9443651725	 0.274129
C	-0.0878892343	 3.0928950968	-2.3749299016	 0.102845
C	-0.1138036756	 3.093892349	-3.5774783154	-0.35687
C	 0.9521879475	 2.3032027584	-0.0143666546	-0.242595
H	-2.0962043827	 2.3273431464	 0.0389560704	 0.103374
H	 0.0074095351	 3.0490574777	 2.0297596033	 0.100025
H	-0.9549024021	 4.9382535931	 0.0311239916	 0.111441
H	 0.8447965292	 4.9562687847	-0.0076345585	 0.111441
H	-0.1366492396	 3.0889809363	-4.6391634294	 0.186933
H	 2.0373893968	 2.368718512	-0.0500686476	 0.103374
97.7011	169.5843	202.3795	334.8591	478.3662	478.8583	535.0372	537.2532	629.3197	641.1005	657.489	684.4436	789.4134	798.0827	829.2467	865.7757	938.312	984.0284	1015.1186	1020.4261	1043.9852	1083.4494	1087.2841	1119.6334	1132.8535	1184.3947	1203.3916	1229.8618	1260.7418	1291.8321	1519.7049	1921.0156	2234.7326	3054.1074	3114.8111	3139.5108	3150.6435	3155.8429	3501.2987
O=C1C2C3CC2(C#C)C13	O=C1[C@H]2[C@@H]3C[C@@]2(C#C)[C@H]13	
InChI=1S/C8H6O/c1-2-8-3-4-5(8)7(9)6(4)8/h1,4-6H,3H2	InChI=1S/C8H6O/c1-2-8-3-4-5(8)7(9)6(4)8/h1,4-6H,3H2/t4-,5+,6-,8+
