18
gdb 89693	3.65952	1.23337	1.12837	4.6932	76.31	-0.2715	-0.0004	0.2711	1128.3039	0.148663	-401.946282	-401.938493	-401.937549	-401.978383	30.509	
C	-0.0376757993	 1.5219230926	 0.0348867546	-0.414924
C	 0.0315704098	-0.002646711	 0.0414285491	 0.029547
C	 0.9487480284	-0.6096421522	-1.0751092289	-0.284494
C	 1.9569382334	-1.3199569455	-0.1366559062	 0.31938
C	 1.0503694903	-2.0559405885	 0.8832201706	-0.273782
C	 0.8078384556	-0.5781649869	 1.25050256	 0.056972
O	 2.2029748368	-0.3001461414	 0.8813563312	-0.317838
C	 3.1427899977	-1.9197657483	-0.715392777	 0.187159
N	 4.0652928773	-2.421698671	-1.1969894447	-0.334221
H	 0.9647113527	 1.9460502618	 0.1439663545	 0.137671
H	-0.4656675712	 1.8931612374	-0.90155996	 0.119974
H	-0.659720324	 1.8934087875	 0.8563808131	 0.115183
H	-0.9768913568	-0.4268846854	-0.0021578414	 0.079036
H	 0.4378010689	-1.3051047307	-1.7443226294	 0.117496
H	 1.4477885257	 0.1558180596	-1.6723744907	 0.127084
H	 0.2244116458	-2.6619224889	 0.5051333806	 0.110572
H	 1.6362945959	-2.5824350151	 1.6355133199	 0.132683
H	 0.5469364528	-0.2461848841	 2.2543386448	 0.092503
120.2025	150.1942	215.3599	238.3999	296.654	401.4365	452.8101	505.4547	536.7744	542.34	607.2921	698.9715	800.081	837.2298	849.8278	890.7138	918.6938	946.711	974.9202	1000.4167	1029.0886	1049.1242	1114.1114	1135.701	1149.1334	1188.5577	1212.2751	1226.7436	1253.9956	1273.573	1301.8859	1322.8869	1372.2981	1406.5973	1480.4419	1494.877	1498.1859	1504.5748	2363.0665	3034.5399	3052.3108	3076.3225	3081.1698	3100.5186	3117.277	3130.9728	3138.8234	3161.9474
CC1CC2(CC1O2)C#N	C[C@H]1C[C@@]2(C[C@H]1O2)C#N	
InChI=1S/C7H9NO/c1-5-2-7(4-8)3-6(5)9-7/h5-6H,2-3H2,1H3	InChI=1S/C7H9NO/c1-5-2-7(4-8)3-6(5)9-7/h5-6H,2-3H2,1H3/t5-,6+,7+/m0/s1
