16
gdb 28050	5.58319	0.92684	0.79883	4.0686	75.31	-0.2061	0.0039	0.21	1379.4347	0.124477	-437.946038	-437.937633	-437.936689	-437.979497	30.494	
C	 0.0349119497	 1.5160998853	 0.0126819288	-0.488618
C	-0.0703082791	 0.0335831491	 0.0188158803	 0.403593
C	-1.1148516855	-0.8258413559	-0.1295722659	-0.417652
C	-0.5651739269	-2.1480064227	-0.0247887196	 0.330706
N	-1.3065255184	-3.3309296409	-0.1214683378	-0.404051
C	-0.7918205298	-4.5906927687	-0.022949575	 0.140304
O	 0.3773390034	-4.8505991335	 0.1615793883	-0.31029
C	 0.7739753618	-1.9983747165	 0.1797842084	-0.094727
O	 1.0785603573	-0.6660410732	 0.206783782	-0.183442
H	 0.7015765259	 1.866661891	-0.7831880766	 0.14174
H	-0.950504407	 1.9594242448	-0.1458853501	 0.13418
H	 0.4326679982	 1.8929849755	 0.9616226392	 0.141741
H	-2.1477936276	-0.5584556591	-0.2931272096	 0.10374
H	-2.2983920667	-3.2427068799	-0.2760229765	 0.255514
H	-1.5789824531	-5.3609289754	-0.1329222691	 0.081374
H	 1.5799709778	-2.69320967	 0.3147226332	 0.165889
66.033	115.6626	162.2767	183.4266	259.7804	270.501	403.2409	404.471	536.3016	562.9304	627.0246	665.5901	710.7968	734.1428	781.5045	869.5909	946.1597	994.4711	1010.2875	1023.5811	1063.9377	1135.0934	1159.1363	1195.3437	1237.4244	1301.1499	1384.1843	1416.5115	1430.3072	1472.3221	1490.4643	1548.3839	1598.0848	1666.2735	1799.6048	2950.8807	3032.2618	3083.4855	3130.0102	3245.7197	3335.5238	3635.4108
CC1=CC(NC=O)=CO1	Cc1cc(NC=O)co1	
InChI=1S/C6H7NO2/c1-5-2-6(3-9-5)7-4-8/h2-4H,1H3,(H,7,8)	InChI=1S/C6H7NO2/c1-5-2-6(3-9-5)7-4-8/h2-4H,1H3,(H,7,8)
