21
gdb 86441	1.77782	1.70935	0.92959	2.0484	80.09	-0.2389	-0.0138	0.2251	1297.621	0.181733	-424.2705	-424.261309	-424.260364	-424.304276	34.955	
C	 0.0005188198	 1.5187264367	 0.0780441386	-0.401575
C	 0.0271226086	-0.0009483846	 0.017761812	 0.123549
C	 0.7114538587	-0.5349644555	-1.2592161237	-0.296609
C	 0.8734843844	-2.0448892913	-1.1920065907	 0.358988
O	 0.5655187702	-2.7837981494	-2.0978403476	-0.3072
C	 1.4305688457	-2.540815121	 0.132515688	-0.296609
C	 0.698742133	-1.8742961685	 1.3175626445	 0.123549
C	 1.3345878194	-2.2023704707	 2.6598818575	-0.401574
O	 0.711687578	-0.4612904083	 1.1739738325	-0.266711
H	 1.0200752615	 1.9166321456	 0.0741440026	 0.12493
H	-0.5367862796	 1.9285477821	-0.7821120886	 0.119565
H	-0.4957188022	 1.8535598863	 0.992702009	 0.126012
H	-1.0081227183	-0.3844503144	 0.0395727766	 0.074765
H	 0.1490677942	-0.2729046371	-2.1587811424	 0.117556
H	 1.7094109428	-0.0807806848	-1.3253516537	 0.119269
H	 1.3526645834	-3.6301504414	 0.1705992821	 0.117556
H	 2.4919019027	-2.2634085948	 0.1890239637	 0.119269
H	-0.3487452196	-2.2236513122	 1.3156870688	 0.074765
H	 2.3697686374	-1.8480451042	 2.6862209129	 0.12493
H	 0.7840666885	-1.7161295943	 3.4694870107	 0.126012
H	 1.3314111513	-3.2823679983	 2.8334162472	 0.119565
97.8079	113.5502	166.227	223.7385	236.3136	244.149	304.5336	393.7342	412.969	473.666	475.2756	505.9689	519.5813	651.8425	831.3921	833.5326	854.121	862.799	923.4747	949.0651	972.6419	1029.7225	1094.6322	1104.7952	1126.2892	1149.662	1189.7425	1189.7519	1241.4655	1250.79	1284.0241	1294.7938	1353.8882	1373.5631	1382.1731	1402.5209	1407.3288	1423.5952	1447.3666	1458.4844	1483.4768	1483.8404	1496.7973	1499.6683	1819.315	2945.2405	2951.2328	3023.0898	3028.8525	3042.9522	3043.3623	3108.581	3109.3236	3118.0973	3118.6255	3123.9129	3124.2427
CC1CC(=O)CC(C)O1	C[C@H]1CC(=O)C[C@@H](C)O1	
InChI=1S/C7H12O2/c1-5-3-7(8)4-6(2)9-5/h5-6H,3-4H2,1-2H3	InChI=1S/C7H12O2/c1-5-3-7(8)4-6(2)9-5/h5-6H,3-4H2,1-2H3/t5-,6+
