16
gdb 107094	3.17752	1.12837	0.96668	3.1038	69.43	-0.2702	-0.0056	0.2646	1212.8418	0.123403	-437.84135	-437.832937	-437.831993	-437.875014	30.734	
O	 0.0159315881	 1.420553226	 0.2450996656	-0.406562
C	 0.013830726	 0.0477026971	-0.107516374	-0.181263
C	-1.3488788388	-0.5565390036	 0.0094392164	 0.456014
C	-2.0503176292	-1.0561122811	 1.2284008021	-0.340154
C	-1.902810966	-1.9646848034	 0.0225044442	-0.190658
C	-2.8525044089	-1.4647203499	-1.070900341	-0.040823
O	-2.3350990218	-0.115053877	-0.9565716369	-0.32616
C	-2.5934537068	-2.0257569565	-2.3995166478	 0.292219
N	-2.3929822176	-2.4868732272	-3.4396011278	-0.313435
H	-0.5431726115	 1.881151353	-0.3902491859	 0.297717
H	 0.3940538783	-0.1075205313	-1.1278639313	 0.111033
H	 0.6935958204	-0.4568570318	 0.5864423917	 0.120539
H	-1.4087040051	-1.3213236403	 2.0627810725	 0.132684
H	-3.0189662564	-0.6477667029	 1.5017783041	 0.126678
H	-1.4123859097	-2.927491948	 0.0346919949	 0.129724
H	-3.926923691	-1.5133517032	-0.8587474869	 0.132448
60.0372	92.3316	166.1499	191.9963	284.2977	347.305	374.6857	417.8583	444.483	499.0305	558.3617	734.0329	824.5682	839.9868	898.4396	918.1902	939.862	977.5148	987.1285	1024.9233	1045.2208	1063.6637	1074.2777	1092.7267	1153.4404	1224.2176	1254.9832	1274.1287	1355.7926	1382.1352	1391.4525	1434.0516	1486.5345	1491.4212	2361.3681	3001.6426	3046.506	3085.5423	3121.4513	3213.106	3222.2134	3810.4313
OCC12CC1C(O2)C#N	OC[C@]12C[C@H]1[C@@H](O2)C#N	
InChI=1S/C6H7NO2/c7-2-5-4-1-6(4,3-8)9-5/h4-5,8H,1,3H2	InChI=1S/C6H7NO2/c7-2-5-4-1-6(4,3-8)9-5/h4-5,8H,1,3H2/t4-,5-,6+/m0/s1
