18
gdb 110481	4.63339	1.24728	1.19659	3.1093	73.79	-0.2251	0.0704	0.2955	1064.2329	0.149118	-401.845495	-401.838453	-401.837509	-401.877045	28.199	
O	-0.1205454048	 1.4360921566	 0.1889194587	-0.42213
C	-0.0236720368	 0.0544423946	-0.1300372428	-0.103435
C	-1.4100023291	-0.5491605456	-0.0058707787	 0.004732
C	-1.4247822522	-2.0999028338	 0.0738958963	-0.090627
C	-2.8822659523	-2.468172762	 0.4144643394	-0.05872
C	-2.6250505083	-2.6575089749	 1.8608208327	-0.06269
C	-1.224715335	-2.0326691104	 1.6457875198	-0.084259
C	-1.9196068377	-0.6490248882	 1.445160142	 0.011815
N	-3.2545379058	-1.3849787793	 1.3931866566	-0.155591
H	 0.7501119175	 1.8314570633	 0.0866773956	 0.286898
H	 0.3492271261	-0.0930383224	-1.1562838771	 0.087588
H	 0.6773126852	-0.4614359166	 0.5469229	 0.084564
H	-2.0921458165	-0.0811423375	-0.7228858401	 0.082568
H	-0.851271847	-2.7456522208	-0.5896486792	 0.070428
H	-3.6641406986	-2.8571631696	-0.2253991604	 0.095159
H	-3.0684784282	-3.3026710799	 2.6094507506	 0.09438
H	-0.2927292924	-2.2367597459	 2.1648233467	 0.074043
H	-1.910807804	 0.1880231725	 2.1396467298	 0.085274
98.5115	163.9094	221.4788	273.2663	392.1026	505.8034	546.906	740.9976	745.3437	784.1189	791.6743	827.7615	848.076	879.7752	901.8429	924.5066	949.8432	957.3171	996.0597	1013.2543	1022.2314	1063.5092	1071.9537	1078.5941	1109.1452	1152.2231	1162.6238	1178.9781	1201.6817	1213.3923	1227.767	1250.6595	1268.5793	1278.4239	1279.3339	1330.4894	1375.8304	1461.2191	1519.6167	2961.8563	2987.7416	3064.2781	3126.2384	3142.9951	3156.302	3181.788	3197.2079	3828.209
OCC1C2C3C4C2C1N34	OC[C@H]1[C@@H]2[C@H]3[C@H]4[C@@H]2[C@@H]1N34	
InChI=1S/C7H9NO/c9-1-2-3-4-5(2)8-6(3)7(4)8/h2-7,9H,1H2	InChI=1S/C7H9NO/c9-1-2-3-4-5(2)8-6(3)7(4)8/h2-7,9H,1H2/t2-,3-,4-,5+,6-,7+,8?/m0/s1
