13
gdb 23897	4.87526	0.96726	0.95168	1.4388	52.52	-0.2732	0.0455	0.3188	1170.0788	0.090254	-492.946832	-492.938726	-492.937782	-492.980379	28.463	
F	 0.0184744617	 0.0570032555	-0.0424929263	-0.086037
C	-0.0241792162	 1.3992447264	 0.0186200425	 0.286025
F	 1.2448154016	 1.838391404	-0.0443275895	-0.08602
F	-0.6551389378	 1.832484508	-1.0817245482	-0.075662
C	-0.7203107647	 1.8798126178	 1.2745813672	-0.321542
C	-0.0099820641	 1.3914934004	 2.5517990462	-0.368144
C	-0.6777444808	 1.8532331906	 3.7610747056	 0.283053
C	-1.2489319398	 2.2477770249	 4.741578971	-0.419835
H	-0.7490241507	 2.9718540229	 1.2439855233	 0.144071
H	-1.7509652058	 1.5176015449	 1.24516039	 0.144059
H	 0.0318920952	 0.2963623709	 2.5428978979	 0.150137
H	 1.0284130069	 1.7418819561	 2.5413135825	 0.150123
H	-1.7428158955	 2.5882947376	 5.6177072079	 0.199772
54.8354	90.6383	120.2526	214.8371	332.875	367.4178	370.0469	472.6356	537.3893	563.9822	626.546	650.9276	660.01	775.2196	851.1781	966.1519	997.7511	1044.8071	1137.6876	1182.1679	1251.3131	1267.6579	1315.7515	1330.8223	1399.9158	1474.1306	1485.8341	2244.8022	3039.9645	3074.2741	3078.5485	3129.8609	3506.8425
FC(F)(F)CCC#C	FC(F)(F)CCC#C	
InChI=1S/C5H5F3/c1-2-3-4-5(6,7)8/h1H,3-4H2	InChI=1S/C5H5F3/c1-2-3-4-5(6,7)8/h1H,3-4H2
