13
gdb 132245	3.39752	1.18835	0.88041	3.9769	75.17	-0.2688	-0.0605	0.2083	1180.4065	0.090858	-423.658371	-423.651506	-423.650561	-423.689913	26.104	
F	-0.0007384549	 0.0226412147	 0.0030516817	-0.071365
C	-0.0133310152	 1.3559732672	 0.0105415838	 0.333551
C	-1.2328488144	 2.0126866215	 0.0306738967	-0.351906
C	-1.2377225268	 3.4133275503	 0.0384284397	 0.212787
C	-0.0322076722	 4.1276147501	 0.0260112189	-0.202372
C	 1.1735975947	 3.4363856733	 0.0058754341	-0.080541
C	 1.1934864058	 2.0440364919	-0.0020367612	-0.246363
C	-2.484377995	 4.1157154493	 0.0591790376	 0.215077
N	-3.4911287283	 4.6866086277	 0.0759565798	-0.327673
H	-2.155404289	 1.4464844968	 0.0400690397	 0.139745
H	-0.0516490698	 5.2102317867	 0.0322167648	 0.129049
H	 2.1084360843	 3.9852141615	-0.003781311	 0.122583
H	 2.1224162405	 1.486599079	-0.0176858034	 0.127429
144.4686	150.8586	242.2435	396.8755	405.4618	458.7059	488.279	526.0105	584.6554	639.0364	703.3339	725.1973	814.1478	903.8948	921.4509	953.238	977.5172	1012.8498	1100.1558	1159.9421	1187.8192	1292.1453	1306.687	1346.5844	1463.9145	1515.8559	1624.2962	1645.8298	2347.3642	3193.2706	3210.6299	3218.3856	3220.8574
FC1=CC(=CC=C1)C#N	Fc1cc(ccc1)C#N	
InChI=1S/C7H4FN/c8-7-3-1-2-6(4-7)5-9/h1-4H	InChI=1S/C7H4FN/c8-7-3-1-2-6(4-7)5-9/h1-4H
