12
gdb 5490	3.68845	2.04773	1.31672	1.7903	58.04	-0.2309	-0.043	0.1879	834.8714	0.085338	-414.716503	-414.709986	-414.709041	-414.747276	23.881	
O	 0.115160871	 1.3103565486	 0.1644290348	-0.416761
C	 0.078542749	-0.0185147466	 0.0052253099	 0.47594
N	 0.078928525	-0.6771438853	-1.1083939964	-0.371815
C	 0.0321841543	-2.0206813519	-0.7191602217	-0.088666
C	 0.0039820406	-2.1459025689	 0.6288839988	-0.111387
N	 0.0342863479	-0.8308249	 1.1238846551	-0.11278
C	 0.0221434883	-0.4310208151	 2.4601540505	 0.172083
O	-0.0158772464	-1.2050347925	 3.3789387274	-0.285769
H	 0.1423712174	 1.6916866326	-0.7234073967	 0.323057
H	 0.0222478313	-2.8052032594	-1.459145032	 0.127105
H	-0.033078465	-2.9805272674	 1.3056161655	 0.161105
H	 0.0543476265	 0.6649929759	 2.5622827347	 0.127889
135.391	205.7039	227.8257	332.1803	383.8192	433.0556	582.6426	626.5446	689.4362	706.6249	761.8947	838.0084	870.678	935.8931	1038.431	1088.1247	1101.527	1196.4666	1233.4487	1305.8677	1379.3769	1437.489	1519.055	1573.61	1639.3763	1824.297	3026.6015	3263.2682	3311.2494	3790.958
OC1=NC=CN1C=O	Oc1nccn1C=O	
InChI=1S/C4H4N2O2/c7-3-6-2-1-5-4(6)8/h1-3H,(H,5,8)	InChI=1S/C4H4N2O2/c7-3-6-2-1-5-4(6)8/h1-3H,(H,5,8)
