16
gdb 50440	2.11847	1.77898	1.16683	2.7181	71.31	-0.2259	-0.0375	0.1884	1053.1517	0.12518	-437.942752	-437.934752	-437.933808	-437.976098	29.405	
O	-0.5184306645	 0.6127075981	-0.5918758657	-0.234211
C	 0.2261228588	 0.9660120347	 0.282786745	 0.149301
C	 1.3387961587	 2.0065068733	 0.0986550547	-0.207091
C	 1.258525952	 2.7284086531	-1.2564134027	-0.299002
C	 0.4228213858	 3.9769862253	-1.1844545154	-0.096634
C	 0.2132207375	 4.5994915695	-0.0266552803	 0.012653
N	 0.7316307112	 4.1184029049	 1.1855336288	-0.327752
C	 1.3277920622	 2.8950432238	 1.3484310014	 0.380137
O	 1.75129402	 2.510279964	 2.4199587127	-0.365641
H	 0.1791804169	 0.5386963045	 1.305846912	 0.112707
H	 2.2661312709	 1.4265950605	 0.1878964055	 0.13742
H	 2.2690979661	 2.9767363723	-1.6078991558	 0.117115
H	 0.8347935994	 2.0296604975	-1.984907892	 0.139119
H	 0.000272733	 4.3851825636	-2.0939544231	 0.103313
H	-0.3667823238	 5.5095376375	 0.0652403286	 0.119304
H	 0.6568891261	 4.6754268472	 2.0233926864	 0.25926
47.9086	113.6157	137.5707	236.5104	279.3785	433.885	452.6417	503.6522	527.8869	568.9059	657.2265	730.6461	733.7363	759.1443	844.4067	897.6869	943.2138	955.7289	1010.0869	1045.391	1059.4933	1118.1545	1179.5166	1219.5636	1265.6191	1293.973	1318.3228	1381.5581	1406.6359	1428.0283	1463.8989	1470.0792	1735.2455	1788.7546	1833.6808	2926.2353	3012.9956	3043.8505	3075.2559	3200.303	3220.4042	3626.9457
O=CC1CC=CNC1=O	O=C[C@H]1CC=CNC1=O	
InChI=1S/C6H7NO2/c8-4-5-2-1-3-7-6(5)9/h1,3-5H,2H2,(H,7,9)	InChI=1S/C6H7NO2/c8-4-5-2-1-3-7-6(5)9/h1,3-5H,2H2,(H,7,9)/t5-/m1/s1
