12
gdb 133616	4.84078	0.62543	0.61594	1.9609	58.49	-0.2768	-0.0728	0.2041	1669.9711	0.071735	-566.97177	-566.962894	-566.96195	-567.007622	29.305	
F	-0.0007177782	 0.0712058185	-0.0997707901	-0.069123
C	-0.0311854397	 1.40462213	-0.0133624629	 0.290542
F	 1.2250267189	 1.8521837385	-0.1031089639	-0.069147
F	-0.7131844154	 1.8720143236	-1.0669535071	-0.069265
C	-0.7010880906	 1.8680445115	 1.2788651805	-0.491431
C	-0.0211328168	 1.4028267111	 2.4740990555	 0.105835
C	 0.5297142217	 1.0254295528	 3.4784334981	 0.038275
C	 1.2149204061	 0.5553507814	 4.6577731783	 0.026119
O	 0.8615173532	 0.7938998906	 5.7887976317	-0.222153
H	-0.7362296269	 2.9628607439	 1.257794606	 0.175657
H	-1.7362132744	 1.5096050526	 1.2605178496	 0.175656
H	 2.1134908323	-0.0570931545	 4.4447725143	 0.109035
37.9183	57.9152	69.8859	164.6702	185.313	305.2012	342.8326	415.4412	419.9524	527.0741	535.0718	609.8804	679.1722	839.0762	858.105	919.04	1021.5143	1140.1282	1158.9772	1189.2173	1269.7057	1310.172	1374.8135	1421.2909	1443.0031	1771.2287	2344.2806	2931.6203	3051.1382	3094.2781
FC(F)(F)CC#CC=O	FC(F)(F)CC#CC=O	
InChI=1S/C5H3F3O/c6-5(7,8)3-1-2-4-9/h4H,3H2	InChI=1S/C5H3F3O/c6-5(7,8)3-1-2-4-9/h4H,3H2
