19
gdb 115968	3.30616	1.24865	1.04478	1.8909	70.58	-0.2513	0.0744	0.3257	1166.1264	0.160819	-460.1402	-460.132228	-460.131284	-460.172992	30.342	
O	-0.0092340792	 1.4704923569	-0.1529422042	-0.422022
C	 0.0683140101	 0.0749195698	 0.0609266319	-0.081038
C	-1.3063945727	-0.5699463617	-0.0323278373	 0.102068
O	-1.8184063057	-0.2972252219	-1.3415282336	-0.27882
C	-2.9411189602	-1.1526593364	-1.5274199256	-0.108983
C	-2.5600523667	-2.4735268801	-0.861629688	 0.11977
O	-1.6673552211	-3.271529793	-1.6615616395	-0.287731
C	-0.5478778542	-2.9771020556	-0.8010584043	-0.082406
C	-1.4173566277	-2.0904977133	 0.1203645165	-0.129235
H	-0.4992559384	 1.5864593247	-0.975461667	 0.293983
H	 0.7510678498	-0.4024167076	-0.6578274788	 0.093229
H	 0.4789097831	-0.0727738086	 1.0655008359	 0.108041
H	-1.9603980441	-0.0927300728	 0.7181697713	 0.07553
H	-3.8375944538	-0.7304955297	-1.0441174286	 0.090728
H	-3.1231900082	-1.2584751966	-2.5993858	 0.124446
H	-3.4188644274	-3.0496360617	-0.5026761228	 0.081167
H	-0.1526744075	-3.8829200396	-0.3261070784	 0.103329
H	 0.2606708993	-2.475017802	-1.3432073113	 0.110967
H	-1.4978519555	-2.4167571809	 1.1567650238	 0.086978
99.9177	118.309	166.7054	210.0287	291.3284	380.4922	404.8509	430.2589	511.2689	646.2111	710.2701	813.3173	844.3804	873.2069	881.8699	904.1505	988.3894	1003.6315	1028.3656	1038.7737	1068.7399	1084.65	1094.9412	1120.5704	1130.6457	1172.2119	1200.2111	1219.5081	1250.9357	1271.6336	1314.0116	1329.146	1331.5138	1353.3735	1372.8397	1390.0016	1407.91	1442.472	1489.3235	1497.4862	1520.8506	2954.0966	2974.6294	2995.0508	3024.3877	3060.7616	3069.7989	3075.7985	3109.2955	3120.2683	3798.5637
OCC1OCC2OCC12	OC[C@H]1OC[C@H]2OC[C@@H]12	
InChI=1S/C6H10O3/c7-1-5-4-2-8-6(4)3-9-5/h4-7H,1-3H2	InChI=1S/C6H10O3/c7-1-5-4-2-8-6(4)3-9-5/h4-7H,1-3H2/t4-,5+,6+/m0/s1
