16
gdb 109208	3.38992	1.08135	0.94773	3.8156	66.6	-0.2607	-0.0415	0.2193	1239.6564	0.123165	-475.037029	-475.028277	-475.027333	-475.071577	30.277	
O	 0.1183159692	 1.1675735424	 0.4927890764	-0.419924
C	-0.0189546829	-0.1717955767	 0.1004514664	-0.132525
C	-1.4550761363	-0.547636727	-0.090037248	 0.399634
N	-2.4322186819	 0.2258755154	 0.1523571536	-0.329166
C	-3.6516751109	-0.5139122443	-0.1808497712	-0.209953
C	-3.129082095	-1.9563757977	-0.498564421	-0.024299
O	-1.7053520854	-1.7971902555	-0.5548994609	-0.23141
C	-3.5129545168	-2.9369958696	 0.5967957954	 0.148183
O	-2.7577739972	-3.3715233026	 1.4216176293	-0.223003
H	-0.7767974674	 1.501664662	 0.644688247	 0.299222
H	 0.5173237683	-0.3560450468	-0.8422702421	 0.126278
H	 0.4146374314	-0.857852068	 0.8452620525	 0.132337
H	-4.3570884954	-0.499362272	 0.6566842408	 0.129818
H	-4.1521538483	-0.0561106857	-1.0403485324	 0.131101
H	-3.4846147284	-2.3331202889	-1.4628959512	 0.118653
H	-4.5972997829	-3.1965647151	 0.5888617854	 0.085054
49.5341	90.0179	109.8671	184.7003	219.8763	243.5416	293.5664	340.9411	445.5778	583.3133	691.6945	727.1717	747.8533	836.365	908.3195	951.8974	985.1122	1038.2596	1050.9025	1072.1078	1101.9136	1116.2495	1197.5173	1233.4559	1246.6092	1276.859	1316.5506	1342.2834	1371.8005	1415.4284	1480.2713	1502.49	1504.7818	1741.0553	1848.2044	2865.3627	2989.7944	3014.7637	3042.4511	3064.9317	3080.3407	3739.5466
OCC1=NCC(O1)C=O	OCC1=NC[C@@H](O1)C=O	
InChI=1S/C5H7NO3/c7-2-4-1-6-5(3-8)9-4/h2,4,8H,1,3H2	InChI=1S/C5H7NO3/c7-2-4-1-6-5(3-8)9-4/h2,4,8H,1,3H2/t4-/m1/s1
