18
gdb 113907	2.86627	1.03086	0.92118	2.6944	69.58	-0.2482	0.0572	0.3053	1348.1857	0.145648	-476.229641	-476.219957	-476.219013	-476.265363	34.398	
C	-0.1549491527	 1.0369270083	 0.0421996519	-0.229803
O	-0.5358230183	-0.1648953843	-0.5975241661	-0.232446
C	 0.4653897085	-0.6976707161	-1.3941775734	 0.097214
C	 1.5252792904	-1.5789444041	-0.7518939138	-0.371193
C	 0.4394999359	-2.1814134629	-1.5963335724	 0.110525
O	-0.5188598491	-2.9272814649	-0.8877969722	-0.258368
C	-1.6910270642	-3.1281581322	-1.5574469646	 0.50522
N	-2.5622708193	-3.8057738158	-0.7508323269	-0.565148
O	-1.8952864965	-2.8033013943	-2.7007571019	-0.395083
H	 0.7070333317	 0.8867027396	 0.7080503781	 0.109062
H	 0.1027919724	 1.8189795691	-0.6876377024	 0.109141
H	-1.0113260156	 1.3716946392	 0.6319588909	 0.128152
H	 0.7560416728	-0.0775618694	-2.2436219981	 0.091984
H	 2.5421709172	-1.5703296857	-1.127608529	 0.118108
H	 1.4230533973	-1.7327887644	 0.3167859376	 0.129759
H	 0.6606028296	-2.5747323285	-2.581606724	 0.120364
H	-2.398455861	-3.7945515704	 0.2418808287	 0.264455
H	-3.5174518592	-3.8266730228	-1.0647746924	 0.268057
37.5535	67.2896	99.8316	164.7648	195.8454	205.626	314.763	347.9292	391.7298	453.9567	472.5589	509.806	619.6251	689.4242	772.2499	787.0686	819.5217	851.9062	954.5324	1034.5635	1041.1117	1067.5451	1098.8976	1116.2386	1125.8467	1161.2725	1173.7322	1183.3441	1229.2148	1265.8365	1336.5996	1388.9284	1409.9665	1468.9345	1485.0177	1491.8448	1508.5722	1613.9651	1846.04	2984.4254	3035.6762	3090.0118	3119.9517	3137.2466	3179.9406	3231.263	3611.2154	3738.7865
COC1CC1OC(N)=O	CO[C@H]1C[C@H]1OC(=O)N	
InChI=1S/C5H9NO3/c1-8-3-2-4(3)9-5(6)7/h3-4H,2H2,1H3,(H2,6,7)	InChI=1S/C5H9NO3/c1-8-3-2-4(3)9-5(6)7/h3-4H,2H2,1H3,(H2,6,7)/t3-,4+/m0/s1
