21
gdb 82843	2.98122	1.65962	1.62009	1.4368	79.62	-0.2458	0.0792	0.325	966.1783	0.186577	-387.103619	-387.096742	-387.095798	-387.13445	29.402	
C	-0.2285830766	 1.6006042924	-0.0224093788	-0.423298
C	 0.0469696865	 0.1038079367	 0.0072386803	 0.043487
C	 1.0428042753	-0.5663224328	-0.9816406177	-0.089775
C	 2.418116585	 0.1417706044	-1.041173411	-0.222187
C	 3.0510222975	-0.3459553606	 0.281053578	 0.063602
C	 2.1908686632	 0.1496094052	 1.4648107368	-0.222187
C	 0.8483017026	-0.5596186127	 1.1632512058	-0.089771
C	 1.3505264387	-1.6355990823	 0.130882791	 0.116047
O	 2.7517364477	-1.7496531768	 0.2583036654	-0.258041
H	 0.6818104852	 2.2017159702	 0.0581593692	 0.114769
H	-0.7265192564	 1.8857456209	-0.9559659588	 0.114299
H	-0.8859757235	 1.8912561205	 0.8047130337	 0.114301
H	-0.9107202157	-0.4251011878	-0.0779557088	 0.069249
H	 0.6678385483	-0.8813980617	-1.9564179064	 0.060759
H	 3.0050568217	-0.2273526528	-1.8866343725	 0.103805
H	 2.352708774	 1.2299704121	-1.1184744264	 0.096322
H	 4.127317562	-0.2020231656	 0.3782037232	 0.071687
H	 2.6159446738	-0.2139267441	 2.4043354895	 0.103805
H	 2.1132282527	 1.2382305411	 1.5223271784	 0.096322
H	 0.3039322294	-0.8688513996	 2.0566157003	 0.060759
H	 0.8725112585	-2.6118246067	 0.0905863888	 0.076048
186.9982	192.3465	252.5833	384.1792	412.0765	516.1925	555.4798	586.0533	605.6413	740.5951	789.5659	802.5592	851.0824	857.6398	869.4286	911.6638	916.591	957.9812	960.4767	987.0424	992.9988	1039.8837	1072.761	1077.095	1099.1655	1104.442	1138.1594	1148.1191	1183.1392	1199.923	1230.6216	1249.2001	1271.2621	1285.6861	1297.9002	1309.3231	1343.6395	1350.7436	1365.4857	1394.0814	1408.9167	1473.1721	1482.2707	1501.5455	1503.9036	3018.9586	3029.9257	3060.5708	3061.7701	3089.3695	3093.3641	3094.8788	3101.9377	3107.8663	3113.0393	3119.1868	3147.357
CC1C2CC3CC1C2O3	C[C@H]1[C@H]2C[C@H]3C[C@@H]1[C@@H]2O3	
InChI=1S/C8H12O/c1-4-6-2-5-3-7(4)8(6)9-5/h4-8H,2-3H2,1H3	InChI=1S/C8H12O/c1-4-6-2-5-3-7(4)8(6)9-5/h4-8H,2-3H2,1H3/t4-,5-,6+,7-,8+
