21
gdb 77395	2.15448	1.93444	1.22226	1.9417	82.57	-0.2255	0.0826	0.3081	1105.3669	0.180328	-387.015876	-387.006906	-387.005961	-387.048716	34.951	
C	-0.1636465949	 1.6070369292	-0.0220706974	-0.420487
C	-0.0543267427	 0.0882989037	-0.005781735	-0.112253
C	 1.1541497699	-0.5850377483	-0.7076992634	 0.308662
C	 1.5557326061	-0.603404681	-2.15436798	-0.530436
C	 2.0881979632	-0.3422705545	 0.5273134274	-0.008358
O	 2.5215634828	-1.7331871439	 0.6256663579	-0.337987
C	 1.1064980405	-1.8025563295	 0.2709980816	-0.005737
C	 0.6833610508	-0.598731688	 1.1733270488	 0.308666
C	 0.3561990946	-0.6382901738	 2.6382020984	-0.530437
H	 0.7925001467	 2.0841280537	 0.220742773	 0.112365
H	-0.4749237146	 1.9715515537	-1.0071877654	 0.117411
H	-0.9035406364	 1.9590645781	 0.7051528232	 0.117411
H	-1.0207404681	-0.3719897496	-0.2510185437	 0.060462
H	 1.7327963645	 0.4091340612	-2.5333767664	 0.120425
H	 2.4783025366	-1.1799648622	-2.2793303762	 0.135252
H	 0.7794959268	-1.0612437111	-2.7774794744	 0.119158
H	 2.824022366	 0.4396404126	 0.7171617485	 0.086525
H	 0.643308575	-2.7826935901	 0.1479424699	 0.084522
H	 1.1136370596	-1.2188367269	 3.1752539956	 0.135251
H	 0.3293870822	 0.3684171391	 3.0695420652	 0.120423
H	-0.6200259087	-1.1028639824	 2.8159256624	 0.119161
173.8094	183.7504	202.9318	214.1869	222.4746	223.2964	249.2935	284.9387	387.5924	522.4433	575.2972	584.0472	718.5432	734.7772	743.2018	818.6731	828.8902	844.7748	885.7881	904.6421	1002.4031	1037.8288	1042.8358	1064.1961	1090.8622	1108.8618	1120.2949	1146.1483	1168.5485	1178.5152	1179.3441	1243.7685	1284.8893	1318.3204	1359.255	1401.7271	1403.9082	1413.3517	1440.5355	1488.667	1489.1787	1490.2151	1491.8765	1495.411	1503.451	3015.7199	3025.9526	3026.794	3028.153	3090.1391	3090.8093	3091.7247	3093.5981	3101.1862	3101.4173	3106.0933	3115.4954
CC1C2(C)C3OC2C13C	C[C@H]1[C@@]2(C)[C@@H]3O[C@H]2[C@]13C	
InChI=1S/C8H12O/c1-4-7(2)5-8(4,3)6(7)9-5/h4-6H,1-3H3	InChI=1S/C8H12O/c1-4-7(2)5-8(4,3)6(7)9-5/h4-6H,1-3H3/t4-,5-,6+,7-,8+
