16
gdb 31841	5.08083	1.03619	0.86612	1.226	77.79	-0.1979	-0.0292	0.1688	1288.352	0.125724	-434.123588	-434.115169	-434.114225	-434.15683	30.702	
C	 0.0360771712	 1.452576551	-0.0399053974	-0.309596
N	-0.0287269643	 0.0132821778	 0.0843764877	-0.348841
C	 0.6029205513	-0.6750418218	 1.0797579551	 0.454561
N	 1.1229697561	 0.0232789834	 2.0984574196	-0.314494
C	 1.6943094874	-0.6882497468	 3.0701612918	-0.110658
C	 1.7663158849	-2.0749427955	 3.0468804602	 0.288526
O	 2.3422955127	-2.845024531	 4.0166131546	-0.445004
C	 1.2051651649	-2.6966923734	 1.9282468284	-0.041862
N	 0.6282066551	-2.0177317311	 0.9486340602	-0.32403
H	 1.0501578374	 1.8173962096	-0.2555656883	 0.120832
H	-0.6283055784	 1.7634801572	-0.8493553867	 0.119809
H	-0.2944042703	 1.9267503453	 0.8874679035	 0.146207
H	-0.251875681	-0.539098392	-0.7262994178	 0.250339
H	 2.1177562726	-0.1245297515	 3.9032073	 0.096796
H	 2.68110591	-2.2737375787	 4.713987921	 0.298542
H	 1.2370198206	-3.7807834723	 1.840883608	 0.118873
84.569	99.8031	156.7636	202.6983	291.4211	362.8747	386.1943	426.6573	438.6242	465.3019	538.299	585.0115	663.5702	787.4857	818.8533	870.3534	938.8136	978.132	1039.7294	1100.0053	1156.5061	1160.5002	1196.2185	1270.0944	1295.781	1312.9877	1381.0624	1424.6044	1452.401	1478.6731	1497.8694	1518.2554	1571.2281	1605.7441	1661.837	3005.7935	3087.8753	3110.9693	3130.7153	3154.8435	3660.8748	3816.5982
CNC1=NC=C(O)C=N1	CNc1ncc(O)cn1	
InChI=1S/C5H7N3O/c1-6-5-7-2-4(9)3-8-5/h2-3,9H,1H3,(H,6,7,8)	InChI=1S/C5H7N3O/c1-6-5-7-2-4(9)3-8-5/h2-3,9H,1H3,(H,6,7,8)
