17
gdb 107806	2.77729	1.68454	1.36375	3.2198	66.49	-0.244	0.0586	0.3027	968.2637	0.13585	-458.887928	-458.880304	-458.87936	-458.919881	30.11	
O	-0.0921428122	 1.4622531166	 0.0069930054	-0.423517
C	 0.0079069807	 0.0668634333	 0.2277137061	-0.179573
C	-1.3229883794	-0.6030620258	 0.0649679218	 0.354752
O	-2.3397778147	-0.2222280677	 1.0555633879	-0.335453
C	-2.967734818	-1.4757263013	 0.7637503074	 0.090068
C	-2.9435754604	-1.6699242033	-0.7535958032	-0.183209
C	-1.7724611696	-2.1050597039	 0.1427022976	-0.221764
C	-2.1333870174	-0.4760271968	-1.2579972139	 0.12123
O	-2.7302886038	 0.7722249628	-1.495854551	-0.448635
H	-0.6896325773	 1.6036487482	-0.7384604011	 0.293627
H	 0.7192425664	-0.4122718087	-0.4670170901	 0.091143
H	 0.3901220081	-0.0714637545	 1.2443740867	 0.119662
H	-3.7294636268	-1.8521770636	 1.4325289934	 0.11853
H	-3.6489225101	-2.2938325507	-1.286452372	 0.099786
H	-1.258448544	-3.0463126316	 0.2680008999	 0.111314
H	-1.5314337297	-0.7364084313	-2.1319668781	 0.0999
H	-3.1198576818	 1.0299452982	-0.6473500267	 0.292139
110.0964	147.3945	224.1232	293.5032	327.4568	366.5368	388.5638	592.7178	596.6672	612.0417	720.9564	765.8578	781.8671	791.283	837.7873	871.7092	939.2417	951.5941	973.513	985.3783	1022.6864	1030.0402	1057.4395	1073.445	1092.3252	1131.0188	1176.5899	1185.2208	1238.4911	1278.309	1309.9833	1327.7545	1354.5797	1382.8394	1441.6502	1457.8644	1499.6949	2960.8378	3074.0648	3095.7396	3206.8858	3215.9217	3233.1164	3738.054	3768.619
OCC12OC3C(C13)C2O	OC[C@]12O[C@H]3[C@H]([C@@H]13)[C@H]2O	
InChI=1S/C6H8O3/c7-1-6-3-2(5(6)8)4(3)9-6/h2-5,7-8H,1H2	InChI=1S/C6H8O3/c7-1-6-3-2(5(6)8)4(3)9-6/h2-5,7-8H,1H2/t2-,3+,4-,5+,6-/m0/s1
