18
gdb 57874	3.1723	1.01427	0.86576	2.4152	70.78	-0.2663	-0.0429	0.2234	1347.2962	0.145424	-476.274429	-476.264463	-476.263519	-476.309592	35.212	
C	-0.0124501577	 1.5819886165	 0.312223722	-0.401212
C	 0.047900394	 0.0656922401	 0.0440485836	 0.034353
O	 0.8800697714	-0.572197972	 0.9787727691	-0.431174
C	-1.3594380241	-0.5366304795	 0.158142506	 0.413773
O	-1.6888446121	-1.0657524169	 1.2036086311	-0.370512
N	-2.2287849928	-0.4237878851	-0.9242340017	-0.150083
C	-1.8163429189	 0.061304544	-2.2425870426	-0.366521
C	-3.557907364	-0.8437735648	-0.7658817644	 0.172124
O	-4.3751833997	-0.8096158437	-1.6512240863	-0.307959
H	 1.0058128924	 1.9774676207	 0.3077441768	 0.140903
H	-0.6006532326	 2.1228665907	-0.435133697	 0.119337
H	-0.4498593072	 1.7639631568	 1.2983634932	 0.134962
H	 0.4624383822	-0.1149393611	-0.9541413529	 0.095852
H	 0.28230557	-0.9265486073	 1.6555928992	 0.294599
H	-1.0362331671	-0.5752013	-2.6679258079	 0.149507
H	-2.6992961469	 0.0190472297	-2.8793340205	 0.180481
H	-1.4564965254	 1.0908318985	-2.1961619363	 0.146194
H	-3.7536400114	-1.1966293766	 0.2536815986	 0.145375
58.7722	89.3641	146.2008	181.7617	193.1461	227.4995	250.4819	323.0846	338.2677	368.9094	386.1249	437.3835	474.1473	549.5624	728.2236	753.0389	816.2227	904.1412	962.9445	1045.092	1056.502	1087.3055	1105.8914	1153.4875	1167.5659	1267.994	1294.3678	1330.6134	1346.7834	1398.0749	1418.6186	1452.5673	1454.4707	1487.9276	1495.378	1507.5197	1511.3087	1765.1546	1814.7399	3043.6518	3046.8627	3060.5777	3081.8887	3118.6439	3128.8524	3132.9771	3166.4788	3703.1721
CC(O)C(=O)N(C)C=O	C[C@@H](O)C(=O)N(C)C=O	
InChI=1S/C5H9NO3/c1-4(8)5(9)6(2)3-7/h3-4,8H,1-2H3	InChI=1S/C5H9NO3/c1-4(8)5(9)6(2)3-7/h3-4,8H,1-2H3/t4-/m1/s1
