18
gdb 50357	4.70917	1.07214	0.91784	4.3994	84.28	-0.2046	-0.0055	0.199	1257.237	0.149367	-401.952334	-401.94463	-401.943686	-401.984888	29.313	
O	-0.0027867486	-0.0630537184	 0.1430318081	-0.335452
C	 0.0182389066	 1.1476383999	 0.0462812678	 0.141513
N	 1.1478417625	 1.9031534874	-0.0250848274	-0.053176
C	 1.1870771711	 3.3902526571	-0.0770327112	-0.209244
C	 2.6549496954	 3.6664956088	-0.4525956824	-0.05031
C	 3.7523639426	 4.2648746799	 0.4976173384	-0.232846
C	 4.6311577435	 2.9805809977	 0.2440451305	-0.300099
C	 3.3436505481	 2.3417325627	-0.2171742217	 0.173032
C	 2.4652467454	 1.3918987715	 0.0968443577	-0.132789
H	-0.8972557953	 1.7707380158	 0.0104246548	 0.068854
H	 0.4725473198	 3.7633593608	-0.8139181702	 0.124785
H	 0.9224789478	 3.8079292551	 0.9037997365	 0.11738
H	 2.7636114016	 4.0602567294	-1.4692955368	 0.086844
H	 4.1858564623	 5.2255512571	 0.209076129	 0.105687
H	 3.4082577397	 4.3115156847	 1.5338551985	 0.112652
H	 5.3521160205	 3.1483684057	-0.5631176829	 0.116372
H	 5.1488572708	 2.5321113677	 1.0941857425	 0.116934
H	 2.5831438762	 0.3854183771	 0.4689093787	 0.149863
65.9008	159.9954	199.2897	235.9749	297.8251	345.6573	433.0214	500.283	623.0777	679.2855	728.1212	795.4274	832.6164	855.1195	903.6648	911.3181	919.9814	944.6016	1020.2294	1044.1988	1080.7484	1100.2386	1116.5122	1175.7643	1195.3604	1201.3124	1232.7879	1238.4445	1255.9466	1272.1717	1328.4029	1348.6742	1426.7868	1437.9847	1472.9976	1487.0874	1505.0873	1723.3335	1784.3793	2935.0679	3010.3829	3035.6481	3047.9312	3059.96	3101.9347	3109.2726	3126.1178	3258.5798
O=CN1CC2CCC2=C1	O=CN1C[C@H]2CC[C]2[CH]1	
InChI=1S/C7H9NO/c9-5-8-3-6-1-2-7(6)4-8/h3,5,7H,1-2,4H2	InChI=1S/C7H9NO/c9-5-8-3-6-1-2-7(6)4-8/h3,5,7H,1-2,4H2/t7-/m1/s1
