21
gdb 65930	2.12739	1.55358	1.29723	0.6036	88.51	-0.252	0.0496	0.3016	1133.1107	0.180814	-349.901801	-349.892536	-349.891592	-349.93527	36.362	
C	-0.1136255132	 1.53116321	 0.0828198396	-0.438916
C	-0.0316983113	-0.0028898529	 0.0218654337	 0.056705
C	 1.1537411276	-0.4998536526	-0.8851025119	-0.253998
C	 2.0198045585	-0.7390644859	 0.3827861112	-0.311168
C	 0.7487588944	-0.6091657098	 1.2276755493	 0.357548
C	 0.6005417213	-0.2725890208	 2.680055796	-0.330705
C	 0.2207540335	-1.6453315279	 2.1712067817	-0.328569
C	-1.3352112495	-0.5798097542	-0.2589400518	 0.286375
C	-2.4172029376	-1.0590595354	-0.4786951752	-0.461368
H	 0.8724402897	 1.959145649	 0.2886127938	 0.114392
H	-0.4756061487	 1.9348936325	-0.8676145766	 0.122109
H	-0.7978195778	 1.8553134626	 0.8722126886	 0.122925
H	 0.9032370817	-1.4277654944	-1.4012197252	 0.11422
H	 1.5202991297	 0.227164096	-1.6133598237	 0.100869
H	 2.5442950694	-1.6961916775	 0.4373191827	 0.102198
H	 2.7436215716	 0.061806051	 0.5633072088	 0.102406
H	 1.5036182617	-0.1717906908	 3.2744261809	 0.109726
H	-0.2009890829	 0.3983926873	 2.9731436038	 0.113753
H	-0.8342007847	-1.8919476151	 2.1091489763	 0.124552
H	 0.8669513111	-2.4820449498	 2.4184501912	 0.107421
H	-3.3692702345	-1.4825498611	-0.6827834631	 0.189526
75.8741	133.1793	176.5847	216.704	252.9421	286.1399	301.9782	348.6284	436.0159	489.3417	535.8337	580.9446	613.8538	620.0161	630.4554	750.9083	781.3578	870.916	886.7952	893.1088	932.0217	942.8436	955.2327	969.8547	998.2643	1055.8245	1080.9117	1115.675	1143.4898	1169.4302	1189.9447	1195.5689	1235.1027	1249.7875	1263.9939	1292.7413	1368.7595	1407.0304	1463.8647	1476.4373	1486.4725	1496.891	1497.5734	1503.9608	2225.2263	3036.2737	3048.8581	3070.9058	3097.1751	3110.0518	3113.6933	3120.6565	3124.1927	3133.1297	3198.8215	3214.5538	3501.2909
CC1(CCC11CC1)C#C	C[C@]1(CCC21CC2)C#C	
InChI=1S/C9H12/c1-3-8(2)4-5-9(8)6-7-9/h1H,4-7H2,2H3	InChI=1S/C9H12/c1-3-8(2)4-5-9(8)6-7-9/h1H,4-7H2,2H3/t8-/m1/s1
