23
gdb 108676	1.90842	1.30917	0.85478	1.3409	90.	-0.2202	0.0256	0.2458	1446.7022	0.205742	-388.310108	-388.299955	-388.299011	-388.345719	37.119	
C	 0.5477519582	 0.8853672271	 0.6808164426	-0.369484
C	 0.1737263639	-0.4070949439	-0.0686275644	-0.296067
C	-1.3053408539	-0.6674969019	-0.1069083916	 0.220805
C	-2.1458480938	-0.558039914	-1.145346444	 0.246494
C	-1.835328071	-0.132402617	-2.5443126775	-0.204436
O	-2.28473716	-1.1542304166	-3.435214362	-0.418536
C	-3.5581198272	-0.9683122767	-0.7793875078	-0.282408
C	-3.5275059059	-1.0190726441	 0.7654458922	-0.21269
C	-2.032199532	-1.1651661702	 1.1299181867	-0.293283
H	 1.633894339	 1.0173676437	 0.7116279758	 0.111298
H	 0.1121817944	 1.7608168006	 0.1889796328	 0.116544
H	 0.1846720843	 0.8696540892	 1.7132193313	 0.119334
H	 0.5822254018	-0.3628454366	-1.0836471646	 0.101932
H	 0.6688939097	-1.2549715186	 0.4248954789	 0.10068
H	-2.360791619	 0.8147793538	-2.7587314596	 0.087498
H	-0.7600286096	 0.0596563313	-2.6716882982	 0.087771
H	-2.2283465745	-0.808879823	-4.3311675316	 0.285287
H	-4.3124666364	-0.2712061901	-1.1646633734	 0.091147
H	-3.7929339525	-1.9435251782	-1.2245370515	 0.116378
H	-3.9080639781	-0.074924807	 1.1690696779	 0.099196
H	-4.1469281068	-1.8187867152	 1.1798951517	 0.093304
H	-1.756700127	-2.2131466546	 1.322612205	 0.102078
H	-1.7649355537	-0.6121836583	 2.0380767113	 0.097158
61.7102	77.0243	122.9788	135.9934	189.7854	210.6816	250.364	282.8984	314.9754	352.437	489.4258	559.669	581.2464	644.348	721.9768	785.2213	849.4359	896.4553	921.3539	928.3606	961.1356	1001.9158	1025.4439	1045.1117	1053.6056	1082.1469	1117.4174	1151.7926	1174.5601	1210.8883	1222.2024	1241.8404	1263.1717	1279.2564	1298.8229	1325.611	1327.0941	1350.8425	1366.7337	1407.9041	1452.9957	1481.8813	1483.9401	1486.6828	1498.4376	1505.2674	1507.568	1514.8109	1735.0167	2945.7201	2993.8536	3003.4868	3012.0486	3022.6093	3035.3117	3038.0792	3047.4737	3057.5994	3066.0927	3096.8235	3106.0913	3109.5546	3824.9661
CCC1=C(CO)CCC1	CCC1=C(CO)CCC1	
InChI=1S/C8H14O/c1-2-7-4-3-5-8(7)6-9/h9H,2-6H2,1H3	InChI=1S/C8H14O/c1-2-7-4-3-5-8(7)6-9/h9H,2-6H2,1H3
