22
gdb 123099	6.94154	0.47258	0.44886	2.622	80.91	-0.2465	0.0325	0.279	2439.8907	0.191347	-441.520601	-441.508905	-441.507961	-441.560545	39.265	
C	 0.0927384389	 1.4757222909	-0.0002360469	-0.381852
C	-0.0111141714	-0.0511958541	 0.0126617602	-0.18258
C	-1.4542419605	-0.5365982606	 0.0033561443	-0.030385
O	-1.461359638	-1.9483704648	 0.0156061921	-0.255309
C	-2.761854585	-2.4969578477	 0.0104473402	-0.047832
C	-2.6247909529	-4.0125311997	 0.0307007673	-0.332367
C	-3.9805646579	-4.7089284429	 0.0607354899	 0.413258
N	-3.9276591082	-6.0653904041	-0.0944107441	-0.525392
O	-5.0310028552	-4.1123604975	 0.2038270054	-0.358029
H	 1.1376090561	 1.7991192163	 0.0069203295	 0.116021
H	-0.3799385578	 1.9008418511	-0.8925955709	 0.116439
H	-0.3970168242	 1.9169070185	 0.8749390122	 0.116629
H	 0.5039997223	-0.4750821721	-0.8571331376	 0.104235
H	 0.4872585345	-0.4590860927	 0.8996777123	 0.104414
H	-1.9970622171	-0.1432849623	 0.8808514914	 0.083512
H	-1.9801228596	-0.1586666667	-0.8911699502	 0.08285
H	-3.3395902615	-2.1590061313	 0.8831889452	 0.106169
H	-3.320869492	-2.1768704416	-0.8825851278	 0.099332
H	-2.0504747807	-4.346696376	-0.8412306903	 0.123544
H	-2.0460868554	-4.312973623	 0.9132411317	 0.129873
H	-3.0578003478	-6.5672023358	-0.1279851942	 0.257787
H	-4.7839521965	-6.5868731139	-0.0031989998	 0.259683
13.6699	40.6657	75.301	78.7931	120.2024	141.8945	157.1789	192.6031	234.4901	262.4084	356.184	467.7333	498.2038	507.9177	621.4271	640.3857	765.258	816.4692	861.5538	901.0529	911.5445	1012.7302	1055.3602	1068.7021	1082.5473	1106.9149	1157.4455	1162.0452	1189.477	1220.2624	1257.3129	1269.8316	1302.055	1314.3016	1332.5729	1376.8138	1408.5735	1414.2661	1454.2281	1472.2313	1492.15	1500.7043	1506.7079	1516.1795	1534.1493	1617.4855	1794.1953	2942.956	2967.9295	2985.0863	3016.7719	3031.2898	3034.7227	3036.8911	3069.6605	3074.8148	3099.1199	3107.0894	3602.2815	3738.73
CCCOCCC(N)=O	CCCOCCC(=O)N	
InChI=1S/C6H13NO2/c1-2-4-9-5-3-6(7)8/h2-5H2,1H3,(H2,7,8)	InChI=1S/C6H13NO2/c1-2-4-9-5-3-6(7)8/h2-5H2,1H3,(H2,7,8)
