18
gdb 57711	3.49026	0.83363	0.80618	0.5492	74.01	-0.2959	-0.0095	0.2864	1453.4943	0.144791	-439.126515	-439.116383	-439.115438	-439.162341	35.285	
C	 0.0725415299	 1.593280947	-0.0102575369	-0.409275
C	-0.0909069552	 0.0574923273	-0.0167267739	 0.064452
C	 0.4515698174	-0.5554797023	 1.2921799785	-0.41825
C	-1.5774505589	-0.324408044	-0.2291548031	-0.091265
O	-2.3667212043	 0.2068124635	 0.8323154089	-0.188474
C	-3.1188206659	-0.642643555	 1.5677066167	 0.172577
O	-3.8009941281	-0.273646751	 2.472133367	-0.262973
C	 0.6465634501	-0.507545205	-1.1580703793	 0.262679
N	 1.2123594039	-0.9590192819	-2.0591196464	-0.330341
H	 1.1202293787	 1.8661329747	 0.1362872408	 0.137558
H	-0.2670615188	 2.029174071	-0.9536136475	 0.1359
H	-0.5207415468	 2.0160254334	 0.8033439278	 0.150205
H	-0.0941972449	-0.1435180862	 2.1444289287	 0.146651
H	 0.3449054711	-1.6440595732	 1.2962305983	 0.132146
H	 1.5108990989	-0.3178865542	 1.4138630865	 0.142997
H	-1.944160793	 0.1029024005	-1.1671789043	 0.140193
H	-1.6849087022	-1.4147548012	-0.279238755	 0.127548
H	-3.0264298319	-1.6938611533	 1.2326156333	 0.087672
44.5572	69.7168	129.0246	169.7008	189.7157	226.2207	259.2317	269.1824	311.9339	358.1563	395.0527	428.2315	558.8542	578.1798	685.5064	729.5505	888.3515	928.9819	965.5181	993.2886	1041.5759	1044.8499	1063.7942	1135.9935	1219.4749	1225.9969	1242.7821	1327.0475	1394.5548	1398.344	1418.7695	1436.0194	1483.8796	1489.0616	1495.0924	1507.0352	1511.4995	1873.721	2354.6981	2952.8438	3031.9833	3049.5386	3053.6413	3093.1273	3125.2811	3128.9841	3135.752	3141.6455
CC(C)(COC=O)C#N	CC(C)(COC=O)C#N	
InChI=1S/C6H9NO2/c1-6(2,3-7)4-9-5-8/h5H,4H2,1-2H3	InChI=1S/C6H9NO2/c1-6(2,3-7)4-9-5-8/h5H,4H2,1-2H3
