16
gdb 17650	3.31011	1.5757	1.19465	4.1089	60.6	-0.2539	0.0113	0.2651	991.4672	0.131655	-417.056296	-417.04829	-417.047346	-417.089372	28.945	
N	-0.1682779876	 0.8490679515	 0.0580042384	-0.543663
H	 0.196908494	-0.0723211301	 0.2743949672	 0.254005
H	 0.5642474672	 2.6062408884	-0.1921847335	 0.307801
H	-0.8558922198	 0.7413791662	-0.6804546021	 0.249909
C	-0.7585374848	 1.4753225062	 1.2519933143	-0.155858
C	 0.0139608175	 1.0544457624	 2.4863903176	 0.03095
C	-0.6172723738	 1.1191829338	 3.8204408946	-0.231766
N	-0.335867951	-0.1895526226	 3.1971696537	-0.333985
C	-0.6841621527	 3.0133150644	 1.1178743219	 0.430495
O	 0.2167683489	 3.4281005712	 0.2185767461	-0.363928
O	-1.3511945727	 3.7576004468	 1.7836713492	-0.338861
H	-1.8182131578	 1.2288844821	 1.4021356921	 0.09389
H	 1.0870315731	 1.2210644938	 2.4079800227	 0.108323
H	-0.0127430053	 1.351521618	 4.6913236471	 0.130029
H	-1.6440361077	 1.4686261966	 3.8730146273	 0.133261
H	-1.1991261075	-0.5739732187	 2.8177045133	 0.229398
65.8007	75.2278	159.863	271.2278	295.3366	322.0658	358.5826	418.7255	553.8261	666.8216	711.0291	815.3143	840.8937	855.2984	875.0819	927.191	938.9197	967.4615	1031.3573	1080.9365	1115.7834	1144.1814	1164.6478	1225.7298	1250.6691	1270.7498	1296.7368	1319.1832	1329.8613	1422.4264	1428.7272	1517.7728	1652.5079	1872.8088	3015.7735	3123.2864	3126.6277	3211.296	3482.6025	3486.7196	3510.2904	3590.4664
[NH3+]C(C1CN1)C([O-])=O	N[C@@H]([C@H]1CN1)C(=O)O	
InChI=1S/C4H8N2O2/c5-3(4(7)8)2-1-6-2/h2-3,6H,1,5H2,(H,7,8)	InChI=1S/C4H8N2O2/c5-3(4(7)8)2-1-6-2/h2-3,6H,1,5H2,(H,7,8)/t2-,3+/m1/s1
