16
gdb 28526	3.17092	1.36746	0.95735	1.8892	78.44	-0.181	-0.0011	0.1798	1165.838	0.126809	-434.134504	-434.126401	-434.125457	-434.166514	32.167	
N	-0.0278698151	 1.4037397022	 0.2046441091	-0.596729
C	 0.0074137003	 0.0085459491	 0.0503237995	 0.274758
C	-1.1598394097	-0.7487641874	-0.0072429448	-0.096653
N	-1.1513540482	-2.088315628	-0.0828750864	-0.355596
C	 0.0004577519	-2.7146097825	-0.1142915072	 0.368717
O	 0.0106719601	-4.0788267582	-0.188357862	-0.446229
C	 1.2528973328	-2.0656650498	-0.0713736828	 0.222209
N	 2.4234114478	-2.8122890854	-0.1694743855	-0.597715
C	 1.2293487994	-0.6804863828	 0.0179234049	-0.226609
H	 0.7487198223	 1.8813365403	-0.2323215677	 0.242854
H	-0.9004237753	 1.8165611582	-0.0962286255	 0.244258
H	-2.1347345608	-0.2682599671	 0.0158885579	 0.087249
H	-0.9170842177	-4.3476087113	-0.1902482361	 0.293708
H	 2.302225724	-3.7837919904	 0.0781275406	 0.262098
H	 3.2318574026	-2.4000268922	 0.2728790319	 0.245148
H	 2.1647129557	-0.1288092448	 0.0651387341	 0.078533
145.9501	221.1376	241.9587	295.8254	325.4524	333.361	386.8484	445.5445	482.0577	497.8243	507.851	583.7822	611.6831	641.8766	690.1457	751.2362	773.8791	806.3182	869.5876	885.2115	1006.5959	1093.4653	1128.6121	1165.281	1229.1873	1302.2933	1331.7349	1353.045	1402.1555	1507.2098	1531.2676	1634.3113	1643.2302	1660.0032	1663.4697	3152.4295	3159.2666	3546.279	3562.4206	3639.1308	3666.6957	3787.249
NC1=CN=C(O)C(N)=C1	Nc1cnc(O)c(N)c1	
InChI=1S/C5H7N3O/c6-3-1-4(7)5(9)8-2-3/h1-2H,6-7H2,(H,8,9)	InChI=1S/C5H7N3O/c6-3-1-4(7)5(9)8-2-3/h1-2H,6-7H2,(H,8,9)
