17
gdb 75925	2.74228	1.60284	1.14985	1.0254	69.49	-0.2566	0.0126	0.2693	1051.6099	0.13733	-455.1297	-455.121788	-455.120844	-455.162112	30.413	
O	 0.3937652265	 0.9405793661	-0.6928628123	-0.438423
C	 0.0506523274	-0.2897157965	-0.1238909518	-0.031025
C	 0.4796655826	-0.4218664981	 1.3235347615	 0.403518
N	 1.4645689578	 0.20900812	 1.7957872276	-0.568686
O	-0.3645517689	-1.245919575	 1.9900404858	-0.239727
C	-1.4866877294	-1.5927382141	 1.1377610341	-0.148346
C	-1.4382822457	-0.5758348176	 0.0093673385	 0.290439
C	-2.4542077399	 0.4776717271	-0.2034889406	-0.280218
N	-2.3613060949	-0.6932650104	-1.1065432533	-0.386366
H	 1.0555677195	 1.3254829433	-0.097589893	 0.30112
H	 0.5139233951	-1.1161187951	-0.6942827898	 0.10092
H	 1.588545357	 0.0495084038	 2.7952880678	 0.233091
H	-1.3527262178	-2.6164609395	 0.7701214046	 0.126277
H	-2.3952923144	-1.5450010888	 1.7404822074	 0.132655
H	-3.3477779962	 0.5056888072	 0.4139370025	 0.119794
H	-2.0968708961	 1.4368477712	-0.5633989622	 0.139961
H	-1.8970884527	-0.4226246336	-1.971331387	 0.245017
83.4437	167.8071	235.9379	256.1814	293.3865	344.3578	364.7987	484.0092	499.6322	534.3479	625.1853	693.6498	781.9837	872.9067	889.473	896.6642	942.9767	961.972	978.3861	986.3614	1060.3856	1071.654	1089.4835	1129.3618	1172.3756	1203.3703	1232.661	1265.7083	1275.6904	1334.4761	1357.7961	1394.856	1414.0942	1447.5321	1510.1706	1518.1084	1785.5635	2934.286	3045.0183	3116.6003	3118.3993	3214.4226	3489.5399	3497.3094	3708.7197
OC1C(=N)OCC11CN1	O[C@H]1[C]([NH])OC[C@]21CN2	
InChI=1S/C5H8N2O2/c6-4-3(8)5(1-7-5)2-9-4/h3,6-8H,1-2H2	InChI=1S/C5H8N2O2/c6-4-3(8)5(1-7-5)2-9-4/h3,6-8H,1-2H2/t3-,5-/m0/s1
