19
gdb 112317	2.91059	1.21136	0.93883	4.3601	75.37	-0.2334	-0.0071	0.2263	1247.0066	0.159837	-423.041816	-423.033425	-423.03248	-423.075008	32.076	
O	-0.0195937919	 1.4128764718	-0.0662417014	-0.420701
C	 0.0526053662	-0.0045105984	-0.0326473692	-0.087066
C	-1.3709615092	-0.5388568585	 0.0493532197	 0.012218
C	-2.2672482451	-0.1568023094	-1.1487840951	-0.348554
C	-3.2454431988	-1.3301772804	-1.3177368891	 0.413203
O	-4.3433708326	-1.2675692721	-1.8125701981	-0.332203
C	-2.6288144314	-2.5435969705	-0.6953640391	-0.149511
C	-1.1962295966	-2.8401351941	-1.1235166013	-0.291558
C	-1.4456540514	-2.0673286214	 0.1320751984	-0.06001
H	 0.8732772792	 1.7609312781	-0.1442157763	 0.288904
H	 0.5454902322	-0.4018017865	-0.9348526593	 0.084365
H	 0.6303448406	-0.3560430363	 0.8377905965	 0.085832
H	-1.8215945624	-0.1288426709	 0.9613705865	 0.09253
H	-2.8132406382	 0.7764425865	-1.0100823147	 0.138992
H	-1.6836278236	-0.0429245507	-2.0711964387	 0.125099
H	-3.2742616034	-3.3641012212	-0.4096042794	 0.106197
H	-0.8842126693	-3.8736363503	-1.0250968166	 0.125359
H	-0.7990633721	-2.3407227487	-2.0009119435	 0.121971
H	-1.2218821822	-2.5412023969	 1.0814035807	 0.094932
96.9867	111.5749	151.3038	212.9234	270.1774	327.3503	405.1366	443.0318	474.912	527.9934	615.9715	656.4085	775.2464	816.4319	840.0115	888.1694	897.8678	943.029	962.9302	1011.5348	1036.8555	1068.3498	1079.2879	1094.8989	1107.6593	1120.9184	1180.4416	1190.763	1205.3556	1238.2685	1253.6238	1274.3902	1314.4774	1335.8092	1355.087	1388.9773	1458.5751	1461.4039	1492.9667	1520.3918	1834.7399	2960.8941	2988.5727	3034.5159	3044.1059	3132.6697	3134.1787	3169.3416	3201.5351	3219.9175	3832.5171
OCC1CC(=O)C2CC12	OC[C@H]1CC(=O)[C@H]2C[C@@H]12	
InChI=1S/C7H10O2/c8-3-4-1-7(9)6-2-5(4)6/h4-6,8H,1-3H2	InChI=1S/C7H10O2/c8-3-4-1-7(9)6-2-5(4)6/h4-6,8H,1-3H2/t4-,5+,6+/m1/s1
