23
gdb 108577	2.46691	1.30683	1.16226	1.3335	84.9	-0.2377	0.0666	0.3043	1231.7936	0.206779	-388.295967	-388.286687	-388.285742	-388.329615	36.014	
C	-0.019844634	 1.4983574713	-0.2785986567	-0.376118
C	-0.0872785759	 0.0269229282	 0.1514988365	-0.270667
C	-1.4880198356	-0.5512454954	 0.1276677449	 0.30412
C	-2.5242436227	 0.0118469791	 1.1012566643	-0.268765
C	-3.6037813684	-1.0814148591	 1.2891135336	-0.212153
C	-2.9159263817	-2.4182685383	 0.9225893928	-0.213391
C	-1.7544467629	-2.0502804361	 0.0099142579	-0.132963
C	-2.0122307565	-1.1479340198	-1.1629547329	 0.047415
O	-3.3281014052	-0.9733720905	-1.6138516676	-0.418077
H	 1.0098081455	 1.8690128687	-0.2599718703	 0.110999
H	-0.4035048507	 1.628460299	-1.2967101224	 0.108212
H	-0.6141548421	 2.1358858599	 0.3839969352	 0.118475
H	 0.5609089477	-0.570299574	-0.5019438622	 0.091297
H	 0.3278060568	-0.0754061092	 1.1639605218	 0.092293
H	-2.0157768594	 0.2252427386	 2.0503993105	 0.094392
H	-2.9619549145	 0.9586845256	 0.7640906612	 0.086886
H	-4.0039180519	-1.0885814951	 2.3071414537	 0.086609
H	-4.4347946369	-0.9009492424	 0.6070413306	 0.115016
H	-2.5133490928	-2.9093233872	 1.8163552465	 0.09409
H	-3.6148617328	-3.1206565896	 0.4572438648	 0.104419
H	-0.933377184	-2.7555661608	-0.0782739348	 0.075664
H	-1.2802549946	-1.2149105745	-1.9701710163	 0.076412
H	-3.4151885374	-0.0677567285	-1.9289152011	 0.285836
86.0361	148.8472	177.2934	196.8941	222.1787	242.5319	298.9894	322.8818	354.059	493.529	529.0785	578.603	680.661	712.4496	784.5736	789.4309	848.9829	866.2884	902.2482	922.7749	956.8688	986.4002	1011.7231	1056.2166	1064.0357	1081.7505	1095.9114	1116.9527	1129.9658	1194.9938	1210.5152	1250.6821	1258.42	1264.8968	1285.8052	1322.7403	1329.3509	1342.6107	1355.7018	1370.1494	1371.1528	1410.5007	1463.147	1483.7034	1485.8036	1492.794	1499.9801	1506.9305	1514.1356	3007.722	3019.4605	3031.4445	3033.7807	3044.1405	3053.5538	3065.6448	3074.0483	3075.8109	3097.9342	3104.8636	3127.8802	3150.1213	3806.8848
CCC12CCCC1C2O	CC[C@]12CCC[C@H]1[C@H]2O	
InChI=1S/C8H14O/c1-2-8-5-3-4-6(8)7(8)9/h6-7,9H,2-5H2,1H3	InChI=1S/C8H14O/c1-2-8-5-3-4-6(8)7(8)9/h6-7,9H,2-5H2,1H3/t6-,7+,8-/m0/s1
