20
gdb 99311	5.32948	0.66376	0.619	2.3144	77.96	-0.2468	0.0648	0.3116	1835.4368	0.170299	-440.314017	-440.303894	-440.30295	-440.351034	35.126	
C	-0.0355101903	 1.1322524607	 0.2688604816	-0.230548
O	-0.3106788527	-0.1048821838	-0.3893683024	-0.267947
C	 0.6870932878	-0.5457749449	-1.2022100293	 0.51998
O	 1.7367093595	 0.0363808911	-1.3699417486	-0.417496
N	 0.3172104604	-1.7161693398	-1.7865497578	-0.362025
C	 1.2024387046	-2.4776339826	-2.6487223909	-0.181034
C	 1.4696742551	-3.8695846214	-2.1205207768	 0.026715
C	 0.4907065159	-4.985922127	-2.4012053696	-0.26603
C	 1.8406182299	-4.9735081013	-3.0745698496	-0.267672
H	 0.8505725101	 1.0496145276	 0.9038408732	 0.136549
H	 0.1291748299	 1.933351993	-0.4566483511	 0.136924
H	-0.9165511996	 1.3466083191	 0.8750952165	 0.12643
H	-0.5668161544	-2.1123415505	-1.5120831552	 0.25051
H	 0.776839483	-2.5475459957	-3.6601028359	 0.098263
H	 2.1262055338	-1.8984423404	-2.7222611453	 0.148374
H	 1.951684752	-3.8874649478	-1.1469463982	 0.092691
H	 0.307054518	-5.720450931	-1.6252208436	 0.115334
H	-0.3774705199	-4.7608580225	-3.0134381681	 0.109215
H	 1.8754409133	-4.738479333	-4.1334914822	 0.114585
H	 2.5831966837	-5.6968462697	-2.7579548968	 0.117182
28.6696	66.7989	73.7429	91.7979	149.3587	206.8977	252.7895	293.3397	365.3592	406.4009	474.9738	555.4585	695.7432	775.6269	780.0311	811.5349	838.211	901.912	924.5538	962.6703	1034.8614	1055.9969	1070.0737	1084.0724	1140.0005	1169.8459	1182.11	1184.2751	1199.4434	1214.228	1226.2639	1245.9326	1296.4516	1360.9715	1428.1169	1467.9411	1469.8498	1480.4448	1491.8688	1501.689	1508.4846	1550.9253	1815.3978	3001.578	3047.4777	3108.5666	3119.9522	3127.2954	3135.0366	3148.2716	3149.4864	3207.829	3223.4025	3648.7544
COC(=O)NCC1CC1	COC(=O)NCC1CC1	
InChI=1S/C6H11NO2/c1-9-6(8)7-4-5-2-3-5/h5H,2-4H2,1H3,(H,7,8)	InChI=1S/C6H11NO2/c1-9-6(8)7-4-5-2-3-5/h5H,2-4H2,1H3,(H,7,8)
