18
gdb 34146	2.66036	1.70881	1.35669	4.2463	80.45	-0.2942	0.0254	0.3196	995.8513	0.150836	-364.801441	-364.794508	-364.793564	-364.832747	27.979	
N	 0.0077466652	-1.1348012542	 0.0188233878	-0.355099
C	-0.0170820373	 0.0219309793	 0.0350588858	 0.152651
C	-0.0399739286	 1.4621162045	 0.0413048473	 0.225596
C	-0.6729875428	 2.4051963944	 1.0957690088	-0.281098
C	-0.0576417907	 3.3409121978	 0.0287130884	-0.086418
C	 1.2050506985	 2.420692573	-0.0447674504	-0.031905
C	 1.7417849398	 2.4059418754	-1.4736942966	-0.247827
C	 0.4004763767	 2.3880554195	-2.2629016572	-0.247825
C	-0.5881713358	 2.396761102	-1.0998747205	-0.031903
H	-1.7629248109	 2.38290712	 1.1689402355	 0.107553
H	-0.2073605076	 2.403667054	 2.0842040367	 0.107552
H	-0.0645746655	 4.4306175234	 0.0157793896	 0.081829
H	 1.9078296413	 2.4180358818	 0.7897276339	 0.080043
H	 2.3482328486	 3.291185575	-1.687430618	 0.106054
H	 2.3603174996	 1.5257604242	-1.671460854	 0.11735
H	 0.2753338702	 3.2635759017	-2.9070481219	 0.106054
H	 0.2904946881	 1.4981901222	-2.8893644204	 0.117351
H	-1.6586691086	 2.3704302962	-1.3087485347	 0.080044
125.6491	148.7952	252.0502	349.1166	414.1373	524.5674	539.3877	551.386	684.1638	728.6267	760.7362	826.218	842.9435	885.917	921.4467	931.0481	976.4016	982.0426	1004.5466	1011.6421	1036.5455	1056.9665	1105.1629	1108.416	1148.9919	1175.6982	1210.2335	1212.9122	1246.7889	1250.5371	1253.9952	1273.4803	1286.1048	1318.7866	1373.578	1485.8696	1506.3895	1519.4396	2344.12	3051.5149	3060.3006	3060.7799	3087.7646	3105.996	3109.9346	3110.2919	3122.6596	3125.4019
N#CC12CC3C1CCC23	N#C[C@@]12C[C@H]3[C@@H]1CC[C@@H]23	
InChI=1S/C8H9N/c9-4-8-3-5-6(8)1-2-7(5)8/h5-7H,1-3H2	InChI=1S/C8H9N/c9-4-8-3-5-6(8)1-2-7(5)8/h5-7H,1-3H2/t5-,6-,7+,8-
