13
gdb 7234	4.65309	1.2679	1.01982	3.0689	58.88	-0.2478	-0.0616	0.1862	1063.2346	0.094807	-431.945582	-431.937491	-431.936547	-431.978731	28.329	
N	-0.0687188439	 1.2780275394	-0.3491120757	-0.522655
C	-0.0233507404	-0.0528221517	-0.0505363086	 0.311977
N	 1.0719738053	-0.7050844333	 0.0328022837	-0.510908
C	-1.3905061198	-0.6567551147	 0.1463781008	 0.368307
N	-2.4361571365	 0.0515590896	 0.1421008797	-0.495425
O	-1.3257434019	-2.0184627069	 0.3734247885	-0.207165
C	-2.2539763755	-2.836642997	-0.2189327001	 0.157946
O	-2.3355598719	-3.9889470951	 0.0546504044	-0.235226
H	 0.8006301127	 1.7817928896	-0.2901126318	 0.264328
H	-0.9262809171	 1.7706593974	-0.1632964159	 0.27421
H	 0.8874166794	-1.6868248367	 0.2234827343	 0.236724
H	-3.289114014	-0.4659593655	 0.3504416791	 0.243356
H	-2.8638741764	-2.303244245	-0.9667893384	 0.114531
65.2821	88.0317	135.5749	222.7443	314.2309	356.9153	404.1176	441.7896	481.8555	517.3817	599.4572	640.9409	792.5326	846.0092	874.8342	895.2823	1040.8139	1061.1424	1105.7451	1130.3351	1162.7724	1273.6194	1408.9258	1443.9947	1602.5947	1717.7189	1734.0555	1885.4674	3008.0705	3497.8607	3531.775	3602.2865	3731.3027
NC(=N)C(=N)OC=O	NC(=N)[C]([NH])OC=O	
InChI=1S/C3H5N3O2/c4-2(5)3(6)8-1-7/h1,6H,(H3,4,5)	InChI=1S/C3H5N3O2/c4-2(5)3(6)8-1-7/h1,6H,(H3,4,5)
