19
gdb 46035	4.59811	0.97254	0.83847	3.5207	77.97	-0.2505	0.0305	0.281	1362.4305	0.160804	-419.194464	-419.186331	-419.185387	-419.227719	30.749	
N	-0.1380020419	 1.2693082515	-0.1192051716	-0.541482
C	-0.0564965756	 0.0115958829	-0.0693372186	 0.414728
C	-1.21001554	-0.9618254576	-0.1529587091	-0.315289
C	-0.5283631497	-2.2800358471	-0.5394536914	 0.016323
C	 0.8568398469	-2.0963674663	 0.1051631638	-0.096018
O	 1.1156689622	-0.6864090808	 0.0656690973	-0.23832
N	-1.2090953204	-3.4524710388	-0.0186416293	-0.066328
C	-2.2634128632	-4.0160185788	-0.8588330315	-0.223477
C	-0.9576046906	-4.7134346984	-0.7170485382	-0.227354
H	 0.7880106616	 1.6905221492	-0.0238530473	 0.220787
H	-1.6695913024	-1.0721513319	 0.8361624667	 0.140159
H	-1.9747760809	-0.6149691919	-0.847550645	 0.133516
H	-0.4110460718	-2.3254340726	-1.6369908689	 0.06842
H	 0.8338551002	-2.4451771663	 1.1447007069	 0.120172
H	 1.6658568428	-2.6029947692	-0.4258565038	 0.116289
H	-3.1420138123	-4.3748292248	-0.3315078669	 0.123764
H	-2.4681599139	-3.5331011679	-1.8128250021	 0.116306
H	-0.290103155	-4.6976533898	-1.5771333802	 0.114468
H	-0.864628736	-5.5905923912	-0.0840261006	 0.123337
78.0175	94.6504	156.9889	187.4836	288.5399	377.4349	413.6504	507.3791	512.3137	593.3215	676.0497	789.6021	843.7769	876.9294	893.7486	896.16	915.9022	923.3901	1015.5276	1025.7899	1062.1803	1071.8259	1113.6221	1115.0619	1115.9588	1123.6832	1173.3345	1178.9066	1202.4249	1244.8616	1267.3695	1288.031	1323.7997	1344.9866	1371.2917	1413.643	1473.507	1489.8137	1517.2853	1521.4473	1782.9464	2937.2462	3036.9158	3054.288	3097.2353	3102.0302	3106.6396	3137.4433	3183.5515	3197.532	3469.1904
N=C1CC(CO1)N1CC1	[NH][C]1C[C@@H](CO1)N1CC1	
InChI=1S/C6H10N2O/c7-6-3-5(4-9-6)8-1-2-8/h5,7H,1-4H2	InChI=1S/C6H10N2O/c7-6-3-5(4-9-6)8-1-2-8/h5,7H,1-4H2/t5-/m0/s1
