18
gdb 17551	3.18352	2.11996	1.63411	1.576	71.91	-0.2457	0.091	0.3367	859.1431	0.153163	-347.757642	-347.750167	-347.749222	-347.788981	29.124	
C	-0.0374451229	 1.5367570691	-0.0321509898	-0.498191
C	 0.0279589259	 0.0382601134	-0.001058062	 0.273031
C	-0.8547250983	-0.8405576172	 0.852002716	-0.326215
C	 0.6360133946	-0.9397454981	 1.0199462822	-0.098462
C	 1.2308431551	-1.8002375003	-0.1070134212	-0.3245
C	 0.6020516317	-0.8204504881	-1.1151826605	 0.410162
C	 0.1834645677	-0.9779488793	-2.5088098236	-0.275261
O	 1.3758045211	-0.2514987665	-2.1570456851	-0.27876
H	 0.8952938338	 1.9605538462	-0.4165943362	 0.133992
H	-0.8518145282	 1.8880113237	-0.6773279562	 0.119633
H	-0.21400901	 1.9418731905	 0.9693640534	 0.116719
H	-1.3835204486	-0.3195278368	 1.6446973715	 0.111367
H	-1.4151932022	-1.6646319308	 0.4145662383	 0.103792
H	 1.1262043486	-0.7144853173	 1.9591320976	 0.08908
H	 2.3209574862	-1.7485453207	-0.1638990079	 0.120613
H	 0.9145363453	-2.8479871981	-0.1453508223	 0.098491
H	 0.3532520627	-1.9215189237	-3.0262942927	 0.112738
H	-0.6298532826	-0.3719568761	-2.9068170114	 0.111772
121.367	181.5665	218.9524	232.9698	333.5676	402.8874	412.0576	490.6446	569.4067	639.4233	775.0823	826.5854	838.051	862.5221	883.8095	940.2436	960.1341	979.961	1011.792	1037.7209	1078.7125	1100.8889	1112.4121	1122.4644	1140.3008	1162.2313	1172.7249	1240.5708	1266.0023	1288.5138	1383.9615	1420.971	1434.6939	1476.5638	1482.1182	1500.5256	1500.7954	1536.9486	3026.3284	3044.3792	3077.7624	3086.0928	3099.3682	3108.336	3109.5606	3163.1177	3182.5802	3193.1026
CC12CC1CC21CO1	C[C@]12C[C@H]1C[C@]12CO1	
InChI=1S/C7H10O/c1-6-2-5(6)3-7(6)4-8-7/h5H,2-4H2,1H3	InChI=1S/C7H10O/c1-6-2-5(6)3-7(6)4-8-7/h5H,2-4H2,1H3/t5-,6-,7+/m0/s1
