17
gdb 79168	2.61421	1.91467	1.47898	3.55	70.5	-0.2346	-0.0247	0.2099	928.9293	0.136601	-421.805305	-421.798093	-421.797149	-421.836937	28.389	
C	-0.2058659984	 1.5680451191	 0.0402272513	-0.399078
C	 0.0386502991	 0.0564990067	-0.0293647586	-0.114198
C	 0.8475570739	-0.4539244097	-1.2132486923	-0.102025
C	 2.337552629	-0.1950281056	-1.2202332904	 0.102697
O	 2.7887122318	 0.1853055402	 0.0841939933	-0.304513
C	 2.1460913723	-1.0160661214	 0.6382195065	-0.028653
C	 1.8309192394	-1.5357710691	-0.7746863381	-0.171078
C	 0.8303742237	-0.4610597212	 1.1929168959	 0.436523
O	 0.4898968979	-0.3985952374	 2.3435236734	-0.329585
H	 0.7424256601	 2.1108072397	 0.0092975752	 0.136965
H	-0.8267186927	 1.9039500056	-0.7960389092	 0.11255
H	-0.7181242453	 1.8218150374	 0.9726010028	 0.136046
H	-0.9277406245	-0.4647842572	-0.0148949156	 0.104566
H	 0.3740050201	-0.5689456052	-2.1821248699	 0.097797
H	 2.9182802437	 0.1357269256	-2.0729311978	 0.112993
H	 2.7906044438	-1.559622431	 1.326590431	 0.099445
H	 1.9304731964	-2.5355657664	-1.1712964476	 0.109547
93.3692	198.9618	217.4506	233.1453	393.8471	455.7325	499.7336	578.087	697.5617	726.1694	750.1315	797.057	802.3955	815.2634	888.1066	915.1973	957.566	978.4956	1012.6111	1021.9576	1047.4469	1066.9322	1100.7762	1108.3628	1112.2358	1167.9376	1220.8502	1240.5981	1257.901	1276.7611	1304.7355	1339.1111	1394.526	1405.5896	1493.4892	1502.8912	1853.6044	3024.971	3041.9038	3112.3831	3127.2832	3141.1709	3175.4695	3189.7754	3221.147
CC1C2C3OC(C23)C1=O	C[C@H]1[C@H]2[C@H]3O[C@H]([C@@H]23)C1=O	
InChI=1S/C7H8O2/c1-2-3-4-6(3)9-7(4)5(2)8/h2-4,6-7H,1H3	InChI=1S/C7H8O2/c1-2-3-4-6(3)9-7(4)5(2)8/h2-4,6-7H,1H3/t2-,3+,4-,6+,7+/m0/s1
