16
gdb 128559	3.0491	1.30806	0.92073	1.8486	77.82	-0.2057	-0.0411	0.1647	1215.3026	0.126233	-434.071283	-434.063403	-434.062459	-434.103757	29.793	
C	 0.1226848307	 1.3784181867	 0.006319246	-0.252238
O	-0.0060593083	-0.0363814818	 0.0032920745	-0.258504
C	-1.2522985137	-0.5486076196	 0.0109394486	 0.389727
C	-2.4187074127	 0.1450334094	 0.021543101	-0.302675
C	-3.6856997958	-0.5601516274	 0.0287880698	 0.398043
N	-4.8135186559	 0.0549533228	 0.0388607265	-0.56765
N	-3.5352748841	-1.9580874434	 0.023578467	-0.304057
N	-2.3945141838	-2.6628908904	 0.0131428046	-0.183274
C	-1.2882858494	-1.9923110789	 0.0069844029	-0.048818
H	 1.1931437588	 1.5852975838	-0.0010883462	 0.143155
H	-0.3441427364	 1.8192404442	-0.8824639928	 0.137387
H	-0.3307981115	 1.8142052291	 0.9044468304	 0.137385
H	-2.4778885251	 1.2237732473	 0.0251473198	 0.121936
H	-5.5988254911	-0.5976862793	 0.0427139143	 0.193493
H	-4.3668210457	-2.5295705207	 0.0280109753	 0.262825
H	-0.3630768961	-2.5558034418	-0.0014570418	 0.133262
109.7217	156.4697	201.5343	219.2799	264.1483	407.0748	422.4982	470.6343	559.4	560.6648	595.403	678.4637	723.8084	737.4839	779.4388	883.7753	886.7061	950.899	1015.592	1055.4722	1121.084	1168.4794	1179.4466	1203.8927	1263.1896	1305.5081	1371.239	1423.6519	1456.0243	1485.8136	1490.0878	1504.9343	1605.351	1666.8675	1709.4799	3018.9501	3084.0634	3147.8933	3208.0879	3241.108	3458.3026	3617.9839
COC1=CC(=N)NN=C1	CO[C@@H]1C=C([NH])NN=C1	
InChI=1S/C5H7N3O/c1-9-4-2-5(6)8-7-3-4/h2-3H,1H3,(H2,6,8)	InChI=1S/C5H8N3O/c1-9-4-2-5(6)8-7-3-4/h2-4,6,8H,1H3/t4-/m1/s1
