15
gdb 20914	3.42065	1.9412	1.34245	2.4768	62.86	-0.2183	0.0159	0.2343	903.0095	0.12061	-396.02913	-396.021666	-396.020722	-396.061493	26.799	
C	 0.1270269457	 1.5908176451	-0.0390353363	-0.377194
C	-0.0140523529	 0.0769855477	 0.1188905435	-0.144121
N	 0.6832774796	-0.4341836812	 1.2818098185	-0.067452
N	 2.0594554414	-0.4413684117	 1.3459711446	-0.24196
C	 2.3285744963	-0.9484955748	 2.5074375815	 0.062705
N	 1.1929613323	-1.2700536908	 3.2028570924	-0.365126
C	 0.0806044028	-0.9397814226	 2.4172857624	 0.478084
O	-1.0983751421	-1.0699541313	 2.6753736895	-0.435797
H	 1.1802815501	 1.8711681507	-0.1236761126	 0.138887
H	-0.3931784986	 1.9239913484	-0.9421295417	 0.119693
H	-0.3038039256	 2.113920135	 0.8196069191	 0.129692
H	-1.0592876358	-0.2107790716	 0.2584274746	 0.147742
H	 0.3690242178	-0.4397724715	-0.7674279954	 0.122224
H	 3.3270403926	-1.1029318598	 2.8846051366	 0.152897
H	 1.1190212363	-1.6769553417	 4.1186089335	 0.279727
53.3095	113.9972	205.8594	245.4405	302.3994	373.7099	481.5112	536.3562	658.0834	666.2343	745.4906	775.8722	799.0662	827.2681	940.437	975.9878	1041.6638	1099.7212	1106.8581	1139.3374	1227.6452	1302.766	1348.98	1393.3331	1405.2627	1411.1176	1424.2353	1480.7399	1489.7533	1505.744	1611.3977	1836.0215	3044.5307	3051.4006	3107.9053	3118.6797	3132.4243	3269.5534	3691.6934
CCN1N=CNC1=O	CCn1nc[nH]c1=O	
InChI=1S/C4H7N3O/c1-2-7-4(8)5-3-6-7/h3H,2H2,1H3,(H,5,6,8)	InChI=1S/C4H7N3O/c1-2-7-4(8)5-3-6-7/h3H,2H2,1H3,(H,5,6,8)
