19
gdb 35901	3.07159	1.39089	1.07431	1.6352	80.99	-0.2483	0.038	0.2863	1145.6359	0.160142	-385.843115	-385.835087	-385.834143	-385.875582	31.738	
C	-0.0553140675	-1.1984693534	-0.1320990386	-0.425483
C	-0.0338898162	-0.0031229535	-0.0173656174	 0.308915
C	 0.0232823087	 1.4546816133	 0.0782540615	-0.086596
O	-0.6581965654	 1.8574213249	 1.2625069027	-0.260786
C	-0.6892282833	 3.2736900039	 1.3810289898	-0.06096
C	 0.6901845706	 3.8442497055	 1.7235097347	-0.231645
C	 1.789237918	 3.1931794742	 0.8855854945	-0.044383
C	 2.3135517852	 1.8304022452	 1.277311602	-0.279417
C	 1.4587235128	 1.9714695201	 0.0514135513	-0.025163
H	-0.0804763569	-2.2559104728	-0.2272343927	 0.195002
H	-0.5098133384	 1.8799598955	-0.791770073	 0.092693
H	-1.0587976914	 3.7119859049	 0.4391000816	 0.088187
H	-1.4182856141	 3.4969987665	 2.1646764618	 0.107414
H	 0.6762493195	 4.926248899	 1.5522611252	 0.099624
H	 0.8937347125	 3.6976378567	 2.7902670721	 0.10931
H	 2.514804452	 3.8773519441	 0.4575643215	 0.08612
H	 3.3690425617	 1.6192599399	 1.147992935	 0.107951
H	 1.8577892701	 1.3609802885	 2.1431116991	 0.12654
H	 1.939296412	 1.8722561673	-0.9166252411	 0.092679
88.2263	137.1286	186.862	279.1625	349.8386	360.4907	436.4097	445.352	529.4775	613.8334	621.3974	669.1451	678.7023	762.5283	813.1706	849.8878	867.0951	917.6343	955.3282	967.7779	1026.5544	1071.275	1072.992	1081.335	1100.7151	1130.1294	1140.3762	1153.4509	1225.0893	1257.2058	1285.2986	1331.7441	1348.1137	1360.8124	1371.8055	1410.2177	1416.413	1479.8701	1493.4363	1498.6018	2243.6902	2930.0475	2968.0151	3034.4059	3072.5659	3090.5501	3132.7863	3150.3682	3161.3681	3221.159	3504.1754
C#CC1OCCC2CC12	C#C[C@H]1OCC[C@H]2C[C@@H]12	
InChI=1S/C8H10O/c1-2-8-7-5-6(7)3-4-9-8/h1,6-8H,3-5H2	InChI=1S/C8H10O/c1-2-8-7-5-6(7)3-4-9-8/h1,6-8H,3-5H2/t6-,7+,8+/m0/s1
