12
gdb 129540	5.17332	1.04839	0.98572	2.3922	56.07	-0.2859	-0.0303	0.2556	1140.816	0.077814	-505.972993	-505.965312	-505.964368	-506.006516	26.528	
N	-0.2594420879	 1.3029864308	 0.0748849817	-0.560259
C	-0.0737458274	 0.0117514955	-0.2827097083	 0.499904
O	 0.5448994412	-0.4122546684	-1.2166979556	-0.35895
O	-0.7413825483	-0.7961922331	 0.6421492141	-0.288076
C	-0.8258216862	-2.1065226301	 0.3427441609	 0.480455
N	-0.2656842015	-3.0013202083	 1.1115877446	-0.180282
O	-0.6693288118	-4.2010369739	 0.5176258103	-0.151748
C	-1.4168092358	-3.8664374238	-0.5368010914	 0.126227
N	-1.56352748	-2.5921787997	-0.7055209672	-0.303663
H	 0.2789954723	 2.0004792998	-0.4073180234	 0.281854
H	-0.6964241035	 1.5312995726	 0.950343214	 0.279454
H	-1.8221865211	-4.6725743614	-1.1303675397	 0.175083
49.3507	71.0137	128.8936	219.6733	337.3289	393.5847	462.6712	533.5514	619.9831	629.7508	703.4841	763.8345	836.3464	905.2807	925.3538	949.272	979.9567	1052.8102	1114.6978	1144.5057	1308.6475	1320.9388	1386.5425	1541.5287	1606.9568	1622.8775	1889.4991	3269.1865	3627.7271	3761.2354
NC(=O)OC1=NOC=N1	NC(=O)Oc1nocn1	
InChI=1S/C3H3N3O3/c4-2(7)9-3-5-1-8-6-3/h1H,(H2,4,7)	InChI=1S/C3H3N3O3/c4-2(7)9-3-5-1-8-6-3/h1H,(H2,4,7)
