18
gdb 34627	2.39879	1.67226	1.07752	1.2975	88.	-0.2222	-0.0227	0.1995	1125.9338	0.147981	-364.774216	-364.765907	-364.764963	-364.807464	31.96	
C	 0.1369224955	-1.1656064309	-0.0990935142	-0.443159
C	 0.0231681083	 0.0321232315	-0.0189196062	 0.216552
C	-0.0323523633	 1.4451415056	 0.0608039678	 0.15808
C	-1.1333062164	 2.2124831055	 0.1042811838	-0.194566
C	-0.8139419017	 3.683541186	 0.1257369584	-0.264496
C	 0.7334501816	 3.7333484467	 0.2458935171	-0.294398
C	 1.2088982408	 2.2902910137	 0.0422672729	 0.251568
C	 2.5245844191	 1.7711358014	 0.4880069869	-0.302104
N	 2.2744349343	 2.0198215024	-0.94282736	-0.359842
H	 0.2094434009	-2.2229673322	-0.1659144439	 0.19631
H	-2.1461601599	 1.8276819307	 0.0978101745	 0.103553
H	-1.179293167	 4.1698068642	-0.7888368952	 0.118358
H	-1.3111853751	 4.1971387421	 0.9569659701	 0.113205
H	 1.1959888677	 4.3923536014	-0.4914494032	 0.122188
H	 1.0262656055	 4.0898200269	 1.2379733836	 0.110137
H	 3.2341406293	 2.4517598663	 0.9523440957	 0.114913
H	 2.5773292778	 0.743116519	 0.8368702137	 0.120107
H	 2.0884628527	 1.1339853897	-1.4108823917	 0.233594
45.9808	133.9723	151.4939	256.4391	312.0401	344.5419	418.062	462.3877	555.0109	581.7587	615.3758	648.7107	661.7794	729.4921	778.9432	835.8687	884.6031	900.5513	922.4723	941.8946	987.0633	1018.796	1050.009	1061.2711	1111.1187	1170.6735	1173.6281	1235.5641	1260.018	1271.5203	1294.3382	1323.8484	1348.8184	1389.9561	1476.6518	1496.1585	1504.3361	1668.3108	2217.8542	3017.1086	3045.9424	3062.1237	3101.3205	3114.3313	3189.3194	3206.2903	3477.7062	3500.6955
C#CC1=CCCC11CN1	C#CC1=CCC[C@]21CN2	
InChI=1S/C8H9N/c1-2-7-4-3-5-8(7)6-9-8/h1,4,9H,3,5-6H2	InChI=1S/C8H9N/c1-2-7-4-3-5-8(7)6-9-8/h1,4,9H,3,5-6H2/t8-/m1/s1
