20
gdb 124513	2.58422	1.35527	1.02855	4.9201	81.05	-0.2438	0.0079	0.2517	1232.1755	0.171165	-399.342134	-399.332739	-399.331795	-399.376689	33.999	
C	-0.0575029068	 1.6131632565	 0.0374559845	-0.390075
C	 0.0458448083	 0.0811571245	-0.0015113278	-0.095175
C	-1.3496757968	-0.565637828	 0.120815358	-0.383573
C	 0.7571765947	-0.3848662676	-1.2399779141	 0.338257
C	 0.8932266702	 0.1569965713	-2.5010132677	-0.161528
N	 1.6209278448	-0.687992331	-3.2792094956	-0.194124
N	 1.9504859791	-1.7294949171	-2.574474586	-0.155363
N	 1.4326054805	-1.5627885647	-1.3344976913	-0.016767
C	 1.6723591453	-2.5752335254	-0.3277326623	-0.340724
H	 0.9279406617	 2.0816906793	-0.0315916416	 0.126704
H	-0.6688673005	 1.9860654578	-0.7909439668	 0.126297
H	-0.5296259186	 1.9384505071	 0.9692442157	 0.116602
H	 0.6380853915	-0.2363788024	 0.8677046589	 0.084833
H	-1.985217924	-0.2646677899	-0.7180240655	 0.129566
H	-1.2945108708	-1.658244837	 0.1202420501	 0.118381
H	-1.8368296134	-0.2526175552	 1.0498371207	 0.117914
H	 0.5197297406	 1.0931349808	-2.8830847836	 0.117971
H	 2.1819941243	-2.1484612013	 0.5410822623	 0.145052
H	 0.7370297898	-3.0382358826	-0.0007208584	 0.144953
H	 2.3096316401	-3.3322377549	-0.7843551795	 0.170801
48.0888	113.1752	150.446	182.035	223.1467	230.1948	261.4463	293.9736	363.187	422.7091	500.4745	614.9938	706.9968	725.8509	737.9202	846.2425	889.1333	930.8124	965.5306	982.7761	1028.2497	1094.0015	1118.1787	1149.9777	1150.5591	1153.5209	1211.3998	1270.4182	1307.0683	1333.3304	1346.043	1362.9785	1398.9813	1421.7767	1443.2121	1482.0978	1484.4379	1484.9111	1494.6236	1502.4319	1502.706	1509.9657	1582.1544	3007.0361	3034.7308	3039.5107	3046.3954	3104.9055	3107.5841	3109.5278	3112.0855	3118.1209	3162.3262	3268.4329
CC(C)C1=CN=NN1C	CC(C)c1cnnn1C	
InChI=1S/C6H11N3/c1-5(2)6-4-7-8-9(6)3/h4-5H,1-3H3	InChI=1S/C6H11N3/c1-5(2)6-4-7-8-9(6)3/h4-5H,1-3H3
