16
gdb 10719	2.55669	2.21388	1.37053	7.1217	61.09	-0.2478	0.0191	0.2669	903.2446	0.131892	-417.059326	-417.051637	-417.050693	-417.09137	28.739	
N	-0.2217995953	 0.570163778	 0.0474656613	-0.520236
H	-0.5722711102	-0.3751413753	 0.1690766578	 0.250182
H	 1.4691359025	 0.7013394863	 0.5835856901	 0.315295
H	-0.562027343	 0.9119909933	-0.8445196312	 0.250996
C	-0.6576899176	 1.4410175354	 1.1556389599	-0.273322
C	 0.0518028825	 1.062190026	 2.4413317086	 0.156024
C	-0.6211489495	 1.320549542	 3.7361674914	-0.265007
N	-0.4922489265	-0.0619374359	 3.2545449801	-0.332588
C	 1.5814312155	 1.0930144561	 2.4474145425	 0.413701
O	 2.2148938653	 1.2758175408	 3.4528303428	-0.335732
O	 2.1661382612	 0.9032125838	 1.2590172762	-0.384217
H	-0.395924256	 2.4692146232	 0.880894805	 0.135243
H	-1.7449247268	 1.4180790891	 1.3245733983	 0.100594
H	 0.0086410452	 1.5595983763	 4.5853795654	 0.156249
H	-1.5997569219	 1.7935012338	 3.7163296398	 0.109083
H	-1.3796022452	-0.3634040331	 2.8527540919	 0.223734
80.4241	149.0653	249.9239	277.7774	298.7394	327.031	384.4089	435.5936	511.0343	600.7313	739.2918	754.5682	829.3652	876.4269	899.3199	937.0201	969.7407	976.1748	1005.9869	1048.1045	1081.0849	1143.1502	1181.0778	1221.8077	1269.604	1296.2732	1331.0769	1391.7184	1423.695	1490.2111	1493.8443	1502.6053	1648.6789	1856.8785	2986.9545	3064.6679	3116.4909	3222.8063	3264.3741	3459.0004	3506.2781	3590.9903
[NH3+]CC1(CN1)C([O-])=O	NC[C@]1(CN1)C(=O)O	
InChI=1S/C4H8N2O2/c5-1-4(2-6-4)3(7)8/h6H,1-2,5H2,(H,7,8)	InChI=1S/C4H8N2O2/c5-1-4(2-6-4)3(7)8/h6H,1-2,5H2,(H,7,8)/t4-/m0/s1
