19
gdb 23521	2.74781	1.28583	1.03225	0.2948	81.65	-0.226	0.0241	0.2501	1220.8163	0.157472	-419.079505	-419.070518	-419.069573	-419.112798	34.242	
C	-0.0738429055	 1.5498808064	 0.006730989	-0.435161
C	 0.0044001318	 0.0340668288	-0.0531135715	 0.038902
C	 1.259621453	-0.6533730936	-0.6937657081	-0.128179
N	 2.0324552035	-0.1857768875	 0.5418516409	-0.106512
C	 3.267194695	-0.8962087978	 0.8758325972	-0.335711
C	 0.7232659537	-0.7547555681	 1.0952010333	-0.121644
C	 0.8752444859	-1.8942283458	 0.1058337597	 0.489456
N	 0.8590790492	-3.1544045643	 0.1207266191	-0.322163
O	 1.2257520067	-3.6812485978	-1.1450210258	-0.406243
H	 0.8787828693	 1.9797816248	 0.316973791	 0.141482
H	-0.3412082021	 1.9557742836	-0.9747968779	 0.116561
H	-0.8496941069	 1.8635369041	 0.7133469374	 0.116068
H	-0.9414418576	-0.41859827	-0.3610376415	 0.086965
H	 1.6605368192	-0.5623502975	-1.7013436735	 0.098242
H	 4.0549712655	-0.5593551008	 0.194771086	 0.12398
H	 3.5614930869	-0.6159058345	 1.8922110667	 0.123033
H	 3.1996895314	-1.9929976351	 0.8208989158	 0.123318
H	 0.5032281605	-0.7783235421	 2.1616232867	 0.09299
H	 1.1555573106	-4.6288921828	-0.9887273543	 0.304618
96.0577	164.3279	208.517	211.8486	227.3625	274.9322	296.9357	335.2637	376.8459	420.4808	499.6792	619.1511	691.7144	727.2794	747.6198	774.8913	811.964	815.3749	939.1698	1023.5076	1033.657	1065.7906	1093.0906	1095.9232	1117.2953	1137.53	1167.1555	1183.272	1188.4848	1219.2844	1222.6991	1249.8143	1389.5319	1401.3491	1409.5168	1445.8349	1488.9619	1491.9156	1502.4899	1505.9796	1810.7553	2992.1178	3038.8411	3075.0269	3083.0045	3094.5984	3105.0819	3134.5122	3145.719	3150.4197	3819.835
CC1C2N(C)C1C2=NO	C[C@H]1[C@H]2N(C)[C@@H]1C2=NO	
InChI=1S/C6H10N2O/c1-3-5-4(7-9)6(3)8(5)2/h3,5-6,9H,1-2H3	InChI=1S/C6H10N2O/c1-3-5-4(7-9)6(3)8(5)2/h3,5-6,9H,1-2H3/t3-,5+,6-
