20
gdb 124439	3.1297	1.20183	1.07546	4.9358	80.	-0.249	0.0044	0.2534	1211.9772	0.171068	-399.342569	-399.333441	-399.332497	-399.376459	34.488	
C	-0.0188383022	 1.544247511	 0.0138923367	-0.400439
C	-0.015389735	-0.0011439356	 0.0170204831	 0.116131
C	 0.7507480135	-0.5148361922	 1.2569314233	-0.400491
C	-1.4663850618	-0.511715314	 0.0696196245	-0.407685
C	 0.6467648941	-0.5121717553	-1.2395808299	 0.385451
C	 0.2193387306	-1.301887124	-2.2849489787	-0.184405
N	 1.2354695809	-1.4628655032	-3.1800155205	-0.193156
N	 2.2802118602	-0.8171475985	-2.7556719005	-0.117472
N	 1.9333126677	-0.241201139	-1.5856004268	-0.260932
H	 0.9970956956	 1.9527113701	-0.0061309103	 0.104873
H	-0.5535055317	 1.9341030123	-0.8571367751	 0.128559
H	-0.509249359	 1.9239280504	 0.9161170737	 0.118883
H	 0.2692709431	-0.1597093564	 2.1738453398	 0.118901
H	 0.7707087509	-1.6082526147	 1.2812322561	 0.128565
H	 1.786894501	-0.1604254283	 1.2699036955	 0.104851
H	-2.0429924705	-0.1596702856	-0.7910449001	 0.124223
H	-1.502705622	-1.6051933299	 0.0814758142	 0.124225
H	-1.9583793885	-0.1479701252	 0.9768477696	 0.115102
H	-0.7441224114	-1.7568890652	-2.4436998692	 0.119763
H	 2.6178065246	 0.3103903433	-1.0939690954	 0.275054
43.4975	147.4243	196.3766	218.875	265.842	285.7904	325.5513	333.1401	338.8604	436.2756	463.7524	586.6731	586.9416	728.5505	732.9046	829.8938	853.6802	930.1093	938.9635	961.4455	994.9244	1040.3786	1050.0013	1050.4988	1074.4681	1135.4961	1188.6615	1228.1982	1228.3149	1274.7762	1339.9083	1371.2323	1400.311	1400.4183	1420.7398	1435.3602	1478.1593	1482.1433	1486.6076	1502.6659	1504.006	1516.7572	1597.4273	3030.114	3032.8332	3039.4325	3096.0338	3101.3169	3108.8277	3109.69	3113.8534	3115.4225	3276.6716	3660.0161
CC(C)(C)C1=CN=NN1	CC(C)(C)c1cnn[nH]1	
InChI=1S/C6H11N3/c1-6(2,3)5-4-7-9-8-5/h4H,1-3H3,(H,7,8,9)	InChI=1S/C6H11N3/c1-6(2,3)5-4-7-9-8-5/h4H,1-3H3,(H,7,8,9)
