16
gdb 66546	3.21564	1.72047	1.43315	1.2544	70.76	-0.2419	-0.0209	0.221	925.8663	0.124862	-400.680994	-400.674173	-400.673229	-400.712145	27.11	
C	-0.0260431393	 1.4292440429	 0.0146563119	-0.51526
C	 0.0524420434	-0.0589071295	 0.1102146262	 0.350405
C	 1.0029188548	-0.9446330156	-0.6445373652	-0.08945
C	 1.0339131558	-2.2153315511	 0.221379625	-0.211549
C	-0.5262599323	-2.0255101703	 0.1668344248	 0.019298
C	-0.3212440191	-0.9657431968	 1.3063682184	-0.266265
C	 0.9826562316	-1.7032972038	 1.6780896121	 0.438346
O	 1.5840977947	-1.9250572117	 2.6848654599	-0.316128
N	-0.4663873704	-0.9814995026	-0.9555323865	-0.209242
H	 0.6703264675	 1.9041871201	 0.7144904587	 0.131747
H	 0.230406256	 1.7546714763	-0.9983677864	 0.136625
H	-1.0358311498	 1.7879593573	 0.2388032667	 0.131853
H	 1.7387706244	-0.5903800271	-1.3558700588	 0.105905
H	 1.5839622198	-3.0955067926	-0.0979865799	 0.098063
H	-1.2642665506	-2.8223933982	 0.1648040476	 0.100476
H	-1.0683814366	-0.6445944974	 2.0266179856	 0.095177
115.1426	192.1039	247.3721	285.0116	411.0554	559.2922	575.9569	605.6831	748.2181	760.1376	792.1533	807.5024	835.5552	866.9016	877.5121	916.1496	950.8561	963.482	982.2755	1010.8559	1049.704	1088.5824	1094.9403	1137.6752	1169.6772	1183.1213	1198.3551	1214.555	1261.4119	1280.6377	1397.3524	1429.887	1479.4966	1492.6269	1897.1722	3032.3477	3099.2244	3109.7899	3157.8186	3166.5377	3171.2044	3192.7785
CC12C3C4C(C1C4=O)N23	C[C@@]12[C@H]3[C@@H]4[C@@H]([C@H]1C4=O)N23	
InChI=1S/C7H7NO/c1-7-3-4-2(5(3)9)6(7)8(4)7/h2-4,6H,1H3	InChI=1S/C7H7NO/c1-7-3-4-2(5(3)9)6(7)8(4)7/h2-4,6H,1H3/t2-,3+,4+,6-,7+,8?/m1/s1
