19
gdb 40972	3.3878	1.3146	1.17414	1.9278	71.04	-0.2402	0.0712	0.3114	1099.1455	0.160581	-460.1316	-460.123856	-460.122912	-460.16406	29.769	
C	 0.0380079062	 1.5140196103	-0.0821071209	-0.134956
O	 1.2866097048	 1.5515038909	 0.639070341	-0.274327
C	 1.4739219641	 0.1287902618	 0.4772083231	-0.125311
C	 0.0235237353	-0.0206427331	-0.0540163111	 0.343501
C	-0.961307543	-0.6433024387	 0.9284526071	-0.137778
O	-0.8012187806	-2.0512858136	 0.9777685558	-0.252553
C	-0.9893989661	-2.6208318839	-0.3088347501	-0.079108
C	-0.0059895142	-2.015206144	-1.3024747199	-0.097818
O	-0.1325505378	-0.597250974	-1.3345062366	-0.298364
H	-0.7669971793	 2.0339162824	 0.4509801589	 0.102746
H	 0.1267577089	 1.912247027	-1.100603946	 0.110155
H	 2.2346784943	-0.1036047752	-0.2793740522	 0.100551
H	 1.7220560124	-0.3680290269	 1.4208177317	 0.111058
H	-0.7938151897	-0.2652744249	 1.9408295554	 0.119558
H	-1.9878512725	-0.3830895169	 0.6186506563	 0.092047
H	-0.8309506368	-3.698554993	-0.2073980886	 0.111673
H	-2.0214145304	-2.4451480026	-0.6542761476	 0.096247
H	 1.0209359111	-2.2988334177	-1.023414965	 0.10042
H	-0.2004578666	-2.369724078	-2.3188002616	 0.112258
88.9724	120.4225	198.1429	288.4382	313.1703	391.9662	419.5041	469.0786	481.9546	584.1772	717.4084	829.7836	872.2666	890.6345	919.3025	934.6941	971.2837	994.6046	1014.8021	1027.4051	1109.045	1119.564	1135.6416	1151.0744	1160.9403	1163.4525	1202.3663	1264.211	1268.3345	1297.4614	1306.5599	1326.793	1378.4419	1381.6643	1406.8191	1419.9651	1480.0517	1488.8512	1492.4867	1500.6261	1526.0725	2964.4061	2975.391	2989.4034	3010.0533	3020.8559	3066.4238	3076.1778	3089.7839	3091.7555	3094.1411
C1OCC11COCCO1	C1OCC21COCCO2	
InChI=1S/C6H10O3/c1-2-9-6(3-7-1)4-8-5-6/h1-5H2	InChI=1S/C6H10O3/c1-2-9-6(3-7-1)4-8-5-6/h1-5H2
