15
gdb 7972	3.81409	1.69667	1.21952	5.8658	66.79	-0.2266	-0.0187	0.2078	939.9909	0.119699	-399.844282	-399.836723	-399.835779	-399.876006	28.567	
N	 0.0605878355	 1.327772372	 0.1862987706	-0.574406
C	-0.0292758776	-0.0129544169	 0.0381178896	 0.398738
C	-1.1545855046	-0.7829462095	 0.0425295464	-0.333296
C	-0.7873577704	-2.169934494	-0.1327463837	 0.363568
O	-1.4677593813	-3.1466389954	-0.3949797834	-0.389512
C	 0.7456055286	-2.2753277153	 0.0098605345	 0.055439
O	 1.2784219294	-3.1702378401	-0.9338103867	-0.444556
C	 1.2323595705	-0.8288665343	-0.1572384438	-0.338697
H	 0.9262015268	 1.7987000268	-0.0131330235	 0.267245
H	-0.7704006112	 1.8951665329	 0.1940445782	 0.268499
H	-2.1741964371	-0.4242667178	 0.0947085518	 0.095828
H	 0.9596072532	-2.6167701053	 1.0371006859	 0.086582
H	 0.5572626736	-3.7949112034	-1.1085582699	 0.28994
H	 1.6229020928	-0.6925811416	-1.1724043606	 0.139433
H	 2.0190834617	-0.536931608	 0.5464139244	 0.115195
92.4836	161.5055	253.4054	270.1253	323.0485	424.6534	457.9508	468.1522	526.5926	557.4467	589.8373	623.638	732.2235	820.6538	847.844	892.6859	966.749	1031.5386	1071.82	1123.1638	1182.8	1208.1113	1231.0793	1279.2295	1305.2721	1369.308	1403.9775	1431.1827	1472.918	1628.4336	1674.2249	1787.3017	2954.7851	3041.4321	3083.6459	3216.4534	3607.7075	3703.9487	3724.5107
NC1=CC(=O)C(O)C1	NC1=CC(=O)[C@@H](O)C1	
InChI=1S/C5H7NO2/c6-3-1-4(7)5(8)2-3/h1,5,8H,2,6H2	InChI=1S/C5H7NO2/c6-3-1-4(7)5(8)2-3/h1,5,8H,2,6H2/t5-/m0/s1
