15
gdb 67494	2.5747	1.71015	1.2926	6.2651	69.49	-0.255	0.0175	0.2725	979.12	0.112387	-416.723854	-416.716303	-416.715359	-416.755621	29.404	
N	-0.0841491424	 1.4373686764	 0.0960833349	-0.588351
C	-0.0122001419	 0.0285816622	-0.0449202795	 0.240068
C	 0.5974020585	-0.7648330992	-1.2645221069	-0.057651
O	 0.7987316356	-2.1312395171	-0.8984155266	-0.213798
C	-0.5225586669	-1.699839409	-1.2407077116	 0.02494
C	-1.1652598053	-0.9680080322	-0.0251258229	-0.162604
C	-0.2273944507	-0.8619570917	 1.1648184889	-0.17827
C	 0.6459366385	-1.8765838524	 1.6994044531	 0.309597
N	 1.3146202679	-2.6413024166	 2.2524312859	-0.36064
H	 0.8225788916	 1.8360077366	 0.3224397487	 0.244315
H	-0.4149619147	 1.8816806301	-0.754887685	 0.239386
H	 1.192343637	-0.3522698956	-2.0716819943	 0.116413
H	-1.0436309258	-2.2326985529	-2.0256122292	 0.123655
H	-2.2245925695	-0.7766733714	 0.0831632544	 0.113787
H	-0.690582182	-0.2768575674	 1.9558312001	 0.149152
127.7618	167.275	224.7186	308.4832	316.9318	359.7232	430.2646	477.8074	558.966	629.7119	680.9245	761.5823	774.5385	799.7088	829.3506	870.4737	891.403	935.3014	943.9109	989.8581	1015.1637	1050.5431	1078.1718	1171.6278	1203.6103	1235.6631	1253.5517	1275.2977	1319.3525	1372.5734	1462.0519	1657.9762	2353.6161	3150.1575	3181.6394	3203.8889	3212.6306	3489.3778	3566.6398
NC12C3OC3C1C2C#N	N[C@]12[C@H]3O[C@H]3[C@H]1[C@H]2C#N	
InChI=1S/C6H6N2O/c7-1-2-3-4-5(9-4)6(2,3)8/h2-5H,8H2	InChI=1S/C6H6N2O/c7-1-2-3-4-5(9-4)6(2,3)8/h2-5H,8H2/t2-,3-,4+,5+,6+/m1/s1
