18
gdb 65120	3.45261	1.24422	1.03476	2.1764	73.31	-0.2465	0.008	0.2545	1189.7519	0.147427	-439.082064	-439.073449	-439.072505	-439.116376	31.01	
C	-0.0494673359	 1.4917091921	 0.1094242566	-0.472332
C	-0.0437748307	-0.0089404519	-0.0597537165	 0.298282
C	 0.7108814931	-0.6628504119	-1.135668484	-0.208837
O	 1.2155917113	-0.6579661613	 0.2021122899	-0.267344
C	-1.213296829	-0.7509374216	 0.5046271575	 0.397812
N	-1.737207482	-1.8022453398	 0.0234345046	-0.320323
C	-2.8085208837	-2.1975771355	 0.9494351357	-0.18977
C	-2.8136591049	-1.0929755031	 2.0386010225	-0.114427
O	-1.7210071079	-0.2274194125	 1.654267287	-0.260101
H	 0.862639953	 1.9144300229	-0.3174950944	 0.128238
H	-0.9142485229	 1.9367444225	-0.3936876688	 0.126793
H	-0.1009725967	 1.758289945	 1.1678876019	 0.14515
H	 0.37440515	-1.627903742	-1.5043376146	 0.14087
H	 1.2570375213	-0.038525371	-1.8416872633	 0.110073
H	-3.760561287	-2.2656757626	 0.4133761958	 0.119078
H	-2.595479509	-3.1902859619	 1.3601741792	 0.122325
H	-3.7314564119	-0.4982120859	 2.0551614806	 0.120028
H	-2.6143924871	-1.4660518116	 3.0463945504	 0.124487
34.7804	93.6269	140.3277	197.778	200.5594	320.8729	346.3953	365.4538	476.5971	557.0174	729.7749	756.0725	796.9805	830.6215	871.8385	920.4822	933.961	974.2187	999.1102	1010.3161	1036.8221	1104.0214	1120.7831	1137.6405	1152.5601	1177.7333	1214.7255	1246.4611	1286.9566	1347.8923	1375.928	1408.3041	1420.7743	1478.8074	1496.1621	1502.3529	1519.8107	1526.4653	1735.6915	3042.6854	3046.342	3057.0847	3072.046	3092.3885	3106.7526	3116.7031	3136.6487	3195.7758
CC1(CO1)C1=NCCO1	C[C@]1(CO1)C1=NCCO1	
InChI=1S/C6H9NO2/c1-6(4-9-6)5-7-2-3-8-5/h2-4H2,1H3	InChI=1S/C6H9NO2/c1-6(4-9-6)5-7-2-3-8-5/h2-4H2,1H3/t6-/m0/s1
