17
gdb 111387	2.18345	1.69428	1.14273	2.0702	73.4	-0.251	0.0292	0.2802	1080.6385	0.134422	-421.740808	-421.732353	-421.731409	-421.773858	32.103	
O	 0.1587734734	 1.335748437	 0.0685808895	-0.427364
C	 0.0416190474	-0.0427456716	-0.2400312584	-0.091617
C	-1.3831403905	-0.5470883366	-0.0439447583	-0.049058
C	-1.6203472405	-2.0637720606	-0.1178295516	-0.000446
O	-0.8595772504	-2.6679438316	 0.9385550839	-0.233044
C	-2.1338748547	-2.1197781332	 1.2579896901	 0.022091
C	-1.9664341003	-0.5932201115	 1.4408233943	-0.240068
C	-1.1371513328	-0.1269841204	 2.5351307965	 0.332891
C	-0.4344037292	 0.2722888505	 3.427251268	-0.4588
H	 0.084719814	 1.4117298114	 1.0272911508	 0.287196
H	 0.3241647967	-0.1514385824	-1.2935726193	 0.105847
H	 0.7314385317	-0.6546146571	 0.3547913581	 0.113845
H	-2.0709312671	 0.0105129931	-0.6850242482	 0.09125
H	-1.8463643475	-2.6806905634	-0.9792993524	 0.113004
H	-2.8598583986	-2.7707765038	 1.7304163268	 0.114653
H	-2.9424376901	-0.0994095552	 1.4672480318	 0.114641
H	 0.1766326384	 0.6035176354	 4.2306200285	 0.204979
101.859	123.708	150.1501	190.3588	249.3657	356.2906	396.6286	429.5595	488.4072	574.402	624.7343	636.5	649.8092	729.3803	789.111	847.4031	871.0606	892.5888	947.6602	982.2016	1024.357	1048.1118	1068.3205	1085.0562	1104.0084	1159.8239	1223.033	1229.4846	1244.4359	1260.9073	1326.9616	1335.9354	1386.3023	1407.868	1427.1953	1504.5071	2225.4843	3023.5702	3062.3787	3067.7472	3087.9712	3184.81	3199.8758	3499.4105	3785.7061
OCC1C2OC2C1C#C	OC[C@H]1[C@H]2O[C@H]2[C@H]1C#C	
InChI=1S/C7H8O2/c1-2-4-5(3-8)7-6(4)9-7/h1,4-8H,3H2	InChI=1S/C7H8O2/c1-2-4-5(3-8)7-6(4)9-7/h1,4-8H,3H2/t4-,5+,6-,7+/m0/s1
