15
gdb 32061	3.69914	1.14378	0.87845	5.4651	72.91	-0.2249	-0.0555	0.1694	1232.4168	0.113785	-453.992023	-453.98393	-453.982986	-454.025904	29.133	
O	 0.0580072836	 1.4196322162	 0.0077865063	-0.401398
C	 0.0115393717	 0.012722059	 0.0018900171	-0.166556
C	-1.4259746901	-0.4320353316	 0.0127932339	 0.350317
C	-2.5035947348	 0.3993942285	 0.0231953828	-0.110146
N	-3.7870947059	-0.0829350633	 0.032340802	-0.221337
C	-3.9811067005	-1.3657086645	 0.0310240039	-0.098448
C	-2.9180823402	-2.3742992778	 0.0205539297	 0.378622
O	-3.0568031566	-3.5838999325	 0.0187018544	-0.388118
N	-1.6482797969	-1.7811574055	 0.0116789588	-0.403717
H	 0.979058619	 1.694161392	-0.0011239717	 0.301573
H	 0.5047898506	-0.4106458397	-0.8905795091	 0.115235
H	 0.5207822618	-0.4186400962	 0.8814665068	 0.115101
H	-2.3696086069	 1.4709167863	 0.0244950805	 0.137771
H	-4.9996707467	-1.7465350049	 0.0382071128	 0.132224
H	-0.8750912881	-2.4351416659	 0.0042415816	 0.258875
25.9214	148.8994	186.2596	201.4711	211.943	367.9278	440.2899	474.6931	558.7925	561.0331	598.5427	709.3793	728.597	771.6902	868.5114	925.0493	942.0097	1042.5574	1043.692	1118.5334	1123.3383	1209.5299	1229.5757	1244.6932	1253.8411	1346.8068	1394.1474	1454.6316	1489.468	1511.9782	1576.3307	1652.3331	1788.3001	2946.3219	2966.12	3164.3234	3245.8836	3575.8498	3846.3988
OCC1=CN=CC(=O)N1	OCc1cncc(=O)[nH]1	
InChI=1S/C5H6N2O2/c8-3-4-1-6-2-5(9)7-4/h1-2,8H,3H2,(H,7,9)	InChI=1S/C5H6N2O2/c8-3-4-1-6-2-5(9)7-4/h1-2,8H,3H2,(H,7,9)
