17
gdb 36558	5.72593	0.49446	0.46836	0.4968	89.65	-0.2519	0.0338	0.2858	2249.4056	0.131964	-347.457523	-347.447091	-347.446147	-347.496038	36.266	
C	 0.0311636886	-1.1335406509	-0.4648404494	-0.438854
C	 0.1791713248	 0.0584256752	-0.5093626321	 0.293815
C	 0.3764792214	 1.5016598047	-0.525619994	-0.339467
C	 1.0823434787	 2.0124934658	 0.7591236184	-0.347421
C	 1.2801611786	 3.4563614155	 0.7448897607	 0.033434
C	 1.4303484732	 4.6492586769	 0.7005027694	 0.127861
C	 1.6189966209	 6.1011751398	 0.6663942425	-0.492366
C	 2.5828094896	 6.5449514685	-0.3430345913	 0.317562
C	 3.3703333681	 6.920655402	-1.1675287323	-0.44487
H	-0.106792218	-2.1860200939	-0.4415815289	 0.196639
H	 0.9730368873	 1.7904600781	-1.398379347	 0.144944
H	-0.5878568575	 2.0119503688	-0.6296728262	 0.141529
H	 0.4859483066	 1.7210024749	 1.6314150481	 0.141371
H	 2.0459493496	 1.500322793	 0.8618109645	 0.143234
H	 0.6538122626	 6.5941141475	 0.484810042	 0.160246
H	 1.9455211732	 6.4511549122	 1.6555973067	 0.161752
H	 4.0681777723	 7.248275242	-1.8976207912	 0.20059
6.5561	48.3491	74.6512	106.7084	178.8208	246.387	286.0559	322.6554	346.5086	383.253	444.7333	496.8382	573.2248	620.3435	622.8731	649.208	649.6684	765.0586	798.6295	934.5581	946.5609	964.9226	1008.8631	1034.1422	1160.5346	1194.269	1231.0724	1283.3897	1305.2695	1335.6659	1366.1935	1452.8898	1471.6233	1481.9691	2239.6088	2247.1644	2376.6533	3006.9074	3030.6568	3032.536	3042.3288	3060.5141	3082.3923	3507.0269	3507.2622
C#CCCC#CCC#C	C#CCCC#CCC#C	
InChI=1S/C9H8/c1-3-5-7-9-8-6-4-2/h1-2H,5-7H2	InChI=1S/C9H8/c1-3-5-7-9-8-6-4-2/h1-2H,5-7H2
