18
gdb 95728	3.09224	1.22888	0.93288	3.6532	68.78	-0.2362	0.0165	0.2527	1216.6585	0.14895	-476.242653	-476.234156	-476.233211	-476.275856	32.018	
O	-0.129606301	 1.4784945148	-0.1281864157	-0.425484
C	 0.0510359747	 0.0755054178	 0.0026386823	 0.103704
C	-1.3532729328	-0.4932263624	 0.2252004604	-0.182636
N	-1.3708174052	-1.8884531534	 0.6311498842	-0.303225
C	-0.9612122909	-2.9767889808	-0.0881922792	 0.375222
O	-1.2161048641	-4.1135413868	 0.2625369326	-0.35966
C	-0.1564351116	-2.705098375	-1.3679766053	-0.186765
O	 0.9727106774	-1.8702088343	-1.1999680552	-0.234449
C	 0.7205989894	-0.4846210632	-1.2588250278	-0.105922
H	 0.7338761376	 1.8873527585	-0.2455985098	 0.2911
H	 0.6693265806	-0.1768253156	 0.8773021883	 0.085243
H	-1.8196183479	 0.0878065157	 1.0235500341	 0.130124
H	-1.9532536168	-0.3236229134	-0.6804997855	 0.118151
H	-1.9093536403	-2.1333345291	 1.4485734143	 0.250956
H	 0.2084460386	-3.6784153097	-1.699247911	 0.140235
H	-0.8283327094	-2.3021399187	-2.1447049489	 0.10537
H	 0.0972103047	-0.2284597625	-2.1317647812	 0.098194
H	 1.6982595268	-0.006120302	-1.3939670867	 0.099844
72.2833	133.863	221.9048	255.874	282.4389	320.4802	338.5564	377.0267	448.4971	479.2228	512.2499	542.2543	627.3538	721.7935	825.0564	901.9624	912.0485	968.8719	1019.1681	1066.0911	1094.4632	1104.0018	1150.6933	1179.9052	1240.965	1248.9643	1281.6867	1323.2513	1341.5551	1352.1959	1376.6532	1399.3602	1417.7866	1439.7978	1468.5425	1474.2522	1492.6824	1505.5839	1790.4258	2968.6295	2972.3709	2993.4002	3009.8249	3055.162	3108.9796	3125.7553	3618.1658	3819.4004
OC1CNC(=O)COC1	O[C@H]1CNC(=O)COC1	
InChI=1S/C5H9NO3/c7-4-1-6-5(8)3-9-2-4/h4,7H,1-3H2,(H,6,8)	InChI=1S/C5H9NO3/c7-4-1-6-5(8)3-9-2-4/h4,7H,1-3H2,(H,6,8)/t4-/m0/s1
