16
gdb 18680	3.10573	2.29686	1.54557	3.3414	64.69	-0.2158	-0.0182	0.1976	823.2157	0.133703	-379.90694	-379.90027	-379.899325	-379.937811	25.875	
O	 0.0258770405	 0.0037157051	-0.4533798533	-0.327898
C	 0.009152681	 1.1735254633	-0.1395560991	 0.419945
C	-1.2691693526	 1.9654109013	 0.1187070206	-0.275016
N	-1.3158338818	 3.1618973814	-0.7348005426	-0.293831
C	-0.2319362139	 4.1079385032	-0.4638245445	-0.16737
C	 1.1474245404	 3.4840262478	-0.2216647668	-0.041385
N	 1.3470240362	 2.8979233272	 1.1016797691	-0.329631
C	 1.2607254362	 1.9952962615	-0.0775090334	-0.141323
H	-2.1285031578	 1.3230983999	-0.087200273	 0.122848
H	-1.3063366876	 2.2837067814	 1.1666483672	 0.139423
H	-1.2711322163	 2.8688404078	-1.7061078616	 0.223573
H	-0.1754357012	 4.8022705771	-1.3077315746	 0.107798
H	-0.4946751716	 4.695018301	 0.4250576422	 0.122937
H	 1.9947352489	 3.9926668752	-0.6779453521	 0.096923
H	 2.3188798115	 2.9741239484	 1.3906864407	 0.242439
H	 2.1586552682	 1.4873319082	-0.4168823487	 0.100567
95.5809	209.4281	259.5324	384.0289	421.5543	457.8152	493.4609	588.7655	719.6215	766.1476	776.0092	832.3308	869.3473	916.2979	941.2037	954.6589	982.1396	1032.1868	1114.4342	1125.0421	1157.9903	1184.3372	1217.1327	1241.5931	1266.1414	1325.3236	1342.2345	1376.806	1385.52	1429.3066	1460.1239	1478.8766	1497.8796	1807.5186	3029.6025	3049.31	3084.9574	3116.175	3122.6272	3161.0503	3505.7998	3509.0418
O=C1CNCC2NC12	O=C1CNC[C@H]2N[C@@H]12	
InChI=1S/C5H8N2O/c8-4-2-6-1-3-5(4)7-3/h3,5-7H,1-2H2	InChI=1S/C5H8N2O/c8-4-2-6-1-3-5(4)7-3/h3,5-7H,1-2H2/t3-,5-/m1/s1
