15
gdb 129803	3.2872	1.57826	1.08591	2.9985	69.22	-0.1946	0.0073	0.2019	1047.392	0.114622	-453.922463	-453.915086	-453.914142	-453.954321	27.998	
N	 0.0504067244	 1.3958661034	 0.1836195384	-0.604079
C	-0.0785016867	 0.0293137783	 0.039409398	 0.314754
C	-1.1161594793	-0.849177892	 0.0202907845	 0.17365
O	-2.4810570029	-0.8600632362	 0.0683391118	-0.300839
C	-2.8506244599	-2.2217538383	-0.292421818	-0.099834
C	-1.6066019873	-3.1460337549	-0.0763501301	-0.364175
C	-0.5188973368	-2.1119482903	-0.0737509269	 0.319639
N	 0.7867078829	-2.0799319712	-0.1119519624	-0.265575
O	 1.0724845276	-0.6865909256	-0.0339563108	-0.225004
H	 0.9143690567	 1.7537009416	-0.2023864898	 0.265333
H	-0.7505270608	 1.911388054	-0.1543452352	 0.266032
H	-3.7100623056	-2.4998698267	 0.3199036289	 0.125037
H	-3.1484247811	-2.2250139967	-1.3477437864	 0.118408
H	-1.6515813649	-3.6727177536	 0.8827362809	 0.139233
H	-1.5151715964	-3.8935679619	-0.867184743	 0.13742
121.9019	167.8989	192.8988	268.6621	327.9681	354.734	530.9961	593.4087	608.5548	616.6967	678.4791	699.4809	756.0371	809.4554	841.2566	890.0779	936.5637	985.4581	1043.4424	1073.4876	1104.7305	1195.6978	1236.4118	1269.2773	1289.7445	1345.2458	1395.5511	1477.6829	1496.7315	1513.4456	1583.417	1636.2244	1753.3568	3033.3062	3053.4509	3107.8572	3121.6241	3550.2744	3651.7617
NC1=C2OCCC2=NO1	Nc1c2OCCc2no1	
InChI=1S/C5H6N2O2/c6-5-4-3(7-9-5)1-2-8-4/h1-2,6H2	InChI=1S/C5H6N2O2/c6-5-4-3(7-9-5)1-2-8-4/h1-2,6H2
