19
gdb 100449	3.93093	0.61214	0.55488	2.7308	84.5	-0.2595	-0.0512	0.2084	2012.2602	0.155183	-423.018019	-423.006954	-423.006009	-423.056136	37.7	
C	 0.2233342785	 1.4953416841	 0.2696274874	-0.386631
C	 0.2334273887	-0.0276881125	 0.1318544572	-0.179833
C	 0.499340721	-0.4818122635	-1.319256707	-0.064301
O	 1.7246004299	 0.031654937	-1.8328925133	-0.410205
C	 0.4271424779	-1.9404285918	-1.4331634845	 0.025455
C	 0.3848233874	-3.1463458169	-1.4959310953	 0.086157
C	 0.3208043519	-4.5937929305	-1.5874054224	 0.245894
C	 1.5954202321	-5.2736287229	-2.0446672654	-0.478067
O	-0.6917989233	-5.20224976	-1.3144091415	-0.275026
H	 1.1641885082	 1.9223425825	-0.0859532198	 0.13245
H	-0.5880730354	 1.9388211519	-0.3178278808	 0.119271
H	 0.0806520357	 1.7897469577	 1.3131586927	 0.115787
H	 1.0048750918	-0.4676131439	 0.7771257627	 0.100019
H	-0.7217807278	-0.4549067197	 0.456590028	 0.119092
H	-0.2733372866	-0.0460378509	-1.9660390402	 0.128136
H	 2.4436127975	-0.4113559569	-1.3679949383	 0.284574
H	 2.4173407971	-5.0323127249	-1.3618889029	 0.143535
H	 1.4415837658	-6.3531290563	-2.0774032012	 0.144427
H	 1.8835030995	-4.9045060024	-3.0349085751	 0.149265
21.7595	64.4448	76.064	119.5442	127.0461	186.7669	222.5532	230.1443	283.6574	316.1079	350.5308	457.7347	520.333	559.7228	600.6496	613.5594	716.0678	783.8643	867.2831	959.9847	981.1519	1034.0919	1042.5184	1060.7156	1106.9164	1124.5755	1238.8448	1251.8193	1286.8536	1327.0608	1368.8724	1381.1823	1406.9824	1417.0236	1460.8114	1468.6587	1482.3038	1495.3276	1508.4199	1768.779	2319.6618	3023.4042	3035.9779	3039.2144	3041.1356	3074.5976	3103.3025	3107.7619	3128.5343	3152.4442	3800.6066
CCC(O)C#CC(C)=O	CC[C@@H](O)C#CC(=O)C	
InChI=1S/C7H10O2/c1-3-7(9)5-4-6(2)8/h7,9H,3H2,1-2H3	InChI=1S/C7H10O2/c1-3-7(9)5-4-6(2)8/h7,9H,3H2,1-2H3/t7-/m1/s1
