17
gdb 130388	4.2029	1.01834	0.9023	12.4851	70.55	-0.2262	0.0128	0.239	1275.6089	0.139022	-447.442444	-447.434329	-447.433385	-447.475684	29.706	
N	-0.1787430318	 1.3611475849	-0.0345649068	-0.406099
C	-0.0174740115	-0.1430363239	 0.1060950322	-0.13375
C	-1.4334445205	-0.7268566445	 0.2670063098	-0.172798
N	-2.1852310107	 0.0474251605	 1.2641832797	-0.536359
H	-1.9489539667	-0.2439600969	 2.2082721088	 0.246919
H	-1.0858441548	 1.6130539605	 0.3842645763	 0.295524
H	-3.1820755453	-0.1021492433	 1.1547324167	 0.25606
C	 0.6465057137	-0.5390611506	-1.1713506134	 0.398704
N	 0.6296439654	 0.359517349	-2.1623800262	-0.337989
N	 1.2234173659	-0.2693806424	-3.1921740017	-0.157246
N	 1.5621641018	-1.4774507635	-2.8098030348	-0.145544
N	 1.2072318624	-1.6850675542	-1.5179385994	-0.345501
H	 0.5724293603	 1.8752592717	 0.4194725641	 0.306718
H	-0.0686821163	 1.4760276825	-1.1031389662	 0.317189
H	 0.5820373218	-0.3457736408	 0.998461907	 0.12049
H	-1.9478238525	-0.6379024861	-0.6947426152	 0.145658
H	-1.3315276312	-1.796718593	 0.483396559	 0.148023
76.7577	103.8418	141.5177	250.4492	291.6546	322.9351	393.4689	427.7433	452.9242	553.4466	740.0455	744.2126	792.9511	851.7882	890.5689	923.2695	1018.2318	1025.3955	1068.3164	1080.1586	1082.9405	1109.8644	1114.3299	1157.1862	1230.3594	1239.1131	1303.2041	1319.5564	1341.9135	1398.8853	1413.5854	1439.4023	1500.0494	1529.4289	1610.2295	1644.072	1659.4352	2610.476	3042.8126	3067.7943	3100.9063	3322.2178	3504.7396	3544.4938	3586.84
NC(C[NH3+])C1=N[N-]N=N1	[NH3][C@@H](CN)c1nnnn1	
InChI=1S/C3H7N6/c4-1-2(5)3-6-8-9-7-3/h2H,1,4-5H2/q-1/p+1	InChI=1S/C3H9N6/c4-1-2(5)3-6-8-9-7-3/h2H,1,4H2,5H3,(H,6,7,8,9)/t2-/m0/s1
