18
gdb 12868	2.57053	2.35203	1.7574	1.4171	72.21	-0.2245	0.0201	0.2446	846.6379	0.153831	-347.799514	-347.791939	-347.790995	-347.830698	29.931	
C	-0.1232228354	 1.5406023147	-0.0085439808	-0.418914
C	 0.0415488109	 0.0412873719	 0.0811470607	-0.06916
C	 1.3510202573	-0.7120127943	-0.2079256106	-0.148035
C	 2.6273893482	 0.0490119487	-0.1140406543	-0.068529
C	 2.8433803864	 0.5056962771	 1.1234359889	-0.075919
C	 1.7434602072	 0.0909921135	 2.076312024	-0.338983
C	 0.7611208643	-0.6846811721	 1.1884061329	 0.373482
O	 0.1968495877	-1.8513320334	 1.7141632691	-0.468174
H	 0.7988140167	 2.0672101037	 0.2494118593	 0.126248
H	-0.4024496858	 1.8402042307	-1.0246513425	 0.116208
H	-0.9124350688	 1.8910507921	 0.6669334638	 0.110076
H	-0.8209243681	-0.5240167462	-0.2667849952	 0.085617
H	 1.283407122	-1.5994726581	-0.8273483361	 0.092385
H	 3.2793621924	 0.2128037718	-0.9647205882	 0.092648
H	 3.6887727088	 1.1089372945	 1.4346689628	 0.092914
H	 2.1155031403	-0.5694761971	 2.8704419198	 0.115585
H	 1.2784113558	 0.9527454326	 2.573544832	 0.103169
H	-0.5834660498	-1.6026601501	 2.2212705443	 0.279382
179.8969	208.0544	218.2987	225.8638	293.2363	366.771	406.6316	482.3345	550.4334	590.5355	709.0593	731.6652	761.9828	834.1755	891.0119	925.2815	954.4757	959.8733	989.5476	1000.7825	1039.8496	1079.5065	1110.4347	1118.938	1142.6427	1157.2261	1227.2901	1251.9931	1296.9548	1325.0643	1341.2999	1377.3538	1411.1128	1445.7736	1473.8628	1498.2033	1501.3163	1664.2068	3015.15	3028.8416	3046.0536	3083.3989	3113.3484	3131.9944	3172.8082	3184.7086	3208.7983	3796.0388
CC1C2C=CCC12O	C[C@H]1[C@H]2C=CC[C@@]12O	
InChI=1S/C7H10O/c1-5-6-3-2-4-7(5,6)8/h2-3,5-6,8H,4H2,1H3	InChI=1S/C7H10O/c1-5-6-3-2-4-7(5,6)8/h2-3,5-6,8H,4H2,1H3/t5-,6+,7+/m0/s1
