19
gdb 55804	4.19729	1.0088	0.93634	4.2643	76.88	-0.2342	0.0409	0.2751	1281.9061	0.161391	-419.160963	-419.152974	-419.15203	-419.194194	31.059	
N	-0.0419864541	 0.0901130518	-1.6851365326	-0.511792
C	-0.1875770327	 0.2495750297	-0.3425977528	 0.377205
O	 0.2928229837	 1.1770769671	 0.2806298505	-0.369161
C	-1.0574925653	-0.8170006321	 0.344786761	-0.358305
C	-0.9073838372	-2.2212091189	-0.218187226	 0.071292
C	-1.9606558572	-3.3514940489	-0.0566437588	-0.083024
C	-2.786448664	-2.5827596233	-1.1094167498	-0.176858
N	-1.3609714439	-2.484801509	-1.6844010276	-0.159091
C	-1.2602231713	-3.96782298	-1.2889530789	-0.171271
H	 0.5136006404	 0.7692488832	-2.1788624063	 0.252967
H	-0.4188003325	-0.7176058321	-2.1680622528	 0.272676
H	-0.7605625316	-0.818696449	 1.3969681658	 0.13401
H	-2.092047992	-0.4602294412	 0.3155283435	 0.12551
H	 0.1296707562	-2.549198565	-0.0850831426	 0.086169
H	-2.2999129053	-3.8454213709	 0.8591657765	 0.074194
H	-3.4624341939	-3.1596765298	-1.7455106044	 0.107845
H	-3.2341459637	-1.6246410372	-0.8462224211	 0.111648
H	-0.2317751033	-4.3215329344	-1.1787197548	 0.108719
H	-1.8444867022	-4.6256343302	-1.9369656589	 0.107267
52.0121	86.7343	172.2407	320.4959	324.1316	412.0477	420.8888	525.7644	580.6311	603.5135	653.2173	738.3468	753.7259	786.9286	797.7535	853.7124	902.8188	907.4191	923.8147	987.2637	1026.4573	1056.7991	1082.7692	1115.7063	1139.331	1150.5603	1171.4829	1177.5609	1203.7962	1222.3759	1230.1286	1250.966	1280.9174	1317.2708	1356.9646	1437.8558	1466.0309	1519.6177	1556.719	1633.4967	1798.575	3041.4337	3051.4235	3058.954	3063.0324	3077.3267	3107.36	3125.1986	3142.734	3488.2824	3687.9125
NC(=O)CC1C2CN1C2	NC(=O)C[C@H]1[C@H]2CN1C2	
InChI=1S/C6H10N2O/c7-6(9)1-5-4-2-8(5)3-4/h4-5H,1-3H2,(H2,7,9)	InChI=1S/C6H10N2O/c7-6(9)1-5-4-2-8(5)3-4/h4-5H,1-3H2,(H2,7,9)/t5-/m0/s1
