16
gdb 17801	4.51449	1.55403	1.36566	1.8464	65.	-0.2371	-0.0262	0.2109	925.9831	0.129059	-383.681615	-383.674196	-383.673252	-383.714021	27.254	
C	 0.4210653276	 0.8352731591	 1.301189213	-0.480018
C	 0.1833318407	-0.0037913746	 0.0585866023	 0.35091
O	 0.967837162	-0.0180084522	-0.8648840044	-0.303709
C	-1.0996392857	-0.8085818972	 0.0559177136	-0.07645
C	-1.5336746144	-1.6908612976	-1.1426458334	 0.044573
C	-0.4182418608	-2.7170524798	-0.8315999699	-0.227758
C	-1.1312441585	-2.3213253554	 0.4801244868	 0.035617
O	-2.4273946765	-2.4354392438	-0.2140953071	-0.310386
H	 1.4146209939	 1.2830868508	 1.2633292112	 0.144265
H	-0.3337459515	 1.6280130135	 1.3646691372	 0.145975
H	 0.3153220625	 0.2271216363	 2.2066570576	 0.138894
H	-1.9282842852	-0.2603991701	 0.51184539	 0.093813
H	-1.9477162234	-1.3777710939	-2.1003136367	 0.103794
H	-0.6330502111	-3.7322441392	-1.1658400878	 0.110134
H	 0.6143011975	-2.4096803802	-0.9887192336	 0.130976
H	-1.054715547	-2.7440339858	 1.4826291112	 0.099372
45.9779	127.2369	167.8394	214.2655	353.7051	423.9676	560.683	586.7768	614.1193	717.6338	809.9125	858.4877	879.8587	889.4148	925.9381	954.4233	989.9866	1007.0123	1037.4213	1080.5423	1094.2545	1141.4429	1171.3465	1188.1324	1194.8359	1209.7525	1264.2008	1275.0071	1370.5685	1386.6071	1462.0752	1473.8369	1491.4904	1798.9975	3034.046	3084.7961	3093.1385	3094.4404	3113.7295	3131.8795	3153.2403	3177.1922
CC(=O)C1C2CC1O2	CC(=O)[C@H]1[C@H]2C[C@@H]1O2	
InChI=1S/C6H8O2/c1-3(7)6-4-2-5(6)8-4/h4-6H,2H2,1H3	InChI=1S/C6H8O2/c1-3(7)6-4-2-5(6)8-4/h4-6H,2H2,1H3/t4-,5+,6+
