17
gdb 80627	2.50076	1.86463	1.40482	2.7174	67.13	-0.2375	0.0541	0.2916	950.5018	0.136259	-458.903519	-458.896184	-458.89524	-458.935073	29.148	
O	-0.018451014	 1.4508607053	 0.0364323164	-0.433432
C	-0.0103076444	 0.0361902562	 0.0580947184	 0.005439
C	 0.4528279078	-0.6113594678	 1.3928113618	 0.030759
C	-0.70908587	-0.3211532103	 2.3646341306	-0.240727
C	-1.3669608344	-1.3248394737	 1.3882995151	-0.028978
O	-0.0556792954	-1.9714222867	 1.2302741064	-0.296602
C	-1.4445075946	-0.5223029407	 0.0982199111	 0.50047
C	-2.6207273606	 0.112593725	-0.4870076871	-0.271995
O	-2.040651892	-1.0694226133	-1.0648514423	-0.294117
H	 0.8830862154	 1.7555385981	-0.1074422859	 0.290184
H	 0.5378263199	-0.3869159417	-0.7920587562	 0.095379
H	 1.5067305527	-0.5524305234	 1.6662094955	 0.078654
H	-0.540772014	-0.7588479141	 3.3486365749	 0.114876
H	-1.1002010627	 0.696279086	 2.425307781	 0.115574
H	-2.184121484	-1.9985838537	 1.6407229541	 0.091048
H	-3.5998464516	-0.0255533711	-0.0294836967	 0.113319
H	-2.494544918	 1.0270101359	-1.062231887	 0.130148
121.3422	226.2016	244.0362	278.215	309.6795	379.6237	460.826	532.0363	555.6886	607.1299	769.6427	818.651	850.6694	864.6498	893.2361	920.8594	932.5007	976.9883	994.0475	1024.3343	1054.4073	1079.99	1116.9372	1131.9602	1159.3938	1181.7504	1207.3851	1216.8607	1226.8839	1265.3228	1280.5127	1289.9034	1330.1098	1406.6682	1456.1777	1482.0723	1538.7769	3042.7591	3080.8972	3087.3635	3118.0139	3142.0304	3154.931	3180.5142	3819.0209
OC1C2CC(O2)C11CO1	O[C@H]1[C@H]2C[C@H](O2)[C@]21CO2	
InChI=1S/C6H8O3/c7-5-3-1-4(9-3)6(5)2-8-6/h3-5,7H,1-2H2	InChI=1S/C6H8O3/c7-5-3-1-4(9-3)6(5)2-8-6/h3-5,7H,1-2H2/t3-,4+,5+,6+/m1/s1
