16
gdb 129696	3.04137	1.40541	1.02192	2.9121	71.74	-0.2164	-0.0063	0.21	1120.6087	0.127516	-430.212392	-430.204511	-430.203567	-430.245375	29.294	
N	-0.1142069123	 1.252731362	-0.6489628624	-0.598399
C	-0.0986775625	-0.0693199715	-0.1997007906	 0.225505
C	-1.154122577	-0.9274909441	 0.0610148876	 0.283808
N	-0.5104703688	-2.0823881353	 0.4119490689	-0.234416
N	 0.816828068	-1.9627203625	 0.358721949	-0.120444
N	 1.0736957804	-0.7340569003	-0.0101024121	-0.249097
C	-2.6205925509	-0.8041659893	 0.0067463226	-0.150299
C	-3.2506908164	 0.191750771	-0.9004781877	-0.243
N	-3.3673497279	-1.2401938067	-1.2045682456	-0.310858
H	 0.8224279715	 1.6380644736	-0.6264816954	 0.257264
H	-0.7440801802	 1.8458921001	-0.1244090087	 0.250801
H	-0.917814829	-2.9644451987	 0.6812290809	 0.282005
H	-3.1494714066	-1.0583286798	 0.9237005934	 0.105565
H	-4.1767066708	 0.6719927927	-0.5978615831	 0.123264
H	-2.5929625994	 0.8013485673	-1.5128669356	 0.140003
H	-2.6963111583	-1.4785113984	-1.9321964614	 0.238296
52.7771	143.6083	169.7048	245.4948	302.1496	349.5317	404.9948	487.9364	563.9408	643.9646	708.3964	728.2405	745.5667	807.9001	828.0276	877.7011	965.4588	1007.2717	1010.3542	1098.5383	1119.2865	1128.9063	1143.7731	1184.4815	1212.2668	1268.0798	1277.3495	1305.1337	1327.2502	1374.8285	1430.8181	1512.1905	1522.0418	1637.6284	1649.3168	3113.9095	3117.4372	3206.1866	3491.9918	3534.8454	3626.1965	3647.6076
NC1=C(NN=N1)C1CN1	Nc1c([nH]nn1)[C@H]1CN1	
InChI=1S/C4H7N5/c5-4-3(2-1-6-2)7-9-8-4/h2,6H,1H2,(H3,5,7,8,9)	InChI=1S/C4H7N5/c5-4-3(2-1-6-2)7-9-8-4/h2,6H,1H2,(H3,5,7,8,9)/t2-/m1/s1
