17
gdb 47745	2.36837	1.82885	1.26968	4.1334	67.84	-0.2573	-0.0063	0.251	1011.8044	0.136877	-458.979698	-458.971922	-458.970978	-459.012396	29.228	
O	-0.2170752191	 0.5894152016	 1.3495602477	-0.334759
C	-0.1019485307	 1.4204206911	 0.4916093264	 0.42055
O	-1.1501283806	 1.7564078297	-0.2913778214	-0.230818
C	-0.8995893806	 2.6859577153	-1.3663459567	-0.080061
C	-0.2803151968	 3.96736942	-0.8235098257	-0.228599
C	 1.0556131551	 3.6516724841	-0.1085349986	-0.28996
C	 1.1855113357	 2.1655279236	 0.1796919915	 0.234649
C	 2.4386388862	 1.5574803918	 0.6232518038	-0.232448
O	 2.0114707652	 1.4124967409	-0.7377883981	-0.272679
H	-0.2507851401	 2.2093221796	-2.1101954008	 0.137068
H	-1.8761981708	 2.8620981766	-1.8201228505	 0.126652
H	-0.1323363746	 4.6790697184	-1.6410568412	 0.116577
H	-0.9912082566	 4.4216563718	-0.1260606752	 0.122641
H	 1.9136131001	 3.9323663921	-0.7261660055	 0.12642
H	 1.129928865	 4.2153000998	 0.8271335343	 0.123319
H	 3.3091985337	 2.1956611702	 0.7669380955	 0.115891
H	 2.3982039287	 0.6536122535	 1.2249574744	 0.145558
68.9688	100.96	227.3019	290.2631	299.4515	338.6575	427.5775	481.2893	544.617	599.926	690.6625	765.8348	789.4345	863.8094	885.029	913.0997	947.1182	978.9079	1028.9181	1084.9758	1105.8352	1130.8319	1149.1596	1173.2701	1210.5565	1251.2575	1274.1897	1312.1814	1326.0922	1372.9256	1412.7379	1427.3889	1470.3504	1490.8243	1514.7668	1519.907	1852.0179	3045.2344	3048.0635	3057.0149	3087.5615	3096.4773	3106.5686	3122.3929	3197.7756
O=C1OCCCC11CO1	O=C1OCCC[C@]21CO2	
InChI=1S/C6H8O3/c7-5-6(4-9-6)2-1-3-8-5/h1-4H2	InChI=1S/C6H8O3/c7-5-6(4-9-6)2-1-3-8-5/h1-4H2/t6-/m1/s1
