18
gdb 33768	3.52089	1.41214	1.20167	4.083	80.39	-0.2525	-0.0031	0.2494	1048.0028	0.150475	-364.829069	-364.821891	-364.820947	-364.860375	29.209	
N	-0.0205985575	-1.1597126767	-0.0867219715	-0.345335
C	-0.0169101376	-0.0039185832	-0.0447928565	 0.193008
C	-0.0048659228	 1.4479795605	 0.0163642226	 0.158744
C	-0.2168925253	 2.1268959725	 1.4118350876	-0.24377
C	 0.7065666882	 3.2626449741	 0.8756801478	-0.078473
C	 1.3828769675	 2.1736557115	-0.0113791537	-0.243779
C	-0.1175993843	 4.1627143047	-0.0211531156	-0.061523
C	-0.9075599368	 3.5885241124	-0.9279861413	-0.071107
C	-0.9547784068	 2.0817225628	-1.0305752017	-0.288627
H	-1.2391913202	 2.3881565592	 1.6913620445	 0.111887
H	 0.2575506217	 1.5435038222	 2.2034442175	 0.118366
H	 1.325105245	 3.8063767729	 1.5888115688	 0.073455
H	 2.1327812321	 1.5983263589	 0.5351773017	 0.118365
H	 1.7703168407	 2.4761234188	-0.986002291	 0.111886
H	-0.0515620285	 5.2401636038	 0.0884805666	 0.095664
H	-1.5283966359	 4.1647196338	-1.6069143815	 0.098109
H	-0.6672513512	 1.7515164493	-2.0372960624	 0.126564
H	-1.9767258284	 1.7132379624	-0.8723436518	 0.126565
150.1894	151.045	286.3526	338.4945	406.0647	430.4712	487.7802	553.7271	565.9088	595.0897	685.9646	719.482	852.1146	864.1813	896.9241	902.0236	940.5019	956.6219	963.6144	980.1375	998.3309	1051.4399	1091.8775	1095.7685	1177.9133	1182.6375	1187.1234	1238.9228	1240.1467	1252.095	1258.7975	1334.3786	1362.4296	1391.3204	1473.5573	1474.8552	1504.1031	1703.3899	2349.8361	3019.676	3048.1074	3067.8368	3073.1434	3115.069	3133.7274	3136.2108	3169.1696	3192.3248
N#CC12CC(C1)C=CC2	N#C[C@@]12C[C@@H](C1)C=CC2	
InChI=1S/C8H9N/c9-6-8-3-1-2-7(4-8)5-8/h1-2,7H,3-5H2	InChI=1S/C8H9N/c9-6-8-3-1-2-7(4-8)5-8/h1-2,7H,3-5H2/t7-,8-
