18
gdb 51775	2.20353	1.21447	0.83382	5.4169	75.25	-0.2484	-0.0371	0.2113	1351.2144	0.146121	-439.101505	-439.092218	-439.091274	-439.137372	31.799	
O	 0.4352048343	-0.2189739244	 0.3159721116	-0.229087
C	 0.2665299714	 0.962005398	 0.1652778493	 0.157027
C	 1.3717659998	 1.9963677797	 0.115988828	-0.282567
C	 1.2956744439	 2.8917958746	-1.1235531027	 0.024636
C	 2.4241849648	 3.9557584058	-1.2901636381	-0.272539
C	 2.7751370998	 3.3033161152	-2.6570110599	-0.16194
N	 1.7551482555	 2.2871621289	-2.3856989587	-0.043267
C	 1.1677369552	 1.4368009609	-3.2627417367	 0.12734
O	 1.5590527279	 1.2493302601	-4.3954781679	-0.323766
H	-0.7597974566	 1.3863712389	 0.0528088088	 0.075435
H	 1.2495638505	 2.6414679618	 0.999022853	 0.128256
H	 2.339963149	 1.49281667	 0.1816679161	 0.1293
H	 0.2875891765	 3.3204894168	-1.2074270238	 0.093528
H	 2.078477176	 4.9882503735	-1.3383786867	 0.122992
H	 3.2117875739	 3.8756967077	-0.5393843169	 0.120946
H	 2.5490872658	 3.908884895	-3.5401792217	 0.129652
H	 3.787252826	 2.901403853	-2.7566815476	 0.129243
H	 0.2920545362	 0.9159493945	-2.823507406	 0.07481
48.4756	55.17	90.6373	108.5735	170.9872	231.2762	316.3043	347.7374	391.5203	514.2074	572.1936	709.1381	794.0965	813.1738	890.9589	907.254	955.2423	1004.3692	1030.2995	1044.2739	1070.6459	1138.8552	1160.7146	1173.8866	1204.8072	1225.0068	1263.2745	1269.0868	1292.6125	1327.9015	1386.8059	1390.6625	1429.4175	1438.3879	1448.2092	1489.0283	1524.0178	1791.6765	1838.5246	2848.1384	2923.8973	3006.7699	3012.0243	3051.4222	3088.8862	3094.8967	3107.7339	3146.6535
O=CCC1CCN1C=O	O=CC[C@H]1CCN1C=O	
InChI=1S/C6H9NO2/c8-4-2-6-1-3-7(6)5-9/h4-6H,1-3H2	InChI=1S/C6H9NO2/c8-4-2-6-1-3-7(6)5-9/h4-6H,1-3H2/t6-/m1/s1
