19
gdb 55532	4.09504	0.82643	0.77147	3.5888	78.42	-0.2423	-0.0241	0.2182	1529.4547	0.156336	-423.057372	-423.047541	-423.046597	-423.094102	34.57	
C	 0.6773641147	 0.7214062044	 0.402341087	-0.484225
C	-0.5913653264	 0.1939331642	-0.2276229781	 0.394906
O	-1.6941184428	 0.509214893	 0.1529692482	-0.295343
C	-0.4362860279	-0.7763101567	-1.4014134932	-0.410284
C	 0.1326259397	-2.1485985909	-1.0272283599	 0.379149
O	 0.7514133019	-2.3434353732	-0.0007234929	-0.332072
C	-0.1120554557	-3.236693647	-2.0140684051	-0.099899
C	 0.9463573133	-4.3259309858	-2.1310413301	-0.248019
C	-0.3423008683	-4.6384393173	-1.4578029183	-0.245841
H	 1.3027473128	 1.2138840769	-0.3515757872	 0.127538
H	 0.4321987956	 1.4257526986	 1.197958071	 0.136942
H	 1.2498191788	-0.1235205594	 0.797212646	 0.174434
H	-1.4143965865	-0.9009317487	-1.8744387764	 0.139008
H	 0.2415310134	-0.351732087	-2.1561512687	 0.139636
H	-0.6526154566	-2.9636333718	-2.9126563213	 0.093889
H	 1.1329177334	-4.7220616074	-3.1224200334	 0.12208
H	 1.8197621471	-4.195913476	-1.5026838987	 0.140922
H	-0.3368728499	-4.7164489227	-0.3769110766	 0.143371
H	-1.0717469665	-5.2541903333	-1.9707171422	 0.123808
22.0551	50.5315	80.8963	141.685	156.4438	253.0464	261.5414	307.6044	368.4609	486.7487	538.6371	592.2516	678.379	783.1707	793.2397	824.6092	829.5981	854.7505	904.8188	925.0282	1016.7891	1042.0471	1059.1497	1093.0281	1097.8763	1116.5965	1127.4817	1164.7487	1211.0854	1221.2704	1247.5594	1307.4758	1377.6072	1402.3805	1434.2555	1454.2864	1468.663	1476.6697	1485.5934	1778.0291	1818.795	3020.598	3038.3804	3099.533	3108.0791	3143.2373	3145.3366	3156.3871	3179.5472	3231.5309	3245.9569
CC(=O)CC(=O)C1CC1	CC(=O)CC(=O)C1CC1	
InChI=1S/C7H10O2/c1-5(8)4-7(9)6-2-3-6/h6H,2-4H2,1H3	InChI=1S/C7H10O2/c1-5(8)4-7(9)6-2-3-6/h6H,2-4H2,1H3
