21
gdb 114271	4.0835	1.08776	1.03162	1.127	84.71	-0.2307	0.0702	0.3009	1238.9515	0.183291	-386.959349	-386.951266	-386.950321	-386.991917	32.355	
O	-0.1456208697	 1.5893683404	 0.1186672504	-0.424051
C	 0.0932151222	 0.1875012882	 0.0270391392	-0.107357
C	-1.2704085009	-0.4813076755	-0.0192111217	-0.000135
C	-2.0721270708	-0.4716492483	-1.3966726793	-0.350434
C	-1.8230618083	-1.9952709783	-1.4456171386	 0.302409
C	-2.2588088724	-3.4937625525	-1.3709177762	-0.307152
C	-0.8891812625	-3.3595420423	-0.558604931	-0.079862
C	-0.3765810512	-2.5188324422	-1.7388821363	-0.239302
C	-1.5128099441	-2.0540168527	 0.0526030094	-0.04868
H	 0.7010397608	 2.0418628935	 0.0599952281	 0.284911
H	 0.6952430129	-0.0360917189	-0.8633848986	 0.087216
H	 0.6480849778	-0.1815253506	 0.9049519772	 0.089544
H	-1.8470288229	-0.0104642156	 0.7817334464	 0.092509
H	-3.1176445137	-0.1894120338	-1.2479567063	 0.106626
H	-1.6555523872	 0.1258203031	-2.2128562039	 0.103113
H	-3.1544772886	-3.7083537842	-0.7821569752	 0.095373
H	-2.2167344736	-4.1050783167	-2.2787350426	 0.08978
H	-0.3702227171	-4.1815839553	-0.0557093856	 0.065416
H	-0.2428177897	-3.0351757011	-2.6941117795	 0.084654
H	 0.4624264136	-1.8540548591	-1.5410179698	 0.089613
H	-2.3679081045	-2.248783688	 0.7066021839	 0.06581
81.8369	164.4626	169.0267	256.0661	311.7104	349.0901	398.4481	445.0507	550.1258	626.4774	701.9845	767.1065	790.8722	803.4098	839.1756	866.8042	895.5109	935.0158	966.3696	996.0929	1011.0009	1021.6462	1046.9853	1066.6316	1074.2743	1089.1392	1126.8923	1143.9656	1155.3904	1185.6946	1200.4969	1203.8104	1206.5521	1227.2475	1249.0189	1257.0352	1265.3777	1280.539	1351.4563	1378.292	1455.308	1475.7015	1496.4638	1518.6681	1537.5564	2970.9418	3020.2078	3035.6523	3046.5816	3051.8022	3053.1538	3065.6911	3074.3345	3110.6036	3112.2615	3148.6692	3825.8629
OCC1CC23CC(C2)C13	OC[C@H]1C[C@@]23C[C@@H](C2)[C@@H]13	
InChI=1S/C8H12O/c9-4-6-3-8-1-5(2-8)7(6)8/h5-7,9H,1-4H2	InChI=1S/C8H12O/c9-4-6-3-8-1-5(2-8)7(6)8/h5-7,9H,1-4H2/t5-,6-,7+,8+/m1/s1
