19
gdb 65189	2.59755	1.17275	1.07534	4.2235	77.17	-0.235	-0.0168	0.2182	1227.5756	0.158428	-419.160904	-419.151812	-419.150868	-419.19543	33.543	
C	 0.7644196059	 0.5200406953	-0.3658326711	-0.472838
C	 0.2876754332	-0.6512644785	 0.4694541384	 0.319172
C	 1.1627394865	-1.8455538647	 0.624712128	-0.268387
N	 0.9504574396	-0.9203271432	 1.7526865741	-0.340616
C	-1.2073976756	-0.8417992293	 0.4439851421	-0.060436
N	-1.8162273828	-1.8492793462	 1.2924833758	-0.33331
C	-2.1558710146	-0.4348614733	 1.5449669078	-0.132485
C	-1.7063717734	 0.1301702392	 2.8538206255	 0.161584
O	-2.1474792427	 1.1649714677	 3.2948257525	-0.271512
H	 1.8570461286	 0.5817038298	-0.3636030668	 0.116515
H	 0.43778796	 0.4265815862	-1.4076079028	 0.124732
H	 0.3679258424	 1.4649298269	 0.0228161304	 0.13612
H	 0.7066836117	-2.8211028546	 0.7612900101	 0.13115
H	 2.1269877535	-1.8451552513	 0.1229944735	 0.109776
H	 1.753406798	-0.3042408167	 1.8564943731	 0.231197
H	-1.6232095233	-0.7163506944	-0.5567555388	 0.088107
H	-2.5798677266	-2.3205127714	 0.8166634653	 0.241953
H	-3.1221454876	-0.0536967524	 1.2201999822	 0.102306
H	-0.9507908229	-0.477487909	 3.3829886407	 0.116973
47.7294	62.2227	187.6512	217.5343	224.9158	297.1051	315.605	334.2779	379.3026	471.1514	540.5074	552.0461	704.0115	809.3687	858.3824	882.1707	921.7914	934.3779	960.4767	974.6386	1000.9004	1015.1562	1040.6015	1061.6312	1116.5731	1125.9393	1152.2682	1193.1465	1222.182	1230.0873	1268.0658	1307.9058	1365.1445	1379.885	1418.9952	1424.5152	1472.722	1487.325	1499.8631	1509.0028	1808.003	2986.7201	3027.3513	3089.6102	3095.6415	3105.0439	3111.9201	3134.9528	3204.8165	3493.5538	3517.1689
CC1(CN1)C1NC1C=O	C[C@]1(CN1)[C@H]1N[C@H]1C=O	
InChI=1S/C6H10N2O/c1-6(3-7-6)5-4(2-9)8-5/h2,4-5,7-8H,3H2,1H3	InChI=1S/C6H10N2O/c1-6(3-7-6)5-4(2-9)8-5/h2,4-5,7-8H,3H2,1H3/t4-,5-,6-/m0/s1
