19
gdb 60629	2.99647	1.07796	0.95616	3.9502	74.	-0.2162	0.0616	0.2777	1293.358	0.158849	-456.347608	-456.337952	-456.337008	-456.382444	35.834	
C	-0.2086942027	 1.5033014444	 0.1097223916	-0.361252
N	-0.1755583501	 0.0563152906	-0.0232214406	-0.105035
C	-0.118148346	-0.7991295206	 1.1315274191	 0.046523
C	 0.3627665331	-0.331731428	 2.4865913459	-0.384209
C	-1.0884089908	-0.7325799072	 2.277542736	 0.083492
O	-2.0662522245	 0.2679549687	 2.2380428882	-0.415933
C	-0.0933786088	-0.5728282669	-1.2495957583	 0.450078
N	-0.0115121516	 0.2745102292	-2.3534493951	-0.577295
O	-0.1301654591	-1.7856703585	-1.3835318836	-0.40987
H	 0.7964565753	 1.9503419428	 0.1493768925	 0.10861
H	-0.7572432659	 1.93487294	-0.7298083517	 0.143418
H	-0.7497528699	 1.7700734179	 1.016277105	 0.152198
H	 0.1661459239	-1.7967449103	 0.8257350876	 0.143248
H	 1.0286264111	-0.9741085785	 3.0534925939	 0.117286
H	 0.5373481562	 0.7298363529	 2.6255008909	 0.115906
H	-1.426519229	-1.6812103329	 2.6941110942	 0.095601
H	-2.2496979707	 0.5384284537	 3.1440933554	 0.289923
H	 0.5155780052	 1.1293246612	-2.2625738028	 0.249449
H	 0.2106544943	-0.2501133285	-3.1863545783	 0.257863
40.4477	97.5655	167.8263	196.6274	203.0059	245.6355	329.9195	343.3991	385.3927	437.6446	452.1465	507.072	572.95	603.8985	632.4887	723.3484	775.9123	798.4634	829.508	918.9047	1003.6487	1025.15	1077.3835	1092.0965	1106.7163	1135.013	1151.7042	1173.9851	1216.8301	1236.6403	1283.0561	1336.1954	1381.4937	1417.5514	1438.4608	1480.61	1495.3945	1518.0305	1525.436	1621.035	1775.662	2984.5871	3099.8192	3105.1493	3129.731	3157.9737	3210.2063	3220.7626	3576.5896	3687.0542	3800.4571
CN(C1CC1O)C(N)=O	CN([C@H]1C[C@H]1O)C(=O)N	
InChI=1S/C5H10N2O2/c1-7(5(6)9)3-2-4(3)8/h3-4,8H,2H2,1H3,(H2,6,9)	InChI=1S/C5H10N2O2/c1-7(5(6)9)3-2-4(3)8/h3-4,8H,2H2,1H3,(H2,6,9)/t3-,4+/m0/s1
