12
gdb 130614	3.11608	1.48495	1.00569	2.3598	73.43	-0.2544	-0.0773	0.1771	1063.1273	0.076646	-435.441003	-435.433685	-435.432741	-435.473021	27.128	
O	-0.0415769831	-0.0136634008	-0.2295160857	-0.334851
C	 0.0007469428	 1.187399778	-0.044678876	 0.280306
C	-1.2248479503	 1.9826805053	 0.1906339113	-0.034359
N	-1.3194870751	 3.2477221645	 0.3980265214	-0.050716
O	-0.1264734285	 3.9651477239	 0.4035385069	-0.220937
C	 1.0421660932	 3.3488999258	 0.2016030511	 0.061389
C	 1.2088222746	 2.0188655735	-0.0224857377	-0.094438
C	 2.4952960735	 1.4625262964	-0.2255863726	 0.23729
C	 3.5829237309	 0.9781642814	-0.399432468	-0.37955
H	-2.1748985656	 1.4545059585	 0.1930622486	 0.163918
H	 1.8604937601	 4.0592262086	 0.2397239755	 0.166
H	 4.5387245975	 0.5418657849	-0.5537266647	 0.205947
98.5602	134.4825	195.4353	376.9852	377.0291	430.5264	441.8632	543.9318	565.9024	597.0063	606.7908	662.2734	730.6035	789.0522	836.0143	895.9185	936.6799	961.2384	1138.4764	1181.9096	1281.9518	1316.6593	1391.8216	1613.7737	1643.8531	1764.8801	2234.6379	3182.6414	3209.3988	3503.3165
O=C1C=NOC=C1C#C	O=c1cnocc1C#C	
InChI=1S/C6H3NO2/c1-2-5-4-9-7-3-6(5)8/h1,3-4H	InChI=1S/C6H3NO2/c1-2-5-4-9-7-3-6(5)8/h1,3-4H
