21
gdb 36780	5.71024	0.58583	0.55164	4.2238	84.89	-0.2462	0.023	0.2692	1981.9485	0.183183	-383.260024	-383.250417	-383.249473	-383.295912	34.314	
N	 0.0700951343	-1.175658137	-0.1384305152	-0.298242
C	 0.0458610861	-0.025423381	-0.0370360613	 0.255778
C	 0.0179159334	 1.4314194211	 0.1221990133	-0.256798
N	 1.3482159482	 2.004360263	-0.0308936421	-0.297773
C	 1.3665012677	 3.4529007151	 0.1674597593	-0.149197
C	 2.7763759504	 4.000685716	 0.0369776219	 0.031462
C	 3.4785041676	 3.9622407163	-1.3489200009	-0.205109
C	 4.0533740514	 5.3743666426	-1.0541606386	-0.210722
C	 2.9739498572	 5.5430389363	 0.0501760478	-0.235901
H	-0.6375945903	 1.8497784992	-0.6522362279	 0.156115
H	-0.4654632583	 1.6572761288	 1.0915237971	 0.12946
H	 1.9845685399	 1.5589998098	 0.6231572555	 0.229253
H	 0.7276957238	 3.904051141	-0.6047431826	 0.101505
H	 0.9377965766	 3.7551765536	 1.143346092	 0.080755
H	 3.4189277143	 3.5378237512	 0.7974866593	 0.068134
H	 4.182762112	 3.1505764887	-1.5417570209	 0.101349
H	 2.7444280414	 3.9806556042	-2.1606815104	 0.101303
H	 5.060379922	 5.3231217506	-0.6303886821	 0.10341
H	 4.0595338456	 6.1009910459	-1.8695481327	 0.098583
H	 2.0856728035	 6.0593986925	-0.3293637443	 0.098946
H	 3.2695462332	 6.0113914822	 0.9920638826	 0.097687
43.086	79.0493	85.482	127.1697	153.8594	211.0078	296.4182	377.9543	394.4802	432.29	575.0089	640.9275	762.3095	773.0344	789.1273	892.5953	912.2106	934.1052	943.4882	965.3543	979.6556	996.8974	1046.9063	1085.4827	1120.46	1144.5207	1178.2899	1204.1388	1216.1031	1254.6903	1258.793	1259.536	1279.121	1282.3513	1304.3191	1341.543	1376.9526	1419.7136	1477.1728	1486.1132	1490.4102	1494.8188	1507.8226	1516.3094	2368.2622	2909.3111	2928.7023	3011.1021	3028.0265	3044.8689	3046.4685	3056.5841	3060.2963	3098.7089	3107.9159	3121.2597	3515.3478
N#CCNCC1CCC1	N#CCNCC1CCC1	
InChI=1S/C7H12N2/c8-4-5-9-6-7-2-1-3-7/h7,9H,1-3,5-6H2	InChI=1S/C7H12N2/c8-4-5-9-6-7-2-1-3-7/h7,9H,1-3,5-6H2
