21
gdb 120795	3.70129	0.72958	0.66566	1.583	86.2	-0.2464	0.0613	0.3077	1753.5347	0.179547	-387.035811	-387.025489	-387.024545	-387.072122	37.302	
C	-0.2422874934	 1.5068397259	 0.1598285045	-0.385901
C	-0.35606753	 0.0330765092	 0.5079184008	-0.031884
O	-1.077598807	-0.6172695092	-0.5286022037	-0.247259
C	-1.2444738944	-1.982510194	-0.3182231442	 0.103646
C	-2.3742137906	-2.4632447519	 0.5635461831	-0.314628
C	-2.4482192638	-2.6223113277	-0.9415965914	-0.036249
C	-3.4217080386	-1.7758347009	-1.7503377159	-0.372643
C	-4.7784810032	-2.3142051549	-1.7471894353	 0.309895
C	-5.8892795477	-2.7735731223	-1.7402239697	-0.453831
H	 0.3145171453	 2.0391669202	 0.9367189894	 0.11626
H	 0.2783006739	 1.6381163402	-0.7929600646	 0.127797
H	-1.2344323349	 1.9591242024	 0.0728252491	 0.126068
H	 0.6432933958	-0.4208289941	 0.6081935843	 0.088385
H	-0.8726266229	-0.1055924476	 1.4700882395	 0.093084
H	-0.3112384338	-2.5485177397	-0.3076358353	 0.085151
H	-2.2298204391	-3.3423395345	 1.1817435344	 0.111827
H	-3.0062229128	-1.6978732077	 1.002368406	 0.12075
H	-2.3083579532	-3.6275507399	-1.3273949474	 0.09662
H	-3.4196131606	-0.7543291388	-1.3565612391	 0.140402
H	-3.0637958866	-1.6972061529	-2.7852825719	 0.131084
H	-6.8741090924	-3.1696752018	-1.7363619025	 0.191425
44.866	70.5835	94.3828	113.796	157.3665	242.496	255.6849	307.7519	344.2245	377.1645	484.6475	501.7856	582.741	613.6001	634.4327	782.2514	819.5088	827.5654	875.7122	887.5568	936.6194	961.4723	1016.9362	1039.731	1055.7918	1083.1187	1127.1534	1146.1241	1150.4717	1185.5281	1191.1728	1248.5727	1250.0253	1293.142	1319.4302	1369.9388	1400.1843	1410.1148	1438.548	1471.425	1483.7701	1488.9686	1499.8259	1528.277	2238.3898	2970.944	3003.7154	3025.8234	3044.8578	3076.5668	3081.7245	3119.1691	3121.6612	3131.7456	3154.8007	3220.2233	3507.9251
CCOC1CC1CC#C	CCO[C@H]1C[C@H]1CC#C	
InChI=1S/C8H12O/c1-3-5-7-6-8(7)9-4-2/h1,7-8H,4-6H2,2H3	InChI=1S/C8H12O/c1-3-5-7-6-8(7)9-4-2/h1,7-8H,4-6H2,2H3/t7-,8+/m1/s1
