16
gdb 13008	2.81721	2.50396	1.72712	2.0779	64.26	-0.2495	-0.0116	0.2379	800.3513	0.1303	-383.727257	-383.720056	-383.719111	-383.758274	27.981	
C	-0.0928125507	 1.4876141821	 0.0202618702	-0.497903
C	 0.149552921	 0.0076516666	-0.0195713174	 0.375997
O	-0.7610573507	-0.823276536	 0.72513556	-0.310291
C	 0.6563873622	-0.8349665482	 1.0689592249	-0.064763
C	 1.3913693206	-1.9823514721	 0.4495890092	-0.079389
C	 1.3190042415	-1.904072015	-0.880276262	-0.124007
C	 0.5278624233	-0.6881705246	-1.3433218156	 0.043992
O	-0.6175548668	-1.0305665847	-2.1060656316	-0.434879
H	 0.8108441365	 2.0376172047	-0.2628339736	 0.12451
H	-0.8854684871	 1.7557312946	-0.6868633039	 0.139211
H	-0.3998827833	 1.8042234391	 1.0200518629	 0.129932
H	 0.8843434788	-0.4604604873	 2.062197845	 0.099503
H	 1.867826914	-2.7669389466	 1.0248228729	 0.108708
H	 1.694337835	-2.6348728416	-1.5873622989	 0.110793
H	 1.1252461692	-0.0285964706	-1.983584329	 0.090078
H	-1.2100266236	-1.4758658004	-1.4847289531	 0.288506
137.426	191.6606	235.3692	286.5927	298.5245	452.3451	494.8758	518.766	589.7177	609.7594	707.3739	771.1983	821.4042	868.6398	878.9011	944.8671	968.6376	997.0885	1013.2559	1049.936	1085.2102	1109.4337	1143.6618	1218.9933	1265.5788	1280.9855	1308.1846	1362.2504	1405.4637	1431.8318	1460.0095	1484.5283	1496.3944	1664.7739	3035.2202	3046.8519	3099.758	3124.3645	3164.9008	3194.0654	3218.5504	3757.6236
CC12OC1C=CC2O	C[C@]12O[C@H]1C=C[C@H]2O	
InChI=1S/C6H8O2/c1-6-4(7)2-3-5(6)8-6/h2-5,7H,1H3	InChI=1S/C6H8O2/c1-6-4(7)2-3-5(6)8-6/h2-5,7H,1H3/t4-,5+,6-/m1/s1
