16
gdb 47236	2.29832	2.18242	1.31311	3.9818	71.02	-0.2563	-0.0027	0.2536	954.3724	0.125892	-437.888978	-437.88177	-437.880826	-437.920722	27.617	
O	-0.0540434614	 0.4138060114	 1.092501456	-0.345411
C	 0.0115446201	 1.2655862649	 0.2509796438	 0.414003
O	-1.0841182444	 1.7854360541	-0.4017285996	-0.247577
C	-1.7209054312	 2.8173930926	 0.3479291488	-0.149018
C	-0.8603158561	 4.0228338089	 0.5971505787	-0.066977
C	 0.4363336258	 4.1981003258	 0.3296695413	-0.065586
C	 1.3964918116	 3.2412856128	-0.278883188	-0.069708
C	 2.2255409521	 2.3170502954	 0.5897144719	-0.237703
N	 1.1762501115	 1.8092832088	-0.2644943577	-0.095169
H	-2.6035002725	 3.1061110851	-0.2333509593	 0.133312
H	-2.0823351923	 2.4101216474	 1.3047195045	 0.133704
H	-1.4001999846	 4.8475533594	 1.0598504138	 0.103678
H	 0.8743280351	 5.1691352894	 0.5539831781	 0.104763
H	 1.8781373517	 3.6045199505	-1.1868244667	 0.114755
H	 3.2418545598	 2.0717108833	 0.2958172231	 0.13126
H	 2.029933945	 2.3192792202	 1.6585322514	 0.141674
97.5392	168.7015	216.2037	286.7285	330.8075	445.977	474.8876	548.271	622.3687	714.2651	756.9016	781.7987	852.9579	862.8112	904.1403	956.3472	988.2128	1006.4671	1047.4525	1055.3736	1099.8241	1120.3684	1126.473	1152.4344	1169.1915	1245.0965	1277.4542	1363.5884	1391.7441	1414.4284	1437.8947	1483.5562	1508.5248	1727.8917	1840.9834	2995.5361	3068.0045	3105.3105	3115.5116	3133.6339	3154.8163	3209.9071
O=C1OCC=CC2CN12	O=C1OCC=C[C@H]2CN12	
InChI=1S/C6H7NO2/c8-6-7-4-5(7)2-1-3-9-6/h1-2,5H,3-4H2	InChI=1S/C6H7NO2/c8-6-7-4-5(7)2-1-3-9-6/h1-2,5H,3-4H2/t5-,7?/m0/s1
