21
gdb 106461	2.43384	1.60541	1.1476	1.7738	83.08	-0.2218	0.0128	0.2346	1158.2835	0.181714	-387.059703	-387.050868	-387.049924	-387.092976	34.27	
C	-1.2996120291	-0.8780841059	 0.2853976199	-0.387322
C	 0.0387174062	-0.1623057145	 0.0815685891	-0.307222
C	 0.8358947216	-0.6735771136	-1.0922284744	 0.326507
C	 1.1295559637	-2.1793389565	-1.412988324	-0.26323
C	 1.2327698571	-1.5044530393	-2.8087729934	 0.021779
O	 0.1462794183	-0.6104521657	-2.3948528975	-0.321084
C	 2.4646691279	-0.6035334771	-2.6292771071	-0.21115
C	 2.2073960565	-0.025961065	-1.4527113677	 0.324297
C	 2.9557194377	 0.9673813261	-0.6356459705	-0.518841
H	-1.8931632589	-0.8441411855	-0.6317849384	 0.139802
H	-1.1539236157	-1.9294482481	 0.553126771	 0.115269
H	-1.8743588757	-0.4069197295	 1.0880045208	 0.108958
H	-0.1367747179	 0.9101185775	-0.0735939052	 0.111042
H	 0.6581805166	-0.2457846473	 0.9837822536	 0.10109
H	 2.0215596396	-2.6438394533	-0.9865976141	 0.091526
H	 0.2462227142	-2.8146344839	-1.3123251414	 0.102469
H	 1.0594203552	-2.0226825679	-3.7508204798	 0.075675
H	 3.3050800467	-0.49202647	-3.2992967445	 0.102403
H	 3.8901073064	 1.2587150044	-1.1234327132	 0.127681
H	 2.3648256102	 1.8765284157	-0.4664224817	 0.1328
H	 3.2034702092	 0.5692315696	 0.3569119086	 0.127551
82.3029	156.7263	163.3846	193.1592	213.8238	273.5842	323.0194	425.2061	502.5443	551.7931	578.8771	616.8504	670.9305	749.4138	778.9217	811.1191	844.9916	885.5167	907.3701	913.8728	971.9082	983.6243	1005.0722	1046.1446	1063.8592	1073.7197	1128.2064	1137.9535	1175.1184	1219.5129	1232.26	1257.8246	1280.6003	1301.0719	1317.8139	1392.0248	1407.505	1414.5097	1468.1275	1479.1593	1485.6739	1489.2094	1496.6751	1509.2655	1690.0861	3014.7009	3021.7601	3042.3306	3054.9406	3059.7949	3060.2246	3107.0674	3107.6977	3125.5038	3130.2459	3134.1831	3234.3057
CCC12CC(O1)C=C2C	CC[C@@]12C[C@@H](O1)C=C2C	
InChI=1S/C8H12O/c1-3-8-5-7(9-8)4-6(8)2/h4,7H,3,5H2,1-2H3	InChI=1S/C8H12O/c1-3-8-5-7(9-8)4-6(8)2/h4,7H,3,5H2,1-2H3/t7-,8-/m0/s1
