20
gdb 36720	5.38413	0.68925	0.64214	4.3809	85.88	-0.2501	0.0123	0.2624	1719.6281	0.172133	-366.046725	-366.037795	-366.036851	-366.08148	32.639	
N	-0.0237874144	-1.2270299797	 0.2064829298	-0.305751
C	-0.0499780852	-0.0734692765	 0.1420060248	 0.258471
C	-0.0584511886	 1.3854858908	 0.0605364974	-0.349948
C	 1.3627100413	 1.9817338364	-0.0073696577	-0.192891
C	 1.3684928601	 3.5177906448	-0.048181041	-0.017748
C	 2.8028278685	 4.1125963514	 0.0260811623	-0.235564
C	 2.7977999253	 5.3595581631	-0.8931385955	-0.255988
C	 1.5970093187	 5.1213540147	-1.7766606192	-0.067037
C	 0.8253612042	 4.136409998	-1.3216784439	-0.063923
H	-0.6431300492	 1.6758704897	-0.8193181432	 0.153501
H	-0.5914884043	 1.7780607225	 0.9348311282	 0.150792
H	 1.9272690911	 1.6393408368	 0.867202925	 0.119358
H	 1.8783856946	 1.5874054905	-0.8901405965	 0.12002
H	 0.7708313366	 3.8733245794	 0.8071852944	 0.076958
H	 3.1090764394	 4.3370487405	 1.0508810594	 0.101149
H	 3.5112019626	 3.3751843952	-0.3677821028	 0.106589
H	 2.6751216019	 6.2899800096	-0.3209665011	 0.109254
H	 3.7305641816	 5.4697757463	-1.4572111511	 0.107135
H	 1.3865047788	 5.724553294	-2.6531972338	 0.09565
H	-0.1105346629	 3.8261434725	-1.7743766756	 0.089972
54.1995	75.4642	100.999	141.8264	224.5965	300.6243	345.8959	398.9775	478.9958	546.6694	635.858	737.0991	758.4686	781.3739	847.3238	864.3503	919.8455	951.3883	962.5045	970.737	982.644	1027.9241	1064.8284	1089.6448	1097.1195	1145.0744	1172.3192	1195.5833	1230.5123	1268.6909	1298.1795	1310.3906	1318.2568	1339.1883	1350.4159	1382.7399	1393.7145	1468.2702	1483.1066	1492.5883	1500.3521	1687.051	2362.0056	2964.4537	3010.0297	3034.6358	3041.9229	3045.6631	3060.7153	3070.7095	3091.9624	3100.0934	3176.6859	3203.1456
N#CCCC1CCC=C1	N#CCC[C@H]1CCC=C1	
InChI=1S/C8H11N/c9-7-3-6-8-4-1-2-5-8/h1,4,8H,2-3,5-6H2	InChI=1S/C8H11N/c9-7-3-6-8-4-1-2-5-8/h1,4,8H,2-3,5-6H2/t8-/m1/s1
