17
gdb 123874	5.06968	1.04462	0.89362	4.2904	75.51	-0.2039	-0.0027	0.2012	1263.0586	0.137786	-417.969712	-417.96219	-417.961246	-418.002548	27.879	
C	-0.1810019692	 1.5370575344	 0.0692806302	-0.232367
C	 1.3419505361	 1.5447005903	-0.2202653427	-0.172602
N	 1.4220649353	 0.1866771111	 0.3414829148	-0.168151
C	-0.0423122444	 0.009259312	 0.2989422246	-0.174277
C	 2.3179829261	-0.7621533591	-0.1115774871	 0.174954
C	 3.521803128	-0.6026375055	-0.7369332593	-0.022514
O	 4.0894969012	-1.8086114477	-0.9662191101	-0.167209
N	 3.2528526066	-2.8001142858	-0.4990356208	-0.12987
C	 2.213366105	-2.1820289147	 0.0062825524	-0.040962
H	-0.449543382	 2.0853665872	 0.9732589861	 0.120759
H	-0.8318236946	 1.8463395525	-0.7479710209	 0.116326
H	 1.5803921519	 1.5761523528	-1.2945677044	 0.099361
H	 1.9538166161	 2.2893937205	 0.2992963547	 0.112617
H	-0.4769706357	-0.4042574898	 1.2146515237	 0.112773
H	-0.380715226	-0.5904133161	-0.5584114477	 0.10407
H	 4.0884321851	 0.2570417334	-1.0534732013	 0.140097
H	 1.4125448504	-2.7612680455	 0.4433713079	 0.126996
66.5823	103.3008	154.908	193.648	368.2367	444.5916	475.0944	607.443	672.0914	742.7796	761.749	852.7967	880.3733	883.4971	927.4205	937.1269	942.5389	945.0575	1005.714	1082.4192	1114.1446	1135.7456	1139.3862	1151.9596	1205.3419	1222.4074	1238.057	1270.6415	1296.2702	1329.3768	1352.3779	1415.2506	1481.4227	1491.355	1509.5516	1534.5709	1670.8309	2983.3562	2998.1313	3061.4507	3065.0015	3093.5239	3149.5912	3244.6136	3279.5041
C1CN(C1)C1=CON=C1	C1CN(C1)c1conc1	
InChI=1S/C6H8N2O/c1-2-8(3-1)6-4-7-9-5-6/h4-5H,1-3H2	InChI=1S/C6H8N2O/c1-2-8(3-1)6-4-7-9-5-6/h4-5H,1-3H2
