21
gdb 69737	3.2192	1.51416	1.30756	0.3089	86.53	-0.2343	0.0284	0.2626	1065.6402	0.184404	-349.941808	-349.934159	-349.933215	-349.973431	31.526	
C	-0.0279571884	 1.5415741177	 0.0338674716	-0.500594
C	 0.0323238006	 0.0401416776	 0.0301053442	 0.365116
C	-0.8496871347	-0.8147227863	 0.8984870724	-0.340686
C	 0.6423970665	-0.9273362173	 1.054609011	-0.112351
C	 1.2576052398	-1.7727738106	-0.091101282	-0.052988
C	 0.6557878944	-3.1049944573	-0.4395472537	-0.078835
C	-0.170063014	-3.0203551546	-1.4857446629	-0.062614
C	-0.2804499682	-1.6198051379	-2.0590884602	-0.288415
C	 0.6337439874	-0.7844608409	-1.1320692505	-0.076788
H	 0.9318972649	 1.9818980911	-0.2617117111	 0.112389
H	-0.7886469497	 1.9122257059	-0.6649858038	 0.11687
H	-0.2803712491	 1.9267933994	 1.027501345	 0.114779
H	-1.3496351567	-0.2747299462	 1.6973692631	 0.103213
H	-1.4292485288	-1.6406946071	 0.4956197917	 0.11086
H	 1.1371084273	-0.7013107131	 1.9926841645	 0.076619
H	 2.3508009025	-1.7810187821	-0.0524421127	 0.069129
H	 0.8616644059	-4.0157996694	 0.1132816862	 0.087494
H	-0.7237507592	-3.8551726132	-1.9049987727	 0.087837
H	 0.0462864141	-1.5904240485	-3.1065704973	 0.099826
H	-1.3185895162	-1.2609587349	-2.0532343641	 0.103983
H	 1.3761317515	-0.2040827021	-1.6839466885	 0.065156
135.8458	203.7514	215.385	241.6717	305.5722	393.7881	461.9439	519.8175	593.5363	687.2987	726.6434	744.3843	791.0352	794.6004	869.3792	894.8401	905.2981	941.1987	954.3892	973.1329	974.8931	1006.5358	1023.7014	1036.9279	1061.8848	1081.4515	1101.0141	1109.0948	1125.8343	1164.2721	1183.1974	1230.5952	1253.4546	1272.2753	1292.9999	1308.5611	1326.9419	1376.4305	1397.6454	1422.3906	1481.4159	1486.1852	1496.6326	1501.2047	1669.5819	3012.0577	3014.6193	3036.5254	3058.3331	3070.0287	3083.8598	3091.438	3113.7722	3167.3658	3168.37	3194.2222	3194.8633
CC12CC1C1C=CCC21	C[C@]12C[C@H]1[C@H]1C=CC[C@@H]21	
InChI=1S/C9H12/c1-9-5-8(9)6-3-2-4-7(6)9/h2-3,6-8H,4-5H2,1H3	InChI=1S/C9H12/c1-9-5-8(9)6-3-2-4-7(6)9/h2-3,6-8H,4-5H2,1H3/t6-,7+,8-,9+/m0/s1
