19
gdb 77242	2.43095	1.13944	0.98202	3.3837	73.08	-0.2529	-0.0065	0.2464	1289.1327	0.155526	-460.165926	-460.155711	-460.154767	-460.201179	36.307	
C	-0.0018307102	 1.4551631451	 0.4120142752	-0.453385
C	 0.0523474016	-0.0302646487	 0.1231829183	 0.235077
C	-1.2216146451	-0.6342794019	-0.4359296392	-0.452984
C	 1.3698963707	-0.6231201323	-0.3547388396	 0.064671
O	 2.4943577754	 0.1862848777	-0.4829271719	-0.427384
C	 0.8704331636	-0.939355055	 1.0303631733	-0.022449
O	 1.6860610515	-0.3855862258	 2.0466694699	-0.203488
C	 1.0838176583	-0.0502950413	 3.2133292669	 0.177827
O	 1.6894989351	 0.4018316537	 4.1350193712	-0.264871
H	 0.9761183847	 1.8504526727	 0.6890833492	 0.136669
H	-0.3331700887	 1.9944382844	-0.4816268759	 0.12617
H	-0.7120780509	 1.6795639566	 1.2161627716	 0.11428
H	-1.4910671402	-0.1548599448	-1.383535601	 0.127748
H	-1.1126812443	-1.7068772654	-0.6273988177	 0.116657
H	-2.0603855773	-0.5036444096	 0.2576289376	 0.120162
H	 1.3280208073	-1.4150365134	-1.0999210207	 0.099863
H	 2.9539643733	 0.1906017091	 0.3656756633	 0.305017
H	 0.5091050248	-1.9366393907	 1.2664217812	 0.109655
H	-0.0028372298	-0.2517225303	 3.2008802782	 0.090765
70.6205	110.7678	127.9816	162.6002	193.9205	198.7056	237.0928	281.9596	306.2349	336.7331	343.8097	475.915	511.8298	583.6289	704.0333	739.9291	817.0182	881.5835	975.9609	994.2888	1023.2409	1038.0007	1047.0586	1103.1693	1139.1919	1147.3783	1169.1816	1203.0335	1254.7938	1325.3327	1342.0442	1371.3601	1408.4242	1412.9856	1422.4164	1449.0511	1481.6576	1490.7755	1500.7365	1510.8462	1871.5583	2977.048	3023.7871	3034.913	3088.2963	3091.4814	3096.6666	3122.7057	3140.6633	3143.263	3782.183
CC1(C)C(O)C1OC=O	CC1(C)[C@@H](O)[C@H]1OC=O	
InChI=1S/C6H10O3/c1-6(2)4(8)5(6)9-3-7/h3-5,8H,1-2H3	InChI=1S/C6H10O3/c1-6(2)4(8)5(6)9-3-7/h3-5,8H,1-2H3/t4-,5+/m0/s1
