17
gdb 106343	4.66778	0.99337	0.94796	2.0133	76.79	-0.2477	0.0102	0.2578	1256.8242	0.133752	-421.719103	-421.710586	-421.709641	-421.752203	32.683	
O	-0.1430675337	 1.3991944237	 0.1101343245	-0.414294
C	-0.0552801866	-0.0112179697	 0.0510278616	-0.189532
C	-1.4116955459	-0.6241780857	-0.1219443685	 0.365688
C	-2.5080325016	-0.3136553708	-1.1713908603	-0.282166
C	-3.1347051655	-1.1510689388	-0.0221348192	 0.333299
C	-1.8946415871	-2.0929249706	-0.0547348351	-0.304948
O	-2.3987983333	-0.2899561244	 0.9517593541	-0.382137
C	-4.5072557364	-1.471800698	 0.2234093877	 0.072365
C	-5.6607323859	-1.7565736885	 0.4054974126	-0.348646
H	-0.8278284221	 1.6035515139	 0.7584660256	 0.297022
H	 0.5810166984	-0.2607737457	-0.8048887581	 0.118132
H	 0.4145999726	-0.4323590307	 0.9543246808	 0.101708
H	-2.8338446239	 0.7248967136	-1.2116558102	 0.120152
H	-2.4294164352	-0.7835155858	-2.1543377699	 0.102051
H	-1.761950142	-2.7236636431	-0.9365262142	 0.10416
H	-1.6926375748	-2.6096649376	 0.8837138639	 0.117829
H	-6.680194067	-2.0047945317	 0.5715379447	 0.189315
87.951	113.9127	149.9588	198.8678	298.9966	385.1166	418.6672	485.7871	492.2824	542.1412	549.9582	609.5413	627.9872	671.2425	687.0627	714.7737	822.3313	909.9723	950.6443	965.8384	1027.6119	1057.1107	1078.6025	1098.3017	1123.8134	1131.8011	1147.0254	1161.3068	1233.8595	1258.2275	1358.4265	1380.948	1441.0624	1466.0052	1491.2571	1518.6363	2241.2717	2981.5753	3067.4648	3074.4355	3077.2277	3155.9773	3165.0049	3499.583	3790.7433
OCC12CC(C1)(O2)C#C	OC[C@@]12C[C@@](C1)(O2)C#C	
InChI=1S/C7H8O2/c1-2-6-3-7(4-6,5-8)9-6/h1,8H,3-5H2	InChI=1S/C7H8O2/c1-2-6-3-7(4-6,5-8)9-6/h1,8H,3-5H2/t6-,7+
