17
gdb 80737	4.41275	1.15186	1.13671	1.242	73.67	-0.248	0.0273	0.2752	1129.3463	0.134372	-421.761011	-421.752652	-421.751708	-421.794187	31.267	
C	 0.0400455673	 1.6707683458	 0.0634089359	-0.408274
C	 0.0255707497	 0.1616772391	 0.0378358168	-0.063074
C	 1.2666067304	-0.6689859582	-0.235325333	 0.030482
O	 2.5060757377	-0.0026106272	-0.0980414043	-0.245759
C	 2.8174791222	-0.0512281114	 1.2882105506	-0.035206
O	 1.5744507672	-0.0284992669	 1.977600748	-0.245761
C	 0.6542210666	-0.6861423945	 1.1290644093	 0.03043
C	 3.6092426334	-1.2441939453	 1.6286560431	 0.357692
C	 4.2678845192	-2.2080405718	 1.9122004162	-0.433963
H	 0.9703924561	 2.0516582488	 0.486371872	 0.137785
H	-0.0620812572	 2.0747624731	-0.9487573329	 0.120982
H	-0.788375582	 2.0543083322	 0.6673541004	 0.120975
H	-0.8791214144	-0.2825211892	-0.3738799978	 0.091375
H	 1.2731807956	-1.5057579026	-0.9244280659	 0.108072
H	 3.3642642336	 0.8611635807	 1.5450120665	 0.123144
H	 0.1517905998	-1.5371384002	 1.5745468489	 0.108077
H	 4.8500553649	-3.0606203225	 2.1628800763	 0.203024
76.7004	120.3473	126.5674	204.5591	229.7538	290.3571	452.2387	495.28	558.9782	644.9081	659.392	665.9976	753.6449	757.3671	775.0713	798.7319	896.907	941.1498	950.5665	990.0286	1002.7206	1056.7787	1098.331	1100.6509	1101.4876	1137.2668	1146.7538	1211.4563	1280.9756	1335.2327	1346.0492	1377.6334	1418.5101	1420.4596	1489.7281	1498.0924	2235.1919	3044.1527	3073.7308	3101.8823	3123.4548	3145.7899	3168.1606	3178.2174	3501.1317
CC1C2OC(OC12)C#C	C[C@H]1[C@H]2O[C@@H](O[C@@H]12)C#C	
InChI=1S/C7H8O2/c1-3-5-8-6-4(2)7(6)9-5/h1,4-7H,2H3	InChI=1S/C7H8O2/c1-3-5-8-6-4(2)7(6)9-5/h1,4-7H,2H3/t4-,5-,6+,7-
