16
gdb 15035	2.60805	1.85273	1.18655	4.0139	69.16	-0.2426	-0.0249	0.2177	1005.5516	0.130719	-379.924484	-379.916517	-379.915573	-379.957464	28.53	
N	-2.3538663951	 1.3338996317	-0.0505441552	-0.4622
C	-2.3352662548	 0.0700187517	-0.1853796275	 0.099292
N	-1.1757364462	-0.6901855996	-0.0611578342	-0.09458
C	 0.0425577352	-0.0781611052	 0.2236828797	 0.161174
O	 1.0837702039	-0.6814528215	 0.3438418205	-0.319552
C	-1.1819033268	-2.1304712796	-0.2199995046	 0.060713
C	-2.3139325505	-2.9962698371	 0.2564966469	-0.288929
C	-2.0477900634	-2.8337027893	-1.2269190199	-0.288866
H	-3.2978365337	 1.6890085905	-0.1806338481	 0.234489
H	-3.2126903346	-0.5425431989	-0.4094156298	 0.107468
H	-0.064176668	 1.0091882899	 0.323626011	 0.142489
H	-0.1743134445	-2.49641064	-0.0793131009	 0.146917
H	-2.0634424203	-3.9357490388	 0.7362178733	 0.12934
H	-3.1969141509	-2.5158745399	 0.6644367513	 0.121453
H	-2.7542069087	-2.2453228877	-1.8028045029	 0.121447
H	-1.6126224515	-3.6603171461	-1.7772204298	 0.129344
63.951	87.676	208.8221	230.9073	254.1234	260.7824	382.9856	458.7972	581.9274	681.0016	752.0496	796.3287	803.803	820.2712	943.6944	951.3085	1047.5985	1057.1453	1059.9435	1074.7386	1083.9639	1153.3054	1166.2825	1197.809	1218.313	1295.2282	1328.603	1426.0356	1430.2965	1456.8724	1467.9128	1509.7806	1722.1192	1795.3045	3072.3449	3083.7776	3135.2619	3137.3247	3213.234	3215.5523	3229.8052	3521.9874
N=CN(C=O)C1CC1	N=CN(C=O)C1CC1	
InChI=1S/C5H8N2O/c6-3-7(4-8)5-1-2-5/h3-6H,1-2H2	InChI=1S/C5H8N2O/c6-3-7(4-8)5-1-2-5/h3-6H,1-2H2
