19
gdb 53096	2.79185	0.9461	0.87524	1.0755	82.22	-0.2311	0.0416	0.2727	1441.8091	0.15491	-422.986236	-422.975366	-422.974421	-423.022758	38.434	
C	 0.1008875926	 1.4700508368	 0.1002669277	-0.501478
C	 0.0280000058	 0.0168745452	 0.0369012915	 0.115574
C	-0.0356493475	-1.1847275198	-0.0603141266	 0.036557
C	-0.0938755792	-2.6144201917	-0.0925625132	-0.319654
C	-0.4904105504	-3.3396220612	 1.2013635377	 0.039718
O	-0.8175293374	-2.5853150859	 2.3223237149	-0.424484
C	-1.4142962021	-3.372911856	 0.0106597558	 0.339857
C	-2.7360423105	-2.6493851543	 0.0371127075	-0.441838
O	-1.3819398707	-4.5457749297	-0.7605618082	-0.459352
H	 1.0235091387	 1.8059604097	 0.5865120435	 0.149568
H	 0.0751798638	 1.9100145625	-0.9028266415	 0.153275
H	-0.7414064751	 1.8856841033	 0.6641864941	 0.150484
H	 0.6533186422	-3.1164046114	-0.6992711894	 0.121621
H	 0.0551825293	-4.2555184703	 1.4211913557	 0.100606
H	-0.4096718041	-1.7146198856	 2.2208157616	 0.289601
H	-2.6891401019	-1.768805491	 0.678712739	 0.13335
H	-3.0253292806	-2.3418939092	-0.9720502164	 0.126061
H	-3.5168012186	-3.3101238541	 0.432757715	 0.108339
H	-1.9411057343	-5.1986337774	-0.3231741688	 0.282194
36.7736	80.2373	87.8756	164.7073	192.7264	226.054	249.8294	269.6826	276.3159	322.0819	382.3781	395.3632	419.2649	506.9851	523.3568	614.5457	709.0632	789.8136	865.0619	916.6141	947.1481	1004.0129	1051.3923	1054.4938	1075.9129	1086.1792	1151.455	1197.0951	1215.0021	1295.1972	1329.6592	1344.6439	1375.1709	1413.7746	1416.0113	1432.15	1476.899	1479.2341	1481.9273	1497.8121	2354.7525	3026.9443	3033.6541	3087.0541	3089.2266	3098.836	3123.6092	3147.6211	3159.4863	3737.9974	3784.5026
CC#CC1C(O)C1(C)O	CC#C[C@H]1[C@@H](O)[C@]1(C)O	
InChI=1S/C7H10O2/c1-3-4-5-6(8)7(5,2)9/h5-6,8-9H,1-2H3	InChI=1S/C7H10O2/c1-3-4-5-6(8)7(5,2)9/h5-6,8-9H,1-2H3/t5-,6+,7+/m0/s1
