21
gdb 85660	2.53104	1.22358	0.90938	0.6283	91.76	-0.2339	0.0242	0.2582	1356.306	0.181125	-349.947959	-349.938338	-349.937394	-349.982183	36.532	
C	-0.1289933447	 1.5640419358	-0.0415349207	-0.398223
C	 0.0126672862	 0.0389193715	 0.0167956203	-0.014198
C	 0.8026302709	-0.5588504954	-1.1738427281	-0.230109
C	 1.5701499301	-1.781866541	-0.5929893296	-0.260182
C	 2.8581773724	-2.027514209	-1.2327931835	 0.327644
C	 3.9222388555	-2.2198884673	-1.7594872992	-0.47241
C	 1.6479498457	-1.4521521243	 0.9018802077	 0.319646
C	 2.5363011485	-2.2216680016	 1.8246392475	-0.493321
C	 0.7910457522	-0.4772572046	 1.2054368626	-0.176415
H	 0.8547554671	 2.0459032275	-0.0507620361	 0.117045
H	-0.6667305781	 1.8753157407	-0.9434856647	 0.112898
H	-0.682170208	 1.9444843903	 0.8237955065	 0.111556
H	-1.0016479069	-0.3907435571	 0.0403609234	 0.076306
H	 0.1717520451	-0.8283397259	-2.0245249458	 0.101334
H	 1.5351167133	 0.1749724141	-1.5250837449	 0.112426
H	 0.9615777779	-2.6930750164	-0.7108154821	 0.104818
H	 4.8591637975	-2.3922118098	-2.228213468	 0.19237
H	 3.5823053908	-2.1591727066	 1.5039320478	 0.139491
H	 2.4619446573	-1.8526680426	 2.8508990811	 0.120476
H	 2.2761771946	-3.2884543027	 1.8258891906	 0.124379
H	 0.6232696826	-0.1041497456	 2.2115963752	 0.08447
68.0674	136.0942	143.6778	188.5243	216.9221	239.5267	277.3856	349.1895	399.684	450.4752	494.6913	552.4601	603.7357	611.8389	620.4146	632.1407	792.047	853.517	867.3874	932.4361	940.1101	976.573	1011.1334	1048.303	1054.3776	1066.9066	1108.8167	1134.6966	1186.3041	1223.9193	1261.9378	1283.2846	1306.2266	1325.426	1340.4097	1370.2274	1406.5498	1413.8745	1475.7272	1488.5282	1489.9594	1497.3543	1499.4764	1725.2763	2231.3375	2968.3213	2970.4616	3019.9254	3027.1364	3054.9954	3072.6837	3096.7977	3098.3979	3106.0837	3115.4062	3173.2304	3504.4962
CC1CC(C#C)C(C)=C1	C[C@H]1C[C@@H](C#C)C(=C1)C	
InChI=1S/C9H12/c1-4-9-6-7(2)5-8(9)3/h1,5,7,9H,6H2,2-3H3	InChI=1S/C9H12/c1-4-9-6-7(2)5-8(9)3/h1,5,7,9H,6H2,2-3H3/t7-,9-/m1/s1
