18
gdb 47610	2.44214	1.8383	1.15642	4.7813	71.51	-0.2324	0.0082	0.2406	1049.7408	0.15062	-439.098679	-439.09125	-439.090306	-439.130808	28.698	
O	 0.0206321719	 0.0287073436	 0.3539137973	-0.3399
C	-0.0049317163	 1.1661010024	-0.0301461297	 0.433415
O	-1.1888611858	 1.7378286349	-0.3553529083	-0.228317
C	-1.2435686025	 3.0711506473	-0.8951175565	-0.066478
C	-0.2712039171	 4.0170150301	-0.2021196286	-0.235949
C	 1.1525441478	 3.5268375083	-0.4522652205	-0.029888
C	 2.1612289786	 3.727898474	 0.705353066	-0.186769
N	 1.8102706909	 2.3754270769	 1.1984340586	-0.304706
C	 1.2576701808	 2.0128980487	-0.1292003008	-0.115953
H	-1.0426984746	 3.0250602136	-1.9742614765	 0.110587
H	-2.2817493114	 3.3835417943	-0.7610136295	 0.125786
H	-0.4190367974	 5.036172749	-0.5749498326	 0.106927
H	-0.4897765035	 4.0204119896	 0.8714805051	 0.12983
H	 1.4966192432	 3.8169372146	-1.4470698311	 0.078164
H	 3.1927867118	 3.827715674	 0.3392036533	 0.094478
H	 1.9591771735	 4.5355696649	 1.4178839561	 0.104963
H	 2.5697985602	 1.7942684555	 1.5327745197	 0.229837
H	 1.9615248799	 1.4804881082	-0.7832116119	 0.093971
89.0849	136.9946	243.1162	257.0671	337.7599	416.1755	464.0522	492.6611	644.8435	663.4904	687.6932	805.0469	831.5583	886.336	926.5064	950.3056	979.2201	1011.5972	1024.2988	1029.5345	1097.1953	1098.0955	1136.2306	1174.3066	1185.952	1226.2171	1247.4906	1257.8572	1284.4766	1332.1296	1344.5893	1349.2236	1380.6784	1390.5652	1423.749	1478.1346	1515.4435	1520.5386	1845.8574	2997.7109	3008.9889	3016.6019	3043.0703	3056.5147	3078.9513	3097.6205	3102.9179	3546.0073
O=C1OCCC2CNC12	O=C1OCC[C@H]2CN[C@@H]12	
InChI=1S/C6H9NO2/c8-6-5-4(3-7-5)1-2-9-6/h4-5,7H,1-3H2	InChI=1S/C6H9NO2/c8-6-5-4(3-7-5)1-2-9-6/h4-5,7H,1-3H2/t4-,5+/m0/s1
