17
gdb 65903	2.63359	1.25023	1.16294	3.337	74.85	-0.2538	-0.0659	0.1879	1141.4128	0.132969	-421.779721	-421.770353	-421.769409	-421.81498	33.149	
C	-0.1572179911	 1.5756372124	 0.2057835594	-0.47436
C	-0.0081104825	 0.0585836241	 0.0720882499	 0.164266
C	 1.084928326	-0.431939787	-0.9208541084	-0.114021
O	 1.805727243	-1.0885373814	 0.1338433842	-0.269883
C	 0.8603609743	-0.6504561008	 1.1341763517	-0.122006
C	-1.3678467974	-0.5888636156	-0.1456120786	 0.198111
O	-1.906956119	-1.3064078978	 0.6678389455	-0.291824
C	-1.9997490396	-0.2845929508	-1.4221327522	 0.27252
C	-2.5078826992	-0.0323726849	-2.4841401019	-0.423973
H	 0.8256166526	 2.0392809291	 0.3323243792	 0.131648
H	-0.6276970652	 2.0071785485	-0.6829427942	 0.135757
H	-0.7706445476	 1.833587467	 1.075439814	 0.134956
H	 0.7524513949	-1.1308539277	-1.698278539	 0.110975
H	 1.6665234122	 0.3725803569	-1.389694654	 0.102599
H	 1.3226974167	 0.0173780546	 1.871143224	 0.097503
H	 0.3736871362	-1.4856452881	 1.645860779	 0.128859
H	-2.9727996942	 0.1796165115	-3.4166436586	 0.218874
39.7567	48.3201	126.615	179.1301	228.3963	270.7236	284.7196	322.0423	352.2245	493.1701	517.2447	650.952	666.6589	709.0486	764.0951	809.957	865.5509	919.0471	968.819	986.7106	1006.9411	1041.7855	1079.1581	1153.8641	1160.4823	1176.5483	1223.2569	1293.3077	1309.5075	1371.63	1410.0027	1491.5752	1496.7665	1513.4427	1536.1937	1764.6583	2208.2982	3005.9486	3025.7589	3035.704	3053.0499	3092.4688	3107.8369	3113.6347	3491.5196
CC1(COC1)C(=O)C#C	CC1(COC1)C(=O)C#C	
InChI=1S/C7H8O2/c1-3-6(8)7(2)4-9-5-7/h1H,4-5H2,2H3	InChI=1S/C7H8O2/c1-3-6(8)7(2)4-9-5-7/h1H,4-5H2,2H3
