20
gdb 89614	3.72836	1.11085	0.94437	2.7532	81.68	-0.2323	-0.0217	0.2106	1297.4091	0.169827	-403.136037	-403.126838	-403.125893	-403.170017	34.331	
C	-0.1045237037	 1.5457552672	 0.1049979882	-0.405313
C	 0.260705879	 0.1128564989	-0.2552629961	 0.03638
C	 1.7138320831	-0.1830216156	-0.7872749427	-0.331151
C	 1.9122024909	-1.1699192064	 0.3687536387	 0.258101
N	 1.7033418393	-0.4056608675	 1.6227132319	-0.359863
C	 0.5260861737	-0.8670344739	 0.9013349915	-0.092686
C	 2.5554384411	-2.5006772089	 0.4447308076	 0.28007
C	 3.0799729903	-3.0974519382	-0.8451086743	-0.490549
O	 2.6363396257	-3.0853071431	 1.5098145085	-0.336962
H	 0.6080897489	 1.9480633351	 0.8296862943	 0.140942
H	-0.0948332743	 2.1866074759	-0.7831427522	 0.112933
H	-1.106958622	 1.5989992164	 0.543809764	 0.113071
H	-0.4760924598	-0.31395125	-0.9422837397	 0.076998
H	 1.712820822	-0.6491430784	-1.7745066276	 0.104406
H	 2.4061241021	 0.6627635207	-0.7825894617	 0.110211
H	 1.8834537908	-1.0768769501	 2.372564115	 0.249409
H	-0.1675628497	-1.5660804474	 1.3550688328	 0.106076
H	 3.828939011	-2.4353242103	-1.2939102047	 0.143926
H	 3.5226753386	-4.0728746569	-0.641999527	 0.14376
H	 2.271663483	-3.2048258672	-1.5770201765	 0.14024
81.5152	113.5593	137.1748	156.8501	228.9434	238.4365	306.7981	383.0264	410.5495	467.0629	571.7582	605.405	634.4998	692.7344	796.2867	846.6692	869.2325	887.3172	936.9318	953.7962	990.8784	1033.2506	1052.4426	1073.3201	1094.8213	1120.6704	1147.457	1168.7583	1216.475	1243.1658	1253.9593	1306.5355	1343.5978	1376.9201	1386.9885	1399.8604	1419.1373	1462.061	1471.2874	1480.6483	1490.7947	1503.7512	1763.4693	3032.9536	3036.9955	3060.2998	3065.9798	3094.7403	3097.0697	3121.8112	3125.7245	3155.3788	3181.4706	3454.1082
CC1CC2(NC12)C(C)=O	C[C@H]1C[C@]2(N[C@@H]12)C(=O)C	
InChI=1S/C7H11NO/c1-4-3-7(5(2)9)6(4)8-7/h4,6,8H,3H2,1-2H3	InChI=1S/C7H11NO/c1-4-3-7(5(2)9)6(4)8-7/h4,6,8H,3H2,1-2H3/t4-,6-,7-/m0/s1
