19
gdb 121443	2.45967	0.93148	0.69442	1.904	79.46	-0.232	-0.0786	0.1534	1590.1279	0.157119	-456.34485	-456.334203	-456.333258	-456.382246	36.311	
C	-0.0636790698	 1.4344195786	 0.2203412901	-0.314844
N	-0.094205247	-0.0023598684	 0.0898324489	-0.304534
C	-1.2344620138	-0.7269913183	 0.2093065582	 0.272474
C	-0.9977691855	-2.2021323797	-0.0239147987	 0.113738
O	 0.0900696871	-2.6485375633	-0.2995811488	-0.26078
N	-2.3645906147	-0.1789099785	 0.4709561063	-0.319758
C	-3.5953263645	-0.9334203943	 0.6570508749	-0.166646
C	-4.5720251935	-0.0260723139	 1.4146036621	-0.043161
O	-4.7310331991	 1.2055845606	 0.7474684379	-0.421353
H	 0.9716268433	 1.7750419441	 0.1630950316	 0.128192
H	-0.644491526	 1.9258747343	-0.5704298533	 0.134069
H	-0.4898880627	 1.7432656117	 1.1810707295	 0.14127
H	 0.7285080479	-0.5188543391	-0.1755503593	 0.264302
H	-1.8866950078	-2.8522643891	 0.0519532994	 0.111215
H	-4.0414008854	-1.1743439966	-0.3188704052	 0.1111
H	-3.4702549261	-1.8737161081	 1.2131722724	 0.091686
H	-5.5575679461	-0.5002779581	 1.4763137004	 0.098556
H	-4.2006858057	 0.1164394231	 2.4434015334	 0.080401
H	-3.8293570608	 1.4716799148	 0.5181260303	 0.284072
23.7114	76.3697	100.6392	115.6108	153.9545	180.4536	213.0309	223.1813	314.2528	351.4424	432.4534	495.4092	517.8759	567.5096	576.884	675.5859	794.0362	907.2583	932.2926	1020.1217	1054.8908	1090.4169	1108.2656	1132.428	1160.0326	1208.7753	1225.8187	1255.4625	1302.6943	1372.1635	1387.3603	1416.9561	1446.0668	1456.2472	1468.5816	1474.4449	1508.683	1513.1249	1556.3599	1712.0442	1800.5071	2962.6923	2974.5753	2993.5378	3020.847	3028.6636	3069.5927	3073.0209	3134.8227	3647.6588	3738.3505
CNC(C=O)=NCCO	CNC(=NCCO)C=O	
InChI=1S/C5H10N2O2/c1-6-5(4-9)7-2-3-8/h4,8H,2-3H2,1H3,(H,6,7)	InChI=1S/C5H10N2O2/c1-6-5(4-9)7-2-3-8/h4,8H,2-3H2,1H3,(H,6,7)
