15
gdb 54889	2.6318	1.65175	1.08456	5.6085	68.24	-0.2361	-0.0192	0.2169	1052.1476	0.114545	-450.178375	-450.170479	-450.169535	-450.211324	29.626	
N	-0.1039405341	 1.2818964896	 0.2819454607	-0.519383
C	 0.0903474902	-0.0038375759	-0.1228855348	 0.370457
O	 1.1182044224	-0.4381987438	-0.5873508855	-0.33417
C	-1.2035381993	-0.8615946994	-0.0062421331	-0.169102
N	-0.9675915099	-2.2817662416	-0.2706779839	-0.204962
C	-1.4220010403	-2.9072888049	 0.7398696155	 0.058965
N	-1.9823684171	-2.1159117983	 1.7434318716	-0.344016
C	-1.8829323024	-0.7853700788	 1.3662755438	 0.399571
N	-2.2441756107	 0.2798995208	 1.9630760633	-0.566882
H	 0.719036239	 1.8617961851	 0.3333078188	 0.256051
H	-0.8814402898	 1.4823774814	 0.9029829179	 0.278975
H	-1.8927103108	-0.4647536558	-0.7627407947	 0.152143
H	-1.4055077531	-3.9855572021	 0.8578777094	 0.143609
H	-2.3339977928	-2.4443906792	 2.627410622	 0.262756
H	-2.6731058512	 0.1046414029	 2.8710318291	 0.215987
55.96	99.147	229.978	237.8552	368.9454	402.6268	437.5272	501.7693	518.6034	585.1643	627.7839	635.3334	684.415	718.64	829.7791	878.6356	893.6963	948.0304	960.3948	1054.7072	1070.2193	1097.176	1147.5038	1215.4445	1248.6902	1299.5685	1325.5727	1358.4353	1411.8655	1634.7326	1688.2981	1748.1063	1827.2566	3038.4731	3201.7768	3479.3394	3488.8738	3657.4615	3671.6588
NC(=O)C1N=CNC1=N	NC(=O)[C@H]1N=CN[C]1[NH]	
InChI=1S/C4H6N4O/c5-3-2(4(6)9)7-1-8-3/h1-2H,(H2,6,9)(H2,5,7,8)	InChI=1S/C4H6N4O/c5-3-2(4(6)9)7-1-8-3/h1-2H,(H2,6,9)(H2,5,7,8)/t2-/m0/s1
