16
gdb 124086	4.86609	1.08639	1.02077	2.8246	70.21	-0.2631	-0.0073	0.2559	1157.4292	0.12643	-434.033255	-434.025893	-434.024949	-434.066835	26.36	
C	-0.0258278497	 1.3864382807	-0.3296436955	-0.091994
O	 1.1866410937	 1.6903118216	 0.3883347577	-0.270347
C	 1.4307161627	 0.2966783344	 0.6642392799	-0.091996
C	 0.0673461325	-0.1087331613	 0.0560783209	 0.003246
N	-0.9274418552	-0.592668888	 0.9833255404	 0.05886
C	-1.3396505178	-0.0668155202	 2.1640957735	-0.104448
C	-2.2984318196	-0.944699037	 2.6065523063	-0.066743
N	-2.4265197554	-1.9476741087	 1.6943817884	-0.189309
N	-1.5988498558	-1.7359057615	 0.7135798028	-0.142982
H	-0.8953453022	 1.9231622955	 0.0646860403	 0.120772
H	 0.0681378763	 1.5828470479	-1.404350536	 0.118056
H	 2.3011425076	-0.0878488644	 0.1193557806	 0.118056
H	 1.5506541247	 0.093111679	 1.7337272136	 0.120771
H	 0.0896316268	-0.8254126105	-0.7623983113	 0.128937
H	-0.9314963773	 0.8453495021	 2.5662130242	 0.159807
H	-2.8907485014	-0.9155909195	 3.506566984	 0.129314
34.0304	61.3398	144.8487	239.083	382.7457	406.3127	649.4301	664.2572	717.6702	797.9099	839.4174	858.4164	867.5624	938.5757	961.6792	1017.1256	1034.635	1043.8838	1046.7048	1093.7317	1102.6006	1139.7526	1158.7666	1164.9788	1203.6865	1241.2261	1295.2659	1306.9173	1343.063	1365.8608	1402.4125	1493.0228	1504.9464	1524.2803	1533.266	3021.8265	3032.335	3079.3789	3079.4318	3146.0827	3268.7891	3289.0253
C1OCC1N1C=CN=N1	C1OCC1n1ccnn1	
InChI=1S/C5H7N3O/c1-2-8(7-6-1)5-3-9-4-5/h1-2,5H,3-4H2	InChI=1S/C5H7N3O/c1-2-8(7-6-1)5-3-9-4-5/h1-2,5H,3-4H2
