16
gdb 60877	2.36311	1.3942	1.05607	1.4221	72.01	-0.253	-0.0477	0.2054	1142.4433	0.121777	-437.824968	-437.816031	-437.815087	-437.858856	32.966	
O	-1.0476102548	-0.0234652436	-0.0853868875	-0.429827
C	 0.27808292	-0.4577843961	-0.173946177	-0.060921
C	 1.081126448	 0.5094394522	-1.026164275	 0.144391
O	 0.5639264724	 1.4950668384	-1.4962799805	-0.265752
C	 0.9324960411	-0.5636673764	 1.225933308	 0.093205
C	 0.6637029667	 0.5385563785	 2.1987466184	-0.26876
N	 0.0347769308	-0.773599307	 2.3749650667	-0.350112
C	 2.1847969669	-1.2739623092	 1.2269719151	 0.285973
C	 3.2329136155	-1.8593454284	 1.1576654045	-0.400332
H	-1.0815086568	 0.8100582309	-0.5856894747	 0.301419
H	 0.3271463066	-1.4554408897	-0.6385424425	 0.113976
H	 2.151285018	 0.2757721596	-1.1714096601	 0.125074
H	 1.4210530163	 0.7929843528	 2.9328618003	 0.13213
H	 0.0486344389	 1.3620377196	 1.8459535125	 0.123342
H	-0.9213567679	-0.7217526361	 2.0243464264	 0.256067
H	 4.1580433686	-2.3803586352	 1.1253865454	 0.200127
61.0252	113.0119	137.3173	214.9196	260.0749	277.8156	334.8718	383.7159	461.1513	520.3377	529.8745	569.9477	619.5121	667.0572	687.2569	780.286	855.1592	869.9793	916.4785	966.5151	998.1875	1030.4887	1091.7417	1129.3633	1165.1099	1238.1289	1281.4493	1307.4476	1323.7443	1365.9714	1392.4507	1433.4048	1493.9616	1806.2992	2237.4612	2977.7892	2991.2607	3117.3792	3212.6335	3481.7265	3499.8981	3651.8163
OC(C=O)C1(CN1)C#C	O[C@@H](C=O)[C@]1(CN1)C#C	
InChI=1S/C6H7NO2/c1-2-6(4-7-6)5(9)3-8/h1,3,5,7,9H,4H2	InChI=1S/C6H7NO2/c1-2-6(4-7-6)5(9)3-8/h1,3,5,7,9H,4H2/t5-,6+/m0/s1
