18
gdb 86766	3.32369	0.95037	0.80243	2.3334	79.44	-0.2432	-0.0302	0.213	1434.296	0.145057	-401.912232	-401.902698	-401.901754	-401.947297	34.482	
C	 0.0326483926	 1.6386055131	 0.0393453854	-0.387628
C	-0.0012312805	 0.1189290685	 0.0825033571	-0.065649
N	 0.9287690913	-0.5930914869	-0.8418386523	-0.332964
C	 1.4110301758	-1.5204837657	 0.2126116842	-0.087708
C	 2.9310680924	-1.6980632492	 0.3191891308	-0.348073
C	 3.4719605664	-2.5211933329	-0.7545636886	 0.29272
C	 3.882905002	-3.2075276826	-1.6516896288	-0.439918
C	 0.7226346547	-0.598750896	 1.2358825072	 0.378792
O	 0.7926955217	-0.452014561	 2.4190881005	-0.297159
H	 1.0621586659	 2.0005551077	 0.1022127025	 0.127649
H	-0.4049115834	 2.0110098078	-0.8920063311	 0.122752
H	-0.5379001149	 2.0513836601	 0.8770863026	 0.131524
H	-1.04105719	-0.2418895234	 0.0254313301	 0.095383
H	 0.4846119594	-1.0462311303	-1.6313113235	 0.228062
H	 0.9271705434	-2.5089633456	 0.2030494057	 0.10416
H	 3.4004290751	-0.7078759668	 0.3061277825	 0.13749
H	 3.1568476469	-2.1486321361	 1.2940543912	 0.144209
H	 4.2659675613	-3.8095142305	-2.4378856654	 0.196357
52.0473	78.7608	109.6894	183.8863	191.7991	213.9975	334.1751	369.8921	384.013	440.702	536.2768	613.3487	620.6139	642.5629	650.6596	757.3213	840.1965	858.8738	944.3337	955.8519	989.4467	1024.8317	1060.004	1077.5749	1115.1456	1147.0254	1170.4277	1229.2805	1266.8447	1317.8169	1341.9598	1366.6069	1386.9409	1403.7443	1457.9739	1483.6661	1495.0314	1909.9812	2238.8077	2974.6426	2993.2614	3030.8167	3041.2402	3072.8297	3112.8767	3124.8422	3506.9026	3553.0473
CC1NC(CC#C)C1=O	C[C@H]1N[C@@H](CC#C)C1=O	
InChI=1S/C7H9NO/c1-3-4-6-7(9)5(2)8-6/h1,5-6,8H,4H2,2H3	InChI=1S/C7H9NO/c1-3-4-6-7(9)5(2)8-6/h1,5-6,8H,4H2,2H3/t5-,6+/m1/s1
