19
gdb 71845	2.80003	1.92086	1.6371	1.6291	78.62	-0.2323	0.0039	0.2361	918.4656	0.160973	-385.856153	-385.849234	-385.84829	-385.886843	29.351	
C	 0.0457298429	 1.5680445573	-0.0077048593	-0.509638
C	-0.0326660707	 0.0609609406	-0.0717537206	 0.315066
C	 0.2687592607	-0.7259220717	-1.3535346209	-0.281815
C	-0.6002438205	-1.891296679	-0.7716651851	-0.146982
C	 0.3247956824	-2.7334495268	 0.0618804583	-0.048198
C	 0.9218276872	-2.076568315	 1.0611023097	-0.079564
C	 0.3556417919	-0.7018615952	 1.2769195156	-0.003026
O	-1.0821346706	-0.9146537958	 1.5532082415	-0.291735
C	-1.3092720745	-0.7746144924	 0.1619419911	 0.087024
H	 1.0871203607	 1.9112007885	-0.0301135794	 0.118444
H	-0.4726857589	 2.0276958353	-0.8560856101	 0.115045
H	-0.4116424263	 1.9449381402	 0.9132620754	 0.128598
H	-0.2226573451	-0.2403726517	-2.2039505192	 0.096494
H	 1.303476505	-0.9641636568	-1.613661162	 0.095016
H	-1.2294820569	-2.453228367	-1.4613496284	 0.06499
H	 0.5051994205	-3.7763684239	-0.1759242159	 0.096807
H	 1.6487230784	-2.5056774929	 1.7404374661	 0.095401
H	 0.8291651263	-0.1091597387	 2.0615822861	 0.071225
H	-2.3355992726	-0.502400225	-0.0945875331	 0.076848
213.4382	217.985	276.7399	363.6532	384.4313	432.6361	518.2646	575.3568	638.2029	708.1596	722.7323	756.9733	771.9106	843.6429	854.8956	871.3836	918.7136	947.0042	968.8858	981.1992	990.0085	1018.1744	1063.8996	1078.4317	1122.8846	1149.8061	1164.8003	1199.8801	1211.4516	1226.4105	1248.0139	1261.3464	1304.7155	1334.0465	1364.4504	1382.8169	1408.4173	1482.9682	1491.9487	1495.1366	1666.7642	3022.699	3040.2119	3085.8645	3088.0609	3095.258	3098.8622	3100.3591	3112.7485	3177.4378	3204.9765
CC12CC3C=CC1OC23	C[C@@]12C[C@H]3C=C[C@@H]1O[C@@H]23	
InChI=1S/C8H10O/c1-8-4-5-2-3-6(8)9-7(5)8/h2-3,5-7H,4H2,1H3	InChI=1S/C8H10O/c1-8-4-5-2-3-6(8)9-7(5)8/h2-3,5-7H,4H2,1H3/t5-,6+,7-,8-/m1/s1
