18
gdb 96691	2.43546	1.25992	0.84716	2.416	83.9	-0.2309	-0.0853	0.1456	1344.9559	0.145423	-435.264589	-435.254172	-435.253228	-435.301485	35.133	
C	 0.3197038397	 1.3814842798	-0.037856531	-0.335632
N	 0.1034985061	-0.0550950096	-0.0077510869	-0.28088
C	-1.0580807889	-0.5956856015	-0.013784748	 0.299488
C	-2.3149562095	 0.2464887424	-0.0327487568	 0.09778
O	-3.4225493608	-0.0816700416	 0.3152068579	-0.253526
N	-1.1300733442	-1.9839617643	 0.0526096783	-0.124558
C	 0.1373166198	-2.7021313219	 0.2033952087	-0.329834
C	-2.2981933527	-2.7191597067	-0.1303101769	 0.0755
N	-2.2852552685	-3.9932511554	-0.1442038158	-0.472563
H	-0.0375857496	 1.8489834747	-0.9659305035	 0.128663
H	-0.1422630082	 1.9105147265	 0.8056841101	 0.128938
H	 1.3963455216	 1.5622336593	 0.0181322404	 0.134995
H	-2.1192420698	 1.27911815	-0.3741852071	 0.112194
H	 0.6711003471	-2.3201460052	 1.0756281164	 0.137652
H	-0.0967199153	-3.7577947327	 0.314350487	 0.169084
H	 0.7726140199	-2.5426661982	-0.6722974936	 0.136116
H	-3.1828448834	-2.100383694	-0.2404382656	 0.148467
H	-3.2314847034	-4.3417935015	-0.2810314834	 0.228116
29.5893	63.2595	89.9737	120.6872	152.764	213.9702	241.1249	275.1625	300.6853	339.811	382.6959	453.116	536.8445	616.4755	662.5379	785.5455	811.6329	971.0312	1016.6601	1052.9822	1060.83	1099.9883	1109.0906	1156.1546	1158.8481	1237.1458	1370.8641	1382.4707	1427.2887	1440.3571	1446.0781	1454.1501	1488.03	1495.8326	1505.4874	1516.3728	1664.7107	1708.3127	1805.1691	2969.8494	2997.6065	3052.2218	3059.0985	3096.1552	3121.1996	3189.4814	3191.3897	3512.4475
CN=C(C=O)N(C)C=N	CN=C(C=O)N(C)C=N	
InChI=1S/C5H9N3O/c1-7-5(3-9)8(2)4-6/h3-4,6H,1-2H3	InChI=1S/C5H9N3O/c1-7-5(3-9)8(2)4-6/h3-4,6H,1-2H3
