14
gdb 24548	3.99426	1.70056	1.19275	0.3848	80.23	-0.2061	-0.07	0.1361	948.8755	0.104542	-399.593172	-399.58714	-399.586196	-399.62341	24.421	
O	-0.0287038543	 1.3355297786	 0.0100225827	-0.192594
C	 1.1382041793	 2.0017060197	 0.001813578	 0.116696
N	 2.3196687648	 1.4943058749	-0.0128138382	-0.288173
C	 2.4372351468	 0.1201379099	-0.0212560813	-0.106328
C	 1.3421000619	-0.6859191574	-0.0144432322	 0.210261
C	 1.0692147611	-2.0902577908	-0.0189504221	-0.278363
C	-0.2990964732	-2.2297805769	-0.0060593279	-0.071755
C	-0.9660987349	-0.9417608245	 0.0073119591	-0.322086
C	 0.0322073661	-0.0217699437	 0.0022457528	 0.347479
H	 0.9751507941	 3.0731335617	 0.0090129403	 0.148883
H	 3.4539495797	-0.2611244237	-0.0334112107	 0.127939
H	 1.8054925677	-2.8795231404	-0.0303941715	 0.099096
H	-0.8293571528	-3.1739238294	-0.0057006257	 0.103145
H	-2.0305488964	-0.7673876979	 0.0188408666	 0.105799
192.8332	247.5675	359.4446	425.1438	542.7786	560.0122	607.5157	624.0009	705.3189	744.0308	767.5402	794.2604	852.9606	904.5405	906.9539	920.6279	974.2394	1013.7926	1093.2321	1101.4231	1145.7999	1213.5948	1254.8985	1306.913	1366.3442	1396.5487	1421.0586	1476.0774	1556.1706	1626.7559	1674.4414	3177.9813	3213.0412	3216.4128	3248.534	3255.8013
O1C=NC=C2C=CC=C12	o1cncc2cccc12	
InChI=1S/C7H5NO/c1-2-6-4-8-5-9-7(6)3-1/h1-5H	InChI=1S/C7H5NO/c1-2-6-4-8-5-9-7(6)3-1/h1-5H
