18
gdb 29580	2.90282	1.45492	1.02212	1.4604	79.83	-0.1722	0.0576	0.2298	1155.1106	0.149433	-398.118934	-398.110363	-398.109419	-398.1522	32.645	
N	 0.2608424678	 1.3086009992	-0.4107671262	-0.617182
C	 0.0594309716	-0.0585990547	-0.1359847788	 0.171473
C	-1.1153446474	-0.7767546967	-0.1040137337	-0.157767
N	-0.7935662825	-2.0962267981	 0.1418090108	-0.251373
C	 0.5653984413	-2.2329363878	 0.2626356372	-0.169596
C	 1.12482495	-0.9829613726	 0.0932048329	 0.224521
N	 2.4762007003	-0.5844943558	 0.1990655381	-0.170563
C	 3.508285977	-1.5373101794	-0.1860907738	-0.226001
C	 3.2231198384	-0.357111423	-1.0464638417	-0.218421
H	 1.0596228228	 1.6594992176	 0.1061280713	 0.246004
H	-0.5484904923	 1.8713525553	-0.1798350026	 0.234569
H	-2.1377388898	-0.4639221458	-0.2397493883	 0.103393
H	-1.4576361392	-2.8423649596	 0.2298376098	 0.257036
H	 1.0195318119	-3.1826164526	 0.4912122562	 0.110198
H	 4.3893494378	-1.5594496017	 0.4486847332	 0.113877
H	 3.1863050745	-2.50628058	-0.5612958224	 0.113483
H	 2.7001538074	-0.5365715958	-1.9820418333	 0.123907
H	 3.8887143202	 0.5008179914	-1.0406721286	 0.112444
58.3878	155.8661	172.2982	229.4024	248.0666	300.9817	324.3163	433.3789	520.659	561.5658	610.6775	614.7912	702.8856	711.3859	733.0281	819.1796	823.9749	886.2697	900.2228	927.538	1037.4553	1073.547	1086.3292	1112.2949	1127.4258	1149.1668	1171.6451	1175.0876	1208.6067	1271.688	1301.7024	1382.2442	1439.7587	1479.416	1486.6808	1512.6384	1581.6042	1633.7338	1657.5931	3103.3973	3111.8152	3186.0188	3204.6501	3262.2751	3269.2198	3515.4444	3607.7541	3709.2207
NC1=CNC=C1N1CC1	Nc1c[nH]cc1N1CC1	
InChI=1S/C6H9N3/c7-5-3-8-4-6(5)9-1-2-9/h3-4,8H,1-2,7H2	InChI=1S/C6H9N3/c7-5-3-8-4-6(5)9-1-2-9/h3-4,8H,1-2,7H2
