17
gdb 48714	3.64132	1.35706	1.15837	2.0006	72.49	-0.2511	-0.0207	0.2304	1051.5754	0.136551	-421.817749	-421.810564	-421.80962	-421.849353	28.423	
O	-0.1689986489	 0.0881153557	 0.2918876004	-0.273154
C	 0.0086349505	 1.2521203375	 0.0226914633	 0.091537
C	 1.3224949723	 1.9228673581	-0.0109643405	 0.23545
C	 1.3426699195	 3.4318660021	 0.1798084744	-0.333599
C	 1.6205936731	 2.8937653172	-1.181827834	-0.103495
C	 3.0670272762	 2.6569162378	-1.5520395207	 0.028924
O	 4.0002927106	 2.9827253281	-0.5157864113	-0.253082
C	 3.6386331445	 1.6045370507	-0.6937282569	 0.042981
C	 2.5782842276	 1.098281827	 0.2713651679	-0.338457
H	-0.8462916822	 1.9198305827	-0.2386246845	 0.065618
H	 0.3826256604	 3.9117885482	 0.3432454072	 0.120395
H	 2.1742667616	 3.8446441101	 0.7366026664	 0.149665
H	 0.9004838315	 3.0337950668	-1.9796259981	 0.101581
H	 3.4005583827	 2.8558982812	-2.5663857303	 0.103698
H	 4.4544533789	 0.9553902726	-1.0029231866	 0.103532
H	 2.910828063	 1.1733628145	 1.3115561866	 0.123773
H	 2.3539129688	 0.0451821397	 0.0747635867	 0.134633
104.6574	201.546	224.4872	320.5766	330.4663	411.9127	483.8877	574.7526	670.7889	688.1506	738.9186	787.4106	830.4364	857.7086	892.466	914.4756	953.9667	968.5909	998.9147	1035.4734	1064.0039	1072.2417	1095.1996	1098.0955	1110.039	1189.987	1240.9822	1264.0196	1281.4742	1322.5656	1347.2856	1378.4823	1420.1988	1436.9385	1470.2901	1481.4782	1807.1048	2850.8716	3056.8282	3099.8225	3136.5941	3142.2326	3159.5862	3184.7562	3238.2567
O=CC12CC1C1OC1C2	O=C[C@]12C[C@H]1[C@H]1O[C@H]1C2	
InChI=1S/C7H8O2/c8-3-7-1-4(7)6-5(2-7)9-6/h3-6H,1-2H2	InChI=1S/C7H8O2/c8-3-7-1-4(7)6-5(2-7)9-6/h3-6H,1-2H2/t4-,5-,6+,7+/m0/s1
