16
gdb 93351	2.31336	1.72894	1.12507	2.8332	66.	-0.2703	-0.0433	0.227	1053.6406	0.124564	-475.046662	-475.03865	-475.037706	-475.07963	29.616	
O	-0.1262262315	 1.3990101398	 0.1288210311	-0.438472
C	-0.0580623644	-0.0034749096	 0.012381261	 0.092948
C	 0.5847459544	-0.542016615	 1.2928387371	-0.096275
O	-0.4944379976	-0.7453774803	 2.22681942	-0.236943
C	-1.681116533	-0.8388242995	 1.575534655	 0.436613
N	-2.8095508268	-1.0291955886	 2.1069443162	-0.552105
C	-1.4452671357	-0.6730369003	 0.0805028474	-0.246482
C	-2.5880827947	 0.0445757197	-0.6065266496	 0.164425
O	-2.4454473014	 0.9974708549	-1.3361332299	-0.268237
H	-0.7335565297	 1.7034551277	-0.5606551712	 0.303614
H	 0.5048717896	-0.3118035095	-0.87908266	 0.083581
H	 1.0969022671	-1.4964624784	 1.1266986746	 0.113155
H	 1.2768710965	 0.1819323959	 1.7246858951	 0.142664
H	-2.729244581	-1.1137883016	 3.1211854292	 0.230852
H	-1.4010934746	-1.6812724499	-0.3590753648	 0.134193
H	-3.5871458271	-0.3772872751	-0.3906256512	 0.136469
86.2965	102.8352	172.5822	231.4811	256.1278	357.8682	406.0517	462.7984	573.4647	587.7634	649.4663	722.5018	758.7614	835.3199	890.202	897.1217	943.5376	974.3175	979.3482	1028.9095	1076.5353	1110.7691	1166.2741	1209.9531	1245.2072	1254.4095	1289.2925	1308.783	1366.738	1402.3777	1417.6388	1439.3726	1505.4082	1772.3856	1807.954	2973.7494	3003.0713	3014.332	3047.5886	3134.1541	3482.6124	3731.7102
OC1COC(=N)C1C=O	O[C@H]1CO[C]([NH])[C@H]1C=O	
InChI=1S/C5H7NO3/c6-5-3(1-7)4(8)2-9-5/h1,3-4,6,8H,2H2	InChI=1S/C5H7NO3/c6-5-3(1-7)4(8)2-9-5/h1,3-4,6,8H,2H2/t3-,4-/m0/s1
