18
gdb 75165	3.01719	1.32402	1.11001	2.5355	72.37	-0.2433	0.0292	0.2725	1147.4119	0.147671	-439.085573	-439.077138	-439.076194	-439.119494	30.54	
C	-0.0939828124	 1.3431213043	 0.338684995	-0.47535
C	 0.0297313737	-0.1170985035	 0.0740984182	 0.416195
N	-0.3842151572	-0.7420892027	-0.9485609248	-0.29968
C	-0.0414924932	-2.1533579204	-0.7476813067	-0.202511
C	 0.6311844642	-2.2078006248	 0.657464895	 0.045657
O	 0.6714956636	-0.8235159689	 1.0563106612	-0.262385
C	-0.1421687078	-3.0258179286	 1.6669350898	 0.065106
C	-0.4413712527	-2.5506474855	 3.0211747396	-0.172906
O	-1.4443897225	-2.5531521482	 1.9973739994	-0.232325
H	 0.8946542807	 1.78776319	 0.4897310994	 0.142868
H	-0.5899146117	 1.8259351475	-0.5024499156	 0.153646
H	-0.6723088971	 1.5127966703	 1.252313355	 0.147767
H	-0.9472339034	-2.7675992223	-0.7886306209	 0.125864
H	 0.6275614515	-2.4954800731	-1.5441003918	 0.113495
H	 1.6623235062	-2.5763687831	 0.6159919857	 0.09267
H	-0.0793223053	-4.102728246	 1.49470289	 0.096573
H	-0.5921942104	-3.2723529668	 3.8224294818	 0.11539
H	-0.094824536	-1.5658786984	 3.3220052799	 0.129925
49.9635	90.2881	140.5689	196.9613	241.021	255.7514	340.02	456.4995	575.1913	609.584	688.3112	735.9051	801.0349	865.6616	903.8262	943.0281	962.1592	982.0495	1006.8693	1043.8972	1068.5411	1077.4877	1104.1458	1112.8799	1167.003	1168.6949	1214.3633	1247.8041	1288.6752	1314.8067	1336.0881	1385.5493	1416.7706	1432.0202	1474.9916	1476.5258	1497.1288	1522.0918	1754.45	3038.1458	3046.3374	3051.0418	3078.589	3087.3113	3098.5763	3108.7191	3166.8241	3195.7223
CC1=NCC(O1)C1CO1	CC1=NC[C@@H](O1)[C@H]1CO1	
InChI=1S/C6H9NO2/c1-4-7-2-5(9-4)6-3-8-6/h5-6H,2-3H2,1H3	InChI=1S/C6H9NO2/c1-4-7-2-5(9-4)6-3-8-6/h5-6H,2-3H2,1H3/t5-,6-/m1/s1
