19
gdb 106204	3.29335	1.40286	1.35291	1.5854	77.36	-0.2207	0.0648	0.2855	1035.0178	0.160881	-385.840935	-385.83355	-385.832605	-385.87292	29.77	
O	 0.1983531236	 1.3629818421	 0.2817877013	-0.413902
C	 0.0048966872	 0.0132884374	-0.1342121673	-0.207541
C	-1.417898672	-0.4386098613	-0.0505965935	 0.341198
C	-2.1522818997	-0.8059420188	 1.2265959641	-0.116718
C	-3.5530704813	-0.224306455	 1.2338837086	-0.234914
C	-3.8366386857	-0.2907549658	-0.2552923704	-0.071881
C	-3.1329337015	-1.4805011201	-0.8826249589	-0.079182
C	-2.5609793226	-0.0880439137	-1.0498645054	-0.161135
C	-2.002431006	-1.830507999	 0.1149912605	-0.153523
H	-0.3549686575	 1.9201018379	-0.2748822412	 0.281582
H	 0.3915967654	-0.1383604966	-1.1552859876	 0.086801
H	 0.6238781456	-0.5927588625	 0.5363608736	 0.107726
H	-1.5769724722	-0.926343335	 2.13710962	 0.087404
H	-4.2547347626	-0.8289086868	 1.8197652827	 0.098817
H	-3.5730281217	 0.8020294974	 1.61751025	 0.100933
H	-4.7784721318	 0.0433370108	-0.6745596061	 0.083673
H	-3.5751645337	-2.1372416221	-1.6186273048	 0.085737
H	-2.4772679187	 0.5199300938	-1.9414858381	 0.079906
H	-1.4931722247	-2.7793699627	 0.2164268924	 0.08502
78.0817	126.7116	232.7901	314.288	377.6478	400.4976	531.8145	635.5816	717.4024	745.2119	748.3932	765.9654	833.7078	852.646	860.4791	909.9008	922.2286	942.9435	965.1919	983.0111	990.8897	1014.6144	1029.9162	1036.2594	1054.0418	1073.3357	1079.8993	1131.489	1186.1439	1203.9061	1223.4788	1242.4151	1274.019	1289.6179	1310.3129	1367.9313	1378.9476	1408.2558	1446.6783	1490.6909	1496.7767	2968.619	3035.9172	3066.1987	3077.2786	3184.2401	3187.4917	3191.9601	3202.1676	3213.7173	3816.831
OCC12C3CC4C(C14)C23	OC[C@@]12[C@H]3C[C@@H]4[C@@H]([C@H]14)[C@@H]23	
InChI=1S/C8H10O/c9-2-8-4-1-3-5(6(3)8)7(4)8/h3-7,9H,1-2H2	InChI=1S/C8H10O/c9-2-8-4-1-3-5(6(3)8)7(4)8/h3-7,9H,1-2H2/t3-,4+,5+,6-,7+,8-/m1/s1
