16
gdb 12144	4.91328	1.55886	1.42288	1.5011	65.05	-0.254	0.0746	0.3287	893.8161	0.129536	-383.679817	-383.67269	-383.671746	-383.710845	27.938	
O	-0.1959791967	 1.4101247294	-0.0188292336	-0.460199
C	-0.091905156	 0.0338722788	 0.0408332845	 0.400748
C	-0.3395711894	-0.8604385198	-1.1360902775	-0.342592
C	-1.2550903425	-0.9578899801	 0.0740517434	-0.20538
C	-0.5447140882	-1.7136659712	 1.1686999812	 0.48351
C	-1.1021994234	-2.4651356471	 2.2896668318	-0.273264
O	-0.4148764596	-3.1266634901	 1.2156159003	-0.275795
C	 0.64106453	-0.7251687238	 1.1626090567	-0.398088
H	 0.5346663608	 1.7466455161	-0.5492306864	 0.288277
H	-0.7953835502	-0.3620469636	-1.9857843653	 0.116293
H	 0.3330052067	-1.6767352639	-1.3871985922	 0.118783
H	-2.320587262	-0.7814498199	-0.002830887	 0.098317
H	-0.5861881579	-2.469048014	 3.2495223544	 0.113917
H	-2.1747931215	-2.651056506	 2.3399108844	 0.115272
H	 1.6242052205	-1.1424646877	 0.9231899583	 0.104207
H	 0.7011738795	-0.1406341171	 2.0841198171	 0.115997
106.6411	243.1367	270.8876	290.7103	380.7796	400.2001	423.2707	479.4025	548.5403	672.4298	777.3922	817.2385	844.2908	886.9606	929.0657	947.5316	974.5166	999.6746	1020.5422	1071.5218	1090.3333	1120.2611	1132.0994	1158.2211	1168.8877	1219.9068	1236.9605	1269.2553	1307.9308	1406.1229	1442.6751	1472.6228	1500.7079	1541.781	3049.8742	3075.4651	3111.212	3112.0512	3160.6244	3194.176	3207.925	3795.7522
OC12CC1C1(CO1)C2	O[C@]12C[C@H]1[C@]1(CO1)C2	
InChI=1S/C6H8O2/c7-5-1-4(5)6(2-5)3-8-6/h4,7H,1-3H2	InChI=1S/C6H8O2/c7-5-1-4(5)6(2-5)3-8-6/h4,7H,1-3H2/t4-,5+,6-/m1/s1
