21
gdb 85333	1.77418	1.64742	0.88855	4.0552	87.65	-0.2301	-0.0406	0.1895	1342.7169	0.182419	-387.149199	-387.14007	-387.139126	-387.182832	34.794	
C	-0.0081368482	 1.5677040907	 0.0330417502	-0.399423
C	 0.0099622249	 0.0374192492	 0.0226532816	-0.00019
C	 0.6236150731	-0.5245815932	-1.2673908578	-0.307598
C	 0.6699257807	-2.0483488186	-1.2812933561	 0.365645
O	 0.5860601267	-2.6852962039	-2.3141605976	-0.338011
C	 0.8618840603	-2.7054248318	 0.0241976266	-0.237655
C	 0.921687189	-2.0353217821	 1.1877114252	 0.306718
C	 1.1707868609	-2.7264097477	 2.4968275285	-0.477463
C	 0.7525917332	-0.5353245171	 1.2393492877	-0.288777
H	 1.0080166334	 1.9739126344	-0.0339660197	 0.114141
H	-0.5797388692	 1.9603961625	-0.813904892	 0.118436
H	-0.462541039	 1.9535459103	 0.952009788	 0.112115
H	-1.0282726622	-0.3193282771	 0.0789389455	 0.083957
H	 0.0880870711	-0.1901812133	-2.1603544494	 0.117766
H	 1.6596469021	-0.1648294763	-1.3641707237	 0.115289
H	 0.9713935661	-3.7858248454	-0.010210765	 0.094872
H	 1.3348048102	-3.7987215111	 2.3687157729	 0.132447
H	 2.0475895399	-2.2985986054	 2.9998001344	 0.133809
H	 0.3237438023	-2.5820416137	 3.1794883209	 0.134412
H	 1.750014886	-0.0725732254	 1.3161883162	 0.114647
H	 0.2329967387	-0.257584455	 2.1654212536	 0.104862
104.7964	137.7828	153.3713	205.0675	241.5045	255.745	305.9607	405.4298	421.4992	432.5101	488.3996	521.2488	551.8373	633.3112	831.1155	848.3908	874.9205	887.591	926.9189	950.4012	975.7253	1027.8735	1045.5825	1072.7711	1109.284	1160.3994	1162.4179	1175.7265	1259.8852	1271.0539	1294.9099	1316.4783	1357.5743	1373.2562	1394.7763	1409.6354	1413.7523	1456.2046	1471.1818	1478.2085	1481.8754	1497.7911	1499.3932	1691.5848	1771.1918	2982.0083	2997.3164	3011.6013	3019.3479	3026.423	3040.4361	3067.112	3091.2822	3094.0443	3101.7332	3122.7126	3172.2011
CC1CC(=O)C=C(C)C1	C[C@H]1CC(=O)C=C(C)C1	
InChI=1S/C8H12O/c1-6-3-7(2)5-8(9)4-6/h4,7H,3,5H2,1-2H3	InChI=1S/C8H12O/c1-6-3-7(2)5-8(9)4-6/h4,7H,3,5H2,1-2H3/t7-/m1/s1
