19
gdb 108089	2.61184	1.48047	1.22032	2.3481	75.32	-0.2281	0.0668	0.2949	1110.541	0.158248	-422.958654	-422.95022	-422.949275	-422.991696	32.591	
C	 0.2329574892	 1.418715143	 0.146825324	-0.377538
C	-0.1281637601	-0.0238916282	-0.2314241259	-0.311392
C	 0.6625712712	-0.5341339068	-1.3897678945	 0.438795
O	 0.5170389725	 0.0829671184	-2.6721071866	-0.323358
C	 1.2721719483	-1.0254341086	-3.2280375767	-0.008118
C	 2.7102312948	-0.7852088739	-2.7026221803	-0.230542
C	 2.1325757449	-1.0829890902	-1.3215036691	-0.241694
C	 0.9746403887	-1.885237553	-1.9131927582	 0.250509
O	 0.4243623083	-3.1067636148	-1.6404019073	-0.452246
H	 1.2801190955	 1.4933899894	 0.4566434348	 0.116325
H	 0.0882336692	 2.0877974284	-0.7060215242	 0.136747
H	-0.3930362258	 1.7743514109	 0.9704364255	 0.11006
H	 0.0369072666	-0.6971701464	 0.6178987595	 0.109178
H	-1.1945749833	-0.0896756043	-0.4791632706	 0.115168
H	 1.0370085284	-1.2382121296	-4.2688070078	 0.087366
H	 3.4052206035	-1.563125894	-3.0316504183	 0.095658
H	 3.1240630803	 0.2079936565	-2.9005244629	 0.102855
H	 2.6389350287	-1.21893795	-0.3737152143	 0.09055
H	 1.1113230792	-3.7803782469	-1.7067143172	 0.291678
72.2411	120.6295	201.902	230.1415	287.6848	315.1063	362.4269	387.2275	491.8081	577.5843	594.0357	689.2255	734.1632	786.836	801.8122	851.4407	904.1866	933.1593	942.7669	949.4527	981.5424	1006.4143	1049.8214	1067.0577	1102.0966	1114.5011	1131.0186	1173.4738	1212.7608	1260.0527	1263.9833	1292.8588	1316.5608	1323.2756	1382.5369	1407.4289	1472.0203	1486.2146	1495.8056	1506.2888	1535.5705	3031.9067	3040.7888	3049.3989	3067.7903	3107.5449	3110.655	3119.5636	3145.6949	3195.5059	3778.9787
CCC12OC3CC1C23O	CC[C@@]12O[C@H]3C[C@@H]1[C@@]23O	
InChI=1S/C7H10O2/c1-2-6-4-3-5(9-6)7(4,6)8/h4-5,8H,2-3H2,1H3	InChI=1S/C7H10O2/c1-2-6-4-3-5(9-6)7(4,6)8/h4-5,8H,2-3H2,1H3/t4-,5-,6+,7-/m0/s1
