16
gdb 11787	4.19246	1.81716	1.6606	2.145	63.95	-0.2394	-0.0021	0.2373	822.3182	0.130895	-383.68395	-383.677148	-383.676204	-383.714897	26.808	
O	 0.0315747831	 1.4154302126	 0.1698158974	-0.41863
C	 0.060357136	 0.0110645215	-0.0146164341	-0.180196
C	-1.336180561	-0.5451667401	-0.069622536	 0.34997
C	-1.7386092652	-2.0512571348	 0.0278070735	-0.269755
C	-2.9988768852	-1.3206581075	 0.5806504247	 0.015894
O	-2.0898366758	-0.3403540307	 1.1865600269	-0.33176
C	-3.491279069	-0.56036633	-0.6664098872	-0.083573
C	-2.3538175253	-0.0245215951	-1.1097248913	-0.110963
H	-0.5579849369	 1.5808718677	 0.9153105774	 0.297373
H	 0.5785462969	-0.1770316212	-0.9614250477	 0.111911
H	 0.6234881409	-0.4938012283	 0.7850334019	 0.096752
H	-1.8284100314	-2.6300671622	-0.8931618486	 0.100608
H	-1.1841550895	-2.5859491727	 0.8033124019	 0.107281
H	-3.7097431658	-1.7683998275	 1.2732444721	 0.083879
H	-4.5003542077	-0.5094542884	-1.0477603929	 0.112056
H	-2.1395864341	 0.6097422766	-1.956703228	 0.119152
90.8907	160.4932	297.3581	384.8155	421.4965	481.4503	534.5998	607.3275	670.9131	706.8889	746.1455	822.1225	838.6798	887.2648	901.1107	909.1884	965.3402	1003.127	1024.074	1046.911	1058.1536	1089.0285	1137.5606	1199.6821	1231.8033	1238.183	1259.9762	1291.7393	1338.5128	1377.721	1440.4964	1486.2926	1496.3061	1619.3407	2991.5144	3062.8672	3071.4948	3136.6557	3139.4045	3234.0698	3261.881	3793.1849
OCC12CC(O1)C=C2	OC[C@@]12C[C@@H](O1)C=C2	
InChI=1S/C6H8O2/c7-4-6-2-1-5(3-6)8-6/h1-2,5,7H,3-4H2	InChI=1S/C6H8O2/c7-4-6-2-1-5(3-6)8-6/h1-2,5,7H,3-4H2/t5-,6+/m0/s1
