18
gdb 46740	2.75499	1.77841	1.38581	2.3962	74.1	-0.2173	-0.0257	0.1917	968.0398	0.149177	-401.921251	-401.914064	-401.91312	-401.953129	28.496	
O	-0.0151111057	 0.0557172668	 0.3649731903	-0.311425
C	-0.0650966811	 1.216142336	 0.0510071355	 0.397182
C	-1.3243893402	 1.9855723584	-0.3769359784	-0.342702
C	-0.8344178351	 3.370986637	-0.8586633502	-0.182809
N	 0.5989705216	 3.488002542	-0.5048076689	-0.101882
C	 0.982286719	 4.1550191461	 0.746213731	-0.007071
C	 0.3993642318	 3.5436988339	 1.9939523682	-0.307933
C	 1.5608625263	 2.8655456749	 1.3116371453	-0.075891
C	 1.1105878287	 2.1902574467	 0.0019484392	-0.104754
H	-1.8601983496	 1.4159652126	-1.1412464211	 0.134159
H	-1.9918560752	 2.046441912	 0.4904113215	 0.139555
H	-0.9445051092	 3.460534343	-1.9450271208	 0.110963
H	-1.396805081	 4.1929000819	-0.4062606188	 0.111895
H	 1.398665019	 5.155973868	 0.7252420442	 0.098817
H	 0.669374812	 4.061421966	 2.9095101286	 0.120866
H	-0.593408769	 3.1046745821	 2.0196267486	 0.113255
H	 2.5097565068	 2.6889118101	 1.7984891799	 0.102704
H	 1.9330528509	 1.7735518323	-0.5890374742	 0.105072
79.4503	123.706	214.5351	327.2023	443.1127	487.9669	562.8398	591.021	662.092	676.5109	744.9818	784.2329	809.0914	827.6902	906.105	932.6224	969.0717	976.1423	1002.5847	1031.4243	1055.1813	1062.7366	1072.0918	1084.2516	1145.8307	1162.486	1190.2691	1208.8286	1224.4219	1256.9805	1269.7892	1281.3063	1288.2636	1348.2351	1362.7363	1447.684	1490.4644	1507.7072	1845.2112	3034.7844	3047.3411	3050.9215	3081.7668	3101.6667	3122.9353	3169.0742	3202.1565	3213.8193
O=C1CCN2C3CC3C12	O=C1CCN2[C@H]3C[C@H]3[C@@H]12	
InChI=1S/C7H9NO/c9-6-1-2-8-5-3-4(5)7(6)8/h4-5,7H,1-3H2	InChI=1S/C7H9NO/c9-6-1-2-8-5-3-4(5)7(6)8/h4-5,7H,1-3H2/t4-,5+,7+/m1/s1
