21
gdb 119071	1.69356	1.3022	0.83922	2.5034	74.65	-0.2515	0.0588	0.3103	1414.2965	0.180138	-461.327204	-461.316474	-461.31553	-461.363562	38.684	
O	-2.6230841712	 0.6402066029	-2.4471820866	-0.419428
C	-2.4232437735	-0.6711429409	-1.939635875	-0.066297
C	-1.8386256425	-0.6583291507	-0.5216918405	-0.292982
C	-1.5543701223	-2.0401260971	 0.0482727016	 0.303593
C	-0.4436010956	-2.8309504139	-0.6255556772	-0.139785
O	 0.8474761379	-2.2744174445	-0.4234488166	-0.417835
C	-1.7038706925	-2.2337434145	 1.5476496649	-0.371903
C	-2.7102016936	-2.8339908441	 0.5985252702	 0.054392
O	-3.9845178355	-2.2648250494	 0.4798114704	-0.421981
H	-3.2964800051	 1.0613870476	-1.9034598998	 0.281237
H	-3.3547523883	-1.2546754466	-1.9439385738	 0.111228
H	-1.7344747524	-1.1496869375	-2.6440514213	 0.103104
H	-0.9216747749	-0.0540696602	-0.5192081545	 0.091612
H	-2.549197236	-0.1425729978	 0.1325265053	 0.096587
H	-0.3967922761	-3.8364012767	-0.1941546358	 0.103233
H	-0.6561789238	-2.9539294478	-1.6987450124	 0.095586
H	 0.8886081193	-1.4365599233	-0.8942466177	 0.287194
H	-1.0057747532	-2.8898023525	 2.0568782267	 0.117545
H	-2.0273035606	-1.3750744633	 2.1268629303	 0.110533
H	-2.6878762516	-3.9149616196	 0.4550337557	 0.084233
H	-4.4801161986	-2.4759755603	 1.2778139861	 0.290132
45.6116	78.8443	97.8458	150.4546	189.7446	241.9055	277.8897	280.2305	297.8748	313.4383	364.0113	400.7458	415.52	480.0503	614.2205	760.5058	777.4113	832.3002	902.5157	931.3887	971.8339	1003.2857	1028.705	1045.3134	1069.8147	1072.6908	1088.5811	1101.9147	1152.6423	1167.7479	1200.4952	1271.8372	1290.8492	1297.1431	1338.7782	1358.3547	1379.3101	1401.8923	1419.4835	1423.0267	1436.0648	1480.0814	1491.1426	1503.4004	1512.9024	2985.3949	3008.1851	3023.8632	3060.6881	3067.4335	3084.2004	3089.8158	3128.625	3216.8525	3806.9086	3814.6267	3825.1822
OCCC1(CO)CC1O	OCC[C@@]1(CO)C[C@H]1O	
InChI=1S/C6H12O3/c7-2-1-6(4-8)3-5(6)9/h5,7-9H,1-4H2	InChI=1S/C6H12O3/c7-2-1-6(4-8)3-5(6)9/h5,7-9H,1-4H2/t5-,6+/m1/s1
