19
gdb 103732	2.55085	1.2071	0.96053	1.3897	73.09	-0.2591	-0.0417	0.2173	1269.7683	0.154894	-460.154504	-460.144177	-460.143232	-460.190016	36.843	
C	-0.3298171788	 1.5413349168	 0.1194636491	-0.469559
C	-0.1226851009	 0.0404781563	 0.0855520672	 0.303231
C	-1.1853907841	-0.697553072	-0.7203201643	-0.12991
O	-1.1177011689	-0.3246223943	-2.0859934052	-0.411789
O	 1.2153978841	-0.4018520165	-0.1913842223	-0.324221
C	 0.6951912297	-0.6536764904	 1.1278202071	 0.214726
C	 1.3214787208	 0.0703774045	 2.2979258574	-0.475034
C	 0.4537107903	-2.1204773302	 1.3869843681	 0.105837
O	 0.2625631677	-2.5828238056	 2.4826912073	-0.24849
H	 0.5821794859	 2.0681603842	 0.3995632432	 0.134742
H	-0.6293792328	 1.8750355736	-0.8776537566	 0.149079
H	-1.1265180294	 1.807347193	 0.8220584375	 0.12883
H	-1.0943227464	-1.7836504713	-0.6033478471	 0.095206
H	-2.181725664	-0.4080646114	-0.3703953258	 0.12101
H	-0.2350170425	-0.5605405935	-2.3948574872	 0.295237
H	 1.3467553409	 1.1494709279	 2.1551798677	 0.12681
H	 0.7559307515	-0.1631773967	 3.2031892923	 0.151217
H	 2.3461638426	-0.2838081184	 2.4477197321	 0.138013
H	 0.5035584143	-2.7570478962	 0.4786953796	 0.095064
72.2074	82.691	113.8725	129.2646	161.1013	252.2932	276.517	311.9565	331.3109	355.7251	399.7496	433.3064	477.6509	518.6687	600.0198	720.2957	762.8582	864.419	898.1286	927.5509	1003.8953	1011.5926	1059.5688	1077.9207	1106.2526	1135.1568	1198.2856	1234.9409	1269.9802	1368.8552	1383.683	1402.4481	1408.8174	1421.7903	1442.2091	1475.9273	1486.6083	1488.6652	1498.9308	1512.7964	1820.2459	2912.1443	3035.1273	3048.6382	3057.9223	3085.705	3117.417	3123.6831	3149.6644	3166.5012	3795.7535
CC1(CO)OC1(C)C=O	C[C@@]1(CO)O[C@]1(C)C=O	
InChI=1S/C6H10O3/c1-5(3-7)6(2,4-8)9-5/h3,8H,4H2,1-2H3	InChI=1S/C6H10O3/c1-5(3-7)6(2,4-8)9-5/h3,8H,4H2,1-2H3/t5-,6+/m1/s1
