16
gdb 77265	2.20794	1.31622	1.0331	5.9581	70.8	-0.2901	-0.0144	0.2757	1192.532	0.122354	-437.903886	-437.894703	-437.893758	-437.938642	31.749	
C	-0.1093090403	 1.5679606064	 0.0781556349	-0.410679
C	-0.0293855604	 0.0595401252	 0.0232724114	-0.066712
C	 0.4210093387	-0.6485940997	-1.2101645416	 0.090456
O	 0.7605184628	 0.1578613799	-2.3033893684	-0.186036
C	 1.7218459432	-0.3142583013	-3.1461312577	 0.184264
O	 2.0130322665	 0.2557253572	-4.1486173673	-0.253351
C	 1.3226332248	-0.6648842094	 0.0275436932	-0.242002
C	 2.5437983118	 0.0852130976	 0.0218023853	 0.304892
N	 3.537187022	 0.6783848023	 0.0127666491	-0.33372
H	 0.6762001829	 2.0350452935	-0.5175014254	 0.161025
H	-1.0746092227	 1.9063979283	-0.3097209751	 0.135599
H	-0.0130343711	 1.9165280196	 1.1102742378	 0.135547
H	-0.794804135	-0.4618918954	 0.5903913655	 0.11591
H	-0.0477669846	-1.5901561163	-1.4827624171	 0.127598
H	 2.1727034081	-1.2589528733	-2.7924728622	 0.094808
H	 1.3830040534	-1.6046088348	 0.5664927775	 0.142402
59.253	113.1388	125.49	144.5097	164.2494	190.0678	274.5986	362.8208	395.3534	507.5256	597.0865	627.6093	706.7532	744.6632	794.6331	906.0176	959.8403	994.0498	1043.0424	1046.8125	1096.0416	1120.648	1145.0993	1151.5934	1184.0126	1252.479	1359.1898	1367.7906	1414.2768	1425.2749	1437.1227	1490.1496	1500.3488	1882.3815	2354.1042	2981.8312	3052.4428	3116.5667	3141.3746	3145.7609	3159.8665	3171.3766
CC1C(OC=O)C1C#N	C[C@H]1[C@@H](OC=O)[C@H]1C#N	
InChI=1S/C6H7NO2/c1-4-5(2-7)6(4)9-3-8/h3-6H,1H3	InChI=1S/C6H7NO2/c1-4-5(2-7)6(4)9-3-8/h3-6H,1H3/t4-,5+,6-/m1/s1
