16
gdb 117607	2.23621	1.17494	0.94138	5.8332	70.72	-0.2781	-0.0255	0.2526	1289.7178	0.123008	-434.062122	-434.052484	-434.051539	-434.09701	33.746	
C	 0.3016559217	 1.4411391211	-0.1227965207	-0.327071
N	 0.0578790569	 0.0099439066	 0.0603480083	-0.313067
C	 0.4740385471	-0.5149496478	 1.3495251867	-0.181936
C	 0.6543068061	-2.0599774933	 1.1851410452	 0.07235
O	 1.4173360156	-2.3229341317	 0.041482618	-0.420201
C	 1.3428767175	-2.6053720789	 2.3703046656	 0.30558
N	 1.8786749661	-2.9853118334	 3.3191180223	-0.314359
C	-0.6962033739	-2.681943439	 1.0732460366	 0.279859
N	-1.7639945903	-3.1006050044	 0.9359983945	-0.326047
H	 1.3775413542	 1.6352427233	-0.0758760938	 0.140859
H	-0.0523797059	 1.7395852671	-1.112620129	 0.139848
H	-0.193824694	 2.073664081	 0.629221866	 0.119813
H	-0.923856821	-0.1974202499	-0.0966880686	 0.248675
H	 1.4586910341	-0.1057677407	 1.5933441064	 0.144664
H	-0.2059341748	-0.3021815916	 2.186126656	 0.132902
H	 1.1688262806	-1.5956203483	-0.5635518836	 0.298132
70.0785	109.6657	127.2732	141.3956	189.8326	222.9639	268.9726	295.9387	364.6248	433.2027	498.7659	519.3916	578.2686	608.7367	650.3208	750.5372	827.4545	936.3008	966.1074	1020.8101	1067.1972	1122.4746	1150.7453	1178.0733	1214.8346	1298.7459	1366.9413	1434.1825	1462.0146	1483.6183	1493.6921	1503.8075	1518.5298	2355.1768	2374.7551	2992.1065	3012.2195	3080.9427	3097.6162	3123.5482	3517.3808	3564.8747
CNCC(O)(C#N)C#N	CNCC(O)(C#N)C#N	
InChI=1S/C5H7N3O/c1-8-4-5(9,2-6)3-7/h8-9H,4H2,1H3	InChI=1S/C5H7N3O/c1-8-4-5(9,2-6)3-7/h8-9H,4H2,1H3
