17
gdb 13333	5.20531	1.23862	1.15138	3.6774	71.	-0.2482	0.0152	0.2634	1055.9274	0.143605	-363.901718	-363.894115	-363.893171	-363.934893	27.74	
O	-0.1568178279	 0.1102603615	 0.5992581719	-0.325292
C	-0.0536052964	 1.2407038275	 0.1709466312	 0.151541
N	 1.0980255798	 1.8218222517	-0.2575241781	-0.276421
C	 2.389854251	 1.1477031622	-0.2587139542	 0.030155
C	 3.000127778	 1.1134763939	-1.6888737534	-0.263374
C	 3.9556217944	 2.2835050098	-1.6863698874	-0.065327
C	 4.1896585744	 2.7298218137	-0.4523111772	-0.06533
C	 3.4314437804	 1.9360226134	 0.5854440627	-0.263382
H	-0.9153881257	 1.9328647983	 0.0841127939	 0.070739
H	 1.0570554777	 2.7721257958	-0.5933254187	 0.24626
H	 2.1941603677	 0.1523487355	 0.1383819367	 0.120553
H	 3.5372150796	 0.1715418296	-1.8654216823	 0.116505
H	 2.2211163526	 1.1758011677	-2.4560535231	 0.108163
H	 4.4133687576	 2.6682214388	-2.5908051288	 0.095271
H	 4.8679705712	 3.5351601191	-0.1937274069	 0.095271
H	 2.9425283799	 2.5515737244	 1.3479193326	 0.10816
H	 4.1035537058	 1.2515884272	 1.1208791012	 0.116507
29.5998	80.3032	202.8029	223.4646	355.2063	379.4677	471.1405	552.1747	688.2546	708.4695	775.6642	789.0216	884.268	886.6502	948.4087	957.2888	978.5752	979.5746	1028.8002	1056.4304	1073.0454	1130.0645	1170.3535	1183.1592	1240.5806	1241.0727	1310.0863	1320.7285	1360.1114	1378.5856	1431.7828	1475.1018	1483.2194	1526.6579	1680.1047	1803.7436	2928.3621	3017.509	3017.8761	3068.2472	3069.0671	3133.7287	3185.3858	3210.4056	3620.8839
O=CNC1CC=CC1	O=CN[C@H]1CC=CC1	
InChI=1S/C6H9NO/c8-5-7-6-3-1-2-4-6/h1-2,5-6H,3-4H2,(H,7,8)	InChI=1S/C6H9NO/c8-5-7-6-3-1-2-4-6/h1-2,5-6H,3-4H2,(H,7,8)
