15
gdb 68703	2.09304	1.78259	1.18632	4.9197	73.2	-0.2833	-0.0092	0.2742	1052.0577	0.111851	-416.799504	-416.791397	-416.790452	-416.832179	30.16	
C	-0.1050555709	 1.4664511742	 0.0665541145	-0.483749
C	 0.0389550391	-0.0148196812	 0.0450692066	 0.403906
C	 1.1875956517	-0.8494458005	-0.3709941397	-0.357708
C	 0.6170143935	-1.0198024197	 1.0575347887	 0.000265
C	 1.3944995902	-0.8323168515	 2.2319450281	 0.217733
N	 2.0365193487	-0.6556960689	 3.1781571739	-0.346432
C	-0.7214693663	-1.6827567556	 0.9307358707	 0.404226
N	-1.288532506	-2.6271774133	 1.5168918016	-0.539043
O	-1.1723317698	-0.8127253904	-0.0609414794	-0.297311
H	 0.8547581266	 1.9356691551	 0.2972565361	 0.149523
H	-0.4369244073	 1.8268945102	-0.9127488241	 0.150864
H	-0.8385808677	 1.772774853	 0.8167046289	 0.153148
H	 1.0516964602	-1.6547809296	-1.0851408418	 0.147854
H	 2.1558541828	-0.3595337871	-0.3881549042	 0.154518
H	-2.2405708447	-2.7689705746	 1.1768550702	 0.242206
112.3676	144.2252	150.7961	192.7353	298.8614	340.2673	403.6634	457.2903	534.708	549.2704	619.3841	655.0102	675.9233	768.2494	823.7227	869.8293	919.8565	961.0658	969.1063	987.7386	1059.7103	1092.176	1111.0673	1177.47	1241.9398	1345.0779	1393.7279	1431.5847	1472.2012	1486.9197	1502.2306	1844.3379	2355.4538	3045.5078	3115.4424	3132.2972	3134.2207	3230.1326	3491.5255
CC12CC1(C#N)C(=N)O2	C[C@@]12C[C@]1(C#N)[C]([NH])O2	
InChI=1S/C6H6N2O/c1-5-2-6(5,3-7)4(8)9-5/h8H,2H2,1H3	InChI=1S/C6H6N2O/c1-5-2-6(5,3-7)4(8)9-5/h8H,2H2,1H3/t5-,6+/m1/s1
