19
gdb 74377	2.55731	1.25507	0.89391	3.2293	79.67	-0.2374	-0.0284	0.209	1307.2522	0.158035	-423.046494	-423.037488	-423.036544	-423.081194	32.717	
C	 0.1195692913	 1.4935560228	-0.1866425296	-0.476158
C	 0.048956882	-0.0035911539	-0.083178828	 0.299764
C	 0.0154538367	-0.8030050538	-1.1499322253	-0.178595
C	-0.1087205923	-2.303570753	-1.0450050065	 0.004061
O	-0.3761329955	-2.7621991279	 0.2626372949	-0.270775
C	 0.3784721763	-2.0880344929	 1.257903594	-0.083326
C	 0.0226464838	-0.6026881986	 1.3048215265	-0.294493
C	-1.2674748566	-2.7833917093	-1.9211173279	 0.134821
O	-1.2793946721	-2.6871397718	-3.1188076264	-0.248375
H	 1.0270676876	 1.8805231511	 0.2942584719	 0.124997
H	 0.1121228169	 1.8288003973	-1.2269315201	 0.126493
H	-0.7289531543	 1.9617446451	 0.3290398688	 0.127764
H	 0.0555132358	-0.4120574565	-2.1624427847	 0.107426
H	 0.8070084199	-2.7777323215	-1.4460973392	 0.101675
H	 0.1477722908	-2.5879727437	 2.202300373	 0.110953
H	 1.4560454396	-2.2087645927	 1.0632152565	 0.095412
H	 0.7309450354	-0.0756223595	 1.9577192613	 0.10403
H	-0.9700746456	-0.464302947	 1.7549195518	 0.117418
H	-2.1083502997	-3.2198712745	-1.3395266909	 0.096909
36.6287	86.0256	141.3347	193.3709	220.8475	280.9712	341.3402	408.0958	409.9578	458.8439	534.6592	571.1485	695.491	794.2982	848.7505	887.3955	894.2999	986.0391	995.4351	1033.2716	1040.7354	1061.8443	1088.5682	1112.3393	1163.6979	1185.5222	1238.8705	1270.2564	1294.539	1310.8226	1334.022	1378.8643	1388.6163	1413.9856	1418.3613	1468.8106	1479.6682	1489.0782	1502.3283	1739.3497	1839.4016	2904.0718	2924.9307	2981.225	3011.1758	3017.3833	3046.3093	3062.9207	3092.7157	3115.0664	3175.5318
CC1=CC(OCC1)C=O	CC1=C[C@@H](OCC1)C=O	
InChI=1S/C7H10O2/c1-6-2-3-9-7(4-6)5-8/h4-5,7H,2-3H2,1H3	InChI=1S/C7H10O2/c1-6-2-3-9-7(4-6)5-8/h4-5,7H,2-3H2,1H3/t7-/m1/s1
