18
gdb 19017	4.47204	1.91588	1.69245	1.3697	71.31	-0.2585	0.0796	0.3381	820.5405	0.156416	-347.764975	-347.758658	-347.757714	-347.795154	26.056	
O	-0.0389510428	 1.4305517589	 0.0018538799	-0.443752
C	 0.0202028303	 0.0099522498	 0.0174358954	 0.102523
C	 0.5458706598	-0.5919393164	 1.3555677209	-0.281922
C	-0.7181028782	-1.3038831735	 1.8308519985	 0.005692
C	-1.4002637889	-1.9863831299	 0.5989310362	-0.065612
C	-2.7835595698	-1.7194184432	 1.2382085061	-0.239584
C	-1.9664467862	-0.4285231321	 1.484580207	-0.043118
C	-1.4023541142	-0.5324377424	 0.0296071329	 0.007631
H	 0.8624679168	 1.766516352	 0.0151942574	 0.28065
H	 0.5898812209	-0.3564494988	-0.8496309987	 0.058642
H	 1.3859846899	-1.2803172645	 1.2134737796	 0.091424
H	 0.8661891513	 0.2042310098	 2.0358755848	 0.094765
H	-0.698510391	-1.8369738094	 2.7837868868	 0.058841
H	-1.0615595951	-2.8879245101	 0.0832614681	 0.062512
H	-3.6350250185	-1.6413528842	 0.5559434198	 0.088069
H	-3.0409365393	-2.31649518	 2.1182671037	 0.085919
H	-2.2848897005	 0.4838728704	 1.9898594212	 0.072922
H	-2.0487758845	-0.2846579163	-0.8137253996	 0.064397
132.3357	280.2551	287.2936	381.9172	459.3868	487.2996	666.9379	721.6461	774.2767	814.1307	859.9344	877.0162	887.5304	914.7383	951.3775	972.8793	992.8238	1008.0701	1037.463	1048.0456	1070.7627	1104.2641	1108.6125	1128.6629	1146.0152	1188.7068	1211.9027	1220.0288	1235.3633	1252.4182	1263.5285	1270.0185	1291.8773	1333.6307	1376.8714	1426.84	1485.1737	1519.6926	2984.2333	3039.3001	3043.2461	3081.2859	3084.5062	3094.3178	3102.1795	3104.6247	3114.7953	3820.6235
OC1CC2C3CC2C13	O[C@H]1C[C@@H]2[C@H]3C[C@@H]2[C@@H]13	
InChI=1S/C7H10O/c8-6-2-3-4-1-5(3)7(4)6/h3-8H,1-2H2	InChI=1S/C7H10O/c8-6-2-3-4-1-5(3)7(4)6/h3-8H,1-2H2/t3-,4-,5+,6-,7+/m0/s1
