18
gdb 12074	3.57462	1.65061	1.49333	1.8153	66.86	-0.2533	0.0611	0.3144	928.1532	0.15205	-384.899965	-384.891882	-384.890937	-384.932053	30.854	
C	-0.1508311517	 1.5252416123	-0.0442473845	-0.406663
C	 0.0951642609	 0.0126330538	-0.0494628316	-0.223738
C	 0.7531152691	-0.5079911201	 1.2243596317	 0.393533
O	 2.0599461972	 0.0021756012	 1.4169473461	-0.49155
C	-0.1031561342	-0.489809956	 2.5599721861	-0.318351
C	 0.054752268	-2.0128978689	 2.6171143739	 0.035752
O	-0.5007960615	-2.5384048711	 1.401199394	-0.250297
C	 0.8390247122	-2.0415358945	 1.3765570654	-0.005833
H	 0.7862061925	 2.0909085541	 0.0223701491	 0.106868
H	-0.6464668144	 1.8425341535	-0.9661214627	 0.122828
H	-0.7873634483	 1.8275835909	 0.794637322	 0.120718
H	-0.8513527381	-0.5213477501	-0.1788132289	 0.117744
H	 0.7375566688	-0.2538223357	-0.8979501465	 0.10034
H	 1.9995029825	 0.9591904344	 1.5031364536	 0.280987
H	 0.4413125398	 0.0293084829	 3.3519352397	 0.106532
H	-1.1337541645	-0.1298191909	 2.5052268465	 0.102791
H	 0.0703494681	-2.6726072389	 3.476491064	 0.104502
H	 1.6292185235	-2.6991084668	 1.0327393021	 0.103837
103.2792	157.8705	196.8128	247.3969	268.0955	304.7762	377.303	438.6879	451.2943	548.3328	644.4933	784.1946	794.4435	835.3902	866.9384	886.3888	941.8569	975.227	984.768	1000.6069	1023.2088	1048.6627	1095.0673	1124.2937	1175.6563	1218.8305	1227.6443	1245.493	1259.2898	1303.3782	1335.4081	1386.8821	1399.6102	1412.6862	1459.6423	1482.6321	1501.6715	1509.5138	3026.6779	3033.6718	3062.2585	3077.0683	3098.7749	3107.4959	3126.6909	3181.7806	3197.1638	3813.1229
CCC1(O)CC2OC12	CC[C@@]1(O)C[C@H]2O[C@@H]12	
InChI=1S/C6H10O2/c1-2-6(7)3-4-5(6)8-4/h4-5,7H,2-3H2,1H3	InChI=1S/C6H10O2/c1-2-6(7)3-4-5(6)8-4/h4-5,7H,2-3H2,1H3/t4-,5-,6-/m1/s1
