17
gdb 57697	3.17737	0.82303	0.75663	3.1	73.54	-0.316	-0.0008	0.3152	1494.6074	0.133769	-418.036264	-418.026313	-418.025368	-418.071577	35.221	
C	 0.1682622464	 1.5759801584	 0.0045423857	-0.40509
C	-0.0056962397	 0.0518351155	-0.0058411431	 0.185545
O	 0.6388725112	-0.4250629167	 1.1702184257	-0.437544
C	-1.4891055184	-0.3941566734	-0.0471939616	-0.210307
C	-2.2727574681	 0.0672393925	 1.1975072862	-0.360972
C	-3.5991337937	-0.5399442916	 1.2590266901	 0.257629
N	-4.6450378408	-1.0294891067	 1.2949845502	-0.296384
C	 0.6674147902	-0.5089101017	-1.2025690843	 0.251221
N	 1.1865760883	-0.9757145212	-2.1232924814	-0.32358
H	 1.2299228349	 1.8262866855	-0.0306739961	 0.154204
H	-0.3327920289	 2.0302930098	-0.8532507768	 0.140408
H	-0.2484344332	 1.9864420738	 0.9267985625	 0.14022
H	 0.6934445394	-1.3871972434	 1.128044841	 0.298971
H	-1.9610116449	-0.0154030336	-0.958619258	 0.142151
H	-1.5205034906	-1.4870315757	-0.1085425856	 0.134282
H	-1.7133811832	-0.2000841557	 2.0997373079	 0.169688
H	-2.3922509091	 1.1552617542	 1.2052049976	 0.159559
59.5645	92.2684	107.8932	185.8347	193.6281	239.3558	245.2211	339.298	355.9878	399.537	402.0572	448.7082	502.8236	590.5	610.7191	755.1986	771.4993	904.6649	944.7258	973.2317	985.3389	1037.4863	1100.7925	1159.0719	1183.3942	1223.0504	1288.2287	1311.9381	1372.5359	1390.1808	1415.8665	1470.6595	1481.8528	1489.2443	1500.4531	2354.075	2365.7393	3051.8431	3061.1083	3062.214	3091.5848	3110.7538	3142.3093	3147.1612	3798.2337
CC(O)(CCC#N)C#N	C[C@@](O)(CCC#N)C#N	
InChI=1S/C6H8N2O/c1-6(9,5-8)3-2-4-7/h9H,2-3H2,1H3	InChI=1S/C6H8N2O/c1-6(9,5-8)3-2-4-7/h9H,2-3H2,1H3/t6-/m1/s1
