18
gdb 94511	2.4177	1.44663	0.96144	3.42	80.94	-0.2398	-0.0413	0.1985	1216.9392	0.14793	-398.13488	-398.125777	-398.124833	-398.169278	32.653	
C	-0.5226605331	 1.2975682297	 0.1665919547	-0.40588
C	 0.0633556347	-0.0931391525	-0.0149572924	 0.053391
C	 1.0055261344	-0.3303870293	-1.2337400642	-0.263653
C	 2.092296445	-0.824603357	-0.2417140882	-0.163899
N	 1.2127655439	-0.4253966825	 0.8623447006	-0.080811
C	 1.2393080264	-0.9639920847	 2.1100636616	 0.249917
N	 2.2361390157	-1.6496092128	 2.537874339	-0.521483
C	 0.0595019311	-0.6815707513	 2.9169789398	 0.251498
N	-0.863849264	-0.4923282977	 3.5874735975	-0.342288
H	 0.2611721634	 2.0587649406	 0.1053569281	 0.122857
H	-1.2609258703	 1.4937112626	-0.6182620535	 0.124084
H	-1.0247688976	 1.3929204518	 1.1334572347	 0.147615
H	-0.7293720402	-0.8489148616	 0.0554617687	 0.096977
H	 0.6586823834	-1.0674411002	-1.9576394885	 0.119689
H	 1.2680523761	 0.591074804	-1.7563600544	 0.117734
H	 2.2828839934	-1.9032852883	-0.2539275794	 0.129429
H	 3.0524578603	-0.3016173269	-0.2544812676	 0.126695
H	 2.0999437574	-1.930018224	 3.5059822535	 0.238128
64.3982	94.913	119.7206	149.648	226.6228	256.8462	311.5562	341.0828	419.8816	508.6983	520.7508	669.8943	718.98	743.7845	798.4996	814.727	890.7546	944.8075	954.025	973.0102	1055.9541	1110.4616	1146.1549	1157.6306	1181.0576	1219.5566	1230.5114	1266.6858	1289.9717	1329.6429	1378.6971	1409.9615	1437.5596	1487.1213	1489.8497	1500.5165	1520.4685	1666.3663	2343.6784	3021.1532	3037.9707	3045.4094	3086.4784	3092.6082	3110.7517	3121.048	3146.23	3527.5441
CC1CCN1C(=N)C#N	C[C@H]1CCN1[C]([NH])C#N	
InChI=1S/C6H9N3/c1-5-2-3-9(5)6(8)4-7/h5,8H,2-3H2,1H3	InChI=1S/C6H9N3/c1-5-2-3-9(5)6(8)4-7/h5,8H,2-3H2,1H3/t5-/m0/s1
