17
gdb 105790	2.76996	1.3135	1.12929	2.4864	64.57	-0.2552	-0.046	0.2092	1113.2221	0.134673	-496.09326	-496.084544	-496.0836	-496.127317	31.182	
O	 0.2340257661	 1.4872571417	 0.1437636071	-0.421296
C	 0.1178579919	 0.0879784456	 0.1888205031	-0.103716
C	-1.3256502099	-0.4208305007	 0.0861173691	 0.241078
C	-1.3966287279	-1.9796216557	 0.0617529996	-0.174878
O	-2.4532538878	-2.2910451038	 0.9484559594	-0.228224
C	-2.4203625059	-1.2717191753	 1.9127274314	 0.01255
O	-2.1250073562	-0.0737220058	 1.2196479389	-0.28532
C	-2.0568625723	 0.1524846575	-1.1227303082	 0.13794
O	-1.5350062948	 0.8057725406	-1.9922844529	-0.26943
H	-0.0503013169	 1.7543781652	-0.7390237	 0.298874
H	 0.7074899056	-0.4030580178	-0.6036916565	 0.095553
H	 0.5266321159	-0.2373962394	 1.151497201	 0.113873
H	-1.6322073181	-2.3992534022	-0.919694016	 0.134548
H	-0.4396907029	-2.4018335774	 0.4056305313	 0.113464
H	-3.402985205	-1.1878064108	 2.3833102845	 0.131177
H	-1.6449076724	-1.4729510611	 2.6726575252	 0.094652
H	-3.1420312794	-0.0839758906	-1.1359332667	 0.109155
58.7942	92.6992	131.4284	204.8213	236.0369	289.8657	323.786	394.322	415.1281	486.3477	529.3059	737.2378	746.4393	806.7194	894.8495	917.205	973.0507	987.3228	1036.034	1085.9078	1108.2075	1118.5882	1131.5069	1180.172	1204.9029	1221.3471	1255.6444	1305.6016	1355.982	1383.2848	1412.0359	1425.4723	1438.9278	1480.4192	1506.3027	1542.2816	1816.699	2917.8494	2949.8652	2966.7618	2988.8674	3072.2431	3094.9021	3103.612	3786.0266
OCC1(COCO1)C=O	OC[C@]1(COCO1)C=O	
InChI=1S/C5H8O4/c6-1-5(2-7)3-8-4-9-5/h1,7H,2-4H2	InChI=1S/C5H8O4/c6-1-5(2-7)3-8-4-9-5/h1,7H,2-4H2/t5-/m0/s1
