21
gdb 77977	2.4227	1.51086	1.26588	1.8422	83.29	-0.228	0.0067	0.2347	1121.9938	0.182263	-387.088023	-387.078989	-387.078045	-387.120933	35.429	
C	-0.1437328754	 1.5954985839	 0.0977933799	-0.442536
C	 0.0546533292	 0.0933557759	 0.0854037825	-0.041344
C	 1.3561187275	-0.6354012823	-0.2030231488	-0.142378
C	 2.7022624913	 0.0882614482	-0.0750607988	 0.08432
O	 2.9325925729	 1.1499917628	-0.9956915778	-0.438245
C	 2.7307583324	 0.5095259472	 1.3869987693	-0.129988
C	 1.6711902916	 0.0556337034	 2.05642514	-0.137653
C	 0.7309447983	-0.7208589791	 1.1808122799	 0.290959
C	 0.0716676135	-1.9615355667	 1.7374390611	-0.484929
H	 0.6452898651	 2.1164374906	 0.6465851906	 0.120648
H	-0.1812728288	 1.9953294158	-0.9224151404	 0.119935
H	-1.0937891614	 1.8527243959	 0.5793831006	 0.117332
H	-0.7988534813	-0.4287075414	-0.3448420579	 0.083724
H	 1.3052019061	-1.4771567383	-0.8847614514	 0.080709
H	 3.517836781	-0.6158319088	-0.2846814723	 0.092438
H	 2.2349690303	 1.8006046956	-0.8690569913	 0.282342
H	 3.5261806221	 1.1311735163	 1.7827129497	 0.098935
H	 1.4676362006	 0.2264030896	 3.109153153	 0.093632
H	-0.5934600189	-1.7161890569	 2.5743095206	 0.116248
H	-0.5303499794	-2.4643776172	 0.9742794092	 0.116167
H	 0.8154749134	-2.6777076647	 2.1049070125	 0.119683
136.5919	184.9184	192.964	216.9421	235.8767	276.4552	284.0451	311.9125	371.7713	461.6601	531.3913	559.0251	643.0125	711.1547	738.9312	772.312	844.2859	856.5861	921.2224	945.1756	965.2813	978.976	1022.2652	1033.669	1075.3658	1093.4406	1103.1849	1119.9492	1129.576	1170.0565	1241.6928	1260.5302	1278.9202	1310.4323	1346.1877	1374.397	1407.9551	1417.4714	1429.6367	1446.0159	1488.3841	1499.7518	1504.0191	1510.53	1672.7907	3021.1683	3023.0307	3026.6606	3079.5872	3080.1778	3099.7498	3103.8875	3120.4606	3167.1048	3172.1553	3204.7997	3828.9303
CC1C2C(O)C=CC12C	C[C@H]1[C@H]2[C@@H](O)C=C[C@@]12C	
InChI=1S/C8H12O/c1-5-7-6(9)3-4-8(5,7)2/h3-7,9H,1-2H3	InChI=1S/C8H12O/c1-5-7-6(9)3-4-8(5,7)2/h3-7,9H,1-2H3/t5-,6-,7-,8-/m0/s1
