24
gdb 123177	7.68011	0.42578	0.4171	2.1221	87.79	-0.23	0.0803	0.3104	2614.9203	0.216186	-405.512945	-405.50204	-405.501096	-405.550489	38.463	
O	-0.1428604759	 1.4637337199	-0.2055004192	-0.421539
C	-0.0087609991	 0.0654321904	 0.0028935324	-0.073723
C	-1.3959566143	-0.5580392555	-0.072725012	-0.16414
C	-1.3837950823	-2.0754047169	 0.1338550948	-0.185789
C	-2.7801452564	-2.7008260816	 0.0545130695	-0.177326
C	-2.7687675136	-4.2147393763	 0.2641427105	-0.142856
N	-4.121157118	-4.7613704562	 0.2181205255	-0.058385
C	-4.6087922938	-5.1652144658	-1.0965399806	-0.218551
C	-4.2349328739	-6.1840850252	-0.0770692274	-0.22072
H	 0.7309423423	 1.8611377445	-0.1513269067	 0.284249
H	 0.6454426083	-0.389688044	-0.7595264482	 0.081288
H	 0.4424515208	-0.149479913	 0.9858990456	 0.082149
H	-2.0332850248	-0.0797339057	 0.6810664051	 0.105643
H	-1.8328033421	-0.3134027712	-1.0488777109	 0.103953
H	-0.7312665236	-2.5420746044	-0.6175879411	 0.091907
H	-0.935865112	-2.308905145	 1.1100427041	 0.093706
H	-3.4384873258	-2.2485152369	 0.8057091389	 0.108098
H	-3.2281768819	-2.4768091892	-0.9225268823	 0.09661
H	-2.1077887351	-4.6908770249	-0.4858271489	 0.07297
H	-2.3486737243	-4.4504924392	 1.2503798969	 0.099807
H	-5.6519499261	-4.9467120582	-1.3062432124	 0.115521
H	-3.938319538	-5.0478310351	-1.947332823	 0.106046
H	-3.3176168848	-6.7451228418	-0.2513019235	 0.106084
H	-4.9998716655	-6.7236579685	 0.4743116327	 0.114997
45.0709	58.5452	80.545	107.0983	132.7162	158.8146	202.4089	261.5606	264.2096	345.5329	390.1668	488.0086	496.4243	741.1556	770.9938	775.7378	835.2865	861.8061	901.1003	979.1891	990.5784	1015.3432	1028.9958	1048.976	1063.6294	1076.8658	1097.669	1113.4473	1117.0795	1154.4395	1175.2302	1194.7868	1223.9544	1228.401	1275.7454	1282.1652	1311.5907	1320.3193	1326.5855	1328.5613	1337.5529	1394.0876	1409.6665	1462.4808	1484.8498	1487.674	1492.6738	1498.8267	1511.0379	1524.6186	1529.4535	2914.7445	2954.7289	2979.0768	3002.131	3021.0507	3028.5779	3031.4438	3037.5259	3067.2105	3078.9324	3089.539	3094.588	3173.2275	3187.576	3830.8636
OCCCCCN1CC1	OCCCCCN1CC1	
InChI=1S/C7H15NO/c9-7-3-1-2-4-8-5-6-8/h9H,1-7H2	InChI=1S/C7H15NO/c9-7-3-1-2-4-8-5-6-8/h9H,1-7H2
