15
gdb 50657	3.05433	1.22954	0.92047	3.9563	62.93	-0.2701	-0.0516	0.2185	1195.0978	0.1115	-494.934342	-494.926189	-494.925245	-494.968384	28.664	
O	-0.6848289499	 0.7605173181	 0.5683573285	-0.222726
C	 0.1111444192	 1.0406044365	-0.2822294708	 0.162895
C	 1.4214694991	 1.7808372165	 0.0028478275	 0.12105
O	 2.4566187615	 0.961080672	-0.4106073006	-0.239737
C	 3.70981553	 1.6299527868	-0.2889584914	-0.104616
C	 3.7283046001	 2.802256097	-1.2662297632	-0.337014
C	 2.4457400259	 3.6201982144	-1.2431719911	 0.409775
O	 2.3540908775	 4.7244841944	-1.6936997791	-0.303647
O	 1.3336680346	 3.0125982387	-0.7337789212	-0.250321
H	-0.0254623469	 0.7923115979	-1.3552185291	 0.105676
H	 1.4917734286	 2.0307935753	 1.0716365098	 0.105337
H	 3.8497179089	 1.970512647	 0.7476252299	 0.116915
H	 4.4844083108	 0.8956005796	-0.5168921818	 0.132844
H	 4.5651798353	 3.4814354811	-1.0881058662	 0.147195
H	 3.8295536753	 2.4254835247	-2.2906091012	 0.156374
56.274	73.1628	95.6749	251.7393	257.8255	387.046	428.1481	455.4585	487.8398	523.0893	612.2967	745.8919	790.0891	888.2259	939.9475	993.0664	1025.0489	1059.9164	1073.4631	1106.7337	1121.4242	1226.1827	1255.3204	1277.9638	1333.3264	1347.5101	1383.9002	1406.5393	1417.7855	1451.74	1510.524	1858.9277	1865.1511	2928.9257	3003.9193	3012.7164	3055.9504	3114.7894	3119.4858
O=CC1OCCC(=O)O1	O=C[C@H]1OCCC(=O)O1	
InChI=1S/C5H6O4/c6-3-5-8-2-1-4(7)9-5/h3,5H,1-2H2	InChI=1S/C5H6O4/c6-3-5-8-2-1-4(7)9-5/h3,5H,1-2H2/t5-/m0/s1
