18
gdb 111963	3.24636	1.20604	0.93774	5.3084	75.6	-0.231	-0.0121	0.2189	1246.1169	0.148684	-435.284144	-435.275172	-435.274228	-435.318296	32.237	
C	-0.0248732625	 1.4338109898	-0.0243891596	-0.357599
N	 0.004575315	-0.0084152796	 0.0128450797	-0.085702
C	 0.0107542994	-0.8755272983	-1.0711605021	 0.058474
N	 0.0533321409	-2.1225110922	-0.8038768398	-0.288582
C	 0.1006358622	-2.2147164706	 0.6682665822	-0.076676
C	 1.3556904308	-2.9916268535	 1.0939430072	-0.046394
O	 1.3514670657	-4.28972575	 0.5473560659	-0.422789
C	 0.0721268546	-0.7801260685	 1.1788052824	 0.357505
N	 0.116890568	-0.4126673659	 2.3943603635	-0.556741
H	 0.8787483412	 1.8606015026	 0.4271013839	 0.145003
H	-0.0828123103	 1.7664066185	-1.0625792005	 0.145799
H	-0.897380989	 1.8234883354	 0.5129189698	 0.146047
H	-0.019184901	-0.4609064495	-2.0749202903	 0.134407
H	-0.7764147583	-2.7684378786	 1.0220781692	 0.125818
H	 2.2477380304	-2.420014813	 0.7899570044	 0.083494
H	 1.3714130949	-3.0836318615	 2.1832622895	 0.131004
H	 1.167346971	-4.1819934274	-0.3943178618	 0.294941
H	 0.096632017	 0.6031926523	 2.4937938863	 0.211991
75.9755	111.2756	121.2964	147.4192	192.8196	283.3107	296.3767	359.5504	464.6106	497.8231	604.1799	615.1295	702.0188	738.1272	846.7797	849.6551	913.4751	944.9631	1002.7285	1053.7734	1067.0679	1087.5951	1102.084	1153.3055	1210.7551	1239.8607	1250.9962	1297.1552	1314.667	1319.6084	1382.7065	1415.7623	1430.3111	1464.4448	1477.8778	1506.1838	1521.9391	1679.8691	1745.6142	2972.0926	3021.038	3053.7697	3073.7464	3099.5579	3132.5134	3180.5004	3464.0604	3778.4088
CN1C=NC(CO)C1=N	CN1C=N[C@@H](CO)[C]1[NH]	
InChI=1S/C5H9N3O/c1-8-3-7-4(2-9)5(8)6/h3-4,6,9H,2H2,1H3	InChI=1S/C5H9N3O/c1-8-3-7-4(2-9)5(8)6/h3-4,6,9H,2H2,1H3/t4-/m0/s1
