18
gdb 43079	2.63168	2.03366	1.72698	2.357	73.58	-0.2218	-0.0189	0.203	873.0258	0.151835	-401.957647	-401.951408	-401.950464	-401.988024	26.39	
O	-0.0241234961	 0.0150693211	-0.0021713786	-0.335377
C	-0.0261396322	 1.217154297	 0.0029507156	 0.420958
C	-1.2544779836	 2.1503857966	-0.0075524629	-0.106358
C	-1.5238718455	 2.6291504465	 1.4387792445	-0.241835
C	-0.3852512525	 3.6317475306	 1.1614292368	 0.011734
C	 1.0153291932	 2.9877778431	 1.3453919976	-0.250341
C	 1.161852371	 2.1854048236	 0.0224406243	-0.136697
C	 0.6238846026	 3.2332508922	-0.9742895611	-0.190489
N	-0.6787603963	 3.5056601149	-0.3268549044	-0.111252
H	-2.0741420828	 1.7935473372	-0.6338609601	 0.092652
H	-2.4972445242	 3.1150156356	 1.5253813351	 0.119688
H	-1.3919754435	 1.9081748605	 2.2480392297	 0.113726
H	-0.4647381429	 4.6414845533	 1.5673833365	 0.07798
H	 1.7998396548	 3.7490507349	 1.4023450211	 0.110043
H	 1.0812145871	 2.367666537	 2.2432967167	 0.114848
H	 2.1291643705	 1.7196788691	-0.1561231888	 0.084749
H	 1.2320021817	 4.1412165346	-1.0281078725	 0.110174
H	 0.4710991089	 2.8482264021	-1.9876191295	 0.115798
146.3973	269.3038	386.4578	424.0538	460.7236	539.1022	609.2048	704.7687	736.3436	763.0041	790.0842	841.6016	886.6197	900.5792	910.7345	933.4908	962.2939	969.822	1002.2917	1043.0125	1057.8606	1067.5703	1104.8536	1132.1996	1164.2011	1181.8791	1199.6715	1220.9453	1245.4806	1258.1153	1278.118	1291.053	1305.7735	1325.8103	1345.4228	1481.6614	1493.5624	1507.3026	1860.5034	3049.4973	3051.6408	3073.0363	3093.4024	3098.797	3100.9959	3104.1032	3133.0937	3141.536
O=C1C2CC3CC1CN23	O=C1[C@H]2C[C@H]3C[C@@H]1CN23	
InChI=1S/C7H9NO/c9-7-4-1-5-2-6(7)8(5)3-4/h4-6H,1-3H2	InChI=1S/C7H9NO/c9-7-4-1-5-2-6(7)8(5)3-4/h4-6H,1-3H2/t4-,5-,6-/m1/s1
