25
gdb 115278	2.63733	1.09068	0.96688	1.2872	89.12	-0.237	0.0801	0.3171	1424.39	0.227842	-389.524318	-389.513992	-389.513048	-389.559752	39.326	
C	-0.0299414384	 1.5634530093	 0.0989688058	-0.380961
C	 0.0038478117	 0.0353610616	 0.011476827	-0.183921
C	-1.3829349777	-0.5972119295	 0.0339401682	 0.162579
C	-1.4161161637	-2.1269697949	-0.0345024341	-0.241117
C	-2.7710757606	-2.4384338932	 0.6119943796	-0.27415
C	-2.9210469195	-1.3298731004	 1.6851234418	 0.409615
C	-4.3412391966	-0.7632105022	 1.7513534841	-0.419973
C	-2.4545892897	-1.7992551444	 3.06797915	-0.410115
O	-2.0275679309	-0.2741900161	 1.2665742156	-0.319958
H	 0.9808875454	 1.9826090291	 0.1000403879	 0.106153
H	-0.5696310447	 1.9957633365	-0.7512474803	 0.108936
H	-0.5364138001	 1.8823969342	 1.0135114658	 0.134695
H	 0.5099292771	-0.278651796	-0.910613838	 0.089789
H	 0.5807309271	-0.3755816504	 0.849302557	 0.095334
H	-1.9744927629	-0.1847991651	-0.8042898734	 0.054364
H	-1.3238720395	-2.509147698	-1.0544957528	 0.097032
H	-0.592714215	-2.5429767966	 0.557714323	 0.100215
H	-3.5718195536	-2.3549493472	-0.1308373657	 0.09671
H	-2.8268160902	-3.4402139772	 1.0453991042	 0.099678
H	-5.0600771245	-1.5397170326	 2.0349129517	 0.108533
H	-4.3998015792	 0.0435492058	 2.4882614368	 0.117814
H	-4.6376010842	-0.3589663979	 0.7788166451	 0.112233
H	-1.4612415937	-2.2547995588	 3.0102012513	 0.10939
H	-2.3956066192	-0.9479165346	 3.7523586228	 0.120191
H	-3.1481708373	-2.5346549718	 3.4893828765	 0.106934
36.9411	93.8288	138.4722	186.7737	228.7763	246.0459	262.2461	316.2829	337.744	373.5622	413.8626	441.8461	476.9093	572.6981	597.0452	760.8485	770.0327	848.6403	888.0648	901.4299	923.7931	953.7309	965.7361	980.7885	1006.088	1017.7595	1042.8695	1070.454	1116.7925	1145.5367	1161.3914	1191.7919	1232.5808	1252.3223	1270.4846	1295.5804	1312.3185	1340.5761	1350.2819	1375.2154	1397.551	1406.3174	1412.4234	1416.7907	1473.4802	1475.7887	1482.1248	1489.63	1496.5336	1496.9285	1499.822	1506.9435	1509.0268	2925.1303	3020.6712	3030.4582	3034.985	3035.166	3040.3846	3046.1972	3060.0151	3095.1035	3099.2873	3101.7671	3103.2818	3106.9855	3112.1048	3114.7331	3123.2846
CCC1CCC(C)(C)O1	CC[C@H]1CCC(C)(C)O1	
InChI=1S/C8H16O/c1-4-7-5-6-8(2,3)9-7/h7H,4-6H2,1-3H3	InChI=1S/C8H16O/c1-4-7-5-6-8(2,3)9-7/h7H,4-6H2,1-3H3/t7-/m0/s1
