25
gdb 57378	2.62437	1.28204	1.28204	0.1385	92.24	-0.2786	0.0756	0.3542	1211.437	0.228369	-352.321662	-352.312099	-352.311155	-352.355561	38.229	
C	-0.0080894792	 1.5291141277	-0.0062905647	-0.410674
C	 0.0115387778	-0.0109406744	-0.0149636226	 0.11306
C	 0.7565221442	-0.5216103921	 1.232646895	-0.410737
C	-1.4339946078	-0.5424305431	-0.0027141512	-0.410735
C	 0.7237375152	-0.5031523022	-1.2695307749	 0.412236
C	 0.3283538648	-0.2320619856	-2.760985534	-0.271751
C	 1.6053998802	-1.1122944573	-2.8235381043	-0.049822
C	 2.200686773	-0.2160160556	-1.7048345903	-0.271622
C	 0.9807134128	-1.9861013632	-1.7031701	-0.271741
H	 1.0065522634	 1.9405813119	-0.0109115962	 0.111463
H	-0.5360392379	 1.9252553154	-0.8798617447	 0.111477
H	-0.516054043	 1.9035769352	 0.8891256722	 0.106392
H	 0.2602668868	-0.1773607674	 2.146579863	 0.106383
H	 0.7841103188	-1.6158221039	 1.2601921943	 0.11147
H	 1.7890038789	-0.1579806539	 1.2566622312	 0.111471
H	-1.9941487271	-0.1928847246	-0.8761208614	 0.111467
H	-1.4558740324	-1.6371100271	-0.0047202746	 0.11147
H	-1.9637278323	-0.1996132997	 0.8927922608	 0.106411
H	-0.5999072052	-0.6900900785	-3.1149519182	 0.086041
H	 0.4255762798	 0.7979858177	-3.1163572856	 0.086058
H	 2.114741152	-1.4642424123	-3.7211925668	 0.067614
H	 2.4411672215	 0.8152510029	-1.979481896	 0.086029
H	 2.9899099331	-0.658866016	-1.0901522179	 0.086002
H	 1.6761397006	-2.5652358727	-1.088579385	 0.086011
H	 0.1022981019	-2.5782823912	-1.976141808	 0.086027
44.0736	190.5727	192.3638	209.9813	261.5453	269.453	318.8634	329.5201	332.5734	437.0388	439.2799	552.5606	554.924	571.2359	800.5351	804.2912	812.6477	879.5622	936.5048	937.4413	946.041	948.9131	955.772	958.192	960.7258	1000.2188	1040.6973	1042.9021	1097.6602	1099.0576	1142.2915	1144.5397	1156.3354	1158.3057	1177.4113	1230.1258	1231.4035	1252.0802	1252.9987	1254.7901	1339.9461	1396.6203	1397.2102	1429.5277	1479.6978	1484.9523	1486.6006	1497.2035	1500.3081	1503.5009	1504.4505	1520.2835	1554.5228	3025.5112	3025.9061	3033.1969	3039.154	3039.6306	3048.6385	3092.4256	3092.5612	3096.5514	3099.8005	3102.2313	3102.3665	3102.8608	3105.427	3107.8944	3108.09
CC(C)(C)C12CC(C1)C2	CC(C)(C)[C@@]12C[C@@H](C1)C2	
InChI=1S/C9H16/c1-8(2,3)9-4-7(5-9)6-9/h7H,4-6H2,1-3H3	InChI=1S/C9H16/c1-8(2,3)9-4-7(5-9)6-9/h7H,4-6H2,1-3H3/t7-,9-
