15
gdb 28360	3.17504	1.44507	0.99924	3.0234	75.67	-0.2143	-0.0479	0.1663	1127.332	0.113067	-453.984941	-453.977082	-453.976138	-454.017386	29.625	
C	 0.0430152454	 1.5044055208	-0.0052415269	-0.473955
C	-0.0843502287	 0.0218370873	 0.0607748893	 0.357568
C	-1.1526235482	-0.7242098711	-0.2619433794	-0.15689
N	-1.1559160508	-2.1080434938	-0.1599987788	-0.351143
C	-0.0846264722	-2.6748856156	 0.261604788	 0.377116
O	-0.0130743584	-4.0044461619	 0.3858998561	-0.376039
C	 1.1465125767	-1.954205517	 0.6439629238	 0.318284
N	 2.1932248477	-2.5330582225	 1.0572272434	-0.506039
O	 1.0608336486	-0.5858391097	 0.5117557693	-0.264882
H	 0.8579635644	 1.7978769001	-0.6765532372	 0.143949
H	-0.8859640892	 1.9480487321	-0.3683845017	 0.139676
H	 0.2689372401	 1.9223292806	 0.9822425086	 0.143946
H	-2.063506016	-0.2618137492	-0.6192707505	 0.116389
H	-0.8756983929	-4.3451821633	 0.1057421033	 0.30398
H	 2.9227347833	-1.8488009467	 1.2645145028	 0.228041
92.6552	148.9167	174.5943	286.7274	334.6516	365.3956	419.0518	490.3096	514.7962	563.6069	589.3716	604.8757	704.1514	782.7116	789.1302	855.4778	878.1719	970.3215	1002.7604	1065.3909	1090.5681	1145.0068	1218.831	1261.5822	1300.7019	1368.716	1415.9774	1462.2254	1467.2488	1487.486	1646.7146	1690.0792	1743.9637	3033.2071	3085.8683	3136.6142	3213.5777	3478.1172	3751.1847
CC1=CN=C(O)C(=N)O1	CC1=C[N]C(=C([NH])O1)O	
InChI=1S/C5H6N2O2/c1-3-2-7-5(8)4(6)9-3/h2,6H,1H3,(H,7,8)	InChI=1S/C5H6N2O2/c1-3-2-7-5(8)4(6)9-3/h2,6H,1H3,(H,7,8)
