17
gdb 65680	4.14551	1.01168	0.95189	3.3229	69.22	-0.2509	-0.0018	0.2491	1243.4913	0.133811	-458.930411	-458.921957	-458.921013	-458.963669	31.069	
C	 0.0120306973	 1.6006615516	 0.0398125969	-0.475082
C	 0.0167260512	 0.0975288196	-0.0616616413	 0.379521
O	-1.0379774936	-0.5422890337	 0.6507520846	-0.233853
C	-2.2610352466	-0.5418755967	 0.0728379342	 0.162313
O	-3.2207456722	-1.0049541459	 0.6093597031	-0.268642
C	 0.4701542147	-0.7250523255	-1.264138576	-0.201804
C	 1.731287622	-0.1117137122	-1.8580556665	-0.102594
O	 2.3725437094	-0.0687152784	-0.5499638445	-0.28563
C	 1.2583554124	-0.7385677334	 0.0324683365	 0.04183
H	 0.9786350666	 2.0005568128	-0.2724408237	 0.150927
H	-0.7723743815	 2.0536335737	-0.5754701895	 0.122532
H	-0.1557318946	 1.8923316129	 1.0808989959	 0.141756
H	-2.2624445303	-0.0787124074	-0.9310098854	 0.086636
H	-0.1510225786	-1.4842073957	-1.7193011162	 0.116104
H	 2.2712864419	-0.7945593557	-2.5221781295	 0.124712
H	 1.6585524723	 0.8779428234	-2.3220438234	 0.114147
H	 1.4296577894	-1.4896285994	 0.7943425046	 0.127128
86.4547	145.5173	160.1641	190.3439	247.8392	257.7417	374.4023	401.9081	407.8828	498.8551	641.0585	723.1773	767.6283	861.3432	915.3849	945.893	966.9328	991.0671	1006.8675	1031.0641	1050.3519	1075.8201	1094.9551	1133.9952	1158.9961	1169.761	1185.0576	1239.343	1271.5244	1332.5817	1411.1969	1415.9803	1425.4133	1486.676	1495.5696	1519.0212	1868.8332	2970.8009	3035.1543	3042.1963	3085.4482	3107.37	3139.5601	3189.8667	3209.2873
CC1(OC=O)C2COC12	C[C@@]1(OC=O)[C@H]2CO[C@@H]12	
InChI=1S/C6H8O3/c1-6(9-3-7)4-2-8-5(4)6/h3-5H,2H2,1H3	InChI=1S/C6H8O3/c1-6(9-3-7)4-2-8-5(4)6/h3-5H,2H2,1H3/t4-,5+,6+/m0/s1
