22
gdb 121500	3.27266	0.72491	0.63429	2.9546	86.75	-0.2403	0.0323	0.2726	1840.0206	0.192715	-404.330203	-404.319953	-404.319009	-404.36688	36.586	
C	 0.1529458299	 0.9814863697	-1.3974696716	-0.374541
C	-0.1477429461	-0.1496912981	-0.4224526863	-0.068926
O	 0.932860294	-1.0789834369	-0.3381796362	-0.20275
C	 0.9272077976	-2.0917942807	-1.2329616787	 0.132747
N	 1.9141922575	-2.8658096653	-1.3146463239	-0.241821
C	 1.894414384	-3.9832262833	-2.2458301371	-0.146423
C	 0.6500084403	-4.2205255231	-3.0796495013	 0.010103
C	 0.4333195266	-3.4604916425	-4.3673997202	-0.254126
C	 0.7774364801	-4.9277877197	-4.4045007699	-0.285162
H	 1.0822891492	 1.4865033267	-1.1202547985	 0.137354
H	 0.2609083377	 0.6026381406	-2.4186658517	 0.124711
H	-0.6590505682	 1.7159282488	-1.3889733758	 0.118685
H	-0.2791740813	 0.2363994928	 0.5921965866	 0.120167
H	-1.0726499895	-0.6733724009	-0.7013859793	 0.103388
H	 0.0057480452	-2.1569428212	-1.8261821443	 0.078757
H	 2.7537235699	-3.8586897821	-2.9205092601	 0.103476
H	 2.1160854715	-4.8888246529	-1.6641829239	 0.110974
H	-0.2446924881	-4.4536655203	-2.5070687632	 0.084274
H	-0.5749963878	-3.1615715058	-4.6333735528	 0.10809
H	 1.1998529199	-2.753808488	-4.6691710333	 0.115702
H	 1.7730375393	-5.2075778663	-4.7343140604	 0.113685
H	 0.0032468384	-5.6314222215	-4.6893875682	 0.111635
39.3812	58.1367	88.2369	125.8404	170.9079	214.0628	266.1923	281.1769	341.1968	384.9648	398.3582	508.0091	616.0478	775.7926	800.4252	809.8694	839.8289	902.1137	905.1127	946.2421	983.0059	1019.1689	1042.0089	1057.186	1074.4027	1081.0672	1113.2142	1145.6192	1168.1826	1172.8618	1199.8017	1224.5554	1243.357	1293.6002	1335.8549	1349.9587	1394.6529	1406.7159	1414.1668	1425.5328	1469.17	1480.3565	1485.1714	1493.0066	1506.2991	1513.0419	1774.3369	3002.4987	3011.8177	3025.7444	3033.1373	3040.1695	3086.9772	3113.2466	3124.78	3126.2656	3130.2716	3134.6106	3204.3796	3219.9635
CCOC=NCC1CC1	CCOC=NCC1CC1	
InChI=1S/C7H13NO/c1-2-9-6-8-5-7-3-4-7/h6-7H,2-5H2,1H3	InChI=1S/C7H13NO/c1-2-9-6-8-5-7-3-4-7/h6-7H,2-5H2,1H3
