19
gdb 62781	2.82758	1.30472	1.10354	1.4943	81.33	-0.2433	0.0456	0.2889	1160.1794	0.157092	-385.821001	-385.812019	-385.811075	-385.854048	35.204	
C	-0.1048520347	 1.5398064632	-0.1916153648	-0.466416
C	 0.0371905038	 0.0464636515	-0.0088461317	 0.41025
O	-1.1144173352	-0.666330944	-0.4097047221	-0.47292
C	 1.3037137248	-0.7456137074	-0.2275043709	-0.127424
C	 2.5443008916	-0.0102262467	 0.2864494323	-0.275549
C	 1.9095929669	 0.016009997	 1.7315884074	-0.188108
C	 1.8088514778	 1.2700555205	 2.4589761511	 0.32706
C	 1.7457174874	 2.3034032372	 3.071996379	-0.463232
C	 0.6464163159	-0.6609016585	 1.165514437	-0.101739
H	 0.7519639794	 2.0973245634	 0.1879608391	 0.135909
H	-0.2220868114	 1.7789605301	-1.2566240604	 0.09958
H	-0.9962327966	 1.8934301109	 0.3350938396	 0.129226
H	-1.2092408375	-0.5518319466	-1.3618534401	 0.279976
H	 1.3087254681	-1.5855956656	-0.9117476023	 0.086919
H	 3.4539039309	-0.6128766307	 0.2587234576	 0.111733
H	 2.7577981629	 0.9633292768	-0.1622563808	 0.107627
H	 2.4434132584	-0.7069234326	 2.3563789588	 0.112747
H	 1.679518896	 3.215541143	 3.6115078754	 0.194449
H	 0.0653153315	-1.4072886014	 1.6928446658	 0.099912
108.8422	130.1297	201.445	242.9596	257.3229	285.7616	327.6098	406.1058	426.3026	446.8084	502.7157	592.2508	618.2822	632.2084	657.7438	702.5999	805.0659	846.5494	870.8909	953.9174	981.4733	998.44	1008.4128	1015.4683	1054.0334	1081.1735	1095.2446	1127.1861	1173.7396	1225.4448	1244.7188	1261.9822	1272.5803	1317.7341	1343.7116	1418.6156	1443.5892	1481.4	1494.2322	1503.0789	2228.589	3023.7959	3052.5985	3064.062	3094.6059	3117.9772	3144.972	3180.7621	3193.2262	3502.9788	3794.1152
CC1(O)C2CC(C#C)C12	C[C@@]1(O)[C@H]2C[C@@H](C#C)[C@@H]12	
InChI=1S/C8H10O/c1-3-5-4-6-7(5)8(6,2)9/h1,5-7,9H,4H2,2H3	InChI=1S/C8H10O/c1-3-5-4-6-7(5)8(6,2)9/h1,5-7,9H,4H2,2H3/t5-,6+,7-,8-/m1/s1
