12
gdb 21485	5.25134	1.70932	1.29132	4.1142	58.59	-0.2579	-0.0591	0.1988	859.7527	0.085649	-410.843598	-410.836931	-410.835987	-410.874752	24.203	
N	 0.2278910825	 0.739293561	 1.0761856062	-0.549328
C	-0.0423849857	 0.1213264593	-0.1201362407	 0.242055
N	 0.5847426275	 0.1881993014	-1.2305727884	-0.497999
C	-1.2735299298	-0.7018793553	-0.0513737229	 0.479141
N	-1.9736283111	-0.9531784463	 1.020232242	-0.335841
C	-2.9694648773	-1.7502671261	 0.5206032535	 0.037968
N	-2.8991802567	-1.9796014339	-0.7626570382	-0.101566
O	-1.7591442291	-1.2753342346	-1.1517126658	-0.178296
H	 1.1508305558	 1.1142407719	 1.2197798148	 0.257576
H	-0.2654091225	 0.409835	 1.8918221958	 0.277004
H	 1.4133965216	 0.7805417414	-1.1529609107	 0.214882
H	-3.7619896852	-2.1679281588	 1.1238441745	 0.154403
74.6911	202.5102	214.4664	357.1778	402.8373	469.0804	512.5096	602.1198	657.5608	663.836	804.2973	875.9834	928.9029	929.689	985.6835	1020.667	1099.7223	1128.7637	1191.8612	1253.2671	1307.4984	1420.8302	1516.0389	1599.7195	1626.506	1724.7135	3264.9466	3464.0711	3584.7447	3710.8276
NC(=N)C1=NC=NO1	NC(=N)c1ncno1	
InChI=1S/C3H4N4O/c4-2(5)3-6-1-7-8-3/h1H,(H3,4,5)	InChI=1S/C3H4N4O/c4-2(5)3-6-1-7-8-3/h1H,(H3,4,5)
