20
gdb 64243	2.58906	1.08864	1.00774	4.9442	77.44	-0.2477	0.0317	0.2794	1298.4186	0.169548	-440.304752	-440.295091	-440.294147	-440.339542	35.912	
C	 0.316209366	 1.4757076305	-0.2682776879	-0.460217
C	 0.0388144293	 0.0047409514	 0.0278271214	 0.391501
O	-1.2999538071	-0.1894890851	 0.4293872245	-0.470645
C	 0.6092007711	-0.9652652702	-1.0568168297	-0.279461
C	 1.8543921179	-1.1902762479	-0.1581980077	-0.261881
C	 1.0294631411	-0.6466737704	 1.0377969927	 0.039888
N	 1.6704538277	 0.1576669741	 2.0454685152	-0.296883
C	 1.6355468814	-0.1277301196	 3.3788702677	 0.154655
O	 1.064142888	-1.0690879544	 3.8827345128	-0.316261
H	 1.3555858504	 1.6457691202	-0.5699644121	 0.112983
H	-0.3159157244	 1.8209745558	-1.0954777673	 0.113686
H	 0.099486604	 2.0908315378	 0.6102110908	 0.129319
H	-1.8771870795	 0.2713532863	-0.1891316933	 0.275145
H	-0.01511451	-1.8589451671	-1.1239113353	 0.114839
H	 0.7731767752	-0.5604559475	-2.0582957912	 0.094153
H	 2.2462227488	-2.2045244651	-0.0673819093	 0.11397
H	 2.6793003192	-0.5210320082	-0.4221295957	 0.095904
H	 0.512911117	-1.4513961691	 1.5625062028	 0.136763
H	 2.2129916704	 0.9562520325	 1.7556073027	 0.242303
H	 2.2065032235	 0.6182845259	 3.967967589	 0.070237
42.0766	104.0212	172.721	197.6313	245.6543	251.0744	272.0708	310.9585	363.0514	391.0208	458.9781	529.6656	540.3646	610.1151	709.9778	773.1925	850.2596	886.5228	898.7714	946.1268	965.2892	993.5996	1030.1227	1078.1013	1095.4703	1129.4054	1179.0543	1190.1486	1211.7583	1226.8096	1247.9983	1266.3641	1303.922	1360.1112	1374.6579	1405.7921	1433.9847	1475.9663	1493.5363	1495.6746	1499.2112	1535.4483	1811.7032	2927.3576	3023.6064	3055.232	3065.7649	3085.609	3110.4286	3113.054	3122.7014	3132.4303	3627.2672	3801.3193
CC1(O)CCC1NC=O	C[C@@]1(O)CC[C@H]1NC=O	
InChI=1S/C6H11NO2/c1-6(9)3-2-5(6)7-4-8/h4-5,9H,2-3H2,1H3,(H,7,8)	InChI=1S/C6H11NO2/c1-6(9)3-2-5(6)7-4-8/h4-5,9H,2-3H2,1H3,(H,7,8)/t5-,6-/m1/s1
