18
gdb 42341	4.41171	0.94833	0.89882	2.71	73.72	-0.2463	-0.0304	0.2159	1337.2397	0.147957	-439.046614	-439.03804	-439.037096	-439.081285	30.359	
O	 0.1456164868	 0.1657792986	 0.3549547523	-0.328054
C	-0.0101475703	 1.3590869514	 0.2122437744	 0.359367
C	 1.132280244	 2.3173085551	 0.3462403227	-0.111871
C	 1.9973939791	 2.1460359834	 1.5597860391	-0.217155
N	 2.4900258453	 1.7637312712	 0.2446488027	-0.304302
C	-1.3511145719	 1.9753655073	-0.156328411	 0.036065
C	-1.5791356461	 2.1060217212	-1.6913870303	-0.293314
C	-2.6949524036	 1.0687235562	-1.4454304772	-0.06001
O	-2.4543558357	 1.0788737265	-0.0216148562	-0.265868
H	 0.9965275347	 3.3134039386	-0.0665386942	 0.098363
H	 2.4602572198	 3.0253623606	 1.9981252244	 0.128039
H	 1.710270544	 1.363519714	 2.2565989216	 0.136313
H	 2.3815704406	 0.7530735986	 0.1436577333	 0.248895
H	-1.4975352802	 2.9026328695	 0.415387464	 0.095059
H	-1.9182757145	 3.0898632383	-2.0160103397	 0.122339
H	-0.7522881056	 1.7782052618	-2.3229602022	 0.1271
H	-3.7129311737	 1.3924709272	-1.6887617034	 0.109668
H	-2.5160637624	 0.0781467006	-1.8779996104	 0.119367
45.1423	70.2388	90.9328	175.0598	231.7241	274.3993	316.0933	373.1545	662.0757	728.316	779.0911	810.0174	829.9496	856.2681	886.0617	938.551	953.8732	976.9152	1011.1327	1028.8826	1045.2198	1086.1359	1118.5566	1131.2127	1142.0514	1163.7125	1186.1511	1211.6779	1250.2859	1257.9593	1291.5565	1322.5083	1343.0631	1367.7781	1409.641	1489.4892	1497.5436	1529.8883	1794.5974	3006.6582	3031.1354	3075.0182	3086.7786	3113.3989	3144.9901	3146.598	3207.7122	3456.376
O=C(C1CN1)C1CCO1	O=C([C@H]1CN1)[C@H]1CCO1	
InChI=1S/C6H9NO2/c8-6(4-3-7-4)5-1-2-9-5/h4-5,7H,1-3H2	InChI=1S/C6H9NO2/c8-6(4-3-7-4)5-1-2-9-5/h4-5,7H,1-3H2/t4-,5-/m1/s1
