17
gdb 102795	2.03571	1.80296	1.26465	2.8487	64.28	-0.257	0.0116	0.2686	1041.6503	0.137537	-492.315854	-492.307298	-492.306354	-492.349284	31.586	
N	-0.1303147526	 0.4617893391	 0.7644153912	-0.519157
H	-1.4579228403	-1.4736275849	 1.3759233265	 0.247818
H	 0.8610187417	 0.6445898304	 0.8712627251	 0.240657
H	-0.2383677267	-0.1240778693	-0.0572754903	 0.24716
C	-0.8612376585	 1.7162127667	 0.5647557669	-0.180481
C	-2.3485100006	 1.5090172547	 0.8697355249	-0.030713
O	-2.87152748	 0.3633251162	 0.2182149058	-0.269014
C	-3.2478805897	-0.6088475533	 1.170895086	 0.220762
N	-2.4006290193	-1.7404856641	 1.0986940859	-0.496788
C	-2.6000080171	 1.2565724196	 2.3508791361	 0.418321
O	-2.3307357898	 1.9715313604	 3.2717114558	-0.347482
O	-3.2089619757	 0.0584866084	 2.4633376537	-0.23563
H	-0.4906356773	 2.4680642553	 1.2688615534	 0.137686
H	-0.759411756	 2.129274575	-0.4492285099	 0.100842
H	-2.9155760684	 2.3967622597	 0.5617808909	 0.113924
H	-4.2879941202	-0.9086805094	 1.0103267179	 0.110915
H	-2.7365574095	-2.4836832348	 1.7014785001	 0.24118
91.2389	115.3225	123.3501	196.9748	233.7414	306.474	391.1424	404.3253	515.4702	546.423	555.5552	635.6554	722.5886	766.7799	826.7493	859.6978	899.7038	914.5114	939.5605	955.0427	1024.5944	1059.2034	1136.9231	1164.4834	1173.28	1228.4108	1283.1669	1303.7503	1344.2681	1370.0335	1375.9819	1410.5666	1454.5857	1493.0412	1642.0445	1653.758	1888.2477	2994.7859	3034.6153	3074.1001	3087.9146	3480.5999	3511.6181	3589.1536	3592.4493
[NH3+]CC(OC=N)C([O-])=O	NC[C@H]1O[C@@H](N)OC1=O	
InChI=1S/C4H8N2O3/c5-1-3(4(7)8)9-2-6/h2-3,6H,1,5H2,(H,7,8)	InChI=1S/C4H8N2O3/c5-1-2-3(7)9-4(6)8-2/h2,4H,1,5-6H2/t2-,4-/m1/s1
