17
gdb 38743	2.91863	2.11162	1.97778	1.7369	70.72	-0.2409	0.0037	0.2446	805.3998	0.139655	-421.815875	-421.810093	-421.809149	-421.845543	25.51	
C	-0.0269390855	 1.5502141371	 0.0786482099	-0.243854
C	 1.5125257992	 1.4299732399	 0.0099868316	 0.101354
O	 2.0062429572	 1.0936704304	 1.3020234447	-0.280795
C	 1.6770448569	-0.2676162205	 1.6007658909	 0.146909
O	 0.2935148951	-0.5013478742	 1.3144982509	-0.280795
C	-0.0169279658	 0.0056363631	 0.0211317405	 0.101354
C	 1.320307456	 0.0964583123	-0.8267735164	-0.124215
C	 2.3151628545	-0.9697663665	-0.5644000796	-0.086608
C	 2.5137747433	-1.1728325527	 0.7400848996	-0.074681
H	-0.443864678	 2.0049522574	 0.9786312131	 0.108259
H	-0.452122164	 1.9997204194	-0.8230447152	 0.097512
H	 2.1289207996	 2.2385175031	-0.386334107	 0.08036
H	 1.8101254299	-0.4021305203	 2.6735443726	 0.09074
H	-0.870293461	-0.5545627105	-0.3644863082	 0.08036
H	 1.113420033	 0.3104149207	-1.8747019379	 0.080064
H	 2.8148914743	-1.5125969914	-1.3592267973	 0.10016
H	 3.1910387053	-1.8966721772	 1.1758690179	 0.103873
331.2094	364.7081	378.2077	442.0132	502.5293	566.7604	663.9759	675.8901	704.4195	745.1336	842.4687	846.0354	852.8106	859.1266	929.1317	944.1141	948.7041	969.0131	997.4305	1012.7384	1061.7958	1076.6999	1111.4882	1129.6599	1150.0802	1165.857	1207.7706	1251.8004	1256.0191	1312.8629	1321.9754	1329.3369	1375.3504	1385.5616	1404.3112	1467.5739	1677.4079	3062.7305	3096.65	3098.3954	3122.4312	3129.3332	3135.9029	3180.8376	3213.1705
C1C2OC3OC1C2C=C3	C1[C@H]2O[C@H]3O[C@@H]1[C@@H]2C=C3	
InChI=1S/C7H8O2/c1-2-7-8-5-3-6(9-7)4(1)5/h1-2,4-7H,3H2	InChI=1S/C7H8O2/c1-2-7-8-5-3-6(9-7)4(1)5/h1-2,4-7H,3H2/t4-,5-,6+,7+
