21
gdb 60860	2.82168	1.12771	1.09119	2.2821	78.72	-0.2671	-0.0365	0.2306	1242.6911	0.18054	-424.227598	-424.218052	-424.217108	-424.261818	35.936	
C	-0.1922055072	 1.7417594767	 0.0456083827	-0.475253
C	 0.0829786095	 0.2414301235	 0.0408102601	 0.322442
C	 1.2172245838	-0.2824282891	-0.9012597888	-0.272834
C	 1.7733409969	-1.1382712997	 0.2679248419	-0.213641
C	 0.8969319442	-0.3177244639	 1.2512999637	-0.252604
C	-1.2266349633	-0.5650792818	-0.132072143	 0.009925
O	-2.0733966379	-0.397754513	 0.9739542211	-0.442117
C	-1.9608814057	-0.19046184	-1.4034303401	 0.132446
O	-3.115125692	 0.1681286811	-1.3885351878	-0.269329
H	 0.7218501415	 2.3013598518	 0.2664382826	 0.111469
H	-0.5681617103	 2.0933062813	-0.9230751793	 0.113532
H	-0.938248198	 1.9899573094	 0.8064111646	 0.135101
H	 0.9191158159	-0.8128188519	-1.8110903801	 0.091891
H	 1.8962665204	 0.5249079483	-1.1888171178	 0.103638
H	 1.4659847619	-2.1854613741	 0.203761155	 0.105405
H	 2.8534617584	-1.1135913359	 0.4262259027	 0.100754
H	 1.4624461377	 0.4761735879	 1.7471511332	 0.097008
H	 0.3290900985	-0.8620242081	 2.0080782485	 0.11929
H	-0.9536810089	-1.6318324856	-0.2449712044	 0.087526
H	-2.9276228147	-0.1167167123	 0.6087326137	 0.293928
H	-1.391975031	-0.2680616145	-2.3508867785	 0.101424
82.7381	104.5468	129.7201	198.7721	234.6942	267.8824	299.4804	315.1813	341.5111	437.694	446.7206	495.0039	650.0447	704.9726	760.4869	782.2487	830.4789	874.8683	903.8989	938.7642	945.9722	975.6264	991.3881	1014.6022	1060.9189	1143.3247	1167.9564	1178.9165	1204.6009	1218.3287	1256.8772	1265.6487	1278.2151	1287.2925	1315.6549	1346.8246	1393.7912	1409.0855	1434.2737	1477.4844	1484.8235	1494.7203	1500.1226	1509.0118	1805.6633	2922.7438	2944.2688	3025.0852	3047.4249	3061.4542	3065.2501	3090.1859	3093.8056	3111.6863	3113.7341	3125.76	3685.6944
CC1(CCC1)C(O)C=O	CC1(CCC1)[C@@H](O)C=O	
InChI=1S/C7H12O2/c1-7(3-2-4-7)6(9)5-8/h5-6,9H,2-4H2,1H3	InChI=1S/C7H12O2/c1-7(3-2-4-7)6(9)5-8/h5-6,9H,2-4H2,1H3/t6-/m0/s1
