15
gdb 64572	2.17782	1.59531	1.46575	1.4712	66.01	-0.2564	-0.0616	0.1949	985.1057	0.109246	-457.739758	-457.731283	-457.730339	-457.773124	30.251	
C	 0.1668858602	 1.7249304642	 0.144238629	-0.470303
C	 0.0132696262	 0.2086255816	 0.043471831	 0.024269
C	-1.3753675045	-0.2554297128	 0.4270786368	 0.116734
O	-2.0016635282	-1.0827347991	-0.1863821703	-0.24871
C	 0.5634646578	-0.5144059491	-1.2028397691	 0.017289
O	 1.9480723236	-0.2068888428	-1.2751323033	-0.240713
C	 1.5504569477	-1.313232148	-0.4346311822	-0.107846
C	 1.0619900646	-0.6702211272	 0.8544759826	 0.395905
O	 1.256362761	-0.8311838383	 2.0188119297	-0.289562
H	 1.1683159993	 2.0201163864	-0.1744711001	 0.153068
H	-0.5666267029	 2.2432173116	-0.4820003041	 0.132687
H	 0.0245599051	 2.0520820704	 1.1788896667	 0.141741
H	-1.7847131107	 0.2258389868	 1.3414528589	 0.099226
H	 0.0372919159	-0.7933376202	-2.1053763369	 0.141106
H	 2.003123215	-2.2794074134	-0.6196022788	 0.135108
81.3685	115.7322	188.8452	192.8227	208.643	230.831	280.3091	431.3848	496.2713	606.916	639.5855	698.2593	765.4715	823.4954	853.5564	882.7348	944.2624	954.6513	1008.3722	1012.2703	1061.19	1139.2186	1172.4873	1186.4328	1220.2534	1285.0337	1337.3541	1399.2277	1421.645	1488.5818	1502.1817	1806.2738	1899.1117	2902.8426	3040.5008	3107.4374	3137.1292	3203.5125	3227.1169
CC1(C=O)C2OC2C1=O	C[C@@]1(C=O)[C@H]2O[C@H]2C1=O	
InChI=1S/C6H6O3/c1-6(2-7)4(8)3-5(6)9-3/h2-3,5H,1H3	InChI=1S/C6H6O3/c1-6(2-7)4(8)3-5(6)9-3/h2-3,5H,1H3/t3-,5-,6-/m0/s1
