14
gdb 131665	5.22705	0.87138	0.75537	4.3679	66.88	-0.269	-0.0754	0.1936	1397.9516	0.099839	-473.811871	-473.803617	-473.802673	-473.845727	28.626	
O	 0.2596811228	 1.0785677932	-0.6969622785	-0.397402
C	-0.0115083379	 0.0562232962	 0.2374347215	-0.176334
C	-1.390025704	-0.506564317	 0.0632644729	 0.406409
C	-2.2869297706	-0.4627135209	-0.9563995839	-0.419674
C	-3.3952330697	-1.2062732968	-0.4572387996	 0.286735
C	-4.6712400757	-1.4809249011	-1.166065195	 0.097791
O	-5.5919153555	-2.1120163617	-0.7170018842	-0.233475
N	-3.174933776	-1.6543290853	 0.763241126	-0.169203
O	-1.9100777793	-1.207519634	 1.0904276488	-0.196838
H	-0.3124145808	 1.8268521002	-0.4953999965	 0.294181
H	 0.7340578197	-0.7268626886	 0.0575388727	 0.151475
H	 0.1156927099	 0.3828075547	 1.2800231295	 0.129362
H	-2.1720123488	 0.0114223168	-1.9164003446	 0.141674
H	-4.707646184	-1.0379761357	-2.185559289	 0.085298
62.5762	86.4464	138.4884	186.0128	236.964	307.3286	354.7209	432.2813	477.3069	646.2327	678.7226	730.3037	778.5244	832.2448	967.1238	984.9686	1021.2588	1034.0118	1044.4476	1095.4636	1131.1086	1202.4172	1244.0556	1374.4574	1403.0709	1421.071	1460.5264	1488.7419	1495.8145	1625.1129	1823.829	2892.1815	3004.737	3064.9116	3285.3099	3811.494
OCC1=CC(C=O)=NO1	OCc1cc(C=O)no1	
InChI=1S/C5H5NO3/c7-2-4-1-5(3-8)9-6-4/h1-2,8H,3H2	InChI=1S/C5H5NO3/c7-2-4-1-5(3-8)9-6-4/h1-2,8H,3H2
