19
gdb 72914	2.66285	1.81492	1.42805	1.1706	73.38	-0.2542	0.0753	0.3295	965.8743	0.160252	-423.007373	-422.999892	-422.998948	-423.038903	30.558	
O	 0.0038916871	 1.2988026711	-0.4038583677	-0.488119
C	 0.0308500444	-0.0434965454	 0.040844126	 0.419801
C	 0.3397797214	-1.0725935102	-1.0908951414	-0.2767
C	-1.1676536517	-1.4501192339	-1.1516130441	-0.222203
C	-1.4143631998	-0.6296867939	 0.1492807434	-0.078631
C	-1.4164307023	-1.4120004684	 1.4428930298	 0.020315
O	-0.3930236171	-2.422372353	 1.5035314857	-0.260392
C	-0.1607457564	-1.1809580895	 2.1811365185	 0.054332
C	 0.7269957173	-0.2217284939	 1.4136359219	-0.332509
H	 0.8877212145	 1.5260964956	-0.7132710762	 0.274964
H	 0.7601120774	-0.627964013	-1.9974382343	 0.08642
H	 0.9739216563	-1.8957417503	-0.7583155153	 0.111609
H	-1.6818333873	-1.0254346996	-2.0158831221	 0.103981
H	-1.3956727752	-2.5151514765	-1.0885809088	 0.10865
H	-2.2195521691	 0.1079365314	 0.1231327068	 0.07945
H	-2.3478004408	-1.6788962151	 1.9363781571	 0.092503
H	-0.0909275936	-1.253209396	 3.2642021857	 0.093479
H	 1.7549456328	-0.5910749721	 1.3260395502	 0.104297
H	 0.7530429621	 0.7461847626	 1.9267299046	 0.108753
119.5235	211.6354	271.5909	274.2558	353.2395	377.3282	418.6439	481.8325	632.178	639.808	685.3291	741.1696	813.8368	832.2125	858.1566	878.5209	904.8967	944.3639	958.7533	989.5181	993.7334	1049.7056	1056.1122	1094.4785	1113.5393	1135.9258	1169.9001	1200.9814	1223.4279	1250.5212	1260.7701	1270.0923	1276.9031	1295.2017	1316.9675	1345.0284	1377.4148	1424.6078	1459.8922	1472.4969	1484.8187	3037.2215	3057.7571	3075.4079	3084.3533	3089.873	3120.6858	3135.1219	3137.509	3147.9404	3797.3594
OC12CCC1C1OC1C2	O[C@]12CC[C@H]1[C@H]1O[C@H]1C2	
InChI=1S/C7H10O2/c8-7-2-1-4(7)6-5(3-7)9-6/h4-6,8H,1-3H2	InChI=1S/C7H10O2/c8-7-2-1-4(7)6-5(3-7)9-6/h4-6,8H,1-3H2/t4-,5-,6+,7-/m0/s1
