16
gdb 76288	2.38611	1.68541	1.11145	2.1967	66.07	-0.2572	-0.018	0.2392	1064.5674	0.126344	-471.239992	-471.231584	-471.23064	-471.273296	31.102	
N	 0.1467324273	 1.3857804416	 0.4131226132	-0.523901
C	 0.0060575143	-0.0072143427	 0.0355205566	-0.059476
C	-1.456227544	-0.4817071385	-0.0725062173	-0.137576
N	-2.3005875416	 0.6011033646	-0.5779261738	-0.527594
C	-1.3909110573	-1.5460545085	-1.1676900897	 0.447634
O	-2.2101524328	-2.3593533593	-1.4622252713	-0.319476
O	-0.2044662539	-1.4196987271	-1.861826786	-0.214499
C	 0.5799421084	-0.4112652651	-1.3177438022	 0.402903
N	 1.6007146579	 0.0704456776	-1.8658403141	-0.524038
H	 1.1290309417	 1.5900851944	 0.5680993098	 0.250234
H	-0.1359561131	 1.964658554	-0.3730306777	 0.247328
H	 0.510317992	-0.6205899121	 0.7926771681	 0.121422
H	-1.8145264319	-0.944806804	 0.8563968664	 0.098157
H	-3.236145788	 0.2495257544	-0.7563969014	 0.249473
H	-2.3712644847	 1.3164049737	 0.139900259	 0.249701
H	 1.7831770958	-0.363412753	-2.7718045096	 0.239708
58.2353	136.0688	181.0225	251.5952	257.1601	274.0863	379.4449	388.205	463.0099	553.0604	606.4253	645.8504	724.3144	765.9571	799.9919	870.8633	908.9895	915.7504	949.0313	976.102	1053.3321	1080.3688	1145.8226	1179.0823	1191.3092	1241.6199	1297.1019	1313.1374	1357.4844	1367.4765	1426.1782	1634.1934	1663.3515	1792.8518	1916.6284	3010.3428	3040.7054	3485.1655	3497.4195	3502.4847	3576.0485	3581.1679
NC1C(N)C(=O)OC1=N	N[C@H]1[C@@H](N)C(=O)O[C]1[NH]	
InChI=1S/C4H7N3O2/c5-1-2(6)4(8)9-3(1)7/h1-2,7H,5-6H2	InChI=1S/C4H7N3O2/c5-1-2(6)4(8)9-3(1)7/h1-2,7H,5-6H2/t1-,2+/m0/s1
