17
gdb 125290	4.98605	1.21164	0.9866	2.2719	83.58	-0.2045	0.0001	0.2046	1173.6511	0.138836	-380.907836	-380.90046	-380.899516	-380.9394	28.939	
C	-0.0194846678	 1.4583408021	 0.0143348648	-0.486076
C	-0.000406677	-0.0356597528	-0.0174435637	 0.304801
C	-0.0370834105	-0.8317687526	-1.107356408	-0.296651
C	 0.0015414677	-2.2213541678	-0.6716766305	 0.357192
N	-0.0063363362	-3.4221919755	-1.2346363119	-0.349404
N	 0.0524773236	-4.2506215256	-0.1594588982	-0.190546
C	 0.0962159304	-3.6012720323	 1.0453236148	-0.218002
C	 0.0642022263	-2.2651169521	 0.7425372425	 0.224454
C	 0.0677442882	-0.8624775624	 1.2727458741	-0.471385
H	 0.8785524	 1.8613158208	 0.5006430338	 0.12573
H	-0.0736971522	 1.8777831686	-0.9938005157	 0.127005
H	-0.8773155595	 1.8371544862	 0.5852086397	 0.125616
H	-0.0870012098	-0.4943947327	-2.1345726809	 0.100581
H	 0.0595994206	-5.2436619251	-0.3153352658	 0.26961
H	 0.1445557783	-4.1535040153	 1.9708171682	 0.129751
H	 0.9682526344	-0.6143945252	 1.850510121	 0.123656
H	-0.7854968266	-0.6389881882	 1.9271954358	 0.123667
135.4129	165.894	263.7377	272.183	322.4746	435.7011	459.2684	485.6069	523.709	642.4067	723.3168	748.139	778.0396	807.7517	858.265	864.8155	941.6748	968.7406	1007.7847	1049.2417	1057.6322	1126.7541	1152.7689	1161.1511	1185.8687	1247.7095	1298.277	1326.059	1408.3979	1422.58	1455.8865	1465.4898	1477.5504	1485.5276	1524.4244	1628.4514	1663.6466	3012.2199	3020.1687	3044.1077	3056.349	3110.9403	3217.2016	3255.9186	3682.871
CC1=CC2=NNC=C2C1	CC1=Cc2n[nH]cc2C1	
InChI=1S/C7H8N2/c1-5-2-6-4-8-9-7(6)3-5/h3-4H,2H2,1H3,(H,8,9)	InChI=1S/C7H8N2/c1-5-2-6-4-8-9-7(6)3-5/h3-4H,2H2,1H3,(H,8,9)
