20
gdb 22314	3.01182	1.08173	0.85155	0.6096	79.01	-0.2401	0.0106	0.2507	1352.5619	0.171713	-440.266971	-440.258139	-440.257195	-440.300322	34.325	
O	-0.0297260291	 1.3612660786	 0.0212822076	-0.397497
N	 0.0609809872	-0.0422837154	 0.0296623586	-0.197636
C	-1.0824877042	-0.6119780421	 0.0025393792	 0.371485
C	-2.4315579703	 0.0612621738	 0.0051509373	-0.291355
C	-3.3180022502	-0.5198421588	 1.126697724	-0.216808
C	-3.3777403378	-2.0518250889	 1.077177388	-0.186359
C	-1.9810541528	-2.6667087331	 1.141760068	 0.128422
O	-2.1320605858	-4.0757661354	 1.0508925439	-0.437168
C	-1.0931902198	-2.1186462336	 0.0072168826	-0.300439
H	 0.8971238891	 1.6186535542	 0.0574570817	 0.304819
H	-2.3191280472	 1.1401857509	 0.108471408	 0.131968
H	-2.913043903	-0.1289624722	-0.9645968263	 0.111786
H	-2.9191118507	-0.1997521619	 2.0976168341	 0.106957
H	-4.3265474827	-0.1009217405	 1.0504304788	 0.101225
H	-3.9819725909	-2.4451089452	 1.9008719029	 0.103926
H	-3.8551724852	-2.3839682289	 0.1458319384	 0.101891
H	-1.520153753	-2.3930762796	 2.1062637433	 0.070086
H	-1.2575566517	-4.4741715096	 1.108270878	 0.281137
H	-1.5098806783	-2.4890835819	-0.9401059471	 0.111908
H	-0.0675412134	-2.4910549505	 0.0918422389	 0.101651
79.3624	128.7134	227.8998	283.7356	290.3717	321.1153	350.3062	360.436	404.7199	406.2054	467.7826	504.2683	596.3377	678.5242	773.7772	833.7941	873.0698	887.7043	932.4021	961.1941	986.6903	1039.3891	1081.2821	1088.4153	1103.0721	1117.724	1188.9613	1235.05	1253.5118	1274.559	1297.0511	1302.0799	1343.565	1352.3991	1373.0511	1383.2897	1408.2946	1443.0597	1472.9376	1479.3165	1490.7931	1500.5787	1735.6688	2954.7471	3011.034	3015.5576	3026.5852	3032.4034	3076.9992	3082.4443	3085.6921	3136.3722	3813.9367	3825.0429
ON=C1CCCC(O)C1	ON=C1CCC[C@@H](O)C1	
InChI=1S/C6H11NO2/c8-6-3-1-2-5(4-6)7-9/h6,8-9H,1-4H2	InChI=1S/C6H11NO2/c8-6-3-1-2-5(4-6)7-9/h6,8-9H,1-4H2/t6-/m1/s1
