20
gdb 61841	3.3864	0.81053	0.73862	2.2529	77.27	-0.2341	-0.0232	0.211	1569.1683	0.167737	-440.251386	-440.241121	-440.240177	-440.287631	36.238	
C	 3.0095836245	-0.7519346387	 0.3057055794	-0.313192
N	 1.6165717973	-1.1801760062	 0.3538991682	-0.085495
C	 1.2291571835	-2.1455055756	 1.3714931987	-0.256676
C	 0.7553975306	-0.7315384592	 1.4426733908	-0.007082
C	 1.2224238966	 0.2073021327	 2.5356493998	 0.087394
O	 1.4084932528	 1.5328706308	 2.0394393793	-0.43357
C	 0.2392227895	 0.1921684915	 3.7239988186	-0.294296
C	 0.6968440423	 1.0751927013	 4.866283226	 0.153018
O	 0.7113184983	 0.733391397	 6.0217024538	-0.242555
H	 3.5447438762	-0.83146763	 1.2643587257	 0.102834
H	 3.5367181423	-1.3752158278	-0.4229380672	 0.123718
H	 3.0554994303	 0.2890279069	-0.0240374175	 0.136193
H	 0.558955826	-2.9414633651	 1.0577825575	 0.119378
H	 1.983315679	-2.448230647	 2.0989372021	 0.109654
H	-0.2667206199	-0.5203163925	 1.1168313193	 0.082842
H	 2.2118045169	-0.095186086	 2.8929313175	 0.101188
H	 0.6189850947	 1.776595211	 1.5422559913	 0.282469
H	-0.7321337007	 0.5722962028	 3.3715201565	 0.112558
H	 0.0841890381	-0.8224194631	 4.1017676116	 0.127056
H	 1.0309848916	 2.0881053671	 4.5572310387	 0.094564
46.2678	79.308	85.3065	118.8918	186.2834	231.6635	240.8362	303.5886	331.8923	386.4348	394.3421	461.8316	515.4206	584.5497	756.122	819.8269	853.0613	897.2437	927.9868	1029.1093	1033.9285	1067.1281	1083.8468	1090.518	1122.4287	1129.0787	1157.9691	1178.4322	1198.8495	1204.7734	1260.3151	1288.5844	1335.04	1354.4486	1406.7166	1418.3348	1434.1365	1450.3531	1452.0162	1485.0309	1503.8562	1515.0426	1829.2507	2915.315	2983.2139	3001.2738	3057.7252	3072.1286	3077.9905	3082.3245	3101.8228	3121.0416	3172.5298	3792.6272
CN1CC1C(O)CC=O	CN1C[C@H]1[C@@H](O)CC=O	
InChI=1S/C6H11NO2/c1-7-4-5(7)6(9)2-3-8/h3,5-6,9H,2,4H2,1H3	InChI=1S/C6H11NO2/c1-7-4-5(7)6(9)2-3-8/h3,5-6,9H,2,4H2,1H3/t5-,6-,7?/m0/s1
