17
gdb 75644	2.25039	1.62793	1.19829	3.5348	75.78	-0.2453	-0.0635	0.1818	1072.8891	0.135675	-421.88338	-421.875032	-421.874088	-421.916719	30.891	
C	 0.6444055375	 1.3618815457	 0.1170069543	-0.413589
C	 0.1790874353	-0.114296847	 0.1997075637	-0.188649
C	 0.9089502024	-0.9172232096	-0.8839080446	 0.369889
O	 0.4955320087	-0.932731614	-2.0247287419	-0.335693
C	 2.1397589876	-1.6269950885	-0.4831092375	-0.151311
C	 2.5594319731	-1.6875769762	 0.7868211172	-0.051253
C	 1.8398716877	-1.0531850088	 1.9417324512	-0.371089
C	 0.4049399399	-0.656909727	 1.6017612679	 0.379574
O	-0.4885451854	-0.7633820875	 2.4056522662	-0.309469
H	 1.7185722679	 1.4600261283	 0.3031686762	 0.126955
H	 0.4367945354	 1.7462921529	-0.8845704174	 0.150375
H	 0.1065573518	 1.9715519427	 0.8477741504	 0.139217
H	-0.8921723621	-0.154118271	-0.0124279814	 0.122616
H	 2.6817397749	-2.1147833079	-1.2866802353	 0.116011
H	 3.4681119383	-2.2344056783	 1.0266643531	 0.121561
H	 1.8205820968	-1.7106080865	 2.8164256213	 0.144553
H	 2.3803932704	-0.1476834874	 2.2584759265	 0.150302
61.6877	96.9457	206.3527	219.3225	239.5788	331.0226	388.1872	445.6791	496.2782	527.9934	595.9303	655.1669	681.1435	811.0146	830.0605	869.8518	931.9897	959.8666	996.1935	1022.6646	1037.4282	1069.4091	1143.0561	1177.8031	1223.6334	1280.0082	1284.6273	1302.483	1329.9762	1398.0127	1405.0233	1439.1305	1494.5386	1500.2805	1682.4083	1772.3112	1825.39	3002.5722	3042.4543	3084.1328	3088.9619	3118.7153	3130.2012	3159.9833	3195.0109
CC1C(=O)C2C3CC12O3	C[C@H]1C(=O)C=CCC1=O	
InChI=1S/C7H8O2/c1-3-6(8)5-4-2-7(3,5)9-4/h3-5H,2H2,1H3	InChI=1S/C7H8O2/c1-5-6(8)3-2-4-7(5)9/h2-3,5H,4H2,1H3/t5-/m0/s1
