17
gdb 82542	2.29793	1.67859	1.42833	1.4635	67.84	-0.2452	0.0622	0.3074	990.7293	0.133938	-458.89598	-458.88741	-458.886466	-458.928894	32.448	
O	-0.1141875016	 1.4049851117	 0.1088369541	-0.435095
C	-0.1074452392	 0.0059701863	 0.0906234453	 0.037297
C	-0.4335561682	-0.8351788375	 1.3020021458	-0.159096
C	-1.5385235434	-0.1466226197	 2.1154688036	-0.328108
C	-2.4228942558	-0.1867166164	 0.8560345813	 0.373882
C	-3.8642882849	-0.3387085345	 0.7088243811	-0.268275
O	-3.2143308565	 0.8974538197	 0.3606098451	-0.298711
C	-1.3383698865	-0.8401796102	 0.0357786937	 0.248415
O	-1.5779369208	-1.8287919051	-0.8993246279	-0.455605
H	-0.9934585021	 1.7089183343	-0.141348923	 0.307023
H	 0.7169933982	-0.3945330399	-0.4981723796	 0.100651
H	 0.2358326745	-1.6046440691	 1.6637912779	 0.10144
H	-1.9304628931	-0.7545025954	 2.9336670261	 0.113141
H	-1.2963536185	 0.8551576015	 2.4771822299	 0.122975
H	-4.2565233632	-0.9113533	-0.1298111778	 0.126366
H	-4.5042825979	-0.2927894208	 1.5887723104	 0.119378
H	-1.3576942408	-1.4889398449	-1.7727950459	 0.294323
89.4268	157.1033	188.4872	233.7464	250.9204	287.4436	312.0527	371.8377	430.5366	529.5557	564.9679	620.5907	698.497	792.8055	811.093	855.5104	893.7989	923.6318	939.6307	997.1167	1020.4798	1069.1437	1098.8183	1120.6373	1137.5299	1155.3651	1169.1139	1224.1586	1238.4739	1263.0747	1314.3146	1331.312	1372.4402	1442.632	1453.3093	1489.8773	1536.0401	3069.4388	3086.544	3121.7908	3124.6338	3176.4481	3204.6244	3810.9095	3812.2932
OC1C2CC3(CO3)C12O	O[C@H]1[C@H]2C[C@]3(CO3)[C@@]12O	
InChI=1S/C6H8O3/c7-4-3-1-5(2-9-5)6(3,4)8/h3-4,7-8H,1-2H2	InChI=1S/C6H8O3/c7-4-3-1-5(2-9-5)6(3,4)8/h3-4,7-8H,1-2H2/t3-,4+,5+,6+/m1/s1
