12
gdb 130084	5.6828	1.39318	1.11976	6.5213	61.74	-0.2499	-0.0021	0.2478	972.6039	0.080636	-464.974906	-464.968533	-464.967589	-465.005554	24.463	
N	 0.0501397394	 1.2971040673	 0.1657744512	-0.583318
C	-0.0538002667	-0.0501767154	 0.0619204025	 0.487591
N	-1.1472953399	-0.7557450526	 0.0283856223	-0.329688
N	-0.6314683408	-2.049030967	 0.0104072878	 0.004017
C	-0.9676341006	-3.372826054	-0.0350841798	-0.000454
N	 0.1408973062	-4.0850763941	-0.0541267739	-0.221
N	 1.2484549816	-3.2331036933	-0.0248354203	-0.350719
C	 0.716372949	-2.0502847902	 0.0131650671	 0.487086
O	 1.1284734729	-0.7472929679	 0.0506403111	-0.228718
H	 0.8975254508	 1.705165825	-0.198157313	 0.285831
H	-0.7971656643	 1.8065775639	-0.0329506557	 0.288732
H	-1.9747717375	-3.7522391017	-0.0493876392	 0.160642
143.7221	279.5597	326.6897	336.5111	362.0155	512.7547	550.0754	613.9546	654.9918	718.4216	739.4591	791.274	800.2421	852.8333	958.944	983.7719	1008.8494	1113.7434	1186.393	1208.244	1361.6515	1410.6035	1466.3463	1481.0993	1606.9894	1618.9335	1715.063	3297.1295	3590.9321	3704.005
NC1=NN2C=NN=C2O1	Nc1nn2cnnc2o1	
InChI=1S/C3H3N5O/c4-2-7-8-1-5-6-3(8)9-2/h1H,(H2,4,7)	InChI=1S/C3H3N5O/c4-2-7-8-1-5-6-3(8)9-2/h1H,(H2,4,7)
