17
gdb 56867	2.73669	1.17787	0.99923	6.0867	73.02	-0.2595	0.0206	0.2801	1222.6268	0.135577	-418.047876	-418.038939	-418.037995	-418.08208	32.295	
C	 0.0881628724	 1.593067143	-0.0438818128	-0.399202
C	-0.0388886861	 0.05728866	-0.0293818655	-0.155644
C	 0.4200540223	-0.5123555388	-1.3007429461	 0.278499
N	 0.7733160089	-0.9592352948	-2.3060913382	-0.322802
C	 0.6968063689	-0.5668464155	 1.1725595805	 0.054095
C	 0.881045166	-2.1130095613	 1.2181520452	-0.427448
C	 2.3984581329	-1.8131216751	 1.2942462004	 0.451426
O	 3.4033786011	-2.4470234462	 1.4430231443	-0.344626
N	 2.1577780543	-0.4585764658	 1.159125741	-0.324829
H	 1.1332147493	 1.893746671	-0.1591507096	 0.13899
H	-0.4801001742	 2.0254017692	-0.8703138522	 0.146908
H	-0.2945582001	 2.0067875704	 0.8936690286	 0.128165
H	-1.0997920262	-0.2057626266	 0.0756249174	 0.135432
H	 0.2423856352	-0.1606622242	 2.0844953036	 0.095248
H	 0.4779739591	-2.6089155154	 2.1020887306	 0.136639
H	 0.5759329084	-2.6461291114	 0.316264688	 0.154898
H	 2.7710303378	 0.3304141813	 1.3050852549	 0.254249
61.7144	78.9685	155.5763	191.9429	231.427	254.9908	351.875	382.1097	412.9153	501.2399	563.4118	576.9081	663.1215	692.4572	785.2953	857.6581	946.383	957.0927	1002.4254	1018.5631	1059.4035	1080.1897	1123.1593	1148.7198	1176.0532	1204.2732	1267.2496	1314.801	1321.3121	1379.1306	1394.5908	1413.8638	1459.0868	1492.6378	1503.8681	1910.2417	2359.6763	3026.5699	3035.4656	3047.8021	3092.5055	3122.912	3132.7552	3153.7363	3605.4342
CC(C#N)C1CC(=O)N1	C[C@@H](C#N)[C@H]1CC(=O)N1	
InChI=1S/C6H8N2O/c1-4(3-7)5-2-6(9)8-5/h4-5H,2H2,1H3,(H,8,9)	InChI=1S/C6H8N2O/c1-4(3-7)5-2-6(9)8-5/h4-5H,2H2,1H3,(H,8,9)/t4-,5+/m0/s1
