23
gdb 116452	2.48212	1.25461	0.96006	2.0313	80.88	-0.2538	0.0766	0.3304	1329.5869	0.206621	-425.435028	-425.425633	-425.424689	-425.468997	35.851	
C	-0.1239799649	 1.5995503274	-0.011323552	-0.391886
C	 0.0728840244	 0.0794457299	 0.0411920767	-0.199332
C	 0.7946864436	-0.499337995	-1.1843595836	 0.015571
C	 2.2693572904	-0.0811700145	-1.2769159395	-0.09984
O	 2.8765971819	-0.6411163342	-2.4332878875	-0.236144
C	 2.7754820239	-2.0397817142	-2.4243167663	 0.010034
O	 1.448461707	-2.4928866265	-2.4141425037	-0.254481
C	 0.6952160982	-2.0400433531	-1.2795432173	 0.094095
C	 1.0712850648	-2.8129717099	-0.008605389	-0.412245
H	 0.8295438735	 2.13656365	-0.0208516358	 0.121202
H	-0.6791046465	 1.8943054117	-0.9085231396	 0.119574
H	-0.6868208868	 1.9503746218	 0.859035406	 0.115015
H	 0.6193975218	-0.1862296799	 0.9550978291	 0.099376
H	-0.9103396021	-0.4019081586	 0.1275810893	 0.098045
H	 0.309253214	-0.1124239551	-2.0900319961	 0.08568
H	 2.3723550917	 1.0023897095	-1.3726006374	 0.111099
H	 2.820565377	-0.3910274627	-0.3718416752	 0.086203
H	 3.2201526776	-2.3996103057	-3.3547392721	 0.115325
H	 3.33550269	-2.4461050249	-1.5618664985	 0.073316
H	-0.3394721701	-2.2993986178	-1.5309359088	 0.083967
H	 2.0547146817	-2.5425724634	 0.3854445109	 0.118575
H	 0.3369746218	-2.6319127393	 0.7812189806	 0.120783
H	 1.0770009669	-3.8837102255	-0.2299648001	 0.126066
82.6719	128.3239	176.9447	204.3189	230.8037	237.8258	296.1592	343.055	361.937	439.4602	455.9314	493.4125	589.3319	675.3828	773.5219	806.0864	867.337	928.6571	952.4979	974.5361	999.5147	1026.5362	1039.7432	1062.5946	1092.1322	1098.0389	1155.6319	1183.9148	1187.7679	1209.5229	1263.9495	1285.1556	1315.7656	1330.9448	1350.5596	1365.7413	1380.8738	1390.6847	1409.4931	1413.7873	1415.2606	1445.8299	1484.634	1492.199	1493.6368	1501.6748	1505.4529	1509.6969	1516.686	2932.5336	2957.3694	3012.8974	3020.1466	3035.6808	3040.2276	3047.9255	3050.7383	3093.5822	3103.5485	3106.4537	3108.2362	3119.0384	3122.07
CCC1COCOC1C	CC[C@H]1COCO[C@H]1C	
InChI=1S/C7H14O2/c1-3-7-4-8-5-9-6(7)2/h6-7H,3-5H2,1-2H3	InChI=1S/C7H14O2/c1-3-7-4-8-5-9-6(7)2/h6-7H,3-5H2,1-2H3/t6-,7-/m0/s1
