13
gdb 22035	2.53784	1.55714	0.96503	1.885	68.73	-0.2044	-0.0275	0.1769	1094.8847	0.089022	-497.816951	-497.809641	-497.808697	-497.848832	27.68	
O	-0.0813567347	 1.3289290189	 0.1156954594	-0.398303
N	 0.057174243	-0.069574673	 0.117996766	-0.258838
C	-1.0927723467	-0.64038577	-0.0176694301	 0.254238
C	-2.3955158558	-0.005069903	-0.1590927837	-0.240194
C	-3.507367099	-0.7417794577	-0.2920493069	 0.067168
O	-3.5291352496	-2.0971719528	-0.3075042951	-0.202051
C	-2.3320675846	-2.7402190849	-0.1781021155	-0.061293
C	-1.1674253503	-2.0902752215	-0.0399981568	 0.149939
F	-0.0415372655	-2.7854332926	 0.0808453185	-0.054796
H	 0.8300563198	 1.6201549576	 0.221680186	 0.309233
H	-2.4598177881	 1.0729064474	-0.156041844	 0.141024
H	-4.5049050397	-0.3364792378	-0.4011189283	 0.143632
H	-2.4236097289	-3.8163374206	-0.1987668694	 0.150242
118.1016	211.5887	226.954	310.2526	332.3339	379.888	465.7327	492.7839	540.8459	562.1787	614.2242	719.3156	799.5547	832.6739	853.2072	853.3909	952.0405	999.1357	1013.8094	1140.646	1215.1544	1270.4101	1320.2848	1355.2118	1420.98	1471.1658	1648.2392	1668.1525	1732.7163	3225.7574	3248.5673	3255.0722	3825.9086
ON=C1C=COC=C1F	ON=c1ccocc1F	
InChI=1S/C5H4FNO2/c6-4-3-9-2-1-5(4)7-8/h1-3,8H	InChI=1S/C5H4FNO2/c6-4-3-9-2-1-5(4)7-8/h1-3,8H
