21
gdb 23376	2.673	1.03429	0.91598	0.7634	83.	-0.2364	0.0143	0.2507	1388.8552	0.179913	-420.34094	-420.330634	-420.329689	-420.376523	37.575	
C	 0.3029290116	 1.747567255	 0.0077749367	-0.402032
C	 0.0714987454	 0.2315762889	 0.0130866224	-0.039516
N	 0.6050746582	-0.3413120651	-1.2295965981	-0.068278
C	 0.0035934397	-1.5974573551	-1.6665592149	-0.222734
C	-0.2943090265	-0.3246293074	-2.3786832406	-0.223359
C	 0.7479086423	-0.4371516645	 1.1921903003	 0.387717
C	 2.2456351424	-0.400361079	 1.3141814798	-0.479905
N	-0.0419234477	-1.0017532978	 2.0238168518	-0.190225
O	 0.6521052888	-1.570118859	 3.1057125472	-0.398284
H	 1.3687127593	 1.9803601728	-0.0673208594	 0.126801
H	-0.2025802617	 2.2034581201	-0.8489644035	 0.118736
H	-0.0934979909	 2.1986251578	 0.9217457514	 0.122893
H	-1.008360267	 0.0349937045	 0.1145580558	 0.07356
H	 0.6869633931	-2.3238447291	-2.0969224427	 0.11581
H	-0.7858580364	-2.0223056859	-1.0496115639	 0.121993
H	-1.2883449325	 0.0985373326	-2.2414111208	 0.111274
H	 0.1646654514	-0.1042525902	-3.3383275801	 0.116394
H	 2.5575253155	 0.3707948137	 2.0284169005	 0.137742
H	 2.6174885417	-1.3540250689	 1.6950526123	 0.145556
H	 2.6977963286	-0.186853047	 0.3446068729	 0.14165
H	-0.0612413752	-1.9743410264	 3.610362553	 0.304205
53.9639	83.8258	116.0092	152.8055	215.04	223.7902	239.1454	309.5865	332.7894	363.1209	402.4977	434.5962	505.286	579.33	659.0302	753.978	806.0347	838.0924	909.6301	940.237	980.2601	998.5345	1025.378	1039.5055	1064.0871	1098.0352	1113.9324	1117.0805	1121.8979	1174.7824	1202.2804	1277.5069	1309.6778	1331.5704	1359.0858	1395.949	1399.7326	1406.2089	1476.696	1484.3418	1493.2312	1495.8932	1498.1386	1520.5672	1729.3017	2967.5348	3041.0454	3043.4189	3094.8109	3102.601	3108.591	3114.3891	3124.1169	3150.8623	3177.8054	3193.1902	3821.722
CC(N1CC1)C(C)=NO	C[C@@H](N1CC1)C(=NO)C	
InChI=1S/C6H12N2O/c1-5(7-9)6(2)8-3-4-8/h6,9H,3-4H2,1-2H3	InChI=1S/C6H12N2O/c1-5(7-9)6(2)8-3-4-8/h6,9H,3-4H2,1-2H3/t6-/m1/s1
