17
gdb 107596	2.68767	1.66315	1.18758	3.7509	68.39	-0.2509	0.006	0.2569	1047.2775	0.135981	-458.978747	-458.970646	-458.969702	-459.011423	30.149	
C	 0.0263177267	 1.3403244813	 0.3176461661	-0.266734
O	-0.0248547571	 0.0249897485	-0.2356729068	-0.284917
C	-1.2615607135	-0.5694264335	-0.1520764004	 0.308482
C	-1.7674048759	-1.1707988384	 1.1486904515	-0.347561
C	-1.4347767625	-2.0571880057	-0.0220483961	-0.152682
C	-2.5953345189	-2.4158388141	-0.930414181	-0.100145
O	-3.1719531245	-1.1691759123	-1.368997382	-0.228521
C	-2.356126973	-0.1135085858	-1.084473353	 0.390848
O	-2.533331839	 0.979562716	-1.5406303936	-0.348067
H	 1.055481977	 1.683009416	 0.1959325781	 0.129497
H	-0.6550116323	 2.0144495961	-0.2087916613	 0.153342
H	-0.2261380955	 1.3265111419	 1.3867567391	 0.108052
H	-1.0470493421	-1.1626296773	 1.9590199751	 0.132868
H	-2.8027734575	-1.0305870581	 1.4437428402	 0.131501
H	-0.5761984442	-2.7139453421	 0.0315373167	 0.119399
H	-2.2641482009	-2.9708787439	-1.8146228455	 0.127976
H	-3.3821666969	-2.9866509786	-0.4283528972	 0.126662
112.194	139.5207	175.5415	198.433	254.6149	304.8933	361.4071	436.7924	503.2004	607.9151	684.685	717.5427	778.7237	850.6776	861.9572	943.436	965.7163	1013.4316	1021.0695	1049.0962	1064.4207	1099.7604	1114.848	1127.0066	1182.6928	1221.6982	1235.0819	1271.3562	1313.458	1376.4377	1406.9658	1470.5192	1484.2523	1493.068	1514.4677	1518.7908	1873.4994	3009.4252	3045.4536	3091.3442	3096.5404	3128.8099	3139.7386	3202.7963	3225.3953
COC12CC1COC2=O	CO[C@]12C[C@H]1COC2=O	
InChI=1S/C6H8O3/c1-8-6-2-4(6)3-9-5(6)7/h4H,2-3H2,1H3	InChI=1S/C6H8O3/c1-8-6-2-4(6)3-9-5(6)7/h4H,2-3H2,1H3/t4-,6+/m0/s1
