17
gdb 79535	3.14325	1.8078	1.70328	1.8302	65.42	-0.2454	0.0764	0.3218	860.3477	0.139011	-458.951894	-458.945664	-458.94472	-458.982144	26.541	
O	 0.1032007697	 1.3980243218	 0.1136287593	-0.454521
C	 0.0211127535	-0.002506772	 0.0398985689	 0.155965
C	-1.3551933377	-0.579010633	-0.2877829068	-0.146033
C	-1.5401185664	-0.2729779924	-1.820157386	 0.078959
C	-1.8943163018	-1.7588893449	-2.0530108076	-0.241341
C	-1.0674748884	-2.038465798	-0.7785664719	 0.086583
O	 0.3388811163	-1.9920542726	-1.1212074478	-0.270689
C	 0.6222134019	-0.616296015	-1.2384905139	 0.126202
O	-0.1837444267	-0.0235236012	-2.2594450029	-0.298525
H	-0.0366019055	 1.7267777649	-0.7837628288	 0.289264
H	 0.4669429714	-0.4185073023	 0.9454861435	 0.100325
H	-2.1914135479	-0.4035738665	 0.382455126	 0.087238
H	-2.1843123103	 0.5244925651	-2.190051412	 0.085145
H	-2.9608546303	-1.9473278314	-1.8964603219	 0.103119
H	-1.5515155982	-2.2173014763	-2.98225209	 0.114414
H	-1.2528952985	-2.915999177	-0.1595259071	 0.085222
H	 1.674046819	-0.4635320591	-1.4717753211	 0.098672
203.039	291.6433	377.295	401.2049	433.779	518.0437	578.6969	630.7954	688.4789	790.6552	820.2986	848.4293	870.2209	875.6846	934.6435	939.9451	943.8868	966.9557	995.9376	1019.1806	1053.2331	1104.2235	1123.1519	1128.4445	1142.9693	1200.1334	1222.7978	1237.7285	1259.3743	1276.7408	1290.9982	1299.1957	1309.0903	1358.0149	1365.3324	1433.4285	1463.1084	3059.0198	3104.2211	3113.1446	3114.9453	3130.1275	3156.4162	3170.1326	3774.197
OC1C2C3CC2OC1O3	O[C@H]1[C@H]2[C@@H]3C[C@H]2O[C@H]1O3	
InChI=1S/C6H8O3/c7-5-4-2-1-3(4)9-6(5)8-2/h2-7H,1H2	InChI=1S/C6H8O3/c7-5-4-2-1-3(4)9-6(5)8-2/h2-7H,1H2/t2-,3+,4-,5-,6+/m0/s1
