15
gdb 44334	3.28025	2.01071	1.58426	4.3131	67.94	-0.212	-0.0006	0.2115	831.9927	0.115548	-416.811958	-416.8057	-416.804756	-416.842379	25.698	
O	 0.1691646787	 0.1726897566	 0.5270317385	-0.363454
C	 0.1026338373	 1.2592524573	 0.0233394546	 0.417689
N	-0.9706959666	 2.1238679957	 0.0183450856	-0.319217
C	-0.7157349424	 3.3185263021	-0.7123021962	-0.014481
C	 0.4969619313	 4.2450416064	-0.3695635266	-0.130899
C	 1.41674474	 3.8668539241	 0.7375676031	-0.087189
C	 1.8288930345	 2.6102218636	 0.5564785146	-0.091987
N	 1.2280599373	 1.9840727376	-0.6207034747	-0.195843
C	 0.6069880378	 3.1096838254	-1.3603837978	-0.046272
H	-1.7941625592	 1.9351405493	 0.5646528076	 0.261745
H	-1.548511891	 3.7582988437	-1.246913505	 0.118074
H	 0.4073019249	 5.2718193801	-0.7034226834	 0.100905
H	 1.7060514548	 4.5220182845	 1.5474433393	 0.111335
H	 2.4402870203	 1.9875427561	 1.1938350002	 0.13657
H	 0.8138626525	 3.1881274775	-2.4212046397	 0.103025
127.8119	288.5417	332.7188	379.1162	491.2694	598.9455	629.8219	716.2182	729.6902	740.8047	768.9638	816.3625	832.2448	849.1024	859.2706	910.199	925.2972	982.6247	1012.5975	1038.3419	1055.8097	1078.9957	1101.8985	1140.1388	1159.8414	1188.3282	1272.2656	1330.7981	1356.8065	1379.0178	1417.709	1645.775	1870.5791	3169.8185	3185.1596	3194.1786	3225.7944	3253.6034	3663.1084
O=C1NC2C3C=CN1C23	O=C1N[C@H]2[C@H]3C=CN1[C@@H]23	
InChI=1S/C6H6N2O/c9-6-7-4-3-1-2-8(6)5(3)4/h1-5H,(H,7,9)	InChI=1S/C6H6N2O/c9-6-7-4-3-1-2-8(6)5(3)4/h1-5H,(H,7,9)/t3-,4+,5-/m1/s1
