18
gdb 56001	4.00884	0.97938	0.92852	2.0734	76.21	-0.2455	0.0066	0.2522	1333.0299	0.147086	-439.100189	-439.091394	-439.09045	-439.134956	31.647	
C	-0.3556357889	 1.3700776144	-0.2001241951	-0.461354
C	 0.0596046821	-0.0518470036	 0.0798968243	 0.408606
N	 0.5583328479	-0.5322324073	 1.1416781929	-0.516913
O	-0.1729547272	-0.8148001392	-1.018390839	-0.268366
C	 0.0868456163	-2.2307090392	-0.9275401429	 0.198239
O	-1.0594326797	-2.9189686636	-0.4968123795	-0.256016
C	-1.6551472773	-3.6134480129	-1.5912081087	-0.120397
C	-0.6567801341	-3.5020727897	-2.7074112613	-0.091716
C	 0.3512544251	-2.7301339167	-2.3204992114	-0.108634
H	-0.1393017261	 2.0177326892	 0.6510649284	 0.124213
H	 0.1669953332	 1.7478314521	-1.0840968709	 0.143911
H	-1.4273462102	 1.4093157158	-0.4182527669	 0.14801
H	 0.667780186	 0.192817046	 1.8460718631	 0.220095
H	 0.8821019983	-2.3715706291	-0.1937076818	 0.124197
H	-1.841661219	-4.6510407157	-1.2835848786	 0.117303
H	-2.6263366901	-3.1685828865	-1.8580970394	 0.113155
H	-0.7839283353	-3.9824163763	-3.6689478484	 0.112616
H	 1.2217821093	-2.4357223476	-2.8901407247	 0.11305
41.6835	75.3474	107.9424	134.9305	210.6898	309.0505	354.2028	444.936	535.0674	572.9416	620.2499	722.7287	782.144	826.7892	844.8754	913.3517	941.9956	950.3915	956.5204	961.5899	1030.5616	1039.0252	1041.441	1067.8136	1087.0857	1123.9702	1130.3259	1201.9778	1303.7727	1349.7481	1369.6683	1387.0805	1400.7386	1425.6599	1471.3725	1481.4135	1511.9938	1689.4336	1732.9533	2988.5599	3030.6014	3047.8611	3108.0636	3112.163	3142.2882	3215.8115	3242.7218	3521.8498
CC(=N)OC1OCC=C1	C[C]([NH])O[C@H]1OCC=C1	
InChI=1S/C6H9NO2/c1-5(7)9-6-3-2-4-8-6/h2-3,6-7H,4H2,1H3	InChI=1S/C6H9NO2/c1-5(7)9-6-3-2-4-8-6/h2-3,6-7H,4H2,1H3/t6-/m1/s1
