18
gdb 33940	3.26055	1.41869	1.23102	1.1927	82.49	-0.2291	0.0334	0.2625	1063.1123	0.148911	-364.749015	-364.741554	-364.74061	-364.780541	30.701	
C	 0.0164544136	-1.1939172564	-0.0757669472	-0.37284
C	 0.0397606368	 0.0055464045	 0.0193581466	 0.146001
C	 0.0452297363	 1.4319253949	 0.1330119304	 0.193082
N	 0.290201779	 2.2567072146	-1.0879896326	-0.373685
C	 1.2969451853	 2.2496156006	-0.0177217485	-0.086496
C	 1.2285134795	 3.4397967442	 0.9329895491	-0.23637
C	-0.1365385065	 3.3621525191	 1.6269197786	-0.04237
C	-1.4034459549	 3.4660953638	 0.8150689882	-0.288368
C	-0.8512413126	 2.1065482366	 1.161901823	-0.096945
H	 0.0018892828	-2.2522812378	-0.1590200888	 0.188409
H	 0.5896523963	 1.6411064187	-1.8410684504	 0.236579
H	 2.253710197	 1.7747404759	-0.2118808102	 0.097624
H	 2.0248957262	 3.3441183698	 1.6790274721	 0.105197
H	 1.3861877726	 4.3856794066	 0.4035307501	 0.113818
H	-0.1811273091	 3.664168361	 2.6676149985	 0.084261
H	-2.2974286443	 3.7825684813	 1.3420005891	 0.103161
H	-1.338358376	 3.7804803643	-0.2189489346	 0.140643
H	-1.384947972	 1.4574701383	 1.8441680466	 0.088298
134.6499	149.7848	267.4296	307.1035	403.141	456.9268	494.1869	520.2601	582.4204	605.8557	659.298	685.3382	701.4392	796.3505	800.7644	842.6812	854.7858	909.1427	926.6804	987.3333	1009.1476	1020.5539	1058.6101	1082.7833	1091.005	1106.6621	1112.8733	1161.2205	1200.9374	1220.6395	1252.1617	1272.3269	1322.1111	1349.0647	1393.1965	1418.1503	1472.4122	1483.0907	2234.3984	3042.5524	3081.5478	3138.3656	3159.788	3164.9603	3194.9727	3235.2311	3497.2224	3502.8301
C#CC12NC1CC1CC21	C#C[C@]12N[C@H]1C[C@H]1C[C@@H]21	
InChI=1S/C8H9N/c1-2-8-6-3-5(6)4-7(8)9-8/h1,5-7,9H,3-4H2	InChI=1S/C8H9N/c1-2-8-6-3-5(6)4-7(8)9-8/h1,5-7,9H,3-4H2/t5-,6-,7+,8-/m1/s1
