15
gdb 81640	4.67721	0.89277	0.81731	2.6895	63.7	-0.2759	-0.0061	0.2698	1340.2806	0.111002	-494.837693	-494.829887	-494.828943	-494.871148	28.589	
O	 0.0430676551	 1.4637054259	-0.1158290106	-0.443093
C	 0.104807011	 0.0836753469	-0.0689856564	 0.196795
C	 0.0730121207	-0.6068178322	 1.3318183783	-0.062609
O	-1.3478554142	-0.1788244191	 1.4516403926	-0.335368
C	-1.2349010235	-0.7083967374	 0.064789408	-0.06262
C	-0.4656138097	-1.8971139157	 0.6786502942	 0.16272
O	 0.398462199	-2.6413050804	-0.1533580416	-0.205215
C	 0.3918703644	-3.9897964117	-0.0406860314	 0.173292
O	 1.088970226	-4.6912395988	-0.7048207577	-0.265134
H	-0.6164034756	 1.7211623128	 0.5444109665	 0.292054
H	 0.8353952858	-0.2717680237	-0.7946669152	 0.124285
H	 0.7127854227	-0.4777828354	 2.2044093276	 0.110242
H	-2.1329446048	-0.698719769	-0.5522933454	 0.110247
H	-1.062612044	-2.5232097626	 1.3451709327	 0.116009
H	-0.3224585929	-4.3495484294	 0.7241756082	 0.088395
40.1789	124.4306	144.9611	288.4367	316.833	349.4179	412.283	461.1072	571.967	689.8374	738.1272	763.3065	805.7267	856.4251	917.3329	922.3701	930.6484	1041.3007	1068.6847	1092.609	1134.3211	1136.5443	1148.2646	1178.4248	1182.5467	1207.8027	1257.2369	1269.7815	1322.5407	1371.6899	1436.8459	1457.7913	1875.8616	2959.9352	3099.4792	3129.7768	3132.638	3141.8029	3745.0811
OC1C2OC1C2OC=O	O[C@H]1[C@H]2O[C@@H]1[C@H]2OC=O	
InChI=1S/C5H6O4/c6-1-8-5-3-2(7)4(5)9-3/h1-5,7H	InChI=1S/C5H6O4/c6-1-8-5-3-2(7)4(5)9-3/h1-5,7H/t2-,3+,4-,5-
