18
gdb 72303	2.28383	1.95662	1.54188	3.6329	77.61	-0.2187	-0.0468	0.1719	955.6134	0.147347	-397.986913	-397.978863	-397.977919	-398.018757	31.982	
C	-0.1448319747	 1.6075874986	-0.068031118	-0.525438
C	-0.0644687911	 0.1188220753	 0.0565285216	 0.230414
C	-0.0887246818	-1.0072979055	-0.901616849	-0.090617
N	 1.382284027	-1.474885158	-0.6654130527	-0.351088
C	 1.0500635607	-0.8328363891	 0.621034072	 0.08471
N	 0.7707826713	-1.6150540096	 1.5876806046	-0.162672
C	-0.698389303	-1.4990561841	 1.7355912019	-0.238043
C	-1.1017908162	-0.9147424054	 0.3543633419	 0.230397
N	-2.4566658038	-0.6888200769	-0.0443738665	-0.591879
H	 0.7070960687	 2.0135071534	-0.6246451443	 0.123929
H	-1.0595995186	 1.8878837315	-0.6003508407	 0.136842
H	-0.1599562537	 2.0925918599	 0.9142376838	 0.127841
H	-0.4965324269	-1.0702203481	-1.9054557009	 0.114185
H	 1.9044770192	-0.8237861286	-1.263638957	 0.221909
H	-1.0717253808	-2.5117647662	 1.928453447	 0.117967
H	-1.0631009978	-0.849854418	 2.5484103479	 0.098227
H	-2.9762304483	-1.5607319587	-0.0807031699	 0.238448
H	-2.9328836302	-0.0817045804	 0.6167625584	 0.234867
182.7703	189.4675	201.8449	230.8576	284.1792	340.5225	343.3516	458.7211	517.3821	566.6608	592.501	624.9241	707.3135	750.6291	780.6677	817.1274	886.754	922.6702	937.1716	977.7708	992.2084	1018.3888	1078.8192	1119.8828	1137.2911	1147.982	1167.6473	1185.0854	1236.1113	1252.6982	1285.7654	1323.3563	1408.4376	1453.6011	1482.1466	1491.3484	1496.7406	1612.1964	1655.4137	2970.6309	3026.4965	3053.7026	3087.7547	3101.3293	3168.6192	3359.4799	3488.104	3563.133
CC12C3NC1=NCC23N	C[C@@]12[C@H]3N[C]1[N]C[C@@]23N	
InChI=1S/C6H9N3/c1-5-3-6(5,7)2-8-4(5)9-3/h3H,2,7H2,1H3,(H,8,9)	InChI=1S/C6H9N3/c1-5-3-6(5,7)2-8-4(5)9-3/h3H,2,7H2,1H3,(H,8,9)/t3-,5-,6+/m1/s1
