27
gdb 109536	1.85591	1.24927	1.07889	0.0708	96.85	-0.2457	0.0767	0.3224	1414.7513	0.249013	-353.562972	-353.551114	-353.55017	-353.599159	44.306	
C	 2.3193979284	 2.3321916578	-0.6925968839	-0.372726
C	 1.1537874483	 1.3493854357	-0.5199103423	-0.206243
C	 1.2768984079	 0.1382266806	-1.4251530758	-0.079374
C	 2.0585651289	-1.1230566467	-1.080316778	 0.285991
C	 2.9405290874	-1.73024852	-2.161949362	-0.450476
C	 2.69809811	-1.2834716031	 0.2912966914	-0.453431
C	 0.5343549829	-1.173362437	-1.2205016465	 0.25699
C	-0.3360143053	-1.3752164613	 0.0117163579	-0.448901
C	-0.0963251424	-1.831234328	-2.439808992	-0.449902
H	 3.273762283	 1.8621425769	-0.4334640014	 0.11727
H	 2.3936178371	 2.6775452756	-1.7297981947	 0.112347
H	 2.1943849331	 3.2140763945	-0.056047889	 0.107283
H	 1.089228896	 1.0508601086	 0.530815096	 0.091735
H	 0.209925881	 1.8658858255	-0.7411200217	 0.0936
H	 1.3646499892	 0.4271828485	-2.4730617114	 0.065813
H	 3.9442995649	-1.2901374706	-2.1210838038	 0.109953
H	 3.0549888877	-2.8127946429	-2.0241780082	 0.109145
H	 2.5554572033	-1.5623524188	-3.1695015875	 0.111573
H	 2.1453595558	-0.7992635497	 1.097078395	 0.112669
H	 2.7926442256	-2.3450005521	 0.5510528109	 0.111504
H	 3.7100207488	-0.8608121072	 0.2910660201	 0.111238
H	 0.0428618857	-0.8803882212	 0.9062779987	 0.111715
H	-1.3463221067	-0.9891863314	-0.1698740213	 0.110746
H	-0.4351829883	-2.4426626849	 0.2437363908	 0.110648
H	-0.1655599426	-2.9190470552	-2.3148388323	 0.109581
H	-1.1165266012	-1.4557199934	-2.5853062632	 0.109913
H	 0.4541326815	-1.6364663401	-3.3621814455	 0.111338
70.9784	121.7532	146.1392	163.0106	179.3449	180.3914	198.775	211.1983	267.752	290.3808	312.2214	346.0314	389.7796	410.7234	437.3295	493.9817	543.1073	658.6701	690.2799	767.3743	835.0821	944.6688	952.8273	961.4431	975.6196	984.9271	1004.9759	1020.4432	1057.984	1073.6275	1116.0306	1132.2452	1142.8978	1173.9357	1212.9806	1231.2073	1290.9432	1293.042	1333.6562	1366.1406	1404.6022	1409.3585	1413.6952	1419.4489	1431.8545	1455.4402	1472.9305	1483.434	1485.925	1491.6477	1496.7431	1498.4234	1499.628	1502.0415	1508.2026	1514.9419	1528.362	3016.4491	3017.699	3020.7028	3023.0927	3028.335	3030.7783	3067.638	3069.3621	3071.0334	3073.4032	3075.1445	3092.7827	3101.28	3104.1564	3113.9266	3125.0415	3130.298	3142.4694
CCC1C(C)(C)C1(C)C	CCC1C(C)(C)C1(C)C	
InChI=1S/C9H18/c1-6-7-8(2,3)9(7,4)5/h7H,6H2,1-5H3	InChI=1S/C9H18/c1-6-7-8(2,3)9(7,4)5/h7H,6H2,1-5H3
