20
gdb 89208	2.69818	1.38104	1.16771	3.1273	80.72	-0.2159	-0.0184	0.1975	1156.4813	0.169216	-403.130397	-403.121343	-403.120399	-403.164064	33.959	
C	-0.0230840919	 1.6104724853	 0.20338701	-0.325699
N	 0.0291654557	 0.1683120389	 0.1451550921	-0.072134
C	-1.2107924284	-0.5877118465	 0.4141335645	-0.220107
C	-0.4168341751	-1.5784256681	 1.3058341781	 0.196559
C	-1.0465563059	-2.1171849801	 2.5711777882	-0.49175
C	 0.778815205	-0.564173751	 1.1919136697	-0.049798
C	 1.7003490655	-1.643983628	 0.5736387176	-0.344633
C	 0.4595404313	-2.5594100089	 0.488200757	 0.370823
O	 0.2461998481	-3.6371440297	 0.0147672894	-0.303942
H	 0.9833712747	 2.0238573428	 0.0786580454	 0.12253
H	-0.6431043866	 1.9908892729	-0.61542874	 0.124275
H	-0.4391031038	 2.0009865881	 1.1523455977	 0.089233
H	-1.94177608	-0.0238043567	 1.0171829095	 0.088543
H	-1.7164496437	-0.9839779866	-0.4733193318	 0.113925
H	-1.8211087975	-2.8519575354	 2.3253784257	 0.139419
H	-0.308449991	-2.6190260342	 3.2059035477	 0.122382
H	-1.5093737383	-1.3162161785	 3.1566048072	 0.119625
H	 1.1423283946	 0.0286604184	 2.0356760825	 0.066622
H	 2.2058775772	-1.3959120118	-0.3615632618	 0.130381
H	 2.4260656802	-2.0581589209	 1.2850180313	 0.123748
65.5068	136.0051	186.7831	212.442	229.1524	242.6522	307.9663	315.8221	414.085	459.3156	518.227	587.1415	684.8787	718.1363	749.2602	864.3008	908.0747	957.2761	972.1384	991.7851	1006.2101	1035.4996	1084.6591	1110.3603	1142.733	1149.4751	1173.1006	1184.0929	1225.9688	1236.4775	1247.3439	1279.8771	1322.344	1349.6815	1408.0238	1420.5954	1455.0399	1486.8816	1489.673	1490.6392	1501.1144	1517.1074	1887.6461	2918.2953	2962.586	3028.5082	3038.0313	3054.5868	3057.4269	3074.4765	3096.6602	3098.0965	3100.6058	3122.3816
CN1CC2(C)C1CC2=O	CN1C[C@]2(C)[C@H]1CC2=O	
InChI=1S/C7H11NO/c1-7-4-8(2)5(7)3-6(7)9/h5H,3-4H2,1-2H3	InChI=1S/C7H11NO/c1-7-4-8(2)5(7)3-6(7)9/h5H,3-4H2,1-2H3/t5-,7-/m1/s1
