17
gdb 55079	3.13967	0.98099	0.81559	7.5296	76.16	-0.2331	0.0004	0.2336	1386.7733	0.136013	-455.177325	-455.168535	-455.167591	-455.211248	32.545	
O	 0.0536220313	 0.2683553744	-0.7947566573	-0.349779
C	-0.0333579705	 1.1792999368	-0.0113701749	 0.420018
O	 0.9784879329	 1.5080797399	 0.808124852	-0.390004
C	-1.2988571473	 1.9845708992	 0.1209120823	-0.188728
C	-1.9606943113	 2.1466081202	 1.4793149813	-0.318189
C	-1.3604300772	 3.3474086629	 0.8057260941	 0.052809
N	-0.1501886075	 3.8716142024	 1.3453305515	-0.23396
C	 0.0150579331	 5.1339495935	 1.3967647122	 0.106237
N	 1.1127590876	 5.7214236816	 1.951049401	-0.506173
H	 1.9039179365	 5.1287761538	 2.1522682698	 0.269196
H	 1.3231414789	 6.6730245875	 1.7028987376	 0.26802
H	-1.9597917135	 1.8347882296	-0.7237875258	 0.115482
H	-3.0398578068	 2.0597796975	 1.5292774246	 0.126744
H	-1.4268654319	 1.7536150193	 2.3370270447	 0.136974
H	-2.0478411424	 4.068922701	 0.3624459932	 0.089804
H	 0.7834548581	 2.3856100362	 1.2205217122	 0.294412
H	-0.7388114701	 5.8450021741	 1.0390131314	 0.107138
64.292	118.5928	156.4529	179.8485	249.7954	304.5621	371.9963	378.1189	446.8993	518.7108	542.8085	570.2466	665.3543	768.4172	795.3249	826.5914	848.8857	876.3759	968.6261	974.2321	1014.1202	1044.7324	1071.8491	1112.9684	1124.2445	1185.6147	1225.8225	1279.2807	1305.3733	1359.0942	1367.5436	1438.0686	1480.0246	1492.0679	1635.4288	1763.8804	1847.8216	3058.789	3090.9802	3141.7662	3192.4975	3234.3584	3300.0183	3592.1393	3718.2601
[O-]C(=O)C1CC1NC=[NH2+]	O=C(O)[C@H]1C[C@H]1N=CN	
InChI=1S/C5H8N2O2/c6-2-7-4-1-3(4)5(8)9/h2-4H,1H2,(H2,6,7)(H,8,9)	InChI=1S/C5H8N2O2/c6-2-7-4-1-3(4)5(8)9/h2-4H,1H2,(H2,6,7)(H,8,9)/t3-,4+/m0/s1
