16
gdb 19473	4.92869	1.58554	1.53704	2.6446	65.3	-0.2381	0.0006	0.2387	880.1394	0.130273	-383.670773	-383.663867	-383.662923	-383.702042	26.275	
C	 0.1612253088	 1.3468904607	 0.081280838	-0.244632
O	-0.2507800269	 0.0335175453	-0.2364927379	-0.245337
C	 0.4979741077	-0.5552948632	-1.2431236349	 0.186767
C	 1.7939695482	-1.3649364177	-0.8054720309	-0.033359
O	 0.8921146422	-2.4036966351	-0.3168571527	-0.277699
C	 0.1085525138	-2.0488424596	-1.4971602901	-0.026858
C	 1.0689241031	-2.3859249759	-2.6432668231	-0.087007
C	 2.2267149419	-1.9152551063	-2.1647957807	-0.0824
H	 1.1814407356	 1.3681969173	 0.4911724916	 0.110533
H	 0.1274923193	 2.0060023881	-0.7998099548	 0.108045
H	-0.529515743	 1.7274803668	 0.8364978175	 0.133827
H	 0.6012298699	 0.1026663834	-2.1178829555	 0.066848
H	 2.5246139352	-1.012435091	-0.0792419138	 0.081956
H	-0.9200850157	-2.4046432662	-1.4920091328	 0.086244
H	 0.8262159053	-2.8453301781	-3.5898323636	 0.112317
H	 3.2098251145	-1.8703280186	-2.6097816964	 0.110755
83.1687	169.2809	191.1788	313.1143	398.5699	481.4126	544.4875	628.9706	715.6969	749.681	843.1975	870.8668	892.4009	915.1522	915.427	943.8399	962.9786	1024.469	1026.7393	1136.7999	1150.3293	1153.4941	1181.4581	1192.1295	1218.9064	1234.3554	1246.8193	1303.0014	1308.4749	1383.6954	1482.9114	1489.9549	1507.1569	1604.8896	2980.2911	3006.9009	3031.5603	3123.9219	3138.6657	3146.7342	3231.7656	3258.3387
COC1C2OC1C=C2	CO[C@H]1[C@H]2O[C@@H]1C=C2	
InChI=1S/C6H8O2/c1-7-6-4-2-3-5(6)8-4/h2-6H,1H3	InChI=1S/C6H8O2/c1-7-6-4-2-3-5(6)8-4/h2-6H,1H3/t4-,5+,6-
