23
gdb 119419	3.11303	0.92408	0.82813	1.0674	86.85	-0.2375	0.0819	0.3194	1527.9671	0.204659	-388.269614	-388.259726	-388.258782	-388.304575	37.417	
C	-0.1135109042	 1.5930976271	-0.0876873094	-0.379832
C	-0.1298332497	 0.0636204463	-0.1463132708	-0.158169
C	 0.8904561401	-0.5096714401	-1.1421017731	-0.30274
C	 0.903282774	-2.0118989395	-1.1913454266	 0.329712
C	-0.1081332092	-2.8208524771	-1.9859545464	-0.392442
C	 1.3591080762	-2.9713030788	-2.2843128952	 0.337882
O	 1.9028315925	-2.6391229086	-3.5148023695	-0.46581
C	 2.0328977186	-3.8894332709	-1.261396377	-0.284858
C	 1.523544251	-2.935658214	-0.1280118478	-0.278864
H	 0.870622221	 1.967529265	 0.2158722539	 0.112977
H	-0.3429207623	 2.0292227093	-1.0665513763	 0.11285
H	-0.8493751172	 1.9744831426	 0.6272944914	 0.109124
H	 0.0718704155	-0.3440668936	 0.8527868868	 0.096475
H	-1.13269365	-0.2875786001	-0.4200165954	 0.096841
H	 0.6827567918	-0.1187802031	-2.1467301432	 0.100153
H	 1.8940630484	-0.147218733	-0.8771083621	 0.092084
H	-0.6816999748	-3.6219863866	-1.5221612508	 0.095974
H	-0.651906073	-2.2452394406	-2.7296138881	 0.107067
H	 1.542895372	-3.2374988829	-4.1785403221	 0.28345
H	 1.6975373203	-4.9322435819	-1.2326497571	 0.086897
H	 3.1211953469	-3.8682092191	-1.3537950992	 0.107675
H	 2.3428668257	-2.4655141012	 0.4223014094	 0.100559
H	 0.8233158864	-3.3726939792	 0.5912861888	 0.092995
67.7992	87.688	102.3251	206.9409	234.2974	242.4402	270.4982	311.6469	349.6683	377.6838	447.104	543.2711	606.7641	705.2406	745.2078	776.1786	795.0838	868.381	871.5738	901.2366	930.8686	936.4467	982.7243	1024.6648	1042.2332	1048.8006	1068.8009	1107.3449	1127.8011	1183.2163	1210.2278	1224.7752	1234.1632	1242.0311	1277.109	1301.7249	1311.7442	1336.8354	1346.2157	1388.9546	1411.34	1418.4962	1477.968	1480.8	1482.1963	1493.1182	1499.0376	1510.0391	1522.9592	3003.1818	3020.4545	3027.9474	3035.7694	3037.5726	3046.1365	3059.1623	3090.4638	3091.3178	3094.8232	3099.85	3112.08	3189.0627	3793.3184
CCCC12CC1(O)CC2	CCC[C@@]12C[C@]1(O)CC2	
InChI=1S/C8H14O/c1-2-3-7-4-5-8(7,9)6-7/h9H,2-6H2,1H3	InChI=1S/C8H14O/c1-2-3-7-4-5-8(7,9)6-7/h9H,2-6H2,1H3/t7-,8-/m1/s1
