13
gdb 129508	2.91715	1.65916	1.05775	3.3992	63.21	-0.2354	-0.0429	0.1926	1025.1889	0.089605	-482.243651	-482.235373	-482.234428	-482.277325	29.197	
N	-0.0452489867	 1.3120642309	-0.2405968336	-0.574068
C	 0.1887086555	-0.0224008327	-0.1518136549	 0.518508
O	 1.2663133297	-0.5560229056	-0.1324104855	-0.338397
N	-1.0269841055	-0.7780606212	-0.0921298785	-0.15244
N	-2.2482612613	-0.1379519317	-0.0853154279	-0.115394
N	-3.1648666852	-1.0002135325	-0.0234177011	-0.055671
N	-2.5902921523	-2.2257288355	 0.0116419529	-0.322285
C	-1.1936336191	-2.173554073	-0.0291688158	 0.510527
N	-0.3014831161	-3.0721209606	-0.0175789024	-0.537436
H	 0.7588272016	 1.9136954968	-0.2237298802	 0.275469
H	-0.9741779121	 1.6924673837	-0.187918385	 0.284795
H	-3.1697310658	-3.0455349162	 0.0622004326	 0.287716
H	-0.7146749626	-4.0009741524	 0.0314047894	 0.218675
42.9342	118.2598	154.0075	195.323	214.0725	369.8118	380.775	448.0867	525.1929	554.3412	678.3975	683.0476	711.5199	738.6557	760.0271	764.3361	975.6759	1033.1952	1066.3961	1094.8538	1170.1667	1197.461	1322.6446	1386.0913	1403.5523	1535.7312	1596.9112	1762.5914	1867.3628	3512.1895	3618.6543	3691.0632	3758.7648
NC(=O)N1N=NNC1=N	NC(=O)N1N=NN[C@H]1[NH]	
InChI=1S/C2H4N6O/c3-1-5-6-7-8(1)2(4)9/h(H2,4,9)(H2,3,5,7)	InChI=1S/C2H5N6O/c3-1-5-6-7-8(1)2(4)9/h1,3H,(H2,4,9)(H,5,7)/t1-/m1/s1
