17
gdb 103268	2.78854	1.43779	1.21007	4.8245	68.8	-0.2651	0.001	0.266	1077.7592	0.13353	-458.945986	-458.937321	-458.936376	-458.979274	31.851	
C	 0.2113942866	 0.9952242163	-0.3857341042	-0.255015
O	-0.1169404442	-0.1666899595	 0.3639316506	-0.270192
C	-1.3998742804	-0.6526709569	 0.1459743722	 0.415897
C	-2.4969651323	 0.039658113	 0.9288355979	-0.461736
C	-1.7689969338	-1.2451795543	-1.1777254668	-0.008695
O	-0.5868547293	-1.7500287976	-1.8431367836	-0.258709
C	-0.3856132236	-2.6703792908	-0.814683827	 0.482837
O	 0.4274766285	-3.5304230484	-0.7693974559	-0.320826
C	-1.5472742776	-2.1702322821	 0.0089493369	-0.362663
H	 1.2422787651	 1.245506087	-0.1287870002	 0.138559
H	 0.1447063975	 0.8000327494	-1.462603744	 0.132613
H	-0.4321175074	 1.8477239588	-0.1296881272	 0.108916
H	-2.5466227743	 1.1012475548	 0.6688874698	 0.133281
H	-3.4753626127	-0.4032772	 0.7216644375	 0.126584
H	-2.2984063965	-0.0418580534	 2.0011444547	 0.143712
H	-2.6407007366	-1.0551588375	-1.7893644804	 0.127303
H	-2.2161422289	-2.7634789889	 0.6156037097	 0.128134
101.6415	120.1905	175.1413	196.0044	210.1085	259.5073	323.3968	356.5549	456.0373	514.0851	571.2748	709.8056	726.1086	782.4975	833.5507	860.3901	916.2305	956.2376	961.9118	1023.9082	1053.8115	1077.4242	1097.9244	1122.1767	1153.2763	1177.6328	1222.9157	1251.6789	1271.8247	1378.5925	1412.3994	1474.1354	1482.6054	1494.9596	1497.9021	1504.1083	1955.0108	3006.4121	3044.0093	3072.107	3114.319	3121.4633	3133.4414	3210.9477	3227.3822
COC1(C)C2OC(=O)C12	CO[C@@]1(C)[C@H]2OC(=O)[C@@H]12	
InChI=1S/C6H8O3/c1-6(8-2)3-4(6)9-5(3)7/h3-4H,1-2H3	InChI=1S/C6H8O3/c1-6(8-2)3-4(6)9-5(3)7/h3-4H,1-2H3/t3-,4-,6+/m0/s1
