21
gdb 63770	3.09391	1.15318	1.0079	3.4597	84.07	-0.2373	-0.02	0.2173	1264.1348	0.181123	-387.074575	-387.065488	-387.064544	-387.108092	35.055	
C	 0.2446079061	 1.2063996404	-0.9160562801	-0.452678
C	 0.5475937401	-0.2736972286	-0.6882516323	 0.321841
C	-0.6554007111	-1.1201812373	-1.1232170613	-0.428209
C	 1.8806271642	-0.8756298231	-1.2738785757	-0.301187
C	 2.2363350072	-1.4070297529	 0.1248646682	-0.07759
C	 2.4082799582	-0.2924877677	 1.1375386579	-0.111189
C	 3.0890585751	 1.0004673056	 0.8774220816	 0.136652
O	 3.6402367274	 1.6408617252	 1.7420718064	-0.27236
C	 1.0100476705	-0.7339759054	 0.7100463724	-0.096567
H	 1.0677160393	 1.860096463	-0.6205867096	 0.117532
H	 0.0327014754	 1.3967484113	-1.9746464564	 0.115582
H	-0.6392725632	 1.510593498	-0.3440263915	 0.118377
H	-0.8690110916	-0.9716398888	-2.1873826806	 0.114738
H	-0.4728076063	-2.1871062308	-0.9587664203	 0.114992
H	-1.553072298	-0.8424740179	-0.5589476021	 0.114442
H	 1.6890249884	-1.6755548431	-1.9924170709	 0.107555
H	 2.5862851873	-0.1754048025	-1.7282497706	 0.104153
H	 2.6414338537	-2.3899261489	 0.3330104684	 0.09731
H	 2.6362373526	-0.6485688744	 2.1394075005	 0.109035
H	 3.1055440899	 1.351246388	-0.1747174732	 0.075253
H	 0.3377747749	-1.0964048201	 1.4808690693	 0.092318
73.2018	140.3495	195.936	218.9066	260.6536	273.2062	329.3951	344.2136	375.7367	430.3805	470.3351	576.5774	615.6865	776.0342	808.1011	812.9927	853.8643	924.8273	941.7624	958.7025	978.9248	1005.9673	1010.7427	1016.7631	1047.7559	1056.471	1087.3603	1133.1578	1202.9216	1216.8043	1229.4214	1240.184	1270.0597	1301.2043	1338.8526	1379.2868	1401.8168	1422.7866	1460.9535	1482.7249	1487.0282	1497.2963	1503.7269	1509.0949	1803.3415	2912.5228	3022.8046	3031.4125	3062.8117	3086.7338	3093.2805	3098.989	3111.2727	3123.6624	3146.8028	3163.0432	3185.0068
CC1(C)CC2C(C=O)C12	CC1(C)C[C@H]2[C@@H](C=O)[C@@H]12	
InChI=1S/C8H12O/c1-8(2)3-5-6(4-9)7(5)8/h4-7H,3H2,1-2H3	InChI=1S/C8H12O/c1-8(2)3-5-6(4-9)7(5)8/h4-7H,3H2,1-2H3/t5-,6+,7-/m0/s1
