14
gdb 28984	3.11418	1.5755	1.04663	2.1	83.65	-0.2193	-0.0537	0.1656	1061.5264	0.102209	-395.754496	-395.746884	-395.74594	-395.786361	29.362	
N	-0.0214270331	 1.3531268409	 0.1287726311	-0.581892
C	 0.0057580698	-0.0066595585	 0.0466060265	 0.352429
N	-1.1650436591	-0.6510856033	 0.0340644908	-0.313663
C	-1.1177564914	-1.9823764409	 0.0019866702	-0.010311
C	 0.0806092987	-2.6881313983	-0.0247640769	-0.057091
N	 1.2564335863	-2.058282372	-0.0274251517	-0.299641
C	 1.238715321	-0.7254358516	 0.0071215635	 0.107534
C	 2.4704256023	-0.00778111	-0.0021770752	 0.219868
C	 3.47196758	 0.6627816679	-0.0145981699	-0.368423
H	 0.8163610747	 1.8636946722	-0.0960162675	 0.264711
H	-0.9072831402	 1.7953456641	-0.0545377004	 0.262018
H	-2.0722400322	-2.5029419132	-0.0066639048	 0.115429
H	 0.097974871	-3.7730356397	-0.0509876692	 0.109294
H	 4.3754073324	 1.2213852625	-0.0186942265	 0.199738
113.8252	148.3997	225.0726	354.282	380.1247	396.2747	470.7322	497.3878	537.8233	565.2027	583.6728	604.7281	608.9336	670.1898	740.5075	832.8911	870.5415	916.4913	974.459	1040.0451	1109.0937	1195.3824	1264.9724	1284.3062	1353.532	1457.9683	1493.1378	1579.6141	1588.5166	1635.9219	2215.4047	3156.1964	3182.2051	3498.9925	3595.5432	3722.2736
NC1=NC=CN=C1C#C	Nc1nccnc1C#C	
InChI=1S/C6H5N3/c1-2-5-6(7)9-4-3-8-5/h1,3-4H,(H2,7,9)	InChI=1S/C6H5N3/c1-2-5-6(7)9-4-3-8-5/h1,3-4H,(H2,7,9)
