17
gdb 36486	4.23656	1.0678	0.93154	2.4376	73.92	-0.2521	0.0572	0.3092	1241.9701	0.134928	-421.77109	-421.762956	-421.762012	-421.804253	30.542	
C	-0.1028251662	-1.172859737	-0.0776578803	-0.443576
C	-0.0573264844	 0.0276984255	-0.0794472139	 0.307357
C	 0.0023928988	 1.482957925	-0.0573690086	-0.363899
C	 1.4327961826	 2.0324610658	 0.0444944384	 0.112152
O	 2.1430727427	 1.6716417948	-1.138342133	-0.264507
C	 3.0554682998	 2.6998409424	-1.504459063	-0.105478
C	 2.5190722792	 3.9631896691	-0.8691909172	 0.026749
O	 1.124718549	 4.1692664257	-1.1256017059	-0.248526
C	 1.5115328882	 3.5468041854	 0.1055095568	-0.009738
H	-0.1446643313	-2.2335427718	-0.0895026037	 0.193883
H	-0.4475198824	 1.9016742777	-0.9640358795	 0.152144
H	-0.5764558836	 1.8607379815	 0.7955985758	 0.126296
H	 1.9257962639	 1.6166173169	 0.9385657578	 0.08322
H	 4.070272994	 2.5006052242	-1.123266527	 0.0986
H	 3.0947048562	 2.7399891438	-2.5978185609	 0.123283
H	 3.1316540285	 4.8544780093	-0.768121152	 0.106665
H	 1.281528135	 4.0873667118	 1.0195161363	 0.105375
68.4903	100.9466	150.8422	235.2477	322.9858	349.2391	390.8895	456.3428	539.8845	615.7026	640.0184	696.5489	780.9233	834.8067	840.657	884.7241	920.0234	957.6417	974.8412	994.5364	1033.3343	1068.1095	1092.8398	1113.6715	1122.412	1223.6025	1237.8644	1258.3102	1289.343	1312.1171	1341.7453	1374.2898	1389.3279	1444.8121	1460.1201	1506.0017	2243.3043	2971.9489	2979.9618	3026.0027	3075.2396	3078.5979	3153.386	3166.5511	3508.2442
C#CCC1OCC2OC12	C#CC[C@H]1OC[C@H]2O[C@@H]12	
InChI=1S/C7H8O2/c1-2-3-5-7-6(9-7)4-8-5/h1,5-7H,3-4H2	InChI=1S/C7H8O2/c1-2-3-5-7-6(9-7)4-8-5/h1,5-7H,3-4H2/t5-,6-,7+/m1/s1
