18
gdb 82697	2.75211	1.57177	1.20839	3.8873	76.34	-0.2482	-0.0384	0.2099	1062.1792	0.147448	-401.901506	-401.893532	-401.892588	-401.934073	30.183	
C	-0.0184405461	 1.6410941751	-0.05894727	-0.431928
C	 0.0968379912	 0.1251232455	 0.0252046971	-0.044251
C	 1.1376409048	-0.6620820548	-0.8039636258	-0.030621
C	 2.5365207654	-0.1336834705	-0.4201465697	-0.250323
C	 2.2221656506	-0.7586560438	 0.9250081732	-0.064737
N	 1.2477762743	-1.7213043352	 0.3446080228	-0.172969
C	 0.7552746767	-0.5630974225	 1.2141952019	 0.219067
C	 0.1965023045	-0.833183992	 2.5578667084	 0.057711
O	 0.7785440608	-1.4411012838	 3.4234219484	-0.254349
H	 0.9352595586	 2.1387248929	 0.1367842083	 0.123665
H	-0.3660051191	 1.9510347956	-1.0503912729	 0.123124
H	-0.7414714745	 2.0148501056	 0.6739094804	 0.124415
H	-0.8830277869	-0.3395554632	-0.1366040648	 0.091933
H	 0.9129505467	-0.998925636	-1.8140240784	 0.088362
H	 3.3193011947	-0.7013936855	-0.9290605192	 0.122222
H	 2.7477623573	 0.9364087	-0.4965381252	 0.104994
H	 2.8881244302	-1.0553054185	 1.7265219441	 0.120557
H	-0.8286619092	-0.4311800091	 2.7237554514	 0.073128
91.8522	163.563	190.6001	198.3102	237.2832	283.1239	427.4169	511.7879	567.1358	674.8897	701.736	733.0995	783.4506	825.5193	887.1968	924.4864	938.3278	990.0124	1005.4628	1024.6263	1038.1069	1087.0467	1097.5803	1127.0687	1144.2567	1170.5258	1223.9981	1231.86	1261.2221	1268.804	1319.2928	1364.7324	1402.507	1414.4804	1435.2087	1489.5975	1495.0021	1508.6643	1807.8432	2873.9504	3035.5521	3041.2428	3059.2542	3098.1846	3111.8208	3117.2575	3139.1647	3198.0639
CC1C2CC3N2C13C=O	C[C@H]1[C@H]2C[C@@H]3N2[C@]13C=O	
InChI=1S/C7H9NO/c1-4-5-2-6-7(4,3-9)8(5)6/h3-6H,2H2,1H3	InChI=1S/C7H9NO/c1-4-5-2-6-7(4,3-9)8(5)6/h3-6H,2H2,1H3/t4-,5+,6-,7+,8?/m0/s1
