16
gdb 46929	3.44719	1.41997	1.10564	5.4725	65.08	-0.2772	0.0369	0.3141	1053.1319	0.126349	-475.020952	-475.013594	-475.01265	-475.053274	27.762	
O	-0.0111382877	 0.2393875724	-0.7381770941	-0.342712
C	-0.0140403989	 1.1883095518	-0.0126629582	 0.469887
O	-1.2026921236	 1.6950346982	 0.3979477852	-0.265462
C	-1.4264521893	 2.8111139381	 1.2748795109	-0.078336
C	-0.7842562282	 4.0763981205	 0.764828128	-0.045645
N	-0.0395286196	 4.8615978521	 1.7639625732	-0.335979
C	 0.698441298	 4.0965825297	 0.7443626981	-0.045645
C	 1.3886721483	 2.849439804	 1.2360190579	-0.078336
O	 1.1712568931	 1.7273512794	 0.3651790143	-0.265462
H	-2.5147821181	 2.8964272765	 1.3075578794	 0.130369
H	-1.0794804153	 2.5893082551	 2.2868301595	 0.132183
H	-1.3114159193	 4.603565366	-0.0251101545	 0.10874
H	-0.056385877	 5.8468365896	 1.5146570003	 0.245108
H	 1.1890554978	 4.6376089344	-0.0596233639	 0.10874
H	 2.4747636756	 2.9643582273	 1.2386775795	 0.130369
H	 1.0759299242	 2.618650285	 2.2570770744	 0.132184
75.9999	108.0465	257.9493	278.4732	353.284	390.037	464.6188	519.4136	647.7249	683.0981	760.2791	770.5601	825.8003	851.5442	929.33	972.2651	981.2015	1022.4648	1039.8889	1049.7264	1133.0042	1148.9066	1162.6488	1209.7383	1234.1716	1245.4174	1273.6247	1285.5504	1384.9785	1398.267	1426.4704	1473.1286	1504.009	1528.6722	1862.2624	3065.6143	3078.8464	3113.1762	3122.2069	3151.0922	3161.0774	3516.1788
O=C1OCC2NC2CO1	O=C1OC[C@H]2N[C@H]2CO1	
InChI=1S/C5H7NO3/c7-5-8-1-3-4(6-3)2-9-5/h3-4,6H,1-2H2	InChI=1S/C5H7NO3/c7-5-8-1-3-4(6-3)2-9-5/h3-4,6H,1-2H2/t3-,4+
