19
gdb 41525	3.45486	1.43187	1.05479	1.4767	87.02	-0.2067	-0.0096	0.1971	1140.6685	0.162039	-385.915593	-385.908125	-385.907181	-385.947731	29.32	
C	-0.0551006801	 1.5358357449	 0.0778323227	-0.259634
C	 1.4420490772	 1.9460570336	-0.0668214961	-0.339188
C	 2.2014468847	 0.6312141279	-0.0650296748	 0.306078
C	 3.5107576023	 0.3695827586	-0.1089762457	-0.251335
C	 3.9911616423	-1.0597168156	-0.0247532182	-0.117935
O	 3.0296456862	-1.9457377088	 0.5243155574	-0.247472
C	 1.7529874615	-1.8540375916	-0.0916319689	-0.210655
C	 1.22264609	-0.4528297251	-0.0060398665	 0.283696
C	-0.0257774698	 0.0244042076	 0.0724769596	-0.213933
H	-0.4967643085	 1.9225129645	 1.0053709804	 0.111053
H	-0.6732854098	 1.9333808111	-0.736712134	 0.107736
H	 1.6132914866	 2.4982538606	-0.9968358092	 0.116623
H	 1.7661056524	 2.5997235777	 0.7484649427	 0.116957
H	 4.2622968481	 1.1498525213	-0.1910088768	 0.084796
H	 4.3151583235	-1.417197741	-1.0210882058	 0.092346
H	 4.8641745242	-1.1317070932	 0.633852474	 0.11531
H	 1.818971732	-2.162861553	-1.1506200381	 0.097193
H	 1.1100694249	-2.5731766972	 0.4235875047	 0.116702
H	-0.9279394678	-0.5757239522	 0.1250219528	 0.091661
66.3383	197.4658	206.1318	297.9932	320.0506	375.7557	470.1839	556.0577	607.3316	699.7685	760.2214	790.7362	799.0808	808.3687	874.0549	904.3291	926.9315	982.141	1007.3667	1015.0569	1030.05	1043.7768	1113.3834	1147.2102	1161.2363	1200.1826	1236.5415	1240.325	1276.4178	1287.8709	1309.0382	1322.4608	1362.3305	1399.5358	1417.0865	1473.1451	1483.0721	1491.873	1495.7541	1696.5134	1725.3053	2917.61	2940.5629	3019.2159	3039.9218	3050.2522	3055.0559	3085.5138	3085.7241	3165.7653	3189.0153
C1CC2=CCOCC2=C1	C1CC2=CCOCC2=C1	
InChI=1S/C8H10O/c1-2-7-4-5-9-6-8(7)3-1/h3-4H,1-2,5-6H2	InChI=1S/C8H10O/c1-2-7-4-5-9-6-8(7)3-1/h3-4H,1-2,5-6H2
