18
gdb 91187	4.10317	1.30521	1.07808	1.1739	77.91	-0.233	-0.0042	0.2289	1126.0508	0.150882	-398.158417	-398.151079	-398.150135	-398.190049	29.109	
C	-0.1374290694	 1.5307620034	 0.0797151344	-0.385793
C	 0.0811359852	 0.0248480706	 0.0179426594	 0.056012
C	 0.8642498107	-0.4635306884	-1.2513638992	-0.252276
C	 1.4836194016	-1.7624052256	-0.7193500004	-0.038643
N	 2.8258353589	-2.2588110036	-1.0782439888	-0.259389
C	 3.4243759328	-2.4128416854	 0.0426171208	 0.050322
N	 2.7147734599	-2.0574684445	 1.2088488299	-0.387306
C	 1.6021025591	-1.3786107489	 0.7336794058	 0.387447
N	 0.885261228	-0.4381943192	 1.1910440498	-0.323618
H	 0.8224090946	 2.0575400794	 0.0900406699	 0.115874
H	-0.7103688641	 1.8754572204	-0.7876947707	 0.109653
H	-0.6836116724	 1.8048008814	 0.9864445573	 0.124498
H	-0.8981764113	-0.4767728686	 0.0474437123	 0.080284
H	 0.2249779968	-0.5945345776	-2.1272399513	 0.103472
H	 1.6517553852	 0.2578318831	-1.4966014532	 0.110616
H	 0.775811378	-2.5948639727	-0.8521071898	 0.109176
H	 4.4287817707	-2.8110324689	 0.1470815986	 0.135517
H	 3.1823323655	-1.7963532347	 2.063886035	 0.264154
109.6248	206.7627	237.954	281.788	310.829	455.7098	474.5222	548.222	578.4683	600.8155	670.9824	744.6995	822.4407	845.1223	887.832	906.9731	928.1192	954.7204	984.5623	1047.3417	1063.9503	1097.0715	1124.5298	1136.422	1177.2207	1222.8011	1260.7825	1299.0517	1311.7039	1326.4793	1346.1559	1369.3198	1378.81	1407.5402	1484.1803	1488.6722	1497.3343	1649.0005	1767.4248	2986.2576	2992.8137	3034.8002	3051.4011	3104.0931	3114.857	3117.4485	3194.3204	3627.5348
CC1CC2N=CNC2=N1	C[C@H]1C[C@H]2[N][CH]N[C]2[N]1	
InChI=1S/C6H9N3/c1-4-2-5-6(9-4)8-3-7-5/h3-5H,2H2,1H3,(H,7,8,9)	InChI=1S/C6H9N3/c1-4-2-5-6(9-4)8-3-7-5/h3-5H,2H2,1H3,(H,7,8,9)/t4-,5+/m0/s1
