15
gdb 34648	3.57783	1.18523	0.91508	3.7251	75.53	-0.2672	-0.0526	0.2145	1193.9085	0.113838	-416.818199	-416.810223	-416.809279	-416.851574	28.435	
N	 0.0510648529	-1.1862498325	-0.2539757725	-0.326437
C	-0.0364907976	-0.0485584831	-0.0548781854	 0.233052
C	-0.0849530407	 1.3604298357	 0.2067922604	 0.116636
C	-1.2585538806	 1.9920135932	 0.0969845721	-0.146332
C	-1.5373338808	 3.4343563395	 0.3834241505	-0.141381
O	-0.5495999916	 4.396301232	 0.0235750865	-0.217762
C	 0.7260027224	 4.3179869891	 0.4847857113	 0.130927
N	 1.4788599442	 3.3538667397	 0.7731298432	-0.257291
C	 1.2552617965	 1.9431783124	 0.6277082677	-0.234633
H	-2.1329903014	 1.407326308	-0.1747405775	 0.12781
H	-2.42993411	 3.7463868871	-0.1646524144	 0.14094
H	-1.7638285165	 3.5490036195	 1.4548135114	 0.139605
H	 1.1234332246	 5.3304556405	 0.5631434462	 0.128978
H	 1.5349730979	 1.4588174217	 1.5748370085	 0.150966
H	 2.0099531406	 1.5825597973	-0.0853664379	 0.154922
51.3745	117.9708	156.3865	177.3194	303.7656	370.9383	412.4319	460.8239	549.8507	559.8592	627.1535	746.0567	850.0531	863.4836	935.9656	951.1842	976.7782	1003.8391	1037.4434	1073.3415	1139.6672	1199.2231	1286.352	1299.5635	1354.1155	1394.2037	1415.7904	1437.7335	1453.0271	1483.9944	1725.3424	1789.7897	2334.8352	2993.0709	3007.4181	3025.0428	3096.4003	3135.1798	3172.5298
N#CC1=CCOC=NC1	N#CC1=CCOC=NC1	
InChI=1S/C6H6N2O/c7-3-6-1-2-9-5-8-4-6/h1,5H,2,4H2	InChI=1S/C6H6N2O/c7-3-6-1-2-9-5-8-4-6/h1,5H,2,4H2
