16
gdb 12173	3.77843	1.37558	1.07348	0.6642	67.56	-0.2551	-0.0331	0.222	1061.9619	0.127899	-383.762021	-383.753742	-383.752798	-383.795343	29.204	
C	-0.506245376	 1.2898271609	 0.0055491824	-0.412819
C	 0.1351053714	-0.0850176196	 0.1071580666	-0.109451
C	 0.9635057059	-0.6702152981	-1.0982202113	-0.090567
C	 2.0514293824	-1.1751031851	-0.0931825604	-0.370822
C	 1.4050953798	-0.2597783184	 0.9575868055	 0.394107
O	 1.7891433543	 0.2458426975	 1.9697783706	-0.286964
C	 0.2686392615	-1.7309861431	-1.9022417783	 0.160023
O	 0.09134973	-1.7038625661	-3.0917734659	-0.247796
H	 0.221355971	 2.0391859199	-0.3205730787	 0.129174
H	-1.3369933713	 1.2875202845	-0.7062745077	 0.131927
H	-0.8914115403	 1.5998237845	 0.9811993175	 0.141905
H	-0.600809549	-0.8346770683	 0.4340220691	 0.108699
H	 1.3334401247	 0.1155295515	-1.7594188506	 0.104301
H	 1.9192245338	-2.2331209218	 0.1649650545	 0.136341
H	 3.1006009075	-1.0001050449	-0.3379381173	 0.143444
H	-0.0970451658	-2.5880020733	-1.2834045261	 0.068499
72.4069	75.2704	178.8558	190.0042	239.1268	281.3021	355.4029	434.0147	470.9585	567.5978	688.1264	742.4073	792.1647	856.0484	922.91	994.3654	1036.1031	1039.3271	1071.8831	1118.9679	1141.3352	1176.9541	1209.4577	1221.8546	1243.949	1298.953	1342.9964	1408.2071	1428.5089	1441.8373	1492.4778	1493.9472	1833.1327	1897.6809	2825.9645	3007.188	3042.1038	3044.3665	3103.4827	3113.8961	3118.2911	3127.3194
CC1C(CC1=O)C=O	C[C@H]1[C@@H](CC1=O)C=O	
InChI=1S/C6H8O2/c1-4-5(3-7)2-6(4)8/h3-5H,2H2,1H3	InChI=1S/C6H8O2/c1-4-5(3-7)2-6(4)8/h3-5H,2H2,1H3/t4-,5-/m0/s1
