19
gdb 117502	2.32433	0.82115	0.63515	3.3142	86.34	-0.2493	0.0121	0.2615	1803.3879	0.157012	-382.047345	-382.03633	-382.035386	-382.085604	37.016	
C	-0.0370521342	 1.5152123351	 0.0597591469	-0.393833
C	-0.1917992861	 0.0081746627	-0.1150607397	-0.11791
N	 0.8471805691	-0.5091434922	-1.0090075182	-0.272281
C	 0.7907726508	-1.9503009165	-1.2403797156	-0.29737
C	-0.5073454744	-2.4028909817	-1.823057672	 0.280457
N	-1.5380813754	-2.6914832893	-2.2596395252	-0.33513
C	 1.8964730864	-2.3962957494	-2.0893462736	 0.017401
C	 2.8001034491	-2.7570905404	-2.7957341201	 0.176624
C	 3.8955950053	-3.1945357921	-3.6471930151	-0.502512
H	 0.9581303823	 1.7621650064	 0.4397204451	 0.13042
H	-0.1768723554	 2.0381937345	-0.8931403761	 0.118842
H	-0.7852962998	 1.898311289	 0.759287536	 0.123168
H	-0.0704371082	-0.4936681515	 0.8538118614	 0.107775
H	-1.2100083353	-0.226545959	-0.4672957338	 0.110907
H	 0.8174336159	-0.0287811002	-1.9035664245	 0.229786
H	 0.8716405764	-2.4372750192	-0.2577004592	 0.152849
H	 4.4028300203	-4.0662741357	-3.2204964241	 0.156269
H	 3.5348600451	-3.4707980046	-4.6435451007	 0.158219
H	 4.6403693881	-2.4007399259	-3.7679854416	 0.156321
22.647	70.8472	79.8441	82.016	108.9681	189.2133	235.7485	256.904	269.6113	328.3604	383.3163	385.0617	479.6296	541.0193	623.6454	749.5276	813.8634	826.4333	910.4739	936.0739	1034.1072	1052.313	1053.4832	1117.4141	1145.2086	1176.7691	1188.3012	1285.214	1314.2948	1327.2066	1397.1478	1413.6807	1417.368	1475.4078	1476.4088	1480.8493	1497.5808	1501.5518	1523.2107	2344.2901	2384.0689	2969.0334	3006.3957	3033.1189	3033.9523	3039.1346	3096.9443	3097.7804	3104.5191	3123.8557	3516.4645
CCNC(C#N)C#CC	CCN[C@@H](C#N)C#CC	
InChI=1S/C7H10N2/c1-3-5-7(6-8)9-4-2/h7,9H,4H2,1-2H3	InChI=1S/C7H10N2/c1-3-5-7(6-8)9-4-2/h7,9H,4H2,1-2H3/t7-/m1/s1
