19
gdb 38903	3.46763	1.41865	1.1463	2.3282	73.14	-0.2461	0.0767	0.3228	1074.4236	0.161794	-422.996006	-422.988827	-422.987882	-423.028003	28.521	
C	-0.0388030101	 1.5901383658	-0.1506736555	-0.091704
O	 1.2440101183	 1.5461952854	-0.8109016562	-0.293029
C	 1.3132536939	 0.1064483786	-0.6819574952	 0.141621
C	 2.5772391508	-0.3914653905	 0.0349587485	-0.272163
C	 2.2655631676	-1.6520052217	 0.8305003758	 0.043531
O	 2.331486975	-1.5507755983	 2.2581573219	-0.249811
C	 1.039515553	-1.6384384492	 1.6504934546	 0.049227
C	 0.207692217	-0.3634791558	 1.6104081136	-0.273734
C	 0.0067554905	 0.0767506863	 0.1519872139	-0.054067
H	-0.0301765489	 2.2580257525	 0.7200624046	 0.101867
H	-0.8383288486	 1.9065110376	-0.8326868013	 0.099235
H	 1.2147947529	-0.3720508499	-1.66552816	 0.073775
H	 3.38913142	-0.5610224852	-0.6774618369	 0.105805
H	 2.9078207175	 0.3855174106	 0.729689603	 0.129063
H	 2.6320205392	-2.5994253055	 0.4384663775	 0.093309
H	 0.518351098	-2.5748091927	 1.8452582176	 0.092195
H	-0.7547579767	-0.501436624	 2.1120613323	 0.10448
H	 0.7523277271	 0.4071899634	 2.1655253148	 0.123082
H	-0.7978265064	-0.4989974972	-0.3113853131	 0.077319
66.8041	134.0989	317.2216	351.4669	368.8249	421.8592	479.5336	510.3747	636.6447	780.6873	789.5251	815.6412	825.0647	880.4331	909.3147	970.5678	988.8825	993.5167	1024.0826	1051.5244	1066.1224	1075.8261	1097.1446	1141.1498	1151.2505	1166.1982	1173.6358	1229.2134	1252.9641	1274.2427	1286.3024	1313.853	1324.5707	1362.6378	1370.1095	1379.9336	1390.0089	1452.3433	1480.6982	1495.741	1525.4225	3003.5582	3010.4913	3047.6623	3050.3942	3061.6738	3073.8333	3095.2603	3107.0703	3115.6539	3128.1115
C1OC2CC3OC3CC12	C1O[C@H]2C[C@H]3O[C@H]3C[C@@H]12	
InChI=1S/C7H10O2/c1-4-3-8-5(4)2-7-6(1)9-7/h4-7H,1-3H2	InChI=1S/C7H10O2/c1-4-3-8-5(4)2-7-6(1)9-7/h4-7H,1-3H2/t4-,5-,6-,7+/m0/s1
