20
gdb 11302	4.72016	1.15732	0.99677	3.0271	76.11	-0.245	-0.0158	0.2293	1199.9894	0.177335	-349.038455	-349.030048	-349.029104	-349.072217	30.928	
C	-0.1390350502	 1.5338197672	-0.0263513706	-0.409737
C	 0.0459202873	 0.0174062767	-0.0133587105	 0.06139
C	 0.8534577042	-0.5478265564	-1.1943438843	-0.206499
C	 1.247465281	-1.9518572	-0.7191826616	-0.236294
C	 1.6316020094	-1.7514535506	 0.7722234196	-0.044985
C	 0.7962302358	-0.5153509991	 1.2361888509	-0.249983
C	 1.3291079562	-2.9800463292	 1.593455686	 0.153023
O	 2.136850395	-3.6542120512	 2.1777799299	-0.25333
H	 0.8305010174	 2.0453491455	-0.0061473322	 0.114027
H	-0.6715233962	 1.8624089058	-0.9251237632	 0.114693
H	-0.7127236737	 1.8745693557	 0.842086388	 0.115462
H	-0.9470605048	-0.4519629138	-0.0396353343	 0.072015
H	 0.2900461463	-0.5549764244	-2.1324815778	 0.096979
H	 1.7532437762	 0.0607628133	-1.3565720005	 0.097312
H	 0.3797711879	-2.6213270555	-0.7939677551	 0.10052
H	 2.057387595	-2.4076806303	-1.2939113925	 0.109519
H	 2.7023273257	-1.5522345258	 0.8627541262	 0.090493
H	 1.4678655845	 0.2482695647	 1.6409502813	 0.109084
H	 0.0982000062	-0.7713675852	 2.041194378	 0.10273
H	 0.2406592068	-3.2375294771	 1.6200516026	 0.063583
35.2862	74.5461	186.0627	239.4668	261.2311	339.9934	351.2413	387.8111	443.1938	545.2266	646.1778	801.1603	834.5834	879.7789	907.7695	919.768	957.292	979.8314	997.573	1036.4459	1056.2341	1089.0928	1110.2624	1157.3408	1195.5224	1220.7726	1254.3109	1292.4871	1296.4064	1317.2668	1323.3408	1347.8636	1354.9055	1385.3048	1412.3573	1427.7112	1486.8858	1488.9857	1496.4203	1499.1323	1504.4639	1834.7892	2821.8495	3003.6799	3016.7681	3023.5377	3027.4238	3039.2608	3070.6545	3083.1904	3085.4153	3093.4999	3097.5086	3102.0607
CC1CCC(C1)C=O	C[C@H]1CC[C@@H](C1)C=O	
InChI=1S/C7H12O/c1-6-2-3-7(4-6)5-8/h5-7H,2-4H2,1H3	InChI=1S/C7H12O/c1-6-2-3-7(4-6)5-8/h5-7H,2-4H2,1H3/t6-,7-/m0/s1
