13
gdb 129249	3.50993	1.62044	1.11645	2.2127	66.78	-0.2599	-0.0354	0.2245	982.2594	0.091798	-452.739282	-452.732938	-452.731994	-452.770168	24.246	
N	 0.0107974694	 1.335028422	 0.0104014851	-0.543646
C	-0.0401399687	 0.0756789114	 0.0038675312	 0.329659
O	 1.0808016813	-0.7589441671	-0.0070786894	-0.270151
C	 0.7256140389	-2.1555544639	-0.012637079	-0.204375
C	-0.7628515871	-2.0859091501	-0.0037479184	 0.365045
C	-1.1993341009	-0.8071492723	 0.0056837025	 0.101285
C	-2.6115199677	-0.9496981107	 0.0129635827	-0.128293
N	-2.9639477287	-2.2141603774	 0.0081704877	-0.126027
O	-1.7516835565	-2.9625602132	-0.0028369187	-0.22341
H	 0.9778910522	 1.6609784453	 0.0066438595	 0.2314
H	 1.1388100643	-2.6336996922	-0.9081757993	 0.153172
H	 1.1489937716	-2.6433734108	 0.8728710638	 0.153172
H	-3.386794458	-0.197392581	 0.0214679323	 0.16217
164.5687	199.7893	240.6403	304.9064	520.1783	611.2586	623.0029	628.6387	641.9158	743.4325	777.2686	824.4246	869.9462	921.4652	950.4306	974.5222	1027.5085	1031.6185	1131.0377	1183.88	1185.2947	1237.4953	1327.4647	1415.1213	1444.6242	1497.6566	1529.7206	1638.4744	1790.7454	3036.088	3074.1397	3256.2081	3491.1272
N=C1OCC2=C1C=NO2	[NH][C]1OCc2c1cno2	
InChI=1S/C5H4N2O2/c6-5-3-1-7-9-4(3)2-8-5/h1,6H,2H2	InChI=1S/C5H4N2O2/c6-5-3-1-7-9-4(3)2-8-5/h1,6H,2H2
