13
gdb 27376	2.05742	1.97924	1.01513	5.0893	62.51	-0.2646	-0.0462	0.2184	1077.4168	0.089301	-489.957189	-489.949546	-489.948602	-489.989968	27.419	
C	-0.0102460428	 1.4547815367	 0.1273032668	-0.471753
C	-0.022430461	-0.0245447477	-0.0502013579	 0.405905
N	-0.1472686536	-0.6232089328	-1.1574637661	-0.322133
C	-0.1419907868	-2.0529713925	-1.1826838481	 0.392012
O	-0.2583276534	-2.6467110174	-2.2191310389	-0.317572
N	 0.0041102274	-2.7237028528	 0.0491653748	-0.422294
C	 0.1217280547	-2.0125612757	 1.0992004193	 0.500501
O	 0.2651098541	-2.5210450208	 2.3141219247	-0.373275
O	 0.1228979731	-0.6687321655	 1.1728058072	-0.21041
H	 0.9293308031	 1.7701172555	 0.5920328144	 0.160421
H	-0.1254513843	 1.9340999044	-0.8432300885	 0.170086
H	-0.8220932997	 1.7601879016	 0.7950242763	 0.160414
H	 0.2580064692	-3.4840296832	 2.206749356	 0.328097
77.1174	124.6944	177.3061	204.3552	297.7988	385.7896	539.1356	551.6574	582.0176	594.7121	608.5787	647.1529	758.2206	824.736	903.1708	936.7239	970.6322	1064.8999	1084.9768	1144.3503	1227.6674	1299.4076	1407.0798	1464.7219	1467.8021	1472.3985	1659.078	1766.0933	1848.1482	3052.1886	3111.5327	3178.3564	3765.9303
CC1=NC(=O)N=C(O)O1	Cc1nc(=O)nc(O)o1	
InChI=1S/C4H4N2O3/c1-2-5-3(7)6-4(8)9-2/h1H3,(H,6,7,8)	InChI=1S/C4H4N2O3/c1-2-5-3(7)6-4(8)9-2/h1H3,(H,6,7,8)
