23
gdb 94319	2.50878	1.35036	1.09477	1.63	86.35	-0.2191	0.0783	0.2974	1253.9504	0.203569	-388.270556	-388.260496	-388.259552	-388.305221	37.925	
C	-0.3517707129	 1.4100830453	 0.0608327005	-0.406769
C	 0.0675441464	-0.0475300141	-0.0668900511	-0.122435
C	 1.4177478162	-0.3336202695	-0.7654711068	-0.086331
O	 1.9614989804	-0.949546766	 0.423082085	-0.311109
C	 0.7457933865	-0.7076372911	 1.1381799874	 0.43704
C	 0.7642864734	-0.3130257079	 2.5834849914	-0.408529
C	 0.2256368005	-1.679038116	 2.1556175794	 0.249866
C	-1.2717062613	-1.9030081318	 2.2391629185	-0.454617
C	 1.076151243	-2.8975139319	 2.4582859164	-0.451877
H	 0.4612866053	 2.018875456	 0.4695503367	 0.124316
H	-0.629332638	 1.8237615751	-0.9147863548	 0.115637
H	-1.2170134114	 1.5191294818	 0.7236032108	 0.118463
H	-0.7545984864	-0.6458029951	-0.4711379583	 0.080706
H	 1.3887303453	-1.032743952	-1.6091405077	 0.101328
H	 1.9867809296	 0.5588174913	-1.0551862176	 0.099063
H	 1.7359941119	-0.2828474232	 3.0666136462	 0.115373
H	 0.061515818	 0.4384465393	 2.9322990083	 0.104825
H	-1.8346875324	-1.0009210886	 1.9788236635	 0.111404
H	-1.591457004	-2.7032380917	 1.5609064537	 0.113773
H	-1.5658707272	-2.1928261786	 3.2549488539	 0.116307
H	 0.9425835577	-3.2199343602	 3.4975132968	 0.109527
H	 0.7975570508	-3.736800939	 1.8102556047	 0.111216
H	 2.1362713584	-2.6931028421	 2.292432833	 0.13282
55.1259	130.7923	155.0843	191.0909	216.0732	233.6848	256.3692	261.066	349.9344	377.2293	422.1182	435.3097	540.2019	567.5028	725.5829	768.5543	875.6582	893.0226	906.7366	912.6843	931.4884	975.7012	984.232	1020.011	1031.9737	1041.9911	1069.0777	1119.6902	1144.3952	1156.3921	1166.9541	1190.3379	1222.8938	1270.7603	1292.6915	1341.7916	1372.945	1405.8645	1410.2006	1413.3072	1424.171	1478.8836	1482.8433	1491.0889	1495.7843	1497.0516	1500.8802	1514.9261	1527.1412	3013.8919	3018.9508	3025.7261	3029.0691	3051.0022	3066.6887	3078.1294	3081.5411	3094.2403	3095.3722	3105.4805	3117.2375	3123.5678	3206.1177
CC1COC11CC1(C)C	C[C@H]1CO[C@]21CC2(C)C	
InChI=1S/C8H14O/c1-6-4-9-8(6)5-7(8,2)3/h6H,4-5H2,1-3H3	InChI=1S/C8H14O/c1-6-4-9-8(6)5-7(8,2)3/h6H,4-5H2,1-3H3/t6-,8-/m0/s1
