16
gdb 65761	2.68488	1.37171	1.17982	4.6982	65.93	-0.2378	-0.0412	0.1966	1078.2508	0.122417	-475.04689	-475.038045	-475.037101	-475.080902	31.657	
O	-0.1387008488	 1.4260287446	 0.2851810819	-0.477151
C	-0.0315154215	 0.0454079278	 0.0874225391	 0.268923
C	 0.9356297991	-0.6175503665	 1.0719891802	-0.366889
C	 2.3261597403	-0.0153644982	 1.0496007497	 0.173626
O	 2.585425212	 1.0981367597	 0.6582317486	-0.248224
C	-1.4340163265	-0.6196682018	-0.051517853	-0.205148
N	-1.0458013514	-1.0183138463	-1.4074551026	-0.329911
C	 0.182646394	-0.4085930375	-1.4052481227	 0.372059
O	 1.050723749	-0.2923813853	-2.2273723084	-0.358662
H	 0.7675674653	 1.7718023476	 0.2448974826	 0.302086
H	 0.5623881803	-0.4957473464	 2.1005360377	 0.145058
H	 1.0125825143	-1.6968011871	 0.8949493349	 0.129762
H	 3.1287263234	-0.6647058322	 1.4588308743	 0.102386
H	-1.6407361817	-1.4568578379	 0.6229261448	 0.108132
H	-2.2412451163	 0.115983706	-0.0053444065	 0.130165
H	-1.5683548316	-1.4593417866	-2.1497846105	 0.253787
80.4899	88.402	110.6056	189.7452	226.7861	276.0675	301.9976	373.2799	480.3807	542.3391	585.671	607.2767	706.199	751.9191	776.0438	850.4938	887.9484	939.6564	972.2981	995.908	1054.9751	1150.142	1155.2228	1176.828	1210.6473	1257.1207	1306.813	1334.0079	1383.4256	1419.0784	1433.5036	1451.2592	1518.8687	1810.049	1895.0291	2911.6928	3008.1678	3044.1083	3069.2733	3103.5965	3610.2609	3687.4028
OC1(CC=O)CNC1=O	O[C@@]1(CC=O)CNC1=O	
InChI=1S/C5H7NO3/c7-2-1-5(9)3-6-4(5)8/h2,9H,1,3H2,(H,6,8)	InChI=1S/C5H7NO3/c7-2-1-5(9)3-6-4(5)8/h2,9H,1,3H2,(H,6,8)/t5-/m0/s1
