21
gdb 65202	3.05582	1.3687	1.14213	1.4716	81.5	-0.2331	0.0842	0.3173	1155.286	0.182184	-387.032392	-387.023961	-387.023017	-387.065272	33.449	
C	 0.6705274217	 1.1970422402	 1.3268493605	-0.457003
C	 0.0581010191	 0.2340975903	 0.3257519839	 0.324295
C	 0.5676097002	 0.2574397287	-1.0945972638	-0.300789
C	 0.916076386	-0.898839075	-0.188483822	-0.304113
C	-1.383515074	-0.0957216429	 0.6347980589	 0.087236
O	-2.244020417	 1.0727367022	 0.8444735315	-0.308179
C	-3.2549544598	 0.4843030287	 0.0261637924	 0.107896
C	-2.8000485958	 0.3909173419	-1.3887356108	-0.293844
C	-2.3691637255	-0.6700486809	-0.38580426	-0.173243
H	 1.724215015	 1.3831526609	 1.097555361	 0.10808
H	 0.1400436208	 2.1536447301	 1.3159240032	 0.136725
H	 0.6150562872	 0.7958984831	 2.3459870085	 0.112857
H	-0.125653601	 0.0614918306	-1.9027952112	 0.11846
H	 1.3464804468	 0.9732925627	-1.3360043001	 0.107896
H	 1.9293624713	-0.980726507	 0.1907264996	 0.108742
H	 0.4402955183	-1.8532535531	-0.3917396641	 0.10869
H	-1.4155894154	-0.6943800035	 1.5571798134	 0.080608
H	-4.2816715125	 0.5322552045	 0.369612239	 0.102451
H	-3.5426088737	 0.0408316881	-2.0995611645	 0.113043
H	-2.1041172536	 1.1302503529	-1.7703590051	 0.122493
H	-2.603575128	-1.7183642325	-0.5090018006	 0.097697
68.2963	173.8693	188.3739	220.8728	292.4077	307.0923	354.4032	408.8787	478.7005	523.1424	714.5557	763.3219	771.986	792.1673	817.1126	870.4162	905.7148	941.8658	954.4995	957.9737	969.348	994.5759	1030.2735	1043.9182	1049.5188	1058.9572	1068.1945	1079.1417	1085.8774	1098.8139	1128.1544	1193.9251	1200.2408	1254.8768	1276.4452	1313.2104	1356.5599	1360.6414	1393.4052	1415.3242	1467.0907	1471.8067	1488.408	1501.3397	1512.1465	2990.5453	3027.5201	3091.2249	3112.4428	3124.901	3125.6018	3140.3923	3180.3408	3204.0574	3205.631	3217.4804	3231.4695
CC1(CC1)C1OC2CC12	CC1(CC1)[C@H]1O[C@H]2C[C@@H]12	
InChI=1S/C8H12O/c1-8(2-3-8)7-5-4-6(5)9-7/h5-7H,2-4H2,1H3	InChI=1S/C8H12O/c1-8(2-3-8)7-5-4-6(5)9-7/h5-7H,2-4H2,1H3/t5-,6+,7+/m1/s1
