23
gdb 75575	2.25118	1.45073	1.0828	0.2287	93.54	-0.2201	0.0249	0.245	1251.1965	0.207442	-351.169491	-351.160509	-351.159565	-351.203103	35.311	
C	-0.2352904809	 1.5856698662	 0.1371148794	-0.477905
C	-0.0334878283	 0.0992063404	-0.0213061213	 0.327478
C	 0.0470944361	-0.4592456717	-1.2327591158	-0.140851
C	 0.2880193616	-1.9153874875	-1.5213926887	-0.248164
C	 1.7946521074	-2.2456729338	-1.6201614392	-0.181185
C	 2.599406177	-1.7188625905	-0.411420965	-0.240151
C	 2.0622188884	-2.1903923938	 0.9179461231	-0.069729
C	 0.9857075706	-1.7624004625	 1.581555529	-0.021585
C	-0.0250011938	-0.6744958428	 1.2909714888	-0.348915
H	 0.5876267803	 2.0394607473	 0.7051102919	 0.121965
H	-0.3031231519	 2.0924673462	-0.829129881	 0.116813
H	-1.1533222146	 1.803477835	 0.6994518873	 0.119811
H	 0.0037151815	 0.2005245985	-2.0986599302	 0.070068
H	-0.1550229134	-2.5358247392	-0.7367776098	 0.107324
H	-0.2009748898	-2.1983156487	-2.4605772914	 0.091451
H	 1.9146527447	-3.3322056111	-1.7080034887	 0.092835
H	 2.2138051166	-1.8073490425	-2.5344089852	 0.091465
H	 3.6409404949	-2.041591859	-0.5139618356	 0.089683
H	 2.6069085272	-0.6264655844	-0.4493735655	 0.110652
H	 2.610535094	-3.0118421079	 1.376390342	 0.078692
H	 0.7724524035	-2.2600963347	 2.5280985803	 0.079086
H	 0.0460435431	 0.0510291952	 2.1145383302	 0.109786
H	-1.0241993643	-1.1204135588	 1.4286450755	 0.121376
49.4736	138.1641	219.0857	241.4922	262.9365	274.5872	342.7912	358.0067	422.1966	474.1104	527.4418	558.2386	679.008	714.3634	784.716	809.0392	850.6246	862.6007	885.5483	935.7773	979.6534	989.1347	1015.285	1034.1685	1060.7742	1064.8755	1073.175	1109.5281	1153.017	1191.6223	1222.897	1258.2005	1290.0037	1301.0193	1328.4781	1356.5645	1368.9183	1373.6991	1397.0442	1412.8229	1433.7677	1462.0538	1480.6571	1482.3917	1491.2197	1496.305	1497.854	1728.4029	1737.9851	2971.4944	3005.4895	3010.7535	3020.7701	3039.7464	3048.6812	3052.8729	3059.0046	3085.0092	3091.7466	3108.9761	3110.4589	3128.482	3141.3649
CC1=CCCCC=CC1	CC1=CCCCC=CC1	
InChI=1S/C9H14/c1-9-7-5-3-2-4-6-8-9/h3,5,8H,2,4,6-7H2,1H3/b5-3-,9-8-	InChI=1S/C9H14/c1-9-7-5-3-2-4-6-8-9/h3,5,8H,2,4,6-7H2,1H3/b5-3-,9-8-
