20
gdb 9824	3.68464	1.42281	1.13917	2.5862	75.88	-0.2393	-0.0064	0.2329	1120.9038	0.175043	-349.025497	-349.016297	-349.015353	-349.059636	33.743	
C	-0.0597883428	 1.553762492	 0.0134118326	-0.376248
C	 0.2241521912	 0.0540704003	 0.0110828193	-0.293145
C	 0.4267497476	-0.518317682	-1.385937756	 0.321038
O	 0.3572304912	 0.1929601532	-2.368930733	-0.330613
C	 0.7154946521	-1.9908185042	-1.5148765255	 0.249405
C	 0.7959948321	-2.8505342423	-0.267850279	-0.486642
C	 0.1604263819	-2.6244824108	-2.787823674	-0.27453
C	 1.6217392586	-2.3465156161	-2.6905059087	-0.27453
H	 0.7636573905	 2.1072313231	-0.4446845279	 0.130739
H	-0.9602315924	 1.7809972296	-0.5625771752	 0.130825
H	-0.1985784126	 1.9183103358	 1.035226723	 0.105734
H	 1.1152166276	-0.1801948485	 0.6093743451	 0.121809
H	-0.5905567958	-0.5028569664	 0.493775697	 0.121868
H	-0.1441726822	-2.8498697071	 0.2941880105	 0.121174
H	 1.0107687677	-3.8886000586	-0.5382998044	 0.116812
H	 1.5914834027	-2.5207097013	 0.4090776498	 0.121191
H	-0.1854147516	-3.6495297915	-2.7101238422	 0.111949
H	-0.4273761662	-1.9755964462	-3.4260746252	 0.135605
H	 2.0080748203	-1.5122906183	-3.2638701498	 0.135617
H	 2.3053138798	-3.1757949808	-2.5442925662	 0.111944
40.7374	81.0261	192.7797	199.7378	217.9463	287.6137	310.1281	321.3837	351.5744	415.0489	557.7621	573.4465	714.0737	795.1097	803.8273	837.2104	842.5839	951.2739	959.692	989.5429	1026.5601	1071.6463	1076.1949	1086.3099	1092.4795	1120.0508	1126.3841	1205.458	1280.9707	1308.6269	1315.4601	1379.0369	1413.5476	1420.5698	1447.6876	1449.9184	1481.5627	1491.6648	1494.8384	1497.5464	1501.1905	1774.2639	3019.0622	3030.6329	3045.9009	3051.2093	3090.9714	3102.2102	3121.9852	3128.8175	3135.7253	3137.8758	3226.4343	3239.8091
CCC(=O)C1(C)CC1	CCC(=O)C1(C)CC1	
InChI=1S/C7H12O/c1-3-6(8)7(2)4-5-7/h3-5H2,1-2H3	InChI=1S/C7H12O/c1-3-6(8)7(2)4-5-7/h3-5H2,1-2H3
