16
gdb 53906	2.11863	1.45728	1.11384	2.0384	69.36	-0.2685	-0.0401	0.2284	1134.303	0.121607	-437.889003	-437.879747	-437.878803	-437.923949	32.099	
C	 0.5238824662	 0.2161993498	-1.0487614229	-0.493496
C	-0.0670204847	 0.0493270881	 0.3263699254	 0.395845
O	 0.4573918301	 0.4186024633	 1.3454441874	-0.289793
C	-1.413679755	-0.7328845232	 0.4333502291	-0.291893
C	-2.3077956024	-0.5136172306	-0.6986174156	 0.29464
N	-3.0169335393	-0.3259620494	-1.5917594887	-0.334497
C	-1.0624416788	-2.2121022544	 0.6313389377	 0.079289
C	-1.8287507945	-3.3147311123	 0.0424342721	-0.189934
O	-0.566653894	-2.906408876	-0.5045648523	-0.225009
H	 1.5195339517	 0.65310021	-0.9725420961	 0.147988
H	 0.5628554022	-0.7573666407	-1.5497541982	 0.17484
H	-0.1212105114	 0.8575594804	-1.6589075098	 0.168146
H	-1.8988050689	-0.3759450222	 1.347876151	 0.154766
H	-0.5059011342	-2.3799224814	 1.5530289548	 0.128504
H	-1.8271428134	-4.2845355826	 0.5358154648	 0.131139
H	-2.6931556835	-3.0957188888	-0.5796534687	 0.149464
52.0093	75.7744	138.7602	160.8861	168.5561	178.7388	337.1698	363.1649	391.9043	480.0994	563.9276	573.0128	658.8392	775.7277	806.2729	881.4423	939.4073	957.6305	1013.0215	1035.7629	1096.8443	1109.8663	1166.3175	1174.215	1195.4219	1235.7005	1284.4917	1319.4552	1387.3896	1413.8925	1460.545	1469.9818	1524.2854	1827.6957	2357.405	3043.382	3069.7895	3100.9177	3106.9165	3123.2625	3162.2966	3197.3025
CC(=O)C(C#N)C1CO1	CC(=O)[C@@H](C#N)[C@H]1CO1	
InChI=1S/C6H7NO2/c1-4(8)5(2-7)6-3-9-6/h5-6H,3H2,1H3	InChI=1S/C6H7NO2/c1-4(8)5(2-7)6-3-9-6/h5-6H,3H2,1H3/t5-,6-/m1/s1
