21
gdb 71339	3.14685	1.53104	1.21013	0.2271	88.14	-0.2536	0.1013	0.3549	1103.0347	0.182502	-349.867373	-349.859533	-349.858589	-349.899167	32.288	
C	 0.0013796477	 1.4845686946	-0.031524422	-0.523194
C	 0.0347376658	-0.0190587611	-0.0729439615	 0.379861
C	 0.5759201217	-0.9389813072	-1.1905133901	-0.328625
C	 0.0714423131	-1.9152501691	-0.113897157	-0.029334
C	 0.5541381377	-0.9919299937	 1.0600405019	-0.1901
C	-0.8155575468	-1.0382314746	 1.7297620228	 0.432911
C	-1.3480225282	-1.8517909952	 2.8619506192	-0.363115
C	-1.3862377069	-0.3278338539	 2.9131183355	-0.351519
C	-1.1580610256	-1.007442832	 0.2436670151	-0.190099
H	 1.0120307226	 1.9023266157	-0.1038300431	 0.116586
H	-0.5842269581	 1.8878883136	-0.8655287747	 0.116586
H	-0.4467397548	 1.842999065	 0.900790171	 0.126121
H	 0.0328162301	-0.9278380727	-2.1420987154	 0.086482
H	 1.6569007105	-0.913130836	-1.367748831	 0.086481
H	 0.0782531309	-3.005703532	-0.1074614584	 0.069086
H	 1.5491686786	-0.9838294511	 1.5102214671	 0.063919
H	-2.2894665946	-2.3764616332	 2.7304082518	 0.108836
H	-0.6454917666	-2.3615394102	 3.5142603067	 0.108836
H	-0.7094336804	 0.1714455841	 3.5999548624	 0.108182
H	-2.3532326978	 0.1565285761	 2.8161467809	 0.108181
H	-2.134240809	-1.0172034371	-0.2460184212	 0.06392
134.3815	206.6441	211.004	248.001	291.1727	327.9029	441.3737	498.7732	545.6537	665.939	714.6838	773.1228	808.0725	838.0157	841.7586	875.0033	893.5107	910.5445	932.9464	960.7527	979.0212	985.7824	1018.6083	1041.4188	1058.9329	1064.961	1073.5125	1123.8385	1151.2851	1152.1134	1156.4187	1176.6973	1181.4466	1183.5443	1228.1089	1246.1176	1286.2602	1331.309	1406.1152	1423.0847	1461.8712	1488.839	1492.3152	1513.7722	1517.253	3024.2935	3027.796	3081.8389	3086.6482	3088.3218	3090.5654	3100.7122	3110.3587	3116.5118	3120.6185	3192.4295	3207.1748
CC12CC3C1C1(CC1)C23	C[C@@]12C[C@H]3[C@@H]1C1(CC1)[C@@H]23	
InChI=1S/C9H12/c1-8-4-5-6(8)9(2-3-9)7(5)8/h5-7H,2-4H2,1H3	InChI=1S/C9H12/c1-8-4-5-6(8)9(2-3-9)7(5)8/h5-7H,2-4H2,1H3/t5-,6-,7+,8+
