20
gdb 90485	2.65291	1.48813	1.24363	1.2777	78.35	-0.2258	0.0793	0.3052	1099.0458	0.171302	-403.068683	-403.060327	-403.059383	-403.10171	31.969	
C	-0.1553194501	 1.9390345804	 0.8143048743	-0.425198
C	-0.045121195	 0.422362389	 0.7087211124	 0.020264
C	 0.6931086133	-0.2575550888	-0.4759349587	-0.188705
N	 1.5198975373	-1.1299380389	 0.4519157196	-0.174616
C	 2.3413736036	-0.2606052226	 1.3093674984	-0.014836
C	 3.1841157521	 0.9196632765	 0.9214053505	 0.049751
C	 4.0799490337	 0.8959556265	-0.2444444055	-0.18271
O	 2.9055708086	 1.7163535556	-0.2280695762	-0.224504
C	 0.8995126552	-0.3579065872	 1.6252442179	-0.082884
H	 0.8067748661	 2.4314676439	 0.660262824	 0.145711
H	-0.8490892086	 2.325111874	 0.0591276173	 0.11328
H	-0.5425571398	 2.233016639	 1.7966774343	 0.109204
H	-1.0444861083	-0.0146099602	 0.8022884784	 0.082361
H	 0.0543457279	-0.9029672811	-1.0815833291	 0.103385
H	 1.2805640364	 0.3926586631	-1.1219864247	 0.12998
H	 2.9372471074	-0.8904298152	 1.974601722	 0.101293
H	 3.510546848	 1.5034084204	 1.7854517251	 0.098905
H	 5.024142211	 1.4366361369	-0.2191074556	 0.120242
H	 4.0375442989	 0.0461318905	-0.9229414732	 0.130692
H	 0.5759809223	-0.8758034517	 2.5250421989	 0.088386
77.1554	134.3816	179.7373	204.4219	247.75	283.5161	366.0316	416.5925	529.3264	627.2671	698.9222	741.9654	774.9102	793.0892	877.2031	887.2355	906.66	932.0234	962.4001	978.9387	1036.0208	1052.9018	1085.306	1102.4168	1127.5178	1136.1473	1152.8908	1172.6382	1176.3952	1215.1448	1246.9088	1275.9557	1298.428	1302.6413	1363.7668	1387.3875	1413.5076	1420.9111	1462.8254	1492.9753	1500.1905	1506.9988	1526.6255	3031.5372	3049.4576	3074.4276	3082.4013	3084.6704	3088.6026	3093.4216	3134.9757	3137.1021	3154.7003	3185.3649
CC1CN2C(C3CO3)C12	C[C@H]1CN2[C@@H]([C@H]3CO3)[C@@H]12	
InChI=1S/C7H11NO/c1-4-2-8-6(4)7(8)5-3-9-5/h4-7H,2-3H2,1H3	InChI=1S/C7H11NO/c1-4-2-8-6(4)7(8)5-3-9-5/h4-7H,2-3H2,1H3/t4-,5+,6+,7-,8?/m0/s1
