16
gdb 43196	2.60904	1.74877	1.24578	0.7879	70.23	-0.2498	-0.0432	0.2066	997.1797	0.124698	-437.830325	-437.822843	-437.821898	-437.862673	27.978	
O	 0.0211752384	 0.10390523	-0.6818378549	-0.317406
C	-0.0579042514	 1.2177350313	-0.2442687905	 0.337018
C	-1.2197271041	 2.1625845726	 0.115606017	-0.223462
C	-1.4580507024	 2.3412422333	 1.6366399466	-0.088823
O	-0.4602848597	 3.3815934059	 1.735003282	-0.28008
C	-0.1636269303	 3.3001779502	 0.3279653566	-0.006044
C	 0.960492782	 2.3059512408	 0.0164635058	 0.24293
C	 2.3145757578	 2.1439375938	 0.6071257771	-0.279533
N	 2.1618367413	 2.5521432264	-0.7878113695	-0.360213
H	-2.0779517564	 2.1983273127	-0.5526971854	 0.110047
H	-2.4550869394	 2.7243594928	 1.8802513783	 0.119031
H	-1.2367861383	 1.4780578556	 2.274390409	 0.118368
H	-0.1528282134	 4.2657846293	-0.1789123539	 0.099787
H	 2.6765128001	 2.9179715665	 1.2772694577	 0.142683
H	 2.6413090789	 1.1318811849	 0.8317854222	 0.134503
H	 2.3045008869	 1.7531910038	-1.4057679481	 0.251193
74.888	162.3581	197.2594	230.5116	236.6345	384.1483	481.7698	599.6445	673.0162	740.676	792.8246	840.6992	846.7913	914.9581	932.1536	950.0063	982.0769	996.6959	1019.7883	1029.0732	1059.1212	1090.8061	1118.573	1149.1394	1166.8988	1185.9532	1246.2128	1270.4174	1274.3273	1290.237	1351.2416	1404.9245	1502.1364	1521.7224	1874.2012	3028.3292	3075.0069	3112.4547	3113.2555	3139.6203	3206.9197	3468.4255
O=C1C2COC2C11CN1	O=C1[C@H]2CO[C@H]2[C@]21CN2	
InChI=1S/C6H7NO2/c8-4-3-1-9-5(3)6(4)2-7-6/h3,5,7H,1-2H2	InChI=1S/C6H7NO2/c8-4-3-1-9-5(3)6(4)2-7-6/h3,5,7H,1-2H2/t3-,5-,6-/m1/s1
