16
gdb 58081	1.83605	1.71159	1.12512	5.1175	70.85	-0.2897	-0.0069	0.2828	1120.8011	0.12007	-437.847378	-437.837354	-437.83641	-437.881794	36.458	
C	 0.0235374944	 1.5687580897	 0.1300726772	-0.432109
C	-0.0152065241	 0.0513554221	-0.0007974702	 0.107603
O	-1.3406085893	-0.4336156633	-0.1904141055	-0.448212
C	 0.7297205211	-0.4565499839	-1.2797357903	 0.028768
O	 0.0445833142	-0.0149021023	-2.4340609887	-0.442054
C	 2.1099818065	 0.0306371401	-1.3202359391	 0.330518
C	 3.2449964839	 0.4192207231	-1.3240520605	-0.40928
C	 0.7563278703	-1.9479731251	-1.2414352834	 0.285917
N	 0.7679841421	-3.1024736337	-1.2161850598	-0.339179
H	 1.0432276013	 1.9201554341	 0.3007817504	 0.146051
H	-0.3640029675	 2.0396091416	-0.776659284	 0.142481
H	-0.5878775545	 1.8825708101	 0.9833243848	 0.113995
H	 0.4488223927	-0.4247070387	 0.8734217119	 0.103746
H	-1.9281071975	 0.0205515243	 0.4207568038	 0.298659
H	-0.8919906864	-0.1788047516	-2.244356093	 0.300946
H	 4.2519634628	 0.7586082335	-1.3416313137	 0.21215
91.9551	130.2617	138.2524	170.6189	206.5988	234.6954	251.8026	298.4673	339.3051	395.1535	486.9012	495.9401	510.8861	527.6904	578.5115	604.7609	656.9024	687.061	733.2317	900.2979	995.2573	1008.6003	1061.6361	1093.3685	1139.5552	1147.5828	1250.9377	1363.0623	1394.4666	1409.447	1415.0191	1487.5211	1501.4202	2252.0042	2358.1664	3019.8842	3043.4201	3116.1575	3143.7722	3498.1164	3728.4858	3837.6065
CC(O)C(O)(C#C)C#N	C[C@@H](O)[C@@](O)(C#C)C#N	
InChI=1S/C6H7NO2/c1-3-6(9,4-7)5(2)8/h1,5,8-9H,2H3	InChI=1S/C6H7NO2/c1-3-6(9,4-7)5(2)8/h1,5,8-9H,2H3/t5-,6-/m1/s1
