22
gdb 76431	2.9047	1.04223	0.96377	1.634	88.66	-0.2155	0.0557	0.2712	1368.5571	0.19033	-367.154583	-367.143702	-367.142757	-367.190173	40.014	
C	 1.674711365	-4.039403097	 1.534758673	-0.422424
C	 1.0492497339	-2.8335624203	 0.8649204888	-0.044829
N	 0.3860327705	-1.747387764	 1.5956169852	-0.119546
C	 0.301024064	-1.7567445559	 3.0467234678	-0.317682
C	 1.6410651873	-1.4546946424	 0.9013844122	 0.295607
C	 2.9306017334	-1.1662775331	 1.6467568662	-0.466627
C	 1.4411368602	-0.5710143332	-0.3376656806	-0.397614
C	 1.3912145554	 0.8544446424	-0.0280592555	 0.319353
C	 1.3568462663	 2.0245400435	 0.2465867002	-0.462721
H	 2.2728886214	-3.791549275	 2.4126356561	 0.120233
H	 0.8991916194	-4.7471903303	 1.8483384855	 0.124763
H	 2.3267908973	-4.5613869565	 0.8261927859	 0.123122
H	 0.508826493	-3.1048124475	-0.0443499717	 0.078692
H	 1.1608827497	-2.188319101	 3.5781570721	 0.097305
H	 0.1741330103	-0.7269957867	 3.3950687779	 0.129423
H	-0.590073245	-2.3208852175	 3.3413195382	 0.12168
H	 3.7906940299	-1.3392695686	 0.990094299	 0.11867
H	 2.9602096703	-0.1172754362	 1.957556155	 0.138003
H	 3.0631910718	-1.7860590945	 2.533595534	 0.117101
H	 2.2521023737	-0.7614064073	-1.0542202676	 0.121013
H	 0.5068040472	-0.8685841142	-0.8252296204	 0.1339
H	 1.3168555149	 3.059757645	 0.4783437887	 0.19258
56.7584	111.9147	139.7759	154.7442	161.8132	224.8356	238.1469	274.6725	287.0642	341.6169	358.08	399.2211	463.896	531.2737	569.3679	611.1849	634.4114	710.7578	756.6939	801.5056	916.7862	934.825	971.7754	1000.1334	1049.2474	1080.6913	1112.7432	1146.6219	1149.1861	1173.0476	1194.1186	1221.2002	1290.453	1321.812	1373.2758	1406.403	1415.8147	1429.9018	1455.8032	1463.4305	1481.0966	1490.2324	1490.8466	1505.4924	1506.7962	1519.238	2234.4377	2996.3279	3015.8171	3037.5423	3041.9367	3067.5614	3070.0494	3073.2958	3091.8861	3098.5348	3101.0283	3134.3952	3147.1713	3506.5124
CC1N(C)C1(C)CC#C	C[C@H]1N(C)[C@]1(C)CC#C	
InChI=1S/C8H13N/c1-5-6-8(3)7(2)9(8)4/h1,7H,6H2,2-4H3	InChI=1S/C8H13N/c1-5-6-8(3)7(2)9(8)4/h1,7H,6H2,2-4H3/t7-,8-,9?/m1/s1
