17
gdb 46204	3.10948	1.58423	1.25184	1.6281	73.61	-0.2454	0.0103	0.2557	1012.6073	0.137448	-417.951784	-417.944456	-417.943511	-417.983587	28.43	
N	-0.0634750951	 1.2265579532	-0.3145533408	-0.56593
C	-0.0659622089	 0.0068849507	-0.0142306649	 0.39618
O	 0.9525106775	-0.8127968476	 0.4325315155	-0.266225
C	 0.07183899	-1.9854882309	 0.4626466989	-0.171507
C	-1.0792981306	-1.0969995748	 0.0071328894	 0.224248
C	-2.5001191142	-1.1228971119	 0.4023872614	-0.11243
C	-3.2349315574	 0.125970852	-0.0778475476	-0.250065
C	-2.7144008968	-0.236100504	-1.4946935322	-0.158865
N	-2.0625493213	-1.5110735254	-0.9975674384	-0.19345
H	 0.8644928374	 1.637038376	-0.1964680599	 0.231795
H	 0.392064654	-2.7398646507	-0.2591332614	 0.136199
H	 0.0124691011	-2.4033289933	 1.4704690249	 0.125036
H	-2.8671600772	-1.8592932409	 1.111774048	 0.101364
H	-4.3188925985	 0.0418204809	 0.0138615955	 0.113332
H	-2.9026888979	 1.0743609322	 0.3485598025	 0.134078
H	-3.5010742624	-0.4943826489	-2.2049391614	 0.114657
H	-2.0118642596	 0.4628478434	-1.9513114695	 0.141585
122.9716	148.7645	185.6776	285.9467	329.3888	375.2741	466.2759	616.3998	672.6977	771.16	789.7122	794.8818	821.4356	856.3225	863.5522	945.0379	967.1927	971.1672	978.5613	1005.2305	1027.6278	1065.4388	1119.0838	1124.0937	1144.9584	1202.592	1221.7124	1240.4883	1267.2302	1274.5327	1305.9593	1351.1426	1454.3447	1481.2226	1503.9497	1510.8346	1810.4798	3066.0408	3077.4897	3082.8773	3128.5571	3129.5064	3146.1809	3152.8094	3475.996
N=C1OCC11C2CCN12	[NH][C]1OC[C@]21[C@H]1CCN21	
InChI=1S/C6H8N2O/c7-5-6(3-9-5)4-1-2-8(4)6/h4,7H,1-3H2	InChI=1S/C6H8N2O/c7-5-6(3-9-5)4-1-2-8(4)6/h4,7H,1-3H2/t4-,6-,8?/m1/s1
