21
gdb 110373	3.66571	1.08331	1.02607	1.7816	81.75	-0.2424	0.0675	0.3099	1282.6719	0.183127	-387.030405	-387.022244	-387.0213	-387.063232	32.037	
C	-0.0568648929	 1.4436288518	 0.2927747538	-0.373868
C	-0.1056820704	 0.000158735	-0.2208094632	-0.219185
C	-1.4847756711	-0.622021356	-0.0998562279	-0.000269
C	-1.5635058895	-2.1223963329	-0.0270412295	-0.104449
C	-1.8452466872	-1.2527337286	 1.2159943562	-0.066555
C	-3.3042804336	-1.7557860709	 1.2077281415	 0.097924
O	-4.2650579626	-0.9778349594	 0.4458614835	-0.299622
C	-4.1253296163	-1.8561628649	-0.7031212948	-0.10965
C	-3.0135284562	-2.6619654396	-0.0012263213	-0.081872
H	 0.9460252026	 1.8683373872	 0.1849597495	 0.109884
H	-0.7519119053	 2.0824533415	-0.2626093403	 0.11817
H	-0.3348896591	 1.4957524977	 1.3503162504	 0.118976
H	 0.2084843926	-0.0260258508	-1.2722341515	 0.097846
H	 0.6204777157	-0.6125518343	 0.3290404697	 0.09329
H	-2.2658618219	-0.0721647744	-0.6183403883	 0.098938
H	-0.6934684331	-2.7338202129	-0.2372751296	 0.08421
H	-1.2426832843	-1.1055885413	 2.1053837035	 0.079273
H	-3.7072818177	-2.1092460848	 2.1597919888	 0.076363
H	-5.0482125643	-2.4233707634	-0.8772197363	 0.100087
H	-3.8591291993	-1.3110958199	-1.6163603267	 0.101917
H	-3.1093745359	-3.7454261589	 0.0470283126	 0.078588
87.1397	133.1803	176.6121	218.0044	254.0667	353.8096	401.891	426.7356	556.5397	698.7466	742.7915	785.6962	808.5882	843.9124	856.617	876.336	920.0658	948.1553	963.1053	971.559	990.323	1012.7421	1037.3592	1054.305	1060.3473	1088.77	1117.0785	1141.0896	1161.3387	1188.5459	1196.5174	1217.9188	1262.8303	1273.752	1291.2144	1302.411	1324.6516	1349.9731	1366.3839	1411.0644	1432.7111	1485.8067	1497.6015	1506.9674	1517.7952	3014.0786	3016.2836	3033.9074	3047.351	3059.8823	3079.736	3102.0289	3106.4222	3124.7897	3141.4958	3166.6488	3177.8442
CCC1C2C1C1OCC21	CC[C@H]1[C@H]2[C@@H]1[C@H]1OC[C@@H]21	
InChI=1S/C8H12O/c1-2-4-6-5-3-9-8(5)7(4)6/h4-8H,2-3H2,1H3	InChI=1S/C8H12O/c1-2-4-6-5-3-9-8(5)7(4)6/h4-8H,2-3H2,1H3/t4-,5-,6+,7+,8-/m0/s1
