21
gdb 84040	2.61146	1.41001	1.14923	2.1178	78.33	-0.2323	0.0721	0.3043	1147.0827	0.184677	-424.209653	-424.201451	-424.200507	-424.242073	32.755	
O	-0.0155793967	 1.4993050642	 0.2211180321	-0.409684
C	-0.0056091524	 0.1089431219	 0.0699636858	 0.058008
C	-0.4340023359	-0.6970923766	 1.2656732616	-0.053686
C	-0.8724648938	-0.0318132647	 2.5597236204	-0.232281
C	-2.2213942382	-0.5403542302	 3.0871596828	-0.062727
O	-3.3449070774	 0.017850095	 2.4286815203	-0.241752
C	-3.6188226515	-0.4613594404	 1.1262882003	-0.058311
C	-2.6541169145	 0.0647761709	 0.0523630969	-0.239499
C	-1.3159393432	-0.6526388961	 0.0264877816	-0.073921
H	-0.2712366523	 1.8904876654	-0.6208653075	 0.290328
H	 0.8238573013	-0.2698229846	-0.5273293197	 0.083024
H	 0.1060412815	-1.6296070959	 1.4073696505	 0.082281
H	-0.1080099335	-0.2090447216	 3.3267810113	 0.09241
H	-0.9397385405	 1.0517161096	 2.4297013558	 0.128354
H	-2.2598106709	-1.6421506434	 3.0398957632	 0.079219
H	-2.3360273377	-0.249680895	 4.137217016	 0.099757
H	-3.6305301842	-1.5646972113	 1.1169800481	 0.080633
H	-4.6351295811	-0.1171506147	 0.9041794854	 0.098758
H	-3.1359571421	-0.0368605693	-0.9288660738	 0.090015
H	-2.5129570014	 1.1365664701	 0.2272256927	 0.109717
H	-1.3066236954	-1.556984723	-0.5770783738	 0.079357
110.6842	163.6239	251.3013	266.1875	301.4062	310.8886	353.9874	387.2292	503.1334	549.4252	566.1877	631.8322	748.9728	763.075	795.7207	878.0293	892.2466	947.1682	978.015	997.4817	1019.1327	1064.1603	1072.572	1086.4586	1129.4801	1140.7449	1158.6464	1179.7604	1233.3377	1242.3099	1253.8062	1296.0311	1300.8808	1330.277	1337.7399	1363.9741	1391.5497	1400.4306	1405.6957	1424.5844	1459.1372	1472.2038	1485.3177	1486.0241	1498.0988	2958.4081	2963.8387	3019.8898	3028.6764	3060.4613	3064.6319	3077.5345	3091.0241	3098.9403	3125.7888	3140.0506	3805.4914
OC1C2CCOCCC12	O[C@H]1[C@H]2CCOCC[C@@H]12	
InChI=1S/C7H12O2/c8-7-5-1-3-9-4-2-6(5)7/h5-8H,1-4H2	InChI=1S/C7H12O2/c8-7-5-1-3-9-4-2-6(5)7/h5-8H,1-4H2/t5-,6+,7-
