17
gdb 16312	3.15171	1.94129	1.39184	2.4851	69.45	-0.2581	0.0216	0.2796	924.4461	0.141984	-363.839841	-363.832191	-363.831247	-363.871906	28.767	
C	-0.2440427223	 1.5340031186	-0.0068594847	-0.378974
C	 0.0671453023	 0.0332756505	 0.0808854097	-0.294635
C	 0.7695664351	-0.4760134149	-1.1460843846	 0.208671
C	 0.0624329215	-0.9338117097	-2.4335379883	-0.333716
C	 1.0079015878	-1.8469456823	-1.7408256725	 0.026285
O	 2.3680386828	-1.4938454396	-2.115960459	-0.278967
C	 2.2082170439	-0.252037134	-1.499404742	 0.408469
N	 3.0406771743	 0.6582431145	-1.2773748247	-0.559626
H	 0.6769810075	 2.1071312046	-0.143378862	 0.152486
H	-0.9052139662	 1.7494757981	-0.8525498694	 0.11543
H	-0.7358959321	 1.8830386105	 0.905937716	 0.11092
H	 0.6951752526	-0.1604846309	 0.9585600556	 0.113929
H	-0.8587664859	-0.5365791644	 0.2254531829	 0.09813
H	-0.9945065256	-1.1436789375	-2.2938462146	 0.124726
H	 0.3307442502	-0.5212154749	-3.4011342687	 0.131282
H	 0.8393780889	-2.8475606638	-1.3673061005	 0.125358
H	 3.9633280152	 0.416729815	-1.6430509032	 0.230233
75.8802	143.5521	207.7347	215.7748	293.3658	378.1373	457.7361	466.2158	643.3197	681.685	758.9146	780.7236	856.5043	863.4574	884.6639	917.2391	934.7388	988.3866	1007.1691	1013.0525	1034.6199	1074.7628	1102.5003	1131.443	1187.8545	1258.3383	1267.4069	1329.9414	1354.9305	1407.5257	1415.9055	1479.109	1485.346	1498.5256	1511.9206	1826.5102	3027.2842	3039.9099	3063.0886	3108.684	3119.3098	3124.57	3210.0327	3218.5448	3477.6429
CCC12CC1OC2=N	CC[C@]12C[C@H]1O[C]2[NH]	
InChI=1S/C6H9NO/c1-2-6-3-4(6)8-5(6)7/h4,7H,2-3H2,1H3	InChI=1S/C6H9NO/c1-2-6-3-4(6)8-5(6)7/h4,7H,2-3H2,1H3/t4-,6+/m1/s1
