19
gdb 39245	2.58904	2.2449	1.55958	1.1121	80.13	-0.2249	0.0094	0.2342	904.3839	0.162622	-385.871127	-385.864567	-385.863623	-385.901814	27.464	
C	-0.1289909299	 1.408989525	 0.1455431932	-0.322968
C	 1.4450099447	 1.363380207	 0.0338813385	 0.112141
O	 2.0451064684	 0.8019185574	 1.187196519	-0.270749
C	 2.7686469119	-0.3863026287	 0.8447986993	-0.077106
C	 2.1272140278	-1.0223407618	-0.4198137053	-0.055955
C	 1.0277190412	-2.0945659968	-0.1310492706	-0.25854
C	-0.2006835036	-1.2403319526	 0.1742212189	-0.169592
C	-0.0449754014	-0.0241008155	-0.3434813076	 0.214458
C	 1.3261772416	 0.1724441288	-0.9596565812	-0.093456
H	-0.5602700885	 1.5901801692	 1.1316585106	 0.115269
H	-0.5359803908	 2.1206797404	-0.5802886681	 0.105215
H	 1.9490927261	 2.2890940117	-0.2688520707	 0.069646
H	 3.8200741404	-0.1344522333	 0.6384846264	 0.090767
H	 2.7441416594	-1.043251634	 1.720070209	 0.105922
H	 2.9045891086	-1.3995548838	-1.0899327421	 0.066449
H	 0.8942750739	-2.7702607386	-0.9876515466	 0.102
H	 1.2892360976	-2.7299688849	 0.7235214544	 0.102455
H	-0.9726652264	-1.5500341853	 0.86953624	 0.091935
H	 1.3901681692	 0.4101284459	-2.0225825271	 0.072108
130.7303	230.9514	324.9926	377.1218	381.9957	541.1633	623.0971	678.7327	766.5969	783.1843	811.4858	823.9272	858.9912	876.1424	909.4899	921.2141	941.5858	956.8609	986.1904	1000.0422	1013.3445	1071.3538	1073.8951	1091.6951	1134.9471	1157.9243	1179.2123	1220.897	1223.5416	1249.7588	1250.2326	1260.0013	1297.0104	1310.675	1326.3392	1342.8563	1392.9721	1471.3639	1482.5985	1516.0244	1710.4697	2983.0978	3004.932	3026.6166	3052.0632	3052.5654	3068.8332	3074.9128	3099.7145	3123.8248	3194.6733
C1C2OCC3CC=C1C23	C1[C@H]2OC[C@H]3C[CH][C]1[C@@H]23	
InChI=1S/C8H10O/c1-2-6-4-9-7-3-5(1)8(6)7/h1,6-8H,2-4H2	InChI=1S/C8H10O/c1-2-6-4-9-7-3-5(1)8(6)7/h1,6-8H,2-4H2/t6-,7-,8-/m1/s1
