18
gdb 107260	2.45641	1.80023	1.26213	4.1006	71.18	-0.225	0.0526	0.2776	1019.2542	0.14678	-438.981404	-438.973283	-438.972339	-439.013611	32.424	
O	-0.1275774195	 1.467052742	 0.0608971179	-0.420798
C	-0.0646608352	 0.0640928461	-0.1001437438	-0.155974
C	-1.4032091397	-0.6114169897	 0.0277790844	 0.222584
C	-1.8531106239	-1.7832723575	-0.7522104368	-0.306235
N	-2.4799912073	-0.4666560287	-1.0144671186	-0.16243
C	-3.4462335871	-0.1002158163	 0.0972179541	-0.049539
C	-3.6076773073	-1.0696303509	 1.2533813953	-0.371358
C	-2.3919877574	-0.1955639511	 1.1545255034	 0.314496
O	-2.0340964851	 0.7500599949	 2.109718197	-0.455207
H	-0.5787725833	 1.6328055512	 0.8986266594	 0.292075
H	 0.3339021307	-0.1223865692	-1.1029344698	 0.11561
H	 0.6359013193	-0.3959151672	 0.6202129909	 0.078513
H	-1.2226018826	-2.0965041377	-1.5804246591	 0.125413
H	-2.4173054014	-2.5937597925	-0.3057214251	 0.117584
H	-4.1777671152	 0.6657286267	-0.1225877455	 0.11826
H	-4.3254283049	-0.6963606582	 1.9788406595	 0.125321
H	-3.5965104563	-2.150926924	 1.1675163993	 0.116267
H	-1.7410453139	 0.288366162	 2.9039111575	 0.295416
113.0762	156.6067	215.9007	273.1547	318.2826	397.592	400.5539	468.3489	478.5235	533.4232	553.2725	613.0048	627.4169	718.7009	779.9475	835.0531	915.4654	933.0293	957.7326	986.4437	996.0522	1007.465	1060.3896	1069.2901	1078.5764	1105.5265	1129.5294	1160.2732	1213.6097	1227.6759	1291.1666	1312.8856	1348.5975	1372.4398	1409.1831	1454.3753	1483.1077	1488.6357	1519.9139	2939.7256	3072.7457	3117.0031	3129.151	3198.6367	3206.8675	3210.097	3765.5006	3784.9361
OCC12CN1C1CC21O	OC[C@]12CN1[C@H]1C[C@@]21O	
InChI=1S/C6H9NO2/c8-3-5-2-7(5)4-1-6(4,5)9/h4,8-9H,1-3H2	InChI=1S/C6H9NO2/c8-3-5-2-7(5)4-1-6(4,5)9/h4,8-9H,1-3H2/t4-,5-,6-,7?/m0/s1
