19
gdb 71909	3.22792	1.7541	1.68777	1.4447	73.11	-0.2504	0.0858	0.3362	909.5132	0.161612	-423.040164	-423.033432	-423.032487	-423.070786	28.601	
C	-0.0160353384	 1.4494486832	 0.0914746196	-0.477461
C	 0.0139825108	-0.0487710451	-0.0363246541	 0.454538
C	 0.6568225717	-0.6910342865	-1.2901563377	-0.251378
C	 0.265657947	-2.1697804022	-1.0677886157	-0.088485
C	 1.1326210363	-2.7962539527	 0.0540025364	-0.249661
C	 0.2590793321	-2.020457428	 1.0617865005	 0.071574
O	 0.6305133916	-0.6397738465	 1.1174411348	-0.30629
C	-0.8884798769	-1.9658751701	-0.0090311685	 0.071912
O	-1.2925886133	-0.6194022238	-0.049839168	-0.267855
H	 1.0029122456	 1.841521462	 0.1327639084	 0.130988
H	-0.5302893827	 1.8905336913	-0.7656815387	 0.128489
H	-0.5393392699	 1.7310450859	 1.0078443247	 0.138391
H	 0.1986424563	-0.2788649902	-2.1934678752	 0.104145
H	 1.7370712997	-0.5329854727	-1.332217621	 0.103969
H	 0.0813588827	-2.7352845973	-1.9806921169	 0.070039
H	 0.9786317068	-3.8764820493	 0.1413224532	 0.099065
H	 2.2029528971	-2.5762578369	 0.0585324551	 0.103054
H	 0.1077780138	-2.391591684	 2.0762455175	 0.077562
H	-1.7302278204	-2.6513970271	 0.0395739258	 0.087405
177.6692	249.9849	282.6909	378.9777	395.2315	470.7145	592.2744	602.9624	653.9694	683.6114	791.3192	798.8312	835.2661	848.0524	853.3058	892.9975	909.1797	948.1223	967.6129	983.6631	1035.9628	1052.7194	1073.6038	1092.0115	1129.1861	1147.7959	1181.7068	1188.7164	1204.4115	1237.4668	1263.5511	1274.3769	1312.5434	1324.0726	1349.9685	1354.9489	1422.7822	1471.7634	1479.9669	1486.3008	1488.144	3051.382	3057.1203	3061.9696	3102.6715	3109.9033	3111.3292	3117.3415	3136.4916	3140.0253	3162.7505
CC12CC3CC(O1)C3O2	C[C@@]12C[C@H]3C[C@@H](O1)[C@H]3O2	
InChI=1S/C7H10O2/c1-7-3-4-2-5(8-7)6(4)9-7/h4-6H,2-3H2,1H3	InChI=1S/C7H10O2/c1-7-3-4-2-5(8-7)6(4)9-7/h4-6H,2-3H2,1H3/t4-,5-,6+,7-/m1/s1
