18
gdb 112348	2.2316	1.51908	0.95384	3.3812	78.86	-0.2498	-0.0298	0.22	1239.2947	0.146884	-439.112412	-439.103403	-439.102459	-439.146387	32.552	
C	-0.0918479802	 1.3473754014	 0.0517642187	-0.240867
O	 0.0296271017	-0.0668723934	 0.0137850026	-0.231062
C	 0.666700325	-0.609488628	 1.1227710196	 0.116977
O	-0.1188511207	-0.4726723643	 2.3135317781	-0.261721
C	-0.4375503218	-1.723111033	 2.7991453506	 0.407105
N	-1.1306223139	-1.9445349494	 3.8337385635	-0.546277
C	 0.1807026436	-2.7188993459	 1.9173663227	-0.282367
C	 0.8339784686	-2.1016832495	 0.9313034525	 0.301149
C	 1.5921967074	-2.6509338753	-0.2262127617	-0.499429
H	 0.89198476	 1.8268508668	 0.161833647	 0.110767
H	-0.5343372151	 1.6517150726	-0.8984714193	 0.133903
H	-0.7385027813	 1.669247723	 0.8754897969	 0.135021
H	 1.6186180407	-0.0823123913	 1.307811852	 0.079905
H	-1.4411530318	-1.0657007356	 4.2510621512	 0.222621
H	 0.076569415	-3.7806617641	 2.0874303445	 0.128578
H	 1.5791681602	-3.7429206001	-0.2339138584	 0.13541
H	 1.1632834802	-2.2834385985	-1.1648687933	 0.155061
H	 2.6376380725	-2.3184410854	-0.2053809272	 0.135226
92.6865	123.7554	148.1361	168.6401	188.8878	213.7805	264.2083	385.0114	423.7078	541.6523	559.8918	587.8957	693.6868	734.2015	864.9449	896.5421	913.3766	945.8712	977.0913	1011.1738	1034.9933	1061.3687	1078.5188	1147.1526	1179.5543	1182.4982	1221.1131	1256.5498	1344.4656	1383.2882	1392.6555	1410.6611	1474.4909	1477.8342	1485.2147	1485.8047	1510.8046	1715.7944	1765.4523	2957.0776	2998.1654	3028.7851	3074.5019	3083.6064	3128.7511	3133.7679	3248.1089	3478.4822
COC1OC(=N)C=C1C	CO[C@H]1OC(=C[C]1C)[NH]	
InChI=1S/C6H9NO2/c1-4-3-5(7)9-6(4)8-2/h3,6-7H,1-2H3	InChI=1S/C6H9NO2/c1-4-3-5(7)9-6(4)8-2/h3,6-7H,1-2H3/t6-/m0/s1
