20
gdb 79625	2.56016	1.59213	1.22874	1.1354	77.82	-0.2235	0.0589	0.2824	1092.8059	0.171786	-403.102297	-403.094131	-403.093187	-403.134567	32.475	
C	-0.0276072925	 1.5075087837	 0.0186584761	-0.429359
C	 0.0088072601	-0.005420555	 0.0241341201	-0.009199
C	 1.3111059808	-0.7092759156	-0.2787573132	-0.052375
C	 0.7623518171	-0.7079176397	 1.128405936	-0.026403
N	 0.4703205929	-2.0774508759	 1.5662610198	-0.104618
C	-0.6402675233	-2.7822705487	 0.9141777472	-0.254144
C	 0.7511225798	-2.9678969002	 0.4256073164	-0.057504
C	 1.2263987986	-2.1486996711	-0.7882039867	 0.056264
O	 0.3586061262	-2.2116896589	-1.917170883	-0.426892
H	 0.898021954	 1.927622331	 0.4266315139	 0.114793
H	-0.1474655027	 1.8953578667	-0.9986947153	 0.122492
H	-0.8584493976	 1.8858458489	 0.6240851857	 0.119454
H	-0.8859622472	-0.4722714314	-0.3707239891	 0.098875
H	 2.1728315315	-0.1153027777	-0.5632499565	 0.082989
H	 1.2009094313	-0.0979986245	 1.911317717	 0.090487
H	-1.1011642604	-3.5530540975	 1.5266123772	 0.112269
H	-1.3365211691	-2.2348832411	 0.2889015706	 0.12817
H	 1.2880460288	-3.8864776583	 0.6533683416	 0.083771
H	 2.2316205557	-2.4916492467	-1.0729929359	 0.068407
H	 0.2641918361	-3.1373164379	-2.1643565018	 0.282521
145.0172	167.287	206.0306	226.3861	274.2466	283.8692	385.1002	425.5705	508.0806	550.3069	655.2244	736.8145	752.3418	820.9918	838.1634	852.8374	866.6757	934.8696	976.6196	1009.752	1035.2795	1043.1694	1047.0991	1083.0617	1098.5487	1109.9616	1123.4719	1130.7461	1154.6308	1157.4241	1202.9995	1238.2726	1277.8208	1307.4139	1315.3715	1342.4994	1387.1771	1410.6322	1416.1575	1436.7991	1493.9699	1500.3923	1511.0567	2993.4002	3027.5516	3093.3387	3094.8525	3114.7479	3123.8036	3156.3177	3166.1042	3173.3923	3207.7522	3813.7847
CC1C2C1N1CC1C2O	C[C@H]1[C@H]2[C@@H]1N1C[C@H]1[C@H]2O	
InChI=1S/C7H11NO/c1-3-5-6(3)8-2-4(8)7(5)9/h3-7,9H,2H2,1H3	InChI=1S/C7H11NO/c1-3-5-6(3)8-2-4(8)7(5)9/h3-7,9H,2H2,1H3/t3-,4-,5-,6+,7+,8?/m0/s1
