17
gdb 46440	3.48601	1.18263	1.08378	2.713	80.2	-0.2382	-0.0204	0.2178	1148.6266	0.135647	-384.681635	-384.673643	-384.672699	-384.714092	31.217	
O	 0.0234729686	 0.0012594097	 0.0479090144	-0.325525
C	-0.003795331	 1.2039059479	-0.0251503666	 0.425709
C	-1.2696235191	 2.0689953151	-0.1382675155	-0.354473
C	-0.8212035409	 3.3643027843	-0.841496258	-0.286249
C	 0.6972374548	 3.4681778917	-0.6057785441	 0.172155
C	 1.1491922849	 3.3194248618	 0.8213316301	-0.324472
C	 1.1880469243	 2.1053502075	-0.087892414	-0.186636
C	 1.4786807814	 4.2442507599	-1.5208457728	 0.174515
C	 2.1097927455	 4.9055826934	-2.3028174335	-0.380831
H	-2.045002235	 1.5214851219	-0.6765819557	 0.13608
H	-1.656712169	 2.2565653166	 0.8702217747	 0.13277
H	-1.0000231818	 3.292802971	-1.9179941594	 0.125684
H	-1.3425902656	 4.2558057133	-0.4813577513	 0.114616
H	 2.1121386515	 3.7440080334	 1.077759681	 0.139328
H	 0.4092880099	 3.3640204339	 1.6139420746	 0.12532
H	 2.1459240372	 1.6869285929	-0.367273272	 0.119999
H	 2.6736099243	 5.4860800255	-2.9902207519	 0.192007
95.4207	143.3524	151.4616	263.8377	345.988	422.9357	476.5429	525.2756	533.1082	554.1224	595.7411	648.1053	653.5616	671.5116	770.7094	809.5538	881.8843	918.7071	944.0287	981.8058	1001.3766	1049.0196	1053.4555	1073.8541	1161.7433	1179.2375	1223.3176	1235.4272	1262.3941	1288.7514	1315.7926	1384.1635	1459.7233	1484.2711	1502.8941	1835.3288	2237.4638	3047.3013	3058.3571	3099.06	3123.0076	3135.4403	3210.2066	3230.1698	3502.7842
O=C1CCC2(CC12)C#C	O=C1CC[C@]2(C[C@@H]12)C#C	
InChI=1S/C8H8O/c1-2-8-4-3-7(9)6(8)5-8/h1,6H,3-5H2	InChI=1S/C8H8O/c1-2-8-4-3-7(9)6(8)5-8/h1,6H,3-5H2/t6-,8-/m0/s1
