16
gdb 44094	3.9293	1.45534	1.2079	4.5279	69.1	-0.2355	0.0037	0.2392	1004.321	0.125546	-437.85598	-437.849086	-437.848142	-437.887228	27.391	
O	 0.057610921	 0.0354168812	 0.0245567545	-0.342384
C	 0.0349880414	 1.2316768773	-0.0205902126	 0.41187
N	-1.0152316713	 2.1525149599	-0.0591403479	-0.439865
C	-0.1758461015	 3.3085520861	 0.1649247043	 0.384595
C	-0.2277492695	 4.7558905298	-0.3038097629	-0.335059
C	 0.7417276195	 5.1008476689	 0.8836330089	-0.24263
C	 0.5107871025	 3.6861237896	 1.5059952687	 0.057484
O	 1.579391514	 2.7370644303	 1.3138621612	-0.296889
C	 1.0706732062	 2.4012004488	 0.0033858931	-0.109943
H	-1.977107373	 1.997200116	 0.2146204844	 0.248722
H	 0.1088481102	 4.968556612	-1.3214616662	 0.11314
H	-1.2147677867	 5.2064525638	-0.1622216172	 0.113667
H	 1.7801867203	 5.2522480472	 0.5847447717	 0.12525
H	 0.4235528942	 5.9345970372	 1.5113408295	 0.114017
H	 0.0676847067	 3.6299341887	 2.5019421289	 0.08932
H	 1.8111388461	 2.4624738331	-0.7958965486	 0.108706
119.7747	186.886	255.6234	342.8485	411.2243	467.443	505.8325	565.5116	668.1187	721.8346	752.6455	792.3976	831.5768	869.5398	887.7768	913.6434	956.518	992.7498	1020.4378	1081.628	1094.4867	1108.5279	1139.2503	1168.7357	1207.6882	1219.6767	1230.7405	1265.6041	1271.8228	1307.9697	1333.0901	1387.9815	1467.0895	1494.0424	1898.9208	3056.1664	3081.4107	3099.157	3105.5523	3107.2275	3143.201	3576.0166
O=C1NC23CCC2OC13	O=C1N[C@@]23CC[C@@H]2O[C@@H]13	
InChI=1S/C6H7NO2/c8-5-4-6(7-5)2-1-3(6)9-4/h3-4H,1-2H2,(H,7,8)	InChI=1S/C6H7NO2/c8-5-4-6(7-5)2-1-3(6)9-4/h3-4H,1-2H2,(H,7,8)/t3-,4-,6-/m0/s1
