23
gdb 94713	3.2962	1.18571	1.01306	1.7547	85.33	-0.2536	0.0837	0.3373	1294.4145	0.206349	-388.310394	-388.3014	-388.300455	-388.343497	35.617	
C	 0.128936682	 1.6072486764	 0.0252473586	-0.404569
C	 0.0124733527	 0.0809499314	-0.0092396696	 0.042686
C	 0.6349319014	-0.5200863601	-1.2779382086	-0.202408
C	 0.3468531348	-2.0224208167	-1.3796584262	-0.279596
C	 0.7510627693	-2.783276027	-0.1288070478	 0.405323
C	 0.4467210619	-4.263646654	-0.122982005	-0.465676
O	 2.0462420924	-2.432071211	 0.3850281348	-0.295146
C	 0.8865659766	-2.0439242148	 1.141786797	-0.017921
C	 0.6308392832	-0.5515094893	 1.2535636798	-0.225034
H	 1.1798238151	 1.9186547165	-0.0021925404	 0.115693
H	-0.3765729598	 2.0639911634	-0.8321997887	 0.10937
H	-0.3158363779	 2.0218548795	 0.9365192745	 0.108961
H	-1.0571367763	-0.1778463772	-0.0196058204	 0.065889
H	 0.2405635403	-0.0120539348	-2.1653314538	 0.08708
H	 1.7188092131	-0.3565497919	-1.2680963482	 0.110313
H	-0.7260818636	-2.185829835	-1.5504748258	 0.096519
H	 0.867153109	-2.4575091513	-2.2425560327	 0.099007
H	 0.939296691	-4.7603091288	-0.9665362317	 0.122675
H	 0.8028100086	-4.7280365138	 0.8001163244	 0.124906
H	-0.6302621116	-4.4428173273	-0.2124199507	 0.117197
H	 0.7734528723	-2.6104549379	 2.067776305	 0.079688
H	 1.5911382655	-0.0675270834	 1.4769723341	 0.110015
H	-0.01784756	-0.3613938827	 2.1168152614	 0.09503
88.6038	182.4112	213.1649	239.6817	247.8261	283.4176	327.4946	356.0143	398.7796	418.6946	471.1011	553.1239	626.8654	689.6453	762.4756	816.1566	872.6682	884.7314	897.9079	954.5146	964.7887	1002.3234	1033.6972	1042.4569	1061.2495	1084.3681	1111.4195	1145.0899	1174.9659	1208.8316	1231.2994	1259.2647	1290.9955	1328.4657	1337.7488	1344.2585	1382.2089	1383.4219	1399.2013	1411.3257	1414.2253	1459.7005	1473.017	1477.0306	1487.8593	1490.8114	1498.6827	1500.1338	1507.5695	2985.519	3012.7842	3018.4699	3024.3475	3031.9551	3034.0771	3049.2477	3059.8934	3077.0871	3089.5583	3091.7888	3094.1528	3096.1024	3120.0909
CC1CCC2(C)OC2C1	C[C@H]1CC[C@@]2(C)O[C@H]2C1	
InChI=1S/C8H14O/c1-6-3-4-8(2)7(5-6)9-8/h6-7H,3-5H2,1-2H3	InChI=1S/C8H14O/c1-6-3-4-8(2)7(5-6)9-8/h6-7H,3-5H2,1-2H3/t6-,7-,8+/m0/s1
