18
gdb 70217	3.1592	1.32782	1.11438	2.3877	71.32	-0.2356	0.0288	0.2644	1107.5407	0.149047	-439.110782	-439.102792	-439.101848	-439.143162	31.546	
O	 0.0460114017	 1.3673481122	-0.2146861198	-0.467212
C	 0.0423561792	-0.0297486721	-0.1346538659	 0.429378
C	-0.389898044	-0.7603092809	-1.3654225567	-0.336686
C	-1.2719702935	-0.7689693599	-0.1278220459	-0.093862
C	-1.3611221897	-1.9712752689	 0.8042840025	-0.351428
C	-0.6789560511	-1.7293309643	 2.1550420582	 0.389428
O	-1.1035660585	-2.1639890041	 3.2074731488	-0.370633
N	 0.4641258394	-0.973336005	 2.071401139	-0.305409
C	 1.0863170807	-0.6449977069	 0.7909506994	-0.265512
H	-0.2663255464	 1.7104376325	 0.6308181251	 0.284222
H	-0.7196182106	-0.1500891488	-2.1979806549	 0.128037
H	 0.1304648449	-1.6722449656	-1.6422706962	 0.113055
H	-2.1575081896	-0.1443443031	-0.1841079924	 0.100766
H	-2.3933941425	-2.2566697239	 1.0118593928	 0.134951
H	-0.879275229	-2.8487985711	 0.3519090403	 0.124557
H	 1.0085343861	-0.9257416304	 2.9198312901	 0.247863
H	 1.5391452436	-1.5332526815	 0.3277887303	 0.112084
H	 1.8876062191	 0.0779235018	 0.9599747153	 0.126404
82.5896	167.5004	203.0831	340.0191	348.4878	392.2852	408.3015	454.1707	479.6725	491.015	534.8486	630.7053	685.5452	761.036	854.4864	857.7607	897.3471	921.5297	959.3652	965.3086	1003.9844	1055.5494	1081.0366	1103.4967	1109.3565	1213.7281	1224.49	1270.3241	1291.8516	1301.1854	1313.3084	1344.8439	1372.4858	1423.1873	1454.7715	1461.6016	1488.4478	1507.6147	1801.8913	2996.8596	3022.4067	3102.0187	3121.3653	3128.8862	3164.9219	3225.0088	3617.9549	3786.2678
OC12CC1CC(=O)NC2	O[C@]12C[C@H]1CC(=O)NC2	
InChI=1S/C6H9NO2/c8-5-1-4-2-6(4,9)3-7-5/h4,9H,1-3H2,(H,7,8)	InChI=1S/C6H9NO2/c8-5-1-4-2-6(4,9)3-7-5/h4,9H,1-3H2,(H,7,8)/t4-,6+/m1/s1
