20
gdb 22962	3.38573	0.84615	0.72794	0.8311	80.44	-0.2389	0.0045	0.2434	1576.5726	0.168746	-440.217701	-440.20762	-440.206675	-440.254737	35.355	
C	 0.0582585657	 0.8508400217	 0.9690913778	-0.237495
O	-1.1893935199	 0.5368118297	 0.3939933177	-0.229192
C	-1.1094612495	-0.248990232	-0.7782536053	-0.076276
C	-0.8305974385	-1.7279125214	-0.4977025615	-0.108161
C	-1.9531812415	-2.5268718691	 0.2460362704	-0.228776
C	-2.0612608439	-3.5136271657	-0.96071447	-0.321759
C	-1.0314778466	-2.6637084889	-1.6763222267	 0.410706
N	-0.5147288238	-2.6229681546	-2.8318716463	-0.238157
O	-1.013356667	-3.6603867455	-3.6436747043	-0.392587
H	-0.1343923005	 1.531270684	 1.8023586696	 0.128164
H	 0.5823950261	-0.0343521406	 1.3590841294	 0.106021
H	 0.7219523235	 1.3523382156	 0.2474186625	 0.106131
H	-2.0831285545	-0.1509663532	-1.2708390742	 0.104441
H	-0.3467736051	 0.1469713291	-1.4669760375	 0.101357
H	 0.1554942375	-1.8448729932	-0.0351231297	 0.091305
H	-1.6504433203	-2.9803807743	 1.1908101659	 0.106324
H	-2.8528055387	-1.9328801342	 0.4188566424	 0.116837
H	-1.723359055	-4.5348845405	-0.7596146587	 0.12702
H	-3.0331526881	-3.5750693686	-1.4585006512	 0.128229
H	-0.5483474097	-3.5087969584	-4.4733811303	 0.305868
23.6115	46.5811	95.4695	106.0856	187.5168	224.2567	246.2561	326.1033	378.4018	434.0943	445.861	481.8145	582.6379	715.8471	748.5977	835.0937	897.8789	907.0417	937.4517	962.4173	989.3462	1048.5275	1093.8907	1124.6624	1147.9496	1174.1448	1183.2456	1211.8512	1218.4625	1231.3777	1250.1898	1275.3659	1302.7095	1338.2651	1400.3693	1404.9845	1457.1137	1474.9241	1485.7029	1491.37	1497.3109	1509.9249	1775.987	2974.6027	2988.4213	3022.3578	3045.155	3056.2877	3070.846	3080.3082	3097.9133	3111.68	3134.2316	3818.2996
COCC1CCC1=NO	COC[C@H]1CCC1=NO	
InChI=1S/C6H11NO2/c1-9-4-5-2-3-6(5)7-8/h5,8H,2-4H2,1H3	InChI=1S/C6H11NO2/c1-9-4-5-2-3-6(5)7-8/h5,8H,2-4H2,1H3/t5-/m1/s1
