17
gdb 123413	4.88401	0.91481	0.87267	1.9977	73.23	-0.2817	-0.0238	0.2579	1345.598	0.138216	-414.164255	-414.156424	-414.155479	-414.198339	28.421	
C	-0.050877245	 1.5685427696	-0.1771245736	-0.326534
C	-0.1337297677	 0.0509260181	-0.2315096768	 0.031026
C	-0.1671081952	-0.750132969	 1.0439025762	-0.253201
C	-1.4021211968	-0.648429542	 0.1805115459	-0.27639
C	 1.3522528739	 2.0569638746	-0.0189653829	 0.399327
N	 1.8621312915	 2.5246311005	 1.1172565172	-0.263887
N	 3.1102022518	 2.786099703	 0.7492258763	-0.068029
N	 3.3849483574	 2.5137667921	-0.5167512798	-0.101475
N	 2.2734935628	 2.0470539241	-1.0214907823	-0.251097
H	-0.4679994897	 1.9951657212	-1.0962294574	 0.128051
H	-0.6443949904	 1.9456182076	 0.6611556184	 0.120407
H	 0.4141527554	-0.386793837	-1.0607057632	 0.103291
H	 0.3651514657	-1.6942051308	 1.0745271299	 0.11425
H	-0.1584686766	-0.2056167767	 1.9825473648	 0.117779
H	-2.223743315	-0.0384314479	 0.5420946817	 0.111614
H	-1.7140952008	-1.5216686958	-0.3814465935	 0.114827
H	 3.7974242388	 3.1732383284	 1.3783722492	 0.300041
31.0223	65.917	115.925	285.4465	313.4563	360.75	417.3728	576.4729	708.7116	738.6126	775.7958	791.9199	814.8456	850.1843	894.8988	961.6345	996.7155	1035.9489	1056.9727	1067.1446	1079.3976	1117.5193	1129.873	1143.4816	1191.6865	1197.1885	1224.4085	1245.7276	1276.4342	1322.9896	1363.5895	1408.334	1464.689	1471.8944	1481.2649	1507.8051	1543.1823	3044.5031	3094.3746	3129.8782	3135.0063	3154.4916	3208.3588	3223.5672	3650.4535
C(C1CC1)C1=NNN=N1	C(C1CC1)c1n[nH]nn1	
InChI=1S/C5H8N4/c1-2-4(1)3-5-6-8-9-7-5/h4H,1-3H2,(H,6,7,8,9)	InChI=1S/C5H8N4/c1-2-4(1)3-5-6-8-9-7-5/h4H,1-3H2,(H,6,7,8,9)
