20
gdb 74055	2.5319	1.36341	1.1023	5.75	84.27	-0.2142	-0.0087	0.2055	1190.1025	0.170515	-403.210113	-403.200671	-403.199727	-403.244005	36.172	
C	-0.0312863812	 1.5363124959	 0.018617008	-0.424059
C	 0.0048387449	 0.0013151553	-0.030702293	 0.19147
C	-1.4224393733	-0.5664569902	-0.0229708237	-0.423646
C	 0.8528031598	-0.5352349474	-1.2093113426	-0.366959
C	 1.9859656074	-1.2975808046	-0.5610904123	 0.390337
N	 2.9400992132	-1.8657079773	-1.3415852652	-0.576074
C	 1.9152150506	-1.2774044101	 0.7944077054	-0.3372
C	 0.7556761725	-0.5199330982	 1.2286391406	 0.39655
O	 0.380207152	-0.2978839226	 2.3639380135	-0.392458
H	 0.9787535872	 1.9589210163	-0.0171917417	 0.110974
H	-0.602122133	 1.9456826716	-0.8223053418	 0.103379
H	-0.4984990134	 1.8639829861	 0.9513062478	 0.137365
H	-2.0074239446	-0.1777600709	-0.8640013796	 0.103406
H	-1.4156347089	-1.660020906	-0.089050961	 0.108674
H	-1.9235614003	-0.2908242776	 0.9089137329	 0.137766
H	 0.2776160661	-1.196684657	-1.8702892716	 0.108941
H	 1.2495046496	 0.2689367472	-1.8412608014	 0.116491
H	 2.7634805356	-1.9882739391	-2.3242556918	 0.261022
H	 3.6052176208	-2.5001481629	-0.9313878656	 0.264305
H	 2.607101635	-1.7489492085	 1.4804144633	 0.089715
47.8013	160.8173	228.9539	235.7842	253.1534	287.4889	297.3916	311.6923	357.4346	388.9672	450.3299	535.1912	559.0653	566.8286	620.0007	723.4362	748.9453	858.6128	878.25	900.2506	925.426	962.838	984.5622	1034.2194	1075.5613	1129.139	1157.1201	1221.9392	1241.389	1253.184	1275.9204	1330.1566	1390.4569	1409.8318	1412.9037	1476.8577	1481.0783	1490.9711	1500.3666	1511.0368	1636.4433	1679.6555	1786.2642	3018.6172	3024.0789	3028.9044	3052.8283	3089.201	3092.261	3115.1292	3118.9369	3212.4545	3601.7281	3715.7937
CC1(C)CC(N)=CC1=O	CC1(C)CC(=CC1=O)N	
InChI=1S/C7H11NO/c1-7(2)4-5(8)3-6(7)9/h3H,4,8H2,1-2H3	InChI=1S/C7H11NO/c1-7(2)4-5(8)3-6(7)9/h3H,4,8H2,1-2H3
