16
gdb 112234	2.08356	1.42294	0.9372	3.9641	72.13	-0.2462	0.0228	0.269	1221.2348	0.122451	-437.862596	-437.853381	-437.852437	-437.897126	33.137	
O	-0.1881331966	 1.4658174177	-0.2957252486	-0.42946
C	 0.0182357389	 0.1005031894	 0.0384201465	-0.092366
C	-1.356418513	-0.5382969004	 0.0756775056	 0.053515
N	-2.0287956925	-0.6038041911	-1.223043531	-0.320054
C	-2.0693688291	-1.9669602124	-1.3260740641	 0.433385
O	-2.4544959927	-2.7262428977	-2.1678274888	-0.350179
C	-1.4269715143	-2.107882798	 0.1078638678	-0.385721
C	-0.2010896944	-2.8635637023	 0.2169097846	 0.353409
C	 0.8179109091	-3.4967048154	 0.2968479738	-0.462325
H	 0.670481798	 1.8858186443	-0.3999917892	 0.293933
H	 0.6420474724	-0.4122208049	-0.7066073059	 0.105258
H	 0.5005592409	-0.0143294735	 1.0210649908	 0.101139
H	-1.9653057257	-0.0549392434	 0.8470203922	 0.09974
H	-2.2698811979	 0.1278493995	-1.874528688	 0.262405
H	-2.1722171143	-2.4660416926	 0.8242952926	 0.13427
H	 1.7123858712	-4.0651579093	 0.3643923516	 0.203052
59.6764	108.212	118.4189	138.0324	238.1783	253.0169	362.7359	371.0879	417.6054	478.2741	506.6097	572.2934	615.3765	652.9635	702.9776	774.0856	820.9322	884.1321	935.3436	1062.3555	1073.2295	1085.5928	1117.2395	1137.9808	1186.0391	1218.4444	1252.1076	1283.7849	1323.8339	1376.864	1389.7052	1465.243	1510.8009	1909.298	2236.5482	2988.9307	3030.6431	3057.4228	3073.7628	3502.9407	3623.3488	3833.8483
OCC1NC(=O)C1C#C	OC[C@H]1NC(=O)[C@H]1C#C	
InChI=1S/C6H7NO2/c1-2-4-5(3-8)7-6(4)9/h1,4-5,8H,3H2,(H,7,9)	InChI=1S/C6H7NO2/c1-2-4-5(3-8)7-6(4)9/h1,4-5,8H,3H2,(H,7,9)/t4-,5+/m0/s1
