19
gdb 31144	2.01953	1.71202	0.98884	2.1399	79.69	-0.1872	0.0351	0.2223	1219.0696	0.159332	-419.221383	-419.211746	-419.210802	-419.255582	35.424	
C	-0.1821768887	 1.4906460288	 0.0514277769	-0.330409
N	 0.0458662656	 0.0408327606	 0.0372622289	-0.395412
C	 0.6967153621	-0.4544278302	-1.1226180035	 0.031313
C	 0.119435719	-1.244414695	-2.0749729776	 0.358177
C	-1.2460073174	-1.8146662583	-2.1880054909	-0.493031
O	 1.0100193847	-1.5161010694	-3.0587774735	-0.194745
C	 2.1929392845	-0.89579047	-2.7314793653	-0.117644
C	 2.0603095285	-0.2255235179	-1.5563507091	 0.175646
N	 2.9832120009	 0.5947888918	-0.8903701797	-0.609551
H	 0.7293428142	 2.0928098546	-0.079557712	 0.116307
H	-0.8721562532	 1.7499300548	-0.7571873822	 0.12825
H	-0.653393193	 1.7678539662	 0.9995857431	 0.111658
H	 0.5264694019	-0.2463292936	 0.8833204468	 0.217209
H	-1.770751023	-1.4404827611	-3.0747860107	 0.131671
H	-1.2211948818	-2.9080141006	-2.2603663883	 0.13099
H	-1.8145194535	-1.533441733	-1.2991517275	 0.145245
H	 3.0020425174	-1.024248718	-3.4303386913	 0.114907
H	 3.9440480702	 0.3922629157	-1.1344588995	 0.243656
H	 2.8801147615	 0.5475087148	 0.1157207254	 0.235762
87.0573	142.9961	155.6389	181.0087	183.6918	221.5726	262.5998	287.5103	342.0112	421.9858	511.4095	569.9533	615.6216	650.1815	671.7675	690.1738	739.0911	783.3012	802.5202	948.9549	1040.0601	1045.4034	1066.7021	1116.0482	1148.0901	1156.4783	1175.1705	1228.4045	1302.0533	1334.2008	1402.374	1437.144	1452.4429	1472.3136	1479.7421	1487.2487	1490.9421	1523.6805	1619.0716	1648.6027	1695.9896	2993.0787	3027.9039	3071.2908	3076.8761	3108.4334	3135.632	3276.0403	3508.7606	3529.7905	3619.5381
CNC1=C(C)OC=C1N	CNc1c(C)occ1N	
InChI=1S/C6H10N2O/c1-4-6(8-2)5(7)3-9-4/h3,8H,7H2,1-2H3	InChI=1S/C6H10N2O/c1-4-6(8-2)5(7)3-9-4/h3,8H,7H2,1-2H3
