21
gdb 79252	2.35327	1.98449	1.52138	1.5753	79.86	-0.249	0.0743	0.3233	977.294	0.184953	-387.108227	-387.100565	-387.099621	-387.139593	32.145	
C	-0.0071403059	 1.5087893211	-0.0100237744	-0.489593
C	 0.0365813626	-0.0046624634	 0.008868321	 0.257096
C	 0.721467609	-0.7295462733	-1.1765246776	-0.254316
C	 0.4773570706	-2.161183857	-0.7046663811	-0.064318
C	 0.4759231825	-2.1317036046	 0.8114528263	-0.071168
C	 0.7317669658	-0.68380579	 1.2175166504	-0.264778
C	-0.839378111	-2.1574498763	 0.044441391	-0.115061
C	-1.3502021178	-0.7249713218	 0.0127149721	 0.144194
O	-2.2122238963	-0.3675160908	 1.0783306369	-0.455493
H	 0.9955047643	 1.9415697437	 0.0752372067	 0.107555
H	-0.4527471942	 1.8804077884	-0.9397111561	 0.110711
H	-0.6141800255	 1.8829015991	 0.8203885582	 0.125103
H	 0.2374858046	-0.5057630035	-2.134062119	 0.093158
H	 1.7850370186	-0.4807959108	-1.2637747635	 0.092213
H	 0.8118473053	-3.0286158512	-1.2586786601	 0.082695
H	 0.8090589359	-2.9784991688	 1.397141271	 0.08122
H	 1.7979230638	-0.4372411807	 1.269225152	 0.094677
H	 0.2772830105	-0.40574843	 2.1753803953	 0.083454
H	-1.5052341742	-3.0107237972	 0.0558658415	 0.083462
H	-1.9078493427	-0.492268694	-0.9017088661	 0.076854
H	-1.8968454162	-0.8098815789	 1.8728355556	 0.282335
190.8459	209.7896	242.0313	287.4712	312.8122	356.4877	426.7868	478.0123	544.7708	603.1028	653.3301	711.9613	792.7038	814.8862	830.1763	857.1929	899.3235	929.8755	947.5955	956.9934	989.4851	1015.3668	1026.4913	1040.0899	1067.3566	1072.8528	1109.5954	1138.8129	1145.528	1162.5216	1201.6129	1249.2661	1254.4444	1266.7308	1296.9736	1307.2936	1314.1144	1344.0547	1392.7102	1414.3198	1429.9403	1490.3987	1495.7132	1499.7411	1512.8756	3027.1503	3031.5573	3036.9128	3047.9644	3073.4532	3076.0809	3090.2892	3103.6165	3192.5729	3193.4232	3207.1747	3820.2472
CC12CC3C(C1)C3C2O	C[C@@]12C[C@H]3[C@@H](C1)[C@H]3[C@H]2O	
InChI=1S/C8H12O/c1-8-2-4-5(3-8)6(4)7(8)9/h4-7,9H,2-3H2,1H3	InChI=1S/C8H12O/c1-8-2-4-5(3-8)6(4)7(8)9/h4-7,9H,2-3H2,1H3/t4-,5+,6-,7-,8+/m1/s1
