18
gdb 79523	3.18999	1.62715	1.3603	2.823	70.8	-0.2443	0.0615	0.3059	970.4034	0.15025	-439.012379	-439.005474	-439.00453	-439.043484	28.575	
O	-0.0008256995	 1.4146035596	-0.1061725465	-0.446955
C	 0.0689730161	-0.0021201072	 0.0067337398	 0.057712
C	-1.3106932797	-0.6194134011	-0.1367789781	-0.011643
C	-1.297697845	-2.012700047	-0.8208928764	-0.09245
C	-2.5639828942	-1.545657118	-1.5531346815	-0.173675
N	-1.7052067606	-0.2796192802	-1.5979278125	-0.18595
C	-0.5035228603	-1.2273958012	-1.8953306408	-0.02203
C	 0.7471452799	-0.6290832775	-1.2614265271	 0.115146
O	 1.4256642689	 0.3098764503	-2.0508965458	-0.44479
H	-0.7324131428	 1.5948962951	-0.716090869	 0.301194
H	 0.584010076	-0.2235740497	 0.9433976979	 0.089794
H	-2.0670504634	-0.3706404787	 0.6105592667	 0.084379
H	-1.0674160167	-2.9877068857	-0.3782027846	 0.070109
H	-2.7737830297	-1.9641384191	-2.5412500923	 0.106982
H	-3.4841133348	-1.4273015172	-0.9732582108	 0.103802
H	-0.447804134	-1.5833130176	-2.9248287196	 0.085522
H	 1.4411349359	-1.4337513368	-0.9818001512	 0.076845
H	 1.2369521339	 1.1700757821	-1.6457099682	 0.286009
121.5559	221.1085	315.8823	344.8438	386.9491	470.1828	510.3203	585.8849	658.87	691.3546	710.7496	794.772	830.2424	869.3924	875.4882	905.273	927.0318	972.0108	984.9936	1046.8144	1060.8031	1087.6905	1108.5892	1110.5125	1132.7966	1146.6764	1185.3663	1211.8942	1220.5987	1237.8021	1260.0347	1273.9558	1297.6593	1303.8786	1358.5859	1373.6331	1427.2095	1445.8606	1530.0446	3009.167	3041.7052	3053.6584	3094.3702	3104.6614	3112.2552	3119.2302	3698.3376	3721.5363
OC1C2C3CN2C3C1O	O[C@H]1[C@@H]2[C@H]3CN2[C@H]3[C@H]1O	
InChI=1S/C6H9NO2/c8-5-3-2-1-7(3)4(2)6(5)9/h2-6,8-9H,1H2	InChI=1S/C6H9NO2/c8-5-3-2-1-7(3)4(2)6(5)9/h2-6,8-9H,1H2/t2-,3+,4-,5+,6-
