17
gdb 84211	3.99634	1.67228	1.57663	3.7153	75.9	-0.206	-0.0491	0.1569	893.5126	0.136466	-380.729096	-380.722552	-380.721607	-380.75964	27.344	
C	-0.4576983321	 1.545045512	-0.0104317166	-0.385975
C	 0.0603320048	 0.1159991524	-0.0624079122	 0.038438
N	 1.1718702522	 0.0481486584	-1.0863951791	-0.233114
C	 1.952555143	-0.7833787323	-0.5265631986	 0.209404
C	 1.5099494911	-1.6913475168	 0.6476879536	-0.157636
C	 2.8762383146	-1.3325072483	 1.2732052445	-0.052003
C	 2.3485007642	 0.0517510575	 1.4244695194	-0.035131
C	 0.8440474287	-0.4009062791	 1.2074720568	-0.068592
N	 3.1806665139	-0.3928860182	 0.1690024326	-0.166842
H	 0.3673534535	 2.2473068483	 0.1388832711	 0.12833
H	-0.959193791	 1.8070458786	-0.9455406835	 0.131786
H	-1.1728807974	 1.6582484742	 0.8125123324	 0.108138
H	-0.776619253	-0.5747125053	-0.2519916167	 0.083807
H	 1.0058292535	-2.6485465722	 0.562307818	 0.094008
H	 3.6282288068	-1.8893674324	 1.8138695364	 0.109477
H	 2.7371346864	 0.9074665648	 1.9604952261	 0.115009
H	 0.2963181507	-0.4553270617	 2.1529555555	 0.080895
138.3947	233.5854	281.5122	441.8328	495.2275	523.5022	572.5782	628.6084	655.9435	755.3883	808.3636	815.9742	825.0125	849.0169	881.6567	893.627	924.3623	944.2278	994.8942	1022.381	1032.7065	1040.2507	1065.85	1082.1536	1130.2489	1166.4075	1182.9655	1189.8722	1225.6148	1248.8467	1280.1212	1304.4328	1345.2869	1403.9974	1478.8268	1497.3208	1618.7439	2973.6982	3035.0028	3076.8614	3107.7253	3124.866	3172.3157	3206.6292	3224.6691
CC1N=C2C3C4C(C13)N24	C[C@H]1[N][C]2[C@H]3[C@@H]4[C@H]([C@@H]13)N24	
InChI=1S/C7H8N2/c1-2-3-4-6-5(3)9(6)7(4)8-2/h2-6H,1H3	InChI=1S/C7H8N2/c1-2-3-4-6-5(3)9(6)7(4)8-2/h2-6H,1H3/t2-,3+,4-,5+,6-,9?/m1/s1
