18
gdb 94016	4.12808	0.99873	0.851	2.485	78.25	-0.2237	-0.0136	0.2101	1321.885	0.149266	-439.123834	-439.115598	-439.114654	-439.156762	31.301	
O	 0.1293002839	 1.4264474808	 0.1669251501	-0.433097
C	 0.0633756651	 0.008334431	 0.0607873075	 0.099728
C	-1.3901577893	-0.4978390671	 0.0758815248	-0.237928
C	-1.45190617	-1.9800153705	-0.2903756811	-0.186988
N	-0.8592161634	-2.2021880567	-1.6096218539	-0.074973
C	-1.3587923964	-3.1494760173	-2.4714846057	 0.148492
O	-0.8951960417	-3.4174863815	-3.5569134258	-0.32348
C	 0.292569677	-1.4805794996	-1.9373232549	 0.035985
C	 0.7686470217	-0.4923350056	-1.1735032782	-0.203518
H	-0.180952746	 1.7916276462	-0.6698065052	 0.27717
H	 0.5794597361	-0.3465635944	 0.9630981409	 0.099889
H	-1.8402498054	-0.3311790241	 1.0580670318	 0.114612
H	-1.9689525098	 0.0799002684	-0.6552463016	 0.104844
H	-0.9077800066	-2.5726552584	 0.4586637509	 0.122222
H	-2.4843975268	-2.3394578905	-0.3099065466	 0.122825
H	-2.2539770693	-3.6475972363	-2.0527365256	 0.080019
H	 0.7575386122	-1.814521469	-2.8561476948	 0.149202
H	 1.6895255987	 0.0060918243	-1.4555633327	 0.104994
70.1847	160.2461	227.4884	262.179	289.1511	326.6788	360.2316	380.6895	408.9114	527.4866	599.7928	631.66	751.4452	773.9288	839.6577	859.1358	968.4231	988.222	991.6654	1021.6088	1050.6731	1084.8802	1100.6483	1156.2432	1214.0221	1223.8472	1270.9035	1316.6293	1334.9629	1356.2431	1373.7852	1388.5917	1413.3941	1437.8173	1451.0992	1484.4643	1500.304	1710.033	1797.8061	2950.7135	3005.9467	3013.9794	3039.3825	3090.6486	3101.7933	3191.9081	3228.3147	3792.3038
OC1CCN(C=O)C=C1	O[C@H]1CCN(C=O)C=C1	
InChI=1S/C6H9NO2/c8-5-7-3-1-6(9)2-4-7/h1,3,5-6,9H,2,4H2	InChI=1S/C6H9NO2/c8-5-7-3-1-6(9)2-4-7/h1,3,5-6,9H,2,4H2/t6-/m1/s1
