16
gdb 51322	4.55422	0.94545	0.80951	3.6194	68.54	-0.2519	-0.0261	0.2259	1348.4535	0.124423	-475.048487	-475.040357	-475.039413	-475.081994	28.992	
O	 0.1266397892	-0.0543904007	-0.0306987385	-0.25289
C	 0.0394868175	 1.1227787831	 0.1196793089	 0.175252
O	 1.0871134525	 1.9519747749	-0.206784079	-0.228217
C	 0.9094139451	 3.3156589194	-0.1442992386	 0.400838
N	-0.2323476013	 3.8453097708	-0.1853367626	-0.300197
C	-0.2910325573	 5.3036854882	-0.0786422231	-0.154646
C	 0.9898181449	 5.9145609602	 0.4821071729	-0.095716
O	 2.1182665747	 5.4056498979	-0.2163110912	-0.239673
C	 2.2437927697	 4.0150719298	-0.0474403185	-0.17252
H	-0.8187810149	 1.6735766821	 0.5243433903	 0.131191
H	-0.4995382411	 5.7066342312	-1.0773576379	 0.128663
H	-1.1469311277	 5.5669950936	 0.5533770414	 0.117579
H	 1.0045702729	 6.9993524148	 0.3505092255	 0.121171
H	 1.0774326169	 5.6959634127	 1.5591675368	 0.097529
H	 2.7076949416	 3.7569538206	 0.9208278412	 0.121698
H	 2.9060876674	 3.6409550213	-0.8342958976	 0.149936
68.1401	100.7534	155.0063	185.3293	265.9219	346.0528	371.0208	475.0434	500.2213	542.8136	581.2837	775.4114	848.4975	901.7427	942.4169	1002.661	1025.0695	1045.8798	1068.6919	1112.2639	1136.1663	1159.7345	1229.9373	1234.8869	1270.9784	1308.5355	1366.7586	1380.6214	1396.0959	1422.2969	1475.3221	1481.6869	1496.7876	1765.779	1873.995	2960.5103	2975.4127	3033.0072	3068.2546	3076.8811	3085.8412	3101.5039
O=COC1=NCCOC1	O=COC1=NCCOC1	
InChI=1S/C5H7NO3/c7-4-9-5-3-8-2-1-6-5/h4H,1-3H2	InChI=1S/C5H7NO3/c7-4-9-5-3-8-2-1-6-5/h4H,1-3H2
