20
gdb 57367	2.10116	1.57251	1.20674	4.7813	79.07	-0.2781	0.0397	0.3177	1136.9901	0.168276	-403.155085	-403.145057	-403.144113	-403.189831	37.739	
C	 0.2753141641	 1.5312830744	 0.1682561075	-0.436463
C	 0.047212663	 0.0178953105	 0.0314903302	 0.250997
C	 0.4683562453	-0.6959499857	 1.3242671154	-0.436326
O	-1.3328167385	-0.2567254253	-0.2279327973	-0.454175
C	 0.7653139849	-0.5091972915	-1.2254790521	 0.211784
C	 2.2057264745	-1.0012217257	-1.1966478202	-0.308604
C	 1.0937910886	-1.9834131904	-1.4070158085	-0.300884
C	 0.3738017287	 0.1762122333	-2.4370217333	 0.261665
N	 0.0879368363	 0.7243037925	-3.4148512016	-0.363627
H	 1.3348585272	 1.7589040925	 0.3197245016	 0.123417
H	-0.0695263558	 2.056762712	-0.7251648574	 0.154002
H	-0.2746247749	 1.9180578026	 1.0338782989	 0.106978
H	-0.1188948401	-0.2888729972	 2.1537543638	 0.115589
H	 0.263056736	-1.7673919882	 1.2759334009	 0.13049
H	 1.5230144208	-0.5404358782	 1.5682213455	 0.120785
H	-1.8611815696	 0.2685049579	 0.3823070723	 0.281775
H	 2.8331030684	-0.7394061563	-2.0399934945	 0.140494
H	 2.7125419075	-0.9949733447	-0.2394995875	 0.12715
H	 0.8321448956	-2.6523815875	-0.5974250845	 0.132077
H	 0.9517776178	-2.3983142848	-2.397260259	 0.142877
32.1669	151.7296	194.489	210.5554	223.808	264.3097	277.5942	286.2002	326.5045	372.581	394.791	452.4669	479.295	579.5462	607.276	617.9331	775.8571	829.6331	899.7703	917.7912	922.216	954.0882	973.1019	981.9082	1020.1475	1071.4176	1094.6807	1132.482	1188.4865	1191.6964	1208.603	1270.6053	1306.8382	1377.4026	1398.3513	1418.0488	1464.0267	1479.4613	1487.9911	1500.0453	1504.6048	1513.6067	2350.5091	3033.1408	3045.7721	3099.2497	3108.6647	3131.6953	3132.962	3152.3465	3158.6196	3235.5386	3250.1	3812.0897
CC(C)(O)C1(CC1)C#N	CC(C)(O)C1(CC1)C#N	
InChI=1S/C7H11NO/c1-6(2,9)7(5-8)3-4-7/h9H,3-4H2,1-2H3	InChI=1S/C7H11NO/c1-6(2,9)7(5-8)3-4-7/h9H,3-4H2,1-2H3
