16
gdb 31586	3.37586	1.16251	0.87352	0.7536	68.42	-0.177	0.0605	0.2375	1276.2106	0.124855	-471.230388	-471.221195	-471.220251	-471.264257	33.083	
C	-0.0283709516	 1.3748656343	 0.0530025599	-0.233527
O	 0.0101323404	-0.0519149175	 0.0518849667	-0.270376
C	 0.6364665218	-0.5998452048	 1.1013303236	 0.487773
N	 1.2058892349	 0.0260375947	 2.1084927647	-0.451049
C	 1.6961532685	-0.9845641487	 2.9025498348	 0.287997
O	 2.3589396468	-0.7121911867	 4.0533363608	-0.445177
C	 1.4312234464	-2.2228145766	 2.3892469552	 0.147647
N	 1.690120028	-3.5504057598	 2.77102399	-0.617963
N	 0.7292746586	-1.9400810518	 1.1973809075	-0.363474
H	 0.9834130823	 1.791212049	 0.0430753094	 0.137259
H	-0.5643680892	 1.657419965	-0.8536439585	 0.130249
H	-0.5521388084	 1.7490737485	 0.937751207	 0.137269
H	 2.3772342059	 0.2487640983	 4.1300491297	 0.297199
H	 1.2704539084	-3.782463755	 3.6650986733	 0.245007
H	 2.6835874453	-3.7434934982	 2.8422774523	 0.245011
H	 0.372444462	-2.6240646807	 0.5524748635	 0.266154
83.5063	145.2852	162.734	199.6419	211.0989	267.716	270.9923	334.0686	348.628	404.4999	477.3099	558.1073	666.1767	673.7059	687.9677	737.0682	772.7666	840.63	1020.5524	1092.5897	1135.4337	1182.5033	1213.5997	1216.4847	1227.5478	1265.8527	1361.1773	1439.9124	1466.4481	1477.4702	1501.4418	1520.1693	1614.0756	1663.5768	1715.1546	3039.637	3109.0157	3150.5761	3499.386	3559.1829	3678.6565	3812.6944
COC1=NC(O)=C(N)N1	COc1nc(O)c(N)[nH]1	
InChI=1S/C4H7N3O2/c1-9-4-6-2(5)3(8)7-4/h8H,5H2,1H3,(H,6,7)	InChI=1S/C4H7N3O2/c1-9-4-6-2(5)3(8)7-4/h8H,5H2,1H3,(H,6,7)
