19
gdb 89674	2.98961	1.28523	1.08984	4.4994	82.57	-0.2292	0.0179	0.247	1174.652	0.158403	-382.049299	-382.040228	-382.039284	-382.082757	33.874	
C	-0.2190355099	 1.4509497479	 0.0401624697	-0.338756
N	 0.1199486425	 0.0395278485	 0.0117640379	-0.106903
C	 1.2020021511	-0.427270765	-0.8923982667	-0.231792
C	 1.8805501156	-1.1347331446	 0.2880467182	 0.130369
C	 2.1800030493	-0.104650559	 1.3665699323	-0.370563
C	 0.7606176824	-0.5612829093	 1.1832441944	 0.303334
C	-0.0634219641	-1.204746664	 2.2564140963	-0.473927
C	 2.4450971404	-2.4397570322	 0.2725657754	 0.189555
N	 2.902138541	-3.5038941152	 0.2547635143	-0.353939
H	 0.6358591006	 2.1190378624	 0.2444956783	 0.098191
H	-0.6501340015	 1.7381875055	-0.9238836535	 0.129327
H	-0.9784928816	 1.6257029389	 0.808721628	 0.128592
H	 0.8304431875	-1.1019902196	-1.6685246033	 0.129195
H	 1.8038770951	 0.3657289633	-1.3558656589	 0.105669
H	 2.6884225955	-0.497391548	 2.2407259758	 0.137866
H	 2.5061189496	 0.8853728506	 1.0591703528	 0.119903
H	-0.5526487881	-0.4437422306	 2.8756448585	 0.129171
H	-0.8392674719	-1.8373864693	 1.8170587433	 0.139186
H	 0.5615538064	-1.8160812203	 2.9133982471	 0.135523
108.8264	125.2707	174.2676	188.4053	195.5224	264.3177	300.0241	357.7339	419.3878	469.8577	527.8568	564.0784	599.7472	700.136	708.81	808.2241	850.0221	946.4702	969.0495	977.9384	1013.0427	1070.9393	1093.1282	1114.757	1144.6629	1160.3875	1189.1741	1233.2346	1253.0481	1287.9169	1337.7408	1384.0554	1422.9379	1448.965	1476.2213	1482.8011	1488.6567	1496.8029	1501.0735	1515.1639	2342.4471	2951.8078	3013.7335	3034.6475	3066.3992	3085.5357	3100.1001	3107.1943	3118.6772	3125.7489	3213.9089
CN1CC2(CC12C)C#N	CN1C[C@]2(C[C@@]12C)C#N	
InChI=1S/C7H10N2/c1-6-3-7(6,4-8)5-9(6)2/h3,5H2,1-2H3	InChI=1S/C7H10N2/c1-6-3-7(6,4-8)5-9(6)2/h3,5H2,1-2H3/t6-,7+/m1/s1
