20
gdb 103614	2.69079	1.20358	1.07159	2.5013	77.16	-0.2397	0.0281	0.2679	1254.9442	0.168971	-440.311366	-440.301071	-440.300127	-440.346635	36.457	
C	 0.0493638032	 1.5909706167	 0.0146721309	-0.404988
C	 0.0220577452	 0.060043149	-0.0541366184	-0.226415
C	-1.3961091542	-0.5069527093	-0.0558139785	 0.268705
O	-2.155265617	-0.064864953	-1.1655562862	-0.483239
C	-1.520812004	-2.0480860661	 0.1500166552	-0.219007
N	-2.1839458403	-1.7617917575	 1.4280345671	-0.082439
C	-2.7874222303	-2.6178475114	 2.4157142065	-0.344521
C	-2.1731873008	-0.4025989664	 1.2888751871	 0.360449
O	-2.6335542903	 0.4973930801	 1.9501803283	-0.395766
H	 1.077884535	 1.9612431383	 0.0449836629	 0.114709
H	-0.4320744807	 2.0275495705	-0.8660507708	 0.116625
H	-0.4732578774	 1.9528004951	 0.9050857596	 0.145912
H	 0.5275166541	-0.2861820385	-0.9643444104	 0.104766
H	 0.5687208648	-0.3640028723	 0.7974143363	 0.09963
H	-2.5380240042	 0.7877235834	-0.9295601083	 0.296675
H	-2.1676140426	-2.5289963951	-0.5902497833	 0.11947
H	-0.5782010627	-2.5975293481	 0.2477499326	 0.106512
H	-2.0455419409	-3.2762984473	 2.8831961668	 0.129826
H	-3.2281070741	-1.9791728514	 3.184957168	 0.161743
H	-3.5772809431	-3.2407497669	 1.9779316848	 0.131355
77.7477	111.2683	113.4905	147.1827	188.7084	198.9733	240.839	249.1245	295.2813	313.1276	379.1842	416.2602	579.4508	619.9462	738.3641	788.1221	807.0974	855.5669	928.2581	975.0786	1000.9335	1024.2939	1060.6476	1106.7499	1126.1839	1169.1118	1197.2104	1220.1491	1258.2445	1285.9453	1330.973	1335.827	1381.7138	1407.3732	1423.1877	1449.5261	1475.8128	1481.9198	1499.3144	1506.4932	1514.2899	1527.9867	1862.044	3015.7221	3022.2058	3035.9331	3041.5962	3060.9075	3067.7654	3091.1999	3109.83	3120.1318	3129.5467	3805.7781
CCC1(O)CN(C)C1=O	CC[C@@]1(O)CN(C)C1=O	
InChI=1S/C6H11NO2/c1-3-6(9)4-7(2)5(6)8/h9H,3-4H2,1-2H3	InChI=1S/C6H11NO2/c1-3-6(9)4-7(2)5(6)8/h9H,3-4H2,1-2H3/t6-/m1/s1
