21
gdb 52157	3.91251	0.75908	0.72536	2.9806	83.6	-0.2444	-0.0183	0.2261	1617.1161	0.182107	-387.069011	-387.059975	-387.05903	-387.104278	33.202	
O	-0.2492944548	 0.0088410672	-0.4122457598	-0.238508
C	 0.0287951147	 1.1274797168	-0.0641234296	 0.158395
C	 1.348749038	 1.8163985158	-0.3153409982	-0.263709
C	 1.1668115906	 3.129359191	-1.1035357581	-0.237912
C	 2.4674262461	 3.8955748337	-1.2438373992	 0.013486
C	 3.5465268288	 3.6085793306	-2.2556197745	-0.062113
C	 2.9623043368	 3.2157145416	-3.6201559415	-0.230854
C	 2.1754647549	 4.5658438536	-3.6578434732	-0.228274
C	 2.7679778174	 4.9344702314	-2.2907177447	-0.087503
H	-0.7152886733	 1.7555697573	 0.482897691	 0.066887
H	 1.7947055253	 2.0468855434	 0.6635227239	 0.113997
H	 2.015790973	 1.1256709505	-0.8384479765	 0.12515
H	 0.7417253423	 2.8983637433	-2.0851323868	 0.115774
H	 0.4289158887	 3.762293915	-0.5921500052	 0.101734
H	 2.8934035432	 4.1698193712	-0.2787896472	 0.082296
H	 4.571148294	 3.4311779163	-1.9499546227	 0.082283
H	 3.7232891835	 3.1655271426	-4.4015212786	 0.105603
H	 2.3766544796	 2.2912260032	-3.6558637236	 0.099464
H	 2.5318194207	 5.2212748712	-4.4552668721	 0.104845
H	 1.0838828516	 4.5127155005	-3.7234136892	 0.09659
H	 3.103742369	 5.9267009738	-2.011769724	 0.08237
44.3119	64.0916	85.8852	141.553	244.713	265.5599	321.3977	413.5431	522.8807	541.1298	709.4539	756.6878	773.4882	788.9952	801.921	863.3291	909.2523	944.1138	954.7767	980.114	1007.4359	1016.9775	1025.6322	1070.0783	1073.6563	1101.765	1126.2818	1149.5334	1181.7354	1223.1102	1230.9534	1245.4171	1262.7863	1268.4643	1304.7402	1313.5693	1342.4753	1371.9557	1429.3006	1452.9255	1464.2126	1481.0502	1496.0785	1509.1254	1836.0175	2841.3424	3009.6956	3019.8235	3044.5993	3052.0434	3080.0949	3096.5987	3103.3618	3112.5205	3114.9819	3168.1111	3180.0913
O=CCCC1C2CCC12	O=CCC[C@H]1[C@H]2CC[C@@H]12	
InChI=1S/C8H12O/c9-5-1-2-6-7-3-4-8(6)7/h5-8H,1-4H2	InChI=1S/C8H12O/c9-5-1-2-6-7-3-4-8(6)7/h5-8H,1-4H2/t6-,7+,8-
