19
gdb 107935	3.46803	1.29537	1.13851	2.3954	75.11	-0.2307	0.0675	0.2982	1135.3591	0.158264	-422.96388	-422.955533	-422.954589	-422.996659	32.53	
C	 0.1105457869	 1.3319911074	-0.1174089403	-0.505949
C	 0.0278672987	-0.1509355308	-0.0005864032	 0.488006
O	 0.9307175374	-0.9614376918	-0.7654921957	-0.379228
C	 0.0734370265	-2.1020592485	-0.4169662562	 0.413626
C	 0.1414117314	-3.1868316287	-1.4505119957	-0.187699
O	 1.4681544606	-3.6673181213	-1.5798561201	-0.41709
C	 0.3715032082	-2.2970375056	 1.0944227118	-0.262698
C	-0.3291717841	-0.9506709551	 1.2680501354	-0.161921
C	-1.1025901202	-1.1231979864	-0.0416837742	-0.278644
H	 1.0798506272	 1.6953303511	 0.2403366991	 0.133851
H	-0.014180179	 1.6511984145	-1.1568491775	 0.131019
H	-0.6724059424	 1.8021451743	 0.4850215265	 0.127336
H	-0.4796863952	-4.0366191638	-1.1482948125	 0.111508
H	-0.2483045315	-2.8042099362	-2.4068952846	 0.095736
H	 2.0247017662	-2.893697973	-1.7293675908	 0.298792
H	-0.2180594131	-3.1148461214	 1.5176192154	 0.102764
H	 1.4244459543	-2.3950010894	 1.3725906284	 0.103023
H	-0.6667231661	-0.471130209	 2.1784391156	 0.089634
H	-2.1498303057	-1.0564578262	-0.3029552511	 0.097934
79.7079	148.502	203.9407	216.4749	277.2264	340.5807	369.4902	416.7662	478.0143	549.8274	614.5953	690.0796	763.7591	782.7043	825.7186	857.4994	886.3377	906.1049	937.7408	964.1111	966.2896	1035.7201	1059.8784	1070.224	1083.5161	1100.4349	1115.3658	1149.7824	1196.766	1224.6751	1233.1903	1271.2576	1339.6664	1374.2384	1401.6178	1436.3592	1462.0732	1474.5256	1488.875	1495.4151	1502.1439	2984.375	3035.7307	3054.7582	3076.1216	3101.5854	3114.7778	3115.2848	3193.1443	3207.9707	3794.9361
CC12OC3(CO)CC1C23	C[C@@]12O[C@@]3(CO)C[C@@H]1[C@@H]23	
InChI=1S/C7H10O2/c1-6-4-2-7(3-8,9-6)5(4)6/h4-5,8H,2-3H2,1H3	InChI=1S/C7H10O2/c1-6-4-2-7(3-8,9-6)5(4)6/h4-5,8H,2-3H2,1H3/t4-,5+,6-,7-/m1/s1
