19
gdb 115313	2.96223	1.18333	0.94115	1.1222	71.76	-0.2562	-0.039	0.2172	1279.5279	0.158069	-460.18322	-460.174049	-460.173105	-460.217507	33.631	
C	-0.1823397068	 1.6730458189	 0.1135794584	-0.391679
C	-0.0498295168	 0.1769126532	-0.1738945074	-0.177611
C	-1.3552178869	-0.5854418364	 0.0897868432	 0.012231
O	-2.4288731588	-0.1684637603	-0.7577342453	-0.270362
C	-2.5780866238	-1.1095761442	-1.8268118846	-0.127007
C	-2.3184959152	-2.4666368938	-1.1645389842	 0.045901
O	-1.9357292276	-3.5015095731	-2.0219152904	-0.436022
C	-1.2103049616	-2.0768381513	-0.19008812	 0.336178
O	-0.3355947093	-2.8238052671	 0.1704939871	-0.33111
H	 0.7472333869	 2.2002939814	-0.1194537112	 0.116742
H	-0.9850053537	 2.1099774685	-0.4866226459	 0.135938
H	-0.4153679196	 1.8529800583	 1.168881316	 0.116513
H	 0.2513810752	 0.0173599221	-1.2164114107	 0.104277
H	 0.7282268082	-0.2793327464	 0.4486705752	 0.121275
H	-1.6688797067	-0.422319021	 1.1298590427	 0.112105
H	-3.5846546065	-0.9899267096	-2.230108912	 0.124484
H	-1.8475982256	-0.945065111	-2.632874713	 0.109274
H	-3.2054638288	-2.7378237089	-0.5641748723	 0.103774
H	-1.2081541926	-3.9621704792	-1.5777055355	 0.295099
60.1583	101.8826	151.0978	176.361	235.3791	264.328	304.2943	362.518	390.542	445.8646	506.5809	614.5068	640.4445	673.0081	770.632	846.8102	882.3536	942.9111	996.9381	1021.1275	1047.8031	1076.7322	1096.4129	1121.8534	1146.821	1181.5657	1216.1464	1255.4744	1281.1609	1286.6702	1314.7578	1347.1695	1375.6936	1391.4386	1409.1212	1412.6805	1477.9958	1496.0157	1508.2721	1519.1708	1847.1401	2948.0713	3001.4127	3018.7057	3035.3029	3038.696	3075.8949	3106.3888	3120.5192	3122.5736	3718.8734
CCC1OCC(O)C1=O	CC[C@H]1OC[C@@H](O)C1=O	
InChI=1S/C6H10O3/c1-2-5-6(8)4(7)3-9-5/h4-5,7H,2-3H2,1H3	InChI=1S/C6H10O3/c1-2-5-6(8)4(7)3-9-5/h4-5,7H,2-3H2,1H3/t4-,5-/m1/s1
