17
gdb 80327	2.19894	1.53807	1.33655	5.6771	72.52	-0.2438	0.0068	0.2506	1053.8946	0.135832	-417.966008	-417.957526	-417.956581	-417.998922	32.002	
C	-0.0698423951	 1.5647960358	-0.0551857397	-0.503148
C	-0.0061505996	 0.0697629132	 0.0385395341	 0.255115
C	-0.8683622791	-0.7810330866	 0.9604033791	 0.110151
O	-1.6735682665	-1.831271879	 0.5508018954	-0.429249
C	 0.6147334202	-0.9087087802	 1.0570676724	-0.141113
N	 0.9998670977	-1.8567996496	-0.0181730147	-0.353528
C	 0.6200476984	-0.8306426559	-1.0443140351	-0.190756
C	-0.2151705026	-1.315606	-2.1478202144	 0.30156
N	-0.8480562276	-1.6776051375	-3.0443048621	-0.323409
H	 0.9007372371	 2.0001230194	-0.3204875127	 0.119476
H	-0.7982306607	 1.8780265243	-0.8122336211	 0.142921
H	-0.3803616766	 2.0003884896	 0.8994531102	 0.129948
H	-1.3375713622	-0.1925292433	 1.7446096617	 0.1103
H	-1.0755060383	-2.5285797113	 0.2411710749	 0.301468
H	 1.2273695621	-0.7628291713	 1.9392958473	 0.104343
H	 1.993951214	-2.0516382652	-0.041648935	 0.24032
H	 1.5001423489	-0.3399479324	-1.4746790703	 0.125601
106.9835	128.3119	187.1896	213.641	257.3019	295.4344	302.8495	462.7514	494.2422	530.2332	552.676	624.6912	645.5877	767.3563	806.8435	841.139	910.2153	920.5734	977.1003	986.6076	1014.0752	1056.1215	1082.102	1114.6243	1162.1436	1185.6913	1245.9607	1254.5179	1297.4563	1342.9798	1368.7147	1398.2773	1418.8765	1477.4262	1485.9879	1497.8247	2357.2095	3023.0625	3045.8826	3082.9322	3103.3991	3152.8865	3179.8747	3550.6729	3713.0791
CC12C(O)C1NC2C#N	C[C@]12[C@@H](O)[C@H]1N[C@H]2C#N	
InChI=1S/C6H8N2O/c1-6-3(2-7)8-4(6)5(6)9/h3-5,8-9H,1H3	InChI=1S/C6H8N2O/c1-6-3(2-7)8-4(6)5(6)9/h3-5,8-9H,1H3/t3-,4+,5-,6+/m0/s1
