16
gdb 44886	2.9926	1.60963	1.39091	4.5313	68.79	-0.241	0.0155	0.2565	955.4731	0.125814	-437.864724	-437.857865	-437.856921	-437.895847	27.59	
O	 0.0262789774	 0.0772572763	 0.1877997018	-0.365792
C	 0.0465432729	 1.269586189	 0.0345700001	 0.428989
N	-1.044916804	 2.1472815161	-0.0524958941	-0.314274
C	-0.4075311193	 3.4839701689	-0.0213003514	-0.133726
C	 0.6861191746	 3.2771946573	-1.1040446547	-0.220849
C	 1.2344834613	 2.2465369804	-0.0572306526	-0.275127
C	 0.7387086449	 3.2828164365	 0.9909411352	 0.528107
C	 1.4591531778	 4.1952287752	 1.8668282601	-0.301021
O	 0.6341243891	 3.1193299373	 2.3749050668	-0.284957
H	-1.8514198766	 1.9515542355	 0.5241891742	 0.256234
H	-1.1061113209	 4.3176779216	-0.0127541633	 0.091589
H	 0.3437438207	 2.8813933027	-2.0605365747	 0.122904
H	 1.3422401286	 4.1393600131	-1.232861495	 0.114982
H	 2.2319120178	 1.8175110105	-0.0759755178	 0.099234
H	 2.5287466369	 4.0693555583	 2.025403657	 0.128758
H	 1.0739675689	 5.1968620512	 2.0517622386	 0.124949
128.2104	220.23	258.586	353.0929	432.0027	459.4647	494.2582	554.3881	629.2059	684.1812	753.7695	799.7547	830.7701	865.0138	896.4846	903.1357	982.5054	999.775	1028.6336	1037.1582	1073.7106	1105.5942	1113.6138	1144.4997	1166.7728	1184.603	1198.9154	1224.1881	1249.5692	1308.5467	1360.298	1446.9722	1490.9456	1545.7464	1873.5773	3082.9099	3087.6972	3148.5218	3154.0315	3172.4257	3176.176	3606.1375
O=C1NC2CC1C21CO1	O=C1N[C@@H]2C[C@H]1[C@]12CO1	
InChI=1S/C6H7NO2/c8-5-3-1-4(7-5)6(3)2-9-6/h3-4H,1-2H2,(H,7,8)	InChI=1S/C6H7NO2/c8-5-3-1-4(7-5)6(3)2-9-6/h3-4H,1-2H2,(H,7,8)/t3-,4-,6+/m1/s1
