21
gdb 116510	3.06416	1.13257	0.89501	0.904	75.71	-0.2406	0.0771	0.3177	1341.891	0.182891	-461.334023	-461.324872	-461.323927	-461.368266	33.644	
C	-0.0869979441	 1.2139228308	 0.4460212001	-0.237438
O	 0.0878885494	-0.147421311	 0.1189746601	-0.24363
C	 0.5532890997	-0.3863606395	-1.2008997235	 0.098268
C	 2.0924283045	-0.3646076559	-1.2453182275	-0.109641
O	 2.5666780901	-0.3359945719	-2.5766063817	-0.243042
C	 2.7386271537	-1.5796527487	-3.2298670104	-0.057372
C	 1.7182788012	-2.6692180601	-2.8734776627	-0.105322
O	 0.3824829055	-2.210263648	-2.8683491576	-0.236584
C	-0.0555885035	-1.7326725604	-1.612194368	-0.109142
H	 0.849850184	 1.7869394174	 0.3886677572	 0.109592
H	-0.825370806	 1.6960976096	-0.2122362658	 0.110358
H	-0.4530940194	 1.2523026992	 1.475089385	 0.128634
H	 0.1964170986	 0.3932901729	-1.890516683	 0.08047
H	 2.448055383	 0.5572429998	-0.7736393103	 0.106629
H	 2.5058363525	-1.2034083978	-0.6664187699	 0.095032
H	 2.6725620025	-1.3506106628	-4.2985865679	 0.114815
H	 3.7456030924	-1.9886771123	-3.0368791945	 0.086135
H	 1.7946218677	-3.4580647453	-3.631775087	 0.107435
H	 1.9609640228	-3.1295076585	-1.9039192183	 0.095405
H	 0.1623858108	-2.4655527106	-0.8179141741	 0.097243
H	-1.1418032354	-1.628440537	-1.6806195801	 0.112153
77.5388	87.6987	157.9322	166.7989	240.7485	269.7143	313.226	347.5913	388.9849	456.5843	462.6313	551.8696	604.1962	840.4437	854.9884	890.5908	921.7863	975.5891	998.1362	1027.8057	1118.4182	1123.7684	1128.0281	1154.5659	1174.3128	1182.8547	1204.3354	1224.7467	1262.8029	1282.2054	1303.6829	1329.0025	1332.346	1359.7971	1388.2101	1411.7275	1417.5832	1426.9682	1480.8017	1486.5252	1488.2101	1494.636	1498.9478	1508.9131	1512.3272	2958.6097	2974.423	2981.1072	2989.2648	2998.5849	3009.6508	3031.0341	3050.9207	3072.8303	3076.2638	3093.9106	3112.6891
COC1COCCOC1	COC1COCCOC1	
InChI=1S/C6H12O3/c1-7-6-4-8-2-3-9-5-6/h6H,2-5H2,1H3	InChI=1S/C6H12O3/c1-7-6-4-8-2-3-9-5-6/h6H,2-5H2,1H3
