18
gdb 33937	3.16658	1.4457	1.24679	1.7552	81.82	-0.2254	0.0336	0.2591	1057.2877	0.148267	-364.737465	-364.729928	-364.728984	-364.769097	30.79	
C	 0.0794753733	-1.1584195403	 0.0674879529	-0.372147
C	 0.0489398449	 0.04282691	 0.0250173894	 0.202967
C	-0.0337412651	 1.4776050906	-0.0231646157	 0.12211
C	 0.3393250521	 2.216799592	-1.2702166494	-0.279151
N	 1.2386886551	 2.2605490503	-0.1190221931	-0.128419
C	 1.0999345295	 3.439941133	 0.7689271504	-0.189578
C	-0.2405840199	 3.3681127458	 1.503240597	-0.035489
C	-1.5232892369	 3.5113316686	 0.7249154978	-0.307316
C	-0.9579794813	 2.1384681487	 0.9891384882	-0.085319
H	 0.1229721067	-2.2186838112	 0.1015744133	 0.18896
H	 0.7216784655	 1.6552309343	-2.1185683611	 0.12296
H	-0.2304401492	 3.1006614858	-1.541892403	 0.111703
H	 1.9159743089	 3.397956587	 1.4970620402	 0.117457
H	 1.2284382545	 4.3600551546	 0.1869144589	 0.109357
H	-0.2481018797	 3.6201647825	 2.5581784071	 0.092776
H	-2.4108397417	 3.7833302996	 1.2872675451	 0.115032
H	-1.5049201912	 3.9267028433	-0.2759266903	 0.116238
H	-1.4924774455	 1.4692486053	 1.6509173424	 0.097859
128.4545	149.1045	251.1376	281.1655	416.7852	442.7078	496.101	515.0778	582.8574	603.5618	649.653	676.8169	705.9156	784.9079	814.8901	827.652	845.4534	902.6609	920.2531	993.0233	999.3418	1026.2575	1057.1275	1071.0811	1109.6336	1121.8822	1133.9294	1160.4926	1199.6227	1208.7153	1241.3802	1308.2053	1339.8968	1350.68	1396.3845	1485.5518	1497.6865	1519.6625	2238.9878	3037.1113	3077.1977	3108.8876	3133.2979	3164.1945	3191.9953	3195.7113	3215.3922	3503.1985
C#CC12CN1CC1CC21	C#C[C@]12CN1C[C@H]1C[C@@H]21	
InChI=1S/C8H9N/c1-2-8-5-9(8)4-6-3-7(6)8/h1,6-7H,3-5H2	InChI=1S/C8H9N/c1-2-8-5-9(8)4-6-3-7(6)8/h1,6-7H,3-5H2/t6-,7-,8-,9?/m1/s1
