15
gdb 43483	2.38133	1.93524	1.18056	2.0509	67.65	-0.2523	-0.0223	0.23	994.0277	0.115143	-453.971501	-453.964415	-453.963471	-454.003475	26.772	
N	-0.0503726928	 1.2424805515	 0.3296561459	-0.531789
C	 0.0238986166	 0.0127170549	 0.0308000723	 0.383538
N	 1.151973254	-0.7660399614	-0.2426404917	-0.36444
C	 0.9071397743	-2.0871424394	-0.6047074548	 0.411206
O	 1.7426955449	-2.8932574082	-0.9208333368	-0.343384
C	-0.6112085921	-2.2795292313	-0.4893708582	-0.001409
O	-0.9682478053	-2.8620267992	 0.7826817198	-0.282773
C	-1.5789726165	-1.6263173247	 1.2249827892	-0.07781
C	-1.1741980721	-0.9047351129	-0.0836756849	-0.146888
H	 0.8686123584	 1.6861476386	 0.3750663527	 0.215665
H	 2.0952408289	-0.4054659005	-0.2142199207	 0.263199
H	-1.0211329385	-2.8320975906	-1.3384365678	 0.109847
H	-2.65939887	-1.7408825258	 1.362682454	 0.119842
H	-1.1303288633	-1.2418527013	 2.146484904	 0.125353
H	-1.9787312566	-0.4523914596	-0.658889363	 0.119841
86.4914	129.3919	242.8582	253.811	371.2309	480.0031	601.0874	614.6175	624.3849	683.6934	735.6038	808.7614	859.8274	875.1095	879.7985	940.4519	975.0808	1021.5844	1039.4352	1068.5967	1111.3947	1156.7398	1212.0938	1235.8886	1249.8172	1291.0651	1315.5596	1344.3922	1363.4488	1386.4292	1524.5383	1764.0345	1860.9256	3037.4395	3085.9138	3089.193	3147.1104	3459.5631	3614.64
N=C1NC(=O)C2OCC12	[NH][C]1NC(=O)[C@H]2OC[C@@H]12	
InChI=1S/C5H6N2O2/c6-4-2-1-9-3(2)5(8)7-4/h2-3H,1H2,(H2,6,7,8)	InChI=1S/C5H6N2O2/c6-4-2-1-9-3(2)5(8)7-4/h2-3H,1H2,(H2,6,7,8)/t2-,3+/m1/s1
