19
gdb 98625	4.08701	1.0591	0.97202	1.4373	77.11	-0.2534	0.0139	0.2673	1281.1477	0.159428	-423.02935	-423.020681	-423.019737	-423.063514	31.756	
C	 0.0642962751	 1.3796597553	-0.3158982842	-0.239968
O	-0.0788153066	-0.0439626716	-0.2785456181	-0.237956
C	-1.2316329734	-0.4935570615	 0.2717889177	 0.450874
O	-2.0833835359	 0.2483872786	 0.7032718432	-0.380059
C	-1.2555598877	-1.9801586577	 0.2504920094	-0.135162
C	-1.8245658555	-2.855831233	 1.3527913222	-0.07504
C	-3.080159855	-2.2551701665	 2.0009972581	-0.22209
C	-3.7636963065	-2.2238909399	 0.5952764998	-0.222101
C	-2.4890074794	-2.8254560698	-0.0136243554	-0.075068
H	 1.0316736262	 1.5686797873	-0.7818551489	 0.130297
H	-0.738011511	 1.834697375	-0.902602918	 0.138595
H	 0.0378059222	 1.7985979786	 0.6934410382	 0.138609
H	-0.360038429	-2.4004660703	-0.1943301932	 0.105116
H	-1.190712388	-3.6178724424	 1.7913053355	 0.090285
H	-3.5615711618	-2.9646301292	 2.6777010076	 0.099228
H	-2.9578903914	-1.2966829832	 2.5059791718	 0.122477
H	-4.6055412391	-2.9168233329	 0.5307853104	 0.099237
H	-4.0683977018	-1.2458544994	 0.2220991534	 0.122446
H	-2.4555780713	-3.5600227275	-0.8099060094	 0.090279
40.1941	107.3168	144.3114	168.0081	225.9378	287.6828	352.7507	363.0789	444.8201	687.2052	729.3762	778.1209	784.0537	791.761	829.6383	901.0205	944.7161	957.4581	967.6303	1001.8662	1014.2757	1037.0877	1084.1539	1111.2708	1147.3449	1163.3792	1179.2755	1201.711	1214.1054	1224.7076	1246.0716	1261.0712	1306.6737	1352.5928	1436.8257	1470.8039	1476.0926	1480.1532	1493.6478	1498.4723	1800.7192	3049.3527	3071.3365	3079.1985	3122.3421	3128.1642	3141.4992	3155.3301	3169.9101	3170.4584	3185.9382
COC(=O)C1C2CCC12	COC(=O)[C@H]1[C@H]2CC[C@@H]12	
InChI=1S/C7H10O2/c1-9-7(8)6-4-2-3-5(4)6/h4-6H,2-3H2,1H3	InChI=1S/C7H10O2/c1-9-7(8)6-4-2-3-5(4)6/h4-6H,2-3H2,1H3/t4-,5+,6-
