18
gdb 52177	6.16154	0.6091	0.5852	1.2379	74.99	-0.255	-0.0301	0.2249	1813.3261	0.146092	-439.118191	-439.1089	-439.107956	-439.153948	32.561	
O	-0.0671249331	-0.0659943991	 0.0657123913	-0.231877
C	-0.0333624469	 1.1291246308	-0.0687297811	 0.16024
C	 1.2250826387	 1.9681004822	-0.0487161732	-0.278699
C	 1.3853457802	 2.7881031055	-1.3409573185	-0.207414
C	 2.6074526927	 3.6997049661	-1.3170695133	 0.060268
C	 2.7097619689	 4.7775534544	-2.4379781723	-0.41242
C	 2.7082129767	 5.8147230942	-1.2888041103	 0.432505
O	 2.8233895055	 7.0049035038	-1.1922496484	-0.34992
N	 2.5441671119	 4.8134277274	-0.3545512386	-0.329121
H	-0.969151082	 1.7147411318	-0.2306907589	 0.075288
H	 1.1443438903	 2.6601022793	 0.8025497646	 0.117477
H	 2.0813175376	 1.3085993894	 0.1219478645	 0.123576
H	 1.4739447013	 2.109589571	-2.1984024925	 0.120174
H	 0.4895903574	 3.4004872889	-1.5039620321	 0.110118
H	 3.5229577583	 3.1043550689	-1.2124075873	 0.090213
H	 3.631393742	 4.7674185346	-3.0217789477	 0.137076
H	 1.8499149811	 4.836840766	-3.10826738	 0.132135
H	 2.6680526493	 4.8379884448	 0.6474199639	 0.250382
48.157	52.7555	92.478	117.4796	158.0453	291.751	332.5141	395.6125	454.8481	510.8073	528.5949	564.7747	720.25	778.7905	817.9323	864.9097	940.2863	947.621	1005.0185	1008.6701	1070.762	1078.2899	1094.1191	1154.5545	1178.2969	1194.3701	1217.9191	1250.0639	1287.5672	1320.5726	1358.8658	1384.3611	1404.8926	1430.9923	1460.0622	1463.1656	1484.8974	1838.4633	1900.6603	2855.0658	3009.5346	3023.7273	3030.2935	3069.4404	3086.4908	3098.1978	3145.6966	3604.2689
O=CCCC1CC(=O)N1	O=CCC[C@H]1CC(=O)N1	
InChI=1S/C6H9NO2/c8-3-1-2-5-4-6(9)7-5/h3,5H,1-2,4H2,(H,7,9)	InChI=1S/C6H9NO2/c8-3-1-2-5-4-6(9)7-5/h3,5H,1-2,4H2,(H,7,9)/t5-/m0/s1
