17
gdb 70808	2.89868	1.6213	1.25306	3.5655	72.76	-0.2238	0.0017	0.2255	1033.9706	0.133453	-421.792689	-421.784433	-421.783489	-421.825132	31.565	
C	-0.09857072	 1.3884489009	 0.0645396658	-0.503956
C	 0.0249694886	-0.0967480211	 0.0173714954	 0.485223
O	-1.1441114336	-0.8796564194	-0.2677615499	-0.353953
C	-0.3959055007	-2.0482617847	 0.1926859531	 0.268368
C	-1.2108498906	-3.1749834888	 0.73206363	-0.518329
C	 0.6489119813	-1.1024692652	 0.903728191	-0.255878
C	 1.2401245496	-0.8574178179	-0.5344823403	-0.312553
C	 0.6919400795	-2.1973544824	-0.9095732138	 0.457386
O	 1.0682122859	-3.1155734068	-1.5809765261	-0.341401
H	 0.85163656	 1.8420440737	 0.3597233432	 0.131956
H	-0.3774223913	 1.7798525003	-0.9186335791	 0.143633
H	-0.8660188916	 1.6829433994	 0.7862193574	 0.139455
H	-1.9027364786	-3.5263402437	-0.0395910296	 0.14947
H	-0.5621921452	-4.0098157823	 1.0122584069	 0.139324
H	-1.7919244551	-2.8623281033	 1.6036682238	 0.132978
H	 1.1654918862	-1.1102570946	 1.8524205959	 0.124537
H	 2.1780096658	-0.3877853442	-0.7963461237	 0.11374
133.9498	168.7718	186.582	197.3802	246.7022	257.384	355.4014	485.5432	520.69	559.7068	657.4618	704.9872	743.4707	784.2062	800.9716	810.5554	848.787	881.6237	917.484	917.891	1024.348	1040.381	1079.6124	1098.9603	1112.8442	1156.5839	1184.6827	1238.1315	1342.5354	1401.3101	1417.0871	1464.4066	1472.7726	1478.1848	1485.1232	1500.4951	1881.5225	3043.6403	3045.8765	3114.6208	3119.345	3123.477	3125.3623	3220.5282	3227.5943
CC12OC3(C)C1C2C3=O	C[C@]12O[C@]3(C)[C@H]1[C@H]2C3=O	
InChI=1S/C7H8O2/c1-6-3-4(6)7(2,9-6)5(3)8/h3-4H,1-2H3	InChI=1S/C7H8O2/c1-6-3-4(6)7(2,9-6)5(3)8/h3-4H,1-2H3/t3-,4-,6+,7+/m0/s1
