20
gdb 63428	3.68222	0.86708	0.85849	5.4583	79.89	-0.26	0.0315	0.2915	1450.8223	0.169016	-403.163679	-403.154018	-403.153074	-403.198715	35.441	
C	 0.3783431641	 1.339268854	 0.2187231507	-0.427638
C	-0.0690134747	-0.0916671587	-0.0370680608	 0.437333
C	-1.5716855835	-0.2672083526	 0.139652591	-0.42532
C	 0.5266548116	-0.7860766315	-1.2925378038	-0.368406
C	 1.1406185651	-1.7780970161	-0.2875102442	 0.159385
C	 2.66871382	-1.9066635477	-0.2912760819	-0.358271
C	 3.1675079339	-2.7265697333	 0.8107583408	 0.267158
N	 3.5554442355	-3.3864675899	 1.6760321617	-0.302414
O	 0.6562967166	-1.0222730432	 0.8325105719	-0.328465
H	 1.4614223523	 1.4382245008	 0.104549751	 0.114428
H	-0.1087445185	 2.0275882726	-0.4804737355	 0.118379
H	 0.1150618449	 1.6425800945	 1.2370144285	 0.131076
H	-2.1219031067	 0.3659038909	-0.5648726952	 0.116596
H	-1.8655840869	-1.3072274615	-0.0282211864	 0.119796
H	-1.8682136039	 0.010598829	 1.155794332	 0.129543
H	-0.1944027133	-1.2027882867	-1.9971620735	 0.113405
H	 1.25648584	-0.1826384294	-1.8377964667	 0.107165
H	 0.6958319072	-2.7813838684	-0.312516734	 0.094133
H	 2.9914369158	-2.3566457465	-1.2381869939	 0.150689
H	 3.1196070505	-0.9106124362	-0.2276837818	 0.151428
46.7064	72.3763	128.5229	195.6769	235.3879	275.2765	313.5857	341.4884	374.5371	394.9109	418.8411	462.5812	537.4195	649.2131	794.4349	851.9423	894.4814	898.5705	922.738	950.521	961.6642	990.3375	1023.9692	1042.9851	1082.9729	1134.5244	1180.6399	1229.7968	1242.4546	1279.9559	1290.0627	1293.6005	1340.2672	1397.1792	1403.1804	1415.3923	1451.165	1473.0979	1480.6207	1489.5559	1495.4177	1504.9428	2365.0677	3017.3714	3032.311	3037.7858	3040.7136	3070.5581	3089.1373	3103.8602	3110.5957	3112.6949	3116.4466	3129.7623
CC1(C)CC(CC#N)O1	CC1(C)C[C@@H](CC#N)O1	
InChI=1S/C7H11NO/c1-7(2)5-6(9-7)3-4-8/h6H,3,5H2,1-2H3	InChI=1S/C7H11NO/c1-7(2)5-6(9-7)3-4-8/h6H,3,5H2,1-2H3/t6-/m1/s1
