18
gdb 85680	2.30477	1.35662	1.15134	3.9041	72.69	-0.272	-0.0002	0.2718	1152.224	0.144994	-439.084001	-439.074485	-439.073541	-439.118204	34.974	
C	-0.8259776579	 1.2987503696	-0.0052141285	-0.421157
C	 0.0416525069	 0.0624591815	-0.0458051696	 0.148585
O	 1.3006676525	 0.2778362563	-0.7434836437	-0.305031
C	 2.0217137609	-0.4970754519	 0.2247236283	-0.040966
C	 3.2816393374	 0.1154460529	 0.6359833125	 0.273131
N	 4.2702914031	 0.5868827906	 1.0058562719	-0.327122
C	 0.792540519	-0.4597294373	 1.2093347915	 0.28189
C	 0.9325015166	 0.5002602144	 2.3778677589	-0.465697
O	 0.3076096913	-1.7156011734	 1.6037632322	-0.460413
H	-0.30517141	 2.1450581017	 0.4490861566	 0.128563
H	-1.1114422735	 1.5813972278	-1.0230331832	 0.138684
H	-1.7430392047	 1.0993788621	 0.5586642538	 0.129247
H	-0.5018775337	-0.7756072551	-0.502976823	 0.093918
H	 2.2086252276	-1.5226718329	-0.1200900655	 0.123476
H	 1.3077619788	 1.4749520378	 2.0586824386	 0.152008
H	-0.0348252146	 0.6375631227	 2.8694081846	 0.132497
H	 1.6459650882	 0.1051700851	 3.1105801335	 0.130077
H	 0.664390222	-1.930321092	 2.4723149214	 0.288312
54.1658	138.1344	186.8273	207.9456	232.8108	266.8805	285.752	300.2831	349.678	388.8495	426.0379	492.9518	549.1943	570.2765	667.9854	773.7722	857.7757	893.4909	958.8342	981.1265	1028.4314	1045.7443	1103.5618	1105.9705	1164.9761	1171.9284	1185.6293	1238.9521	1318.5609	1342.7657	1387.0663	1400.2057	1413.8795	1426.4528	1477.0476	1484.3101	1497.0114	1503.9851	2352.2261	3016.5024	3024.9196	3036.4053	3044.1511	3105.3336	3113.1913	3127.4078	3135.3518	3810.1936
CC1OC(C#N)C1(C)O	C[C@H]1O[C@@H](C#N)[C@]1(C)O	
InChI=1S/C6H9NO2/c1-4-6(2,8)5(3-7)9-4/h4-5,8H,1-2H3	InChI=1S/C6H9NO2/c1-4-6(2,8)5(3-7)9-4/h4-5,8H,1-2H3/t4-,5+,6-/m1/s1
