21
gdb 101482	3.00436	1.05363	0.96463	2.6935	74.67	-0.2497	0.0814	0.331	1345.5503	0.182213	-461.365447	-461.355863	-461.354919	-461.400588	34.748	
C	-0.1456259166	 1.5360243926	-0.5536954883	-0.388082
C	-0.2090004554	 0.0857040871	-1.0374363991	-0.186952
C	 1.1797029285	-0.5467769392	-1.1726078974	 0.097713
O	 1.901081118	-0.545544538	 0.0526969812	-0.439556
C	 1.1388111208	-1.9875107035	-1.6897881666	 0.203915
O	 0.4707393841	-2.8247831193	-0.7399353051	-0.292674
C	-0.5082721772	-3.5944909536	-1.4329464403	-0.088562
C	-0.1403350045	-3.3873097783	-2.9055214689	-0.101786
O	 0.4303752227	-2.0861922192	-2.8983689414	-0.254243
H	 0.391965911	 1.6024296534	 0.3957880948	 0.128452
H	 0.3778204231	 2.1715511254	-1.2769353098	 0.112102
H	-1.1488578276	 1.9493320068	-0.4125457609	 0.106456
H	-0.7972704312	-0.5204455756	-0.3366214263	 0.093627
H	-0.7132361768	 0.0234537129	-2.0073935702	 0.107008
H	 1.7850103326	 0.0421568144	-1.8728302525	 0.091535
H	 1.4565068442	-1.1817208049	 0.6269215718	 0.288718
H	 2.1687740119	-2.366247478	-1.804548954	 0.075777
H	-0.4431093047	-4.6395960788	-1.1144775354	 0.112645
H	-1.51404187	-3.2145815832	-1.2115752648	 0.107393
H	 0.5935721171	-4.134649561	-3.2421729662	 0.104738
H	-0.9948307599	-3.3896335901	-3.5849434107	 0.121777
56.8244	83.7793	99.108	168.94	205.7841	222.6653	264.432	304.4833	389.0719	438.9611	497.5073	663.3632	678.8784	727.1088	781.1316	820.1226	899.4341	930.6221	952.5803	990.3808	1020.1475	1042.9993	1062.7032	1077.5448	1118.2804	1136.4765	1156.8872	1184.8628	1225.5895	1248.61	1253.6149	1299.0526	1328.2677	1341.4407	1380.8339	1383.8123	1388.8004	1405.08	1414.5494	1437.3501	1489.6679	1496.899	1511.0906	1511.5752	1526.8574	2959.7088	2996.9509	3018.6711	3027.639	3035.8009	3045.4569	3079.2335	3079.7861	3100.7152	3115.5571	3121.9695	3782.5243
CCC(O)C1OCCO1	CC[C@@H](O)C1OCCO1	
InChI=1S/C6H12O3/c1-2-5(7)6-8-3-4-9-6/h5-7H,2-4H2,1H3	InChI=1S/C6H12O3/c1-2-5(7)6-8-3-4-9-6/h5-7H,2-4H2,1H3/t5-/m1/s1
