22
gdb 111300	2.30955	1.33038	1.13846	2.4224	81.59	-0.2273	0.0684	0.2957	1219.8474	0.192886	-404.3006	-404.290952	-404.290008	-404.334571	36.934	
C	-0.1341657961	 1.6053552608	 0.1916502041	-0.442311
C	 0.0088362368	 0.0978448217	 0.0018580119	 0.305365
C	-1.2897159585	-0.6066175975	 0.3823493756	-0.423579
C	 0.6037884271	-0.4591690533	-1.3405968109	-0.029527
C	 0.9641399263	 0.4593243084	-2.4944951243	-0.108828
O	 1.5023437344	-0.3580777859	-3.5256041097	-0.421814
C	 1.7261529895	-1.0510256232	-0.4934608087	-0.021302
C	 2.41099939	-0.0297414465	 0.3183122414	-0.252247
N	 1.1246107428	-0.5514160726	 0.8123040342	-0.160365
H	 0.7536582822	 2.1683171006	-0.1056445042	 0.111295
H	-0.9777885135	 1.9875266548	-0.3928903293	 0.11688
H	-0.3310567175	 1.8243955053	 1.2465967935	 0.125631
H	-2.1023914584	-0.3150801827	-0.2920796325	 0.106947
H	-1.167782073	-1.6921683693	 0.331146619	 0.120657
H	-1.5781559349	-0.3496691821	 1.4067695926	 0.117593
H	-0.0430052981	-1.2450957781	-1.740768587	 0.084381
H	 0.0607043557	 0.9916922892	-2.8359274457	 0.08428
H	 1.6910761174	 1.2219121782	-2.1780310332	 0.082188
H	 1.7874956181	 0.2125489052	-4.2452240733	 0.286847
H	 2.1068868727	-2.0626195142	-0.5864457038	 0.093445
H	 3.2484814196	-0.3585553023	 0.9265780716	 0.119133
H	 2.4943254775	 0.9971033335	-0.0256545112	 0.105331
80.4987	154.5228	168.9913	190.6962	241.2402	259.6444	282.9455	306.8455	313.9016	365.0479	477.4851	504.7456	544.5986	620.3901	758.4974	762.8545	810.066	892.1708	925.2382	944.6913	985.1957	993.4017	1008.9903	1054.4224	1063.4839	1080.4197	1109.3421	1109.7476	1141.4921	1166.5223	1188.9299	1224.4119	1240.274	1264.2907	1272.7201	1301.096	1369.3418	1379.2699	1400.2754	1416.6277	1459.0067	1476.0999	1483.0961	1494.1714	1505.987	1509.1538	1522.6874	2963.1151	3001.55	3030.233	3037.1241	3070.1923	3097.4848	3104.565	3111.6471	3113.6984	3121.1919	3164.2286	3198.6794	3827.825
CC1(C)C(CO)C2CN12	CC1(C)[C@@H](CO)[C@H]2CN12	
InChI=1S/C7H13NO/c1-7(2)5(4-9)6-3-8(6)7/h5-6,9H,3-4H2,1-2H3	InChI=1S/C7H13NO/c1-7(2)5(4-9)6-3-8(6)7/h5-6,9H,3-4H2,1-2H3/t5-,6+,8?/m0/s1
