23
gdb 108613	2.52439	1.17361	0.89953	1.7675	89.13	-0.2268	0.0211	0.2479	1392.7093	0.205248	-388.314169	-388.303949	-388.303005	-388.349399	37.846	
C	 0.5329071473	 1.5618232725	-0.1830924966	-0.39175
C	 0.0475073995	 0.1284978061	 0.1035116648	-0.049487
C	 0.3476530864	-0.8582246907	-1.0549252908	-0.228233
C	 1.6262052285	-1.6136828786	-0.6272529672	-0.290875
C	 1.6506781082	-1.4355054776	 0.8779481187	 0.186612
C	 2.5866082138	-2.2561512528	 1.7118208162	-0.172521
O	 2.3732430989	-3.6600406955	 1.5451244579	-0.414954
C	 0.7776813051	-0.5009672646	 1.2830392399	 0.21127
C	 0.5046670208	-0.0217148824	 2.67663845	-0.504751
H	 1.6037092733	 1.5730741811	-0.414639604	 0.11598
H	-0.0026345772	 1.9884150021	-1.037676028	 0.112575
H	 0.369751762	 2.2238476729	 0.6735835775	 0.111296
H	-1.0315886997	 0.177781289	 0.3038633179	 0.06439
H	-0.4794692576	-1.5686822449	-1.1530049339	 0.09671
H	 0.4523843261	-0.3513062729	-2.0186231012	 0.091495
H	 1.6158997633	-2.6697405634	-0.9141562361	 0.109961
H	 2.5327795194	-1.1847175856	-1.0792306036	 0.098884
H	 3.6230232354	-2.0922882744	 1.3905549405	 0.110786
H	 2.5303485124	-1.9735119675	 2.7724457715	 0.088359
H	 1.4519495035	-3.8311780457	 1.7673046161	 0.278403
H	 1.0666561421	-0.5744496399	 3.4330704601	 0.123066
H	 0.7563884271	 1.0402130911	 2.7899102861	 0.12974
H	-0.5631536886	-0.1118338283	 2.9149710541	 0.123044
66.0461	92.3255	114.1457	162.0312	222.1759	233.6569	254.339	283.4294	303.0272	355.0654	399.3117	520.0481	556.5087	605.2784	639.0184	756.2082	781.9282	877.7022	894.5562	945.047	971.0505	987.5637	1016.5998	1032.0041	1046.8956	1092.1781	1099.1054	1111.4348	1174.756	1186.3983	1202.0977	1242.2368	1260.0516	1309.1703	1323.2361	1349.8858	1355.5495	1366.6394	1403.4022	1411.5054	1417.704	1479.0473	1483.6049	1486.8087	1496.1291	1500.0825	1502.5377	1505.0006	1729.9641	2998.0337	3001.2141	3002.7276	3018.6403	3028.2419	3046.4979	3047.3366	3061.5308	3071.8769	3090.8785	3098.5287	3099.4244	3116.034	3808.0097
CC1CCC(CO)=C1C	C[C@H]1CCC(=C1C)CO	
InChI=1S/C8H14O/c1-6-3-4-8(5-9)7(6)2/h6,9H,3-5H2,1-2H3	InChI=1S/C8H14O/c1-6-3-4-8(5-9)7(6)2/h6,9H,3-5H2,1-2H3/t6-/m0/s1
