14
gdb 129369	2.79676	1.59894	1.01896	3.918	70.03	-0.2181	-0.0533	0.1648	1074.4156	0.101854	-466.174852	-466.166844	-466.1659	-466.20727	30.392	
N	-0.0872693485	 1.3652547298	 0.1027677154	-0.557828
C	 0.0594798324	-0.0009264518	 0.0468753597	 0.26479
N	 1.1567303867	-0.6758073223	 0.0105566634	-0.556134
C	-1.175686358	-0.769123354	 0.0685879886	 0.372863
C	-1.3808573578	-2.1247886663	 0.0690915837	 0.231373
N	-0.4815445156	-3.1453336889	 0.1550574936	-0.592473
N	-2.7435172781	-2.3149329194	 0.0269557535	-0.183632
N	-3.3449313732	-1.199833741	 0.0063215124	-0.015741
O	-2.3886820003	-0.1741575052	 0.0398281744	-0.244811
H	 0.7030902605	 1.9323334282	-0.1579736199	 0.25599
H	-0.993372329	 1.7532224524	-0.107023511	 0.272563
H	 1.9758648114	-0.0688530204	-0.0078623312	 0.209707
H	 0.46911008	-2.8493920169	-0.0335835723	 0.280686
H	-0.7734484304	-4.0241566242	-0.2430916702	 0.262646
90.4752	180.4205	182.8843	318.4881	333.335	384.9204	394.3256	429.817	437.2798	520.048	595.9675	619.4055	659.8502	696.6938	743.7113	781.7248	791.0484	811.7553	1009.4106	1077.2017	1092.8097	1131.6493	1239.753	1252.7402	1375.9792	1447.9913	1510.0813	1593.0066	1637.6034	1678.3863	1707.5147	3480.9165	3529.5747	3589.925	3674.3958	3707.7566
NC(=N)C1=C(N)N=NO1	NC(=N)c1c(N)nno1	
InChI=1S/C3H5N5O/c4-2(5)1-3(6)7-8-9-1/h6H2,(H3,4,5)	InChI=1S/C3H5N5O/c4-2(5)1-3(6)7-8-9-1/h6H2,(H3,4,5)
