20
gdb 18760	3.63495	2.16044	1.66156	0.0816	78.22	-0.2477	0.0904	0.3382	856.8769	0.179292	-311.829439	-311.822658	-311.821713	-311.86021	27.768	
C	-0.0387551704	 1.503250535	 0.0423618767	-0.220701
C	 1.519870961	 1.5814524431	-0.0103207848	-0.330107
C	 1.577759068	 0.05947425	 0.1407258425	 0.40742
C	 2.5859214792	-0.9801597912	-0.3545801825	-0.330096
C	 2.2444840502	-1.8663757623	 0.8848690262	-0.220706
C	 1.4074672246	-0.702960325	 1.504642175	-0.061295
C	-0.1273180865	-0.8058925748	 1.3004729235	-0.244197
C	 0.0215903231	-0.0543894089	-0.0489522996	-0.061303
H	-0.477961849	 1.8694495041	 0.9749054647	 0.096579
H	-0.5505330579	 1.9939267137	-0.7885348769	 0.098964
H	 1.8799529356	 1.914760382	-0.9898089778	 0.09768
H	 2.0241742699	 2.1775892448	 0.7569913838	 0.09132
H	 2.4130791582	-1.4080200148	-1.3473185598	 0.091319
H	 3.6157264289	-0.608033625	-0.3202491408	 0.097679
H	 1.6515612936	-2.756219949	 0.6540807272	 0.096581
H	 3.1077729853	-2.1788465693	 1.4766136002	 0.098963
H	 1.780287319	-0.3082875778	 2.4525486736	 0.054932
H	-0.4998057509	-1.8329282102	 1.2284376942	 0.091018
H	-0.7368703906	-0.2771750732	 2.0405022368	 0.091018
H	-0.4344396212	-0.4914398411	-0.9401930123	 0.054933
92.8174	191.1852	292.9558	337.1881	419.0941	476.7779	631.9079	675.3707	742.0737	777.4653	797.1535	828.7262	834.1074	880.562	920.1075	927.0758	948.832	952.041	1012.6504	1016.6329	1034.8471	1107.5707	1135.9024	1137.2281	1167.3807	1201.6335	1207.4705	1215.5538	1232.5337	1237.9022	1248.681	1269.2774	1279.4162	1288.0282	1289.4065	1314.34	1325.1689	1471.507	1474.9896	1481.6343	1493.5704	1497.7857	3034.1186	3034.1435	3036.8979	3055.5477	3056.4791	3069.8805	3076.1947	3079.1446	3081.3254	3086.2328	3111.2866	3112.1973
C1CC23CCC2CC13	C1C[C@@]23CC[C@@H]2C[C@@H]13	
InChI=1S/C8H12/c1-3-8-4-2-7(8)5-6(1)8/h6-7H,1-5H2	InChI=1S/C8H12/c1-3-8-4-2-7(8)5-6(1)8/h6-7H,1-5H2/t6-,7-,8+/m1/s1
