22
gdb 61590	4.40697	0.79536	0.75514	3.1953	82.25	-0.2334	0.076	0.3094	1584.1966	0.194446	-404.3043	-404.294757	-404.293813	-404.339212	35.79	
O	-0.496558238	 0.9415140112	 0.1057688545	-0.44547
C	-0.2664330685	-0.4536054762	-0.055355191	 0.089068
C	 0.6604592336	-0.7476074936	-1.2446361824	-0.215329
C	 0.0872889137	-0.2944371574	-2.5724078941	 0.003014
C	 0.2707490849	 1.1355915538	-3.0481652519	-0.272356
C	 0.9924709953	 0.0042047962	-3.7366547223	-0.282625
C	 0.3074544655	-0.9768847099	 1.2478226691	 0.015639
C	 1.2439587397	-0.154455858	 2.050349231	-0.233923
N	-0.1305401417	-0.4105540814	 2.528183273	-0.338512
H	-0.7764220732	 1.2888007941	-0.7466424414	 0.295413
H	-1.2295533916	-0.9658271094	-0.2319456202	 0.067693
H	 1.6241937438	-0.2547298035	-1.0669705382	 0.10219
H	 0.8551899201	-1.8277758221	-1.2767953783	 0.100813
H	-0.8662210829	-0.75287735	-2.8266201768	 0.086766
H	-0.5441670767	 1.6191971483	-3.5762462417	 0.115773
H	 0.8613050207	 1.8041598429	-2.4299066578	 0.12257
H	 2.062479156	-0.0810437138	-3.5782362741	 0.116671
H	 0.6660476186	-0.2815889677	-4.7301580181	 0.115819
H	 0.4221471726	-2.059398732	 1.2599881198	 0.085825
H	 2.0290962436	-0.6323632858	 2.6294463612	 0.109278
H	 1.475564104	 0.8406187364	 1.6841247058	 0.119903
H	-0.6897382195	 0.4159903378	 2.3247701738	 0.24178
62.1639	80.7067	107.5839	148.3486	252.8896	279.5767	283.9447	328.7452	343.3631	422.3548	529.1646	619.414	774.3308	794.3997	806.7307	833.3829	861.6501	884.4567	920.895	945.8632	963.5074	984.4063	1005.1319	1040.0793	1059.3144	1081.0772	1092.3945	1124.5005	1144.282	1160.261	1163.5416	1201.0349	1212.4847	1224.7512	1228.6315	1265.0014	1289.1364	1306.6269	1320.0077	1377.4157	1408.3031	1417.9364	1440.8223	1467.981	1474.9932	1503.5112	1507.2496	2935.8131	3018.8634	3063.5926	3115.4495	3122.7382	3126.6584	3128.6377	3135.7237	3207.1061	3207.7496	3223.4959	3493.6454	3828.2532
OC(CC1CC1)C1CN1	O[C@@H](CC1CC1)[C@H]1CN1	
InChI=1S/C7H13NO/c9-7(6-4-8-6)3-5-1-2-5/h5-9H,1-4H2	InChI=1S/C7H13NO/c9-7(6-4-8-6)3-5-1-2-5/h5-9H,1-4H2/t6-,7+/m1/s1
