21
gdb 78030	2.35635	1.59533	1.27871	1.7614	78.52	-0.2299	0.0672	0.2971	1105.8409	0.181455	-424.215349	-424.205986	-424.205042	-424.24908	35.513	
C	-0.3063500047	 1.4635064587	-0.2705562684	-0.396415
C	 0.0210662314	-0.007830121	-0.1504872921	-0.059338
C	 1.4012853221	-0.6397632131	-0.3505313074	-0.143567
C	 2.6541874662	 0.2181933154	-0.2984150933	 0.07197
O	 2.5345898456	 1.3430574155	-1.1623909589	-0.42444
C	 2.7554271329	 0.5786159396	 1.2044010063	-0.110383
O	 1.4758759532	 0.3607051812	 1.7908987616	-0.295747
C	 0.7684694149	-0.5940707752	 1.018763126	 0.409752
C	 0.2905488549	-1.7801599306	 1.8108478929	-0.466544
H	-0.3040440458	 1.7869606123	-1.3149252983	 0.120544
H	-1.3026277147	 1.6533390794	 0.1448563044	 0.103576
H	 0.4089797895	 2.0798655115	 0.2735020929	 0.128099
H	-0.7652735554	-0.6582727104	-0.5303854396	 0.079514
H	 1.447220163	-1.5625588851	-0.9172983273	 0.084673
H	 3.5258740204	-0.3824201466	-0.596667254	 0.070009
H	 3.3636114747	 1.831191823	-1.1316709972	 0.281116
H	 3.5073272001	-0.0570659475	 1.6980363811	 0.0896
H	 3.0332094071	 1.6276028057	 1.3555298677	 0.098382
H	-0.3885358836	-1.4617901556	 2.6089388648	 0.127916
H	-0.2484969283	-2.4815836766	 1.1671883476	 0.114897
H	 1.1298470566	-2.3102820405	 2.2740984314	 0.116387
75.1191	153.0444	175.9564	205.7543	220.9715	244.419	277.0595	296.3659	365.4801	400.5419	522.8209	568.2891	635.4635	704.2028	755.8589	811.5166	829.9052	869.645	921.9557	962.0547	993.4428	1018.5726	1030.7414	1059.5773	1110.129	1126.2173	1133.8181	1144.2039	1155.1835	1218.2272	1239.9522	1244.405	1268.0715	1332.5736	1350.9087	1378.5126	1411.6939	1416.0859	1432.3763	1458.9092	1480.001	1486.5643	1495.3713	1501.9039	1504.541	2972.0748	2995.8354	3030.7131	3038.8079	3065.2782	3094.8766	3101.9569	3109.4496	3115.8136	3151.9736	3170.7994	3813.4719
CC1C2C(O)COC12C	C[C@H]1[C@H]2[C@@H](O)CO[C@@]12C	
InChI=1S/C7H12O2/c1-4-6-5(8)3-9-7(4,6)2/h4-6,8H,3H2,1-2H3	InChI=1S/C7H12O2/c1-4-6-5(8)3-9-7(4,6)2/h4-6,8H,3H2,1-2H3/t4-,5-,6-,7-/m0/s1
