17
gdb 46314	3.12197	1.37289	1.22883	2.7673	69.97	-0.2387	0.0229	0.2616	1057.4261	0.137378	-455.126912	-455.119005	-455.118061	-455.159933	29.348	
N	 0.015592206	 1.1394503973	-0.5449396044	-0.551683
C	 0.0486857578	-0.0375963203	-0.0883423955	 0.325633
N	 0.9631568633	-0.8723084267	 0.5449395968	-0.34281
C	 0.1154478238	-2.0738114261	 0.4585548011	-0.223342
C	-1.0330986962	-1.1339083836	-0.0266986582	 0.327271
C	-2.2433017047	-0.8506018585	 0.8886805929	-0.182921
O	-3.3257572372	-1.4768861956	 0.21558954	-0.23371
C	-3.0131295139	-1.3256874139	-1.1418893692	 0.010307
O	-1.61198257	-1.5197714422	-1.2526671717	-0.286677
H	 0.9176005825	 1.6122627015	-0.4652646124	 0.210482
H	 1.9696040995	-0.8339635853	 0.4803548004	 0.24371
H	 0.4048230563	-2.7861492885	-0.3202327105	 0.122743
H	-0.0309637524	-2.5917385189	 1.4113410049	 0.109949
H	-2.1530627916	-1.2821011537	 1.8870070145	 0.123708
H	-2.4006477172	 0.2344294639	 0.9681154331	 0.124392
H	-3.5308664797	-2.094904116	-1.7210400101	 0.121015
H	-3.2803298463	-0.3183811534	-1.5038521416	 0.101934
54.6511	117.6506	178.9908	266.091	273.3384	321.69	418.8438	446.9509	578.6892	677.8878	733.542	757.156	813.6727	836.9291	902.2712	920.0199	979.0596	1003.2527	1033.9877	1051.8904	1101.2192	1123.4596	1137.2631	1163.4485	1193.4564	1201.7921	1229.8781	1249.9361	1277.8033	1328.1808	1361.6799	1379.1974	1429.3618	1506.0692	1517.7428	1541.9548	1800.7154	2962.9154	3010.7409	3040.9788	3095.6316	3096.2077	3116.8273	3458.9729	3609.8092
N=C1NCC11COCO1	[NH][C]1NC[C@]21COCO2	
InChI=1S/C5H8N2O2/c6-4-5(1-7-4)2-8-3-9-5/h1-3H2,(H2,6,7)	InChI=1S/C5H8N2O2/c6-4-5(1-7-4)2-8-3-9-5/h1-3H2,(H2,6,7)/t5-/m1/s1
