14
gdb 27579	3.64952	1.28096	0.95373	0.6768	79.58	-0.2693	-0.0721	0.1973	1167.2818	0.100936	-395.753215	-395.745194	-395.74425	-395.787065	28.484	
C	-0.0290758896	 1.4870147492	 0.0027554892	-0.463483
C	 0.0157158452	-0.0114277019	-0.0055391339	 0.353994
N	-0.0264040529	-0.6358782631	-1.1855835143	-0.301387
C	 0.0171126844	-1.9748926366	-1.1256991385	 0.164528
N	 0.097119899	-2.6970795919	 0.0007796663	-0.278313
C	 0.1322540676	-1.961513406	 1.1106119031	 0.066125
N	 0.0958519275	-0.634349966	 1.1815210789	-0.27369
C	-0.0254405602	-2.6884683377	-2.3661343698	 0.272044
C	-0.0611369392	-3.2880996525	-3.4072942189	-0.327871
H	 0.8646346266	 1.8827018933	 0.4952927039	 0.151067
H	-0.0934205066	 1.873558029	-1.0139335121	 0.14531
H	-0.8892940395	 1.8297839814	 0.5862003173	 0.151065
H	 0.1972488874	-2.5037638772	 2.0518052086	 0.133454
H	-0.0927013098	-3.8180557099	-4.3277573596	 0.207156
25.3637	124.1922	146.864	177.4225	325.9044	351.4682	454.1266	513.5565	562.3118	580.2314	652.5149	661.6427	680.3203	785.9038	849.9355	939.7773	1001.0581	1015.2569	1023.9989	1069.9523	1193.2292	1287.4039	1310.6671	1378.1948	1412.8612	1450.9239	1474.9402	1475.9196	1558.3964	1593.6768	2242.1714	3051.3531	3110.0234	3160.9018	3163.8875	3499.4524
CC1=NC(=NC=N1)C#C	Cc1nc(ncn1)C#C	
InChI=1S/C6H5N3/c1-3-6-8-4-7-5(2)9-6/h1,4H,2H3	InChI=1S/C6H5N3/c1-3-6-8-4-7-5(2)9-6/h1,4H,2H3
