17
gdb 98638	3.4094	1.0301	0.87733	2.2797	71.54	-0.2525	0.0137	0.2661	1330.8099	0.135771	-455.176512	-455.167459	-455.166515	-455.211477	31.909	
C	-0.4282323434	 1.2776941658	 1.165085739	-0.334817
N	 0.0945559639	-0.0680096835	 1.0365104979	-0.308241
C	 0.6927639576	-0.513992017	-0.0930091005	 0.369426
O	 0.8727659771	 0.1381902081	-1.1068427465	-0.383355
C	 1.1719232455	-1.957954865	-0.0364221353	 0.026137
C	 2.6962008887	-2.1662393111	 0.1051328108	-0.361655
C	 2.3279308077	-2.8251528203	 1.4168070544	 0.438243
N	 2.9586226876	-3.3795228691	 2.343417204	-0.52798
O	 0.9607412886	-2.6203569303	 1.2566600475	-0.278755
H	-0.2307165431	 1.7969130531	 0.226366196	 0.171826
H	-1.5079403459	 1.2675896948	 1.3490835209	 0.131333
H	 0.0617101322	 1.8164230778	 1.9832628992	 0.131264
H	 0.0053296208	-0.7228941524	 1.7976528522	 0.26287
H	 0.6969822262	-2.5240004132	-0.8404810251	 0.128039
H	 3.1555781325	-2.8312783797	-0.6266399842	 0.148906
H	 3.2880547154	-1.2542523084	 0.1913342454	 0.155107
H	 2.3336514587	-3.7201855694	 3.0756991443	 0.231652
56.0214	73.1409	91.7129	137.4758	200.7291	269.1038	325.1499	407.5757	488.3358	497.6773	569.9736	616.1839	737.9034	756.358	836.6739	868.8781	925.9419	960.6331	980.4736	1008.8883	1035.8834	1108.1108	1123.1834	1155.2668	1178.6847	1205.9321	1232.2847	1271.1624	1299.786	1343.5065	1442.4497	1467.5413	1495.9836	1499.9055	1574.6322	1784.4496	1834.7184	3032.1219	3086.1686	3096.5022	3099.6141	3152.6221	3153.3495	3480.674	3633.1561
CNC(=O)C1CC(=N)O1	CNC(=O)[C@H]1C[C]([NH])O1	
InChI=1S/C5H8N2O2/c1-7-5(8)3-2-4(6)9-3/h3,6H,2H2,1H3,(H,7,8)	InChI=1S/C5H8N2O2/c1-7-5(8)3-2-4(6)9-3/h3,6H,2H2,1H3,(H,7,8)/t3-/m1/s1
