19
gdb 86793	3.58481	0.92666	0.81329	1.32	77.06	-0.2504	0.0487	0.2991	1413.4477	0.157227	-422.97555	-422.965905	-422.964961	-423.010458	35.775	
O	 0.196236706	 1.4033160117	 0.0157090638	-0.439934
C	 0.0669143567	 0.0088164543	-0.0343197478	 0.143912
C	 0.3660224981	-0.8347422561	 1.2369683203	-0.281478
C	-0.9003798799	-1.6804846626	 0.9230884939	 0.018907
C	-1.8200766106	-2.0999019826	 2.0755171346	-0.370076
C	-1.1681701059	-3.0267131334	 2.9934493617	 0.297344
C	-0.6065242419	-3.7896432623	 3.7336418446	-0.447018
C	-1.3909505915	-0.5562229766	-0.0262657934	 0.02671
O	-2.2619367289	 0.3267336771	 0.6709977326	-0.434982
H	-0.4039004857	 1.6966440571	 0.7131002024	 0.275732
H	 0.63625416	-0.3337851324	-0.9025492528	 0.090098
H	 1.325830591	-1.3505106046	 1.2947778769	 0.10784
H	 0.2347944004	-0.2358421981	 2.1438718752	 0.10493
H	-0.634104991	-2.5613850079	 0.3315809487	 0.086979
H	-2.1492917804	-1.2059197569	 2.6159093826	 0.14307
H	-2.7303654198	-2.5612165545	 1.6708209321	 0.128089
H	-0.1229345266	-4.4621806657	 4.3975708025	 0.192585
H	-1.8322210666	-0.8628415945	-0.9823309039	 0.063707
H	-2.5420671333	 1.005910938	 0.0487942359	 0.293585
55.5908	86.1697	113.4274	160.4637	226.2347	252.7069	326.6016	353.8736	404.3953	447.4549	509.5299	534.8317	617.7725	620.547	636.2671	700.6133	781.7802	855.6847	882.4308	926.2375	945.5251	969.5762	1059.9059	1069.9694	1097.2017	1124.9679	1154.9279	1171.4974	1219.9772	1245.5958	1256.114	1268.2046	1310.9028	1320.1711	1332.7154	1374.7435	1417.1508	1441.8636	1470.7214	1483.0997	2237.426	3023.5219	3026.0173	3057.8022	3061.6849	3077.7127	3081.1567	3124.506	3507.6199	3771.0413	3818.924
OC1CC(CC#C)C1O	O[C@H]1C[C@@H](CC#C)[C@H]1O	
InChI=1S/C7H10O2/c1-2-3-5-4-6(8)7(5)9/h1,5-9H,3-4H2	InChI=1S/C7H10O2/c1-2-3-5-4-6(8)7(5)9/h1,5-9H,3-4H2/t5-,6+,7-/m1/s1
