17
gdb 67256	3.10635	1.56145	1.29702	0.911	72.2	-0.2275	0.0671	0.2946	1003.7411	0.13546	-421.724501	-421.717235	-421.716291	-421.75588	29.606	
O	-0.0947789084	 1.4641065167	-0.0769709907	-0.445755
C	 0.0174489193	 0.1057467206	-0.0048303061	 0.331416
C	 0.0817755423	-1.0350124825	-0.9636194049	-0.017259
O	 1.1826303235	-1.6895075836	-0.3439753752	-0.279301
C	 0.8740333616	-0.9421968704	 0.8662592636	-0.14234
C	-0.4550998567	-1.5391358752	 1.3356461385	 0.464776
C	-0.6996543809	-2.8177456446	 2.0638210183	-0.337285
C	-0.9923132853	-1.481783599	 2.7302808906	-0.337684
C	-1.0720831272	-0.9391948597	 0.0948061514	-0.282916
H	 0.6911343919	 1.8139484282	-0.513910683	 0.295578
H	-0.0731850207	-1.1377904097	-2.0295078368	 0.112474
H	 1.7301704037	-0.7883628363	 1.5209521182	 0.083992
H	-1.544305974	-3.4277038361	 1.760224625	 0.114084
H	 0.158075883	-3.3859131624	 2.4090648928	 0.115553
H	-0.3291108542	-1.1538214628	 3.5250180631	 0.11241
H	-2.0292935272	-1.1968725465	 2.8750976839	 0.115138
H	-2.1116357406	-0.8562552966	-0.195325909	 0.097116
127.8466	221.3178	261.722	296.5963	346.3655	388.7848	487.7682	553.7376	599.3585	645.39	739.2419	771.8856	806.0879	866.4548	885.3808	906.1337	920.4911	934.771	963.9382	972.4299	1012.0007	1041.0522	1049.6288	1060.3132	1076.51	1099.4087	1132.5083	1172.714	1180.9677	1204.2288	1248.5438	1284.4584	1319.3561	1416.3375	1464.4263	1486.9024	1514.9374	3122.5288	3128.0146	3139.6693	3200.4844	3202.9021	3213.1254	3215.3903	3778.1592
OC12C3OC1C1(CC1)C23	O[C@@]12[C@H]3O[C@@H]1C1(CC1)[C@@H]23	
InChI=1S/C7H8O2/c8-7-3-4(7)9-5(7)6(3)1-2-6/h3-5,8H,1-2H2	InChI=1S/C7H8O2/c8-7-3-4(7)9-5(7)6(3)1-2-6/h3-5,8H,1-2H2/t3-,4-,5+,7-/m0/s1
