18
gdb 119764	5.21774	0.74191	0.6853	3.8721	79.06	-0.2407	-0.0264	0.2143	1608.0574	0.147884	-439.105182	-439.096229	-439.095284	-439.140013	32.092	
O	-0.1353762693	 1.4469599642	-0.1010526635	-0.413834
C	 0.0163837765	 0.039185074	-0.0994667747	-0.068476
C	-1.3761471028	-0.5605938736	 0.1310608224	-0.30047
C	-1.3841666288	-2.0550759882	 0.1314648298	 0.292007
C	-1.6050605811	-2.899902703	 1.1434271861	-0.28393
C	-1.5173168322	-4.2815635709	 0.6629917033	 0.423137
N	-1.6682823852	-5.3412922739	 1.3392286821	-0.552957
O	-1.2354231467	-4.2399401623	-0.6859412393	-0.25068
C	-1.1345627401	-2.8809674377	-1.1074932376	-0.172915
H	 0.7335206131	 1.8461508338	-0.203167359	 0.290851
H	 0.4294669181	-0.319722324	-1.055697369	 0.08976
H	 0.6955183568	-0.2973354722	 0.6988622333	 0.100365
H	-1.7604214858	-0.1821558736	 1.0827316891	 0.126151
H	-2.036869275	-0.1778313755	-0.657727629	 0.122736
H	-1.8274846591	-2.6605121671	 2.1731086818	 0.125024
H	-1.5537831446	-6.1637467998	 0.74510556	 0.221049
H	-1.8780259017	-2.6858690097	-1.8931480932	 0.127166
H	-0.1403560922	-2.7137770805	-1.5436959627	 0.125017
41.3601	82.2958	109.4762	192.6713	253.1108	254.1406	296.1665	338.6006	464.4649	497.0357	672.1498	695.3519	707.0843	799.0348	861.3596	899.8839	908.2825	917.983	996.1607	1019.3344	1035.2784	1064.991	1087.3987	1096.21	1180.6046	1200.3383	1218.6687	1239.811	1263.6176	1307.4545	1333.7072	1360.0196	1389.2406	1456.2769	1486.5954	1499.9381	1528.3756	1700.1135	1760.4278	2970.5338	3000.8342	3006.7158	3030.6578	3034.9	3094.1075	3248.1914	3480.3312	3832.2414
OCCC1=CC(=N)OC1	OCC[C]1C=C([NH])OC1	
InChI=1S/C6H9NO2/c7-6-3-5(1-2-8)4-9-6/h3,7-8H,1-2,4H2	InChI=1S/C6H9NO2/c7-6-3-5(1-2-8)4-9-6/h3,7-8H,1-2,4H2
