16
gdb 19847	3.31155	2.54	1.78695	3.196	62.68	-0.2652	0.0632	0.3284	756.4966	0.13249	-383.710023	-383.703893	-383.702949	-383.74007	24.554	
C	-0.0156249493	 1.5044831995	-0.0307533836	-0.238831
C	 1.4034788772	 2.1042411436	 0.0551298244	-0.251113
C	 2.1924541262	 1.5518719494	 1.222474818	 0.059101
O	 1.4535096285	 1.2706600568	 2.4127729221	-0.24
C	 1.9624695838	 0.1640210466	 1.6684851663	 0.013947
C	 0.9661428543	-0.6832242987	 0.9203918894	 0.043266
O	-0.4034733125	-0.6017513635	 1.3007330004	-0.238448
C	-0.0167387181	-0.0158259779	 0.0505800753	 0.029841
H	-0.6190314934	 1.885554267	 0.7971082332	 0.13871
H	-0.489723384	 1.8294611377	-0.9613820489	 0.100106
H	 1.9682126914	 1.8977867364	-0.864194619	 0.10625
H	 1.3353776	 3.1947850203	 0.1394524422	 0.112647
H	 3.1745584157	 1.9939443152	 1.3933233139	 0.090811
H	 2.7688300754	-0.3770289834	 2.1624307715	 0.093341
H	 1.3156948482	-1.6862514283	 0.6741070593	 0.087113
H	-0.3897954534	-0.5576515908	-0.8177662344	 0.093259
162.8554	227.3402	338.8037	396.8435	470.456	507.7055	623.0903	696.8952	779.6039	798.2897	822.1004	843.7537	911.6237	940.9486	967.3929	994.5076	1038.6867	1059.7647	1080.3863	1102.1452	1136.5111	1140.3217	1222.2921	1253.559	1271.6653	1295.4866	1346.0432	1360.7371	1388.6281	1393.4818	1455.7863	1462.8106	1479.79	1487.5507	3021.5168	3058.0207	3067.0941	3098.0941	3104.9024	3107.1071	3117.619	3124.2922
C1CC2OC2C2OC12	C1C[C@H]2O[C@H]2[C@H]2O[C@@H]12	
InChI=1S/C6H8O2/c1-2-4-6(8-4)5-3(1)7-5/h3-6H,1-2H2	InChI=1S/C6H8O2/c1-2-4-6(8-4)5-3(1)7-5/h3-6H,1-2H2/t3-,4+,5-,6+
