14
gdb 42876	3.1104	1.4622	1.45194	4.4428	61.95	-0.2461	-0.0508	0.1952	934.0529	0.101941	-473.851005	-473.843987	-473.843043	-473.882613	26.795	
O	-0.0393203356	 0.0407318885	 0.0067480971	-0.291396
C	-0.0459351386	 1.2314609154	-0.0327207582	 0.426016
C	-1.1031546844	 2.3615087989	 0.0883062328	-0.126767
C	 0.0023854898	 3.1282845248	 0.8701726677	-0.262139
C	 1.0282105071	 2.3579082602	-0.0054627334	-0.003499
O	 1.1178235537	 2.9704964542	-1.3067828253	-0.26182
C	-0.0555319422	 3.2267986002	-1.9750233995	 0.468506
O	-0.0426418254	 3.6466033411	-3.0983630809	-0.370725
N	-1.1924744372	 2.9795197006	-1.2357118551	-0.352481
H	-2.0903662766	 2.186244401	 0.511550169	 0.108772
H	 0.0037280017	 4.2143703519	 0.7700157817	 0.13791
H	 0.0537259204	 2.8236972209	 1.9176800774	 0.135241
H	 2.0458758308	 2.1664775549	 0.3283637337	 0.120266
H	-2.0500512236	 2.9404056475	-1.7621604168	 0.272116
89.6715	174.4703	249.9084	350.1188	419.6084	436.3607	461.4401	529.5819	547.4572	675.1558	763.2307	820.6118	831.5043	843.1466	889.7788	967.0198	992.0599	1017.4415	1081.1554	1098.208	1112.5211	1139.7169	1222.8192	1227.1297	1242.9392	1335.6908	1367.1021	1430.9382	1465.8222	1872.9793	1913.2961	3079.8677	3142.2519	3149.3928	3151.7575	3654.698
O=C1C2CC1OC(=O)N2	O=C1[C@H]2C[C@@H]1OC(=O)N2	
InChI=1S/C5H5NO3/c7-4-2-1-3(4)9-5(8)6-2/h2-3H,1H2,(H,6,8)	InChI=1S/C5H5NO3/c7-4-2-1-3(4)9-5(8)6-2/h2-3H,1H2,(H,6,8)/t2-,3+/m1/s1
