18
gdb 85196	2.62401	1.2011	0.88565	2.946	78.88	-0.2584	0.0239	0.2823	1308.0022	0.14582	-401.918005	-401.908727	-401.907782	-401.952605	33.955	
C	-0.3065058609	 1.5068692708	-0.0621288158	-0.402982
C	 0.0982580246	 0.0493014198	-0.0210984143	 0.116236
O	 1.3207116235	-0.1994835824	-0.7978449453	-0.269722
C	 1.98088127	-0.6983396763	 0.3066346128	 0.433774
N	 3.1567766938	-1.1117656924	 0.4341420555	-0.533766
C	 0.7945216279	-0.5393142155	 1.2396007117	-0.151374
C	 0.9761545822	 0.3458239473	 2.4839899137	-0.382948
C	 1.6343534765	-0.3545034727	 3.5795250563	 0.306065
C	 2.1577693245	-0.9446683588	 4.4851990969	-0.421452
H	 0.4963421665	 2.1591853964	 0.2911937549	 0.130644
H	-0.5516046452	 1.7956076563	-1.0882972618	 0.134608
H	-1.1937527979	 1.6753120178	 0.557202026	 0.126547
H	-0.7048784824	-0.5872780247	-0.405630676	 0.096074
H	 3.668209928	-1.0516289035	-0.4483642686	 0.227058
H	 0.3744762569	-1.5024476646	 1.5386629511	 0.119259
H	 1.5486912525	 1.2440511757	 2.2268266272	 0.140154
H	-0.0112605298	 0.6913100908	 2.8173806776	 0.133759
H	 2.6381124993	-1.462712234	 5.2777408982	 0.198067
59.4659	78.9499	118.3928	209.1174	214.4193	239.1626	337.8203	352.9405	452.1873	466.2352	494.5099	622.0316	643.8111	659.0802	727.3264	812.4684	853.2191	871.4066	891.1657	957.0917	999.7704	1016.2119	1040.8985	1071.6165	1133.1007	1156.1683	1196.8675	1230.7829	1253.5949	1311.6926	1345.6412	1373.8306	1387.4757	1414.1174	1467.4781	1485.4702	1498.2171	1824.1011	2245.2585	3021.9734	3042.7158	3056.0346	3062.9292	3092.2537	3112.8593	3125.4547	3472.2499	3508.0138
CC1OC(=N)C1CC#C	C[C@H]1O[C]([NH])[C@H]1CC#C	
InChI=1S/C7H9NO/c1-3-4-6-5(2)9-7(6)8/h1,5-6,8H,4H2,2H3	InChI=1S/C7H9NO/c1-3-4-6-5(2)9-7(6)8/h1,5-6,8H,4H2,2H3/t5-,6+/m1/s1
