24
gdb 14791	11.1285	0.52271	0.51033	0.8504	84.3	-0.2476	0.0901	0.3377	2265.0769	0.221386	-351.413073	-351.402189	-351.401245	-351.449978	37.482	
C	-0.0521282986	 1.5459033592	-0.0469178883	-0.380063
C	 0.003502606	 0.016717859	 0.0000141653	-0.162563
C	 0.7371913224	-0.5226033125	 1.2327857313	-0.161479
C	 0.7939641905	-2.0523306617	 1.2812768148	-0.195792
C	 1.5235226023	-2.5789435144	 2.5095048531	-0.050116
O	 1.5265550553	-3.9893239162	 2.4685951911	-0.243342
C	 2.1826614697	-4.5799874782	 3.5697238452	-0.026046
C	 2.1236240671	-6.0906888022	 3.4177735818	-0.383882
H	 0.9544718509	 1.9786448134	-0.0643897952	 0.11275
H	-0.5815514172	 1.8999711876	-0.9370505841	 0.111011
H	-0.5689068969	 1.9506797628	 0.8305336868	 0.112746
H	-1.0166835349	-0.3887512092	-0.0186432369	 0.09537
H	 0.4950240554	-0.3610099792	-0.9062230102	 0.095374
H	 1.7581644981	-0.1158384958	 1.2517315997	 0.091985
H	 0.2452945097	-0.1438314113	 2.1398624257	 0.091974
H	-0.2213204458	-2.4676483331	 1.2737680427	 0.102791
H	 1.2948138266	-2.4395978413	 0.3854440663	 0.102811
H	 2.5585721023	-2.1937456148	 2.5356109611	 0.079902
H	 1.0295676044	-2.2230235678	 3.4313007774	 0.079901
H	 3.2308939257	-4.2370691815	 3.6183887919	 0.081861
H	 1.7020224634	-4.2673588464	 4.5131354847	 0.081864
H	 2.625010525	-6.5793846009	 4.2586012571	 0.112221
H	 1.0851294151	-6.4324552012	 3.3857418734	 0.125367
H	 2.6143968735	-6.4023279041	 2.4913175254	 0.125354
47.9663	72.3258	81.5133	110.465	131.2303	165.9779	199.7838	243.7281	247.8266	288.6493	348.223	491.6336	493.6461	737.2978	774.4643	821.6685	863.7782	886.6254	909.5086	987.2567	1021.0041	1035.4096	1064.257	1069.3927	1120.8412	1157.7823	1173.2981	1180.0007	1205.8408	1242.4711	1272.5927	1294.4997	1301.0159	1317.7209	1335.521	1352.9965	1391.14	1402.0951	1409.5304	1413.6715	1455.1191	1483.6877	1486.0474	1489.6812	1499.0597	1499.1608	1501.4115	1512.1427	1519.8575	1539.9687	2935.6547	2951.6306	2962.106	2969.9281	3002.1717	3016.4207	3026.2725	3028.3944	3030.6115	3044.1856	3050.3238	3074.3232	3094.7539	3100.7999	3118.2228	3120.4621
CCCCCOCC	CCCCCOCC	
InChI=1S/C7H16O/c1-3-5-6-7-8-4-2/h3-7H2,1-2H3	InChI=1S/C7H16O/c1-3-5-6-7-8-4-2/h3-7H2,1-2H3
