16
gdb 126569	6.46979	0.77733	0.70296	4.6374	67.2	-0.2834	-0.0137	0.2697	1561.495	0.123246	-475.05416	-475.045677	-475.044732	-475.088471	29.866	
C	-0.1207285358	 1.6121568278	 0.0125820788	-0.389854
C	 0.0108238619	 0.0876028321	 0.0034364348	-0.169477
C	-1.3576765023	-0.6037715132	 0.011406151	-0.315951
C	-1.2780122066	-2.0879373843	 0.0029004359	 0.450956
N	-0.2151160203	-2.8052697824	-0.0088226462	-0.174998
O	-0.6909591591	-4.1442428845	-0.0122702205	-0.232138
C	-2.0471709962	-4.1350579227	-0.002299652	 0.509695
O	-2.7759597813	-5.0693588829	-0.0015558762	-0.357998
O	-2.4313068198	-2.8051742271	 0.0077246227	-0.228889
H	 0.8642572316	 2.0868492969	 0.0067667182	 0.125654
H	-0.6688574904	 1.9710644787	-0.8653894512	 0.1209
H	-0.6539178182	 1.9617385016	 0.9034223599	 0.120901
H	 0.5726810468	-0.2381725801	-0.8781001168	 0.126032
H	 0.5875135532	-0.2473670664	 0.8718527437	 0.126069
H	-1.9411854611	-0.3055952138	 0.8926595638	 0.144558
H	-1.9561077823	-0.2963847398	-0.8565656457	 0.144541
47.7432	75.7739	124.9059	188.5568	251.1807	318.4052	322.5063	346.9978	556.7988	638.6238	711.275	745.3255	775.9547	783.3274	880.2265	886.3631	915.3185	957.5441	997.8928	1050.909	1118.7097	1132.6698	1154.1927	1255.838	1260.472	1323.7029	1360.8326	1417.4208	1423.0951	1467.6826	1490.4995	1501.8873	1508.9302	1688.6522	1950.3357	3024.7164	3034.1293	3052.2335	3052.9607	3082.6877	3107.112	3114.4435
CCCC1=NOC(=O)O1	CCCc1noc(=O)o1	
InChI=1S/C5H7NO3/c1-2-3-4-6-9-5(7)8-4/h2-3H2,1H3	InChI=1S/C5H7NO3/c1-2-3-4-6-9-5(7)8-4/h2-3H2,1H3
