16
gdb 46085	4.44797	1.00825	0.86417	2.0297	76.43	-0.2568	-0.0713	0.1855	1268.3435	0.125692	-400.799834	-400.792024	-400.79108	-400.832584	29.18	
O	 0.0027866541	-0.0519138506	 0.2022196914	-0.319321
C	-0.0194383377	 1.1470177666	 0.0217504754	 0.390543
C	-1.3215291976	 1.9334491421	-0.079049818	-0.337578
C	-1.1960553751	 3.1615338451	-0.9869176219	-0.226397
C	-0.0322019839	 4.0624888436	-0.5154419113	-0.189931
C	 1.2365670064	 3.2593911741	-0.298134615	-0.034531
C	 1.2282168517	 1.9421647911	-0.0701686438	-0.168597
C	 0.2010514822	 5.1652419272	-1.4538701833	 0.260176
N	 0.3815474921	 6.0300419656	-2.1984026492	-0.311252
H	-2.1082538502	 1.2563355167	-0.4195763054	 0.135323
H	-1.5902804438	 2.2476953663	 0.9400279097	 0.131051
H	-0.9950356404	 2.8465415793	-2.0164099438	 0.135588
H	-2.126733624	 3.7349239641	-1.0007492325	 0.128195
H	-0.3105053664	 4.524269415	 0.4452891151	 0.147985
H	 2.1721337781	 3.8106004045	-0.326794278	 0.136214
H	 2.1506890645	 1.3897118293	 0.0780462207	 0.122535
63.5377	147.7797	171.353	259.9882	327.2907	392.5539	422.5268	471.9679	544.2996	570.7573	630.27	708.7311	751.4101	761.3283	873.8122	933.7377	974.7364	1024.6024	1039.6576	1050.2307	1064.574	1150.4151	1194.3685	1229.1512	1257.2172	1299.2823	1303.4544	1350.7126	1372.6002	1403.2741	1460.4195	1495.1286	1684.2255	1788.0088	2362.1816	2986.8571	3016.0533	3055.1418	3102.4179	3109.6306	3171.4093	3195.3589
O=C1CCC(C=C1)C#N	O=C1CC[C@@H](C=C1)C#N	
InChI=1S/C7H7NO/c8-5-6-1-3-7(9)4-2-6/h1,3,6H,2,4H2	InChI=1S/C7H7NO/c8-5-6-1-3-7(9)4-2-6/h1,3,6H,2,4H2/t6-/m1/s1
