18
gdb 17120	6.65709	1.06846	0.971	2.942	72.86	-0.2379	-0.0163	0.2215	1189.9063	0.153057	-347.800185	-347.792414	-347.79147	-347.832964	29.226	
O	-0.0896657536	-0.0037137803	-0.1434249646	-0.290102
C	-0.0439305488	 1.1766719504	 0.0467624546	 0.401127
C	-1.1017449818	 2.2487485859	 0.3516504675	-0.362142
C	 0.0645667144	 3.2076731626	 0.7649266717	 0.018881
C	 1.1027540239	 2.1904137953	 0.1835773302	-0.362141
C	 0.0577762158	 4.5987193858	 0.1930510097	 0.023807
C	-0.6129515506	 5.7306099835	 0.9314831893	-0.273152
C	 0.8912265423	 5.6908004457	 0.8167927686	-0.273152
H	-1.6162404758	 2.5746068926	-0.5599609947	 0.128188
H	-1.8555667609	 1.9898047534	 1.0993204241	 0.127233
H	 0.1490006532	 3.2572667852	 1.8551765421	 0.075513
H	 1.9464730794	 1.8891964429	 0.8094493732	 0.127233
H	 1.4896202247	 2.4924206237	-0.7967547989	 0.128188
H	-0.0241785946	 4.62836703	-0.8920831948	 0.078441
H	-1.1549297527	 6.4732383709	 0.3566864089	 0.113922
H	-1.0526933167	 5.512796533	 1.8994549026	 0.112118
H	 1.46047724	 5.4462819539	 1.7078310061	 0.112118
H	 1.3781574419	 6.4061980954	 0.1635446843	 0.113922
52.0493	83.8256	173.5608	269.2083	332.2267	401.6074	420.7988	503.6105	650.1217	662.4366	730.1067	790.4051	826.3122	883.2673	911.5261	933.6333	939.5308	997.5137	1009.5862	1040.4374	1060.2099	1081.2459	1111.1004	1136.9919	1148.1804	1190.8417	1197.9971	1222.6689	1235.9377	1249.4145	1260.0417	1313.547	1426.0621	1431.3449	1448.7448	1470.3336	1506.6754	1893.7049	3045.172	3049.329	3054.55	3110.8902	3110.9914	3120.6018	3129.807	3134.844	3208.079	3222.9966
O=C1CC(C1)C1CC1	O=C1CC(C1)C1CC1	
InChI=1S/C7H10O/c8-7-3-6(4-7)5-1-2-5/h5-6H,1-4H2	InChI=1S/C7H10O/c8-7-3-6(4-7)5-1-2-5/h5-6H,1-4H2
