17
gdb 50884	6.35628	0.59731	0.54966	1.1278	79.99	-0.26	-0.021	0.2391	1913.7893	0.134277	-418.015612	-418.005724	-418.00478	-418.052118	34.307	
N	 0.9803645846	-0.0735015108	-0.5874419254	-0.46323
C	-0.0729849785	 0.4321386009	-0.0904361262	 0.099845
N	-1.2987677587	-0.1862880066	-0.2854151968	-0.318124
C	-2.4950589437	 0.2927728729	 0.2179166704	 0.441731
O	-2.5626271028	 1.3079282654	 0.8794298156	-0.347896
C	-3.7034128103	-0.564456856	-0.1331879376	-0.334828
C	-5.0020742054	 0.0141138067	 0.4506298635	-0.352669
C	-6.1636001465	-0.8008754091	 0.1188655336	 0.281288
C	-7.1061169188	-1.4894321422	-0.1674464527	-0.424153
H	 1.790495485	 0.4976847246	-0.3544188211	 0.234527
H	-0.1628660543	 1.3411521229	 0.5068818627	 0.141196
H	-1.2831667908	-1.0359218145	-0.8325179176	 0.262798
H	-3.7800959531	-0.6473540178	-1.2240522312	 0.141358
H	-3.5403626777	-1.5837617651	 0.2371755293	 0.141355
H	-4.8991020534	 0.1047676285	 1.5372767313	 0.150484
H	-5.1377148442	 1.0368279429	 0.0828366709	 0.150479
H	-7.9500697515	-2.0858760326	-0.4109320088	 0.19584
29.8197	54.308	89.7251	129.4975	188.8242	191.5925	269.0475	344.726	363.5738	481.0324	533.6042	561.5603	623.4711	648.8105	654.9389	733.216	787.9212	832.7473	963.4226	977.979	1034.5895	1038.2628	1089.8654	1096.7629	1168.1807	1179.1731	1290.6602	1307.0745	1307.2474	1382.4941	1395.341	1459.5601	1471.8372	1496.4866	1728.8532	1798.3267	2241.7287	3036.7301	3052.2675	3067.5503	3089.5711	3127.3489	3507.222	3508.0947	3605.6141
N=CNC(=O)CCC#C	N=CNC(=O)CCC#C	
InChI=1S/C6H8N2O/c1-2-3-4-6(9)8-5-7/h1,5H,3-4H2,(H2,7,8,9)	InChI=1S/C6H8N2O/c1-2-3-4-6(9)8-5-7/h1,5H,3-4H2,(H2,7,8,9)
