16
gdb 27954	3.65159	1.13662	0.86747	4.6162	84.18	-0.2154	-0.0547	0.1606	1263.23	0.126199	-400.832271	-400.824524	-400.82358	-400.864423	29.888	
N	-0.032506342	 1.4080747087	 0.1404087643	-0.589594
C	 0.0023154319	 0.0180072974	 0.0449867715	 0.334189
C	-1.1791189571	-0.7336630963	 0.036950534	-0.288886
C	-1.137944887	-2.1272786675	 0.0031801516	 0.234759
C	-2.4105885106	-2.8828096916	-0.0056559288	 0.097045
O	-2.5014453701	-4.0879617726	-0.0375818173	-0.27211
C	 0.0862712475	-2.8041291488	-0.0244982326	-0.218878
C	 1.259927777	-2.0631597382	-0.0180265682	-0.082135
C	 1.2236510819	-0.6711646976	 0.0155626323	-0.180659
H	 0.787601849	 1.882181615	-0.2081412757	 0.249539
H	-0.8814779011	 1.8396669276	-0.1939408201	 0.249633
H	-2.1418520924	-0.2281549436	 0.0607314739	 0.088935
H	-3.3218074534	-2.2418648992	 0.0199146965	 0.064146
H	 0.0877357151	-3.8868122401	-0.0518051348	 0.120662
H	 2.221288771	-2.5659923695	-0.0416170811	 0.102942
H	 2.1512823705	-0.1058135139	 0.0224377245	 0.090413
109.7132	198.2893	220.2814	254.2409	303.4924	364.887	442.2938	451.9976	531.7836	556.915	612.9853	671.7882	705.0508	796.9844	814.7713	878.3793	906.5501	949.8577	972.8532	1007.9381	1041.3927	1081.7784	1132.1577	1178.462	1194.8619	1320.2848	1336.6541	1365.3289	1426.2312	1492.969	1524.9118	1622.9903	1645.1623	1662.4786	1799.7201	2866.2764	3152.3082	3164.2447	3185.8901	3214.9122	3567.9108	3666.8057
NC1=CC(C=O)=CC=C1	Nc1cc(C=O)ccc1	
InChI=1S/C7H7NO/c8-7-3-1-2-6(4-7)5-9/h1-5H,8H2	InChI=1S/C7H7NO/c8-7-3-1-2-6(4-7)5-9/h1-5H,8H2
