15
gdb 47188	2.25537	1.92428	1.11254	4.8089	70.76	-0.2668	-0.0518	0.215	1038.3224	0.114214	-453.990118	-453.982319	-453.981375	-454.023627	28.626	
N	 0.1454760097	 0.9482446844	-0.9555067664	-0.478011
C	-0.0079081699	 0.1038104697	-0.0241434441	 0.335036
O	 0.9794512319	-0.073133603	 0.9406177871	-0.271755
C	 1.5072957966	-1.3314980312	 1.2386412248	 0.433252
O	 2.6516013243	-1.592822113	 0.9904845628	-0.350645
N	 0.6291984975	-2.1467559453	 1.8716665556	-0.330799
C	-0.7173422367	-1.7843892701	 2.2860352441	-0.224497
C	-1.6220299188	-1.4112597248	 1.136380027	-0.096587
C	-1.2778233318	-0.6142738481	 0.1233535294	-0.043565
H	 1.0731803418	 1.3718294583	-0.89606625	 0.238729
H	 0.9993296291	-3.0475159944	 2.1275602716	 0.26778
H	-1.1299898723	-2.6485172436	 2.8109993671	 0.128181
H	-0.6835223711	-0.9617414901	 3.0145727835	 0.146369
H	-2.6263514622	-1.824072193	 1.1566989469	 0.117943
H	-1.979875558	-0.3995945158	-0.6742277794	 0.128567
29.787	90.0611	194.0815	301.7396	315.5562	401.0892	459.7953	481.1426	537.1311	620.1334	686.4844	711.5113	759.5528	835.7254	844.3989	909.649	925.0062	939.8863	1014.4998	1020.4995	1102.6884	1116.928	1222.5959	1260.3789	1290.1908	1367.0803	1400.1624	1412.8081	1469.7386	1491.636	1692.609	1735.3795	1868.7418	3007.1273	3103.9449	3172.3489	3207.9606	3481.4114	3652.7445
N=C1OC(=O)NCC=C1	[NH]C1=C[CH]CNC(=O)O1	
InChI=1S/C5H6N2O2/c6-4-2-1-3-7-5(8)9-4/h1-2,6H,3H2,(H,7,8)	InChI=1S/C5H6N2O2/c6-4-2-1-3-7-5(8)9-4/h1-2,6H,3H2,(H,7,8)
