22
gdb 108824	2.67858	1.15855	0.97432	1.3876	83.45	-0.2368	0.0306	0.2674	1359.0355	0.193787	-404.390049	-404.380143	-404.379199	-404.425644	36.264	
C	 0.3555432682	 0.9843353192	 0.6464940905	-0.378773
C	-0.3725251481	 0.3417920215	-0.5452814253	-0.272642
C	 0.5684125561	-0.2785599951	-1.5283147561	 0.402066
N	 0.7077436414	 0.0482069801	-2.7486919074	-0.319371
C	 1.7944288451	-0.7855706469	-3.2960766562	 0.00516
C	 2.953791363	 0.1045178222	-3.7522704836	-0.386132
C	 2.100973613	-1.8069819622	-2.1504247671	 0.100464
C	 3.5452460283	-2.0139174596	-1.7275429007	-0.405059
O	 1.3465891992	-1.2785712148	-1.0273775858	-0.271257
H	 0.9616644277	 0.2457279191	 1.1769304266	 0.134598
H	 1.016243131	 1.7899067034	 0.3118077477	 0.125263
H	-0.3657124848	 1.4081272448	 1.3507099536	 0.117229
H	-1.0518371121	-0.4374586188	-0.1788227355	 0.118952
H	-0.9697098553	 1.0799669928	-1.0843960263	 0.128993
H	 1.4158540393	-1.3244302265	-4.171978975	 0.082004
H	 3.3614434866	 0.6881670529	-2.9213491699	 0.117935
H	 3.763769359	-0.4845897008	-4.1938340894	 0.109223
H	 2.5906187656	 0.8086958098	-4.5051671747	 0.12952
H	 1.6524010732	-2.7782178587	-2.3935581545	 0.086299
H	 4.0175508161	-1.070480813	-1.4428249928	 0.127068
H	 3.592504088	-2.6925208128	-0.8713223848	 0.126914
H	 4.1223503297	-2.4584689467	-2.5441175333	 0.121547
34.2068	66.6444	117.6575	197.653	236.3872	249.2511	265.1791	280.4834	321.0214	426.668	441.6318	490.7224	630.0187	706.8116	724.6924	761.356	796.8117	889.8728	908.6511	947.7914	990.6279	1012.6337	1041.0231	1074.2655	1079.9934	1096.9963	1124.0382	1159.0285	1177.3893	1246.9491	1292.6202	1307.6166	1347.0385	1359.8755	1378.4003	1393.0612	1408.1912	1410.3721	1415.7149	1474.6015	1478.4375	1490.6479	1496.5194	1496.8891	1508.7284	1509.1528	1734.2529	3015.1923	3039.2749	3039.7994	3040.5151	3045.934	3047.5418	3108.8963	3110.1245	3116.5909	3116.8012	3121.7348	3128.7999	3132.6744
CCC1=NC(C)C(C)O1	CCC1=N[C@@H](C)[C@@H](C)O1	
InChI=1S/C7H13NO/c1-4-7-8-5(2)6(3)9-7/h5-6H,4H2,1-3H3	InChI=1S/C7H13NO/c1-4-7-8-5(2)6(3)9-7/h5-6H,4H2,1-3H3/t5-,6+/m0/s1
