18
gdb 98798	2.97422	1.13142	0.90288	1.9212	73.84	-0.2564	-0.0255	0.2309	1312.5596	0.146268	-439.106796	-439.097584	-439.09664	-439.141896	32.61	
C	-0.3320048323	 1.4541774792	 0.0627516629	-0.382359
C	-0.1238737997	-0.0499225934	 0.2176009733	-0.289263
C	 0.9272361925	-0.4163358904	 1.2455638347	 0.368509
O	 1.5958049927	 0.3963221557	 1.8400330677	-0.2965
C	 1.076184004	-1.9140532389	 1.518980601	-0.244306
C	 1.9963286722	-2.3311825974	 2.6754050371	-0.104603
O	 0.8386474929	-2.8604274747	 3.410289466	-0.247965
C	-0.0191806513	-2.5028339403	 2.4016744695	 0.441444
N	-1.2620498216	-2.61139419	 2.284696957	-0.541488
H	 0.5967500693	 1.9514243836	-0.2281154345	 0.130574
H	-1.0896299142	 1.6600787904	-0.6980339708	 0.114295
H	-0.6598476212	 1.9010097426	 1.004896449	 0.133378
H	-1.048946418	-0.5685784084	 0.504618524	 0.164124
H	 0.1750882561	-0.511211028	-0.7349622214	 0.121136
H	 1.2030227314	-2.4627651065	 0.582454985	 0.124797
H	 2.7165125716	-3.1238921616	 2.4665694901	 0.123439
H	 2.4554536209	-1.4991211405	 3.2097074083	 0.149535
H	-1.6846324852	-3.0527855515	 3.102628831	 0.235254
55.3383	62.4884	116.1108	138.3389	197.0648	218.0132	310.4622	371.8994	437.9193	509.4025	584.6653	677.0574	735.7432	763.3376	823.0275	856.9651	934.0634	949.8686	968.1968	1010.4578	1016.739	1037.931	1094.2361	1109.8984	1134.3026	1161.8118	1179.7592	1230.9496	1279.8814	1320.3991	1357.8772	1384.0023	1414.0064	1452.68	1493.3139	1498.2347	1512.9082	1802.1319	1822.0432	3014.2508	3048.6228	3052.5377	3082.8014	3091.3134	3124.6148	3126.996	3155.3267	3484.1767
CCC(=O)C1COC1=N	CCC(=O)[C@H]1CO[C]1[NH]	
InChI=1S/C6H9NO2/c1-2-5(8)4-3-9-6(4)7/h4,7H,2-3H2,1H3	InChI=1S/C6H9NO2/c1-2-5(8)4-3-9-6(4)7/h4,7H,2-3H2,1H3/t4-/m1/s1
