18
gdb 17294	3.19451	2.41074	1.90156	1.7537	70.35	-0.2415	0.0745	0.3159	790.1922	0.154294	-347.749344	-347.742527	-347.741583	-347.779771	27.708	
C	-0.0958930758	 1.4846332047	-0.0118503592	-0.479898
C	 0.0456571095	-0.0121238102	 0.0524013385	 0.455323
O	-1.2337924352	-0.7131912462	-0.0158028335	-0.337846
C	-0.9616638387	-1.4227627555	 1.2208026194	-0.113836
C	 0.4550387138	-0.8267351732	 1.2999707203	-0.121309
C	 1.5821460122	-1.486763506	 0.4734572866	-0.066353
C	 1.0785609613	-2.1450702731	-0.78134624	-0.296714
C	 1.1996682687	-0.6518756365	-0.761684824	-0.089617
H	 0.8740176748	 1.9708492343	 0.1362363593	 0.119473
H	-0.4786573551	 1.7842046662	-0.9942868875	 0.129348
H	-0.7920910181	 1.8459163996	 0.7503724366	 0.121306
H	-1.6352518282	-1.0923105995	 2.0215417439	 0.098742
H	-1.0465620594	-2.5096560091	 1.1062774127	 0.100421
H	 0.7687256837	-0.3437793648	 2.2246417573	 0.075318
H	 2.5698701682	-1.7013950126	 0.8626273489	 0.086702
H	 1.8423066485	-2.6575158087	-1.357735351	 0.109493
H	 0.0976719334	-2.6040700615	-0.8333771712	 0.130151
H	 1.8348953263	-0.110662848	-1.453905857	 0.079296
192.7938	215.2231	247.4478	306.8542	343.4367	448.9301	523.3937	608.1036	689.0769	751.567	790.4187	867.7902	872.9399	880.4798	927.3464	943.865	961.2609	980.5945	1003.1571	1036.9366	1058.3211	1077.5832	1085.4541	1121.7075	1144.5273	1163.078	1178.7273	1201.8437	1256.1004	1303.1914	1312.8473	1335.328	1372.2466	1408.4393	1480.8621	1487.3954	1493.2538	1519.6369	3013.0418	3031.025	3058.4467	3098.5103	3113.4435	3118.7146	3132.9274	3168.9631	3184.6054	3215.5731
CC12OCC1C1CC21	C[C@]12OC[C@H]1[C@H]1C[C@@H]21	
InChI=1S/C7H10O/c1-7-5-2-4(5)6(7)3-8-7/h4-6H,2-3H2,1H3	InChI=1S/C7H10O/c1-7-5-2-4(5)6(7)3-8-7/h4-6H,2-3H2,1H3/t4-,5+,6-,7+/m0/s1
