23
gdb 116163	2.3688	1.25351	0.87405	0.3501	82.76	-0.2308	0.0906	0.3215	1405.6989	0.205703	-425.440028	-425.430459	-425.429515	-425.474241	36.249	
C	-0.0224934201	 1.5546360781	 0.0507909631	-0.383215
C	-0.0313197968	 0.0243551546	 0.001536747	-0.194184
C	-1.4361509884	-0.5681590314	 0.0163134939	 0.129352
C	-1.4400333485	-2.0926096851	-0.0968610145	-0.095166
O	-2.7554473786	-2.6104120993	 0.0148855687	-0.25507
C	-3.3612076367	-2.2137726394	 1.2331395383	-0.081493
C	-3.3874317825	-0.6904535656	 1.3630711671	 0.129739
C	-3.9376519257	-0.217094203	 2.6984864778	-0.408457
O	-2.0614699291	-0.1832668779	 1.2384592252	-0.280689
H	 1.0006699286	 1.941391217	 0.0724364485	 0.109513
H	-0.522622631	 1.9808327606	-0.8260040344	 0.110987
H	-0.5449701599	 1.9115710861	 0.9415072721	 0.134826
H	 0.4816263484	-0.3275737941	-0.9023438305	 0.0957
H	 0.5218568831	-0.3799098507	 0.8581593916	 0.103763
H	-2.0221020711	-0.1624332829	-0.8279589132	 0.065334
H	-1.0605892496	-2.4124081917	-1.0721082377	 0.105156
H	-0.793182759	-2.5167126983	 0.6901366542	 0.086438
H	-4.3759792475	-2.6234725807	 1.2264447562	 0.104817
H	-2.8141581225	-2.6396539002	 2.0918548541	 0.085948
H	-4.0018217671	-0.2911507469	 0.537572827	 0.068986
H	-3.3420925046	-0.6188478868	 3.5241111127	 0.124271
H	-3.9044607077	 0.8740340789	 2.7541768672	 0.127184
H	-4.9753646536	-0.5400642612	 2.8264181656	 0.116263
90.1115	128.1786	157.375	176.587	214.8688	238.4703	294.2973	324.1363	380.8931	445.141	472.8734	477.4306	495.3745	603.1315	770.5493	860.3644	875.8303	923.9047	938.716	955.6658	976.1299	1017.5015	1029.9576	1106.1844	1132.8639	1141.7299	1143.5681	1158.5685	1166.6388	1195.9111	1255.1895	1292.4694	1308.2183	1326.5191	1335.3334	1357.963	1387.3929	1398.7916	1404.3513	1407.5185	1420.6783	1432.0973	1474.008	1479.2133	1484.2282	1491.5277	1496.9309	1500.8336	1509.9891	2943.041	2953.941	2963.5788	2969.9054	3026.6926	3037.9873	3042.5735	3063.3052	3082.5656	3085.4263	3102.5753	3115.436	3122.5359	3127.5663
CCC1COCC(C)O1	CC[C@H]1COC[C@@H](C)O1	
InChI=1S/C7H14O2/c1-3-7-5-8-4-6(2)9-7/h6-7H,3-5H2,1-2H3	InChI=1S/C7H14O2/c1-3-7-5-8-4-6(2)9-7/h6-7H,3-5H2,1-2H3/t6-,7+/m1/s1
