21
gdb 79987	2.0866	1.66419	1.53485	1.2199	83.14	-0.2233	0.0165	0.2397	1056.8125	0.181786	-387.064162	-387.055314	-387.05437	-387.096698	35.309	
C	-0.1155033002	 1.6562511294	 0.0028009097	-0.439668
C	 0.0234198454	 0.1443448923	 0.0028515515	 0.026325
C	 1.1711029687	-0.5803805306	-0.7847187346	-0.154617
C	 2.4205698452	-0.0373553226	-0.1010670272	-0.09822
C	 2.1018052766	-0.0682611893	 1.1986947411	-0.136738
C	 0.6763175699	-0.6296602052	 1.2185641681	 0.275477
C	-0.0411876079	-0.84473128	 2.5301483426	-0.521394
C	 0.899014201	-1.8028086227	 0.190145311	 0.123213
O	-0.2695974597	-2.5555714529	-0.0185337742	-0.44285
H	 0.8277402737	 2.1545403572	 0.2414012983	 0.116393
H	-0.450119792	 2.0129767409	-0.9779930388	 0.109813
H	-0.8650234363	 1.9760085045	 0.7358491666	 0.110968
H	-0.934798621	-0.3220809763	-0.2417561041	 0.085752
H	 1.1607126517	-0.6879753643	-1.8701558173	 0.050449
H	 3.3469240781	 0.249983128	-0.5787043773	 0.09648
H	 2.6928397216	 0.1914421487	 2.066526046	 0.094512
H	-0.268784605	 0.1096198932	 3.0181781862	 0.115439
H	-0.9822887112	-1.3792045087	 2.3711744712	 0.130427
H	 0.5666216108	-1.4356649615	 3.2249903848	 0.112415
H	 1.767684099	-2.4445776766	 0.3853925064	 0.060348
H	-0.0752172186	-3.2459360234	-0.6595066399	 0.285476
181.3851	194.1388	209.873	217.4792	240.5472	241.8401	301.408	339.4338	388.7247	507.5607	555.1811	606.906	626.5947	719.9178	730.2806	750.6386	828.6077	875.1203	895.7632	911.661	916.0836	967.88	1038.7809	1054.0438	1077.0007	1091.6841	1103.8241	1135.7274	1154.9093	1192.6013	1194.805	1222.0477	1256.9513	1263.3128	1289.9906	1354.1351	1390.0197	1404.0103	1411.9268	1422.6408	1489.5984	1493.804	1496.2356	1501.397	1617.069	3022.1784	3027.1723	3029.4341	3076.7724	3084.3597	3087.5202	3107.1905	3108.5896	3116.3323	3209.5773	3236.7022	3825.5922
CC1C2C=CC1(C)C2O	C[C@H]1[C@H]2C=C[C@]1(C)[C@H]2O	
InChI=1S/C8H12O/c1-5-6-3-4-8(5,2)7(6)9/h3-7,9H,1-2H3	InChI=1S/C8H12O/c1-5-6-3-4-8(5,2)7(6)9/h3-7,9H,1-2H3/t5-,6+,7-,8-/m0/s1
