17
gdb 52218	4.69243	0.70917	0.68083	1.6417	73.22	-0.2631	-0.0413	0.2218	1617.3513	0.134552	-455.113026	-455.103735	-455.10279	-455.148825	31.975	
N	-0.5092990493	 1.0778932951	-0.3717804534	-0.436543
C	-0.4432180686	-0.1806239617	-0.3315432644	 0.126639
O	-0.7209492132	-0.8276146894	 0.8242162274	-0.183388
C	-0.7982877087	-2.2487319949	 0.7559197097	-0.108024
C	-2.1767270259	-2.6805085462	 0.3125498246	-0.013032
N	-2.4082143097	-2.7869964915	-1.1209787904	-0.331621
C	-2.4780410099	-4.017697239	-0.3069166775	-0.131539
C	-1.4212908072	-5.0364694219	-0.5753708994	 0.171177
O	-1.5286827687	-6.198304163	-0.2767565767	-0.249478
H	-0.240577318	 1.4086492104	-1.2962397413	 0.230711
H	-0.1643934092	-0.8532140164	-1.1524361206	 0.101634
H	-0.0307585175	-2.6451593902	 0.0815363437	 0.115389
H	-0.5912763946	-2.6064674918	 1.7680458711	 0.133772
H	-2.9754665112	-2.2716222654	 0.9292985772	 0.118527
H	-3.3412224665	-2.4753443685	-1.3750526698	 0.252707
H	-3.4474776694	-4.4473295552	-0.0665901925	 0.116252
H	-0.5202553123	-4.6391642605	-1.0913724979	 0.08682
48.0998	59.3983	84.9696	102.9024	193.312	262.077	325.4936	341.059	432.9526	444.8054	527.2191	648.3234	823.008	835.1974	850.0681	916.791	960.5171	979.2637	1012.7293	1027.698	1041.2261	1058.4632	1131.5817	1143.0161	1197.3404	1228.2715	1241.2112	1269.4888	1334.6324	1358.1171	1388.6443	1416.3336	1426.007	1474.6937	1491.7989	1745.6542	1826.1424	2899.5722	3040.3911	3048.2137	3104.8177	3129.9781	3151.5103	3517.938	3520.5579
N=COCC1NC1C=O	[NH][CH]OC[C@H]1N[C@H]1C=O	
InChI=1S/C5H8N2O2/c6-3-9-2-5-4(1-8)7-5/h1,3-7H,2H2	InChI=1S/C5H8N2O2/c6-3-9-2-5-4(1-8)7-5/h1,3-7H,2H2/t4-,5+/m0/s1
