20
gdb 120690	3.8011	0.85524	0.80744	3.1537	77.96	-0.2326	-0.0276	0.205	1496.6448	0.168605	-440.26542	-440.255311	-440.254367	-440.3017	35.923	
C	 0.0111084797	 1.4509145422	 0.5120319421	-0.487595
C	 0.0917940833	 0.0481200656	-0.0587698215	 0.387255
O	 1.0739744493	-0.3516246868	-0.6479959553	-0.318613
C	-1.1250456243	-0.8069212806	 0.1609791979	-0.109908
C	-1.4212680138	-1.8914698428	-0.8332724776	-0.245207
N	-1.0266164837	-2.2366068054	 0.5137448554	-0.104622
C	 0.2810039436	-2.8706417382	 0.7180452381	-0.144689
C	 0.0714584234	-4.3769100801	 0.8664816909	-0.063744
O	-0.5050679578	-4.96606368	-0.2880669972	-0.420421
H	 0.9200622696	 2.0028709012	 0.2720159533	 0.144255
H	-0.8616347902	 1.9772707218	 0.1081575704	 0.142298
H	-0.1219548143	 1.4089231352	 1.5994582295	 0.144906
H	-1.9556149986	-0.3051090363	 0.6519390696	 0.092251
H	-2.4566914734	-2.0864270696	-1.1030145088	 0.117149
H	-0.6890614966	-2.0170986799	-1.6280602964	 0.145092
H	 0.9847224305	-2.6596389959	-0.0941384408	 0.133565
H	 0.7113614237	-2.4795808467	 1.647825888	 0.097414
H	 1.0431709919	-4.8617196336	 1.0080609698	 0.10799
H	-0.5393152457	-4.5756213416	 1.75951604	 0.091463
H	-1.4134584365	-4.6524355684	-0.3372099372	 0.29116
35.3746	53.2738	110.7548	144.7713	162.3557	229.9624	253.7536	309.4451	373.0003	396.5147	414.0311	509.1183	594.2151	648.1424	732.1808	775.1507	870.8809	909.4698	921.9111	957.6013	1010.4836	1036.7857	1050.0031	1080.0278	1087.4554	1123.0911	1127.5746	1161.6219	1192.3377	1225.5563	1286.9176	1326.4388	1376.5318	1383.1832	1396.7712	1400.9688	1418.1497	1462.8578	1473.7197	1480.6785	1493.453	1503.2638	1791.9076	2996.2997	3032.7628	3033.1445	3076.2812	3088.3011	3091.9177	3095.4901	3131.6709	3156.4199	3189.523	3825.6905
CC(=O)C1CN1CCO	CC(=O)[C@H]1CN1CCO	
InChI=1S/C6H11NO2/c1-5(9)6-4-7(6)2-3-8/h6,8H,2-4H2,1H3	InChI=1S/C6H11NO2/c1-5(9)6-4-7(6)2-3-8/h6,8H,2-4H2,1H3/t6-,7?/m1/s1
