16
gdb 19089	4.27597	2.21138	1.73154	1.4087	63.8	-0.2393	0.0789	0.3182	767.3337	0.131538	-383.688388	-383.682283	-383.681339	-383.718301	25.017	
C	-0.0465857852	 1.578473243	 0.0878935294	-0.325273
C	 1.2681758048	 0.8438331814	 0.0963791799	 0.074466
O	 1.9673743849	 0.8184399501	 1.3132673484	-0.255012
C	 2.0688062158	-0.4780869119	 1.8415374166	 0.074467
C	 1.3547573938	-0.7352822122	 3.1424415806	-0.325273
C	 0.7781961996	-1.2492748656	 1.8494774957	 0.074467
O	-0.3202837754	-0.5485267882	 1.3273346382	-0.255011
C	-0.0224355447	 0.0726460493	 0.1043191933	 0.074468
H	-0.3308881893	 2.0638089459	 1.0143084116	 0.132422
H	-0.3525444135	 2.081125313	-0.8229808251	 0.114615
H	 1.8995181375	 0.8513139542	-0.7896838014	 0.092157
H	 3.0097703243	-0.9818236235	 1.630367722	 0.092157
H	 1.7851988318	-1.4484919105	 3.8367138097	 0.114615
H	 0.8501721936	 0.1137556171	 3.58870572	 0.132422
H	 0.7741079286	-2.3177180157	 1.6441257273	 0.092157
H	-0.3361505466	-0.4845714966	-0.7759356162	 0.092157
161.7216	287.2712	316.2612	457.8473	472.5659	495.6064	562.7642	725.6523	806.0013	809.4099	813.4905	835.1838	853.857	933.7403	999.2596	1010.2427	1025.3908	1069.4737	1076.4703	1086.1358	1113.5753	1115.0644	1129.3408	1143.3287	1158.2009	1189.1333	1210.5536	1244.8659	1311.9506	1368.2487	1389.4401	1401.6054	1456.0524	1471.1237	3113.4363	3118.079	3122.4175	3128.297	3140.8258	3141.6385	3236.1502	3236.6496
C1C2OC3CC3OC12	C1[C@H]2O[C@H]3C[C@H]3O[C@@H]12	
InChI=1S/C6H8O2/c1-3-4(1)8-6-2-5(6)7-3/h3-6H,1-2H2	InChI=1S/C6H8O2/c1-3-4(1)8-6-2-5(6)7-3/h3-6H,1-2H2/t3-,4+,5+,6-
