25
gdb 114547	2.4927	1.36729	1.07469	0.118	92.31	-0.2806	0.0851	0.3657	1280.4559	0.230498	-352.362965	-352.353908	-352.352964	-352.396196	36.451	
C	-0.0068407016	 1.5658059255	 0.0211620149	-0.381955
C	-0.0700597869	 0.0353980484	-0.0379170304	-0.208052
C	 0.7237379477	-0.5538410488	-1.2076414206	 0.030522
C	 2.279908431	-0.3797194089	-1.1128430392	-0.231383
C	 2.7106207234	-1.8481011057	-1.2855017719	-0.016938
C	 1.7317322941	-2.5844064499	-0.3311646618	-0.261487
C	 0.6641087892	-2.1008846769	-1.3662117819	 0.341559
C	-0.6937418536	-2.7543025419	-1.4935411485	-0.505498
C	 1.7812329577	-2.3234730667	-2.4351751642	-0.262086
H	 1.0224543803	 1.9215397832	 0.1364793683	 0.11729
H	-0.4081132436	 2.0117806435	-0.8959799405	 0.11185
H	-0.588667676	 1.9553208602	 0.8624681992	 0.10897
H	 0.2954115492	-0.3804811968	 0.9098315377	 0.09287
H	-1.120067461	-0.2724059024	-0.1212712101	 0.092955
H	 0.3472381677	-0.0927969891	-2.1309992621	 0.05758
H	 2.6847292775	 0.2718109526	-1.8929959486	 0.090565
H	 2.5911723759	 0.0268755614	-0.1444143427	 0.090627
H	 3.7806592762	-2.0588428083	-1.2856375058	 0.053289
H	 1.8578703323	-3.6702188422	-0.3526647278	 0.089069
H	 1.6575322536	-2.2404389857	 0.704963326	 0.084412
H	-1.2998823288	-2.6099610428	-0.5924493624	 0.116569
H	-1.2552549393	-2.3383235228	-2.3391064273	 0.111392
H	-0.5985787979	-3.8331064934	-1.6569973899	 0.109505
H	 1.7424617537	-1.7256714255	-3.3523041413	 0.080552
H	 1.915452899	-3.3804738869	-2.6808907891	 0.087822
99.2517	150.4041	175.6889	216.783	244.959	277.7361	317.2255	386.7659	423.1504	469.4708	531.9719	578.8676	679.5951	770.5433	812.2099	827.5048	849.841	871.4146	901.8601	934.746	943.5028	960.7266	986.1021	992.3768	1032.323	1033.8403	1065.1502	1079.7976	1103.6938	1121.3822	1156.3853	1173.0957	1196.8028	1211.2803	1247.9737	1264.1907	1268.7374	1288.1163	1295.4985	1319.6809	1331.7345	1355.3447	1394.2796	1410.0168	1414.1453	1483.113	1489.6753	1491.6007	1496.2838	1496.8917	1499.6241	1507.5474	1526.8356	3002.8149	3017.366	3021.2802	3029.7567	3037.7741	3039.6178	3048.1003	3052.5714	3083.4265	3084.0767	3091.6344	3096.3578	3100.2684	3101.606	3103.7252	3108.7345
CCC1CC2CC1(C)C2	CC[C@H]1C[C@H]2C[C@]1(C)C2	
InChI=1S/C9H16/c1-3-8-4-7-5-9(8,2)6-7/h7-8H,3-6H2,1-2H3	InChI=1S/C9H16/c1-3-8-4-7-5-9(8,2)6-7/h7-8H,3-6H2,1-2H3/t7-,8-,9+/m0/s1
