19
gdb 18698	3.01976	2.17856	1.39473	1.4516	77.37	-0.2263	0.0227	0.2489	932.5219	0.167693	-327.921419	-327.914019	-327.913075	-327.952807	28.996	
C	-0.0907879984	 1.5101339259	 0.083449519	-0.487406
C	-0.0040895096	 0.0123476777	-0.0011153713	 0.362333
C	-0.0290479395	-0.6688965502	-1.1500330817	-0.15105
C	 0.091263035	-2.1725456827	-1.2288950618	-0.254745
C	 0.9438246107	-2.750987836	-0.0821389101	-0.210004
C	 0.5785360424	-2.1370095396	 1.2642705382	-0.030412
N	 1.474345004	-1.0681935097	 1.7606504035	-0.33876
C	 0.1061224616	-0.7320686233	 1.2866834173	-0.130594
H	 0.8032682414	 1.9229458521	 0.5673871799	 0.133159
H	-0.1860372821	 1.9656749522	-0.9060781344	 0.117598
H	-0.9500649592	 1.8282294655	 0.6885744728	 0.115798
H	-0.1361143776	-0.1279814247	-2.0881732144	 0.077034
H	-0.9122318455	-2.624086686	-1.2163868871	 0.106284
H	 0.5287242296	-2.459794716	-2.1915724003	 0.100653
H	 0.8356488804	-3.840209769	-0.0451394096	 0.090101
H	 1.9987551272	-2.5354582551	-0.2776531678	 0.116666
H	 0.1605432477	-2.8120549909	 2.0070790065	 0.079623
H	 1.4824217408	-1.0769449317	 2.7787501828	 0.224265
H	-0.6160539891	-0.4469333486	 2.0510685486	 0.079459
110.8048	186.4465	207.7492	266.2441	327.2904	408.8332	439.6763	527.0071	587.5659	651.9926	777.6338	782.5504	849.8086	866.7557	908.0462	930.4657	932.7584	965.6895	1029.2599	1042.9704	1067.4388	1084.8524	1112.2075	1160.4477	1180.8338	1206.1246	1230.609	1249.4806	1280.1432	1330.4359	1350.851	1377.9674	1410.4481	1412.7532	1459.211	1475.7034	1478.5855	1485.6499	1493.3799	1732.2667	2994.4684	3014.0375	3040.9872	3057.131	3062.387	3088.9795	3106.192	3108.2282	3133.1557	3143.9428	3480.1267
CC1=CCCC2NC12	CC1=CCC[C@H]2N[C@@H]12	
InChI=1S/C7H11N/c1-5-3-2-4-6-7(5)8-6/h3,6-8H,2,4H2,1H3	InChI=1S/C7H11N/c1-5-3-2-4-6-7(5)8-6/h3,6-8H,2,4H2,1H3/t6-,7+/m1/s1
