13
gdb 43514	2.69321	1.47459	1.03978	1.3147	67.61	-0.2702	-0.0183	0.2519	1084.7812	0.089171	-452.76103	-452.753293	-452.752349	-452.79379	28.515	
N	-0.0625353565	 1.319397258	-0.0085312322	-0.567148
C	-0.0102792859	 0.062820896	-0.0008407377	 0.484425
N	-1.1220019751	-0.7722612547	-0.016486487	-0.37157
C	-0.8093392747	-2.1071007851	-0.0047086015	 0.428776
O	-1.5501210871	-3.0509632508	-0.0285883087	-0.341874
C	 0.740802819	-2.117239644	 0.0336725584	-0.206546
O	 1.1073703047	-0.7211915702	 0.0123889508	-0.237847
C	 1.2720775162	-2.793466836	 1.2031499057	 0.347325
C	 1.7027579111	-3.3585192848	 2.170339488	-0.441832
H	 0.8724936701	 1.7210396113	 0.0071343718	 0.239415
H	-2.0613393038	-0.4073943596	-0.0328513316	 0.291492
H	 1.1132160792	-2.5837921395	-0.8860471844	 0.157827
H	 2.0838354728	-3.8610588305	 3.0255056085	 0.217556
73.0458	133.5833	137.9344	247.5112	359.0269	413.1156	474.3624	544.2365	590.9091	639.2416	647.569	688.2678	695.5803	716.0647	723.5161	819.6329	893.0239	952.7508	994.9766	1053.9837	1088.1891	1220.9043	1272.4963	1323.5733	1362.6985	1400.4855	1808.5799	1882.2213	2248.7462	3046.1159	3500.8305	3531.2659	3657.1494
N=C1NC(=O)C(O1)C#C	[NH][C]1NC(=O)[C@@H](O1)C#C	
InChI=1S/C5H4N2O2/c1-2-3-4(8)7-5(6)9-3/h1,3H,(H2,6,7,8)	InChI=1S/C5H4N2O2/c1-2-3-4(8)7-5(6)9-3/h1,3H,(H2,6,7,8)/t3-/m0/s1
