20
gdb 36959	5.10868	0.68036	0.64411	2.8417	84.44	-0.2325	0.0204	0.2529	1792.4991	0.169613	-403.105538	-403.09632	-403.095376	-403.140987	33.73	
C	-0.418486943	 1.1218344263	 0.7103718524	-0.287448
C	 0.9985732316	 0.9285488172	 0.2101727383	-0.280318
C	-0.0149724105	-0.1475222235	 0.0092995635	 0.124392
O	 0.1792400796	-1.3155651005	 0.7702866033	-0.206451
C	-0.943302729	-2.0055412787	 1.0751010708	 0.123936
N	-0.8634047145	-3.0831050891	 1.7198790155	-0.230231
C	-2.0682657484	-3.7983410584	 2.022202843	 0.048675
C	-2.6427541309	-3.7502274798	 3.4094168792	-0.247462
C	-3.4220918654	-3.1594217075	 2.2512722486	-0.288936
H	-0.5757258455	 1.0624533641	 1.781323179	 0.129415
H	-1.0713256981	 1.8134504691	 0.189664284	 0.120407
H	 1.3328371723	 1.4878974023	-0.6556731236	 0.121582
H	 1.7628039441	 0.7336712694	 0.9532802903	 0.13752
H	-0.3888063143	-0.3360131379	-0.994334347	 0.104038
H	-1.8712610688	-1.5428986956	 0.7154411626	 0.086612
H	-2.0780319766	-4.7794290103	 1.5534098463	 0.09724
H	-2.9894579079	-4.672588016	 3.8620239333	 0.110811
H	-2.1855923743	-3.0511972785	 4.1014329247	 0.117132
H	-3.5051350333	-2.0790979177	 2.215292783	 0.107999
H	-4.3042612473	-3.680682505	 1.8954746229	 0.111087
41.797	55.4732	108.7538	127.0638	219.7227	260.1839	338.5564	425.0972	444.0458	508.182	565.2115	753.8116	772.385	807.9915	819.0888	826.4479	865.3132	938.4371	978.7622	981.6856	1000.6478	1030.2598	1052.7193	1057.0224	1072.3097	1076.9149	1127.1313	1134.0858	1157.3232	1190.4216	1193.8574	1195.4621	1214.3219	1229.6106	1262.6981	1371.8449	1394.1831	1408.8552	1455.869	1461.803	1496.6513	1497.9394	1766.1299	3036.8235	3130.8913	3131.5984	3133.2861	3138.7027	3139.9667	3147.88	3212.7439	3225.282	3227.7175	3240.4173
C1CC1OC=NC1CC1	C1CC1OC=NC1CC1	
InChI=1S/C7H11NO/c1-2-6(1)8-5-9-7-3-4-7/h5-7H,1-4H2	InChI=1S/C7H11NO/c1-2-6(1)8-5-9-7-3-4-7/h5-7H,1-4H2
