14
gdb 129717	2.38088	1.90302	1.05835	3.5461	70.48	-0.1999	-0.0318	0.1681	1032.5822	0.103052	-470.050877	-470.043135	-470.042191	-470.082745	29.777	
N	-0.0133164817	 1.3921683446	 0.1300863239	-0.583329
C	-0.0576961005	 0.030307562	 0.0494281993	 0.162416
C	-1.2030940487	-0.7254857803	 0.03149027	 0.260614
O	-2.4045706143	-0.0727350477	 0.0457162795	-0.453841
C	-1.1023613676	-2.1406223471	-0.0006663122	-0.080196
N	 0.0261508025	-2.7963036846	-0.023147466	-0.224189
N	 1.1321943357	-2.0308390408	-0.0187619683	-0.278184
C	 1.2293870974	-0.6505429231	 0.0056937546	 0.391051
O	 2.3088290151	-0.0673882336	-0.0167355091	-0.419243
H	 0.8914894613	 1.7834585079	-0.0914831367	 0.27256
H	-0.8276257397	 1.9087476144	-0.1581093707	 0.266103
H	-3.122073681	-0.7130901304	 0.0077999339	 0.303171
H	-2.0006322858	-2.7532032222	-0.0063803604	 0.109938
H	 2.0054851772	-2.5388312289	-0.0491378578	 0.273128
139.8608	211.7093	260.7742	271.6206	301.7262	335.6266	418.8595	490.4957	521.2512	538.7217	569.3108	583.5623	630.2219	703.194	722.9223	768.3291	873.4183	885.921	987.3359	1153.9878	1170.7731	1255.322	1291.2155	1362.7648	1394.4434	1424.3481	1456.5652	1576.224	1616.4879	1697.6053	1751.5546	3158.2517	3569.114	3606.733	3704.0921	3830.318
NC1=C(O)C=NNC1=O	Nc1c(O)cn[nH]c1=O	
InChI=1S/C4H5N3O2/c5-3-2(8)1-6-7-4(3)9/h1H,(H2,5,6)(H2,7,8,9)	InChI=1S/C4H5N3O2/c5-3-2(8)1-6-7-4(3)9/h1H,(H2,5,6)(H2,7,8,9)
