18
gdb 112491	2.79463	1.03747	0.87468	2.5523	80.25	-0.2421	-0.0312	0.2109	1384.1073	0.145121	-401.907562	-401.898079	-401.897135	-401.942561	34.418	
C	 0.0442489639	 1.4581791974	-0.2926567733	-0.38921
C	 0.0369664381	-0.0471213611	-0.0150750608	-0.168377
C	-1.3742307307	-0.6049521756	 0.1395134402	-0.088009
N	-2.1992731293	-0.628950898	-1.1029488558	-0.321453
C	-2.6155558696	-2.0507230387	-0.9139550813	-0.303775
C	-2.5007843966	-2.9275635421	-2.0607459343	 0.355434
C	-2.3913240855	-3.6754342432	-2.9950671121	-0.424899
C	-1.5340463991	-2.1299538536	 0.2115342174	 0.387079
O	-1.0244247497	-3.0114249202	 0.8266843964	-0.278745
H	 1.0655536295	 1.828962254	-0.4192098011	 0.119885
H	-0.5105773732	 1.6838981415	-1.2087155163	 0.129843
H	-0.4153737605	 2.0182737874	 0.5297683176	 0.111467
H	 0.5318150852	-0.5799861904	-0.8344381144	 0.112288
H	 0.595031278	-0.2740885667	 0.9011056613	 0.112249
H	-1.8760565124	-0.1322044337	 0.9997602172	 0.094585
H	-2.9770913341	 0.0200494554	-1.1086870807	 0.228501
H	-3.6084495328	-2.1655832924	-0.450276538	 0.121494
H	-2.2923176812	-4.3314706099	-3.8242987619	 0.201643
48.0122	85.1224	122.1288	153.0515	214.1393	241.3805	292.9937	357.5322	418.3553	501.4736	528.3386	606.2738	618.2269	641.8771	664.4838	761.4278	801.13	856.8111	912.9811	965.4924	988.6457	1020.1243	1061.7611	1086.2719	1096.1716	1144.4609	1156.9263	1254.5219	1268.4869	1309.2853	1351.5178	1368.5076	1390.5792	1406.3964	1476.8156	1497.0178	1508.5078	1922.8541	2237.3643	2971.5582	2977.099	3031.6009	3037.8761	3076.3411	3102.8767	3112.3727	3503.3698	3550.1055
CCC1NC(C#C)C1=O	CC[C@H]1N[C@@H](C#C)C1=O	
InChI=1S/C7H9NO/c1-3-5-7(9)6(4-2)8-5/h1,5-6,8H,4H2,2H3	InChI=1S/C7H9NO/c1-3-5-7(9)6(4-2)8-5/h1,5-6,8H,4H2,2H3/t5-,6+/m0/s1
