16
gdb 69146	2.72968	1.6743	1.31555	4.309	68.59	-0.2334	-0.0432	0.1902	987.219	0.124004	-437.8495	-437.842032	-437.841087	-437.881264	29.003	
C	-0.0716741417	 1.5108889213	-0.009545068	-0.503445
C	 0.0254164889	 0.0096751404	 0.0132599022	 0.289934
N	-0.7890460294	-0.8108265667	 0.9186167658	-0.340625
C	 0.6923017976	-0.7758323169	 1.0936460431	-0.227344
C	 1.4736579074	-1.9031425667	 0.4496234093	 0.44909
O	 2.3385169283	-2.5540794851	 0.978308487	-0.311191
C	 1.1632894357	-1.9009282243	-1.0416859398	-0.106423
O	-0.2274261857	-2.0422901081	-1.3666982575	-0.218953
C	 0.3046930376	-0.7295719589	-1.3060827955	 0.004731
H	 0.8013962655	 1.9560190264	-0.4990459427	 0.134477
H	-0.96397476	 1.8374276053	-0.5557537229	 0.137523
H	-0.1276340204	 1.915428962	 1.0057803353	 0.125149
H	-1.1879000641	-0.2064225273	 1.6368392284	 0.236043
H	 1.1100568526	-0.331259484	 1.9906221338	 0.108557
H	 1.8738573786	-2.342018325	-1.7348321283	 0.116605
H	 0.3325399091	-0.1750610423	-2.2407018703	 0.105872
118.9246	195.5658	206.2034	280.6024	309.7606	377.2939	444.9309	539.3978	568.4941	573.0061	711.0915	753.5661	825.2095	847.7516	862.0488	884.2013	925.4267	964.063	1016.051	1026.5276	1061.0943	1084.0549	1111.1775	1130.7541	1207.3983	1242.9055	1272.9046	1307.955	1332.7502	1392.8231	1416.5462	1437.7819	1482.9764	1498.4223	1839.9391	3028.3441	3092.2647	3105.6216	3147.3636	3165.2497	3175.1922	3468.0107
CC12NC1C(=O)C1OC21	C[C@]12N[C@H]1C(=O)[C@H]1O[C@@H]21	
InChI=1S/C6H7NO2/c1-6-4(7-6)2(8)3-5(6)9-3/h3-5,7H,1H3	InChI=1S/C6H7NO2/c1-6-4(7-6)2(8)3-5(6)9-3/h3-5,7H,1H3/t3-,4+,5-,6+/m1/s1
