20
gdb 90154	2.7908	1.59621	1.38906	3.035	77.84	-0.2325	0.0756	0.3081	1028.9328	0.172849	-403.09776	-403.090067	-403.089123	-403.12956	30.934	
C	-0.2568107262	 1.5058424808	-0.1517171923	-0.408503
C	-0.049458198	 0.0053297223	 0.0032994241	-0.039562
C	 1.0235124352	-0.6133663233	-0.9625504822	-0.31512
C	 1.8452322041	-1.0456362269	 0.2674883201	 0.197227
C	 3.2011866982	-0.6293923541	 0.7758169316	-0.126825
O	 2.9665031845	-0.1330766141	 2.1017897773	-0.261402
C	 1.6055167129	 0.3038860376	 2.2531522104	-0.135763
C	 0.8335935395	-0.4473017023	 1.1986413683	 0.187724
N	 1.0887104044	-1.8846266133	 1.1919062015	-0.372286
H	 0.6965508562	 2.0452973471	-0.1584198649	 0.120409
H	-0.7695516001	 1.7274451547	-1.0935071217	 0.119586
H	-0.8641973453	 1.9101295329	 0.6652707954	 0.121086
H	-1.0227217227	-0.4995840865	-0.0116417728	 0.070794
H	 0.7070501519	-1.4173983137	-1.6347563856	 0.09894
H	 1.5239586909	 0.1571516406	-1.5554208078	 0.109612
H	 3.9324552336	-1.4379335581	 0.8698939658	 0.113443
H	 3.6196585788	 0.151100291	 0.1201497543	 0.086741
H	 1.3184342546	 0.07508383	 3.2839025667	 0.113193
H	 1.5142882706	 1.3891008345	 2.0951362579	 0.091526
H	 0.3495440567	-2.4006810488	 0.719988914	 0.229182
125.2203	179.9844	230.4283	269.5592	316.882	363.4092	441.3944	467.1412	526.6307	623.872	654.3574	732.83	809.1225	844.2409	854.9613	897.2865	902.9779	948.7686	1002.6239	1011.2965	1040.6466	1051.8818	1072.3968	1084.6803	1112.0428	1151.3805	1192.2146	1215.1278	1221.8481	1242.9398	1262.5828	1270.7138	1290.1096	1353.6979	1378.794	1395.3349	1413.7121	1416.8151	1482.4411	1494.4912	1498.6235	1506.7356	1513.9121	2976.8853	2993.5281	3024.9027	3029.3014	3044.8314	3074.7721	3077.3335	3095.7206	3099.7348	3102.6789	3486.2282
CC1CC23COCC12N3	C[C@H]1C[C@@]23COC[C@@]12N3	
InChI=1S/C7H11NO/c1-5-2-6-3-9-4-7(5,6)8-6/h5,8H,2-4H2,1H3	InChI=1S/C7H11NO/c1-5-2-6-3-9-4-7(5,6)8-6/h5,8H,2-4H2,1H3/t5-,6+,7+/m0/s1
