16
gdb 21009	3.66254	1.76118	1.20759	0.4839	68.93	-0.2024	0.0289	0.2312	983.0556	0.130173	-379.943101	-379.934561	-379.933617	-379.97645	29.83	
C	-0.067613381	 1.4001408616	 0.0938412181	-0.319928
N	-0.0620640383	-0.0401787118	-0.0218088936	 0.05744
C	 0.0243451263	-0.778739289	-1.1635030629	-0.117049
C	 0.0972236852	-2.0944362042	-0.7587135478	 0.166963
O	 0.1798055022	-3.1740819665	-1.5880422996	-0.445164
C	 0.0544585117	-2.0611976581	 0.6544426589	 0.249488
C	 0.0874529066	-3.2156248456	 1.6044895092	-0.520498
N	-0.0371580109	-0.7997371063	 1.0853865042	-0.32156
H	 0.9434320923	 1.8164446772	 0.0139974457	 0.136782
H	-0.6927855923	 1.835148849	-0.6904321633	 0.135873
H	-0.4802857158	 1.6554949559	 1.0700582353	 0.156737
H	 0.0217739175	-0.332642923	-2.1441888235	 0.127495
H	 0.2121476547	-3.9698032085	-1.0486935759	 0.298121
H	 1.0063036016	-3.8068721619	 1.5016505037	 0.123045
H	 0.0412911512	-2.8459580412	 2.6308909523	 0.148818
H	-0.7597478113	-3.8971496175	 1.4549111593	 0.123437
65.4966	95.2422	154.5952	197.7725	238.1009	246.6269	296.0132	355.3398	512.0709	616.5815	631.861	643.8627	687.0962	760.5509	816.3472	1004.5757	1020.2624	1062.8889	1086.7761	1142.0375	1154.3446	1215.3955	1266.5226	1364.2593	1400.9805	1412.3126	1450.2848	1476.777	1484.6771	1490.5238	1497.2943	1511.805	1538.8654	1646.2247	3014.9337	3030.7841	3059.0191	3099.6816	3129.277	3155.3338	3269.6433	3836.3963
CN1C=C(O)C(C)=N1	Cn1cc(O)c(C)n1	
InChI=1S/C5H8N2O/c1-4-5(8)3-7(2)6-4/h3,8H,1-2H3	InChI=1S/C5H8N2O/c1-4-5(8)3-7(2)6-4/h3,8H,1-2H3
