17
gdb 9503	2.69499	1.82381	1.67222	1.0214	65.46	-0.2281	-0.0287	0.1994	887.7671	0.139923	-400.977996	-400.969276	-400.968332	-401.011316	31.263	
C	-0.0768100397	 1.7760765915	-0.0697889159	-0.447035
C	 0.0586001005	 0.26695511	 0.0426748675	 0.226288
N	 1.2440069506	-0.2996357613	-0.6823765961	-0.352732
C	 1.5820571254	-1.1606989382	 0.4811361478	-0.199659
C	 0.597758329	-0.3457698443	 1.363202697	 0.08045
O	 1.1834810354	 0.6414947285	 2.1809070887	-0.436055
C	-1.1899048626	-0.4468451798	-0.4467561036	 0.111099
O	-1.8052500257	-1.2927409861	 0.1526390322	-0.256653
H	 0.8612375912	 2.2495897437	 0.2222410237	 0.147641
H	-0.3059315965	 2.0607198206	-1.1028810018	 0.112727
H	-0.8766231	 2.1502451866	 0.5777100116	 0.125174
H	 1.0349382799	-0.7900150061	-1.5484955928	 0.217049
H	 1.297371515	-2.2149707692	 0.3799916479	 0.105286
H	 2.6349154505	-1.0918278835	 0.7731623294	 0.105157
H	-0.1453615289	-0.9391397351	 1.903586461	 0.094777
H	 1.4656164759	 0.223239733	 2.9997291238	 0.289048
H	-1.4794197101	-0.1573029902	-1.4860795504	 0.077437
59.0804	113.2079	182.0946	197.1442	234.8504	266.9114	301.8995	342.8713	407.8298	477.9587	595.5344	637.0213	729.6739	833.9411	903.3107	910.7861	944.4943	990.5179	1000.519	1061.8443	1115.3789	1132.9506	1183.5438	1188.9138	1223.7266	1234.7794	1302.2651	1320.0119	1372.5156	1400.561	1413.8691	1438.6652	1481.4126	1488.8057	1497.7504	1817.2353	2842.6819	3021.7609	3036.0478	3066.9133	3079.5297	3101.7597	3146.8517	3491.22	3828.4474
CC1(NCC1O)C=O	C[C@]1(NC[C@H]1O)C=O	
InChI=1S/C5H9NO2/c1-5(3-7)4(8)2-6-5/h3-4,6,8H,2H2,1H3	InChI=1S/C5H9NO2/c1-5(3-7)4(8)2-6-5/h3-4,6,8H,2H2,1H3/t4-,5+/m1/s1
