20
gdb 78247	2.01556	1.6666	1.37392	3.2752	78.95	-0.2311	-0.0268	0.2044	1080.9905	0.16948	-403.103972	-403.094836	-403.093891	-403.137627	34.01	
C	-1.4030880924	 0.2381879835	 0.1464905529	-0.418458
C	-0.5486703926	-0.9823103966	-0.1106148415	 0.036429
C	 0.3238320201	-1.2919761234	-1.2621322352	-0.073285
C	 1.1683646193	-0.1334363717	-1.802973598	-0.015293
C	 0.5434812343	 0.992618538	-2.6220051288	-0.428815
C	 1.6638434673	 0.0357604527	-0.3211149833	-0.080307
C	 1.5786914297	 1.3484926029	 0.4095290524	 0.153941
O	 0.9897962938	 1.5570236168	 1.4388167636	-0.247058
N	 0.8959627576	-1.1559990943	 0.1596197941	-0.156609
H	-0.9794093053	 1.1700557765	-0.2199965263	 0.124284
H	-2.3769868814	 0.0960919116	-0.3355812976	 0.11283
H	-1.5651789447	 0.3580631057	 1.2209744379	 0.142044
H	-1.0432525744	-1.8829088107	 0.2546471881	 0.101047
H	 0.286483523	-2.2613168635	-1.7519124294	 0.094254
H	 1.9949301722	-0.5511875421	-2.3846149684	 0.093609
H	-0.268525829	 1.5053838979	-2.1035900546	 0.129262
H	 1.2958684666	 1.7408856712	-2.8932496597	 0.120467
H	 0.1340840525	 0.5883948835	-3.5543481276	 0.125454
H	 2.7326509212	-0.218818449	-0.2740945328	 0.112897
H	 2.1813546624	 2.150920261	-0.0812582658	 0.073308
88.0864	137.5035	162.3572	183.7099	219.3827	240.8532	263.8165	296.7441	408.6113	470.9793	572.8951	662.1619	687.0671	707.4355	761.7944	813.5659	885.2997	909.8373	941.5474	990.3058	1020.1695	1064.4742	1081.6936	1095.9085	1117.8523	1133.2497	1161.4364	1164.9503	1226.3895	1270.5266	1286.4927	1347.4136	1368.9245	1383.5173	1412.3461	1417.7152	1424.9509	1452.9146	1483.5958	1494.7864	1502.2079	1502.4866	1827.9942	2837.2635	3003.9215	3038.4426	3044.5551	3061.7195	3095.4972	3102.2211	3110.1738	3134.6341	3145.2909	3173.6194
CC1C2C(C)C(C=O)N12	C[C@H]1[C@H]2[C@@H](C)[C@@H](C=O)N12	
InChI=1S/C7H11NO/c1-4-6(3-9)8-5(2)7(4)8/h3-7H,1-2H3	InChI=1S/C7H11NO/c1-4-6(3-9)8-5(2)7(4)8/h3-7H,1-2H3/t4-,5-,6+,7+,8?/m0/s1
