15
gdb 19777	3.21677	2.55993	1.73723	3.548	64.18	-0.2276	-0.0245	0.2031	755.7646	0.121137	-362.640975	-362.634953	-362.634009	-362.670938	24.325	
O	 0.0123628377	 0.0071302309	-0.0363691807	-0.328116
C	-0.0140902812	 1.212384701	 0.0052755326	 0.440968
C	-1.2545314708	 2.0695530189	-0.0149419101	-0.160222
C	-1.4514958193	 3.1656199691	 1.0254067307	-0.288439
C	-0.81671314	 3.5000370962	-0.2884806064	-0.041054
C	 0.7114733346	 3.4995258725	-0.3292098293	-0.045608
N	 1.3374094564	 3.1293166805	 0.950566658	-0.333867
C	 1.2043486268	 2.1118014434	-0.1295531253	-0.163794
H	-2.1358859711	 1.6201399293	-0.4558715205	 0.108151
H	-2.4809195356	 3.4711547767	 1.1761483648	 0.11767
H	-0.8270552379	 3.1687876801	 1.9083803612	 0.154473
H	-1.3396894386	 4.1192099638	-1.0068378461	 0.095127
H	 1.2183587585	 4.197817894	-0.9851837015	 0.096996
H	 2.3038179943	 3.4478396651	 0.9655688111	 0.240767
H	 2.0958343061	 1.6975321986	-0.5863021284	 0.106947
154.5348	237.3357	348.5189	433.8899	521.6595	567.0211	650.7648	722.6219	764.0497	800.8615	818.5965	863.4927	869.7318	917.2977	940.2135	956.5984	988.5417	1046.7198	1072.8424	1092.0159	1102.7013	1134.6601	1146.7958	1192.1314	1197.6462	1249.3965	1323.7683	1357.6212	1364.3931	1397.3427	1475.0123	1831.2325	3147.8584	3174.9382	3184.6245	3187.8372	3194.6084	3248.567	3494.7683
O=C1C2CC2C2NC12	O=C1[C@H]2C[C@H]2[C@H]2N[C@@H]12	
InChI=1S/C6H7NO/c8-6-3-1-2(3)4-5(6)7-4/h2-5,7H,1H2	InChI=1S/C6H7NO/c8-6-3-1-2(3)4-5(6)7-4/h2-5,7H,1H2/t2-,3+,4-,5-/m1/s1
