22
gdb 76654	2.66559	1.0698	0.93217	3.3972	83.51	-0.2358	0.0331	0.2688	1396.3101	0.192122	-404.377767	-404.366884	-404.36594	-404.414683	38.545	
C	 0.0919371348	 1.0597864203	-2.0332341677	-0.418749
C	-0.0203634228	-0.1457206447	-1.123490124	-0.062902
C	 1.1102388807	-0.6150489606	-0.2305150733	-0.002179
C	 2.4544222162	 0.0729283081	-0.1577104381	-0.408981
C	-0.1364284827	-0.0100632987	 0.3809375207	 0.012628
N	-0.0872387848	 1.2999891651	 0.9587062902	-0.318366
C	 0.3985885087	 1.5167008266	 2.2227823485	 0.40538
C	 0.1835902136	 2.9268532394	 2.7557794884	-0.489559
O	 0.9478173947	 0.6468774139	 2.8711915208	-0.367298
H	 0.6821168045	 1.8642273223	-1.5885283468	 0.120657
H	 0.569217526	 0.7871710664	-2.9805076989	 0.124595
H	-0.898432454	 1.4654043625	-2.2726195446	 0.113322
H	-0.6338096126	-0.9391016694	-1.5430089908	 0.086616
H	 1.1716068268	-1.6930380695	-0.1065832263	 0.087069
H	 2.3691306471	 1.1588156426	-0.2373679306	 0.11435
H	 2.9349272119	-0.1462411865	 0.7999751325	 0.141139
H	 3.1135653803	-0.2713172518	-0.9620598216	 0.108727
H	-0.8035213304	-0.6973989206	 0.8965213586	 0.09692
H	-0.6403208568	 2.0264037244	 0.5321255254	 0.242466
H	 0.0790426784	 3.6743893171	 1.9642413526	 0.115359
H	-0.7231691521	 2.9470057456	 3.3697455072	 0.147275
H	 1.0256765825	 3.1900265976	 3.3972703877	 0.151531
46.4279	54.3178	93.0228	112.278	162.1531	172.3091	225.326	229.5761	281.6234	382.9201	437.3412	462.0097	532.2653	550.5219	631.457	670.2058	756.7544	776.2655	878.6387	924.0033	958.9141	983.4396	1003.6375	1049.6331	1053.7059	1056.2878	1105.9608	1140.4868	1157.402	1184.9297	1192.228	1258.5104	1290.483	1375.0422	1381.0968	1392.2116	1414.1685	1422.2645	1449.9553	1467.7887	1487.5117	1489.2057	1493.1353	1503.8374	1513.2451	1515.3762	1787.5829	3029.3626	3040.5761	3045.1707	3084.7365	3104.3865	3111.2103	3113.9011	3116.5949	3124.5274	3134.45	3148.3597	3148.6126	3622.4202
CC1C(C)C1NC(C)=O	C[C@H]1[C@@H](C)[C@H]1NC(=O)C	
InChI=1S/C7H13NO/c1-4-5(2)7(4)8-6(3)9/h4-5,7H,1-3H3,(H,8,9)	InChI=1S/C7H13NO/c1-4-5(2)7(4)8-6(3)9/h4-5,7H,1-3H3,(H,8,9)/t4-,5+,7-
