23
gdb 60143	3.33475	0.95954	0.91001	1.2194	85.47	-0.243	0.0653	0.3083	1429.8782	0.205424	-388.260718	-388.25118	-388.250236	-388.29559	36.443	
C	 0.025016475	 1.5057683583	 0.1155501594	-0.402647
C	-0.0944296561	-0.0159795104	 0.2164800315	 0.143107
O	 0.2295875014	-0.4701994428	 1.5284729368	-0.424453
C	-1.471927572	-0.5214746664	-0.2428042269	-0.237379
C	-1.573871356	-2.0331650166	-0.2772604742	 0.020407
C	-1.8446869651	-2.9280123857	 0.9003479327	-0.039046
C	-2.8720055746	-2.3165179438	 1.8597084792	-0.22378
C	-3.8960026456	-2.2188066719	 0.6824923476	-0.227668
C	-2.8506882176	-2.8342914807	-0.2581959482	-0.095943
H	 1.0063902133	 1.8333384448	 0.4691370909	 0.122114
H	-0.1071612868	 1.8490478887	-0.9157420599	 0.113703
H	-0.7407940512	 1.9969630295	 0.729625652	 0.104211
H	 0.6749718867	-0.4733265824	-0.4193933231	 0.084636
H	-0.4040103125	-0.0765882457	 2.1384989777	 0.275445
H	-2.237728697	-0.0859799136	 0.4117917957	 0.087262
H	-1.673740317	-0.1220231851	-1.2460000994	 0.093299
H	-0.839138488	-2.4802177356	-0.9467788246	 0.079593
H	-1.168263528	-3.7346672457	 1.1563688748	 0.079878
H	-3.2006884501	-3.0185931029	 2.6289359337	 0.101952
H	-2.5807675885	-1.383383041	 2.3539643145	 0.07521
H	-4.7563475661	-2.8735300313	 0.837523613	 0.100869
H	-4.2689068545	-1.2231199105	 0.4193387669	 0.091923
H	-3.0708277798	-3.559896989	-1.0330489902	 0.077308
39.1725	83.8825	136.5587	227.0593	240.9637	256.5555	267.4708	341.7583	381.0269	458.3276	492.6821	556.5981	710.1586	764.3348	788.0938	795.9828	847.9318	889.7298	919.5475	943.4674	957.1186	958.1143	999.9157	1014.8484	1029.0736	1058.5176	1072.447	1095.7923	1122.1437	1125.675	1156.777	1187.5875	1220.8776	1234.5551	1246.5165	1263.3921	1301.9116	1307.8096	1334.0722	1353.4817	1379.7763	1402.1699	1421.0523	1456.394	1472.7891	1487.4809	1493.3842	1496.1663	1507.3616	3014.0512	3020.5183	3026.7531	3038.5301	3046.0513	3053.9706	3091.6525	3092.3128	3110.6264	3110.865	3117.3958	3167.1887	3182.9074	3799.4793
CC(O)CC1C2CCC12	C[C@@H](O)C[C@H]1[C@H]2CC[C@@H]12	
InChI=1S/C8H14O/c1-5(9)4-8-6-2-3-7(6)8/h5-9H,2-4H2,1H3	InChI=1S/C8H14O/c1-5(9)4-8-6-2-3-7(6)8/h5-9H,2-4H2,1H3/t5-,6-,7+,8-/m1/s1
