21
gdb 126315	2.71897	1.18661	0.89266	1.9383	87.5	-0.2191	0.0314	0.2504	1388.2228	0.182326	-383.31057	-383.300441	-383.299497	-383.346665	35.682	
C	-0.058917844	 1.5756935008	 0.1127256368	-0.364694
C	-0.0442002418	 0.0400217407	 0.0096284714	-0.304162
C	 0.6520652103	-0.4735390517	-1.2169948381	 0.12426
C	 0.0823192379	-0.8863241977	-2.4054424651	-0.125938
N	 1.0901061809	-1.2623929796	-3.2308861866	 0.057013
C	 1.0005301609	-1.7106357956	-4.601615125	-0.316757
N	 2.2986969486	-1.114149615	-2.6522515067	-0.336339
C	 2.0467959826	-0.6388406022	-1.4320682831	 0.285652
C	 3.1700538911	-0.3679066398	-0.48058739	-0.499532
H	 0.9578822874	 1.9805080581	 0.1303687491	 0.12047
H	-0.5747373457	 2.0184244598	-0.7451518366	 0.115718
H	-0.5684037402	 1.9041036077	 1.0247021088	 0.107717
H	 0.4377753235	-0.3722376531	 0.9051954249	 0.102082
H	-1.0760033322	-0.3300143928	 0.0254650381	 0.098455
H	-0.9503522877	-0.9492027677	-2.7143133472	 0.122566
H	 1.2581229951	-0.9074695366	-5.3006916818	 0.140082
H	 1.6910373188	-2.5424629605	-4.7545531528	 0.15131
H	-0.0189868194	-2.0453131543	-4.8035099965	 0.134368
H	 3.2591000474	 0.699449746	-0.2472235302	 0.126189
H	 3.0275309995	-0.8935185897	 0.470697521	 0.123649
H	 4.113841877	-0.699770207	-0.9185127005	 0.13789
49.4535	49.9447	111.3091	129.1206	183.7625	193.1939	262.799	274.7327	288.2545	405.9595	476.4152	601.9549	634.2421	645.1767	717.3585	766.8899	794.069	803.9355	966.3227	1011.0131	1025.9681	1061.5834	1067.5035	1084.6313	1087.7795	1149.129	1194.5762	1204.0062	1290.0562	1339.2287	1357.3264	1397.5367	1405.9487	1410.4047	1451.2474	1469.5439	1479.3541	1481.086	1485.1451	1490.7856	1496.7937	1503.5636	1511.009	1525.179	1606.4727	3021.3019	3028.2298	3033.0299	3038.319	3055.91	3075.7766	3102.928	3108.5928	3109.3715	3128.8134	3143.6688	3244.0549
CCC1=CN(C)N=C1C	CCc1cn(C)nc1C	
InChI=1S/C7H12N2/c1-4-7-5-9(3)8-6(7)2/h5H,4H2,1-3H3	InChI=1S/C7H12N2/c1-4-7-5-9(3)8-6(7)2/h5H,4H2,1-3H3
