18
gdb 93429	3.11849	1.25891	0.93944	2.7751	78.19	-0.2425	-0.0297	0.2128	1218.5058	0.149066	-439.094437	-439.086207	-439.085263	-439.127401	31.477	
O	 0.231154912	 1.4179734405	-0.1865860263	-0.429758
C	 0.1228602363	 0.0091593563	-0.0293760946	 0.087672
C	 0.2344388053	-0.3862536439	 1.4482885005	-0.115584
O	 0.7089818704	-1.7176023648	 1.6253314351	-0.256122
C	-0.0717847457	-2.7997120531	 1.3387323308	 0.343928
N	 0.2411932476	-3.9438622306	 1.8053645659	-0.507041
C	-1.2602168957	-2.715215938	 0.4724124731	-0.072683
C	-1.7267928157	-1.7527810737	-0.3320405082	-0.096997
C	-1.2286323564	-0.3698601646	-0.6177713547	-0.256675
H	 1.1376099927	 1.676486729	 0.0083203796	 0.287327
H	 0.92826199	-0.5139204397	-0.5672103158	 0.087084
H	 0.9878909143	 0.2406677742	 1.9341380267	 0.108289
H	-0.7185069485	-0.2349505911	 1.9709607832	 0.11849
H	 1.0784067495	-3.8587057434	 2.3857999875	 0.218301
H	-1.8019640619	-3.6546375443	 0.5017930337	 0.120652
H	-2.6378165706	-1.9984348356	-0.875006585	 0.106697
H	-1.9658377478	 0.3527410109	-0.2356401272	 0.131823
H	-1.2099048157	-0.2092485881	-1.7029216842	 0.124596
73.3636	116.5313	229.0806	309.035	319.8371	337.8448	348.3696	370.1182	451.784	495.4332	600.2288	633.585	746.7079	813.1057	827.9764	894.6958	908.2109	918.2499	957.7268	1034.7142	1051.5542	1071.347	1095.1399	1108.6877	1168.2685	1200.7967	1247.0649	1270.0223	1302.8332	1331.6308	1353.3942	1390.9718	1410.3489	1439.3942	1446.1021	1469.2688	1500.1956	1677.8971	1728.1943	2989.1981	3005.8467	3029.653	3049.5142	3089.9934	3141.3884	3192.7188	3464.8158	3819.5756
OC1COC(=N)C=CC1	O[C@H]1COC(=C[CH]C1)[NH]	
InChI=1S/C6H9NO2/c7-6-3-1-2-5(8)4-9-6/h1,3,5,7-8H,2,4H2	InChI=1S/C6H9NO2/c7-6-3-1-2-5(8)4-9-6/h1,3,5,7-8H,2,4H2/t5-/m1/s1
