25
gdb 119873	2.8283	0.94165	0.77334	0.2834	96.03	-0.2233	0.0347	0.258	1619.0193	0.229228	-352.38765	-352.377461	-352.376517	-352.423148	38.178	
C	 0.0815552127	 1.5543348411	 0.0500513885	-0.37882
C	 0.181740857	 0.0271049967	 0.0378295555	-0.158406
C	 0.5726516471	-0.5334828927	-1.3439421019	-0.305514
C	 0.6703942386	-2.0311732482	-1.3823928011	 0.352397
C	-0.1366145903	-2.8575993414	-2.0522713382	-0.185093
C	 0.1857485667	-4.3129379079	-1.8202779812	-0.254023
C	 1.579055725	-4.2457684774	-1.1511943905	-0.215311
C	 1.7021612841	-2.8116010749	-0.5725946357	-0.055677
C	 3.13005892	-2.2558068572	-0.6295839068	-0.403537
H	 1.0370843745	 2.0164216154	-0.2226933663	 0.113145
H	-0.6704536923	 1.9076334987	-0.6643681238	 0.113963
H	-0.1983740206	 1.9282622672	 1.0399330214	 0.110656
H	 0.9144590801	-0.2971577404	 0.7872742498	 0.099648
H	-0.777082333	-0.4119442436	 0.3399277368	 0.099227
H	-0.1624845824	-0.199775698	-2.0864614118	 0.095043
H	 1.5328699065	-0.0868009203	-1.6396457477	 0.098784
H	-0.9702728218	-2.5339974087	-2.6682672933	 0.077447
H	-0.5624933404	-4.7775014288	-1.1611672185	 0.100129
H	 0.1894949248	-4.9077097711	-2.7410903381	 0.097154
H	 1.7331860257	-5.0205903215	-0.3949951057	 0.090748
H	 2.3532261067	-4.3829834686	-1.9153184736	 0.097282
H	 1.3886059956	-2.8135452125	 0.4833451456	 0.073728
H	 3.4828371624	-2.1909619342	-1.6652224674	 0.113492
H	 3.1986174524	-1.2563324754	-0.1877190167	 0.11227
H	 3.8205886911	-2.9054897763	-0.0812673193	 0.111269
66.8675	82.6849	97.1252	133.2145	233.2501	246.248	264.4036	282.0659	314.5518	376.4777	392.874	551.6387	631.8986	687.7846	744.5732	770.6889	825.8998	856.0574	882.3995	895.9588	913.24	940.4015	972.9783	1013.8607	1038.8684	1049.7619	1086.1522	1099.5143	1111.1161	1128.1347	1177.4494	1209.2331	1240.2489	1252.0474	1283.1526	1305.51	1317.9412	1320.3637	1328.0714	1344.4401	1371.0909	1381.5627	1407.31	1412.9934	1478.184	1484.9701	1491.2402	1497.8815	1499.7041	1500.6796	1503.4688	1510.5721	1712.9597	2971.3691	2997.8336	3002.0778	3025.763	3026.2378	3028.9903	3033.9353	3042.4584	3051.2996	3063.8086	3089.045	3095.1003	3096.1136	3097.8857	3101.1924	3174.4579
CCCC1=CCCC1C	CCCC1=CCC[C@H]1C	
InChI=1S/C9H16/c1-3-5-9-7-4-6-8(9)2/h7-8H,3-6H2,1-2H3	InChI=1S/C9H16/c1-3-5-9-7-4-6-8(9)2/h7-8H,3-6H2,1-2H3/t8-/m1/s1
