18
gdb 9385	5.99053	0.8346	0.76739	5.8058	70.26	-0.2589	0.0211	0.28	1466.6629	0.153292	-381.120729	-381.111481	-381.110537	-381.155341	32.352	
C	-0.1767529261	 1.4880895292	 0.1906773009	-0.391276
C	-0.0385132908	-0.0250302147	 0.060226014	-0.112707
N	 0.8009661874	-0.5669246739	 1.1321424683	-0.309651
C	 1.0005396399	-2.0105642937	 1.0824015068	-0.168992
C	 1.5113685001	-2.4614943254	 2.4705110232	-0.013516
O	 0.6851549125	-1.9469472868	 3.4858719338	-0.420398
C	 1.5422134757	-3.9296248645	 2.5533499519	 0.284147
N	 1.5884899591	-5.0832768239	 2.5795556065	-0.317069
H	 0.7954289937	 1.9845125352	 0.09122457	 0.117263
H	-0.8306135115	 1.8831958551	-0.5917021296	 0.126203
H	-0.5960966839	 1.7568702615	 1.1644101146	 0.1302
H	-1.0236517557	-0.4994676404	 0.1413185698	 0.117607
H	 0.3514847172	-0.2800898359	-0.9402286784	 0.092301
H	 1.7015248921	-0.0949270982	 1.1215831206	 0.223598
H	 0.0290537947	-2.4824402829	 0.9034647949	 0.134645
H	 1.6892394822	-2.3514739495	 0.2941998405	 0.110731
H	 2.5519969909	-2.1111909997	 2.5931885258	 0.107771
H	 0.3906580526	-1.0934686115	 3.1226121563	 0.289144
57.7328	89.8802	97.6891	163.2246	202.45	254.4186	269.5312	336.3434	397.2534	489.1068	541.7266	589.7587	602.2688	805.1486	816.9358	879.4754	913.9315	970.3709	1037.8631	1044.7755	1118.8517	1137.9106	1155.4919	1164.6464	1261.8844	1302.825	1319.0049	1339.9063	1357.4617	1402.1745	1420.9268	1454.1417	1480.4028	1494.837	1496.551	1505.453	1524.3703	2366.6738	2943.4038	2955.6073	2990.0436	3035.8719	3051.6494	3084.0967	3104.2946	3123.4053	3493.8042	3641.8547
CCNCC(O)C#N	CCNC[C@@H](O)C#N	
InChI=1S/C5H10N2O/c1-2-7-4-5(8)3-6/h5,7-8H,2,4H2,1H3	InChI=1S/C5H10N2O/c1-2-7-4-5(8)3-6/h5,7-8H,2,4H2,1H3/t5-/m0/s1
