18
gdb 108903	3.40063	1.01915	0.87405	1.9718	73.79	-0.2441	-0.0307	0.2134	1359.0051	0.146754	-439.120608	-439.111521	-439.110577	-439.15577	31.696	
C	 0.0605024196	 1.6077138461	 0.262935678	-0.37105
C	 0.1493446351	 0.0889641997	 0.1213485381	-0.285922
C	 0.7614624311	-0.3614484974	-1.1666831029	 0.431462
N	 1.2121814729	 0.3855351538	-2.0960984795	-0.335035
C	 1.6710898872	-0.5194768985	-3.1617924555	-0.091403
C	 1.4643015126	-1.9420372562	-2.599755566	-0.129753
O	 0.8265695276	-1.7090362237	-1.3235858937	-0.255083
C	 0.874103612	-0.2318517164	-4.4316104517	 0.155449
O	 0.3495702493	-1.0753926751	-5.1109578307	-0.237745
H	 1.0516437127	 2.0643249683	 0.2092021422	 0.134107
H	-0.5429040257	 2.0406196259	-0.5385407876	 0.133435
H	-0.3934043735	 1.8726076134	 1.2217719658	 0.112703
H	 0.7347279645	-0.3510245422	 0.9385956238	 0.131369
H	-0.8424830575	-0.3745366982	 0.1951040858	 0.133434
H	 2.7227450089	-0.3044045398	-3.3997765564	 0.108857
H	 0.8022187544	-2.5396581816	-3.2304019766	 0.144675
H	 2.3971773383	-2.4831947285	-2.4251667337	 0.119572
H	 0.8097255905	 0.8481950205	-4.6799445793	 0.100927
51.6775	59.2405	108.0124	154.3942	186.7963	238.0685	267.8601	383.2628	434.7756	583.3851	628.4556	689.397	711.1113	802.3425	845.4838	930.9989	943.3886	982.2192	1023.3486	1044.0114	1078.182	1094.6675	1107.8661	1113.8087	1212.6341	1216.8055	1259.0372	1281.0748	1331.8597	1362.7258	1407.4591	1410.0761	1417.8259	1467.3248	1492.3984	1502.4201	1522.4373	1718.1083	1831.4441	2920.8299	3004.1576	3034.3958	3053.5764	3060.5355	3068.0984	3122.1127	3125.5185	3131.9502
CCC1=NC(CO1)C=O	CCC1=N[C@@H](CO1)C=O	
InChI=1S/C6H9NO2/c1-2-6-7-5(3-8)4-9-6/h3,5H,2,4H2,1H3	InChI=1S/C6H9NO2/c1-2-6-7-5(3-8)4-9-6/h3,5H,2,4H2,1H3/t5-/m1/s1
