18
gdb 46911	3.24344	1.36096	1.04635	4.2132	71.73	-0.2595	0.013	0.2725	1124.5236	0.150034	-439.092037	-439.08438	-439.083435	-439.124697	29.577	
O	 0.0573694966	 0.348675157	-1.005746876	-0.311479
C	 0.0373553218	 1.2740586309	-0.2391075749	 0.379955
C	-1.3233292074	 1.8635891373	 0.1743795863	-0.309588
C	-1.4735302109	 2.9138657411	 1.2837092797	-0.250395
C	-0.6937454808	 4.17355486	 0.972673773	-0.006991
N	 0.1323260477	 4.7435723352	 2.0491910814	-0.340749
C	 0.7846615525	 4.0768482843	 0.904378434	-0.048149
C	 1.4110493352	 2.7402128014	 1.2135803336	-0.080315
O	 1.2327303928	 1.7787155928	 0.1622632419	-0.226692
H	-1.7226626593	 2.2705952328	-0.7637445667	 0.141807
H	-1.945475814	 0.9901752637	 0.3905386259	 0.142019
H	-2.5392471115	 3.1454960137	 1.3903646517	 0.1074
H	-1.1535748874	 2.5199450616	 2.2515931268	 0.122826
H	-1.1698629382	 4.866811242	 0.2821762753	 0.092306
H	 0.201721641	 5.7523770018	 1.9459458705	 0.23816
H	 1.3079696459	 4.6914231133	 0.1765131332	 0.097812
H	 2.4962955024	 2.8237807562	 1.3096523818	 0.124998
H	 1.0239450336	 2.3556998452	 2.1603293725	 0.127075
48.1298	152.8925	261.3739	266.7382	340.4497	370.1454	451.0558	502.7783	525.6097	621.2573	675.9664	724.812	802.9698	824.5351	891.9801	939.1073	952.862	980.2782	1001.7714	1045.6861	1059.5451	1092.1683	1129.4973	1153.7121	1198.1552	1230.338	1244.0852	1256.5075	1281.0654	1287.1056	1352.2733	1365.8336	1393.7689	1421.1171	1453.925	1477.4918	1493.107	1520.9225	1823.3797	3036.6075	3047.2767	3068.7426	3089.6835	3098.6657	3114.5805	3128.221	3147.8003	3511.183
O=C1CCC2NC2CO1	O=C1CC[C@H]2N[C@H]2CO1	
InChI=1S/C6H9NO2/c8-6-2-1-4-5(7-4)3-9-6/h4-5,7H,1-3H2	InChI=1S/C6H9NO2/c8-6-2-1-4-5(7-4)3-9-6/h4-5,7H,1-3H2/t4-,5+/m1/s1
