21
gdb 80923	2.69589	1.41985	1.25288	1.8744	83.33	-0.2493	0.0903	0.3396	1132.6501	0.181525	-387.02305	-387.014313	-387.013369	-387.055794	34.287	
C	-0.1379491627	 1.5897974068	-0.0091258237	-0.445851
C	 0.0178988784	 0.076437893	 0.0114498396	 0.02248
C	 1.1789890003	-0.6362137594	-0.7636726338	-0.171526
C	 2.1543609432	-0.1743064974	 0.3654447346	-0.284668
C	 0.8642849758	-0.6452609114	 1.1277312125	 0.213598
C	 0.6213229184	-0.6744350861	 2.6112487403	-0.523358
C	 0.8849137974	-1.831957144	 0.1473771389	 0.525228
C	 0.1923444609	-3.1048629223	 0.0315601134	-0.323228
O	 1.6229015205	-3.020832508	 0.2740790093	-0.310342
H	 0.8008854405	 2.1295388145	 0.1342913305	 0.119934
H	-0.562116215	 1.9150910581	-0.9653931336	 0.118725
H	-0.8285620252	 1.9123065923	 0.7781639209	 0.118018
H	-0.9599248937	-0.393958016	-0.1505096283	 0.061657
H	 1.3570471019	-0.6398352655	-1.8388464026	 0.074421
H	 3.0458661491	-0.787703858	 0.5116905512	 0.110755
H	 2.397471355	 0.8875334874	 0.4111334063	 0.091356
H	 0.7076761002	 0.3257166895	 3.0491146007	 0.121406
H	-0.3812136473	-1.0538872175	 2.8391814026	 0.117499
H	 1.3482831171	-1.32405478	 3.110290454	 0.131265
H	-0.3893697655	-3.4965133069	 0.8650835413	 0.115483
H	-0.0829639593	-3.4964197092	-0.9467708141	 0.117148
163.7323	172.064	185.1206	190.7839	206.898	252.7262	340.2464	373.6196	462.122	471.3527	601.7218	636.8179	662.17	733.1151	794.3911	799.9131	883.1618	896.136	927.2884	991.3042	1010.3504	1019.9994	1030.1426	1089.0526	1090.5776	1110.314	1114.9157	1124.7386	1157.3179	1168.5059	1194.0817	1205.3988	1226.0241	1235.7365	1330.7467	1404.5177	1408.3253	1420.1187	1457.5547	1488.2229	1491.4769	1497.0651	1499.7893	1524.9726	1564.5259	3024.361	3027.2543	3035.7829	3076.2948	3081.9483	3088.9507	3092.3285	3098.7816	3118.7641	3119.1523	3141.4908	3166.1653
CC1C2CC1(C)C21CO1	C[C@H]1[C@H]2C[C@]1(C)[C@]12CO1	
InChI=1S/C8H12O/c1-5-6-3-7(5,2)8(6)4-9-8/h5-6H,3-4H2,1-2H3	InChI=1S/C8H12O/c1-5-6-3-7(5,2)8(6)4-9-8/h5-6H,3-4H2,1-2H3/t5-,6+,7-,8+/m0/s1
