22
gdb 12560	2.94602	1.79747	1.23767	1.1593	78.11	-0.2412	0.0815	0.3227	1057.9928	0.202113	-350.219273	-350.21099	-350.210045	-350.251743	32.062	
C	 0.0815318869	 1.5915779575	 0.0987441749	-0.393934
C	 0.0020323713	 0.0697311934	 0.0119859493	 0.138047
C	 0.6160895092	-0.4565850435	-1.2976428014	-0.185988
C	 0.178808673	-1.8637678323	-1.7606123308	-0.204514
C	-0.154733996	-2.8883742256	-0.6573782533	-0.190393
C	 0.7476031238	-2.8569172804	 0.5856595759	-0.198838
C	 0.4017360777	-1.7324306623	 1.5694348574	-0.060229
O	 0.7170753961	-0.4246106177	 1.1431179025	-0.255992
H	 1.1209157235	 1.922874165	 0.0038895977	 0.121349
H	-0.5039874644	 2.0581883634	-0.6989804995	 0.108851
H	-0.2990073783	 1.9370473748	 1.063349248	 0.117667
H	-1.0551882898	-0.2367991657	 0.088862738	 0.059977
H	 0.4018752536	 0.2538054164	-2.1047517766	 0.089972
H	 1.7015490694	-0.4281775321	-1.1475083891	 0.105154
H	-0.7002059237	-1.774636767	-2.410417127	 0.094899
H	 0.9738708068	-2.2696088676	-2.3977167457	 0.097001
H	-1.1916291381	-2.7449686208	-0.3251698	 0.093703
H	-0.1276151998	-3.8887073272	-1.1047952052	 0.091951
H	 0.6356604734	-3.8029461996	 1.1312290208	 0.092429
H	 1.8053557179	-2.7826667084	 0.3034844947	 0.10047
H	-0.671858501	-1.8006846697	 1.8218418906	 0.078708
H	 0.9646120281	-1.8703085805	 2.4990337188	 0.099709
84.7452	141.2243	210.7809	224.0801	309.3097	333.8365	353.2442	371.6809	470.8616	520.4683	567.4693	752.1149	765.1645	833.6999	844.6048	895.5089	945.4297	950.739	978.781	1026.2844	1055.8164	1083.8957	1119.2384	1138.146	1151.1652	1161.9277	1215.1949	1234.7684	1270.2037	1298.2398	1319.2201	1330.1896	1371.5437	1376.4537	1380.2898	1391.7063	1404.4477	1409.3612	1424.6513	1472.3633	1479.0748	1485.3916	1488.3665	1495.0194	1500.9207	1506.5663	2943.5096	2956.6447	3013.069	3018.6304	3021.0925	3033.4228	3041.0301	3045.9604	3059.7999	3061.8984	3066.6383	3076.9832	3111.8912	3122.3937
CC1CCCCCO1	C[C@H]1CCCCCO1	
InChI=1S/C7H14O/c1-7-5-3-2-4-6-8-7/h7H,2-6H2,1H3	InChI=1S/C7H14O/c1-7-5-3-2-4-6-8-7/h7H,2-6H2,1H3/t7-/m0/s1
