23
gdb 116309	2.15871	1.17163	0.82837	2.331	81.46	-0.2621	0.076	0.3381	1436.1867	0.206426	-425.427782	-425.417778	-425.416834	-425.463296	36.984	
O	-0.0526799511	 1.4743580202	-0.2946862792	-0.421582
C	 0.0759416228	 0.0582172869	-0.3074981673	-0.093162
C	-1.2897256013	-0.5295973691	 0.0510307937	 0.001418
C	-2.3748830795	-0.1119035063	-0.9910775007	-0.208523
C	-2.9103579965	-1.4205634739	-1.6221226464	-0.212156
C	-1.8113748514	-2.4582084781	-1.3540402974	-0.198872
C	-1.328603501	-2.0854102614	 0.0576387375	 0.039622
C	-0.0597848614	-2.794747849	 0.5098034759	-0.117145
O	-0.3497269631	-4.1858529737	 0.5766737545	-0.426142
H	 0.7859923708	 1.8547411791	-0.5708418822	 0.284325
H	 0.3946262607	-0.2980644376	-1.3011187525	 0.082784
H	 0.8367557967	-0.2656360224	 0.4194770196	 0.083293
H	-1.538678618	-0.1418125311	 1.0444228089	 0.074033
H	-3.1740260251	 0.4737097495	-0.5297340275	 0.097152
H	-1.922457624	 0.5364361284	-1.7467145135	 0.106668
H	-3.8340933022	-1.7334533084	-1.1211560408	 0.095511
H	-3.1482379762	-1.3088211321	-2.6838897971	 0.089224
H	-2.1555489052	-3.4925653087	-1.4183608768	 0.106629
H	-0.989087543	-2.3423984473	-2.073759432	 0.085397
H	-2.1151305814	-2.390017024	 0.7611254755	 0.081401
H	 0.7617887153	-2.6019272506	-0.1987949266	 0.081614
H	 0.2575149296	-2.4119912295	 1.4938728871	 0.084015
H	 0.4528249745	-4.6479490206	 0.8352035274	 0.284493
38.9143	103.8606	146.9183	157.6546	196.3681	234.8592	266.3217	271.6475	328.3735	369.9982	451.7991	490.5231	581.2626	678.3472	792.4533	826.5436	853.4925	891.6712	915.8049	967.15	1004.0216	1016.631	1035.4683	1056.5233	1075.0066	1083.9569	1099.1278	1151.0979	1184.1087	1204.493	1228.2499	1235.4253	1251.3502	1272.0726	1279.2795	1297.4007	1314.9966	1333.0371	1337.6895	1345.1634	1371.3561	1390.3346	1455.3626	1461.0186	1492.3397	1495.2446	1510.424	1518.7736	1526.273	2954.1524	2961.3727	2984.3961	2991.8035	3009.3025	3021.893	3034.8755	3049.0015	3061.6948	3081.7356	3101.7046	3107.6225	3829.8556	3830.9706
OCC1CCCC1CO	OC[C@H]1CCC[C@H]1CO	
InChI=1S/C7H14O2/c8-4-6-2-1-3-7(6)5-9/h6-9H,1-5H2	InChI=1S/C7H14O2/c8-4-6-2-1-3-7(6)5-9/h6-9H,1-5H2/t6-,7+
