27
gdb 100683	2.69897	0.93366	0.85415	1.3531	92.04	-0.2581	0.0692	0.3273	1582.3077	0.249041	-390.704637	-390.692605	-390.691661	-390.741214	45.104	
C	-0.139713625	 1.6641736692	-0.0163268767	-0.375405
C	 0.0012095288	 0.1394707923	 0.047309171	-0.218638
C	-1.3528238541	-0.5813569125	-0.0418068821	 0.128653
O	-2.0367961806	-0.2031144209	-1.2392166822	-0.440058
C	-1.317432527	-2.1357912516	 0.1265379014	 0.26884
C	-0.6025921622	-2.7940738307	-1.0691889143	-0.441323
C	-0.5856526464	-2.5041528548	 1.4305047482	-0.427002
C	-2.7974538589	-2.6030304566	 0.2036680235	-0.185247
C	-3.0517023306	-4.1144985976	 0.1885923411	-0.407369
H	 0.8396403879	 2.1516546597	 0.008865367	 0.106283
H	-0.6561507401	 1.9711035066	-0.9290910503	 0.124929
H	-0.7216877662	 2.0392453273	 0.8329270064	 0.113525
H	 0.6526420887	-0.2029406803	-0.768985008	 0.087101
H	 0.5056739013	-0.1398086827	 0.9775017461	 0.102209
H	-1.9931784315	-0.1910388962	 0.7614010124	 0.077984
H	-1.4622988797	-0.4177486796	-1.9820126388	 0.277653
H	 0.4143815491	-2.4084590002	-1.1952264018	 0.110007
H	-0.5180248379	-3.8750364955	-0.928074922	 0.119358
H	-1.1498123637	-2.6325992151	-2.0044686351	 0.106937
H	-0.982007603	-1.9389432355	 2.2822135865	 0.108837
H	-0.7051835045	-3.5676748915	 1.65727817	 0.112866
H	 0.4888934593	-2.3093551117	 1.3682014896	 0.112378
H	-3.2342254433	-2.1806665995	 1.1189767974	 0.084831
H	-3.3354752646	-2.1408496819	-0.6296669428	 0.112402
H	-4.1219932984	-4.314892454	 0.3020247999	 0.112492
H	-2.7351583483	-4.5752415145	-0.7521356791	 0.115169
H	-2.5382695692	-4.6354791319	 1.0035249328	 0.112588
69.8436	84.6384	102.226	162.8264	209.8675	218.6183	249.2128	257.7504	276.9821	296.3402	324.3876	325.5601	345.5128	361.6654	380.1087	461.5278	508.1096	582.6423	735.5389	783.7764	788.4718	835.2309	920.6039	938.0964	950.3304	985.1119	1000.5944	1028.093	1040.1633	1066.5677	1075.4852	1100.8584	1124.2704	1200.1117	1226.4151	1246.8814	1262.4315	1309.2255	1334.7302	1342.6823	1366.778	1386.6203	1398.089	1406.7162	1411.4968	1420.0718	1425.3082	1482.2562	1486.6992	1488.1608	1493.4789	1495.5456	1507.3886	1508.6708	1510.9212	1515.2977	1518.2394	3005.6078	3013.6242	3021.1097	3029.4935	3034.2385	3037.2595	3037.9944	3077.0749	3077.1078	3095.9745	3097.2458	3099.2008	3100.8771	3103.5042	3108.9781	3110.7982	3124.9896	3806.0538
CCC(O)C(C)(C)CC	CC[C@@H](O)C(C)(C)CC	
InChI=1S/C8H18O/c1-5-7(9)8(3,4)6-2/h7,9H,5-6H2,1-4H3	InChI=1S/C8H18O/c1-5-7(9)8(3,4)6-2/h7,9H,5-6H2,1-4H3/t7-/m1/s1
