15
gdb 127323	3.29643	1.74302	1.1486	3.7406	73.63	-0.2133	0.0019	0.2152	1000.4651	0.114879	-416.807058	-416.799854	-416.79891	-416.839107	26.915	
C	 0.001715068	 1.4535410063	 0.0489417302	-0.349606
N	-0.0361322587	 0.0056431629	 0.0086966139	-0.161034
C	-0.0337623049	-0.806774465	-1.1359351298	-0.070638
C	 0.0129771693	-2.1331707049	-0.7860930989	-0.364407
C	 0.0498279144	-2.1644870937	 0.6467053996	 0.163288
C	 0.0248837634	-0.8488786301	 1.0562823196	 0.489046
O	 0.0517728199	-0.6895310937	 2.3760115497	-0.26273
N	 0.0942700484	-2.0178126789	 2.9210872361	-0.157023
C	 0.0912254869	-2.8414164418	 1.8951834755	-0.1118
H	 1.0291428504	 1.8337642815	 0.0282919852	 0.147072
H	-0.5415713346	 1.8541210194	-0.8095519549	 0.146293
H	-0.4832561048	 1.8033988263	 0.9627506353	 0.160449
H	-0.0726080955	-0.3421615808	-2.1087508787	 0.12655
H	 0.0094138296	-2.9625142514	-1.475138179	 0.111827
H	 0.1206979482	-3.9005854163	 2.1125725563	 0.132713
70.9645	136.676	227.5264	244.8374	338.282	519.6498	586.2611	600.8446	618.4343	687.1446	691.2063	756.6504	802.5903	808.8309	818.8681	902.6513	958.0894	1025.514	1105.6256	1130.3854	1152.1239	1206.0903	1255.0155	1275.431	1348.3332	1440.0404	1455.3782	1475.754	1488.6709	1512.6699	1534.0324	1584.0237	1625.1382	3036.7363	3108.016	3140.738	3234.787	3251.7905	3270.1721
CN1C=CC2=C1ON=C2	Cn1ccc2c1onc2	
InChI=1S/C6H6N2O/c1-8-3-2-5-4-7-9-6(5)8/h2-4H,1H3	InChI=1S/C6H6N2O/c1-8-3-2-5-4-7-9-6(5)8/h2-4H,1H3
