15
gdb 34267	4.26425	1.36354	1.23812	5.8585	70.39	-0.2325	-0.0044	0.228	993.0932	0.114631	-416.761749	-416.755027	-416.754083	-416.792853	26.552	
N	 0.0273730302	-1.0918618728	-0.0774405183	-0.343748
C	-0.0071764563	 0.0643446131	-0.0429862334	 0.197279
C	-0.0050986206	 1.4900810428	-0.0088476277	 0.391087
O	-1.079748659	 2.1936655964	 0.6064707158	-0.330859
C	-0.7782040295	 3.3536628495	-0.2440741881	 0.055065
C	 0.0802961845	 4.2982553575	 0.5902811961	-0.158405
N	 1.2552318298	 3.458206412	 0.9292080414	-0.298616
C	 1.2574157671	 2.3660336602	-0.0205224836	-0.1024
C	 0.2141729862	 2.5238883439	-1.0936354803	-0.223061
H	-1.6755739393	 3.7713204781	-0.6977361555	 0.103079
H	 0.3450609415	 5.1947426968	 0.0099566734	 0.099203
H	-0.4520205106	 4.6078733026	 1.4945481234	 0.13074
H	 2.1196998225	 3.9809534612	 0.8620521646	 0.233428
H	 2.200712835	 1.8730684946	-0.2194914509	 0.125235
H	 0.2983903086	 2.4332588842	-2.1672741768	 0.121973
135.3961	157.0188	252.2166	396.4831	441.9538	496.1508	539.7856	590.509	669.322	725.6563	771.7777	832.0102	857.8429	880.0739	907.3951	914.9254	948.0873	989.6267	1022.5243	1036.5839	1052.0531	1099.7363	1134.8684	1188.6174	1227.5533	1243.7002	1279.3579	1303.727	1323.5168	1417.1666	1443.0829	1496.6191	2347.1244	2997.2979	3083.9984	3136.6596	3204.8099	3216.3492	3555.5773
N#CC12OC3CNC1C23	N#C[C@@]12O[C@H]3CN[C@@H]1[C@@H]23	
InChI=1S/C6H6N2O/c7-2-6-4-3(9-6)1-8-5(4)6/h3-5,8H,1H2	InChI=1S/C6H6N2O/c7-2-6-4-3(9-6)1-8-5(4)6/h3-5,8H,1H2/t3-,4-,5+,6-/m0/s1
