16
gdb 126329	1.97279	1.75344	0.99322	6.2308	77.17	-0.2622	-0.0275	0.2347	1165.7132	0.126377	-396.974364	-396.966077	-396.965133	-397.008001	29.962	
C	 0.0364888007	 1.5442801447	-0.1494104673	-0.375914
C	-0.0072855938	 0.0204552936	 0.0610273545	-0.317913
C	-1.3993504212	-0.5373086333	 0.0620100452	 0.139271
C	-2.1551319161	-0.9710979772	 1.1298873219	-0.109383
N	-3.3557795366	-1.3663100976	 0.6307326463	-0.183772
N	-3.4565299004	-1.2305694046	-0.6920999111	-0.277446
C	-2.2694254147	-0.7240959586	-1.0494207403	 0.183881
C	-1.9755200594	-0.4347425296	-2.4109088214	 0.244048
N	-1.6809796697	-0.1794224455	-3.500895627	-0.352659
H	 1.0698836444	 1.9033543372	-0.1402112909	 0.119155
H	-0.4079008598	 1.8194249369	-1.1101273551	 0.142884
H	-0.5144166596	 2.0652836754	 0.6396483472	 0.118053
H	 0.5758449698	-0.4668179204	-0.7289728249	 0.12745
H	 0.4804744836	-0.2351667141	 1.0078089203	 0.1068
H	-1.9300231967	-1.0299869404	 2.1830543621	 0.148177
H	-4.1403598506	-1.7424646665	 1.1373798705	 0.287369
47.08	126.4922	161.4072	182.0206	230.64	331.3275	389.7598	526.5836	550.9057	569.6353	597.859	670.6223	687.6364	758.2462	788.8618	807.9739	956.9664	968.8633	1064.2271	1085.9828	1099.1265	1159.6027	1245.2893	1279.9924	1324.5777	1360.6623	1386.3219	1411.4471	1451.2303	1484.5506	1497.6488	1500.0543	1508.3686	1593.4045	2351.9091	3037.1104	3041.4202	3073.5223	3113.6212	3121.1655	3263.7715	3665.1595
CCC1=CNN=C1C#N	CCc1c[nH]nc1C#N	
InChI=1S/C6H7N3/c1-2-5-4-8-9-6(5)3-7/h4H,2H2,1H3,(H,8,9)	InChI=1S/C6H7N3/c1-2-5-4-8-9-6(5)3-7/h4H,2H2,1H3,(H,8,9)
