19
gdb 114283	3.1201	1.24138	1.1203	1.1932	77.61	-0.2276	0.0085	0.2361	1155.0807	0.159773	-422.986239	-422.97798	-422.977036	-423.019262	31.318	
O	-0.0086719382	 1.3398109356	-0.3448310576	-0.427593
C	 0.0028735556	-0.0110797999	 0.1016865763	-0.072151
C	-1.4230417703	-0.5207065018	 0.0598538891	-0.0463
C	-1.9962249227	-0.6970996548	-1.4036895021	-0.322899
C	-1.5934172417	-2.1486367493	-1.2560224047	 0.231931
C	-0.7344310974	-3.0603945027	-1.6955614863	-0.238991
C	-0.1600788619	-3.7680537788	-0.4747753559	-0.107129
O	-0.502335968	-2.9325278669	 0.6515604504	-0.280246
C	-1.5590048161	-2.0874944301	 0.2351450548	 0.073909
H	 0.8964362005	 1.6642984403	-0.334385689	 0.285891
H	 0.6410639202	-0.637519064	-0.5390182929	 0.089914
H	 0.3889722245	-0.0932854426	 1.1287576784	 0.096775
H	-2.0514846667	 0.073478712	 0.7279616692	 0.079918
H	-3.0764286777	-0.5304118	-1.4350764297	 0.113456
H	-1.5192646928	-0.1191335681	-2.1965410383	 0.125904
H	-0.3569708162	-3.2132892015	-2.6986574693	 0.10307
H	-0.5605435935	-4.783077754	-0.3204457724	 0.104237
H	 0.9329474039	-3.8501825366	-0.5298897189	 0.110536
H	-2.4874640515	-2.3377959368	 0.7674309489	 0.079767
88.0767	120.4142	167.4598	218.8413	262.7521	289.3996	351.0585	423.474	528.3334	657.0946	732.1051	756.9141	791.6444	824.0193	844.3643	889.5088	925.9561	954.2618	972.6118	1027.5415	1034.4007	1047.9309	1074.3266	1111.2492	1137.2824	1147.9861	1165.6271	1195.776	1224.9877	1238.1141	1259.6119	1266.416	1306.3225	1338.0005	1354.8611	1378.562	1462.2212	1481.5207	1516.3392	1517.8088	1726.2434	2971.5712	2984.5707	2999.2861	3015.1199	3034.833	3063.8027	3080.68	3128.311	3213.8269	3828.7364
OCC1CC2=CCOC12	OC[C@H]1C[C]2[CH]CO[C@@H]12	
InChI=1S/C7H10O2/c8-4-6-3-5-1-2-9-7(5)6/h1,6-8H,2-4H2	InChI=1S/C7H10O2/c8-4-6-3-5-1-2-9-7(5)6/h1,6-8H,2-4H2/t6-,7-/m1/s1
