19
gdb 35433	3.70915	1.21802	1.10604	4.0394	79.24	-0.2254	0.0325	0.2579	1132.7736	0.163114	-382.05893	-382.051553	-382.050609	-382.090905	29.313	
N	-0.0080177791	-1.1584510398	-0.0830401404	-0.325226
C	-0.0638745284	-0.0034068391	-0.106265531	 0.25223
C	-0.105297868	 1.4535528656	-0.1223477636	-0.155734
C	-0.8917116533	 2.0341323229	 1.0971320551	-0.222205
C	-0.3600460821	 3.4309177332	 1.4501936053	-0.029833
C	 0.1657047721	 4.1472313578	 0.1802611977	-0.184208
N	 1.4674204683	 3.4000864143	 0.3386234098	-0.104503
C	 1.1369142618	 3.3087249673	 1.8053932808	-0.170964
C	 1.3452391344	 2.0636455788	-0.2472501422	-0.184941
H	-0.6512877707	 1.7379305674	-1.0274789378	 0.13187
H	-1.9560004275	 2.0667422442	 0.8437307657	 0.114883
H	-0.7918408156	 1.375792805	 1.9660868336	 0.12546
H	-1.0318155192	 3.9617867294	 2.1298907433	 0.072883
H	-0.3518960147	 4.0075866718	-0.7732175526	 0.103716
H	 0.3400462612	 5.2156020079	 0.3344143278	 0.112337
H	 1.539151869	 4.181009596	 2.3291517131	 0.109078
H	 1.4795028584	 2.3956902558	 2.3027622404	 0.104801
H	 2.0744885918	 1.4118386622	 0.2416854395	 0.130719
H	 1.6099197114	 2.1071436494	-1.3083964546	 0.119634
76.4768	157.019	272.7958	309.096	373.1494	426.8044	476.3094	526.8983	545.219	574.875	761.5412	806.0732	854.4848	870.8152	884.8807	902.1407	944.7056	973.1549	1001.8865	1005.4596	1035.6288	1095.8433	1109.4729	1120.9885	1129.601	1183.2902	1257.9507	1263.9423	1268.8056	1289.8398	1296.9103	1321.3512	1332.5162	1343.8701	1355.0874	1386.5416	1491.6278	1493.9668	1501.0514	1525.6422	2349.6231	3039.253	3045.3427	3048.1412	3048.8361	3056.4089	3073.0748	3089.5919	3094.8061	3101.5815	3104.4262
N#CC1CC2CN(C2)C1	N#C[C@H]1C[C@@H]2CN(C2)C1	
InChI=1S/C7H10N2/c8-2-6-1-7-4-9(3-6)5-7/h6-7H,1,3-5H2	InChI=1S/C7H10N2/c8-2-6-1-7-4-9(3-6)5-7/h6-7H,1,3-5H2/t6-/m1/s1
