15
gdb 33956	3.34023	1.46287	1.28907	3.8842	69.16	-0.2563	0.0042	0.2606	980.3079	0.113921	-416.772052	-416.765179	-416.764235	-416.803299	26.931	
N	 0.1425576648	-1.1204089709	 0.1042140121	-0.332888
C	 0.0894285595	 0.0331972217	 0.0503735105	 0.218503
C	-0.0255361139	 1.4677637823	-0.0071230071	 0.161398
C	 0.2653432732	 2.2468387687	-1.2531525525	-0.264661
N	 1.2160838578	 2.2797564546	-0.1461632927	-0.133926
C	 1.1163033154	 3.4175193225	 0.8000655313	-0.20358
C	-0.2275027984	 3.3352454602	 1.5044782058	 0.03739
O	-1.3560060245	 3.4464088282	 0.6237211955	-0.245341
C	-0.9299537851	 2.141695035	 1.0116495081	-0.033623
H	 0.6220828289	 1.7181730946	-2.1320940099	 0.139856
H	-0.3774078894	 3.1028170802	-1.430822614	 0.150593
H	 1.9229945878	 3.316224531	 1.5337213529	 0.131399
H	 1.2548583436	 4.3641082213	 0.268783653	 0.134376
H	-0.3639540647	 3.7499853889	 2.5003561396	 0.116375
H	-1.629840635	 1.5470606518	 1.5894692774	 0.12413
138.528	155.5789	279.0007	324.6762	419.1895	477.5102	515.2966	544.4719	594.9261	727.7427	750.181	807.7251	812.1152	865.9158	912.714	937.2417	956.9596	976.9093	1053.2968	1073.2896	1110.3834	1143.4666	1160.6333	1210.0413	1236.1048	1260.2942	1300.4867	1337.6983	1347.9076	1425.3863	1480.4889	1494.5437	2358.3917	3051.4287	3097.6134	3120.6699	3147.2869	3179.2726	3220.1697
N#CC12CN1CC1OC21	N#C[C@]12CN1C[C@H]1O[C@@H]21	
InChI=1S/C6H6N2O/c7-2-6-3-8(6)1-4-5(6)9-4/h4-5H,1,3H2	InChI=1S/C6H6N2O/c7-2-6-3-8(6)1-4-5(6)9-4/h4-5H,1,3H2/t4-,5-,6-,8?/m1/s1
