21
gdb 80409	2.46193	1.69686	1.25939	2.7889	82.27	-0.228	-0.0032	0.2249	1092.9971	0.182897	-387.114639	-387.106042	-387.105098	-387.147358	33.69	
C	-0.1633294526	 1.5277368808	 0.0333492881	-0.420783
C	 0.0594475331	 0.0183616966	-0.0547095647	-0.079508
C	 0.9905296528	-0.5150505395	-1.167464162	-0.034194
C	 1.2037013768	-1.987004201	-0.719615745	-0.276197
C	 1.9933901202	-1.3259121357	 0.4678907264	 0.215529
C	 2.9627915955	-2.0577041861	 1.3588427245	-0.499657
C	 2.4108500507	-0.2429700817	-0.59440178	-0.272934
C	 0.8529948097	-0.5662389489	 1.1372043793	 0.411719
O	 0.6370124191	-0.4293610644	 2.3133460731	-0.35503
H	 0.7801080875	 2.0822269084	 0.0111931272	 0.118966
H	-0.7811509792	 1.882898487	-0.7973195831	 0.11505
H	-0.6714094739	 1.7752910816	 0.9698612143	 0.138449
H	-0.9165572208	-0.4828655106	-0.0983835926	 0.092711
H	 0.7327428829	-0.2631201115	-2.1958765293	 0.067425
H	 0.3228822698	-2.5919794421	-0.4823824038	 0.098339
H	 1.8758909117	-2.5416179038	-1.3792616712	 0.103096
H	 3.7493270955	-2.549301481	 0.7780151824	 0.110445
H	 3.4352501726	-1.3669213732	 2.064582743	 0.130456
H	 2.4455853269	-2.8198605683	 1.9508612085	 0.128778
H	 3.2059075546	-0.6160222229	-1.2448895377	 0.104402
H	 2.660050657	 0.7614103264	-0.2413217273	 0.102937
112.2406	165.8907	196.0377	209.3752	244.1261	263.648	315.4084	460.8344	466.0147	509.064	571.3489	641.554	708.6781	761.9455	827.1752	839.7592	875.7504	883.5895	947.2428	965.0801	991.5248	1026.3893	1029.7367	1052.5351	1078.5263	1095.871	1111.3628	1145.461	1193.8132	1204.834	1237.5506	1240.057	1269.7055	1308.2904	1344.572	1359.3669	1406.8986	1416.6702	1484.82	1487.5015	1488.3612	1497.8071	1499.7057	1522.3476	1855.5942	3021.3272	3035.5067	3037.896	3046.9447	3056.726	3103.678	3104.8054	3106.7269	3109.6567	3113.0998	3115.381	3116.8532
CC1C2CC(C)(C2)C1=O	C[C@H]1[C@@H]2C[C@@](C)(C2)C1=O	
InChI=1S/C8H12O/c1-5-6-3-8(2,4-6)7(5)9/h5-6H,3-4H2,1-2H3	InChI=1S/C8H12O/c1-5-6-3-8(2,4-6)7(5)9/h5-6H,3-4H2,1-2H3/t5-,6-,8+/m0/s1
