19
gdb 79882	2.39036	1.73633	1.37633	1.7022	74.49	-0.2388	0.0638	0.3026	1015.9481	0.158808	-422.951191	-422.943017	-422.942072	-422.983417	32.15	
C	-0.2543387191	 1.5232320022	-0.102695242	-0.440307
C	 0.0728908236	 0.0448104175	 0.0540322822	-0.073485
C	 1.334243918	-0.6897299549	-0.352845115	-0.1646
C	 2.6395458474	-0.0492265054	 0.1617722271	 0.122216
O	 2.745333383	 1.4026122895	 0.2443626733	-0.298813
C	 2.4091616221	 1.385399158	 1.6583535133	-0.114551
C	 2.1583824748	-0.1340278979	 1.615914138	-0.144944
C	 0.8180155393	-0.7216763856	 1.1094555918	 0.346493
O	 0.2322814446	-1.790548937	 1.7703334246	-0.459864
H	 0.6346494817	 2.1481583396	-0.1117617316	 0.161161
H	-0.7701426917	 1.6721585772	-1.0577355953	 0.113629
H	-0.9336136217	 1.8640228664	 0.6873579804	 0.105173
H	-0.7766502013	-0.579483801	-0.2304136194	 0.093341
H	 1.3084784835	-1.4607650463	-1.1146447173	 0.089225
H	 3.5617567756	-0.5095136602	-0.2000940588	 0.084396
H	 3.2759054581	 1.6744028583	 2.2650458156	 0.103794
H	 1.5652594709	 2.0403065289	 1.8990004008	 0.101866
H	 2.6481860342	-0.774921421	 2.3468470717	 0.087988
H	-0.5577909531	-1.4756106982	 2.2221832705	 0.287281
145.6065	169.7272	200.4189	259.788	263.7057	296.963	340.3636	371.8449	512.2709	575.3318	663.0425	692.656	716.4366	826.3559	856.8108	892.9949	903.2083	936.6606	950.4562	981.4073	992.034	1037.1878	1059.9063	1071.2148	1118.0558	1134.1807	1160.4992	1186.3168	1189.4487	1228.2004	1258.9472	1294.7529	1305.018	1335.0491	1343.168	1352.3167	1407.9196	1470.0615	1497.1756	1510.7028	1526.3834	3022.72	3032.3491	3072.9744	3081.4822	3081.759	3089.445	3133.2367	3174.5929	3186.2171	3799.3046
CC1C2C3OCC3C12O	C[C@H]1[C@H]2[C@H]3OC[C@H]3[C@@]12O	
InChI=1S/C7H10O2/c1-3-5-6-4(2-9-6)7(3,5)8/h3-6,8H,2H2,1H3	InChI=1S/C7H10O2/c1-3-5-6-4(2-9-6)7(3,5)8/h3-6,8H,2H2,1H3/t3-,4+,5-,6-,7-/m0/s1
