21
gdb 85047	2.43889	1.42782	1.04751	2.8687	78.37	-0.2336	-0.0113	0.2223	1216.4551	0.181315	-424.269322	-424.259743	-424.258799	-424.303401	36.202	
C	-0.1830497262	 1.544644002	 0.0030950004	-0.408252
C	 0.1053624583	 0.0455230105	-0.005458321	 0.01648
C	 0.9669584481	-0.4488123367	-1.1833253867	-0.329496
C	 1.642967284	-1.7236717508	-0.6755403408	 0.408897
O	 2.3242600384	-2.4777013428	-1.321747179	-0.324876
C	 1.3180456023	-1.8843318256	 0.8195250342	-0.09637
C	 2.4394134086	-2.540527908	 1.6183123319	-0.434468
C	 0.8708166906	-0.4691326578	 1.2347430859	 0.078213
O	 1.9845588493	 0.3956079907	 1.4323646422	-0.435201
H	 0.746309169	 2.1152827533	 0.0683127553	 0.137311
H	-0.7113609232	 1.8440770997	-0.9076847943	 0.11126
H	-0.8080177698	 1.8214176486	 0.8590263213	 0.109902
H	-0.8481367904	-0.4990031807	-0.0241964855	 0.075804
H	 0.4153030575	-0.6351113224	-2.1084446011	 0.122704
H	 1.7592884036	 0.2722752672	-1.4180998437	 0.141205
H	 0.4250867824	-2.5287023048	 0.8545280091	 0.100908
H	 3.3255392042	-1.8983729208	 1.6487384885	 0.119589
H	 2.1306605332	-2.7623294875	 2.6448477906	 0.110146
H	 2.7380173488	-3.4740304199	 1.1352018263	 0.145775
H	 0.2295230149	-0.4794174259	 2.1277573373	 0.060803
H	 2.4758840263	 0.0862972017	 2.1989549592	 0.289664
70.2459	120.6125	192.3381	222.7423	228.5113	247.6022	271.8501	296.7821	325.9162	448.1939	469.594	495.3929	554.4369	610.2183	722.7475	723.755	839.7991	880.1896	894.9458	943.8096	977.9763	1013.7704	1023.7654	1055.475	1097.2374	1142.9531	1163.5239	1170.7739	1189.6574	1235.5201	1267.4977	1274.3404	1298.2631	1349.8797	1354.6175	1379.7316	1399.7712	1405.8739	1419.7396	1448.4493	1491.7497	1494.4539	1502.1038	1508.9655	1843.9211	2986.3117	2997.1756	3019.3095	3037.2278	3038.3579	3047.7048	3098.6122	3102.9058	3104.8746	3124.6228	3127.5635	3833.5568
CC1CC(=O)C(C)C1O	C[C@H]1CC(=O)[C@@H](C)[C@H]1O	
InChI=1S/C7H12O2/c1-4-3-6(8)5(2)7(4)9/h4-5,7,9H,3H2,1-2H3	InChI=1S/C7H12O2/c1-4-3-6(8)5(2)7(4)9/h4-5,7,9H,3H2,1-2H3/t4-,5+,7-/m0/s1
