15
gdb 125816	3.00449	1.2317	0.96976	3.5185	70.56	-0.2744	-0.0216	0.2528	1176.2228	0.112659	-416.823604	-416.815358	-416.814414	-416.857297	29.276	
C	-0.2550546419	 1.4543088487	 0.0937010271	-0.509354
C	-0.0682570557	-0.0275324479	 0.0470541888	 0.331973
N	 0.0156160751	-0.653352172	-1.1020915232	-0.189973
O	 0.1785175331	-2.0042818985	-0.7963098211	-0.1647
C	 0.1846708962	-2.1464425581	 0.5325772795	 0.001189
C	 0.0369288936	-0.944332242	 1.1442742379	 0.082572
C	 0.0114507744	-0.6461449358	 2.6172210647	-0.46699
C	-1.2511650971	-0.0426540247	 3.0587968309	 0.271431
N	-2.2431868474	 0.4455866999	 3.3935549582	-0.305414
H	 0.577391124	 1.9389840212	 0.6156837156	 0.136997
H	-0.3096826943	 1.854648285	-0.9198921633	 0.157396
H	-1.1736334688	 1.7142897608	 0.629139317	 0.163812
H	 0.3023801372	-3.1535917549	 0.903524697	 0.157648
H	 0.1746527019	-1.564452968	 3.190608248	 0.165622
H	 0.8236884596	 0.0384176163	 2.8927488429	 0.167793
48.5032	104.4892	146.2282	223.5001	254.0141	319.9072	379.4945	399.045	479.85	613.853	659.2661	690.7483	757.6982	853.1928	901.7719	930.3984	938.6087	948.4687	1032.5054	1069.0734	1162.4008	1187.3782	1232.0406	1297.5094	1343.2636	1408.2856	1437.288	1457.0474	1481.1592	1481.8034	1530.0227	1655.357	2364.324	3034.2917	3041.7245	3083.6063	3099.8913	3145.4574	3258.2584
CC1=NOC=C1CC#N	Cc1nocc1CC#N	
InChI=1S/C6H6N2O/c1-5-6(2-3-7)4-9-8-5/h4H,2H2,1H3	InChI=1S/C6H6N2O/c1-5-6(2-3-7)4-9-8-5/h4H,2H2,1H3
