18
gdb 67234	3.76677	1.25154	1.17646	4.2158	77.76	-0.2285	0.0206	0.2491	1108.7176	0.147843	-401.912444	-401.904612	-401.903668	-401.944806	30.032	
C	 0.0882728571	 1.6538416986	-0.1380071686	-0.53017
C	-0.0222939184	 0.1752984989	 0.0281454805	 0.323193
C	 0.4170654909	-1.0225759534	-0.7967619452	-0.140443
C	 1.1161174712	-1.662926225	 0.403659624	-0.236411
C	 0.1631036962	-0.794809066	 1.2764054331	-0.083386
N	-1.1834986697	-1.341523042	 0.9858250817	-0.044523
C	-1.6901713854	-2.528004925	 1.4313177258	 0.13659
O	-1.3233677538	-3.1006048912	 2.4353584211	-0.326596
C	-1.0632952971	-0.8273643337	-0.3712101725	-0.088315
H	 1.1041449007	 2.0068493955	 0.0716474323	 0.12808
H	-0.1568472542	 1.9439457963	-1.1652279064	 0.128035
H	-0.5973348456	 2.1837407752	 0.5323186371	 0.132808
H	 0.7039659892	-1.0429992935	-1.8410433778	 0.092578
H	 1.06504002	-2.7457506799	 0.5507676063	 0.116208
H	 2.1502006022	-1.3188025664	 0.4837244195	 0.108934
H	 0.3811314976	-0.5314197061	 2.307421865	 0.103109
H	-2.5355294839	-2.8773820014	 0.8024263174	 0.069086
H	-1.8920932671	-0.7434593007	-1.0616594131	 0.111222
88.7401	163.3195	207.3425	213.2702	286.2673	290.6721	436.9696	552.9105	560.8326	619.4949	736.3346	770.1276	795.9577	860.0166	883.5687	910.9921	923.1149	966.537	1007.9368	1012.694	1032.0668	1073.4842	1102.2163	1129.6096	1139.7942	1156.5667	1178.8287	1193.301	1223.1603	1265.8654	1287.8294	1381.9816	1412.5107	1428.6823	1463.638	1484.0213	1495.2723	1499.8894	1789.8071	2916.7062	3026.5702	3056.2423	3089.1313	3097.0953	3116.0804	3166.0421	3192.5453	3209.4015
CC12C3CC1N(C=O)C23	C[C@@]12[C@H]3C[C@@H]1N(C=O)[C@@H]23	
InChI=1S/C7H9NO/c1-7-4-2-5(7)8(3-9)6(4)7/h3-6H,2H2,1H3	InChI=1S/C7H9NO/c1-7-4-2-5(7)8(3-9)6(4)7/h3-6H,2H2,1H3/t4-,5-,6+,7+/m0/s1
