14
gdb 125189	3.3894	1.64156	1.11363	5.8346	72.74	-0.2117	-0.0431	0.1687	1010.437	0.101942	-432.854687	-432.847342	-432.846398	-432.88697	27.391	
C	-0.020215525	 1.5208109825	 0.0678766054	-0.508859
C	 0.0086531726	 0.0341307022	-0.03288124	 0.200139
C	-0.005197541	-0.8359175685	-1.1129332185	 0.187404
N	-0.0462176911	-0.8869264732	-2.48603422	-0.207442
N	-0.0327252352	-2.0567149086	-2.8938678832	-0.030297
O	 0.0247581855	-3.0008082238	-1.6948547951	-0.28733
C	 0.0383993865	-2.1734751292	-0.6519557751	 0.341661
C	 0.0797357245	-2.1541878001	 0.7185436507	-0.250294
N	 0.0599483699	-0.7981084393	 1.0520897411	-0.291249
H	 0.8752846565	 1.91670505	 0.5615515078	 0.139441
H	-0.0668535487	 1.9535587307	-0.9331745167	 0.159722
H	-0.8931651262	 1.87769537	 0.6272254689	 0.139195
H	 0.1193497302	-2.9183785409	 1.4734171647	 0.13956
H	 0.0815083515	-0.4653924916	 2.00223148	 0.268347
47.1197	189.2344	241.471	254.6454	372.5542	401.9577	532.9649	566.6439	608.67	612.0023	630.5083	661.545	703.8593	765.8788	814.5579	966.4546	979.2279	1057.9169	1101.9032	1131.912	1243.3013	1284.2044	1325.7465	1414.3177	1420.0524	1461.0906	1481.2997	1499.822	1530.5902	1588.2806	1671.408	3024.7493	3072.8902	3135.1753	3294.1624	3659.1157
CC1=C2N=NOC2=CN1	Cc1c2nnoc2c[nH]1	
InChI=1S/C5H5N3O/c1-3-5-4(2-6-3)9-8-7-5/h2,6H,1H3	InChI=1S/C5H5N3O/c1-3-5-4(2-6-3)9-8-7-5/h2,6H,1H3
