23
gdb 61401	3.04657	0.86372	0.81074	2.1608	83.44	-0.2724	-0.0367	0.2357	1544.0311	0.201692	-425.446799	-425.435814	-425.43487	-425.483286	40.599	
C	 0.4091348703	 1.4039506003	 0.2713799598	-0.408955
C	-0.0859909869	-0.0491970652	 0.1613666612	 0.262899
C	 0.1752417641	-0.7868896998	 1.4879255093	-0.401215
C	-1.6028199425	-0.0410813977	-0.1134494757	-0.40427
C	 0.5898007183	-0.7773549701	-1.0317295285	-0.218361
C	 2.1293553451	-0.7532526888	-1.0949144032	 0.029979
O	 2.7386166947	-1.4416976047	-0.0354330408	-0.426395
C	 2.5937151101	-1.3337190672	-2.4160193349	 0.142746
O	 3.3758075116	-2.2523190785	-2.4693403316	-0.264517
H	 1.4653769261	 1.4554203671	 0.553437037	 0.12221
H	 0.2811626898	 1.9459801852	-0.6730676858	 0.102369
H	-0.1573348735	 1.9408600387	 1.0394938925	 0.112422
H	-0.350448138	-0.2857976507	 2.3084755966	 0.0998
H	-0.1894874909	-1.8188913577	 1.4399129418	 0.104486
H	 1.2392345531	-0.8239142793	 1.7253576393	 0.142167
H	-1.8428402959	 0.5194682575	-1.0241901759	 0.105033
H	-1.988820944	-1.0592778432	-0.2347829775	 0.109782
H	-2.1447680458	 0.4231500873	 0.7173443026	 0.110832
H	 0.2673198852	-1.8263385321	-1.039339141	 0.104778
H	 0.2184612489	-0.3239564943	-1.9619241882	 0.089277
H	 2.4600634688	 0.3019573871	-1.1054955457	 0.094059
H	 3.3193795754	-2.0991311354	-0.4514381747	 0.293313
H	 2.1780902859	-0.8677349583	-3.3328515966	 0.097562
26.2904	79.2785	118.8273	196.4531	229.9489	260.1661	277.6289	287.0971	297.871	329.6045	346.344	381.17	407.8175	428.937	473.999	515.6986	738.212	761.0768	841.2806	868.9491	910.0527	934.1813	938.4766	961.6329	1005.7692	1010.4966	1049.5758	1088.7327	1152.4699	1204.4245	1223.6552	1258.8371	1272.6706	1309.3226	1343.557	1370.7243	1398.719	1400.6949	1404.3952	1430.547	1440.0019	1462.8767	1479.1915	1486.9715	1487.6908	1505.0977	1508.7426	1518.7166	1811.6881	2925.0544	2945.225	3003.8486	3020.1922	3024.5353	3033.7228	3054.0957	3086.9192	3089.2942	3091.357	3097.0671	3101.7984	3142.6129	3680.1014
CC(C)(C)CC(O)C=O	CC(C)(C)C[C@@H](O)C=O	
InChI=1S/C7H14O2/c1-7(2,3)4-6(9)5-8/h5-6,9H,4H2,1-3H3	InChI=1S/C7H14O2/c1-7(2,3)4-6(9)5-8/h5-6,9H,4H2,1-3H3/t6-/m1/s1
