15
gdb 131140	3.80724	1.2816	1.04211	3.7667	68.99	-0.2575	-0.0377	0.2198	1099.9766	0.111637	-453.905317	-453.897601	-453.896656	-453.937793	29.15	
O	 0.0070173679	 1.3818610815	 0.0374588348	-0.448428
C	 0.003382252	-0.015268749	 0.0043526065	 0.270141
C	-0.5312832138	-0.7739551768	 1.2049714401	-0.31954
C	-1.36143248	-0.6589710187	-0.0446823364	-0.284015
C	 1.1003003872	-0.590572429	-0.7904093139	 0.393573
C	 2.0723238071	-0.0014061166	-1.5462050747	-0.2399
N	 2.8367078248	-1.0159763855	-2.067169524	-0.101037
N	 2.4231595876	-2.138174548	-1.703623892	-0.017994
O	 1.2614605594	-1.9078479769	-0.8437431348	-0.241876
H	 0.6951561279	 1.6654288587	 0.6506081484	 0.292194
H	-0.0784173356	-1.7296020778	 1.4407786055	 0.142798
H	-0.8146548749	-0.1630192756	 2.0544809694	 0.128164
H	-2.1948589149	 0.0332315312	-0.0389798617	 0.139613
H	-1.4799590112	-1.5360806766	-0.6693042691	 0.142322
H	 2.2610377165	 1.0353570691	-1.7582646979	 0.143983
71.7776	156.2078	170.1569	318.9983	323.9929	354.0301	429.6139	478.0805	537.4083	586.0487	690.7916	742.8465	778.3289	815.6675	864.6718	893.832	939.8398	981.026	996.2049	1031.1561	1061.6776	1088.1731	1118.6945	1177.6605	1198.3344	1262.1182	1318.7109	1351.4307	1386.5338	1448.1678	1475.6181	1484.6047	1595.7997	3143.3501	3150.1569	3235.3815	3250.0791	3306.1357	3789.7836
OC1(CC1)C1=CN=NO1	OC1(CC1)c1cnno1	
InChI=1S/C5H6N2O2/c8-5(1-2-5)4-3-6-7-9-4/h3,8H,1-2H2	InChI=1S/C5H6N2O2/c8-5(1-2-5)4-3-6-7-9-4/h3,8H,1-2H2
