19
gdb 40114	2.17271	2.07173	1.26831	1.6587	81.12	-0.226	0.0222	0.2482	1032.4376	0.159611	-385.867454	-385.859739	-385.858795	-385.899769	30.957	
C	-0.2794790841	 1.4931346766	 0.1851275749	-0.321034
C	 1.0980924025	 1.0133606873	-0.1703644985	-0.307194
C	-0.0113267301	 0.006600371	 0.0218500688	 0.290304
C	-0.0675240135	-0.9210679485	 1.1794398971	-0.138876
C	-0.6335737417	-2.0870152869	 0.8653616122	-0.106626
C	-1.0665507115	-2.1353388248	-0.5794166675	-0.351104
C	-0.5402911727	-0.8102601872	-1.1508693507	 0.334577
C	-0.9924813694	-0.259197631	-2.4307303623	-0.249707
O	 0.2811685975	-0.902110138	-2.325385709	-0.268913
H	-0.4572785114	 1.8580858422	 1.1915047992	 0.112757
H	-0.8692392323	 1.9907964387	-0.5769945562	 0.113942
H	 1.4466928387	 1.1468020931	-1.1884544668	 0.131277
H	 1.8765426063	 1.0601132879	 0.5835994784	 0.114197
H	 0.3133677746	-0.6444332301	 2.1565352743	 0.095807
H	-0.7886055438	-2.9128558718	 1.5493624193	 0.095601
H	-0.6360165382	-2.976535713	-1.1349928041	 0.125238
H	-2.1577353437	-2.217217492	-0.6743141698	 0.111369
H	-1.7443093711	-0.7946899632	-3.0111200866	 0.109699
H	-0.9593179861	 0.8147120796	-2.6134415924	 0.108687
50.3873	224.8738	237.3596	265.4527	330.3617	393.5413	434.4998	505.3268	559.7319	577.9787	737.8468	765.51	782.7004	811.208	858.292	908.0053	931.4494	943.2388	950.1757	965.6953	967.5657	994.0763	1027.2473	1055.5281	1072.8739	1106.7291	1127.5169	1162.1327	1175.442	1182.7141	1194.0643	1277.9349	1285.0514	1316.7624	1403.348	1422.9104	1470.4553	1474.2648	1501.6273	1534.08	1679.3366	3015.7422	3059.8341	3071.9667	3128.9768	3134.4729	3152.9679	3184.7005	3209.2638	3211.5998	3226.4383
C1CC11C=CCC11CO1	C1CC21C=CC[C@]12CO1	
InChI=1S/C8H10O/c1-2-7(4-5-7)8(3-1)6-9-8/h1-2H,3-6H2	InChI=1S/C8H10O/c1-2-7(4-5-7)8(3-1)6-9-8/h1-2H,3-6H2/t8-/m1/s1
