20
gdb 59158	2.76535	1.26453	1.093	2.4059	80.03	-0.2284	-0.02	0.2085	1205.8927	0.169166	-403.124071	-403.115058	-403.114113	-403.158056	34.131	
C	 0.6019335871	 0.2928802259	-1.3353558141	-0.383955
C	 0.0984345355	 0.1122125185	 0.0970540481	 0.062873
C	 0.1140308164	 1.4217853485	 0.8856384162	-0.384092
N	-1.2922503878	-0.3664554082	 0.0309297825	-0.069026
C	-1.667182744	-1.7317555006	-0.1886115834	-0.042721
C	-0.7044596799	-2.7354562292	 0.4741779218	-0.38073
C	-1.0398964866	-2.0319130671	 1.8190361668	 0.406869
O	-0.805401002	-2.2983481883	 2.9621977704	-0.30614
C	-1.9608220967	-1.032278536	 1.143543231	-0.184096
H	 1.6299285014	 0.6673233754	-1.336795693	 0.11648
H	 0.5854413324	-0.655187434	-1.8827190317	 0.114402
H	-0.0302618448	 1.0054973111	-1.8742139003	 0.126215
H	 0.7590867167	-0.6027193153	 0.6101569234	 0.077763
H	-0.5228947836	 2.1677902166	 0.4002456929	 0.123575
H	-0.2528748773	 1.2695658063	 1.9052765976	 0.125235
H	 1.1316198508	 1.8185800768	 0.9481932083	 0.115123
H	-2.3845616334	-1.9650389023	-0.9670671552	 0.110511
H	-1.0886775521	-3.7598422502	 0.4969343155	 0.133617
H	 0.3324736817	-2.7512576279	 0.1308624489	 0.126997
H	-2.8705667738	-0.6020052701	 1.5479162541	 0.111101
53.9472	89.2078	189.9401	223.3476	233.6234	255.7576	330.9739	410.6277	433.9027	468.5472	514.8673	621.0177	660.886	716.4327	836.8664	850.592	877.1013	917.1256	933.4962	951.4098	964.1758	979.9526	1006.7608	1042.1324	1083.8844	1126.3726	1139.4292	1155.6537	1196.8216	1198.5291	1237.2261	1277.1706	1349.4583	1362.5173	1379.0572	1399.2106	1419.2294	1459.9634	1483.2041	1487.6706	1495.6885	1510.4193	1882.5857	2984.8799	3035.6355	3040.1367	3063.9647	3106.1253	3112.1275	3112.9848	3116.2671	3119.059	3173.679	3183.7789
CC(C)N1C2CC(=O)C12	CC(C)N1[C@H]2CC(=O)[C@@H]12	
InChI=1S/C7H11NO/c1-4(2)8-5-3-6(9)7(5)8/h4-5,7H,3H2,1-2H3	InChI=1S/C7H11NO/c1-4(2)8-5-3-6(9)7(5)8/h4-5,7H,3H2,1-2H3/t5-,7-,8?/m0/s1
