13
gdb 18666	3.60925	2.42557	1.63305	2.6066	58.83	-0.2659	-0.0232	0.2427	745.4708	0.097415	-398.630354	-398.624362	-398.623418	-398.660534	22.911	
O	 0.0607259875	-0.0194737473	 0.2516282205	-0.313331
C	 0.0406866511	 1.1486569232	-0.0022757193	 0.443763
O	-1.1869059056	 1.7385961865	-0.2920504874	-0.220489
C	-1.2447474912	 2.9547684668	-0.9290521325	 0.124781
N	-0.2986908217	 3.7438006244	-1.1946955092	-0.233874
C	 1.0047013317	 3.4092842613	-0.730680836	 0.009996
C	 1.2303622537	 3.3314312241	 0.7464823946	-0.298262
C	 1.2119231239	 2.0439005957	-0.0615798813	-0.190933
H	-2.2706564285	 3.1713740768	-1.2115949364	 0.146894
H	 1.8059384103	 3.7964438534	-1.349480517	 0.118778
H	 2.1969172237	 3.6305808085	 1.1338304372	 0.14015
H	 0.3885414421	 3.5471062323	 1.394471369	 0.144178
H	 2.148653343	 1.5142739342	-0.1813848423	 0.128351
123.2001	218.0671	331.6405	435.5575	527.6863	541.181	608.2822	740.8008	746.414	785.6767	838.9974	899.5574	944.5547	965.6236	978.9281	993.4608	1066.2444	1109.3446	1127.3444	1168.8715	1188.4183	1218.503	1368.8672	1382.0585	1413.6106	1478.0388	1736.6723	1870.8525	3145.2723	3178.5827	3191.7909	3197.4592	3238.8891
O=C1OC=NC2CC12	O=C1OC=N[C@H]2C[C@@H]12	
InChI=1S/C5H5NO2/c7-5-3-1-4(3)6-2-8-5/h2-4H,1H2	InChI=1S/C5H5NO2/c7-5-3-1-4(3)6-2-8-5/h2-4H,1H2/t3-,4+/m1/s1
