19
gdb 103604	2.71138	1.23622	1.06365	2.2154	71.99	-0.2309	-0.0341	0.1968	1213.9086	0.157166	-460.16834	-460.15875	-460.157806	-460.202896	35.306	
C	 0.2353500918	 1.6620073595	 0.0088551246	-0.412633
C	 0.1108367465	 0.1452430016	 0.0285360742	-0.087185
C	 0.5522846584	-0.7171076603	-1.2074278236	-0.31158
C	 1.2999472087	-1.7116813575	-0.2792014374	 0.304029
O	 0.5224568203	-2.8722715891	-0.0561479058	-0.481662
C	 2.7555270571	-2.0823889879	-0.5281644632	-0.139594
O	 3.2229462312	-2.8300353365	 0.5891869916	-0.433048
C	 1.1250481275	-0.6594782514	 0.8492481945	 0.348374
O	 1.7101197492	-0.4818479414	 1.8856897901	-0.329583
H	 1.2369618265	 1.9715216999	-0.3077098767	 0.120182
H	-0.489506947	 2.107681932	-0.6792199957	 0.124246
H	 0.0580248113	 2.0760505934	 1.0058051716	 0.137281
H	-0.89773557	-0.1564113568	 0.3381081778	 0.121051
H	-0.2486467505	-1.1719052351	-1.7899315074	 0.124152
H	 1.2310057462	-0.17472144	-1.8720213667	 0.109309
H	 1.0799360123	-3.4466528468	 0.4891329734	 0.289593
H	 2.8388359313	-2.7353861811	-1.403532301	 0.119713
H	 3.3657636385	-1.1847708872	-0.7048894701	 0.095602
H	 3.1812139904	-2.2368376652	 1.3527233398	 0.301753
52.1243	114.9341	160.8832	187.3096	202.5981	237.9079	283.2431	314.4219	366.0559	412.8224	480.9296	543.1078	589.6665	659.1099	709.0417	737.4912	838.3476	877.301	915.6696	952.4086	978.6298	1032.4608	1054.1315	1065.5519	1133.5759	1136.9508	1164.8132	1199.4467	1240.8288	1250.087	1278.343	1330.4134	1357.8958	1406.1333	1413.0377	1434.4767	1471.5725	1493.5492	1493.9695	1495.9167	1857.3496	3000.5674	3036.3535	3037.7914	3067.4819	3077.3002	3105.0484	3113.5646	3143.3906	3734.6395	3747.2231
CC1CC(O)(CO)C1=O	C[C@H]1C[C@@](O)(CO)C1=O	
InChI=1S/C6H10O3/c1-4-2-6(9,3-7)5(4)8/h4,7,9H,2-3H2,1H3	InChI=1S/C6H10O3/c1-4-2-6(9,3-7)5(4)8/h4,7,9H,2-3H2,1H3/t4-,6+/m0/s1
