23
gdb 91937	1.97983	1.70836	1.42592	1.2305	83.89	-0.2557	0.0741	0.3297	1105.212	0.205921	-388.295321	-388.286196	-388.285252	-388.328145	36.97	
C	-0.9997841791	 1.1221422609	 0.160792311	-0.418302
C	-0.2562150955	-0.2207307115	 0.102012186	-0.027903
C	 0.4287290943	-0.4922310124	-1.2708391249	-0.232804
C	 1.920814224	-0.2821525465	-1.0585657413	-0.030749
C	 2.3690812138	 1.001637937	-0.4055547181	-0.315711
C	 2.1857594544	-0.2424385095	 0.4257211903	-0.01833
C	 0.8749582533	-0.4587921858	 1.1667912691	 0.373316
C	 0.7504451359	 0.3618835263	 2.4519037628	-0.445754
O	 0.9062415557	-1.8582870579	 1.4990905209	-0.479851
H	-0.3505961342	 1.9838641238	-0.0171279052	 0.121554
H	-1.7806825785	 1.1440715909	-0.6067857762	 0.113902
H	-1.4892620751	 1.2708977595	 1.1280352542	 0.112218
H	-1.0070526012	-0.9983229913	 0.2815134639	 0.064237
H	 0.2583953308	-1.5298173871	-1.5756675679	 0.104528
H	 0.0158887712	 0.1459543678	-2.060724179	 0.090141
H	 2.6088039946	-0.7781712762	-1.7342161513	 0.078706
H	 3.3933619411	 1.312752602	-0.5821679889	 0.108549
H	 1.6778759353	 1.8308684539	-0.3112661319	 0.107881
H	 3.0579434791	-0.7115558291	 0.8666950713	 0.085358
H	 0.8068666132	 1.4361879412	 2.2576241819	 0.118687
H	-0.2011210505	 0.1643557038	 2.9613455933	 0.100302
H	 1.5603160846	 0.0918696208	 3.1356994114	 0.120236
H	 0.1215980426	-2.0478143506	 2.0246294684	 0.269786
110.9468	187.9169	228.7363	262.2545	273.6412	301.8032	312.6207	340.1469	369.4115	400.9	444.0951	506.7843	595.0745	673.614	715.0011	786.6487	828.6784	873.0228	878.4623	902.3382	932.2739	966.6902	1003.5279	1021.7065	1037.3921	1063.1795	1084.1415	1092.7162	1108.1195	1112.6609	1136.3302	1179.7574	1198.0288	1212.1846	1246.9206	1264.0239	1315.4021	1343.3286	1349.9093	1386.8395	1403.9904	1409.8919	1420.1381	1480.6351	1487.1614	1493.7717	1496.8733	1504.0011	1511.4425	3024.7584	3028.4951	3035.7824	3041.4379	3074.3086	3093.8501	3099.2197	3113.9599	3121.2379	3137.3145	3165.42	3176.5364	3217.0534	3804.2003
CC1CC2CC2C1(C)O	C[C@H]1C[C@H]2C[C@H]2[C@]1(C)O	
InChI=1S/C8H14O/c1-5-3-6-4-7(6)8(5,2)9/h5-7,9H,3-4H2,1-2H3	InChI=1S/C8H14O/c1-5-3-6-4-7(6)8(5,2)9/h5-7,9H,3-4H2,1-2H3/t5-,6-,7+,8+/m0/s1
