21
gdb 108276	2.75927	1.27546	1.02928	3.0582	82.58	-0.2351	-0.0175	0.2176	1242.3298	0.181664	-387.093169	-387.084221	-387.083276	-387.127164	34.072	
C	-0.1704684137	 1.6141637992	-0.0524193927	-0.381227
C	-0.1672194106	 0.0806013568	-0.0714790766	-0.288315
C	 0.726225604	-0.5005328887	-1.150172703	 0.389396
C	 0.2851942336	-0.350072245	-2.6357716895	-0.27976
C	 0.5005627885	-1.8728042473	-2.8719428715	-0.229036
C	 0.9083974637	-2.0605848387	-1.3754213208	-0.224304
C	 2.409149829	-1.8766479872	-1.1593523547	 0.419631
O	 3.339848787	-2.6298698361	-1.1250807059	-0.304974
C	 2.2687028483	-0.3559423362	-0.9528554976	-0.418496
H	 0.8329370852	 2.0107711573	 0.1359882517	 0.11974
H	-0.513341242	 2.0221352679	-1.0093167721	 0.119927
H	-0.8328898094	 1.9978980674	 0.7292210636	 0.116099
H	 0.1543173229	-0.2986278283	 0.9080461415	 0.095428
H	-1.1920227081	-0.2851898175	-0.2185304893	 0.095559
H	-0.7605907594	-0.0478445908	-2.7405688707	 0.102983
H	 0.8935210175	 0.3240132672	-3.244904665	 0.100076
H	-0.4150640782	-2.4100062674	-3.1257878359	 0.114316
H	 1.26713288	-2.150051527	-3.5995713559	 0.116078
H	 0.4036708569	-2.8441224893	-0.8074937615	 0.084804
H	 2.8182615627	 0.2804669324	-1.6528975064	 0.122728
H	 2.5539911118	-0.0694874885	 0.0661660023	 0.129349
51.6917	108.5607	147.0294	199.0309	213.9274	339.164	349.0134	359.2461	438.8457	525.4939	585.2412	626.5044	721.6132	769.4705	791.9243	844.6633	876.419	909.0142	930.5234	962.341	975.256	994.3042	1023.389	1040.1547	1082.1262	1102.5368	1130.7659	1143.372	1201.1096	1217.2744	1223.9742	1239.2117	1259.4997	1276.9441	1318.7947	1323.5982	1368.1488	1412.4868	1431.5413	1478.7793	1486.2488	1498.0692	1500.1512	1507.6459	1883.0246	3010.4927	3034.3018	3041.3498	3042.5232	3052.4585	3068.3063	3095.0593	3096.5177	3101.0579	3101.5388	3106.5807	3122.9524
CCC12CCC1C(=O)C2	CC[C@]12CC[C@H]1C(=O)C2	
InChI=1S/C8H12O/c1-2-8-4-3-6(8)7(9)5-8/h6H,2-5H2,1H3	InChI=1S/C8H12O/c1-2-8-4-3-6(8)7(9)5-8/h6H,2-5H2,1H3/t6-,8+/m0/s1
