13
gdb 49819	3.02851	1.26174	0.98726	3.9103	59.31	-0.2674	-0.0941	0.1733	1122.8932	0.087332	-493.749941	-493.742059	-493.741115	-493.783901	27.398	
O	-0.8498170733	 0.8966321838	 0.5838686841	-0.216197
C	 0.1661177034	 0.8575184816	-0.0553179446	 0.136207
C	 1.2849316855	 1.8910523595	 0.0773447547	 0.009413
C	 1.3134660316	 2.6179763454	 1.4261815896	-0.385074
C	 2.6489573639	 2.2217033771	 2.0229393809	 0.292492
O	 3.1261567342	 2.5333061239	 3.0749052489	-0.255883
C	 3.3521691938	 1.305827171	 0.9939031505	 0.339797
O	 4.4182623725	 0.7822056319	 1.0832497312	-0.294501
O	 2.5384002829	 1.1849430942	-0.089111087	-0.22752
H	 0.3748541148	 0.066011684	-0.8041396614	 0.119458
H	 1.1964991909	 2.580391463	-0.7713437562	 0.136796
H	 1.2550435938	 3.7047270143	 1.3284220722	 0.162623
H	 0.482519366	 2.2982739902	 2.0621239671	 0.18239
38.8486	70.7968	127.5738	239.0329	327.1056	373.4713	392.0424	523.5974	600.5964	614.4457	674.3139	694.772	748.2351	855.1057	915.5492	1014.2851	1041.0784	1047.2981	1105.4652	1156.3821	1208.6871	1265.834	1333.3044	1343.7247	1403.4675	1449.3943	1840.5054	1873.5466	1892.7211	2934.7736	3038.6354	3072.5444	3117.3015
O=CC1CC(=O)C(=O)O1	O=C[C@H]1CC(=O)C(=O)O1	
InChI=1S/C5H4O4/c6-2-3-1-4(7)5(8)9-3/h2-3H,1H2	InChI=1S/C5H4O4/c6-2-3-1-4(7)5(8)9-3/h2-3H,1H2/t3-/m1/s1
