16
gdb 105862	2.14636	1.66486	1.24669	1.2582	66.57	-0.2423	0.0068	0.2491	1054.1517	0.122213	-474.961953	-474.953309	-474.952365	-474.995475	31.592	
C	 0.1156084284	 1.3785654704	-0.1816707024	-0.266055
O	-0.1797295318	 0.0047285471	 0.0793339812	-0.270413
C	 0.5333841641	-0.5097388655	 1.1197811358	 0.239761
C	 1.9867400613	-1.0306659463	 0.9928616325	 0.050131
O	 3.0609354732	-0.6744877321	 1.7887739704	-0.420598
C	 0.9100978925	-1.9548548372	 1.436488796	-0.073477
O	 0.6876484272	-1.7099823886	 2.8572840578	-0.296009
C	 0.1918776428	-0.4240890712	 2.5751572085	 0.383139
N	-0.3668657245	 0.4108136946	 3.3182209479	-0.5567
H	 1.1778917236	 1.5135761522	-0.4227361116	 0.121601
H	-0.4929617001	 1.6674159375	-1.0401314603	 0.133681
H	-0.1421350005	 2.0042740876	 0.6797988297	 0.148461
H	 2.2682598075	-1.1228042236	-0.0533015923	 0.131224
H	 2.8506744184	-0.9471949205	 2.6913113507	 0.302282
H	 0.58392542	-2.908083695	 1.0422419852	 0.136663
H	-0.4494961921	 0.0738070707	 4.2785838508	 0.23631
72.4024	129.4117	161.7386	166.2325	247.0351	293.1556	356.5348	373.6664	439.1254	471.0569	644.062	660.8044	710.1797	776.4128	838.6097	862.3973	909.3782	946.5829	961.9913	995.3869	1027.6087	1053.7498	1112.1217	1166.633	1180.1409	1221.0941	1246.0639	1274.0608	1304.5884	1393.8897	1453.51	1485.7586	1499.994	1506.4104	1838.1905	3014.3446	3085.3587	3139.0188	3159.1705	3209.6696	3483.1259	3774.7455
COC12C(O)C1OC2=N	CO[C@]12[C@@H](O)[C@H]1O[C]2[NH]	
InChI=1S/C5H7NO3/c1-8-5-2(7)3(5)9-4(5)6/h2-3,6-7H,1H3	InChI=1S/C5H7NO3/c1-8-5-2(7)3(5)9-4(5)6/h2-3,6-7H,1H3/t2-,3+,5+/m0/s1
