19
gdb 83598	2.26988	1.70126	1.16968	2.3376	76.13	-0.2417	-0.0215	0.2202	1104.9565	0.158089	-423.022951	-423.014119	-423.013175	-423.056419	33.349	
C	-0.6341098563	 1.1857991279	 0.2050828384	-0.405109
C	 0.1318933909	-0.1254667331	 0.0677585525	-0.102536
C	 0.9925162729	-0.3610997215	-1.2156553051	-0.112861
C	 0.9510011249	-1.8061941913	-1.7461229645	-0.226354
C	 2.0196765044	-2.2361315061	-0.7003289031	-0.2829
C	 2.2597733388	-0.7618203048	-0.274095353	 0.329018
O	 3.5759421126	-0.3504016395	-0.3563713273	-0.470048
C	 1.4448704986	-0.1894762847	 0.8666996296	 0.302255
O	 1.8260477028	 0.4079019246	 1.8411982206	-0.332418
H	 0.0104545789	 2.0429122547	-0.0133165326	 0.123451
H	-1.4867581005	 1.2154033686	-0.4799518788	 0.119705
H	-1.0071277714	 1.3059019931	 1.2261947626	 0.135122
H	-0.5276537195	-0.9759688809	 0.2743311965	 0.094926
H	 1.0237461192	 0.4784975337	-1.9094655882	 0.083286
H	-0.0220980433	-2.3016074479	-1.6867063938	 0.100496
H	 1.320925329	-1.8949917108	-2.7701754879	 0.110648
H	 1.6836456691	-2.9041460647	 0.0964697498	 0.110677
H	 2.9303048775	-2.6494719667	-1.137359823	 0.128688
H	 3.6974776814	 0.3508677695	 0.2983972171	 0.293956
65.2362	138.7643	189.2288	206.6828	243.8665	253.1774	344.5525	355.5145	410.2759	490.5811	537.5572	671.7746	724.2095	763.3749	784.1361	827.6504	877.82	951.032	957.5599	968.4676	994.0989	1025.015	1058.8151	1077.7515	1108.6458	1144.7131	1162.565	1208.2401	1233.0378	1248.124	1269.5132	1285.6849	1334.3211	1351.6938	1388.582	1408.7168	1470.6089	1492.5064	1493.2141	1495.6537	1836.4106	3039.7635	3042.1396	3058.0496	3069.5688	3104.4647	3110.4852	3115.469	3121.3575	3131.3284	3750.9125
CC1C2CCC2(O)C1=O	C[C@H]1[C@@H]2CC[C@]2(O)C1=O	
InChI=1S/C7H10O2/c1-4-5-2-3-7(5,9)6(4)8/h4-5,9H,2-3H2,1H3	InChI=1S/C7H10O2/c1-4-5-2-3-7(5,9)6(4)8/h4-5,9H,2-3H2,1H3/t4-,5-,7+/m0/s1
