16
gdb 50839	5.21746	0.81403	0.78325	5.5351	67.97	-0.2563	-0.0435	0.2128	1431.5503	0.123799	-475.039363	-475.03059	-475.029646	-475.074889	29.831	
O	-0.5270926009	 0.171211189	 0.2203956912	-0.24375
C	-0.1637159566	 1.2293636131	-0.2074361056	 0.166859
N	 1.1343313165	 1.7415475357	-0.1688572549	-0.366059
C	 2.2819237058	 1.1412758133	 0.3712312156	 0.429316
O	 2.284506787	 0.0520236648	 0.8862211653	-0.304946
C	 3.5341836572	 1.9919956981	 0.2648897688	-0.179072
C	 4.2928727086	 2.2375079367	 1.5979686409	-0.066263
O	 5.5059557014	 1.6755586141	 1.0710580359	-0.266341
C	 4.8298876611	 1.2350366577	-0.1208953299	-0.068046
H	-0.8408349103	 1.9549055531	-0.7035522154	 0.088631
H	 1.2498266428	 2.6562290631	-0.5797872431	 0.257375
H	 3.38023099	 2.9056741282	-0.3130814189	 0.077129
H	 4.4140935587	 3.2847971833	 1.8951772817	 0.108753
H	 3.8971366579	 1.6528940038	 2.4366253556	 0.127427
H	 4.6993775074	 0.1475059572	-0.1425823004	 0.130894
H	 5.3328458032	 1.5751077188	-1.0323194269	 0.108093
24.2113	66.9098	89.8286	181.5056	204.0886	266.4318	289.3336	323.5567	567.6399	611.984	685.4997	749.9596	833.8784	882.2004	932.5697	942.6754	1008.4406	1030.3115	1036.0588	1051.5484	1101.5594	1132.3142	1160.7452	1171.7562	1189.3092	1237.8328	1316.5572	1370.8999	1388.036	1445.6942	1500.7265	1501.514	1526.5772	1806.4718	1872.3964	2921.5925	3023.9078	3034.7237	3070.7649	3081.7568	3093.1277	3614.7467
O=CNC(=O)C1COC1	O=CNC(=O)C1COC1	
InChI=1S/C5H7NO3/c7-3-6-5(8)4-1-9-2-4/h3-4H,1-2H2,(H,6,7,8)	InChI=1S/C5H7NO3/c7-3-6-5(8)4-1-9-2-4/h3-4H,1-2H2,(H,6,7,8)
