12
gdb 130863	4.06094	1.18191	0.91547	1.926	66.46	-0.269	-0.114	0.1551	1141.3297	0.077897	-468.809266	-468.802132	-468.801188	-468.841427	25.569	
O	-0.0328707471	-0.0170708802	-0.0026949776	-0.223036
C	 0.0214949341	 1.1820892846	 0.0072453807	 0.127185
C	 1.2916058543	 1.977338926	 0.0007675986	 0.288017
C	 1.2355328334	 3.3339373124	 0.0130036906	-0.317717
C	 2.4694587277	 4.0951008859	 0.0066236895	 0.495372
O	 2.6183850185	 5.2971931409	 0.0150320508	-0.361359
N	 3.5718561389	 3.2169717778	-0.0127268307	-0.272062
N	 3.5791815219	 1.8750844265	-0.024272784	-0.028562
N	 2.4724624495	 1.2498539137	-0.0178994354	-0.242053
H	-0.8913630542	 1.8171736947	 0.02247623	 0.092576
H	 0.2956819277	 3.875210693	 0.0275283603	 0.150004
H	 4.4966965054	 3.6309928347	-0.0190556929	 0.291635
83.2139	164.8083	201.0836	222.8285	393.7949	414.933	463.7994	550.2067	617.8068	695.2174	765.6283	773.3721	794.926	921.1466	926.5243	1020.1961	1035.3264	1079.2221	1176.0067	1220.784	1355.6345	1395.5978	1432.4478	1537.3284	1623.1102	1816.9097	1831.5892	2895.0004	3200.6787	3583.8409
O=CC1=CC(=O)NN=N1	O=CC1=N[N]NC(=O)[CH]1	
InChI=1S/C4H3N3O2/c8-2-3-1-4(9)6-7-5-3/h1-2H,(H,5,6,9)	InChI=1S/C4H3N3O2/c8-2-3-1-4(9)6-7-5-3/h1-2H,(H,5,6,9)
