18
gdb 70553	2.64116	1.60736	1.20827	4.6355	72.31	-0.2313	0.0152	0.2465	1061.3113	0.148044	-439.100576	-439.092544	-439.0916	-439.132948	31.321	
C	 0.0480181642	 1.3395355303	-0.2203877912	-0.445447
C	-0.0846528708	-0.1256759348	 0.1085623099	 0.417827
C	-0.8474434726	-0.5882462982	 1.3197374148	-0.334629
C	 0.6624678024	-0.7572770776	 1.247085624	-0.072673
N	 1.1705219953	-2.0653687132	 0.9405754477	-0.306373
C	 1.801713301	-2.092595648	-0.3728187806	-0.311076
C	 0.7651359887	-1.766608694	-1.4417737666	 0.430825
O	 0.7679407461	-2.2340138427	-2.5448866478	-0.323999
O	-0.2229335901	-0.9072126464	-1.0721834183	-0.257411
H	 0.939910633	 1.5264935867	-0.8277637365	 0.125394
H	-0.8253807097	 1.6835125587	-0.7829282059	 0.138512
H	 0.1236662401	 1.9337858755	 0.6944111259	 0.120573
H	-1.2648535835	 0.1680920819	 1.9753986729	 0.114183
H	-1.422638812	-1.5005870797	 1.2182331819	 0.132978
H	 1.2856006602	-0.0947788593	 1.8495098664	 0.086351
H	 1.7755368974	-2.4267547406	 1.6655397062	 0.233479
H	 2.6435796335	-1.3845047844	-0.4881037386	 0.110807
H	 2.1783950369	-3.0921746643	-0.5963303642	 0.140681
95.5437	157.6918	211.6724	250.9886	311.7027	396.9359	416.0463	450.1103	479.0139	518.0524	569.9669	645.9522	674.895	794.9907	831.4258	879.65	903.8868	946.338	999.0045	1024.9757	1044.3069	1055.1914	1059.5277	1108.744	1137.0244	1176.2582	1214.2742	1255.3122	1265.678	1304.8698	1336.604	1413.7417	1427.4766	1459.8444	1481.2404	1481.7775	1489.582	1507.9946	1862.0353	2930.6463	3036.6751	3084.4218	3105.0161	3117.6524	3119.1137	3139.8031	3239.4646	3570.698
CC12CC1NCC(=O)O2	C[C@]12C[C@H]1NCC(=O)O2	
InChI=1S/C6H9NO2/c1-6-2-4(6)7-3-5(8)9-6/h4,7H,2-3H2,1H3	InChI=1S/C6H9NO2/c1-6-2-4(6)7-3-5(8)9-6/h4,7H,2-3H2,1H3/t4-,6+/m1/s1
