14
gdb 18609	3.29516	2.10945	1.78689	3.5225	63.5	-0.2431	-0.0614	0.1817	768.6508	0.107889	-382.547495	-382.541015	-382.540071	-382.577996	25.262	
O	 0.1225243944	 1.3754678601	-0.0583638335	-0.406511
C	-0.0229108691	 0.0044773026	 0.0122422492	 0.135224
C	-0.4545831005	-0.7663152052	 1.2518463473	-0.158659
C	-1.176124041	 0.046089864	 2.2705502978	-0.057403
C	-2.3362084168	 0.5401988283	 1.8065664174	-0.240247
C	-2.580234064	 0.0494459557	 0.4171112094	 0.405442
O	-3.5637814621	 0.238374038	-0.2599346028	-0.331659
C	-1.3530920267	-0.7439285248	 0.0222498725	-0.234537
H	-0.5114742512	 1.790163659	 0.5404901894	 0.291126
H	 0.7545457964	-0.4659750152	-0.5815173265	 0.127314
H	 0.1126922548	-1.6378994571	 1.5575098401	 0.106648
H	-0.7543453592	 0.2449919651	 3.2496531483	 0.125767
H	-3.0263857008	 1.1938815966	 2.3238110066	 0.122386
H	-1.4769311841	-1.5842361273	-0.6489800351	 0.115107
126.3487	200.6073	305.4613	357.356	436.5422	505.1115	558.375	628.8873	736.0594	753.6716	783.4989	785.163	851.6526	869.0443	918.7853	977.7627	995.2406	1019.2791	1057.6084	1099.8738	1117.1502	1171.4734	1189.65	1284.3518	1316.9813	1323.3574	1367.1036	1447.8248	1621.1301	1810.4962	3167.8119	3177.9819	3195.3535	3201.5006	3230.6304	3768.4682
OC1C2C=CC(=O)C12	O[C@H]1[C@H]2C=CC(=O)[C@@H]12	
InChI=1S/C6H6O2/c7-4-2-1-3-5(4)6(3)8/h1-3,5-6,8H	InChI=1S/C6H6O2/c7-4-2-1-3-5(4)6(3)8/h1-3,5-6,8H/t3-,5-,6-/m0/s1
