13
gdb 13745	3.17484	1.67963	1.41886	2.6132	60.16	-0.2526	-0.0055	0.2471	889.5665	0.093495	-398.57104	-398.563075	-398.562131	-398.60358	28.717	
N	 0.6972462359	 0.663506856	 0.4844747664	-0.519674
C	-0.3187842382	 0.334007304	-0.3485707413	 0.367098
O	-0.5569325281	 0.8664308386	-1.4144943908	-0.360823
C	-1.1780789676	-0.8118704698	 0.1410891145	-0.028612
O	-0.8095439873	-1.4753720034	 1.3480673006	-0.245536
C	-2.024862821	-0.7046342225	 1.3568210912	-0.146186
C	-2.0720218989	 0.4682719048	 2.1851520196	 0.341803
C	-2.1574080102	 1.4342143064	 2.8947235053	-0.422562
H	 1.2741875971	 1.4567696324	 0.2612834403	 0.266598
H	 0.8064901965	 0.1854004184	 1.3629045048	 0.275183
H	-1.538103164	-1.4502302881	-0.6635375762	 0.128713
H	-2.9260911218	-1.3162689232	 1.3758313091	 0.132762
H	-2.2265079125	 2.2943834164	 3.5144812865	 0.211237
68.8366	111.9444	192.9518	261.3766	269.7978	291.9907	468.7385	492.8388	535.6545	580.1309	626.9846	637.0464	682.363	758.177	786.808	857.8775	933.326	996.9778	1076.7605	1105.9077	1128.7526	1255.7826	1340.7773	1389.0983	1424.8479	1603.0254	1808.9199	2243.4722	3119.978	3143.7043	3500.5235	3602.6517	3741.7415
NC(=O)C1OC1C#C	NC(=O)[C@H]1O[C@H]1C#C	
InChI=1S/C5H5NO2/c1-2-3-4(8-3)5(6)7/h1,3-4H,(H2,6,7)	InChI=1S/C5H5NO2/c1-2-3-4(8-3)5(6)7/h1,3-4H,(H2,6,7)/t3-,4-/m0/s1
