17
gdb 45478	3.06816	1.79512	1.57365	3.1619	72.43	-0.248	0.0095	0.2574	898.8062	0.139884	-418.007299	-418.000917	-417.999973	-418.037983	26.261	
N	-0.106510353	 1.2536718604	-0.5875170768	-0.552325
C	-0.0393396722	 0.0893022496	-0.1021655104	 0.416628
O	 1.1071077734	-0.5159151973	 0.3369569851	-0.25762
C	 0.8212338003	-1.8329928171	 0.8695308813	 0.060824
C	 0.6945277759	-1.6987655187	 2.3885947137	-0.216301
C	-0.6742791227	-0.9920382339	 2.5231973661	-0.173001
N	-1.4869514852	-1.4486028596	 1.3635344755	-0.112998
C	-0.6104581469	-2.1631050352	 0.4324665266	-0.077234
C	-1.1849711361	-0.8545690679	 0.0359864085	-0.106268
H	 0.8198019088	 1.6839049781	-0.6169198322	 0.223517
H	 1.5968422568	-2.5132242379	 0.5167405422	 0.095413
H	 0.660374341	-2.6935070992	 2.8459800276	 0.110731
H	 1.5257564198	-1.1419916052	 2.8266438525	 0.11895
H	-1.2002563517	-1.2742267831	 3.4379076823	 0.116506
H	-0.5735972734	 0.0976412103	 2.5189378126	 0.128798
H	-0.9022007044	-3.1332882808	 0.0465120644	 0.104274
H	-2.0383253604	-0.7123295526	-0.6151906192	 0.120106
127.5112	203.5443	370.6803	388.4767	444.8103	595.3433	628.3758	693.6379	702.072	770.3351	831.9993	845.5649	866.3941	876.7634	897.0191	917.5936	939.399	950.0563	998.9286	1009.6727	1052.8111	1074.4997	1099.8997	1119.0905	1193.5913	1213.3656	1243.1232	1269.0805	1290.2069	1299.8086	1331.2243	1341.3771	1366.4898	1389.0245	1477.125	1514.1245	1771.5294	3053.2688	3059.3603	3103.397	3116.7279	3120.6298	3174.1771	3198.8651	3471.0116
N=C1OC2CCN3C2C13	[NH][C]1O[C@H]2CCN3[C@H]2[C@H]13	
InChI=1S/C6H8N2O/c7-6-5-4-3(9-6)1-2-8(4)5/h3-5,7H,1-2H2	InChI=1S/C6H8N2O/c7-6-5-4-3(9-6)1-2-8(4)5/h3-5,7H,1-2H2/t3-,4+,5+,8?/m0/s1
