17
gdb 99075	3.31996	0.83855	0.77137	3.7604	71.13	-0.2778	0.0174	0.2952	1522.1352	0.134383	-455.199843	-455.189661	-455.188717	-455.236505	34.414	
C	 0.192095	 1.2711395959	-0.2350842094	-0.236194
O	-0.0727985361	-0.0875829335	 0.1326799814	-0.26601
C	 0.6850948042	-0.5558590403	 1.1470386472	 0.541243
O	 1.5352450976	 0.076915988	 1.7311661818	-0.409993
N	 0.3282742408	-1.8471395032	 1.4304279355	-0.368608
C	 1.0810978445	-2.6382452132	 2.3843058332	-0.101848
C	 0.1928535003	-3.2143524912	 3.4986604443	-0.388499
C	 1.8223546053	-3.7174152775	 1.7007347349	 0.265128
N	 2.3763409843	-4.5774535508	 1.1636170147	-0.315395
H	 1.2302118774	 1.3897392526	-0.5543906966	 0.145701
H	-0.4871766602	 1.4888504994	-1.0592593533	 0.135857
H	 0.0009501853	 1.9439146264	 0.6045335323	 0.142665
H	-0.3235810761	-2.3025355835	 0.8113777132	 0.264337
H	 1.813683096	-1.9486748626	 2.8157432074	 0.172502
H	-0.5730730204	-3.8763302268	 3.0848044801	 0.134354
H	 0.7940349598	-3.7886562784	 4.2080304912	 0.14456
H	-0.2974893227	-2.3934930414	 4.0266258421	 0.1402
29.809	63.7047	106.4364	146.7412	153.3637	191.9156	230.2567	277.037	333.1983	366.1623	451.1423	473.1315	562.9024	600.1047	721.2166	780.6331	832.6155	928.9807	973.5983	1066.1673	1102.3976	1127.9912	1183.0559	1192.426	1218.7143	1250.1451	1333.82	1351.4708	1408.8765	1468.5947	1482.6727	1488.3247	1492.763	1500.2491	1537.9792	1815.5726	2357.4839	3050.3311	3054.2591	3080.0863	3128.4073	3130.3463	3139.7208	3160.3287	3642.2789
COC(=O)NC(C)C#N	COC(=O)N[C@@H](C)C#N	
InChI=1S/C5H8N2O2/c1-4(3-6)7-5(8)9-2/h4H,1-2H3,(H,7,8)	InChI=1S/C5H8N2O2/c1-4(3-6)7-5(8)9-2/h4H,1-2H3,(H,7,8)/t4-/m0/s1
