18
gdb 106636	2.93106	1.29289	1.07847	3.9812	72.82	-0.2417	0.0098	0.2515	1150.6676	0.146591	-439.078444	-439.069378	-439.068434	-439.112154	33.607	
C	 0.4990463697	 1.338752325	 0.0071348049	-0.499243
C	 0.0348904973	-0.0818746847	 0.1335216575	 0.111103
C	 0.9212275034	-1.3060319158	-0.1657914023	-0.377994
C	 0.2959220991	-1.1497618542	 1.1875731037	 0.307777
C	 1.0127830516	-1.0473260699	 2.5089256834	-0.175093
O	 2.3108279375	-0.4915227225	 2.3794209694	-0.403171
N	-1.1248322692	-1.5283610321	 1.1537924853	-0.407284
C	-1.3977809089	-0.5986380638	 0.1219801435	 0.390943
O	-2.4032166098	-0.3595431882	-0.4833166185	-0.341129
H	 1.5325017383	 1.4364506405	 0.3498966252	 0.13851
H	 0.4434893258	 1.678602489	-1.0322321404	 0.134062
H	-0.121635189	 2.0093065024	 0.6096570256	 0.132527
H	 0.5829188028	-2.0866293644	-0.8418890954	 0.117525
H	 1.9762157506	-1.0582482219	-0.2488389781	 0.11671
H	 0.4509222458	-0.3823050109	 3.1730323835	 0.129865
H	 1.0438794774	-2.0355375287	 2.9949097757	 0.098055
H	 2.885328483	-1.1643310181	 2.0011413478	 0.290664
H	-1.4418871553	-2.4918931715	 1.1068354791	 0.236174
80.2781	135.8955	158.6666	173.2129	218.5775	274.2442	307.0869	358.0758	392.1827	466.263	545.2222	597.0771	679.0245	691.7496	739.508	766.753	833.92	905.244	969.4166	980.2769	1015.0629	1052.2597	1077.7208	1094.7024	1110.2232	1179.8038	1198.8768	1216.8337	1319.3378	1334.2259	1390.5921	1397.8878	1412.9488	1423.409	1486.1508	1493.9484	1497.924	1506.9151	1896.3563	2978.482	3038.613	3075.4312	3100.8325	3108.8717	3120.0149	3197.8552	3523.3634	3824.773
CC12CC1(CO)NC2=O	C[C@@]12C[C@]1(CO)NC2=O	
InChI=1S/C6H9NO2/c1-5-2-6(5,3-8)7-4(5)9/h8H,2-3H2,1H3,(H,7,9)	InChI=1S/C6H9NO2/c1-5-2-6(5,3-8)7-4(5)9/h8H,2-3H2,1H3,(H,7,9)/t5-,6+/m0/s1
