19
gdb 60317	3.92868	0.67811	0.61078	1.3811	79.88	-0.2628	-0.0541	0.2087	1809.5013	0.154889	-423.009673	-422.999052	-422.998108	-423.046556	37.578	
C	 0.086820852	 1.5358119872	 0.0544222318	-0.404449
C	 0.0048799568	 0.0101922865	 0.0329510938	 0.124955
O	 0.6573423368	-0.5596429649	 1.1686494149	-0.42866
C	-1.439928063	-0.4916909596	-0.0872113097	-0.198622
C	-1.5218158167	-2.0148954737	-0.159120039	-0.304418
C	-2.9360233438	-2.5544983507	-0.0740442446	 0.225045
O	-3.9118757285	-1.8564899497	 0.1016064123	-0.291947
C	-3.0556567607	-3.9993818106	-0.2118303449	 0.247243
C	-3.134440803	-5.1948202674	-0.3291119627	-0.392264
H	 1.1256525254	 1.8591137736	 0.1617809213	 0.124726
H	-0.3200102485	 1.9678156543	-0.865391851	 0.119371
H	-0.4892250239	 1.9433071354	 0.8949137244	 0.109438
H	 0.5840072099	-0.3648182043	-0.8210636768	 0.087547
H	 0.2466032221	-0.1850501635	 1.9564343203	 0.277499
H	-2.02111502	-0.1369316045	 0.7733941854	 0.106474
H	-1.9129126486	-0.0478358377	-0.9704789909	 0.108639
H	-1.067121734	-2.4019790942	-1.0813409233	 0.127867
H	-0.9357957144	-2.4631370141	 0.653985936	 0.148369
H	-3.2223021478	-6.2493891519	-0.4302606473	 0.213187
32.3393	60.9566	91.8484	131.9827	181.8894	241.505	245.6741	256.9719	317.0344	340.235	450.3618	470.7899	514.4426	569.3156	610.3463	643.3322	703.0256	774.9981	814.5845	878.3203	938.695	960.3405	1039.8754	1067.7775	1089.789	1111.1402	1152.3212	1174.6547	1269.7882	1293.1871	1337.567	1362.9167	1393.7491	1405.3258	1421.1321	1447.7168	1478.0354	1494.1833	1495.8663	1767.0181	2210.8744	3022.4407	3023.8249	3026.3174	3038.3917	3054.3405	3078.3031	3096.4749	3120.0687	3495.0279	3791.5059
CC(O)CCC(=O)C#C	C[C@@H](O)CCC(=O)C#C	
InChI=1S/C7H10O2/c1-3-7(9)5-4-6(2)8/h1,6,8H,4-5H2,2H3	InChI=1S/C7H10O2/c1-3-7(9)5-4-6(2)8/h1,6,8H,4-5H2,2H3/t6-/m1/s1
