13
gdb 20677	3.37783	2.25157	1.3623	2.564	63.18	-0.2516	-0.0673	0.1843	837.568	0.095568	-398.598598	-398.591798	-398.590854	-398.629665	24.849	
C	-0.0265077932	 1.5106703296	 0.0184995493	-0.481745
C	-0.0058112347	 0.0135553314	-0.0092820031	 0.081799
C	-0.0436872607	-0.7092514301	-1.148163106	 0.048649
O	-0.027571229	-2.0526700362	-1.2317040283	-0.228034
N	 0.032593043	-2.8260827252	-0.0836281263	-0.049925
C	 0.0708981279	-2.1927790202	 1.0354990538	-0.043367
C	 0.0582175254	-0.729586203	 1.2404970913	 0.293928
O	 0.0983771021	-0.2315380357	 2.3555337563	-0.354268
H	 0.8669939236	 1.8941813056	 0.5216335027	 0.152681
H	-0.0760252986	 1.9343998984	-0.9876320131	 0.122423
H	-0.8842672751	 1.8685282768	 0.5970673247	 0.152695
H	-0.0923419376	-0.2791311903	-2.1436331617	 0.148952
H	 0.1177776369	-2.831215921	 1.9140293502	 0.156211
123.7817	149.126	265.5512	265.9062	414.7283	433.408	494.9709	542.7047	597.9593	749.9444	777.1141	857.7516	885.3926	922.1298	961.0351	1022.7107	1065.4806	1154.3627	1170.0213	1285.1988	1329.7754	1414.4043	1424.5493	1469.0824	1486.4669	1624.993	1671.002	1749.9807	3041.7153	3100.2665	3125.7463	3180.5571	3191.7787
CC1=CON=CC1=O	Cc1concc1=O	
InChI=1S/C5H5NO2/c1-4-3-8-6-2-5(4)7/h2-3H,1H3	InChI=1S/C5H5NO2/c1-4-3-8-6-2-5(4)7/h2-3H,1H3
