16
gdb 24232	3.96664	1.5918	1.23772	3.4643	74.35	-0.2052	0.0316	0.2367	972.3022	0.129243	-396.937138	-396.930828	-396.929884	-396.967661	25.869	
C	-0.0674029912	 1.5401214269	-0.0065311469	-0.361931
C	 1.4402566223	 1.8829478953	-0.0328351963	-0.019322
N	 2.1910661055	 1.4381869519	 1.1572781001	-0.32914
C	 2.264892864	 0.6326653841	-0.0970130386	-0.207917
C	 1.2703301872	-0.4666236864	-0.0995752662	 0.334892
C	 0.0055494587	 0.0426806243	-0.0276667773	 0.292105
N	-0.820631444	-1.0466022759	 0.0736394108	-0.372428
C	-0.0019347559	-2.1536662574	 0.0283551864	-0.015708
N	 1.2729107377	-1.8366696895	-0.068979466	-0.351189
H	-0.544000219	 1.9448988925	 0.8937399974	 0.124009
H	-0.5839561338	 1.9658926367	-0.8765660244	 0.108131
H	 1.7516470894	 2.7930182077	-0.5342555902	 0.088177
H	 3.0335185231	 2.0063468634	 1.2355158399	 0.226571
H	 3.2026215054	 0.5799216728	-0.638346885	 0.094148
H	-1.8246525004	-1.0571603226	 0.1367458217	 0.264227
H	-0.4036337591	-3.1555750339	 0.0602288747	 0.125376
157.1995	226.3203	352.6194	427.4485	462.0542	511.3653	600.7736	662.9497	708.7467	745.8435	780.8805	791.6489	812.7284	848.6423	885.5283	926.344	965.5703	997.3201	1059.4256	1082.0457	1112.0563	1137.166	1172.9128	1182.4358	1222.4161	1246.7253	1298.9559	1303.6952	1373.2997	1376.7664	1430.4888	1450.3303	1476.906	1520.9263	1607.121	3018.897	3060.6179	3165.3259	3180.0316	3250.0517	3472.3036	3666.1869
C1C2NC2C2=C1NC=N2	C1[C@H]2N[C@H]2c2c1[nH]cn2	
InChI=1S/C6H7N3/c1-3-5(8-2-7-3)6-4(1)9-6/h2,4,6,9H,1H2,(H,7,8)	InChI=1S/C6H7N3/c1-3-5(8-2-7-3)6-4(1)9-6/h2,4,6,9H,1H2,(H,7,8)/t4-,6-/m1/s1
