18
gdb 70960	3.91492	1.23631	1.10849	4.5044	81.36	-0.2656	0.02	0.2856	1131.2654	0.148397	-364.787418	-364.779671	-364.778727	-364.819332	30.6	
C	-0.0874295544	 1.4704239195	-0.0046585173	-0.505591
C	 0.0356694044	-0.023468212	-0.0087555005	 0.33948
C	 0.9536891666	-0.8672685801	-0.8937301323	-0.318395
C	 0.092368977	-2.089288809	-0.4492919339	 0.19995
C	 0.4072493314	-2.2283074626	 1.073131589	-0.274263
C	-0.2954873624	-0.8837028817	 1.2264195539	-0.113812
C	-1.0615851527	-1.0607158489	-0.0646247459	-0.162885
C	-0.0443872412	-3.2470796379	-1.2902027183	 0.156316
N	-0.1613237831	-4.177870472	-1.9674456322	-0.346334
H	 0.8187944637	 1.9423027684	 0.3921789164	 0.126332
H	-0.2510414382	 1.8579242997	-1.0161985784	 0.125007
H	-0.9287475697	 1.7956278687	 0.6163562714	 0.123809
H	 0.8041826853	-0.6383883433	-1.9519890196	 0.117727
H	 2.0249908927	-0.9163198959	-0.6688391757	 0.102081
H	-0.1694591308	-3.0383878592	 1.5252374986	 0.12187
H	 1.4635060292	-2.3211145332	 1.3467981753	 0.105135
H	-0.6506264036	-0.4242291523	 2.139490222	 0.096182
H	-2.111762774	-1.0203131883	-0.3142920626	 0.107392
134.6177	149.7923	213.1729	262.3005	296.6007	410.4588	438.0131	491.1699	547.2257	556.424	613.3382	736.6045	745.2145	829.0942	878.497	908.2611	910.9254	955.9939	968.6777	986.6274	1027.7409	1043.8279	1078.2507	1104.354	1121.7724	1152.2441	1162.8428	1197.8544	1238.9269	1245.0489	1291.941	1316.2436	1407.3311	1430.3838	1487.025	1492.6678	1498.9332	1510.7133	2349.0603	3025.7995	3037.8639	3047.2946	3087.5956	3097.2351	3107.0574	3114.563	3202.9132	3228.1101
CC12CC3(CC1C23)C#N	C[C@@]12C[C@]3(C[C@@H]1[C@@H]23)C#N	
InChI=1S/C8H9N/c1-7-3-8(4-9)2-5(7)6(7)8/h5-6H,2-3H2,1H3	InChI=1S/C8H9N/c1-7-3-8(4-9)2-5(7)6(7)8/h5-6H,2-3H2,1H3/t5-,6+,7-,8-/m1/s1
