20
gdb 40318	3.12558	1.24946	1.06777	1.6098	78.75	-0.2257	0.0867	0.3124	1194.3428	0.170214	-403.069575	-403.061036	-403.060091	-403.103016	32.789	
C	 0.2029764877	 1.4184224948	 0.0323330993	-0.172422
O	 1.0468575634	 0.3270693664	-0.360980838	-0.241504
C	-0.2630023944	 0.0315734834	 0.1179696676	 0.037065
C	-0.3650632791	-0.7053198951	 1.4256179703	 0.319899
C	 0.5072948051	-1.933053354	 1.5981873362	-0.322845
C	 0.7989822975	-0.6607327031	 2.3668072355	-0.310109
N	-1.7160307074	-0.5945995806	 1.9364445706	-0.124476
C	-2.6726929342	-1.6453007117	 1.5866002961	-0.226541
C	-2.1870018353	-1.4879023196	 2.9842599772	-0.234527
H	 0.5045789534	 1.9331056112	 0.9423610607	 0.117738
H	-0.1362507588	 2.0573820017	-0.7810146802	 0.115819
H	-0.9514411186	-0.3219618246	-0.652031057	 0.090734
H	 0.1255152127	-2.7877895378	 2.1455892367	 0.111086
H	 1.1712756365	-2.1863806378	 0.7791815195	 0.12777
H	 1.667786134	-0.0846314492	 2.0703947114	 0.13063
H	 0.5755296843	-0.649981578	 3.4280968933	 0.113475
H	-3.6647587315	-1.3074409831	 1.3015589589	 0.117474
H	-2.2991316142	-2.5052052255	 1.0338682724	 0.115785
H	-1.5216174792	-2.257187599	 3.3692854049	 0.116094
H	-2.814424142	-1.0206878985	 3.7381663445	 0.118856
77.4943	80.5204	186.6947	223.3557	259.0246	279.9327	342.35	462.592	474.3759	562.7156	641.8713	767.8001	796.5121	823.465	872.1528	891.7049	904.5504	911.8086	950.9886	965.3897	996.0594	1040.4423	1053.3825	1062.5845	1090.3102	1098.9648	1113.1265	1122.4429	1151.7831	1172.0618	1173.6709	1180.0034	1194.7537	1226.5654	1282.941	1328.7184	1360.3516	1441.3573	1450.3717	1484.9792	1498.5806	1522.1347	1527.8675	3088.4314	3094.2262	3099.8682	3104.852	3135.8938	3137.9963	3179.6705	3182.6148	3194.229	3217.1721	3231.6325
C1OC1C1(CC1)N1CC1	C1O[C@H]1C1(CC1)N1CC1	
InChI=1S/C7H11NO/c1-2-7(1,6-5-9-6)8-3-4-8/h6H,1-5H2	InChI=1S/C7H11NO/c1-2-7(1,6-5-9-6)8-3-4-8/h6H,1-5H2/t6-/m1/s1
