21
gdb 84437	2.45985	1.62597	1.22069	1.1903	83.31	-0.2243	0.0189	0.2433	1112.3295	0.181364	-387.091697	-387.082533	-387.081589	-387.124676	36.023	
C	-0.1571583775	 1.5569719891	 0.0356598069	-0.394488
C	 0.022293612	 0.0323356525	-0.0151836771	-0.095977
C	 0.8245017905	-0.4586908253	-1.2074512344	-0.079541
C	 1.8196656896	-1.2719065109	-0.8527341288	-0.154401
C	 1.8954761412	-1.4215919786	 0.6343312807	 0.332528
O	 2.1949639687	-2.6664993449	 1.1905646499	-0.474852
C	 2.2175829272	-0.1466828373	 1.3862172082	-0.397314
C	 0.7687964885	-0.5689243576	 1.1878889513	 0.291662
C	-0.0284602048	-0.9957919935	 2.3958897078	-0.481651
H	 0.8078189513	 2.0707366433	 0.0842124619	 0.116764
H	-0.6844379156	 1.9186128824	-0.8534513589	 0.1109
H	-0.7421817021	 1.8521882217	 0.9127503274	 0.115524
H	-0.9844017078	-0.4122328356	-0.05596245	 0.0784
H	 0.598994956	-0.1422128405	-2.2204095915	 0.091807
H	 2.5206806264	-1.7594343417	-1.5215071748	 0.091462
H	 3.1481103342	-2.7184615447	 1.3146751887	 0.283507
H	 2.5960978173	-0.2634696826	 2.3980296466	 0.105036
H	 2.6316616015	 0.6910988014	 0.8347807803	 0.107369
H	-0.4304410254	-0.1309490535	 2.9369469962	 0.111962
H	-0.8736035041	-1.6296035859	 2.1042026903	 0.117169
H	 0.5909586529	-1.5723031978	 3.0880831493	 0.124133
130.4007	172.9328	201.3836	222.7323	230.1001	253.2363	291.0482	323.9316	406.3777	435.4151	505.8991	560.6378	575.7957	690.4384	727.629	750.0654	784.6419	850.8036	909.8443	925.5925	954.5397	963.9927	972.5791	1034.1757	1049.7586	1065.1924	1092.6604	1113.9684	1132.245	1171.9069	1221.119	1245.8054	1299.5712	1325.2792	1332.1827	1383.119	1397.6053	1410.0082	1417.6326	1476.4391	1489.4283	1496.8008	1498.9275	1500.5031	1670.4172	2978.7702	3024.4078	3032.7632	3081.0095	3098.3256	3107.2957	3111.8542	3116.1778	3177.2801	3202.8128	3206.0378	3808.0263
CC1C=CC2(O)CC12C	C[C@H]1C=C[C@@]2(O)C[C@@]12C	
InChI=1S/C8H12O/c1-6-3-4-8(9)5-7(6,8)2/h3-4,6,9H,5H2,1-2H3	InChI=1S/C8H12O/c1-6-3-4-8(9)5-7(6,8)2/h3-4,6,9H,5H2,1-2H3/t6-,7-,8+/m0/s1
