16
gdb 19537	4.43343	1.73939	1.6356	0.7645	77.14	-0.2231	0.0375	0.2607	844.5931	0.131403	-309.387969	-309.38146	-309.380515	-309.418319	26.429	
C	-0.081433209	-1.2168459641	 0.0027973366	-0.376785
C	-0.0465119309	-0.012133042	 0.0055904515	-0.003562
C	 0.0187106748	 1.3943398399	 0.0087558664	 0.34591
C	-0.7372084887	 2.4670581785	 0.7873344483	-0.118853
C	 0.5655039382	 3.1285535739	 1.2296615723	-0.230258
C	 1.2153489831	 2.4516157119	-0.0062062828	-0.119238
C	 0.5285221088	 3.1357836017	-1.2178570927	-0.230258
C	-0.7602864445	 2.4715571812	-0.7403013657	-0.11885
H	-0.1168541265	-2.277540178	 0.0005080605	 0.173869
H	-1.6443355716	 2.3191707051	 1.3586078783	 0.099164
H	 0.6091861229	 4.2226401405	 1.2811843892	 0.09097
H	 0.9282376165	 2.6989263457	 2.1668710738	 0.107706
H	 2.2741771927	 2.2055589212	-0.0229312749	 0.082348
H	 0.5707158043	 4.2301600233	-1.2642086392	 0.09097
H	 0.8627408157	 2.7117382901	-2.1681200694	 0.107703
H	-1.6842656358	 2.3269521511	-1.2847788422	 0.099163
139.2858	165.2258	401.8913	403.8783	487.9657	530.4497	550.081	557.3012	651.4856	718.3934	726.204	816.2347	880.2177	883.7615	915.7257	958.1359	967.4944	985.935	1016.1489	1018.9245	1069.4022	1094.2735	1127.869	1130.8013	1182.8025	1224.5468	1224.9036	1253.0047	1292.4771	1321.9378	1416.973	1491.8735	1509.5586	2226.3447	3031.0289	3037.7163	3101.5973	3103.6972	3149.6324	3199.8482	3209.849	3504.3674
C#CC12C3CC1CC23	C#C[C@@]12[C@H]3C[C@@H]1C[C@@H]23	
InChI=1S/C8H8/c1-2-8-5-3-6(8)7(8)4-5/h1,5-7H,3-4H2	InChI=1S/C8H8/c1-2-8-5-3-6(8)7(8)4-5/h1,5-7H,3-4H2/t5-,6+,7-,8+
