13
gdb 131980	2.81111	1.67844	1.05206	6.3907	66.92	-0.2235	-0.0723	0.1512	1026.7808	0.091128	-485.996072	-485.988779	-485.987835	-486.028031	27.409	
N	-0.0217841212	 1.4565980133	 0.17141416	-0.617326
C	-0.007646438	 0.085646174	 0.0527357339	 0.173864
C	-1.0710843841	-0.8046691586	 0.0261463605	-0.097909
N	-0.5212123306	-2.0538046618	-0.0283083858	-0.167197
N	 0.8004007232	-2.07137087	-0.03829065	-0.259675
C	 1.1245012712	-0.7766620586	 0.0073918265	 0.383759
N	 2.4997428778	-0.3749696094	-0.0132394107	 0.378373
O	 3.3695524462	-1.2285649425	-0.0372865371	-0.347344
O	 2.7094813218	 0.8466639402	-0.0110706249	-0.408835
H	 0.8672579592	 1.8804936329	-0.054899546	 0.277059
H	-0.8241374118	 1.926159908	-0.2185161812	 0.251998
H	-2.1366863081	-0.647358306	 0.0467875464	 0.142217
H	-1.0139322055	-2.9317063414	-0.0593501114	 0.291017
80.8716	201.5486	240.3604	321.5118	354.0946	375.9137	456.3102	560.6769	563.1607	596.0963	665.9123	686.5701	718.8626	739.4342	798.753	855.8142	942.9045	1079.3101	1103.6525	1212.6348	1266.567	1359.4024	1386.4716	1407.7309	1453.7697	1521.8396	1582.6389	1641.132	1658.3188	3273.7476	3559.5456	3659.3694	3675.611
NC1=CNN=C1N(=O)=O	Nc1c[nH]nc1N(=O)=O	
InChI=1S/C3H4N4O2/c4-2-1-5-6-3(2)7(8)9/h1H,4H2,(H,5,6)	InChI=1S/C3H4N4O2/c4-2-1-5-6-3(2)7(8)9/h1H,4H2,(H,5,6)
