18
gdb 79299	3.75396	1.22473	1.12796	4.5705	82.31	-0.2593	0.018	0.2772	1132.7571	0.149144	-364.786582	-364.778923	-364.777979	-364.818648	29.961	
C	 0.0038636371	 1.6089653017	 0.0040102878	-0.429517
C	 0.0965366511	 0.0893551759	 0.0101970047	 0.034604
C	 0.8032574375	-0.659657564	-1.1245404451	-0.133538
C	 2.279566744	-0.7940052275	-0.7600667252	-0.118917
C	 2.4936609333	-0.1352327973	 0.6018136876	-0.23828
C	 1.0785818618	-0.655524342	 0.9692872448	-0.139719
C	 1.2535574079	-1.7543712585	-0.167122345	 0.295524
C	 1.130398057	-3.1586591337	-0.2051806066	 0.113332
N	 1.0256223951	-4.3129645725	-0.2196939614	-0.36838
H	 0.9697210248	 2.0841459179	-0.1871913967	 0.122079
H	-0.6873231565	 1.9460703676	-0.7758968901	 0.122714
H	-0.3740697068	 1.9812968989	 0.9626219145	 0.121357
H	-0.9004945725	-0.3451563716	 0.1402892297	 0.088544
H	 0.4655781589	-0.8078169093	-2.1423935566	 0.108595
H	 3.0189761946	-1.0405581508	-1.5106049876	 0.111696
H	 3.2667389601	-0.6595762863	 1.1685187056	 0.117371
H	 2.6735168837	 0.9428680804	 0.6476994335	 0.101283
H	 0.803896199	-0.857211839	 2.0016929563	 0.091255
109.8333	147.5701	189.172	255.8253	292.5359	432.0892	472.8154	535.5213	567.4984	612.0157	669.8325	730.1974	788.2794	854.2389	889.8035	916.4371	941.7522	963.24	988.9668	1013.2662	1032.2186	1057.6086	1090.4714	1100.1363	1115.5251	1135.3918	1171.1906	1202.0436	1229.5355	1255.7865	1290.8987	1326.1617	1387.2091	1408.5629	1425.0633	1490.3078	1494.0596	1513.0739	2336.9577	3034.6348	3050.9828	3056.6971	3096.6534	3110.3899	3117.7769	3151.8392	3201.4071	3212.9739
CC1C2C3CC1C23C#N	C[C@H]1[C@H]2[C@H]3C[C@@H]1[C@@]23C#N	
InChI=1S/C8H9N/c1-4-5-2-6-7(4)8(5,6)3-9/h4-7H,2H2,1H3	InChI=1S/C8H9N/c1-4-5-2-6-7(4)8(5,6)3-9/h4-7H,2H2,1H3/t4-,5+,6-,7+,8-/m1/s1
