14
gdb 129828	3.21751	1.40438	0.97905	6.7883	69.86	-0.2148	-0.0226	0.1921	1110.3959	0.102838	-470.03679	-470.028999	-470.028055	-470.06883	29.96	
N	 0.0975800345	 1.3690341049	 0.1601281875	-0.587466
C	-0.0136179003	-0.0124979297	 0.0562649416	 0.458783
C	-1.1965078137	-0.7033933716	 0.0229751077	-0.342371
C	-1.2158217353	-2.1409226939	-0.001903284	 0.324559
O	-2.2085496241	-2.8545459007	-0.0283026327	-0.386276
C	 0.1662113116	-2.718341525	-0.0134468126	 0.323705
O	 0.2339750404	-4.0563868451	-0.0510233943	-0.380773
N	 1.270388265	-2.0463013265	 0.0122188818	-0.308715
N	 1.1626247727	-0.6896176873	 0.035599473	-0.299896
H	 0.8173073628	 1.7827921598	-0.4183692307	 0.256516
H	-0.783385188	 1.8467791574	 0.0355686876	 0.267083
H	-2.1403627651	-0.1728259513	 0.0026106191	 0.102483
H	 1.1715853305	-4.2954341589	-0.0522986712	 0.301198
H	 2.0331775493	-0.214805512	 0.2079357172	 0.271169
114.5296	180.9777	260.7061	322.1631	339.5351	350.6586	420.6416	462.8602	474.5783	526.0252	562.3809	606.5109	624.6873	704.9784	715.1264	783.3399	819.811	846.926	1016.405	1100.783	1155.2187	1245.0401	1252.6169	1295.6582	1415.2194	1446.6247	1564.7759	1631.1467	1655.2594	1668.4404	1743.9364	3209.1978	3552.0885	3652.3805	3653.6404	3765.5832
NC1=CC(=O)C(O)=NN1	Nc1cc(=O)c(O)n[nH]1	
InChI=1S/C4H5N3O2/c5-3-1-2(8)4(9)7-6-3/h1H,(H,7,9)(H3,5,6,8)	InChI=1S/C4H5N3O2/c5-3-1-2(8)4(9)7-6-3/h1H,(H,7,9)(H3,5,6,8)
