20
gdb 121659	5.02109	0.66596	0.60742	2.0806	78.32	-0.2484	0.0052	0.2536	1849.4021	0.168784	-440.271096	-440.260888	-440.259944	-440.308114	34.831	
C	-0.195299636	 1.2804910855	-0.0424713495	-0.228278
O	 0.0358155775	-0.1067997654	-0.003319798	-0.236701
C	 0.6587854542	-0.5885148865	-1.1749524886	-0.048143
C	 0.861315639	-2.0870619912	-1.0063003255	-0.323535
C	 1.4976341055	-2.7258422863	-2.2273587309	 0.371789
O	 1.768978079	-2.1153500491	-3.2387460899	-0.336851
N	 1.8298041263	-4.0719200097	-2.0608355306	-0.077376
C	 0.8741364068	-5.1543191777	-1.9006177097	-0.234083
C	 1.7252163098	-5.0339863628	-3.1307796458	-0.216788
H	 0.7428727458	 1.8492084881	-0.1427656551	 0.104971
H	-0.855039942	 1.5622631892	-0.8786558708	 0.103951
H	-0.6781020532	 1.5594446265	 0.8974232817	 0.12478
H	 0.0408398433	-0.3840657153	-2.0628303541	 0.100761
H	 1.6259115905	-0.0889342629	-1.3411354941	 0.101916
H	 1.4839300637	-2.2920842911	-0.1286108866	 0.139453
H	-0.1041455402	-2.5680094564	-0.8052223481	 0.12798
H	 1.1096167503	-5.8918844729	-1.1383269044	 0.129518
H	-0.1830723125	-4.9181864384	-1.9991686914	 0.129749
H	 1.2516196985	-4.697683798	-4.0490939921	 0.138402
H	 2.5781491037	-5.6932284458	-3.2624414065	 0.128486
30.0129	66.5574	94.5214	114.2182	120.7211	207.8807	228.3361	238.5923	313.747	361.4742	499.262	588.3774	612.5996	785.9037	809.0156	822.125	932.8771	974.7029	995.5438	1042.7043	1079.9782	1082.4983	1124.8189	1131.7402	1137.4009	1165.7575	1171.8739	1178.17	1181.8165	1221.2686	1232.8438	1297.4404	1317.03	1398.3391	1427.4651	1463.418	1484.0885	1485.6469	1497.4961	1505.4495	1524.3591	1526.8395	1783.5098	2966.7465	2983.8707	3008.6192	3013.4615	3042.0352	3082.8763	3104.6183	3112.2417	3117.3263	3189.4434	3208.1122
COCCC(=O)N1CC1	COCCC(=O)N1CC1	
InChI=1S/C6H11NO2/c1-9-5-2-6(8)7-3-4-7/h2-5H2,1H3	InChI=1S/C6H11NO2/c1-9-5-2-6(8)7-3-4-7/h2-5H2,1H3
