16
gdb 17126	6.66103	1.1576	1.05567	4.348	65.6	-0.2697	0.0144	0.2841	1096.9899	0.130801	-383.75649	-383.749254	-383.74831	-383.788561	26.803	
O	 0.1651419657	 0.2005104028	-0.5632323971	-0.31629
C	 0.0161013827	 1.2434286594	-0.0132038087	 0.444991
C	-1.1366099585	 2.1695721089	 0.373994494	-0.439865
C	-0.0196446936	 3.041710081	 0.9834683736	 0.12803
O	 0.9817510337	 2.0506073726	 0.5299698845	-0.251991
C	 0.2216912016	 4.3990735504	 0.4101483326	 0.013539
C	-0.3167000595	 5.6113608212	 1.1359191481	-0.272606
C	 1.1652744976	 5.3516232008	 1.1009003084	-0.2652
H	-1.6661338537	 2.6059314806	-0.4751343291	 0.142799
H	-1.8551903092	 1.7327875229	 1.06895977	 0.14334
H	-0.0167405937	 3.0677544172	 2.0774726692	 0.093125
H	 0.2045757383	 4.4320926796	-0.6759169218	 0.09353
H	-0.718715121	 6.421370769	 0.5386825998	 0.122179
H	-0.8387670869	 5.4512636528	 2.0736406036	 0.117549
H	 1.6454524801	 5.0140569522	 2.0131718252	 0.123149
H	 1.7880062664	 5.9843259087	 0.4793794077	 0.123721
76.5913	91.8812	188.2838	288.9913	369.3385	418.375	521.3142	540.7461	737.4662	780.4101	808.3762	832.4595	892.3602	919.8931	941.1609	963.7646	981.2835	1050.9001	1063.9342	1083.1228	1102.56	1127.9137	1141.0383	1196.7406	1219.2548	1224.2667	1239.4022	1297.677	1326.7188	1442.7495	1458.7847	1471.4107	1507.1341	1939.3314	3065.1328	3089.012	3135.7049	3140.2934	3145.2814	3148.194	3215.6021	3230.3342
O=C1CC(O1)C1CC1	O=C1C[C@@H](O1)C1CC1	
InChI=1S/C6H8O2/c7-6-3-5(8-6)4-1-2-4/h4-5H,1-3H2	InChI=1S/C6H8O2/c7-6-3-5(8-6)4-1-2-4/h4-5H,1-3H2/t5-/m1/s1
