19
gdb 57110	2.95028	1.13	0.87222	1.3286	76.66	-0.2508	0.0257	0.2765	1314.4665	0.158567	-422.986752	-422.977514	-422.97657	-423.02161	33.934	
O	-0.1896967062	 1.3757942616	 0.0633897562	-0.418185
C	 0.0345162056	-0.0304390899	 0.0906353706	-0.065312
C	 0.5610590012	-0.5130076664	-1.1906948026	 0.291251
C	 1.041163053	-0.8781177317	-2.2309899907	-0.441351
C	 0.94570102	-0.4530624152	 1.2618192934	-0.01323
C	 0.3798958326	-0.0274050788	 2.6406773597	-0.247242
C	-0.0418144122	-1.3633474552	 3.2676541303	-0.079847
O	 0.8837250042	-2.3122972502	 2.7613511502	-0.241842
C	 1.0706672092	-1.9972759764	 1.3908723997	-0.096297
H	 0.6231281906	 1.7939977823	-0.2424408023	 0.284828
H	-0.9605436234	-0.4652322689	 0.2530840805	 0.117927
H	 1.4437170537	-1.2075604888	-3.1571946062	 0.202296
H	 1.9291933939	-0.0042628751	 1.0911707729	 0.077723
H	 1.163007205	 0.4389280436	 3.2438019971	 0.105113
H	-0.4387307068	 0.6890727649	 2.544548067	 0.119876
H	 0.0167369526	-1.3826613626	 4.3587025985	 0.109656
H	-1.0717501938	-1.6289202299	 2.9732332991	 0.086401
H	 0.304086743	-2.4940568006	 0.7729422589	 0.094179
H	 2.0463019977	-2.3815600128	 1.0856673176	 0.114056
41.4291	73.0537	122.6193	216.7653	234.239	268.0433	296.0103	345.3952	426.4949	484.748	585.2389	632.4303	638.7488	675.0258	702.9618	838.6258	883.0011	927.2226	937.7911	960.7344	1002.9195	1034.2158	1055.4193	1092.1388	1120.5505	1134.9084	1202.2425	1225.7444	1259.7195	1262.1151	1284.6612	1304.6101	1325.3715	1361.5032	1373.1677	1403.7464	1419.7453	1495.9266	1507.0896	1521.4817	2229.988	2955.9121	2965.3575	3025.516	3053.3058	3070.7022	3096.3134	3101.8017	3121.0014	3501.5006	3803.6098
OC(C#C)C1CCOC1	O[C@@H](C#C)[C@H]1CCOC1	
InChI=1S/C7H10O2/c1-2-7(8)6-3-4-9-5-6/h1,6-8H,3-5H2	InChI=1S/C7H10O2/c1-2-7(8)6-3-4-9-5-6/h1,6-8H,3-5H2/t6-,7-/m0/s1
