17
gdb 39153	3.03318	2.16229	1.50661	4.0087	70.78	-0.2321	0.0159	0.2481	872.7407	0.140394	-417.989239	-417.983065	-417.982121	-418.019656	25.292	
C	-0.1155636021	 1.6345622052	 0.0451301009	-0.293319
C	 1.4548921898	 1.6471596714	 0.0726544475	-0.012268
C	 2.2644692403	 2.1928834118	 1.2751626257	-0.103087
O	 2.2720190562	 1.1106617869	 2.2511198335	-0.254798
C	 1.3864915077	 0.2150639519	 1.7667415611	 0.380315
N	 0.4224165013	-0.3431089733	 2.3745498519	-0.317381
C	-0.5045167182	-0.7473343007	 1.291677669	-0.177702
C	-0.0203779943	 0.0653254067	 0.0626180011	 0.010044
N	 1.4405564302	 0.1842811908	 0.3461290972	-0.137898
H	-0.5773901863	 2.0571488091	 0.9408782669	 0.128683
H	-0.5774840871	 2.0801862349	-0.8375514404	 0.110743
H	 1.910471129	 1.9135415462	-0.8833345155	 0.095769
H	 3.3010052716	 2.4124010586	 1.0072336253	 0.130091
H	 1.8127658635	 3.0765063738	 1.7369815864	 0.12722
H	-0.4555641128	-1.8247262169	 1.0840164522	 0.113105
H	-1.531861496	-0.5149990275	 1.591203614	 0.113392
H	-0.2429974028	-0.4022044688	-0.8981056867	 0.087093
144.0818	272.4809	329.5515	330.9502	503.3662	624.1052	664.3055	704.8823	743.7757	781.0009	802.7849	844.2877	872.5133	940.6999	949.9205	961.2164	1007.8071	1018.5311	1061.5444	1067.2317	1091.1875	1104.8088	1154.3666	1190.9514	1210.7427	1224.0826	1236.0983	1252.423	1287.8836	1318.3601	1322.9073	1358.5885	1404.8534	1475.7425	1493.5114	1510.3659	1727.4542	3017.7729	3052.8409	3071.183	3071.4927	3084.4473	3097.556	3108.4783	3132.7072
C1C2COC3=NCC1N23	C1[C@H]2CO[C]3[N]C[C@@H]1N23	
InChI=1S/C6H8N2O/c1-4-2-7-6-8(4)5(1)3-9-6/h4-5H,1-3H2	InChI=1S/C6H8N2O/c1-4-2-7-6-8(4)5(1)3-9-6/h4-5H,1-3H2/t4-,5+/m1/s1
