18
gdb 53575	5.08582	0.67647	0.61322	2.8482	82.52	-0.2325	-0.0241	0.2084	1784.043	0.144678	-401.90879	-401.89903	-401.898086	-401.945584	33.667	
C	 0.0331235386	 1.4780785889	 0.0573474211	-0.49854
C	 0.0441700443	 0.0225714268	 0.0755190943	 0.115893
C	 0.0558005474	-1.1809852548	 0.080546707	 0.03896
C	 0.064244022	-2.6399367707	 0.1149768158	-0.317451
N	-1.272517833	-3.2018782261	-0.0324296573	-0.080037
C	-2.2508820355	-2.9328037244	 1.0500025252	-0.284642
C	-2.6148209467	-4.4235554653	 1.0088789605	 0.393834
O	-3.4831635619	-5.1011487088	 1.4668705914	-0.278769
C	-1.3944342574	-4.6721545731	 0.108886968	-0.286886
H	 0.7807272546	 1.871511805	-0.6400938713	 0.150962
H	-0.9443135729	 1.860757131	-0.2560597112	 0.152088
H	 0.2506284714	 1.8932231865	 1.0475125834	 0.148656
H	 0.684148334	-3.0285815086	-0.703271012	 0.134542
H	 0.5461244468	-2.9777466616	 1.0562548335	 0.102471
H	-1.7987346936	-2.6567843758	 2.0169797896	 0.121148
H	-3.0348842082	-2.2097323159	 0.8068155326	 0.138098
H	-1.5519287867	-5.2251232413	-0.8227827095	 0.134573
H	-0.5743326131	-5.1472303918	 0.674278469	 0.115099
23.5182	51.1786	71.7563	110.8239	208.565	244.6688	314.4944	331.2159	382.3002	428.6037	456.0803	489.9912	672.7142	754.427	771.5491	794.7293	945.566	988.9459	1043.6593	1052.0153	1054.1186	1064.1799	1093.4805	1106.2514	1152.0054	1168.299	1207.2438	1237.9482	1277.0284	1301.8051	1389.3725	1415.3136	1456.7887	1474.7704	1477.2696	1478.9039	1490.6892	1921.8212	2377.1274	2881.6515	2963.9022	2980.7764	3028.7642	3032.5764	3072.7907	3083.6572	3089.7938	3090.9688
CC#CCN1CC(=O)C1	CC#CCN1CC(=O)C1	
InChI=1S/C7H9NO/c1-2-3-4-8-5-7(9)6-8/h4-6H2,1H3	InChI=1S/C7H9NO/c1-2-3-4-8-5-7(9)6-8/h4-6H2,1H3
