15
gdb 97617	2.52969	0.77629	0.61417	3.8199	78.44	-0.2506	-0.0383	0.2123	1731.3431	0.107786	-420.547752	-420.537342	-420.536397	-420.585909	34.59	
O	 0.4698868168	 0.3096527475	-1.0811897374	-0.406156
C	-0.0612920898	 0.2631492298	 0.2353117017	-0.214321
C	-1.4305582604	-0.2361893493	 0.191012401	 0.117646
C	-2.5685288156	-0.6260758189	 0.1817873766	 0.071585
C	-3.9262677187	-1.1688109915	 0.1348125302	-0.407986
C	-3.8537333077	-2.6440253957	-0.3480541847	 0.180618
O	-4.4021144783	-3.041878779	-1.3341652752	-0.229331
C	-4.5903023366	-1.1468192598	 1.4385531678	 0.311881
C	-5.146362563	-1.1944793025	 2.5020222064	-0.43262
H	 1.3699784141	 0.6450087342	-1.0168454294	 0.293173
H	 0.5358987214	-0.3944331832	 0.8878492339	 0.121908
H	-0.0633894973	 1.2603028204	 0.7049656036	 0.123807
H	-4.5302450004	-0.6314449792	-0.6065613364	 0.154526
H	-3.2410994998	-3.2912226373	 0.311859752	 0.106627
H	-5.6392545445	-1.2125174155	 3.44281218	 0.208644
13.0788	54.1031	82.5637	108.0168	154.2255	195.0726	216.8833	284.2734	324.6839	425.6985	446.1614	488.5038	528.1382	574.0248	649.6441	651.2788	812.7695	939.8826	999.0217	1025.4183	1029.9891	1061.8632	1155.6869	1217.3947	1246.1877	1255.5542	1303.708	1402.8852	1460.2056	1501.8661	1846.8821	2239.7103	2373.1104	2931.1003	2965.8796	2984.9828	3040.4202	3502.3395	3819.4719
OCC#CC(C=O)C#C	OCC#C[C@@H](C=O)C#C	
InChI=1S/C7H6O2/c1-2-7(6-9)4-3-5-8/h1,6-8H,5H2	InChI=1S/C7H6O2/c1-2-7(6-9)4-3-5-8/h1,6-8H,5H2/t7-/m0/s1
