18
gdb 66587	2.9277	1.98034	1.66126	1.4455	73.6	-0.2332	0.0857	0.3189	886.3598	0.149653	-401.892138	-401.885401	-401.884457	-401.92293	27.602	
C	 0.0018594581	 1.4987477828	-0.0429070801	-0.516455
C	 0.0777505439	 0.0075712696	 0.0111940209	 0.320376
C	 0.3640358647	-1.0160253962	-1.0269208261	-0.123172
C	 0.5056912387	-2.0672971488	 0.1148835596	-0.129051
C	-1.0339096437	-2.0675054852	 0.209864659	-0.000272
C	-1.3991381659	-1.8166216466	 1.6678543727	-0.087054
O	-0.2630816141	-1.1212697217	 2.2142867481	-0.280032
C	 0.6179819822	-0.8968959419	 1.1329018765	 0.069391
N	-1.0517570412	-0.7895693178	-0.6037537087	-0.196167
H	 0.9960145164	 1.9475380176	 0.0569260165	 0.118443
H	-0.433934795	 1.8267378459	-0.9906161373	 0.133752
H	-0.6262707448	 1.88164345	 0.7689758567	 0.132273
H	 0.7076149251	-0.9522903704	-2.0499275435	 0.101357
H	 1.132899115	-2.9535546373	 0.1686323355	 0.07518
H	-1.5928726996	-2.8546658681	-0.2964173955	 0.081692
H	-2.2998385416	-1.1944018496	 1.7459962519	 0.111904
H	-1.5581434265	-2.7425816857	 2.2347072649	 0.102923
H	 1.6078970483	-0.6393166966	 1.5105897489	 0.084914
183.8965	188.2891	232.1671	311.9252	401.8287	518.1952	601.9331	666.3678	705.6217	756.9935	787.2327	848.0498	856.5203	885.8871	909.4604	935.4323	945.8406	967.8344	980.8355	1020.0929	1021.2156	1071.4766	1093.241	1098.588	1149.9684	1153.5453	1183.3175	1213.9301	1222.3356	1255.6757	1275.654	1310.9889	1319.0148	1381.3335	1401.1563	1439.6858	1483.601	1491.9062	1508.5648	3014.8661	3032.1527	3054.9138	3094.7401	3115.406	3115.9149	3119.9743	3147.9146	3214.7646
CC12C3C4C(COC14)N23	C[C@@]12[C@H]3[C@@H]4[C@@H](CO[C@H]14)N23	
InChI=1S/C7H9NO/c1-7-5-4-3(8(5)7)2-9-6(4)7/h3-6H,2H2,1H3	InChI=1S/C7H9NO/c1-7-5-4-3(8(5)7)2-9-6(4)7/h3-6H,2H2,1H3/t3-,4+,5-,6+,7-,8?/m1/s1
