16
gdb 130128	4.25711	1.0906	0.92627	0.8829	72.7	-0.2125	0.0106	0.2231	1233.6644	0.128112	-430.250966	-430.243152	-430.242208	-430.283701	29.333	
N	-0.0262778634	 1.3320153357	-0.1767703716	-0.58512
C	 0.0117095602	-0.0425213605	-0.0648407874	 0.395347
N	-1.0776314622	-0.7827836837	 0.0940395952	-0.297407
N	-0.5466285949	-2.0454388464	 0.081005231	-0.27155
C	 0.7864606398	-2.0011087684	-0.0757497182	 0.418016
N	 1.1818017438	-0.7387605808	-0.1678185532	-0.387907
C	 1.6691319454	-3.177076508	-0.12068198	-0.129804
C	 2.8094988617	-3.1785023401	-1.0843482261	-0.226867
N	 3.0572776058	-3.0209475244	 0.3498017228	-0.310562
H	 0.8312358619	 1.777763444	 0.1136944113	 0.257633
H	-0.8479101395	 1.7500014116	 0.2345972335	 0.257937
H	-1.1517829134	-2.8422814411	 0.1835344722	 0.27592
H	 1.2020638962	-4.1213340322	 0.147737161	 0.092888
H	 3.1415106345	-4.1209167488	-1.5108208363	 0.123104
H	 2.9034113427	-2.3086229846	-1.7272791478	 0.137128
H	 3.2000167812	-2.0320290423	 0.5520596836	 0.251246
66.1299	147.6935	157.1607	292.9291	321.8538	384.8978	416.0292	458.5077	505.7268	617.3528	659.5631	733.9234	771.2644	798.8939	833.7852	892.67	975.9107	1002.3497	1027.1148	1071.1057	1095.5361	1121.4878	1139.5518	1174.464	1191.7277	1249.6215	1287.0512	1314.621	1399.2124	1425.3668	1489.8066	1509.1441	1579.6988	1593.9417	1650.5918	3114.2086	3139.3944	3209.6519	3483.7359	3575.1227	3674.8949	3681.1756
NC1=NNC(=N1)C1CN1	Nc1n[nH]c(n1)[C@H]1CN1	
InChI=1S/C4H7N5/c5-4-7-3(8-9-4)2-1-6-2/h2,6H,1H2,(H3,5,7,8,9)	InChI=1S/C4H7N5/c5-4-7-3(8-9-4)2-1-6-2/h2,6H,1H2,(H3,5,7,8,9)/t2-/m1/s1
