23
gdb 68888	2.3119	1.71899	1.19961	0.3297	91.06	-0.2182	0.0252	0.2435	1149.8774	0.206613	-351.171228	-351.162323	-351.161379	-351.203872	35.963	
C	-0.0447934859	 1.5042084552	-0.0586291027	-0.463526
C	 0.0586201888	-0.0098568226	-0.0184492261	 0.289762
C	 1.418819556	-0.6362352303	-0.1950968051	-0.367424
C	 0.7290992716	-0.7021415864	 1.1673789546	 0.27865
C	 1.3129909136	 0.086853261	 2.3257820626	-0.480617
C	 0.1583127534	-2.0231961459	 1.5594398615	-0.080247
C	-0.6918384151	-2.7253253492	 0.8096470493	-0.091109
C	-1.1765225276	-2.2252706117	-0.5247961453	-0.288346
C	-1.1808453312	-0.6889887136	-0.5913398725	-0.250997
H	 0.8550676696	 1.998006579	 0.3142412378	 0.112615
H	-0.1995162547	 1.8453069482	-1.0893941542	 0.114025
H	-0.8948090954	 1.8610126072	 0.5352307593	 0.113952
H	 1.5191408138	-1.5616280886	-0.7518299098	 0.110451
H	 2.2687660787	 0.0331951697	-0.2928052416	 0.100659
H	 1.807135871	 1.0049584266	 2.001023276	 0.113202
H	 0.5402371868	 0.3612775832	 3.053373931	 0.116852
H	 2.0616623867	-0.5157126576	 2.8538468195	 0.115514
H	 0.4899838233	-2.42057527	 2.5165673859	 0.07592
H	-1.040506421	-3.6968314897	 1.1487948101	 0.082199
H	-0.5477526799	-2.634837576	-1.3284958069	 0.109768
H	-2.186038906	-2.5999579714	-0.7295176777	 0.098959
H	-2.0485924792	-0.318864258	-0.0282426704	 0.097632
H	-1.3284550171	-0.3649882192	-1.6292631855	 0.092106
152.7193	172.7174	187.4378	195.8167	290.1055	309.4719	327.5752	401.443	409.5969	430.2281	500.9012	553.4392	649.8706	667.784	724.6775	755.5822	853.5592	894.9828	913.7399	926.1565	945.8076	954.2727	989.7281	1003.5873	1036.9748	1053.041	1059.8861	1100.2569	1111.6516	1172.3138	1190.8038	1220.9975	1232.0975	1270.0386	1285.6818	1352.5612	1380.6906	1396.0857	1411.5182	1419.2988	1426.9528	1479.2732	1483.7918	1485.3253	1493.0091	1499.6449	1502.5072	1514.866	1715.1712	3001.7799	3008.9898	3022.6131	3026.9668	3045.1434	3053.7401	3076.3924	3079.1067	3112.2111	3118.9104	3126.7838	3139.1719	3168.9366	3206.0818
CC12CC1(C)C=CCC2	C[C@@]12C[C@]1(C)C=CCC2	
InChI=1S/C9H14/c1-8-5-3-4-6-9(8,2)7-8/h3,5H,4,6-7H2,1-2H3	InChI=1S/C9H14/c1-8-5-3-4-6-9(8,2)7-8/h3,5H,4,6-7H2,1-2H3/t8-,9+/m0/s1
