19
gdb 83688	2.35713	1.64272	1.30144	3.2241	74.57	-0.2424	-0.0163	0.2261	1051.4142	0.158454	-422.996482	-422.987966	-422.987022	-423.03058	31.353	
C	-0.6525091463	 1.3141139164	 0.2402658137	-0.406069
C	-0.0607417251	-0.0697573487	 0.0033987459	-0.004948
C	 0.7506474242	-0.3429437891	-1.3016178927	-0.093142
C	 1.7641785079	 0.7369535559	-1.7221311416	-0.084218
O	 2.7855227171	 0.1921112696	-0.8462708069	-0.286849
C	 1.9298183708	-0.9016707936	-0.4609872638	 0.094341
C	 1.1536559528	-0.6021304819	 0.8511870197	-0.137314
C	 1.9042765833	 0.2784501514	 1.8186092621	 0.159602
O	 1.4737045739	 1.2685776095	 2.3524654487	-0.254438
H	 0.1014786035	 2.1029508353	 0.2211373015	 0.135227
H	-1.4012933964	 1.5322803114	-0.5303498542	 0.104631
H	-1.1409980263	 1.3678468565	 1.2162556681	 0.130289
H	-0.8684653319	-0.8059183659	 0.064964519	 0.081921
H	 0.2483937978	-0.8910626074	-2.0976047173	 0.079444
H	 2.0766088389	 0.6756815252	-2.7718450979	 0.10589
H	 1.5241391724	 1.7781768868	-1.4827783657	 0.113182
H	 2.4082492993	-1.875942305	-0.5878862347	 0.077879
H	 0.9071083205	-1.521133192	 1.4002429252	 0.100446
H	 2.9344773936	-0.0856536343	 2.0361245909	 0.084127
32.2357	89.7299	186.6387	200.8933	222.0425	271.8426	342.1844	460.0804	487.7437	645.4608	683.9376	717.1383	780.6334	845.2241	857.9854	914.4066	952.4222	981.4956	1003.493	1010.2795	1025.5506	1060.2424	1100.2933	1127.7811	1145.6857	1163.2765	1183.0176	1206.6656	1233.055	1265.6203	1294.7714	1321.4109	1329.6124	1350.1336	1376.2874	1417.3194	1430.0433	1487.5693	1491.9146	1526.5211	1826.3507	2869.5497	3017.9253	3021.425	3035.5943	3048.6981	3073.102	3076.4239	3109.6091	3117.5284	3134.3138
CC1C2COC2C1C=O	C[C@H]1[C@H]2CO[C@H]2[C@H]1C=O	
InChI=1S/C7H10O2/c1-4-5(2-8)7-6(4)3-9-7/h2,4-7H,3H2,1H3	InChI=1S/C7H10O2/c1-4-5(2-8)7-6(4)3-9-7/h2,4-7H,3H2,1H3/t4-,5+,6-,7+/m1/s1
