19
gdb 133821	2.80353	1.39193	1.26541	2.3578	82.16	-0.2282	-0.023	0.2052	1088.5856	0.159883	-385.883387	-385.875456	-385.874512	-385.916279	30.339	
C	 1.5117221767	 0.680641892	 0.5205655701	-0.346074
C	 0.4862655031	 1.3525730533	-0.4578483836	-0.130995
C	-0.7018227985	 0.7417237624	 0.4247712332	-0.055667
C	-1.8065451102	-0.2448352241	-0.0041543974	-0.25065
C	-1.5760272593	-1.4560912663	 0.9616179501	-0.237283
C	-0.0801921207	-1.3837882802	 1.2627649979	-0.225504
O	 1.2200990028	-0.0471834155	-2.2774180039	-0.243936
C	 0.5019210746	 0.829659036	-1.8657149954	 0.152642
C	 0.3518660144	-0.1526532386	 1.0173191131	 0.329588
H	 1.9029604505	 1.3973968242	 1.2490223248	 0.109989
H	 2.3380491366	 0.1441749091	 0.0512038442	 0.136436
H	 0.4833615689	 2.4469855125	-0.4909738547	 0.087549
H	-1.075044418	 1.5182953399	 1.1026915523	 0.081499
H	-1.6458074733	-0.5853111739	-1.0325242091	 0.113261
H	-2.8182560535	 0.1659715353	 0.0557457518	 0.095135
H	-1.8556987296	-2.4072722274	 0.4966113124	 0.10672
H	-2.1867189357	-1.3646808344	 1.8712257659	 0.105138
H	 0.5100600369	-2.2463836839	 1.5482831976	 0.096657
H	-0.2477526858	 1.3118960696	-2.5350845195	 0.075495
65.3416	102.5783	190.8174	224.9205	291.1	345.4258	427.8824	571.0171	624.2848	644.8877	722.0666	788.8543	799.2251	826.8072	864.878	891.7645	920.39	952.8476	970.1683	994.1297	1016.1307	1052.8052	1080.357	1102.0508	1123.9556	1156.2399	1179.4835	1212.5941	1226.34	1242.1816	1274.2169	1307.3095	1322.8928	1332.4259	1358.4692	1422.3671	1462.808	1482.0476	1496.9076	1737.6691	1819.1426	2862.0421	3005.7915	3027.9906	3046.4398	3052.7323	3062.4881	3068.3496	3098.6632	3125.7154	3202.4778
C1C2C3CCC4OC2C134	C1[C@H]([C@H]2CC[CH][C]12)C=O	
InChI=1S/C8H10O/c1-2-6-8-3-4(5(1)8)7(8)9-6/h4-7H,1-3H2	InChI=1S/C8H10O/c9-5-7-4-6-2-1-3-8(6)7/h2,5,7-8H,1,3-4H2/t7-,8-/m0/s1
