17
gdb 56050	5.52982	0.73487	0.65707	7.7214	73.59	-0.2449	0.0099	0.2548	1630.4064	0.135919	-455.174462	-455.165592	-455.164648	-455.20971	31.251	
O	-0.1024159025	-0.0713499071	-0.1464338962	-0.361286
C	-0.0072440742	 1.2613250461	-0.0839949116	 0.415577
O	 1.0362990127	 1.856567549	-0.1143012217	-0.343765
C	-1.3664408107	 1.9674130664	 0.0291141234	-0.319887
N	-2.4390393853	 0.9867007157	 0.0466257835	-0.377623
H	-1.0662892033	-0.2597003154	-0.1004163675	 0.307279
C	-3.6296519175	 1.3814356956	 0.2187557314	 0.465162
C	-4.9733135365	 0.6627339992	 0.2724387488	-0.344628
C	-5.599672913	 2.089018715	 0.3678799282	-0.153936
N	-4.2253372188	 2.6077364432	 0.4209142162	-0.335577
H	-1.3406530276	 2.5858780226	 0.9376431938	 0.133798
H	-1.4407673051	 2.6599960584	-0.8217793799	 0.13062
H	-5.2211529803	 0.0991244806	-0.6278216654	 0.140489
H	-5.1157178176	 0.0311702545	 1.1506253899	 0.140825
H	-6.1627963996	 2.39463496	-0.5195546611	 0.121659
H	-6.1880708436	 2.2987232077	 1.2653818086	 0.123269
H	-3.8792582372	 3.5333206183	 0.2209399196	 0.258026
30.2308	80.4461	108.1552	127.7538	230.2083	266.1673	356.1394	392.6	551.2711	560.7551	592.1322	624.441	811.1514	813.7632	818.0913	885.032	904.2095	985.5208	996.5954	1020.6907	1059.7952	1073.0197	1153.4856	1189.6581	1203.8273	1219.1344	1223.8144	1237.698	1318.4408	1336.6666	1398.4254	1440.9151	1456.2266	1467.304	1527.1614	1811.0856	1875.1972	2996.915	3032.5307	3047.4852	3093.3974	3095.8992	3150.1901	3470.8104	3627.085
[O-]C(=O)C[NH+]=C1CCN1	OC(=O)CN=C1CCN1	
InChI=1S/C5H8N2O2/c8-5(9)3-7-4-1-2-6-4/h1-3H2,(H,6,7)(H,8,9)	InChI=1S/C5H8N2O2/c8-5(9)3-7-4-1-2-6-4/h1-3H2,(H,6,7)(H,8,9)
