18
gdb 25618	3.31939	0.98042	0.76407	1.5925	95.77	-0.1866	0.0125	0.1991	1496.3769	0.147334	-364.843175	-364.833528	-364.832584	-364.87957	33.925	
C	-0.1124882992	 1.47671476	-0.0206346434	-0.508978
C	-0.0347652687	 0.0243290883	-0.0170218856	 0.149419
C	 0.0375038574	-1.182187831	-0.0140088733	-0.049353
C	 0.1146824074	-2.5886523408	-0.0104503948	 0.099216
C	 1.2160429495	-3.4392033771	-0.0084279007	 0.171813
C	 2.651282147	-3.0129880895	-0.0095752085	-0.522582
C	 0.7113009763	-4.7671116204	-0.005033144	-0.214128
C	-0.6646332946	-4.7002073916	-0.0051298392	-0.09902
N	-1.0195731411	-3.3826868212	-0.0080988149	-0.317739
H	 0.8895355523	 1.9200041165	-0.0166218888	 0.151759
H	-0.6339217526	 1.8523734481	-0.9089072975	 0.146267
H	-0.6426435568	 1.8561632611	 0.8608302994	 0.146283
H	 3.1850967962	-3.3860258709	 0.8724537066	 0.123441
H	 3.1850530486	-3.3906919803	-0.8896417688	 0.123438
H	 2.7308189067	-1.9227384711	-0.0124622342	 0.129271
H	 1.2983165504	-5.6733794857	-0.0027467448	 0.092227
H	-1.4112666056	-5.4781668629	-0.0031039305	 0.11677
H	-1.957300283	-3.0218516114	-0.009478547	 0.261895
17.4926	74.9032	85.361	107.1805	235.7211	258.9942	278.499	348.7875	451.6473	480.1678	481.1848	542.7121	634.9767	676.2366	692.2806	731.2193	824.8716	912.4668	970.5591	997.4077	1050.9312	1051.3418	1062.4377	1080.9785	1122.3694	1202.3629	1273.6559	1310.106	1411.8707	1413.581	1441.2154	1474.1545	1478.6201	1479.7261	1485.8418	1494.1366	1499.8344	1608.5473	2344.2127	3020.0526	3024.2403	3071.1052	3074.7378	3085.4935	3113.7017	3240.6886	3267.6366	3685.9358
CC#CC1=C(C)C=CN1	CC#Cc1c(C)cc[nH]1	
InChI=1S/C8H9N/c1-3-4-8-7(2)5-6-9-8/h5-6,9H,1-2H3	InChI=1S/C8H9N/c1-3-4-8-7(2)5-6-9-8/h5-6,9H,1-2H3
