17
gdb 43172	2.27104	1.83056	1.78886	3.4118	66.61	-0.2284	-0.0305	0.1979	902.2713	0.138539	-458.97381	-458.96689	-458.965946	-459.004986	27.534	
O	 0.0025763493	 0.047236879	 0.1084941649	-0.319503
C	-0.0148182848	 1.2435596148	 0.0283658198	 0.430285
C	-1.2145662618	 2.2036428026	 0.0162261597	 0.008052
C	-0.81114659	 3.2029309274	 1.1184640814	-0.263198
C	 0.7580862926	 3.2242799965	 1.0965197835	-0.263198
C	 1.157562287	 2.2359141621	-0.0169435214	 0.008052
O	 1.1220895162	 2.8177416406	-1.3323920655	-0.268578
C	-0.0685120097	 3.5247610814	-1.5917509392	 0.018538
O	-1.231730096	 2.7857239634	-1.299472706	-0.268577
H	-2.1810589038	 1.7218625271	 0.1566899011	 0.103084
H	-1.2535126568	 4.1859787791	 0.9399781296	 0.12362
H	-1.1857912921	 2.8450983501	 2.0810478578	 0.121437
H	 1.1683871038	 4.2189278982	 0.9061082775	 0.12362
H	 1.1690906323	 2.8771382385	 2.0481177683	 0.121437
H	 2.1403530811	 1.7806582394	 0.0962570465	 0.103084
H	-0.0737527419	 4.477900748	-1.0393593817	 0.090168
H	-0.0862513755	 3.7257586818	-2.6646653863	 0.131678
135.1319	195.2124	290.3708	323.7522	379.6084	423.05	450.6024	558.6081	684.4646	725.0618	748.6204	800.0883	832.4679	871.9333	892.3279	956.5858	965.0562	1010.0632	1021.5055	1074.7009	1087.0826	1160.2014	1177.2871	1186.2707	1215.9025	1238.1683	1260.0946	1284.1685	1317.0866	1323.6641	1351.9937	1354.6277	1429.7077	1474.2392	1488.7484	1526.6237	1880.3269	2976.7419	3062.4506	3070.7909	3101.8414	3114.7492	3120.3407	3133.312	3136.0079
O=C1C2CCC1OCO2	O=C1[C@H]2CC[C@@H]1OCO2	
InChI=1S/C6H8O3/c7-6-4-1-2-5(6)9-3-8-4/h4-5H,1-3H2	InChI=1S/C6H8O3/c7-6-4-1-2-5(6)9-3-8-4/h4-5H,1-3H2/t4-,5+
