16
gdb 5830	3.01221	1.66305	1.39684	2.5881	67.96	-0.2615	-0.0597	0.2018	954.8262	0.125496	-383.71973	-383.710193	-383.709249	-383.755873	33.974	
C	 0.1965486345	 1.5833943148	 0.2565499654	-0.413984
C	-0.0266810429	 0.0838317988	 0.004773664	 0.254665
C	 0.5453353722	-0.7719110248	 1.1460325857	-0.413962
O	-1.4046028406	-0.1987332818	-0.2030295987	-0.463065
C	 0.710222076	-0.2975249219	-1.2936988335	 0.189507
O	 1.9109091304	-0.1546450728	-1.3883858057	-0.311908
C	-0.0737716934	-0.8290168485	-2.3902253125	 0.337547
C	-0.665600889	-1.2758463205	-3.3384318902	-0.432948
H	 1.26429978	 1.8101569661	 0.2938726672	 0.14336
H	-0.2649562101	 2.174364283	-0.539362494	 0.130394
H	-0.2563700526	 1.8742318174	 1.2111252537	 0.106308
H	 0.0914642145	-0.4768427343	 2.0988522191	 0.106326
H	 0.3282512649	-1.8294942499	 0.9725309743	 0.130406
H	 1.6269113147	-0.638563647	 1.2189933103	 0.143341
H	-1.8779547738	 0.0352866237	 0.6020310608	 0.280621
H	-1.1973237149	-1.6697222925	-4.1702722459	 0.213392
3.4752	151.295	203.641	204.7338	226.3745	255.5391	277.4773	283.5509	342.7646	373.9851	432.7706	501.9058	593.5513	637.7348	701.1463	718.4789	766.3989	843.0043	929.1494	983.1725	1017.2698	1105.4377	1144.9776	1181.6053	1229.6529	1371.7584	1387.4162	1408.1463	1477.1407	1483.3519	1495.6962	1512.0312	1759.5324	2210.8183	3033.4842	3037.7606	3106.2372	3109.7797	3134.7207	3138.8917	3495.4837	3815.152
CC(C)(O)C(=O)C#C	CC(C)(O)C(=O)C#C	
InChI=1S/C6H8O2/c1-4-5(7)6(2,3)8/h1,8H,2-3H3	InChI=1S/C6H8O2/c1-4-5(7)6(2,3)8/h1,8H,2-3H3
