15
gdb 99574	2.29358	1.21235	0.84027	3.7268	66.25	-0.3003	-0.0184	0.2819	1290.8699	0.110842	-453.949611	-453.939917	-453.938973	-453.98484	33.409	
O	 0.0876086769	 1.4408198927	 0.0440206349	-0.412781
C	 0.0521786005	 0.0370888435	 0.0514721728	-0.069606
C	-1.4026606716	-0.5060853694	 0.0316815095	-0.19394
C	-2.0707977728	-0.0502010598	-1.1871131792	 0.269155
N	-2.5368339483	 0.3343967597	-2.1724793148	-0.309809
C	-1.4211732292	-2.0590473865	 0.1394926638	-0.015102
O	-0.7009760961	-2.5088142662	 1.2658216395	-0.404756
C	-2.8021140513	-2.5754717849	 0.1461926292	 0.264499
N	-3.8843970421	-2.9740112606	 0.2110014064	-0.298437
H	-0.2195865292	 1.7527052791	-0.8151027699	 0.302935
H	 0.6092872557	-0.4027886123	-0.7892015737	 0.112141
H	 0.5241684119	-0.292849877	 0.978118266	 0.141452
H	-1.9360779644	-0.0845817507	 0.8921196464	 0.146731
H	-0.9028029785	-2.4742366896	-0.731703223	 0.161859
H	-1.2270545715	-2.3486281679	 2.0585146223	 0.305659
56.2505	91.7648	113.8743	151.1056	213.9594	223.0225	277.3202	330.6184	354.0322	387.6724	428.629	489.3723	540.5356	608.2246	629.8269	841.3279	905.0751	1038.2411	1039.9017	1053.9949	1091.2533	1106.4633	1193.6257	1226.004	1286.4704	1324.6937	1358.1658	1394.3	1412.0224	1420.2707	1506.079	2355.9922	2360.561	2998.1328	3049.8397	3070.1049	3127.3311	3798.7303	3799.127
OCC(C#N)C(O)C#N	OC[C@@H](C#N)[C@@H](O)C#N	
InChI=1S/C5H6N2O2/c6-1-4(3-8)5(9)2-7/h4-5,8-9H,3H2	InChI=1S/C5H6N2O2/c6-1-4(3-8)5(9)2-7/h4-5,8-9H,3H2/t4-,5+/m1/s1
