18
gdb 16382	2.91362	2.20702	1.56013	1.9431	73.7	-0.2147	0.0178	0.2324	890.8957	0.153586	-347.769773	-347.762186	-347.761242	-347.801334	28.951	
C	-0.0312718007	 1.479123251	 0.0996749355	-0.52066
C	 0.0048896956	-0.005692918	 0.005084299	 0.241691
C	-0.0075427059	-0.8554044215	-1.0312419264	 0.241577
C	-0.0627726919	-0.6566465571	-2.5051406195	-0.520656
C	 0.063202599	-2.215345895	-0.2987976582	-0.024735
C	-1.0089826303	-2.0367453672	 0.8153799822	-0.218805
C	 0.0803645045	-0.9913218774	 1.1941027235	-0.024809
O	 1.0822622611	-1.9558178695	 0.7250725594	-0.28518
H	 0.8603410462	 1.8693953913	 0.6073480574	 0.132124
H	-0.0851104586	 1.9462910352	-0.8880648733	 0.125129
H	-0.8968143547	 1.8258169086	 0.6793919493	 0.126511
H	-0.1066144231	 0.4041220008	-2.7690005434	 0.125139
H	 0.8160889251	-1.0895827516	-3.0002823506	 0.132095
H	-0.94134633	-1.1457883624	-2.945936978	 0.126526
H	 0.2110142229	-3.134133477	-0.8668824087	 0.074085
H	-2.0051145291	-1.6844126434	 0.5379318221	 0.092295
H	-1.0460700437	-2.8812726271	 1.5081516084	 0.103605
H	 0.2462983935	-0.6161406595	 2.2042710412	 0.07407
148.8984	179.8186	191.296	191.7956	235.801	339.4912	500.8564	582.366	600.1435	612.7489	699.9259	820.8491	837.4888	853.5816	903.4347	918.1022	950.7631	1020.4445	1045.5942	1046.4467	1072.155	1074.6278	1141.1274	1167.8285	1194.0842	1206.9123	1236.634	1258.5168	1297.0401	1331.3824	1411.1806	1420.0244	1478.6402	1479.0771	1484.1005	1486.7838	1489.6617	1735.7354	3011.8561	3013.0631	3055.8452	3056.0793	3057.5772	3101.5386	3103.1962	3119.6496	3122.6771	3129.8187
CC1=C(C)C2CC1O2	CC1=C(C)[C@@H]2C[C@H]1O2	
InChI=1S/C7H10O/c1-4-5(2)7-3-6(4)8-7/h6-7H,3H2,1-2H3	InChI=1S/C7H10O/c1-4-5(2)7-3-6(4)8-7/h6-7H,3H2,1-2H3/t6-,7+
