19
gdb 19285	3.14943	1.77711	1.38509	1.8303	70.67	-0.2295	0.0625	0.2921	966.4012	0.165319	-365.013508	-365.005262	-365.004317	-365.046194	30.897	
C	 0.0706462223	 1.6516164684	 0.0804031556	-0.37973
C	 0.0453979999	 0.1193699364	 0.0912768321	-0.195967
C	 0.6112652966	-0.4805211027	-1.1861280572	 0.023665
C	 0.4482732706	-2.0104387031	-1.4750142255	 0.065516
O	-0.3624750088	-2.793076244	-0.6219985019	-0.42734
C	-0.2501856692	-1.6069145447	-2.7607290198	-0.032044
C	-1.4018525931	-0.7320391322	-2.4752303987	-0.242865
N	-0.0615318296	-0.1180179438	-2.4945554595	-0.14305
H	 1.0935974611	 2.0301251706	-0.0214688695	 0.114484
H	-0.5099597084	 2.0452996086	-0.7589719374	 0.13594
H	-0.3477384818	 2.0596729521	 1.0054332464	 0.109565
H	 0.6413907712	-0.2569415205	 0.9341931813	 0.088031
H	-0.9732160346	-0.2414632289	 0.265314601	 0.108715
H	 1.6610591094	-0.185624582	-1.2903409286	 0.076115
H	 1.414619524	-2.4972937072	-1.654797409	 0.073349
H	 0.1561308167	-3.0304403919	 0.1533813111	 0.284597
H	-0.0676962751	-2.039751642	-3.7383020695	 0.092881
H	-2.0074186577	-0.4233022061	-3.3216311106	 0.119364
H	-1.9475741736	-0.844831157	-1.5443709003	 0.128775
72.2813	147.5224	154.7085	207.8738	264.4302	294.078	325.4387	476.6572	538.3058	562.992	724.7571	765.3321	772.4281	803.5936	828.9592	934.0001	958.3203	974.4884	999.248	1050.1616	1061.6991	1103.5623	1119.3868	1121.9587	1156.4458	1177.4986	1196.2435	1237.4829	1269.7527	1275.3932	1310.2367	1335.5292	1372.828	1396.827	1411.5465	1433.1337	1482.8498	1496.3005	1500.7346	1510.6793	3017.4827	3020.973	3036.1912	3046.1762	3073.2176	3103.7366	3114.6071	3127.7908	3170.5802	3213.3847	3816.7313
CCC1C(O)C2CN12	CC[C@H]1[C@@H](O)[C@H]2CN12	
InChI=1S/C6H11NO/c1-2-4-6(8)5-3-7(4)5/h4-6,8H,2-3H2,1H3	InChI=1S/C6H11NO/c1-2-4-6(8)5-3-7(4)5/h4-6,8H,2-3H2,1H3/t4-,5+,6+,7?/m0/s1
