21
gdb 92765	3.69361	0.96334	0.82889	1.7017	86.37	-0.231	0.0129	0.2439	1446.7025	0.18279	-387.088949	-387.080158	-387.079214	-387.122821	33.321	
C	-0.0071271109	 1.5494583847	 0.022575198	-0.405183
C	 0.1312758908	 0.0291132602	 0.0532371324	 0.042561
C	 0.8021213174	-0.5883347196	-1.204247163	-0.262452
C	 1.4928445092	-1.8114242053	-0.6564328027	-0.192896
C	 1.5902060583	-1.7805306663	 0.6763063714	 0.369052
C	 0.9646307759	-0.5211237851	 1.2408509361	-0.331151
C	 2.2429713862	-2.8046132064	 1.5101540827	-0.037063
C	 2.8933632421	-2.4957076929	 2.7980862827	-0.187282
O	 1.6169836672	-3.1226930267	 2.7698179679	-0.23582
H	 0.9743496984	 2.032304103	-0.0519445801	 0.111496
H	-0.6049820815	 1.8775352822	-0.8345831362	 0.112537
H	-0.4942321161	 1.9240825565	 0.9292501522	 0.113677
H	-0.8705138062	-0.4114065682	 0.1313336439	 0.08058
H	 0.0789960379	-0.8172859457	-1.995510826	 0.102063
H	 1.5329029875	 0.1053260716	-1.6487097843	 0.101453
H	 1.8908952578	-2.6004883283	-1.2865481555	 0.08683
H	 1.7457345869	 0.1954053754	 1.538123501	 0.096847
H	 0.3610852115	-0.7157983755	 2.1328106812	 0.11779
H	 2.604179895	-3.6803586116	 0.9703251785	 0.088102
H	 3.7194807593	-3.1192016793	 3.1391137751	 0.114705
H	 2.9044517833	-1.4704774227	 3.1644342547	 0.114153
76.2087	85.3457	151.1712	184.1455	246.2483	314.7616	347.4463	411.7853	424.7375	541.9656	560.2787	655.8112	812.3622	828.6879	850.6332	856.3272	908.6441	915.2378	940.3771	949.7103	987.0638	1001.8209	1065.6056	1096.8643	1108.2225	1145.5347	1146.5521	1157.0524	1168.966	1214.6705	1235.9888	1268.3299	1279.6763	1302.4076	1339.0909	1364.7091	1372.4857	1412.1914	1417.0386	1484.2098	1493.2099	1498.5948	1500.9092	1523.196	1710.4111	2986.4956	2989.1799	3021.6117	3025.7577	3053.46	3075.4443	3081.2965	3092.3123	3095.1455	3107.5947	3168.8223	3181.9296
CC1CC=C(C1)C1CO1	C[C@H]1CC=C(C1)[C@H]1CO1	
InChI=1S/C8H12O/c1-6-2-3-7(4-6)8-5-9-8/h3,6,8H,2,4-5H2,1H3	InChI=1S/C8H12O/c1-6-2-3-7(4-6)8-5-9-8/h3,6,8H,2,4-5H2,1H3/t6-,8+/m0/s1
