15
gdb 9480	3.06976	1.6794	1.57316	3.7053	61.66	-0.2762	0.0046	0.2808	883.6961	0.117255	-399.78856	-399.780359	-399.779415	-399.821392	29.297	
C	 0.182499255	 1.4285581363	-0.0731675918	-0.430726
C	 0.0282894349	-0.0822016371	 0.0200467803	 0.2232
O	 0.8124554621	-0.7783872101	-0.976014186	-0.302792
C	 1.6583335739	-1.3960212785	 0.0209016988	-0.087847
C	 0.8372887298	-0.8012980268	 1.17202742	 0.018846
O	 1.5966942879	 0.0047144643	 2.0238511053	-0.408048
C	-1.3824460929	-0.4885624469	-0.0443437158	 0.253053
N	-2.4906971669	-0.8174814621	-0.0521424113	-0.335413
H	 1.2281636994	 1.6981180708	 0.0824260442	 0.143515
H	-0.1389842148	 1.7687387992	-1.0607577555	 0.147098
H	-0.4284025898	 1.9300394097	 0.6834400886	 0.129623
H	 1.6632979586	-2.4869359132	-0.0629174072	 0.121859
H	 2.6840093519	-1.0129445421	-0.0140780778	 0.122907
H	 0.2306559416	-1.5287055311	 1.7201257448	 0.106031
H	 1.0659382892	 0.2395206577	 2.7917198933	 0.298694
54.401	148.6714	187.5988	202.6734	250.0298	310.6635	369.6458	383.9729	489.3916	548.096	570.8084	639.1195	799.6944	889.4048	900.0314	947.1235	1013.1797	1032.6175	1116.8005	1142.8876	1167.7819	1181.799	1206.4206	1246.7792	1309.4397	1338.2698	1403.3381	1449.3345	1479.3511	1482.9054	1515.8791	2349.2824	3039.5956	3051.398	3057.3369	3095.6266	3125.372	3149.7593	3822.5453
CC1(OCC1O)C#N	C[C@]1(OC[C@H]1O)C#N	
InChI=1S/C5H7NO2/c1-5(3-6)4(7)2-8-5/h4,7H,2H2,1H3	InChI=1S/C5H7NO2/c1-5(3-6)4(7)2-8-5/h4,7H,2H2,1H3/t4-,5+/m1/s1
