21
gdb 103860	2.90664	1.09266	0.92202	0.8621	79.05	-0.2521	0.073	0.3251	1349.3644	0.180459	-424.18975	-424.180052	-424.179108	-424.224312	36.304	
C	-0.5204361134	 1.352781611	 0.206494296	-0.397732
C	 0.0906213632	-0.0307367361	-0.0494577502	-0.240123
C	 0.8688258816	-0.5595438246	 1.1406702751	 0.404809
O	 1.9750003844	 0.2295624095	 1.5119679056	-0.477562
C	 0.1596722232	-1.2976118916	 2.2556720294	-0.364981
C	 1.1200787177	-2.0289520152	 1.337656169	-0.085487
C	 0.632689422	-3.0747992585	 0.384967355	 0.045087
C	-0.1778223499	-4.2164091665	 0.8343012563	-0.172698
O	-0.771984595	-3.1319882528	 0.1172818684	-0.229335
H	 0.2538408553	 2.1011527482	 0.4093479005	 0.108467
H	-1.0830623761	 1.6994478739	-0.6650710231	 0.117418
H	-1.2062492635	 1.3323708294	 1.0607167881	 0.116953
H	-0.6983318723	-0.7426966029	-0.3053306225	 0.130872
H	 0.7682830046	 0.0242432329	-0.9107811855	 0.099493
H	 1.6383234184	 1.0391632111	 1.9106258053	 0.282221
H	 0.4828719876	-1.108822987	 3.2731552749	 0.107279
H	-0.8962547247	-1.5115497696	 2.1272792746	 0.126277
H	 2.100500265	-2.2456772079	 1.7536474683	 0.100897
H	 1.2495858085	-3.2210370384	-0.5035213393	 0.097086
H	-0.13469192	-5.161626466	 0.2956159537	 0.114693
H	-0.4561938868	-4.284266749	 1.8845851903	 0.116365
77.8376	100.573	130.2831	166.7528	225.4902	252.9672	283.7356	325.5936	330.3933	404.1647	432.9694	573.3938	603.4262	698.8567	757.1479	793.2691	849.6623	896.4673	918.9365	926.0272	960.0879	1000.5418	1006.5449	1050.686	1060.0769	1087.9319	1096.1223	1125.2366	1131.503	1162.9694	1174.0111	1220.9929	1278.6397	1299.7713	1314.3462	1331.5929	1380.7933	1404.1025	1409.5275	1431.7543	1483.5737	1484.7716	1502.0199	1511.9058	1523.4037	3029.5632	3032.4171	3086.1341	3086.8795	3092.9491	3106.8306	3111.0905	3131.2127	3148.5976	3177.0826	3225.7484	3803.162
CCC1(O)CC1C1CO1	CC[C@@]1(O)C[C@H]1[C@H]1CO1	
InChI=1S/C7H12O2/c1-2-7(8)3-5(7)6-4-9-6/h5-6,8H,2-4H2,1H3	InChI=1S/C7H12O2/c1-2-7(8)3-5(7)6-4-9-6/h5-6,8H,2-4H2,1H3/t5-,6+,7+/m0/s1
