17
gdb 91226	2.1033	1.68409	1.59388	2.3263	69.87	-0.2367	0.0188	0.2555	974.5623	0.135284	-455.113944	-455.105168	-455.104224	-455.147596	32.648	
O	 0.221388249	 1.2872799474	-0.3665195236	-0.432642
C	 0.0661501198	-0.0483194308	 0.0415725687	 0.092883
C	 0.1384844786	-0.249228867	 1.5800767399	-0.253315
C	-1.2788051382	-0.8695265644	 1.5745397647	-0.070344
N	-2.3758195506	 0.1088751181	 1.6646403213	-0.335223
C	-2.4471793206	 0.3502550051	 0.2926252042	 0.307635
N	-3.1330493212	 1.0663308182	-0.4950289863	-0.566043
C	-1.3635905237	-0.6681731702	-0.0060684888	 0.290048
O	-1.5559507223	-1.6089488521	-1.0011425766	-0.475943
H	-0.2684167181	 1.4121317799	-1.187333696	 0.297979
H	 0.7485786701	-0.7239855867	-0.4941098755	 0.085735
H	 0.9243146486	-0.9410098825	 1.8899676137	 0.111283
H	 0.2337316098	 0.6809783692	 2.1440655659	 0.107921
H	-1.4612294993	-1.8109374202	 2.0923887769	 0.08949
H	-2.4638372306	 0.8195106863	 2.379970395	 0.239204
H	-3.7915890045	 1.6679142768	 0.0028418918	 0.213805
H	-2.4883363366	-1.6006410272	-1.2462222552	 0.297526
61.2003	89.3133	167.0793	200.6519	250.3115	321.8318	364.9646	404.2291	435.6136	503.1861	519.3829	619.494	699.9039	747.8101	777.7309	835.6935	849.503	918.9516	965.5541	1001.8159	1013.9604	1055.2982	1076.5518	1110.2273	1145.5789	1164.1783	1204.504	1261.4985	1265.3261	1300.0346	1334.4447	1339.9449	1373.7194	1393.3067	1405.4795	1467.7705	1786.0746	2999.0299	3072.7556	3113.2253	3131.1855	3461.2249	3568.1182	3800.5922	3804.5752
OC1CC2NC(=N)C12O	O[C@H]1C[C@H]2N[C]([NH])[C@@]12O	
InChI=1S/C5H8N2O2/c6-4-5(9)2(7-4)1-3(5)8/h2-3,8-9H,1H2,(H2,6,7)	InChI=1S/C5H8N2O2/c6-4-5(9)2(7-4)1-3(5)8/h2-3,8-9H,1H2,(H2,6,7)/t2-,3+,5+/m1/s1
