21
gdb 40963	3.22746	1.31711	1.17664	2.4508	78.14	-0.231	0.0756	0.3066	1143.593	0.184429	-424.219476	-424.211422	-424.210478	-424.252283	31.433	
C	 0.0047195266	 1.3382244106	-0.3544493254	-0.063947
C	 1.4508949215	 1.5270374433	 0.1425834519	-0.356985
C	 1.2792034977	 0.1172596136	 0.7527904265	 0.431744
C	 2.1471452903	-1.0004890476	 0.1767145269	-0.255877
C	 1.7573578751	-2.3456996506	 0.8044100087	-0.21138
C	 1.7960465076	-2.234965414	 2.328714593	-0.063049
O	 0.9485811979	-1.1973850247	 2.7946278374	-0.24355
C	 1.3040417805	 0.0689784021	 2.2807515055	-0.110955
O	-0.0865740274	 0.0322584356	 0.247334294	-0.321911
H	-0.7359161157	 2.0332689288	 0.0594305894	 0.103041
H	-0.1221589789	 1.298159032	-1.4432484586	 0.101612
H	 2.2137430367	 1.603347125	-0.6346158014	 0.108312
H	 1.5979250328	 2.3299784694	 0.8688475876	 0.107985
H	 2.0402743201	-1.022444123	-0.9127664751	 0.097318
H	 3.1998330073	-0.7739365177	 0.3976962935	 0.093382
H	 0.7406374639	-2.6080697472	 0.4929697011	 0.125067
H	 2.4277552035	-3.144312793	 0.4678683942	 0.091357
H	 1.4404127244	-3.152432988	 2.8060757201	 0.10658
H	 2.8329070932	-2.0564154099	 2.6674653685	 0.078873
H	 2.3134734879	 0.3639322179	 2.6249273108	 0.077019
H	 0.5800816549	 0.7808698872	 2.6877159512	 0.105363
71.6611	113.5534	193.5305	271.3235	294.9222	386.9077	411.5189	438.3544	486.8223	558.6763	703.0794	781.1207	837.3563	861.8922	868.1413	895.4962	909.5818	964.0126	983.1889	1004.3796	1020.3281	1029.6267	1044.5984	1127.7372	1138.8964	1161.6968	1182.9703	1199.2158	1212.2253	1235.9844	1260.2892	1293.657	1306.8132	1330.1229	1350.3944	1357.3513	1374.3339	1401.145	1420.321	1471.4171	1476.5573	1481.7553	1488.505	1500.2822	1532.3721	2930.6324	2943.24	3013.1838	3015.7288	3040.7075	3052.4439	3068.1896	3072.1928	3083.8455	3086.0429	3091.9744	3122.8661
C1CC2(CCCOC2)O1	C1C[C@]2(CCCOC2)O1	
InChI=1S/C7H12O2/c1-2-7(3-5-9-7)6-8-4-1/h1-6H2	InChI=1S/C7H12O2/c1-2-7(3-5-9-7)6-8-4-1/h1-6H2/t7-/m0/s1
