22
gdb 100187	2.02828	1.41546	1.05507	3.1648	78.59	-0.221	-0.0183	0.2027	1255.0196	0.190097	-441.46596	-441.454723	-441.453779	-441.501981	40.406	
C	 0.0436365787	 1.5943377235	-0.0536072831	-0.32947
N	 0.0217966882	 0.1379729658	-0.0113621512	-0.090539
C	 0.8933006937	-0.3591079015	 1.0486807691	-0.338421
C	-1.3114430585	-0.4945659806	-0.0421434436	 0.143927
C	-2.1076441644	-0.4065329509	 1.2691336648	-0.436274
C	-2.1295657229	 0.0795562641	-1.2277893611	-0.117212
O	-3.1929098064	-0.7761952591	-1.6093792179	-0.412912
C	-1.0541502704	-1.9616100792	-0.4266277237	 0.168734
O	-1.376818012	-2.9169329684	 0.2275704986	-0.26036
H	 1.0858185762	 1.9240578206	-0.112593324	 0.123523
H	-0.4666787073	 1.9748826011	-0.9404891587	 0.126042
H	-0.4027015209	 2.0752211778	 0.8359541916	 0.098
H	 0.6266460447	 0.0107949405	 2.0541450023	 0.101392
H	 0.8775092558	-1.4516318608	 1.0790356968	 0.137374
H	 1.9213066143	-0.0436056753	 0.8419389451	 0.121347
H	-2.2318267837	 0.634960106	 1.5805342787	 0.114425
H	-3.1008730825	-0.8520332102	 1.1562474968	 0.111284
H	-1.615186128	-0.9594164021	 2.0709039736	 0.138299
H	-2.4959629779	 1.0864104551	-0.9868367592	 0.099896
H	-1.4764951745	 0.156097918	-2.1026306867	 0.125098
H	-3.8447310399	-0.7915821677	-0.9016775894	 0.290721
H	-0.4976540724	-2.0628817367	-1.3841218286	 0.085126
59.1698	92.1348	119.3868	181.4791	189.6135	234.0894	240.502	259.9068	283.532	284.6369	312.6364	351.4106	384.5279	413.0723	454.2005	537.6722	591.1386	751.0459	836.7719	903.8001	952.3564	993.8381	1013.6154	1071.9413	1076.8084	1120.582	1127.2395	1156.0371	1170.1159	1198.092	1264.4255	1278.765	1305.6779	1381.8307	1391.4205	1402.6166	1420.8958	1448.9873	1477.3855	1479.2309	1485.9031	1492.6466	1501.5005	1505.7033	1513.2632	1521.4267	1835.9749	2895.9053	2939.2427	2954.7756	3009.6619	3046.0357	3062.1841	3070.2835	3087.2353	3107.4053	3114.1483	3124.2621	3137.3598	3825.3841
CN(C)C(C)(CO)C=O	CN(C)[C@@](C)(CO)C=O	
InChI=1S/C6H13NO2/c1-6(4-8,5-9)7(2)3/h4,9H,5H2,1-3H3	InChI=1S/C6H13NO2/c1-6(4-8,5-9)7(2)3/h4,9H,5H2,1-3H3/t6-/m1/s1
