19
gdb 26353	2.43413	1.39772	0.94911	1.7129	77.23	-0.2179	0.0243	0.2422	1246.931	0.158492	-423.057488	-423.048268	-423.047324	-423.091671	34.336	
C	 0.1344005959	 1.4312344177	-0.2756929621	-0.404117
C	 0.0171188624	-0.0342565284	 0.1593874127	 0.005334
O	 0.5333062349	-0.2075920456	 1.4769797541	-0.420635
C	-1.3850797429	-0.5801150378	 0.0539661531	 0.147306
C	-2.0810390962	-1.1461048167	 1.076375613	-0.108577
O	-3.3100194707	-1.5548095432	 0.6650566468	-0.150938
C	-3.3935443826	-1.2505305185	-0.6561524548	-0.087037
C	-2.2558085818	-0.653157532	-1.1008783973	 0.133896
C	-1.9871071575	-0.2022192333	-2.5047402755	-0.507221
H	 1.1624647616	 1.7747007149	-0.1310957933	 0.124166
H	-0.1313090137	 1.5647266912	-1.3274607381	 0.122756
H	-0.5351497388	 2.0623523842	 0.3205830294	 0.111283
H	 0.6841033702	-0.6365198022	-0.4720118722	 0.100845
H	 0.0553798147	 0.4012340403	 2.0518344282	 0.277639
H	-1.8329683011	-1.3505695687	 2.1035368901	 0.137923
H	-4.3156324569	-1.5214315702	-1.1451767274	 0.132018
H	-1.9425979725	 0.8896044789	-2.588737695	 0.132227
H	-1.0348400133	-0.5933782954	-2.8807150142	 0.128561
H	-2.7749312917	-0.5490961753	-3.1794358874	 0.124571
44.5197	151.3381	166.5113	199.3061	249.1376	260.5882	300.6427	323.3634	356.0594	470.5406	503.4172	605.5573	622.7667	673.9543	721.4188	753.8259	786.5886	887.4554	913.33	1014.8013	1027.0061	1060.7326	1065.3539	1090.2138	1103.6756	1173.6287	1189.3453	1247.1056	1288.6547	1309.2048	1344.032	1383.0569	1400.0778	1417.9024	1423.2125	1482.7488	1489.4104	1496.6402	1500.8612	1574.9856	1647.441	3018.2242	3027.164	3034.3826	3077.474	3106.1585	3108.0092	3128.0815	3266.7848	3289.635	3793.6272
CC(O)C1=COC=C1C	C[C@@H](O)c1cocc1C	
InChI=1S/C7H10O2/c1-5-3-9-4-7(5)6(2)8/h3-4,6,8H,1-2H3	InChI=1S/C7H10O2/c1-5-3-9-4-7(5)6(2)8/h3-4,6,8H,1-2H3/t6-/m1/s1
