21
gdb 112266	2.3753	1.17757	0.86236	1.8592	81.1	-0.2269	0.0234	0.2503	1417.8633	0.182253	-420.401205	-420.391232	-420.390288	-420.436698	35.815	
C	-0.1479020909	 1.6158529383	 0.1252026784	-0.388602
C	 0.2540869729	 0.1548077083	-0.0982368903	-0.187467
C	 0.7330444113	-0.5154892593	 1.1737399224	 0.108507
O	-0.3517196294	-0.6786465043	 2.1582106007	-0.271255
C	-0.2711287259	-2.0540745959	 2.0996120798	 0.407395
N	-0.9983928639	-2.9396201528	 2.6120341889	-0.549253
C	 0.9433584425	-2.0572741125	 1.1709372105	-0.114327
N	 0.9247591784	-2.7617081084	-0.0858906671	-0.287896
C	 1.2249372688	-4.1903714561	 0.0384151084	-0.327414
H	 0.700630586	 2.2096764314	 0.4822509194	 0.117165
H	-0.5077591906	 2.0705317576	-0.8021550895	 0.116493
H	-0.9445160927	 1.6874138427	 0.8713551832	 0.136088
H	-0.597909905	-0.4043017993	-0.5037351751	 0.097334
H	 1.058806609	 0.0803716128	-0.8390616535	 0.118103
H	 1.5497915084	 0.0522145283	 1.6317594007	 0.088768
H	-1.761716831	-2.52953098	 3.1542175433	 0.225329
H	 1.8516023084	-2.3429514458	 1.7111553699	 0.108878
H	 0.018907697	-2.6521541945	-0.5291131893	 0.224468
H	 1.1711270266	-4.6526158478	-0.9513255515	 0.118712
H	 2.2496000429	-4.3109022427	 0.4075169295	 0.122594
H	 0.5501420774	-4.7300172599	 0.7181491211	 0.13638
75.6564	77.7186	102.6192	130.3238	171.5906	221.2737	250.6778	290.2417	320.3321	422.9492	446.3058	541.9485	664.543	741.1425	759.1002	803.2803	841.7996	870.4311	907.7223	944.3401	981.8178	1019.1617	1039.8108	1067.6771	1096.9264	1124.615	1159.6024	1180.6003	1216.9381	1226.8355	1249.59	1285.2695	1310.9573	1353.1466	1366.7453	1406.8994	1413.0145	1457.9952	1472.0804	1486.8081	1498.1812	1504.351	1508.1267	1525.155	1811.7028	3000.7874	3030.9609	3037.5561	3050.9217	3066.4141	3069.3954	3075.0263	3106.3264	3106.9372	3118.853	3463.5928	3525.1329
CCC1OC(=N)C1NC	CC[C@H]1O[C]([NH])[C@H]1NC	
InChI=1S/C6H12N2O/c1-3-4-5(8-2)6(7)9-4/h4-5,7-8H,3H2,1-2H3	InChI=1S/C6H12N2O/c1-3-4-5(8-2)6(7)9-4/h4-5,7-8H,3H2,1-2H3/t4-,5+/m1/s1
