15
gdb 36393	6.07796	0.6694	0.65351	4.6821	70.91	-0.3054	0.01	0.3154	1625.6282	0.111473	-416.808386	-416.799454	-416.79851	-416.843749	30.57	
N	 0.1323036008	-0.9727738977	-1.0111684139	-0.287089
C	 0.0548725651	 0.0548037313	-0.4899231677	 0.266836
C	-0.0308787843	 1.3506996939	 0.184377287	-0.375803
C	 1.3317421332	 2.0180077051	 0.3005759288	 0.057144
O	 1.7852438073	 2.7814674702	-0.8142322029	-0.229983
C	 1.5270377469	 3.472079651	 0.405488832	 0.057149
C	 0.3898672221	 4.4831800003	 0.410420404	-0.375815
C	 0.8253537174	 5.7925685148	-0.0766516928	 0.266855
N	 1.1794955791	 6.8264932531	-0.4497345908	-0.28709
H	-0.7279421414	 1.9856494923	-0.3686249804	 0.162465
H	-0.4487118141	 1.1922220589	 1.1861066188	 0.164674
H	 2.0950382926	 1.3797033542	 0.7463140119	 0.126774
H	 2.4225503684	 3.818129634	 0.9222530813	 0.126766
H	-0.4391499179	 4.1378170948	-0.2127320147	 0.162442
H	 0.0098840448	 4.6033275538	 1.4323525094	 0.164677
35.0195	57.3788	94.941	153.4087	208.151	323.0564	379.905	381.8535	410.3614	481.7526	522.7271	583.6979	791.4004	839.2891	889.5029	947.771	950.4224	974.694	1043.0815	1062.2348	1147.1298	1160.1589	1236.5247	1250.443	1298.8584	1311.7431	1329.8119	1405.1036	1442.2031	1453.183	1493.0045	2369.5827	2369.8055	3044.6638	3047.5552	3097.2011	3106.9728	3112.4699	3123.8685
N#CCC1OC1CC#N	N#CC[C@H]1O[C@H]1CC#N	
InChI=1S/C6H6N2O/c7-3-1-5-6(9-5)2-4-8/h5-6H,1-2H2	InChI=1S/C6H6N2O/c7-3-1-5-6(9-5)2-4-8/h5-6H,1-2H2/t5-,6+
