14
gdb 14637	5.8681	0.69258	0.62424	1.1775	87.09	-0.2419	-0.0136	0.2284	1714.7069	0.103797	-308.188935	-308.179627	-308.178683	-308.224701	31.448	
C	 0.080901937	 1.5172955993	-0.0342077474	-0.496372
C	 0.0409248163	 0.0636825543	 0.0292661011	 0.073454
C	 0.0042118717	-1.1371149891	 0.0814031353	 0.081515
C	-0.0376679524	-2.5995661868	 0.1451309208	-0.530747
C	-1.3898845948	-3.149032846	 0.0602135964	 0.435074
C	-2.5043996853	-3.6122171628	-0.0093065628	-0.285264
C	-3.7594275102	-4.1328381193	-0.0876361086	 0.296853
C	-4.8723014116	-4.596038214	-0.1570226709	-0.548256
H	 0.6701115843	 1.8622918416	-0.8907871363	 0.149881
H	-0.9269352768	 1.9344753228	-0.134678754	 0.15382
H	 0.5279719406	 1.943113587	 0.8706271952	 0.14988
H	 0.5730317824	-3.0249268237	-0.6643059687	 0.164572
H	 0.4311253706	-2.9449454263	 1.0778795011	 0.164572
H	-5.8511391919	-5.0023393671	-0.2181032213	 0.191017
19.8492	51.3725	139.5377	153.7061	197.0532	256.372	337.7053	372.5447	373.0411	473.4229	532.2331	539.0743	591.3443	595.926	737.4638	766.1013	927.5208	1052.6618	1054.4828	1145.6358	1183.1444	1227.3113	1337.0189	1414.8051	1448.303	1477.6717	1478.232	2184.4971	2370.6734	2383.6355	2999.19	3022.2036	3029.1014	3090.5866	3091.7463	3506.2573	19.8513	51.372	139.5374	153.7056	197.0537	256.3723	337.7039	372.5435	373.0362	473.4224	532.2444	539.0831	591.3444	595.9279	737.4638	766.101	927.5202	1052.6615	1054.4824	1145.6356	1183.144	1227.3102	1337.0187	1414.805	1448.3019	1477.6715	1478.2318	2184.4971	2370.6735	2383.635	2999.1901	3022.2037	3029.1015	3090.5866	3091.7464	3506.2577
CC#CCC#CC#C	CC#CCC#CC#C	
InChI=1S/C8H6/c1-3-5-7-8-6-4-2/h1H,8H2,2H3	InChI=1S/C8H6/c1-3-5-7-8-6-4-2/h1H,8H2,2H3
