21
gdb 90336	2.30158	1.54323	1.45773	1.1549	84.42	-0.2317	0.0132	0.2449	1076.3501	0.182744	-387.077913	-387.069316	-387.068372	-387.11055	34.239	
C	-0.1796510308	 1.4848605598	-0.1176541409	-0.40417
C	 0.012748612	-0.0215797386	-0.0383195918	-0.025445
C	 1.2733868475	-0.5541831893	-0.8400901048	-0.34912
C	 1.9739430335	-0.590743323	 0.498012909	 0.252679
C	 3.0182670837	-0.1702659884	 1.2034546148	-0.231613
C	 2.5905835882	 0.1086637832	 2.645217687	-0.253993
C	 1.0301139153	 0.202452608	 2.560096024	-0.312706
C	 0.6848108954	-0.5782023416	 1.2743739942	 0.393953
O	 0.1085099897	-1.8620722928	 1.5086321164	-0.497014
H	 0.751703456	 2.0175007461	 0.1058668063	 0.116255
H	-0.4977650626	 1.7814085345	-1.1226371368	 0.114426
H	-0.9425034503	 1.8282097621	 0.5890888722	 0.118275
H	-0.9153820518	-0.5503065452	-0.2686754948	 0.081184
H	 1.0845183637	-1.5425365743	-1.2671223616	 0.117188
H	 1.6944084219	 0.0973357424	-1.6104226993	 0.104266
H	 4.0178136016	 0.0453123689	 0.8406444794	 0.092353
H	 2.9239391637	-0.6745822334	 3.3405646786	 0.101005
H	 3.0314695414	 1.0417170174	 3.012720195	 0.105715
H	 0.5185694372	-0.2109450405	 3.4334826345	 0.097951
H	 0.736886096	 1.2530276806	 2.4729378222	 0.105942
H	 0.7532581986	-2.387599076	 1.9955564462	 0.272869
95.2136	184.223	221.6793	231.3392	263.435	303.6721	328.7379	390.7182	440.5066	498.6363	555.8252	644.8423	717.0275	737.9391	806.3937	823.248	839.0831	884.0255	901.0124	920.7567	972.957	989.1312	1020.0726	1057.5678	1070.2381	1094.7456	1118.9085	1165.7025	1175.2256	1193.652	1212.7592	1227.7153	1258.5662	1274.7224	1312.343	1322.844	1346.0485	1355.7003	1412.3943	1466.5212	1474.2408	1496.4167	1498.4146	1501.3415	1734.7805	3007.8566	3027.8581	3052.7335	3057.0769	3064.1902	3074.8754	3097.2057	3098.2427	3104.8456	3110.609	3184.7538	3793.9078
CC1CC2=CCCC12O	C[C@H]1C[C]2[CH]CC[C@@]12O	
InChI=1S/C8H12O/c1-6-5-7-3-2-4-8(6,7)9/h3,6,9H,2,4-5H2,1H3	InChI=1S/C8H12O/c1-6-5-7-3-2-4-8(6,7)9/h3,6,9H,2,4-5H2,1H3/t6-,8+/m0/s1
