17
gdb 103051	2.5294	1.53122	1.14411	2.8158	73.76	-0.2509	0.0159	0.2668	1089.3502	0.135885	-417.955851	-417.947384	-417.946439	-417.989107	31.212	
C	 0.2482628248	 1.2048937296	-0.3673678965	-0.338739
N	-0.1750901367	-0.0860810342	 0.1746788657	-0.332081
C	 0.6202584074	-0.5763521252	 1.2540995361	 0.138157
C	 0.5480590956	 0.1354288105	 2.5167275157	 0.242492
N	 0.4531470492	 0.7411405731	 3.4991312483	-0.34456
C	 0.8765215476	-2.0796464506	 1.4131864631	-0.20445
C	 1.0276468928	-2.6782820965	 0.0168380834	-0.099309
O	 2.0745371639	-1.7188815405	-0.3160241466	-0.279822
C	 2.0009450762	-1.1781435008	 0.9849731722	 0.087145
H	 1.2465331368	 1.0946768353	-0.7999871878	 0.144707
H	-0.4374269873	 1.4923079436	-1.1685494375	 0.125911
H	 0.2749437205	 2.0153984831	 0.3770597971	 0.121271
H	-1.154176904	-0.0703609555	 0.4376525368	 0.232181
H	 0.6836413541	-2.6055793609	 2.3373966867	 0.126587
H	 1.4375314725	-3.6925207669	 0.0295513245	 0.121924
H	 0.1726194889	-2.603021516	-0.6581579235	 0.127361
H	 2.9067795978	-0.8226549582	 1.4615183323	 0.131223
79.3908	141.3937	151.8832	195.4869	210.904	295.2509	346.8421	453.076	474.1975	546.1997	590.4792	676.9026	747.0533	802.0325	844.2051	922.8753	942.4678	975.7506	993.963	1028.7208	1068.8549	1070.7365	1107.5446	1139.8635	1160.2252	1165.48	1194.1307	1247.6202	1280.012	1315.2844	1390.8107	1458.3213	1476.0504	1490.3081	1494.7483	1516.2188	2330.9591	2988.2978	3056.2999	3084.5497	3122.885	3124.1264	3190.725	3219.1048	3534.468
CNC1(C#N)C2COC12	CN[C@@]1(C#N)[C@H]2CO[C@@H]12	
InChI=1S/C6H8N2O/c1-8-6(3-7)4-2-9-5(4)6/h4-5,8H,2H2,1H3	InChI=1S/C6H8N2O/c1-8-6(3-7)4-2-9-5(4)6/h4-5,8H,2H2,1H3/t4-,5+,6-/m0/s1
