15
gdb 14413	3.37672	2.17501	1.77046	2.9309	65.19	-0.2196	0.0016	0.2212	784.5822	0.119573	-362.615364	-362.608739	-362.607795	-362.646035	25.558	
C	-0.0769327614	 1.5332522678	-0.0215358709	-0.525072
C	 0.0516394226	 0.0478848405	-0.0119740339	 0.337219
C	 0.075808593	-1.0373787809	-1.0199959724	-0.077194
N	 1.2905097762	-1.6502759712	-0.4672646714	-0.308931
C	 0.950231917	-0.9613754023	 0.8133928799	-0.203155
C	-0.4044781816	-1.5529953563	 1.280945559	 0.438897
O	-0.8019284483	-1.9883178599	 2.3262776414	-0.342075
C	-1.0564874856	-1.0623991145	 0.0303428133	-0.265886
H	 0.8712164983	 2.0067734236	-0.2972077345	 0.140153
H	-0.835409294	 1.850916305	-0.7437021915	 0.133583
H	-0.3721431613	 1.9128087584	 0.9622556165	 0.139098
H	-0.1480839222	-1.0093389678	-2.0801853611	 0.109416
H	 1.2439915707	-2.6694067175	-0.3894907894	 0.216899
H	 1.7548701682	-0.7340519876	 1.5091217223	 0.095616
H	-2.1047520616	-0.9630136973	-0.2153433471	 0.111431
118.0824	195.9832	258.5933	294.1638	426.6407	502.4197	599.2354	618.6466	714.0657	748.2075	777.2804	827.1218	892.6039	931.7026	942.1949	970.8709	1007.3416	1056.3948	1068.2579	1095.1505	1120.4794	1159.5118	1174.2858	1185.2977	1221.9131	1303.0478	1350.8414	1413.3712	1460.4686	1484.0046	1495.0638	1872.7719	3033.1959	3097.9288	3106.353	3150.2346	3182.8038	3222.3888	3407.7483
CC12C3NC1C(=O)C23	C[C@@]12[C@H]3N[C@@H]1C(=O)[C@@H]23	
InChI=1S/C6H7NO/c1-6-2-3(8)5(6)7-4(2)6/h2,4-5,7H,1H3	InChI=1S/C6H7NO/c1-6-2-3(8)5(6)7-4(2)6/h2,4-5,7H,1H3/t2-,4+,5-,6-/m1/s1
