20
gdb 106560	2.26744	1.41277	1.35191	3.3115	76.12	-0.2109	0.0657	0.2766	1102.6926	0.169555	-440.191876	-440.182583	-440.181639	-440.225637	35.204	
C	 0.1070568683	 1.5018523879	-0.0306497631	-0.342291
N	 0.1353311443	 0.0362625705	 0.0364453502	-0.154042
C	-1.0431462396	-0.7273825525	 0.6066992811	-0.089324
C	-0.077379226	-1.9347412265	 0.7016232952	-0.245552
C	 0.6754807121	-0.6943992154	 1.2690378993	 0.277499
C	 2.1313802902	-0.5642799306	 1.6160917896	-0.184751
O	 2.9340936601	-0.8710640186	 0.4888002233	-0.425047
C	-0.6142115242	-0.4013000109	 2.0843035412	 0.085159
O	-0.7424510726	 0.875626398	 2.649828734	-0.431848
H	 1.1372284915	 1.8582000833	-0.144435386	 0.116199
H	-0.4295221622	 1.7791689729	-0.9452598716	 0.113646
H	-0.3459816847	 2.014050017	 0.8203192089	 0.130577
H	-2.0328304618	-0.6878639905	 0.1478996171	 0.080082
H	-0.3254720557	-2.7349069951	 1.4006810273	 0.094668
H	 0.2959055632	-2.2939290535	-0.2543577179	 0.114537
H	 2.3299930511	 0.4542362276	 1.9875691878	 0.099626
H	 2.3975628257	-1.2628429293	 2.4180479696	 0.108076
H	 2.4341305064	-0.5763550816	-0.2835768459	 0.29137
H	-0.8828112441	-1.1756542557	 2.8177815723	 0.072036
H	-1.606252932	 0.9341478528	 3.0697257674	 0.289379
83.6888	134.0976	136.602	212.3089	244.7667	261.9517	298.543	339.5902	394.5573	401.8927	502.9455	528.6283	656.5135	686.1333	726.2434	779.4018	825.2834	879.4375	916.2691	949.8508	1019.0227	1054.9351	1074.467	1104.9441	1132.0301	1145.5341	1155.8469	1171.4614	1173.8749	1204.7393	1211.0405	1227.9493	1253.869	1282.6195	1342.4667	1351.8374	1432.587	1450.3492	1454.6834	1486.6482	1507.242	1509.2285	1518.9823	2975.4731	2985.932	3026.5948	3055.724	3083.2163	3086.9001	3101.4221	3123.2755	3179.2131	3761.5773	3821.8512
CN1C2CC1(CO)C2O	CN1[C@H]2C[C@]1(CO)[C@H]2O	
InChI=1S/C6H11NO2/c1-7-4-2-6(7,3-8)5(4)9/h4-5,8-9H,2-3H2,1H3	InChI=1S/C6H11NO2/c1-7-4-2-6(7,3-8)5(4)9/h4-5,8-9H,2-3H2,1H3/t4-,5-,6-/m0/s1
