21
gdb 73523	2.62947	1.69683	1.34664	0.1839	89.02	-0.2253	0.0244	0.2497	1055.1436	0.184502	-349.97964	-349.971782	-349.970838	-350.011382	32.19	
C	-0.092790063	 1.5943896487	-0.1004861066	-0.432377
C	-0.0398599507	 0.0496751838	-0.0526591801	 0.239665
C	-1.4518147862	-0.5408849357	 0.1993274081	-0.271912
C	-1.5277789466	-0.6783089948	 1.7477829275	-0.249097
C	-0.0709693887	-0.8683544065	 2.1355385827	-0.228774
C	 0.7343143092	-0.4802204761	 1.1520288537	 0.320353
C	 2.1719825493	-0.7148489768	 0.7727763634	-0.385158
C	 2.0279638848	-0.8647040037	-0.73812703	-0.07096
C	 0.826198311	-0.4821902177	-1.1798025231	-0.138853
H	 0.9117104721	 2.0274188216	-0.0710600032	 0.113073
H	-0.5769999942	 1.9360547046	-1.0224136433	 0.109657
H	-0.6611528991	 1.9933212089	 0.7464510787	 0.114552
H	-2.2572418751	 0.0724374438	-0.2167708313	 0.086423
H	-1.5217790678	-1.5366433022	-0.250880908	 0.099142
H	-1.9685224027	 0.213355616	 2.2163972833	 0.102276
H	-2.1519350555	-1.5238798092	 2.0575702602	 0.099139
H	 0.2361602278	-1.3186577118	 3.0733972792	 0.085145
H	 2.8342154557	 0.1296656827	 1.0171513888	 0.113847
H	 2.6032099515	-1.5969765185	 1.2593374305	 0.113374
H	 2.8395208808	-1.2237464844	-1.3620002989	 0.091644
H	 0.5194561977	-0.4723069927	-2.2208713616	 0.08884
140.1961	206.434	238.8673	243.9604	277.5649	340.3558	439.8332	458.989	575.2313	621.2548	654.8104	719.846	744.7035	791.1118	818.7322	867.2717	915.116	926.475	932.6972	959.5813	967.5683	970.7809	987.8353	1003.7807	1077.5386	1097.5573	1132.104	1154.9984	1189.9207	1213.9994	1221.6152	1231.4024	1273.4262	1299.4251	1317.3489	1341.9501	1366.1533	1405.2502	1471.5262	1481.9835	1489.3062	1497.4184	1499.3754	1658.8292	1741.2966	2990.5432	3002.7289	3025.0935	3041.5591	3056.7046	3058.3818	3090.0888	3092.2708	3104.6558	3173.4068	3186.678	3199.5796
CC12CCC=C1CC=C2	C[C@]12CC[CH][C]1CC=C2	
InChI=1S/C9H12/c1-9-6-2-4-8(9)5-3-7-9/h2,5-6H,3-4,7H2,1H3	InChI=1S/C9H12/c1-9-6-2-4-8(9)5-3-7-9/h2,5-6H,3-4,7H2,1H3/t9-/m0/s1
