13
gdb 23656	3.9559	1.82196	1.24838	4.7609	63.5	-0.2336	-0.0086	0.225	878.7994	0.097535	-402.81654	-402.810182	-402.809238	-402.846848	24.888	
N	-0.0163897523	 1.3977684623	-0.1438839936	-0.588625
C	-0.0047963211	 0.0227650584	-0.055843271	 0.385232
C	-1.193215232	-0.7151894211	-0.028961694	-0.363319
C	-1.0884984342	-2.0979997201	 0.006578182	 0.360401
F	-2.2209724892	-2.8002966024	 0.033401813	-0.079234
N	 0.0234965481	-2.798307499	 0.0202834821	-0.33845
C	 1.1559335814	-2.0789203429	-0.0048720999	 0.012018
C	 1.2043477487	-0.6978871104	-0.0420565667	-0.203689
H	 0.82309181	 1.8787292302	 0.1376456835	 0.257033
H	-0.8636825474	 1.8668884898	 0.1348975383	 0.257268
H	-2.1668590523	-0.2400359999	-0.0380943716	 0.100162
H	 2.0795312199	-2.6519389934	 0.0079093661	 0.112898
H	 2.1570830503	-0.1801909914	-0.063582248	 0.088302
212.062	234.5465	328.4417	383.3742	462.1061	476.6586	485.4272	533.8795	573.182	673.246	752.9935	788.7617	831.4896	853.365	980.6004	991.2426	1001.823	1088.7795	1138.5768	1212.9148	1326.1939	1339.7121	1379.4969	1479.8119	1525.2845	1615.5743	1646.8692	1665.5355	3159.4363	3189.4427	3199.1972	3588.1286	3694.5747
NC1=CC(F)=NC=C1	Nc1cc(F)ncc1	
InChI=1S/C5H5FN2/c6-5-3-4(7)1-2-8-5/h1-3H,(H2,7,8)	InChI=1S/C5H5FN2/c6-5-3-4(7)1-2-8-5/h1-3H,(H2,7,8)
