16
gdb 45114	2.93946	1.67752	1.1467	3.439	72.53	-0.2326	-0.0361	0.1965	1030.2917	0.126426	-434.056713	-434.049199	-434.048254	-434.089393	29.006	
N	-0.1122903696	 1.1955187342	 0.6773110702	-0.532941
C	-0.0053981139	 0.0499375961	 0.119279584	 0.289788
N	-1.1136012391	-0.5530917134	-0.4106974635	-0.316831
C	-1.1423769868	-1.8939760438	-0.8798645856	-0.024226
C	-0.7846698818	-2.1847008349	-2.3315995387	-0.322164
C	 0.1975675297	-2.4561126056	-1.2282603753	 0.089627
O	 1.31913802	-1.6204516785	-1.0935054144	-0.224763
C	 1.3024291771	-0.7009273132	-0.0850604863	 0.316586
N	 2.3899883007	-0.4786314728	 0.516786185	-0.470683
H	 0.7962262103	 1.5658039474	 0.9456277546	 0.215552
H	-1.9615235538	-0.0069528624	-0.384172056	 0.256709
H	-1.8534050805	-2.5500526083	-0.383731334	 0.113315
H	-1.2468708874	-3.0335976124	-2.8223075901	 0.125134
H	-0.584955369	-1.3240168372	-2.9590071683	 0.137081
H	 0.425504831	-3.4831012255	-0.9605110206	 0.120056
H	 2.2735773131	 0.2642419203	 1.2053570091	 0.227759
47.0765	87.9869	282.8363	365.4884	389.568	448.5437	491.8841	506.6119	527.5043	563.4739	724.0841	730.7122	761.0425	805.5475	833.8401	862.7632	889.3688	928.129	989.2226	1036.0122	1052.0708	1075.0092	1113.5295	1139.6931	1171.6897	1199.9507	1268.5463	1288.087	1383.6857	1414.1408	1434.2835	1458.2948	1486.6251	1701.8545	1736.2269	3128.3864	3143.4172	3157.2476	3241.9615	3495.5917	3516.7613	3615.9752
N=C1NC2CC2OC1=N	[NH][C]1N[C@H]2C[C@H]2O[C]1[NH]	
InChI=1S/C5H7N3O/c6-4-5(7)9-3-1-2(3)8-4/h2-3,7H,1H2,(H2,6,8)	InChI=1S/C5H7N3O/c6-4-5(7)9-3-1-2(3)8-4/h2-3,7H,1H2,(H2,6,8)/t2-,3+/m0/s1
