18
gdb 7058	5.9975	0.90689	0.8486	0.3699	79.82	-0.2589	0.0368	0.2958	1344.0155	0.150314	-310.608934	-310.599464	-310.59852	-310.643026	34.62	
C	 0.0017194919	 1.5916687261	 0.0466854876	-0.391701
C	 0.0120589156	 0.0612412912	 0.0206860084	 0.029838
C	-1.4209697572	-0.5234171002	 0.0557472631	-0.362978
C	-2.1599155686	-0.1839258915	 1.2652964959	 0.294461
C	-2.7519387385	 0.0970009826	 2.2732053942	-0.434461
C	 0.7498078465	-0.4870068451	-1.2250135325	-0.362979
C	 2.1569629205	-0.1114943826	-1.2816906933	 0.294466
C	 3.3181167981	 0.1988449364	-1.3082004303	-0.434465
H	 1.0209428789	 1.9860397447	 0.0380096619	 0.131001
H	-0.5223317197	 1.9917567707	-0.8302218994	 0.109354
H	-0.5082916827	 1.960375829	 0.9401977439	 0.131002
H	 0.5421552649	-0.302013614	 0.9088278682	 0.098892
H	-1.9758843071	-0.1671495373	-0.8236207672	 0.127547
H	-1.3705863274	-1.6162428532	-0.0378923267	 0.12681
H	-3.2832903491	 0.3416594678	 3.1592538222	 0.194428
H	 0.6707225719	-1.5820063218	-1.2422370712	 0.126811
H	 0.2395405096	-0.130013755	-2.1307335985	 0.127547
H	 4.3442250424	 0.469564082	-1.3411704164	 0.194427
61.7062	98.9175	110.5208	183.3011	247.0674	303.4607	342.2188	347.0752	351.5585	410.9673	451.3115	583.8886	615.7535	616.2047	637.1068	638.4177	838.3163	877.9468	901.718	909.9901	978.5872	998.9954	1098.5672	1117.2222	1133.3194	1215.6982	1272.8347	1285.3048	1346.5074	1370.8721	1376.5627	1416.1843	1464.765	1474.4489	1499.1057	1503.7942	2237.1389	2237.5434	3007.0592	3009.4638	3029.6787	3035.6349	3040.3109	3056.4849	3104.73	3128.8128	3506.4851	3506.7925
CC(CC#C)CC#C	CC(CC#C)CC#C	
InChI=1S/C8H10/c1-4-6-8(3)7-5-2/h1-2,8H,6-7H2,3H3	InChI=1S/C8H10/c1-4-6-8(3)7-5-2/h1-2,8H,6-7H2,3H3
