22
gdb 94647	3.11941	0.86496	0.72636	3.7228	84.17	-0.2481	0.0347	0.2828	1597.362	0.194318	-404.368754	-404.358888	-404.357943	-404.404923	35.812	
C	-0.4638895235	 1.4935837013	-0.0967189074	-0.414788
C	 0.0361155042	 0.0603639677	 0.0205842459	 0.043115
C	 1.3435112305	-0.356662437	-0.7092503484	-0.223927
C	 1.6946761897	-1.2580247794	 0.5039601066	-0.232461
C	 0.6560959753	-0.4687929461	 1.3594090565	-0.005358
C	 1.2758280389	 0.602973884	 2.2567469094	-0.174385
N	 1.9552723682	 0.0265388672	 3.4080818323	-0.276112
C	 1.5909883618	 0.277075941	 4.6936577255	 0.15332
O	 0.6985816407	 1.0213899821	 5.0418448161	-0.323409
H	 0.31067511	 2.220167097	 0.1694036641	 0.116347
H	-0.7751024273	 1.7082382974	-1.1251148686	 0.113921
H	-1.3274822972	 1.6729505576	 0.5531940716	 0.121742
H	-0.7685538442	-0.62369159	-0.2715842245	 0.075573
H	 1.2474983336	-0.835831807	-1.6865963498	 0.097046
H	 2.0362395296	 0.4853120259	-0.8089232176	 0.099129
H	 1.3933892413	-2.2971820486	 0.3484168102	 0.104639
H	 2.7360145314	-1.2541056009	 0.8432338702	 0.082427
H	-0.0128852909	-1.0807395199	 1.9718059442	 0.07412
H	 1.982173443	 1.2231361822	 1.68927619	 0.104407
H	 0.5086138622	 1.2651182563	 2.6638420054	 0.148627
H	 2.7015100204	-0.63161466	 3.2493898015	 0.245608
H	 2.2200032021	-0.2865704409	 5.4119097468	 0.070419
25.2172	72.0243	111.421	149.9187	210.6928	230.7428	256.6021	312.8573	358.8896	425.3842	492.0159	534.6276	636.8389	746.1713	752.9606	866.3415	881.5313	891.7256	919.2867	947.211	963.7465	1004.4574	1020.6151	1032.1907	1104.1609	1130.4878	1153.4576	1173.7938	1210.3098	1220.7692	1248.9405	1263.9724	1271.1165	1277.9319	1312.9395	1346.255	1375.1377	1405.8809	1411.9223	1431.8163	1480.2446	1487.2195	1496.4787	1498.8839	1503.7744	1531.8427	1806.3537	2929.0269	3014.0208	3029.183	3035.0943	3040.7472	3051.5882	3061.5563	3091.0405	3092.0329	3101.4902	3109.9188	3117.8385	3635.0018
CC1CCC1CNC=O	C[C@H]1CC[C@H]1CNC=O	
InChI=1S/C7H13NO/c1-6-2-3-7(6)4-8-5-9/h5-7H,2-4H2,1H3,(H,8,9)	InChI=1S/C7H13NO/c1-6-2-3-7(6)4-8-5-9/h5-7H,2-4H2,1H3,(H,8,9)/t6-,7-/m0/s1
