18
gdb 51160	4.35695	1.05176	0.9545	3.5008	79.85	-0.2429	0.0051	0.248	1259.492	0.147985	-401.938139	-401.930127	-401.929182	-401.971137	30.599	
N	-0.1219589257	 1.3145934455	-0.0704274185	-0.442073
C	-0.1486976433	 0.0650813843	-0.2422559656	 0.104126
O	-1.060873842	-0.6843257796	 0.4176655878	-0.230746
C	-0.9762237283	-2.0749982307	 0.2396022503	 0.40832
C	-1.2648607356	-2.6929856933	-1.1100396605	-0.336673
C	-2.2244982562	-2.9030812693	 0.0446154132	-0.113866
C	-2.0786032931	-4.1576914889	 0.9030281161	-0.280229
C	-0.6936197382	-4.018073871	 1.5033498938	-0.070833
C	-0.1085380508	-2.8689193303	 1.1615530379	-0.145835
H	 0.6102775023	 1.725684709	-0.6459656387	 0.228548
H	 0.5016714893	-0.5244687926	-0.9008047206	 0.091674
H	-1.6149658281	-2.0253880857	-1.8908457308	 0.123264
H	-0.6366025993	-3.5106582711	-1.4488982601	 0.117627
H	-3.1849025453	-2.4077228794	-0.023799715	 0.107775
H	-2.8489286292	-4.209730382	 1.6831964921	 0.117984
H	-2.1764151114	-5.0764803764	 0.3107920957	 0.115776
H	-0.2436014152	-4.792491698	 2.1138686963	 0.10221
H	 0.87485368	-2.5313915904	 1.4672012165	 0.102952
65.4184	114.1505	144.4824	270.3445	302.5475	368.7188	435.4036	446.3127	528.8118	704.1583	740.4375	752.7588	774.5601	823.8294	853.947	916.9575	930.648	951.8919	958.8152	980.8247	1022.1215	1046.4282	1050.277	1063.4106	1087.0135	1098.702	1132.0683	1190.9318	1247.4244	1258.716	1290.1274	1312.7313	1354.8643	1395.7208	1414.2783	1467.2915	1480.4813	1668.5437	1744.1343	3022.7527	3039.8764	3050.6009	3122.9748	3190.9814	3194.0195	3214.978	3216.0139	3515.5537
N=COC12CC1CC=C2	[NH][CH]O[C@]12C[C@H]1CC=C2	
InChI=1S/C7H9NO/c8-5-9-7-3-1-2-6(7)4-7/h1,3,5-6,8H,2,4H2	InChI=1S/C7H9NO/c8-5-9-7-3-1-2-6(7)4-7/h1,3,5-6,8H,2,4H2/t6-,7-/m1/s1
