14
gdb 33963	3.48224	1.44836	1.25383	4.4857	65.66	-0.2873	-0.0147	0.2726	977.8027	0.101244	-436.654689	-436.647871	-436.646927	-436.685949	26.343	
N	 0.0197007488	-1.1638025161	-0.0705039487	-0.325238
C	 0.0529170813	-0.0105966383	 0.0007327231	 0.208859
C	 0.0698011899	 1.4219483379	 0.1406880215	 0.306518
O	 0.2797011658	 2.2002626694	-1.0376450032	-0.259107
C	 1.2826580616	 2.2648899028	-0.0276376664	-0.02614
C	 1.1971536134	 3.4594415387	 0.915979867	-0.283756
C	-0.1478772722	 3.3244699572	 1.6247598737	 0.035719
O	-1.2907440136	 3.3732509256	 0.7671897775	-0.222453
C	-0.8281982416	 2.0955215049	 1.1782999195	-0.068677
H	 2.2465809399	 1.8472634344	-0.3076265083	 0.127009
H	 2.011207457	 3.4069130404	 1.6470517072	 0.125528
H	 1.2855660174	 4.4078946318	 0.3775736349	 0.145433
H	-0.2893912338	 3.7578358458	 2.6116353017	 0.113856
H	-1.498214774	 1.4920258655	 1.7819329205	 0.122449
139.3092	153.3231	270.2099	329.7322	401.2721	480.4833	515.4345	551.0961	623.0002	720.7891	750.8259	807.9612	861.7049	890.8008	923.9346	946.7626	982.1723	1008.7179	1025.5434	1082.3249	1118.0751	1175.393	1208.5726	1258.0974	1286.2764	1301.8963	1324.9295	1419.3685	1427.4867	1458.3265	2360.4092	3056.0224	3103.3623	3148.2685	3152.6559	3176.5491
N#CC12OC1CC1OC21	N#C[C@]12O[C@H]1C[C@H]1O[C@@H]21	
InChI=1S/C6H5NO2/c7-2-6-4(9-6)1-3-5(6)8-3/h3-5H,1H2	InChI=1S/C6H5NO2/c7-2-6-4(9-6)1-3-5(6)8-3/h3-5H,1H2/t3-,4+,5-,6+/m1/s1
