20
gdb 85519	2.38801	1.57898	1.06281	3.6428	78.72	-0.2321	-0.007	0.2251	1161.9828	0.172341	-403.164628	-403.156327	-403.155383	-403.197755	32.25	
C	-0.135280774	 1.5308658258	 0.0469051906	-0.400127
C	 0.0180508413	 0.0047555501	 0.0562985058	 0.00595
C	 0.6815000266	-0.4969685658	-1.2438355835	-0.306281
C	 0.9194114756	-1.9954354226	-1.2388032421	 0.371863
O	 0.5681203556	-2.7133230146	-2.1462595719	-0.311359
C	 1.6481705322	-2.5716102454	-0.022239654	-0.307584
C	 1.6037103784	-1.7113094457	 1.2270295099	-0.048704
N	 2.2709412613	-0.3970707573	 1.1558499753	-0.340406
C	 0.8025081148	-0.4608482283	 1.2709689471	-0.018818
H	 0.8476022639	 2.0122725872	 0.0102198348	 0.128192
H	-0.7112709689	 1.8648262872	-0.8218216002	 0.116469
H	-0.6514856992	 1.882102838	 0.9469299376	 0.109128
H	-0.9831344619	-0.4443670757	 0.1264090205	 0.083469
H	 0.0780689455	-0.2472115819	-2.1196264763	 0.112225
H	 1.6581146078	-0.0061040529	-1.3393202439	 0.138224
H	 1.2187444092	-3.5592443345	 0.1718652125	 0.127624
H	 2.6922994826	-2.7401242538	-0.3189958832	 0.137466
H	 1.7084651478	-2.2626956732	 2.1589283436	 0.089346
H	 2.690272101	-0.1637691094	 2.0509921561	 0.23264
H	 0.3632641004	-0.1856553573	 2.2287848112	 0.080684
55.5585	123.0759	220.5517	258.6703	288.1708	337.0798	390.398	430.5943	485.9781	546.6758	578.1071	652.683	772.4257	794.6275	818.5111	856.1701	907.1523	917.5152	958.389	973.2499	992.1897	1049.6873	1087.4625	1109.8924	1139.791	1157.9573	1165.5937	1213.9224	1238.9853	1256.5092	1275.0926	1296.9814	1336.4953	1353.9947	1363.7841	1399.3322	1408.8485	1438.3135	1454.0436	1469.6514	1495.785	1501.7703	1812.0591	3003.2549	3027.7749	3030.1391	3040.4324	3088.3612	3098.816	3106.2386	3111.8638	3113.7161	3129.5315	3515.1327
CC1CC(=O)CC2NC12	C[C@H]1CC(=O)C[C@H]2N[C@@H]12	
InChI=1S/C7H11NO/c1-4-2-5(9)3-6-7(4)8-6/h4,6-8H,2-3H2,1H3	InChI=1S/C7H11NO/c1-4-2-5(9)3-6-7(4)8-6/h4,6-8H,2-3H2,1H3/t4-,6+,7-/m0/s1
