23
gdb 75573	2.34686	1.42575	1.06814	0.1653	95.13	-0.2132	-0.0011	0.212	1265.7711	0.20673	-351.182937	-351.173673	-351.172729	-351.216262	36.259	
C	-0.1978526868	 1.5045641569	 0.0411920247	-0.491534
C	-0.039639611	 0.0026830783	 0.0022016134	 0.245096
C	 0.0001140271	-0.6670683699	-1.1627036206	-0.147411
C	 0.0426675183	-2.1715810526	-1.2708862729	-0.246861
C	 1.3754628994	-2.817272433	-0.8310165822	-0.180784
C	 1.9594032661	-2.1193253384	 0.4174337679	-0.246861
C	 0.9402192478	-1.7188162299	 1.4556674466	-0.147411
C	 0.0517794202	-0.7231446031	 1.2929893701	 0.245097
C	-0.8651903552	-0.2958542422	 2.4149474991	-0.491534
H	 0.605828442	 1.9798827072	 0.6170491765	 0.122508
H	-0.1879189	 1.925243649	-0.9677804121	 0.118563
H	-1.1408398068	 1.8003024552	 0.5166992256	 0.124489
H	-0.0495380281	-0.0988824946	-2.0895030346	 0.075903
H	-0.7435645828	-2.580622332	-0.6239444697	 0.108648
H	-0.1967245909	-2.4822207537	-2.2929700803	 0.089319
H	 1.1971088695	-3.8820055005	-0.6361510383	 0.091671
H	 2.1189340768	-2.7665059	-1.6360710609	 0.091671
H	 2.7267514535	-2.7559689289	 0.8694545246	 0.089319
H	 2.4667783935	-1.2099468451	 0.0715864101	 0.108648
H	 0.9644597564	-2.2414280205	 2.4098932805	 0.075903
H	-0.7472362609	-0.9462162568	 3.285700938	 0.118563
H	-0.6600760557	 0.7324591357	 2.7363418605	 0.12449
H	-1.9180462924	-0.3239585213	 2.108116624	 0.122507
115.1354	155.5191	180.9477	209.8557	220.284	278.6897	307.4056	339.2396	384.168	408.0521	463.5161	601.8485	607.3579	657.7941	698.9639	785.3104	834.7103	841.9988	880.3284	901.7589	980.5915	995.8835	1035.861	1060.1461	1061.6141	1061.6431	1080.6245	1122.2044	1126.4385	1189.0267	1231.6909	1244.9918	1301.9655	1323.8627	1339.1246	1366.0034	1378.8951	1407.2977	1407.3576	1413.0252	1475.2186	1477.4909	1478.4193	1487.6924	1493.5697	1495.432	1501.7136	1668.0468	1706.2333	3017.9542	3018.6286	3020.1808	3021.7558	3026.6227	3056.6221	3067.463	3070.0906	3074.4351	3077.8267	3110.1271	3111.7957	3142.3036	3143.308
CC1=CCCCC=C1C	CC1=CCCCC=C1C	
InChI=1S/C9H14/c1-8-6-4-3-5-7-9(8)2/h6-7H,3-5H2,1-2H3	InChI=1S/C9H14/c1-8-6-4-3-5-7-9(8)2/h6-7H,3-5H2,1-2H3
