16
gdb 112249	2.01737	1.52678	0.95494	1.6214	67.02	-0.2667	-0.0441	0.2225	1192.744	0.122671	-475.018011	-475.009184	-475.00824	-475.052374	31.237	
O	-0.0250028114	 1.3084655774	-0.1590641994	-0.417142
C	 0.0523123149	-0.0980231417	-0.0249332348	-0.077938
C	-1.324069598	-0.6614616186	 0.2751878582	 0.094539
O	-2.2213314439	-0.4287328461	-0.8808695733	-0.278009
C	-2.4610694824	-1.774567022	-1.032525815	 0.434018
N	-3.1298425678	-2.4141689487	-1.8752222305	-0.537838
C	-1.6161996319	-2.1762703275	 0.1665539212	-0.270442
C	-0.5192712815	-3.1858653329	-0.0875881348	 0.141604
O	 0.6457733386	-3.009325908	 0.1562129664	-0.23448
H	-0.6127686718	 1.4905293683	-0.9010844314	 0.2941
H	 0.4700256606	-0.5747400483	-0.9214090536	 0.105302
H	 0.7291753795	-0.3103757736	 0.80621875	 0.135776
H	-1.7474852574	-0.1744045877	 1.1570285304	 0.111372
H	-3.5664883236	-1.7988597048	-2.5631818864	 0.236403
H	-2.2414779376	-2.5665067759	 0.9780913989	 0.143544
H	-0.8907652363	-4.13808771	-0.5210943461	 0.11919
66.5357	94.1779	125.1853	153.7993	189.0617	267.4654	371.2574	406.9968	419.6449	486.3142	611.5626	656.7345	741.7461	831.6235	858.6426	863.8023	919.8291	997.9591	1011.054	1024.2391	1077.1546	1082.7565	1137.4548	1178.648	1208.1425	1232.6036	1296.5163	1318.4852	1352.6323	1397.4635	1416.2175	1428.7248	1483.182	1812.9905	1835.7284	2920.6916	3024.027	3055.6316	3088.9745	3112.7843	3484.6162	3803.3622
OCC1OC(=N)C1C=O	OC[C@H]1O[C]([NH])[C@H]1C=O	
InChI=1S/C5H7NO3/c6-5-3(1-7)4(2-8)9-5/h1,3-4,6,8H,2H2	InChI=1S/C5H7NO3/c6-5-3(1-7)4(2-8)9-5/h1,3-4,6,8H,2H2/t3-,4+/m0/s1
