15
gdb 28246	4.80325	1.28203	1.02697	0.9832	68.11	-0.1772	0.0407	0.2179	1102.6181	0.115151	-453.957801	-453.950378	-453.949433	-453.989919	27.71	
N	 0.1200146104	 1.3170205808	 0.0725211652	-0.586097
C	-0.0504383678	-0.0489338191	 0.0169603567	 0.404868
N	-1.1514312594	-0.7320183869	 0.0227976894	-0.405057
C	-0.6953680389	-2.0559241367	 0.0973969126	 0.131017
C	 0.6353257184	-2.0524497057	 0.104561341	 0.41177
O	 1.3229875209	-3.2030361691	 0.0807307547	-0.291152
C	 0.2347348403	-4.1991596874	 0.2022831906	-0.092232
C	-1.161142853	-3.4788184348	 0.040917763	-0.369105
O	 1.1250766439	-0.7897613502	 0.0592685665	-0.233424
H	 0.9067744075	 1.6553664703	-0.4656519941	 0.262323
H	-0.7363311066	 1.8035748953	-0.1541338121	 0.26909
H	 0.4201235719	-4.9568067081	-0.5599427308	 0.129529
H	 0.3356536488	-4.6493258973	 1.1928604717	 0.129807
H	-1.839903057	-3.778827995	 0.8463446171	 0.1207
H	-1.6455882294	-3.7414003761	-0.9080474514	 0.117963
84.8522	137.5381	235.909	280.6196	303.841	316.966	514.9705	562.143	657.5724	677.206	714.4339	736.8274	748.5543	831.9534	843.5943	916.3171	919.31	951.5515	1074.8714	1125.2362	1145.9232	1193.1135	1237.3133	1264.7942	1312.5105	1364.7913	1387.9477	1466.8108	1500.3367	1519.4934	1601.723	1672.9364	1750.2881	3018.5512	3055.1425	3074.0214	3134.0384	3552.4065	3659.1742
NC1=NC2=C(OCC2)O1	Nc1nc2c(OCC2)o1	
InChI=1S/C5H6N2O2/c6-5-7-3-1-2-8-4(3)9-5/h1-2H2,(H2,6,7)	InChI=1S/C5H6N2O2/c6-5-7-3-1-2-8-4(3)9-5/h1-2H2,(H2,6,7)
