19
gdb 89550	5.08608	0.9062	0.88834	3.1738	76.32	-0.2354	-0.0222	0.2132	1360.2316	0.156985	-423.026286	-423.017621	-423.016676	-423.060311	32.855	
C	-0.7796245242	 1.2652417969	 0.3268999136	-0.398831
C	 0.0573910943	 0.0195784886	 0.1256624916	 0.159769
C	 0.7050189925	-0.2191590717	-1.2561352868	-0.374689
C	 2.0360606937	-0.2067768251	-0.4797745815	 0.443338
C	 2.9668943677	-1.4557138554	-0.4687317514	-0.411894
C	 4.03905915	-0.5923829968	-1.1505482391	 0.403935
O	 5.0624856927	-0.833829769	-1.7210761005	-0.291695
C	 3.2309877008	 0.6905594355	-0.9033826458	-0.412318
O	 1.3676307353	 0.1248765908	 0.7453605762	-0.329286
H	-0.2677405893	 2.1463214723	-0.0725614518	 0.11944
H	-1.7457126079	 1.1617893756	-0.1793586848	 0.118372
H	-0.9685005499	 1.4309348256	 1.392141343	 0.130038
H	-0.4719530553	-0.8610770069	 0.513781646	 0.078429
H	 0.4499736743	-1.1533859557	-1.7590079739	 0.112925
H	 0.5830310531	 0.6127946547	-1.9537875948	 0.111452
H	 3.2534282649	-1.7219548151	 0.55483812	 0.143971
H	 2.6444013547	-2.3574531925	-0.9959625057	 0.125985
H	 3.100712511	 1.3705117874	-1.7495069916	 0.126383
H	 3.6194596116	 1.2547276306	-0.0478927325	 0.144675
49.2774	52.5682	226.7334	234.1662	313.1393	318.0974	384.497	394.7144	421.802	492.4165	518.6903	651.5935	711.0073	771.4451	836.2439	858.859	907.9562	912.9757	938.3109	942.9705	985.304	1061.7113	1074.1428	1104.7534	1114.1046	1151.8669	1169.1571	1190.0602	1219.5808	1227.0572	1250.4796	1298.4228	1324.2424	1389.474	1409.8132	1413.0474	1433.7245	1482.2343	1490.5859	1496.1289	1897.1096	3009.3586	3033.3739	3048.7427	3054.6693	3069.3272	3106.3081	3112.4209	3113.0271	3113.3983	3127.2788
CC1CC2(CC(=O)C2)O1	C[C@H]1CC2(CC(=O)C2)O1	
InChI=1S/C7H10O2/c1-5-2-7(9-5)3-6(8)4-7/h5H,2-4H2,1H3	InChI=1S/C7H10O2/c1-5-2-7(9-5)3-6(8)4-7/h5H,2-4H2,1H3/t5-/m0/s1
