20
gdb 110910	4.25307	0.86172	0.84287	2.4622	80.32	-0.2416	-0.0273	0.2143	1449.1827	0.17016	-403.109131	-403.100133	-403.099189	-403.143526	33.086	
C	 0.7894166753	 1.2040833029	-0.7083108884	-0.374898
C	 0.0375616571	 0.0115369313	-0.1028846645	-0.224479
C	 0.7725121442	-0.5870463996	 1.0772691871	 0.02686
C	 0.7161603051	-1.9877556193	 1.5420565998	-0.080059
C	 0.5945789984	-2.9978892462	 0.3935089817	-0.106078
C	 1.8772181983	-2.3163166899	-0.1778345661	-0.193698
N	 2.0141873815	-1.38966683	 0.9966322171	-0.148375
C	 0.8558786425	-4.4181242235	 0.8187298282	 0.157811
O	 0.1768953961	-5.3638452021	 0.5124141522	-0.258028
H	 1.7718572584	 0.9021828927	-1.0845501046	 0.128433
H	 0.2275860225	 1.6424904154	-1.5381763632	 0.116597
H	 0.9513075369	 1.9880710211	 0.0389385245	 0.121364
H	-0.9482246592	 0.3375272098	 0.2519441469	 0.108559
H	-0.1569762612	-0.7373657324	-0.876037816	 0.106276
H	 0.878376873	 0.1200859851	 1.9002033864	 0.100535
H	 0.604999301	-2.2457886926	 2.5915884461	 0.102232
H	-0.3201529404	-2.968197223	-0.202784778	 0.095793
H	 2.7414109973	-2.9841442048	-0.2094800363	 0.121642
H	 1.7782341564	-1.8278529151	-1.1509308521	 0.11703
H	 1.7643800666	-4.5411820095	 1.4546644192	 0.082484
65.9582	88.4284	95.2639	197.6082	228.8024	275.308	293.5948	387.0187	443.8697	522.5986	552.9214	700.9529	776.2401	799.8361	818.928	851.496	885.3679	945.7153	966.3286	1012.8851	1030.6153	1038.4213	1071.8848	1091.4901	1122.599	1140.0826	1164.818	1197.3417	1231.7718	1258.4702	1274.3092	1290.0514	1295.0271	1341.4794	1366.3465	1411.9152	1431.0762	1453.7085	1481.715	1497.5441	1504.9988	1514.1393	1831.7501	2856.7288	3034.989	3037.6835	3059.1108	3077.9073	3083.7487	3105.2745	3109.4603	3112.6202	3114.6912	3148.8493
CCC1C2C(CN12)C=O	CC[C@H]1[C@H]2[C@@H](CN12)C=O	
InChI=1S/C7H11NO/c1-2-6-7-5(4-9)3-8(6)7/h4-7H,2-3H2,1H3	InChI=1S/C7H11NO/c1-2-6-7-5(4-9)3-8(6)7/h4-7H,2-3H2,1H3/t5-,6-,7+,8?/m0/s1
