23
gdb 110104	1.83319	1.30734	0.97337	1.6807	83.37	-0.2433	0.057	0.3004	1375.4934	0.202537	-425.399345	-425.388168	-425.387224	-425.435298	40.305	
C	-0.543790943	 1.0853843886	 0.2112442891	-0.237011
O	 0.3428026985	 0.0265708013	-0.0787534415	-0.234866
C	 0.8338505462	-0.6159065055	 1.0572108639	 0.072891
C	 0.1002592474	-1.8274216227	 1.6247362469	-0.133948
C	-1.2313401893	-2.2806014172	 1.0700913023	-0.085785
O	-2.324560321	-1.8207493934	 1.859540163	-0.424323
C	 1.4174702245	-1.9868407369	 0.8694831938	 0.245993
C	 1.4281281906	-2.5953629941	-0.522281496	-0.450086
C	 2.6397547837	-2.337651787	 1.6993424953	-0.450167
H	-0.0756540952	 1.8398522958	 0.8609362336	 0.111016
H	-0.8126438028	 1.5523727438	-0.7390363345	 0.133125
H	-1.4639098134	 0.7319910951	 0.7010905122	 0.095019
H	 1.3240636705	 0.059463401	 1.7617191843	 0.078382
H	 0.1649368661	-1.9590852236	 2.7030509552	 0.08382
H	-1.3401376383	-1.967117781	 0.0235494687	 0.099658
H	-1.3035873747	-3.3734015349	 1.0948663613	 0.110346
H	-2.2269690114	-0.8688489713	 1.9629409557	 0.278817
H	 0.6055821882	-2.2347384747	-1.1401157903	 0.133915
H	 2.3611108075	-2.3386687413	-1.0368146712	 0.115176
H	 1.3716540695	-3.688512014	-0.4684005114	 0.112734
H	 2.7033424904	-3.4198385322	 1.8633618795	 0.117054
H	 3.5599940797	-2.022491236	 1.1934647849	 0.116434
H	 2.6144092961	-1.8552581596	 2.6814674248	 0.111805
79.8969	106.551	143.516	155.1156	181.958	191.6264	201.642	240.1255	267.1561	275.6678	308.869	332.0577	403.2459	483.6728	520.8506	607.4451	709.05	842.2172	856.3262	956.3764	973.3893	994.083	1013.4063	1039.9502	1050.6275	1079.299	1106.9422	1143.4537	1166.5999	1175.8786	1181.0128	1204.3564	1240.0328	1266.5505	1321.996	1336.6171	1384.0417	1408.814	1416.9445	1428.621	1445.1471	1482.4449	1484.5218	1487.6112	1491.1075	1500.6281	1502.745	1509.3486	1516.8149	2978.7211	3015.6735	3020.5049	3026.6361	3032.4971	3066.8356	3072.8622	3081.7372	3085.566	3098.0584	3118.8418	3129.0937	3143.6353	3816.2926
COC1C(CO)C1(C)C	CO[C@H]1[C@@H](CO)C1(C)C	
InChI=1S/C7H14O2/c1-7(2)5(4-8)6(7)9-3/h5-6,8H,4H2,1-3H3	InChI=1S/C7H14O2/c1-7(2)5(4-8)6(7)9-3/h5-6,8H,4H2,1-3H3/t5-,6+/m1/s1
