15
gdb 123649	4.0558	1.60896	1.25395	2.0215	70.21	-0.2439	-0.0041	0.2397	945.5205	0.117605	-412.963978	-412.957835	-412.956891	-412.994376	24.833	
C	-0.0611823058	 1.5189448509	 0.0122163654	-0.354297
C	 1.4363340545	 1.8927221904	-0.0367325602	-0.027853
N	 2.1994724521	 1.476073305	 1.1522911774	-0.324834
C	 2.2978184157	 0.6605059066	-0.0903068396	-0.218578
C	 1.3320909375	-0.4574441595	-0.060379335	 0.38083
N	 1.3304290432	-1.7832136601	-0.0641312205	-0.329749
N	 0.0220344937	-2.0518681826	 0.0316739747	-0.101672
N	-0.8179864617	-1.0094619766	 0.0951385122	-0.311505
C	 0.0169937703	 0.0181106878	 0.0308077371	 0.305336
H	-0.5440908079	 1.936999281	 0.9006558656	 0.136637
H	-0.591058912	 1.8987775613	-0.8683752199	 0.121872
H	 1.7306433078	 2.8015774	-0.5505375102	 0.094817
H	 3.0329044914	 2.0558281794	 1.2311846667	 0.234403
H	 3.2332878578	 0.6186691861	-0.6346958601	 0.104467
H	-0.3190848865	-2.9989654995	 0.0284188363	 0.290125
166.4986	246.64	363.102	445.5671	450.375	469.7547	613.585	700.6294	716.1592	758.4598	795.8471	820.4677	844.6005	885.2938	933.1518	994.1645	994.59	1062.0832	1123.248	1133.0388	1157.6739	1168.0321	1188.3196	1197.5207	1225.4805	1299.9662	1338.6597	1385.0848	1433.2306	1448.6094	1472.4514	1524.8778	1603.9803	3047.097	3090.8667	3168.6892	3191.1046	3487.1152	3676.6418
C1C2NC2C2=NNN=C12	C1[C@H]2N[C@H]2c2n[nH]nc12	
InChI=1S/C5H6N4/c1-2-4(6-2)5-3(1)7-9-8-5/h2,4,6H,1H2,(H,7,8,9)	InChI=1S/C5H6N4/c1-2-4(6-2)5-3(1)7-9-8-5/h2,4,6H,1H2,(H,7,8,9)/t2-,4-/m1/s1
