18
gdb 91313	2.80726	1.5161	1.16625	1.8163	77.52	-0.2166	0.0473	0.2639	1077.1717	0.147038	-401.851806	-401.843394	-401.84245	-401.884922	32.181	
O	 0.2546170893	 1.2092133455	-0.4773514927	-0.415739
C	 0.1288083857	-0.1244010074	-0.0457640895	 0.090818
C	 0.181831156	-0.3644826367	 1.4925794421	-0.208723
N	-1.2745396678	-0.6982960334	 1.5389610632	-0.133255
C	-2.1379407387	 0.5273504799	 1.6264817895	-0.197249
C	-2.5239231471	 0.3900748359	 0.1219387724	-0.171625
C	-2.6590048058	 1.5568283026	-0.7225500579	 0.34074
C	-2.848406862	 2.5228369359	-1.4126575543	-0.463772
C	-1.3430046456	-0.6136784817	 0.0241993571	-0.013383
H	 1.178616523	 1.4663434594	-0.3929455982	 0.286045
H	 0.7763010737	-0.7935210343	-0.6298514453	 0.070906
H	 0.7937446967	-1.2209714914	 1.7941571475	 0.103951
H	 0.4669899487	 0.5089171412	 2.0888817247	 0.103013
H	-2.9582789453	 0.4357049943	 2.3429582627	 0.108927
H	-1.5754684164	 1.44321192	 1.8337776395	 0.114161
H	-3.4436115278	-0.2009077125	 0.0476473509	 0.115781
H	-2.97808508	 3.3795144708	-2.0259394263	 0.189834
H	-1.5415742766	-1.5372283381	-0.5258878756	 0.07957
62.3866	124.0012	176.4725	236.9178	243.4079	357.0304	417.2491	428.0312	493.6966	573.5114	609.0978	641.3701	660.8514	739.5766	778.4243	841.5696	867.0116	948.1812	956.6364	994.7655	1023.5703	1038.6883	1063.59	1125.1034	1151.4173	1170.1431	1189.3094	1209.7257	1221.8129	1249.7074	1287.6024	1301.2478	1311.7645	1347.9801	1358.1207	1428.5781	1480.5136	1508.2759	2236.5104	2993.3585	3033.1343	3039.4262	3045.5836	3071.0081	3088.335	3101.1927	3505.7939	3810.7185
OC1CN2CC(C#C)C12	O[C@H]1CN2C[C@@H](C#C)[C@@H]12	
InChI=1S/C7H9NO/c1-2-5-3-8-4-6(9)7(5)8/h1,5-7,9H,3-4H2	InChI=1S/C7H9NO/c1-2-5-3-8-4-6(9)7(5)8/h1,5-7,9H,3-4H2/t5-,6+,7+/m1/s1
