19
gdb 38719	2.70969	2.03949	1.60381	1.9219	73.85	-0.2481	0.0799	0.3279	904.3398	0.162415	-423.009167	-423.002532	-423.001587	-423.039708	28.254	
C	-0.0247679561	 1.4983178175	 0.1231646185	-0.389608
C	 1.3556832679	 0.8641387547	-0.0232866816	-0.081605
C	 2.181533715	 0.2009191861	 1.0795688984	-0.270307
C	 1.3892079756	-1.1238003198	 1.2629032066	 0.191328
O	 0.052745083	-0.6766004046	 1.1485314765	-0.280226
C	 0.0924812206	 0.0271727964	-0.089874646	 0.410979
C	-0.043640686	-0.9787963527	-1.1987267991	-0.309148
C	 1.2491758489	-1.8340362068	-1.0587489596	-0.056544
O	 1.6314389462	-2.122544701	 0.2929775417	-0.2724
H	-0.3854929272	 1.798793093	 1.1013415878	 0.125137
H	-0.3321297559	 2.1412804644	-0.6959893674	 0.115844
H	 1.8633639324	 1.0916639243	-0.9541599527	 0.092412
H	 3.2141960018	 0.031981167	 0.763721433	 0.108815
H	 2.1993820247	 0.7481769683	 2.0278926174	 0.108271
H	 1.5287995833	-1.6151484639	 2.2287290155	 0.086507
H	-0.9454332452	-1.5837757816	-1.0655975015	 0.115146
H	-0.0694073435	-0.5278441056	-2.1957989106	 0.101677
H	 1.1419942444	-2.8092374428	-1.5423517807	 0.108809
H	 2.06696836	-1.2980770127	-1.5619950161	 0.094914
200.8512	246.2817	340.7352	354.7309	410.6978	456.8134	509.833	624.6225	647.8886	752.8858	785.4522	813.8694	835.4862	860.7052	889.6469	902.8265	918.7278	955.4385	978.3863	1003.2728	1021.221	1078.6296	1086.1114	1099.9238	1109.9385	1128.4359	1179.8557	1208.7717	1241.4133	1268.4999	1281.0947	1299.8365	1334.1516	1341.8287	1377.9536	1398.8287	1421.0178	1471.3038	1473.6937	1483.24	1509.7308	2995.6542	3049.1385	3049.5516	3081.8861	3097.8487	3101.4569	3104.9914	3124.1408	3166.5265	3215.9379
C1C2CC3OC12CCO3	C1[C@H]2C[C@H]3O[C@@]12CCO3	
InChI=1S/C7H10O2/c1-2-8-6-3-5-4-7(1,5)9-6/h5-6H,1-4H2	InChI=1S/C7H10O2/c1-2-8-6-3-5-4-7(1,5)9-6/h5-6H,1-4H2/t5-,6-,7+/m1/s1
