18
gdb 124995	2.15599	1.61515	0.97337	3.0774	75.91	-0.1955	0.0304	0.2258	1200.833	0.148944	-435.291027	-435.281691	-435.280747	-435.325127	34.351	
C	-0.1008869821	 1.5494044381	 0.2341779289	-0.504467
C	 0.0169076834	 0.078706532	-0.0015741651	 0.274865
C	-0.0141933959	-0.6737888945	-1.1647688861	 0.045764
C	-0.1299931408	-0.2453670345	-2.5881032361	-0.200715
O	 0.9079460847	-0.8039297815	-3.4086790235	-0.415883
C	 0.1129793051	-2.0221438287	-0.7195182838	 0.312047
N	 0.0863589539	-3.141523238	-1.5416069415	-0.59369
N	 0.2180153234	-2.1068229891	 0.5998772221	-0.317683
N	 0.1435013199	-0.8088770318	 1.0127416225	-0.26863
H	 0.5396310613	 1.8731911515	 1.0614319831	 0.129634
H	 0.1981969977	 2.1081971221	-0.6561376073	 0.13996
H	-1.1286995521	 1.8449144005	 0.4762441538	 0.143381
H	-1.0577196585	-0.6118072925	-3.0426487028	 0.122396
H	-0.1436071927	 0.8520246068	-2.6672906628	 0.090674
H	 1.7448754717	-0.5804147579	-2.9864644394	 0.279175
H	 0.5162516309	-2.961686714	-2.440126726	 0.253265
H	 0.4587532954	-3.9677476027	-1.0936902913	 0.245691
H	 0.1966926247	-0.6113949557	 1.9964751654	 0.264216
75.0708	106.8796	146.3291	191.3323	229.9223	270.1513	328.7161	368.2118	388.746	414.6659	462.3484	509.6185	591.4264	651.4164	690.4959	738.3627	783.0023	802.2697	945.6868	996.595	1013.437	1055.1919	1076.9261	1119.6857	1195.1859	1219.4392	1263.3033	1314.3256	1354.4241	1415.9784	1419.599	1459.1794	1482.5224	1487.2747	1504.2396	1525.9086	1547.7289	1634.3811	1651.6966	2991.6019	3029.4445	3054.4971	3083.5215	3117.5323	3539.4778	3645.1523	3684.8662	3801.0272
CC1=C(CO)C(N)=NN1	Cc1c(CO)c(N)n[nH]1	
InChI=1S/C5H9N3O/c1-3-4(2-9)5(6)8-7-3/h9H,2H2,1H3,(H3,6,7,8)	InChI=1S/C5H9N3O/c1-3-4(2-9)5(6)8-7-3/h9H,2H2,1H3,(H3,6,7,8)
