19
gdb 67380	2.70304	1.5578	1.40142	3.5552	79.39	-0.2278	-0.0067	0.2211	1026.8255	0.160438	-385.902567	-385.895007	-385.894063	-385.934344	30.348	
C	-0.0167094256	 1.520382603	-0.050070475	-0.516483
C	 0.0045198945	 0.0231804449	 0.0043679274	 0.333532
C	 0.5086565761	-1.022698092	-0.954312434	-0.107815
C	 1.2677317519	-1.755219366	 0.1456924641	-0.239067
C	 0.4835949862	-0.8942999556	 1.1890649022	-0.107184
C	-0.7561476563	-1.644626769	 1.6762431022	-0.330337
C	-1.5971474537	-1.81469607	 0.3988524465	 0.411336
O	-2.5860800364	-2.4952390508	 0.2801785042	-0.335723
C	-0.9993587846	-0.9123587159	-0.6344278707	-0.203574
H	 0.971000135	 1.9411974562	 0.1703541061	 0.122824
H	-0.3137915183	 1.8715749136	-1.0435733305	 0.125829
H	-0.7253514159	 1.9377517564	 0.6748066648	 0.125188
H	 0.8136725781	-0.9089006663	-1.9886879822	 0.092841
H	 1.1630910354	-2.8436274983	 0.218612684	 0.099372
H	 2.3303263382	-1.4996511232	 0.1253163647	 0.106186
H	 1.0779043361	-0.4251888178	 1.9724483725	 0.075869
H	-0.5496534613	-2.6087334094	 2.1492096904	 0.12316
H	-1.3411909752	-1.0451176596	 2.3855918887	 0.124326
H	-1.6209202342	-0.5810286901	-1.4577707355	 0.099721
111.1751	192.0367	203.2495	261.6822	374.0026	378.4565	464.387	557.995	562.5294	620.2055	655.6927	730.5136	800.0779	836.7016	866.4731	877.343	908.83	940.6533	976.3712	1019.8829	1030.7974	1048.6927	1069.67	1099.5544	1123.4225	1130.7263	1177.6558	1204.1908	1212.4166	1220.889	1260.739	1293.9057	1300.2312	1329.0845	1412.7345	1449.7848	1456.3853	1485.0904	1496.1648	1499.1804	1831.4721	3023.0442	3035.0107	3036.8382	3082.2054	3095.6317	3098.0023	3099.8041	3117.1455	3171.2906	3193.9985
CC12C3CC1CC(=O)C23	C[C@@]12[C@H]3C[C@@H]1CC(=O)[C@@H]23	
InChI=1S/C8H10O/c1-8-4-2-5(8)7(8)6(9)3-4/h4-5,7H,2-3H2,1H3	InChI=1S/C8H10O/c1-8-4-2-5(8)7(8)6(9)3-4/h4-5,7H,2-3H2,1H3/t4-,5+,7+,8+/m1/s1
