16
gdb 51717	4.35302	0.91365	0.85399	0.9996	66.49	-0.2686	-0.0013	0.2673	1319.4485	0.12515	-475.091767	-475.083535	-475.082591	-475.126298	29.293	
O	-0.276890436	 0.2546635621	 0.3776360602	-0.316358
C	-0.022232146	 1.3975218449	 0.0663317904	 0.156132
N	 1.2239050543	 1.8701256308	-0.2242737082	-0.288871
C	 2.4048376531	 1.0237851515	-0.1980396689	 0.001719
C	 3.0528103116	 0.8713493863	-1.5900565087	-0.094206
O	 3.9865791248	 1.9571035139	-1.7073753983	-0.219658
C	 4.3448579159	 2.426143799	-0.4759986628	 0.422308
O	 5.1480024994	 3.2986091154	-0.3312058076	-0.32702
C	 3.5587659057	 1.6618986957	 0.5864683304	-0.376048
H	-0.7897574095	 2.191448437	-0.0109677262	 0.086473
H	 1.3180582988	 2.838761634	-0.4903827827	 0.257926
H	 2.0748371071	 0.0652503226	 0.200820157	 0.137047
H	 3.5946459678	-0.0773850211	-1.6776556542	 0.126006
H	 2.3314806433	 0.9509954177	-2.4046710779	 0.135061
H	 3.2449314486	 2.3206571182	 1.3962474229	 0.147101
H	 4.2178327211	 0.8966716419	 1.0108605148	 0.152388
25.0291	75.4896	151.6544	213.5242	226.1862	350.3971	429.9315	502.466	530.8573	554.4784	678.8234	725.1389	784.2754	835.1398	890.6422	907.5913	978.2666	1028.593	1036.4507	1071.4495	1107.7153	1161.9148	1177.978	1209.5244	1243.536	1264.6341	1312.2603	1363.4463	1393.0869	1429.3711	1454.2809	1512.0199	1529.6195	1806.5001	1890.36	2951.7111	3043.8042	3064.2758	3126.024	3135.7527	3140.6095	3619.6158
O=CNC1COC(=O)C1	O=CN[C@H]1COC(=O)C1	
InChI=1S/C5H7NO3/c7-3-6-4-1-5(8)9-2-4/h3-4H,1-2H2,(H,6,7)	InChI=1S/C5H7NO3/c7-3-6-4-1-5(8)9-2-4/h3-4H,1-2H2,(H,6,7)/t4-/m1/s1
