16
gdb 28096	4.42265	0.85753	0.76969	2.475	73.54	-0.1976	-0.0374	0.1602	1423.849	0.123008	-437.913685	-437.904895	-437.903951	-437.948847	31.38	
O	 0.1430800229	 1.3831518754	-0.2351479481	-0.444883
C	 0.079724876	 0.0302611032	-0.076825951	 0.311075
C	 0.0769790562	-0.8651933704	-1.1225023071	-0.197533
N	-0.0214094809	-2.1346906276	-0.578755985	 0.026873
C	 0.0754699903	-3.3547077792	-1.3365478083	-0.266133
C	 1.5142350926	-3.7062670425	-1.7230026621	 0.145202
O	 1.790149487	-4.521012202	-2.5608091691	-0.225443
C	-0.0588018725	-2.0404472089	 0.7853106776	-0.080884
C	-0.0052774448	-0.7081571342	 1.1351963285	-0.311416
H	 0.133573523	 1.7925466577	 0.6345151691	 0.29734
H	 0.1167033137	-0.7064989373	-2.1869304124	 0.124216
H	-0.324339328	-4.1819245887	-0.738683558	 0.150053
H	-0.528507905	-3.2976193587	-2.2479855226	 0.151499
H	 2.2883133958	-3.1487075287	-1.149569301	 0.103638
H	-0.1283896129	-2.9261596786	 1.3969113966	 0.121843
H	-0.0406386435	-0.3095547495	 2.1382086229	 0.094555
24.5758	70.7844	91.5242	217.9987	274.3112	293.3352	368.0463	421.7636	443.5183	610.7057	621.5036	654.3149	667.2507	712.221	743.5522	768.999	782.5914	997.9162	1011.5379	1027.6413	1061.9143	1093.5662	1169.2106	1206.6261	1222.7849	1306.8947	1328.2561	1385.4848	1404.5777	1433.7512	1446.9807	1453.2092	1539.9702	1643.6775	1840.8783	2892.026	3046.3648	3094.3521	3236.8286	3261.6912	3274.9235	3846.2093
OC1=CN(CC=O)C=C1	Oc1cn(CC=O)cc1	
InChI=1S/C6H7NO2/c8-4-3-7-2-1-6(9)5-7/h1-2,4-5,9H,3H2	InChI=1S/C6H7NO2/c8-4-3-7-2-1-6(9)5-7/h1-2,4-5,9H,3H2
