21
gdb 41969	2.3858	2.00929	1.59187	1.4587	79.48	-0.2205	0.0731	0.2936	957.4823	0.187051	-387.08984	-387.08278	-387.081836	-387.121183	29.305	
C	-0.0914834989	 1.4292026745	-0.2411776546	-0.241962
C	 1.3028743841	 1.9940422727	 0.1413463573	-0.209173
C	 1.9894753802	 0.9332770917	 1.0452480404	-0.023655
C	 1.7954204577	 1.1788677194	 2.5518522637	-0.226449
C	 0.3164812287	 1.1904039002	 2.9250703564	-0.059926
O	-0.4072906527	 0.0403861488	 2.4904808159	-0.268677
C	 0.0171473737	-0.6475844676	 1.3485609298	 0.122418
C	 0.0167838613	-0.0839714802	-0.0536718722	-0.082025
C	 1.3283800796	-0.3963328736	 0.6605464535	-0.119281
H	-0.8889489174	 1.8481357065	 0.3815388514	 0.111403
H	-0.3460744969	 1.6720062197	-1.2766499299	 0.095894
H	 1.8982060002	 2.1132313376	-0.769835278	 0.099125
H	 1.2502155372	 2.9804207955	 0.6148227663	 0.091659
H	 3.0619561405	 0.8951443116	 0.8345704965	 0.069051
H	 2.3131656892	 0.3918234625	 3.1133921287	 0.100322
H	 2.2350257845	 2.1370079208	 2.8530161473	 0.094363
H	 0.1939226622	 1.2194487197	 4.0129518833	 0.102722
H	-0.1585407631	 2.0973797807	 2.5240422421	 0.094429
H	-0.3019477215	-1.6821457706	 1.4368891121	 0.09325
H	-0.3533127058	-0.7307547092	-0.8422190962	 0.077774
H	 1.9573567472	-1.2361121308	 0.3857471162	 0.078738
103.8015	170.8373	239.9274	360.3877	430.619	489.4391	532.2953	649.0807	678.5612	730.976	742.8348	766.7031	792.9389	841.7664	872.6455	903.5224	941.7092	966.5575	972.6596	1013.74	1041.5075	1050.9395	1072.8968	1098.5217	1099.4999	1118.5163	1138.9655	1186.7094	1205.1515	1228.6104	1244.401	1272.177	1299.1553	1308.1604	1322.8516	1342.621	1351.4797	1367.1482	1387.3796	1405.582	1444.8563	1479.054	1488.6483	1502.0289	1522.5607	2994.6271	3025.8493	3037.1108	3045.9771	3059.8945	3062.6549	3070.9902	3073.4128	3091.6099	3142.4643	3154.3419	3166.4214
C1CC2CCOC3C1C23	C1C[C@H]2CCO[C@H]3[C@@H]1[C@@H]23	
InChI=1S/C8H12O/c1-2-6-7-5(1)3-4-9-8(6)7/h5-8H,1-4H2	InChI=1S/C8H12O/c1-2-6-7-5(1)3-4-9-8(6)7/h5-8H,1-4H2/t5-,6-,7+,8-/m0/s1
