18
gdb 66114	2.60921	1.4868	1.3282	4.1921	74.84	-0.2449	0.0257	0.2706	1039.3342	0.150293	-398.123201	-398.115179	-398.114235	-398.155506	31.426	
N	 0.1464750256	 1.3663168441	-0.067077237	-0.553315
C	 0.0565712186	-0.0958711244	-0.031460621	 0.137074
C	 0.6846393697	-0.6411656429	 1.2936910951	-0.237256
C	-0.0589629564	-1.9496790939	 1.6277660051	-0.224399
C	-1.4313458497	-1.7646519224	 1.0049284889	-0.018453
N	-2.0187736164	-0.430865482	 1.2808725479	-0.358481
C	-1.3622874538	-0.6953229298	-0.0134132656	-0.081252
C	 0.7651786462	-0.6409088876	-1.2021723928	 0.279441
N	 1.290975735	-1.0904109044	-2.1278806197	-0.339452
H	-0.202132074	 1.7176264572	-0.9550249325	 0.234761
H	-0.4765995214	 1.7206985156	 0.6554852251	 0.245802
H	 1.7642758315	-0.764751455	 1.2031940006	 0.125423
H	 0.4979702999	 0.1095334725	 2.0633425054	 0.126585
H	 0.4282284898	-2.8120974652	 1.1592211204	 0.119232
H	-0.1005589112	-2.1346180481	 2.7052578048	 0.111693
H	-2.0991459134	-2.6123333566	 0.8921715031	 0.095256
H	-3.0270909783	-0.4728385346	 1.1582443551	 0.237917
H	-1.945277322	-0.7046273926	-0.928429143	 0.099424
101.959	150.9818	204.8356	265.1179	312.6578	352.7652	387.684	480.5825	482.933	551.0338	639.0889	669.3733	727.9647	821.8267	826.8226	869.1341	894.5556	913.6413	944.5478	961.9331	1007.6034	1038.0486	1053.4238	1102.6759	1132.118	1163.1225	1172.6776	1209.8397	1234.4642	1265.7371	1307.106	1336.3564	1353.4748	1380.1393	1424.2251	1476.7985	1491.3164	1652.6318	2357.2489	3047.6028	3085.8697	3095.0644	3140.1967	3163.0804	3173.8547	3475.7376	3510.3441	3560.8003
NC1(CCC2NC12)C#N	N[C@]1(CC[C@H]2N[C@@H]12)C#N	
InChI=1S/C6H9N3/c7-3-6(8)2-1-4-5(6)9-4/h4-5,9H,1-2,8H2	InChI=1S/C6H9N3/c7-3-6(8)2-1-4-5(6)9-4/h4-5,9H,1-2,8H2/t4-,5-,6-/m1/s1
