19
gdb 58926	2.88223	1.615	1.23576	2.8223	75.17	-0.2357	0.0512	0.2869	1045.9744	0.159817	-419.087644	-419.079664	-419.07872	-419.120254	31.443	
C	-0.0351838662	 1.6128233414	 0.0114460443	-0.399863
C	 0.0729007068	 0.0899405417	 0.0260865826	 0.015799
O	 0.7955058229	-0.3270233026	-1.1253877262	-0.453702
C	 0.755844933	-0.4275976547	 1.2650916752	 0.356028
N	 0.3811144476	-0.141767163	 2.6899671596	-0.393514
C	 1.5719200395	-1.0498267694	 2.8031988834	-0.046813
C	 1.0962349666	-1.9141420595	 1.5987474319	-0.061238
N	 2.3805213832	-1.8443663788	 0.8244048314	-0.370459
C	 2.3025974474	-0.515664986	 1.5230758711	-0.079373
H	 0.9558120641	 2.0707146098	 0.0941793358	 0.113231
H	-0.4801098344	 1.9371467841	-0.9329868443	 0.128788
H	-0.6662292463	 1.9693449762	 0.8319826536	 0.116273
H	-0.9460565932	-0.3324550211	 0.0036551326	 0.075154
H	 1.3952286456	-1.0446204853	-0.8684426337	 0.298765
H	 0.6441483603	 0.8161354509	 2.9370249202	 0.212175
H	 1.9914255273	-1.3724007661	 3.7579625081	 0.085377
H	 0.4281697565	-2.7749330893	 1.5932026548	 0.096894
H	 3.096734879	-2.4428175245	 1.2421843272	 0.216549
H	 3.0646327302	 0.2595381863	 1.4258159722	 0.089928
57.7263	175.2973	190.4349	243.3145	313.1775	400.3348	444.6028	476.2884	502.3576	542.7933	660.8111	761.053	789.6138	831.219	857.131	891.3914	898.9418	915.1378	941.6875	1001.526	1015.3359	1048.135	1076.3805	1098.825	1108.7308	1124.5478	1142.3432	1155.0567	1190.892	1206.3424	1259.8288	1263.9139	1286.3507	1297.88	1336.8566	1360.988	1372.6747	1400.4922	1464.3578	1493.4074	1500.2394	2956.7492	3036.6231	3096.5557	3108.5816	3110.7895	3120.5887	3129.5762	3403.4744	3414.2138	3676.0454
CC(O)C12NC3C1NC23	C[C@@H](O)[C@@]12N[C@H]3[C@@H]1N[C@@H]23	
InChI=1S/C6H10N2O/c1-2(9)6-4-3(8-6)5(6)7-4/h2-5,7-9H,1H3	InChI=1S/C6H10N2O/c1-2(9)6-4-3(8-6)5(6)7-4/h2-5,7-9H,1H3/t2-,3-,4-,5+,6+/m1/s1
