27
gdb 60121	2.50614	0.92919	0.79781	0.1095	96.37	-0.2552	0.0797	0.3348	1641.5851	0.250197	-353.55924	-353.547714	-353.54677	-353.595936	42.75	
C	-0.6206932504	 0.4024009754	 3.2577866986	-0.392658
C	-0.5667227882	-0.9460983793	 2.5281903826	 0.044209
C	-0.4204970469	-2.1004046939	 3.5282490694	-0.377269
C	-1.791995024	-1.1154388684	 1.6071425924	-0.193527
C	-1.7252994371	-2.3439682913	 0.7154257368	-0.027072
C	-2.4977164382	-3.629155253	 0.9655651004	-0.010163
C	-3.4211880905	-3.8392826101	 2.1470945185	-0.40882
C	-2.8572771095	-2.7449805202	-0.2114789285	-0.048303
C	-4.1536708901	-1.9652739086	-0.2943245621	-0.402708
H	 0.2674232554	 0.5529871859	 3.8807008566	 0.107231
H	-0.6815675226	 1.2378809087	 2.5522265195	 0.107526
H	-1.4974871931	 0.4576726103	 3.9145131883	 0.109505
H	 0.3262731114	-0.9438233718	 1.8855465982	 0.068547
H	-1.2849203083	-2.1438902954	 4.2021333772	 0.108781
H	-0.3438292697	-3.0663451758	 3.0213957565	 0.119141
H	 0.4740187078	-1.9725612361	 4.1471978146	 0.105354
H	-2.6978375789	-1.1234759828	 2.2252616728	 0.088179
H	-1.8702212419	-0.2199983145	 0.9747792087	 0.089825
H	-0.7313174597	-2.4910641227	 0.2954644112	 0.072978
H	-1.9570037866	-4.5348647041	 0.6988413388	 0.07572
H	-3.9820215517	-2.9411331748	 2.4159620628	 0.11551
H	-4.1539967972	-4.6243671264	 1.9283647573	 0.113568
H	-2.8589612922	-4.1505179817	 3.0343854004	 0.116781
H	-2.5378998057	-3.1257616615	-1.1792312841	 0.075354
H	-4.4671659377	-1.5600926104	 0.670481217	 0.114813
H	-4.053839695	-1.1189693932	-0.9835210333	 0.114578
H	-4.9685919497	-2.5965758442	-0.6663981308	 0.112919
50.7823	79.1815	121.4168	156.5183	167.3435	204.3196	218.696	232.6228	259.1473	275.3761	347.0176	383.2755	423.8852	455.2984	522.6334	526.7079	740.1922	774.3078	821.8941	856.1268	887.4557	928.6923	948.6637	954.019	965.1921	972.9998	1032.7759	1045.5238	1084.2021	1108.555	1133.2516	1149.3403	1162.8504	1190.2156	1193.4214	1197.4259	1262.419	1273.1137	1309.8338	1365.2067	1369.4789	1378.8679	1399.1501	1401.4336	1417.068	1421.3507	1423.6203	1452.9469	1476.6724	1486.565	1489.0771	1494.231	1497.7757	1502.1054	1504.5415	1510.4119	1515.9691	2990.9422	3007.0312	3021.9096	3027.8777	3029.548	3033.2693	3052.6416	3082.16	3084.9264	3086.396	3091.5443	3096.5663	3104.6928	3105.174	3109.888	3118.0878	3121.9997	3135.9859
CC(C)CC1C(C)C1C	CC(C)C[C@H]1[C@@H](C)[C@H]1C	
InChI=1S/C9H18/c1-6(2)5-9-7(3)8(9)4/h6-9H,5H2,1-4H3	InChI=1S/C9H18/c1-6(2)5-9-7(3)8(9)4/h6-9H,5H2,1-4H3/t7-,8+,9-
