17
gdb 130393	2.27949	1.63859	1.07075	11.5295	74.55	-0.2022	-0.0032	0.199	1108.2502	0.138655	-451.266582	-451.258509	-451.257565	-451.299268	30.378	
N	 0.3571927624	 1.1510687843	 0.2246674264	-0.422006
H	 0.5071540751	 0.1449646624	 0.1208218211	 0.293555
H	 1.2238082654	 1.6299391129	 0.6069074145	 0.328564
H	 0.1561365722	 1.5615012688	-0.6886299844	 0.313043
C	-0.8062954202	 1.5252937332	 1.1856694063	-0.339706
C	-0.811976413	 2.9879979837	 1.3097700169	 0.199545
C	 0.1890519118	 3.8152448895	 1.8271870631	 0.183706
C	 1.4918678074	 3.417608869	 2.4070301189	-0.236085
O	 2.3183370575	 2.6910838117	 1.4159979666	-0.430104
N	-0.1732774557	 5.0830831072	 1.5664916955	-0.283802
N	-1.3520147621	 5.0336989228	 0.9276211188	-0.167606
N	-1.7479528059	 3.7765283273	 0.7387386965	-0.291378
H	-1.7264414846	 1.1427019911	 0.7414632075	 0.161597
H	-0.576030611	 0.9758243287	 2.1044485819	 0.142542
H	 2.0484856462	 4.2902152531	 2.7584441414	 0.140565
H	 1.4055119018	 2.7020608496	 3.2313990778	 0.113403
H	 2.5609699327	 3.3504357647	 0.7534166013	 0.294166
113.7281	125.6722	199.1132	238.4096	253.7677	356.4259	384.804	409.0398	493.1057	550.0681	672.7525	723.8107	729.7328	750.0592	796.757	881.7159	892.4503	961.0442	1018.816	1067.1927	1081.7153	1088.9685	1158.5335	1201.9433	1234.4157	1296.0725	1330.5119	1358.8909	1381.852	1394.3968	1450.4655	1481.1872	1491.7831	1519.362	1550.3331	1634.5104	1701.9933	2809.5051	3049.0695	3052.4729	3108.4756	3137.5787	3429.5796	3517.4454	3782.9762
[NH3+]CC1=C(CO)N=N[N-]1	[NH3]Cc1c(CO)nnn1	
InChI=1S/C4H7N4O/c5-1-3-4(2-9)7-8-6-3/h9H,1-2,5H2/q-1/p+1	InChI=1S/C4H9N4O/c5-1-3-4(2-9)7-8-6-3/h9H,1-2H2,5H3,(H,6,7,8)
