17
gdb 59226	2.51283	1.52809	1.20558	3.8613	68.15	-0.2503	-0.0393	0.211	1069.2276	0.133951	-458.930857	-458.922431	-458.921487	-458.964009	31.658	
C	 0.0436369241	 1.5642808965	 0.009963058	-0.39266
C	 0.0517014288	 0.0383216841	 0.0276957224	 0.12805
O	 0.8071369525	-0.3620365229	 1.1592157271	-0.443929
C	-1.3750199831	-0.5244219182	 0.0668027008	-0.196453
C	-1.5905116868	-2.0508351413	 0.0562686602	 0.003928
O	-0.9437337225	-2.5740986853	 1.2199849299	-0.239545
C	-2.2901980568	-2.0604381763	 1.366316906	-0.114114
C	-2.1493228121	-0.5360159034	 1.4296457214	 0.430671
O	-2.59864211	 0.3122861743	 2.1365960246	-0.293352
H	 1.0703902672	 1.9339858435	 0.0700020305	 0.12852
H	-0.4117768237	 1.9449772535	-0.9095284128	 0.10691
H	-0.5147606099	 1.9505640391	 0.867324157	 0.145023
H	 0.5304482373	-0.3283690666	-0.898222219	 0.068191
H	 0.5869629589	-1.2812280932	 1.3552189583	 0.293815
H	-2.0049644646	-0.0288705374	-0.6819237051	 0.112368
H	-1.7327778664	-2.7219583434	-0.7815687162	 0.1293
H	-3.029425623	-2.7336021731	 1.7827963569	 0.133277
79.576	126.714	152.5655	233.516	242.6142	320.9211	388.283	432.1354	481.2509	515.4894	578.8255	664.7519	729.33	806.8949	846.0055	864.0149	885.1406	925.4304	942.0733	1009.693	1016.8009	1040.8106	1070.5346	1106.3661	1169.3339	1183.9431	1214.2042	1247.9217	1293.953	1312.8169	1341.0518	1375.4092	1403.3264	1448.8521	1487.8536	1499.3748	1903.9933	2934.7755	3043.2013	3053.0786	3118.5448	3129.2723	3198.307	3211.2754	3767.4352
CC(O)C1C2OC2C1=O	C[C@@H](O)[C@H]1[C@H]2O[C@H]2C1=O	
InChI=1S/C6H8O3/c1-2(7)3-4(8)6-5(3)9-6/h2-3,5-7H,1H3	InChI=1S/C6H8O3/c1-2(7)3-4(8)6-5(3)9-6/h2-3,5-7H,1H3/t2-,3-,5-,6+/m1/s1
