17
gdb 41039	3.52955	1.92171	1.56786	1.4659	75.19	-0.2081	0.0708	0.2789	870.7191	0.137189	-384.552076	-384.545809	-384.544865	-384.582408	26.509	
C	 0.1445467116	 1.2806005886	-0.3030767661	-0.09183
C	 1.4341624012	 1.9598881684	 0.2753224912	-0.394015
C	 2.0730319227	 0.7831598845	 0.9659196016	 0.280463
C	 3.1372332601	-0.295824552	 0.8691906025	-0.160942
C	 2.7112740929	 0.2592420796	 2.2428346137	-0.162604
C	 1.5868886219	-0.8275982021	 2.3452912763	-0.201693
C	 2.0220262068	-1.3932732238	 0.9532465105	-0.206116
C	 0.9935225247	-0.2833841239	 1.0702805932	 0.429248
O	-0.1993165035	 0.1519411609	 0.5404188773	-0.297988
H	-0.7224936451	 1.9444710809	-0.3172104904	 0.115845
H	 0.3334376995	 0.9229663845	-1.323722457	 0.109049
H	 2.029258772	 2.4142383786	-0.5209146912	 0.114465
H	 1.1638128523	 2.7457872621	 0.9875214745	 0.11986
H	 4.1187621089	-0.272211053	 0.4106380978	 0.083196
H	 3.3173370282	 0.7667530021	 2.9842508886	 0.083867
H	 1.1664920722	-1.3834471456	 3.1730708827	 0.090466
H	 1.9669805636	-2.4239667898	 0.627876355	 0.088728
152.9111	218.6667	338.8108	428.7976	570.962	615.776	671.716	685.3158	775.3399	785.2304	809.4451	819.7219	835.9949	863.4793	875.7661	883.1909	921.1599	926.147	964.5242	973.0315	988.9741	1026.0721	1048.8802	1099.8719	1156.9021	1163.021	1172.5237	1184.17	1232.0637	1234.629	1245.8414	1299.4556	1352.3369	1421.7458	1444.1821	1483.0002	1514.9253	3018.4833	3051.82	3098.6115	3112.0413	3170.7056	3182.5937	3195.5473	3204.4098
C1CC23C4C2C2C4C32O1	C1C[C@@]23[C@H]4[C@@H]2[C@@H]2[C@H]4[C@]32O1	
InChI=1S/C8H8O/c1-2-9-8-5-3-4(6(5)8)7(1,3)8/h3-6H,1-2H2	InChI=1S/C8H8O/c1-2-9-8-5-3-4(6(5)8)7(1,3)8/h3-6H,1-2H2/t3-,4+,5-,6+,7+,8+
