17
gdb 44134	5.06356	0.95394	0.87373	2.9667	76.29	-0.2525	0.0191	0.2717	1320.6016	0.135872	-417.934254	-417.926569	-417.925624	-417.966928	29.344	
N	-0.0842068987	 1.1629887126	 0.4905617064	-0.555234
C	-0.106338897	-0.052831885	 0.1929328297	 0.446964
O	 0.9299583996	-0.9010339579	-0.2199073751	-0.275596
C	-0.03108692	-1.9595423834	-0.4596293313	 0.052112
C	-0.6550299634	-2.3508783264	 0.8341440168	 0.005799
C	-1.1557243209	-1.1055343652	 0.0788553154	-0.226942
N	-1.5630872365	-3.4541489546	 0.7703320661	-0.085475
C	-1.176442569	-4.6535272585	 1.513314906	-0.225313
C	-2.2778367247	-3.7813948486	 2.0042540105	-0.221777
H	 0.8603928498	 1.5441738426	 0.4169563468	 0.231034
H	 0.0686391719	-2.556411372	-1.3545933667	 0.132455
H	-0.072331117	-2.2114037353	 1.750476366	 0.097573
H	-2.1860904038	-0.9961882214	-0.2216059926	 0.130527
H	-1.3954106929	-5.597283236	 1.023077496	 0.12552
H	-0.2370940158	-4.6296746906	 2.0622597888	 0.120683
H	-2.0787535365	-3.1704827046	 2.8822800435	 0.122454
H	-3.3145404953	-4.0785788058	 1.8787506837	 0.125216
74.3063	131.0429	155.0455	234.5013	347.4699	404.2573	431.1137	506.0402	629.6729	752.0552	784.8751	813.0147	862.2081	880.6696	888.3107	911.0335	925.206	957.1309	974.2364	1007.3284	1035.1294	1052.231	1071.1203	1099.7014	1121.3799	1123.9853	1154.0337	1177.101	1177.574	1208.8867	1265.2895	1298.3757	1327.8662	1415.1339	1491.0039	1517.4539	1832.8752	3046.1411	3102.7209	3107.0301	3187.0976	3201.4483	3228.0586	3248.4137	3481.2715
N=C1OC2C(C12)N1CC1	[NH][C]1O[C@H]2[C@@H]([C@@H]12)N1CC1	
InChI=1S/C6H8N2O/c7-6-3-4(5(3)9-6)8-1-2-8/h3-5,7H,1-2H2	InChI=1S/C6H8N2O/c7-6-3-4(5(3)9-6)8-1-2-8/h3-5,7H,1-2H2/t3-,4-,5-/m1/s1
