17
gdb 123748	5.10701	1.00989	0.97357	6.1841	73.47	-0.2789	-0.0129	0.2659	1234.1224	0.138474	-414.159862	-414.152489	-414.151545	-414.192857	27.21	
C	-0.1329025309	 1.5126399228	 0.0113952514	-0.212659
C	 1.4057016887	 1.5111809737	-0.2077260302	-0.244187
C	 1.4475095799	 0.1472710217	 0.5295006411	 0.087243
C	-0.0666706518	-0.0231320569	 0.240170964	-0.244195
N	 2.377758698	-0.8733620038	 0.0913119516	 0.011331
C	 2.5887903122	-1.428802381	-1.1163665737	 0.056713
N	 3.5490124443	-2.3227737274	-1.0228950129	-0.225111
N	 3.9311041741	-2.3075391027	 0.2819688261	-0.094973
N	 3.2430172886	-1.4504630877	 0.9577594972	-0.127744
H	-0.4134122416	 2.0476250063	 0.9219161057	 0.119499
H	-0.7551723887	 1.8700632882	-0.8097951596	 0.114522
H	 1.6599975398	 1.3988745709	-1.2654634782	 0.115434
H	 1.9992953568	 2.3242840651	 0.2134870146	 0.121646
H	 1.640606169	 0.273042271	 1.5951039268	 0.125569
H	-0.6783128223	-0.4659737106	 1.0280131238	 0.121643
H	-0.2338123519	-0.5745840768	-0.6893724834	 0.115429
H	 2.0466513157	-1.170062693	-2.0105498543	 0.15984
42.826	118.968	130.7971	251.7355	388.4507	390.3589	557.0075	685.4924	728.6178	736.3948	786.2728	864.8777	871.2242	919.7274	927.5633	953.8971	987.4146	1016.4942	1049.12	1050.2603	1106.7466	1130.8531	1178.3578	1204.3193	1210.5727	1248.0618	1251.8307	1260.1245	1281.3748	1290.3551	1319.5203	1388.6323	1467.4252	1476.7205	1487.74	1506.5881	1512.6675	3065.7321	3069.3748	3075.6238	3112.2728	3125.9436	3126.4114	3140.9301	3287.5055
C1CC(C1)N1C=NN=N1	C1CC(C1)n1cnnn1	
InChI=1S/C5H8N4/c1-2-5(3-1)9-4-6-7-8-9/h4-5H,1-3H2	InChI=1S/C5H8N4/c1-2-5(3-1)9-4-6-7-8-9/h4-5H,1-3H2
