18
gdb 85569	2.76922	1.3532	0.95209	1.2872	72.47	-0.2485	-0.0307	0.2178	1203.7318	0.148049	-439.154686	-439.146014	-439.14507	-439.188488	32.042	
C	-0.0065152353	 1.5686604586	-0.0396247761	-0.398651
C	 0.1594064121	 0.0506098152	-0.0115406424	-0.10372
C	 0.9914282309	-0.5046257834	-1.1850848429	-0.331587
C	 1.0560809556	-2.0262243208	-1.1910960299	 0.382956
O	 1.0756178789	-2.6921501499	-2.2067273663	-0.365933
N	 1.0500439259	-2.59568487	 0.0566427105	-0.312501
C	 1.2594374287	-1.8919058508	 1.3072693267	-0.258029
C	 0.774844179	-0.4374349498	 1.2905816262	 0.382543
O	 0.9105603309	 0.248593771	 2.2738422373	-0.306079
H	 0.9674962097	 2.0671080572	-0.0121718887	 0.126183
H	-0.5261596537	 1.8804659516	-0.9500182365	 0.116925
H	-0.5751427703	 1.9127745051	 0.8266750298	 0.137343
H	-0.8326119324	-0.4256147833	-0.0650753907	 0.115878
H	 0.5777982812	-0.1941701221	-2.1463369302	 0.139957
H	 2.015349928	-0.1091096292	-1.1371616692	 0.129845
H	 1.1371320074	-3.6020722603	 0.0547703811	 0.251912
H	 0.7185411484	-2.4025830329	 2.1118405091	 0.149861
H	 2.3172397648	-1.8706338062	 1.6094420019	 0.143097
53.8009	122.1455	141.2321	194.0916	271.4901	291.8116	378.9278	426.581	447.7083	542.17	569.793	589.7366	657.7007	698.6164	759.0587	843.1455	901.1907	925.7806	961.4536	1059.2689	1084.5311	1099.1047	1140.2922	1174.2816	1185.2389	1247.383	1284.3328	1316.1233	1324.4813	1366.2529	1375.5236	1412.8553	1459.1687	1470.6957	1491.0179	1494.6942	1501.7346	1803.4213	1822.2811	2989.1444	2997.7844	3028.5023	3046.9289	3064.6011	3113.8027	3117.8011	3134.0995	3604.318
CC1CC(=O)NCC1=O	C[C@H]1CC(=O)NCC1=O	
InChI=1S/C6H9NO2/c1-4-2-6(9)7-3-5(4)8/h4H,2-3H2,1H3,(H,7,9)	InChI=1S/C6H9NO2/c1-4-2-6(9)7-3-5(4)8/h4H,2-3H2,1H3,(H,7,9)/t4-/m0/s1
