14
gdb 9980	2.61325	1.67317	1.11964	3.1734	67.33	-0.2539	-0.027	0.2269	1024.1673	0.10778	-374.913153	-374.904956	-374.904012	-374.947596	27.889	
N	-0.0221237472	 1.2577313504	 0.0886327404	-0.463904
C	-0.0857097152	-0.008408042	 0.1481155656	 0.104083
N	-1.2858144906	-0.7046280947	 0.039521899	-0.053745
C	-1.2787216633	-2.1611263502	 0.0726310925	-0.31395
C	-0.8898775594	-2.7006749641	 1.3820974739	 0.268481
N	-0.5583432795	-3.124696201	 2.4041189066	-0.29847
C	-2.5004283245	-0.0387222924	-0.0950206236	 0.103723
N	-3.5919274458	-0.6790754374	-0.2113743592	-0.472035
H	 0.9387733868	 1.5729867504	 0.193626948	 0.239101
H	 0.7635714635	-0.6851665103	 0.2892761795	 0.117669
H	-2.2956180404	-2.4834097056	-0.1673743801	 0.208674
H	-0.601780773	-2.5627763502	-0.6894749069	 0.163131
H	-2.3636411034	 1.0423668001	-0.0873574662	 0.157747
H	-4.375657558	-0.036795023	-0.2990352695	 0.239495
15.4251	92.3883	171.8496	211.0433	261.0488	309.7071	329.7141	367.0019	495.1612	615.1473	712.0096	801.4364	821.8189	853.7746	941.4792	970.633	1051.9765	1079.0194	1136.7834	1166.5242	1257.7271	1325.1972	1370.513	1393.2421	1429.358	1435.2047	1464.6683	1709.39	1733.6286	2364.061	3048.2267	3069.0655	3107.7283	3146.0534	3523.7945	3528.0847
N=CN(CC#N)C=N	N=CN(CC#N)C=N	
InChI=1S/C4H6N4/c5-1-2-8(3-6)4-7/h3-4,6-7H,2H2	InChI=1S/C4H6N4/c5-1-2-8(3-6)4-7/h3-4,6-7H,2H2
