20
gdb 81052	2.48109	1.42389	1.14345	2.4598	79.58	-0.2197	-0.0234	0.1963	1161.2579	0.169766	-403.088453	-403.079319	-403.078375	-403.123222	33.754	
C	-0.1963709702	 1.4912239008	-0.071584664	-0.446348
C	 0.0894354362	 0.0062157235	 0.0327958414	 0.05098
N	 1.3044743639	-0.5694071759	-0.733710354	-0.163285
C	 2.1526613322	-0.047475631	 0.4394356788	-0.231034
C	 0.9329683119	-0.6620817219	 1.1746506497	 0.217711
C	 1.0955146652	-1.8098736249	 0.1612382294	-0.204748
C	 0.6171199815	-0.7670578451	 2.6449148333	 0.238887
C	 0.7415636435	 0.5031769413	 3.4648223636	-0.494859
O	 0.2726373842	-1.8229569106	 3.1285615148	-0.294525
H	-0.4235612074	 1.7430119903	-1.1129088406	 0.138737
H	-1.0776175114	 1.7424170717	 0.5284392129	 0.124924
H	 0.625363587	 2.1315907915	 0.2552328594	 0.121756
H	-0.8178140161	-0.5541215995	-0.2186476467	 0.083658
H	 3.1083110266	-0.5677724503	 0.5443651129	 0.109121
H	 2.2998545548	 1.0323387311	 0.4458338943	 0.105004
H	 0.2120677757	-2.3964163367	-0.0995597012	 0.110502
H	 1.9855414185	-2.437116131	 0.244820503	 0.106075
H	 0.1401125232	 1.3063828268	 3.0243506049	 0.140449
H	 0.4207333328	 0.3174728252	 4.4905785884	 0.143813
H	 1.7813606177	 0.8507293049	 3.4624027196	 0.143183
27.7142	120.3969	129.1929	160.3943	183.5551	291.2853	343.4454	363.4519	459.6764	561.8752	579.9988	604.8428	631.6991	752.6177	802.6408	809.3088	862.0185	931.456	942.6019	996.6096	1020.6653	1037.1571	1051.646	1094.2844	1115.3661	1139.1615	1151.7599	1159.315	1174.4982	1195.6987	1201.1677	1281.9418	1330.7401	1381.9263	1406.5206	1429.561	1460.2949	1471.9343	1489.7739	1493.0973	1521.7075	1555.0407	1798.1827	3034.2845	3039.0267	3045.6752	3064.8395	3070.9906	3094.3501	3100.5884	3123.6098	3135.6417	3142.2117	3151.3271
CC1N2CC1(C2)C(C)=O	C[C@H]1N2C[C@@]1(C2)C(=O)C	
InChI=1S/C7H11NO/c1-5-7(6(2)9)3-8(5)4-7/h5H,3-4H2,1-2H3	InChI=1S/C7H11NO/c1-5-7(6(2)9)3-8(5)4-7/h5H,3-4H2,1-2H3/t5-/m1/s1
