19
gdb 28566	4.68478	1.01132	0.87578	1.6613	85.93	-0.1743	0.0512	0.2255	1356.9226	0.160297	-382.07999	-382.07135	-382.070406	-382.113752	32.441	
C	-0.4260367111	 1.5138614583	-0.0999016802	-0.504618
C	-0.1496794735	 0.0476896778	-0.1144332468	 0.302768
C	 0.1563637829	-0.809080949	-1.1441910184	-0.216782
C	 0.3321528154	-2.1188375001	-0.6018985447	-0.222199
C	 0.1236962388	-2.022158516	 0.7553396185	 0.323801
N	-0.1677935406	-0.7094308663	 1.0413160465	-0.350012
N	 0.0884993879	-2.9666118965	 1.7948406345	-0.171986
C	 0.8171835416	-4.2116692996	 1.6031603306	-0.218147
C	 1.321886414	-3.201117661	 2.5699596157	-0.231081
H	 0.2965090333	 2.0699213473	 0.511841623	 0.121326
H	-0.3687611677	 1.9097021909	-1.1166223663	 0.135207
H	-1.4261611042	 1.7469238582	 0.2884861847	 0.122307
H	 0.249361896	-0.5265737157	-2.1822978203	 0.084436
H	 0.5605298188	-3.020670088	-1.1473876895	 0.084372
H	-0.408748993	-0.3775992971	 1.9594729287	 0.253355
H	 0.3092449668	-5.1052675102	 1.9531327451	 0.120058
H	 1.3810002513	-4.3322952952	 0.6818014394	 0.126035
H	 2.2061707323	-2.638196525	 2.2821128009	 0.122928
H	 1.1776887213	-3.3377286028	 3.6373255487	 0.11823
48.8778	119.3081	139.1851	185.7232	236.4944	315.7523	379.4646	456.047	484.3616	563.0145	636.7592	671.2541	692.9581	765.5674	805.6284	819.6275	869.1424	909.8274	985.5616	1003.1068	1022.6383	1041.2056	1062.7798	1063.201	1107.7304	1133.0098	1163.6158	1176.2513	1198.5365	1260.9701	1266.0432	1338.5673	1417.2178	1424.6059	1455.2189	1479.2089	1485.9026	1500.9084	1512.3035	1558.9736	1638.1097	3008.6269	3049.2682	3108.4778	3113.301	3118.9528	3192.7708	3207.2457	3237.7665	3257.4806	3673.7295
CC1=CC=C(N1)N1CC1	Cc1ccc([nH]1)N1CC1	
InChI=1S/C7H10N2/c1-6-2-3-7(8-6)9-4-5-9/h2-3,8H,4-5H2,1H3	InChI=1S/C7H10N2/c1-6-2-3-7(8-6)9-4-5-9/h2-3,8H,4-5H2,1H3
