19
gdb 114137	4.22134	0.86627	0.81424	1.1474	71.48	-0.252	0.0647	0.3167	1436.0505	0.157883	-460.110598	-460.10132	-460.100376	-460.145162	34.042	
O	 0.1493948245	 1.3516860148	-0.0292513654	-0.420506
C	 0.0831687162	-0.0644833125	 0.0641602796	-0.084816
C	-1.350288293	-0.5760687941	 0.0693543957	-0.014601
C	-2.193048219	-0.4573171127	-1.2578546182	-0.329716
C	-2.3716026723	-1.9834133935	-1.2244852969	 0.404968
C	-3.4651947605	-2.8317482463	-1.7894653202	-0.179771
O	-3.4100031614	-2.8852164713	-3.2065835105	-0.412851
O	-1.0419379748	-2.5436983424	-1.2659531675	-0.295412
C	-1.5564312645	-2.1004212193	-0.0016207291	-0.080273
H	-0.1804663248	 1.6026316437	-0.8979749288	 0.28418
H	 0.6429962258	-0.5522280049	-0.7458864463	 0.104453
H	 0.5758532738	-0.3227379967	 1.0084453051	 0.108743
H	-1.897627206	-0.1393871362	 0.909939447	 0.086883
H	-3.1243231446	 0.0964626193	-1.1217693308	 0.113794
H	-1.6734653781	-0.0834432204	-2.1447672273	 0.103663
H	-3.4077946215	-3.8344382822	-1.3397487191	 0.099167
H	-4.4417076742	-2.4039169698	-1.5395417116	 0.114911
H	-2.5473058981	-3.2469227755	-3.4387471755	 0.293852
H	-1.5792424776	-2.8293829199	 0.8014433899	 0.103332
70.24	78.5507	134.1739	146.8939	238.0793	294.6282	316.6727	337.3911	404.1738	443.5996	453.1888	596.4859	706.6715	722.7608	820.0617	863.3006	897.2721	930.9933	945.6241	988.8358	1004.2028	1043.5781	1068.7284	1075.9247	1112.092	1141.5733	1175.7135	1209.5475	1229.8029	1236.5157	1257.5888	1281.2909	1343.4177	1368.3563	1391.7471	1412.9494	1420.9106	1457.7452	1482.6634	1487.368	1507.0574	2994.8735	3010.696	3060.0586	3062.8771	3077.2701	3078.3372	3121.823	3176.7605	3804.1449	3817.3815
OCC1CC2(CO)OC12	OC[C@H]1C[C@@]2(CO)O[C@@H]12	
InChI=1S/C6H10O3/c7-2-4-1-6(3-8)5(4)9-6/h4-5,7-8H,1-3H2	InChI=1S/C6H10O3/c7-2-4-1-6(3-8)5(4)9-6/h4-5,7-8H,1-3H2/t4-,5+,6+/m1/s1
