20
gdb 80473	2.15246	1.66205	1.5223	1.2402	73.37	-0.2268	0.0508	0.2776	1018.945	0.172048	-440.256314	-440.247835	-440.24689	-440.28887	33.526	
C	 0.2048319771	 1.7598941422	 0.0918824721	-0.469247
C	 0.0901925478	 0.2602625879	-0.0892594588	 0.012744
C	 0.5733324269	-0.547483315	-1.2521071998	-0.104703
C	 1.5546909177	 0.0300707195	-2.2566499755	 0.090364
O	 1.0665860648	 1.1146323452	-3.045145606	-0.443029
C	 2.825456418	 0.4379834661	-1.4237665544	 0.067103
O	 3.0116896562	 1.8408211036	-1.4168655041	-0.421142
C	 2.5663397602	-0.1156472868	-0.0042615714	-0.185674
N	 1.2025124454	-0.6903588003	 0.0789775251	-0.120762
H	 1.1066163423	 2.1864551863	-0.3503352532	 0.15549
H	-0.6755500894	 2.2552299524	-0.336130296	 0.114167
H	 0.211609754	 2.0017757532	 1.1607583236	 0.128233
H	-0.8160624794	-0.1353458694	 0.3695705532	 0.094907
H	-0.0312430808	-1.3864074056	-1.5883861851	 0.091038
H	 1.8276191559	-0.7463117257	-2.9775496324	 0.09572
H	 0.4025453906	 1.5777309329	-2.5244198018	 0.297705
H	 3.7150662432	-0.0379488129	-1.8588488224	 0.079441
H	 2.6433727909	 2.1497512214	-2.2589706089	 0.284154
H	 3.262943328	-0.9273632344	 0.2247711911	 0.109987
H	 2.7145390905	 0.6690769795	 0.7431033646	 0.123506
107.3226	163.9982	222.8021	250.2943	264.1345	322.5299	325.5737	398.7758	469.5437	535.5201	577.4783	592.1762	680.9607	703.8584	736.6741	792.0842	837.4572	904.0466	934.2635	991.7469	1017.3195	1025.6741	1056.2451	1091.2037	1124.139	1140.3013	1162.9231	1178.0223	1236.2623	1248.2725	1266.1949	1306.464	1334.0269	1345.9975	1370.5399	1386.9435	1402.7475	1418.4935	1429.1762	1436.1669	1490.1256	1508.4678	1522.1404	2995.1822	3024.0082	3055.1851	3064.1202	3077.7782	3096.0335	3100.0297	3131.1571	3136.7691	3704.9857	3826.1688
CC1C2C(O)C(O)CN12	C[C@H]1[C@H]2[C@@H](O)[C@@H](O)CN12	
InChI=1S/C6H11NO2/c1-3-5-6(9)4(8)2-7(3)5/h3-6,8-9H,2H2,1H3	InChI=1S/C6H11NO2/c1-3-5-6(9)4(8)2-7(3)5/h3-6,8-9H,2H2,1H3/t3-,4-,5-,6-,7?/m0/s1
