17
gdb 88360	2.09534	1.3394	0.92101	2.1369	80.04	-0.256	0.0384	0.2944	1276.2541	0.132294	-384.59049	-384.580871	-384.579927	-384.625193	35.709	
O	-0.1005264215	 1.4443527523	 0.6538671768	-0.411815
C	 0.0069287229	 0.114229968	 0.2352961814	 0.086523
C	-0.6363323971	-0.9706737905	 1.0640910647	-0.336819
C	-1.2546912095	-0.5408710651	-0.2475913502	-0.004099
C	-2.5664424921	 0.2522824308	-0.2421535179	-0.381578
C	-2.7830039679	 0.9131478441	-1.5350169036	 0.339783
C	-2.9406653929	 1.445945297	-2.5994246351	-0.455738
C	-3.7055842793	-0.6012402442	 0.117582052	 0.340879
C	-4.6233811753	-1.3119071834	 0.4257709709	-0.446304
H	 0.4474874301	 1.5565317644	 1.437319644	 0.292247
H	 0.9271437945	-0.1214455148	-0.2982961162	 0.093141
H	-0.1660770803	-1.9457562986	 1.1247110745	 0.115446
H	-1.1420766496	-0.6520832104	 1.9701185531	 0.120957
H	-1.1623366826	-1.2234149699	-1.0852927954	 0.107643
H	-2.4624285343	 1.0356340984	 0.5198839267	 0.148113
H	-3.0873185228	 1.9242974923	-3.5359162483	 0.196155
H	-5.4426678022	-1.9324485703	 0.6923346526	 0.195465
48.6834	112.2311	125.9089	154.0177	228.9349	293.4723	307.212	341.3885	423.8649	467.2802	509.3909	564.5634	588.3087	627.4477	629.7645	642.7531	645.0852	784.7337	841.0404	860.9943	934.1187	1003.8325	1011.9145	1056.0115	1062.5885	1134.3773	1140.7239	1172.9622	1234.099	1254.4693	1301.807	1308.3255	1383.5407	1421.9182	1486.1061	2239.8831	2245.6929	3029.6761	3104.894	3131.4866	3171.5216	3220.7559	3505.1614	3505.9969	3811.6276
OC1CC1C(C#C)C#C	O[C@H]1C[C@H]1C(C#C)C#C	
InChI=1S/C8H8O/c1-3-6(4-2)7-5-8(7)9/h1-2,6-9H,5H2	InChI=1S/C8H8O/c1-3-6(4-2)7-5-8(7)9/h1-2,6-9H,5H2/t7-,8-/m0/s1
