21
gdb 59342	2.46755	1.22382	0.93915	0.996	79.86	-0.2492	-0.0296	0.2197	1343.4315	0.179427	-424.241087	-424.230919	-424.229975	-424.276418	36.799	
C	-0.0669004532	 1.3955291376	-0.3206749294	-0.395889
C	-0.0014326214	-0.1036592226	-0.0048507724	 0.014384
C	 0.8716856104	-0.4069625849	 1.2202619022	-0.402579
C	-1.4080027331	-0.6626742129	 0.2128271219	 0.021133
O	-2.2968675407	-0.5090200194	-0.9243551458	-0.318442
C	-2.5915223838	-1.9256219659	-1.027853664	 0.038102
C	-2.2909039518	-2.5252932245	-2.3893305712	-0.403339
C	-1.5981021918	-2.1817637467	 0.1149582415	 0.321459
O	-1.1294776571	-3.1448147329	 0.6442852147	-0.28892
H	 0.9310426885	 1.7884628456	-0.5402331767	 0.112755
H	-0.7106485818	 1.5836095651	-1.1837676154	 0.135156
H	-0.4677281072	 1.9568131239	 0.5317225321	 0.112665
H	 0.4243444106	-0.6202831636	-0.8756258376	 0.077792
H	 0.4919065273	 0.1113004119	 2.1086520536	 0.114715
H	 0.8945102035	-1.4783159556	 1.4387250209	 0.142155
H	 1.8982420406	-0.0673991336	 1.0522752825	 0.116089
H	-1.8518035285	-0.2308186342	 1.1236212468	 0.098772
H	-3.6299888998	-2.1334623544	-0.7303758831	 0.104884
H	-1.2522068993	-2.3429714894	-2.6779125388	 0.128104
H	-2.4642395041	-3.6055566141	-2.3645303197	 0.135824
H	-2.9442708574	-2.0861488395	-3.1487853721	 0.135181
62.6495	75.53	132.3238	192.9426	197.7092	225.8953	240.8037	267.1831	313.6758	360.3923	390.2741	450.3232	543.0313	596.44	714.8973	837.1246	844.4282	883.9131	919.9704	937.9303	968.6865	1008.3821	1033.8955	1056.4031	1093.7246	1125.8641	1134.2724	1168.098	1197.8999	1247.1522	1280.8638	1293.4722	1337.8216	1352.552	1388.8837	1397.9177	1400.2353	1419.8345	1481.0463	1488.8909	1492.299	1493.9896	1502.0235	1514.1114	1909.8418	2984.9976	3000.9143	3015.7069	3028.9795	3033.7294	3042.9327	3094.126	3100.2247	3118.5814	3119.271	3120.8109	3123.6395
CC(C)C1OC(C)C1=O	CC(C)[C@H]1O[C@@H](C)C1=O	
InChI=1S/C7H12O2/c1-4(2)7-6(8)5(3)9-7/h4-5,7H,1-3H3	InChI=1S/C7H12O2/c1-4(2)7-6(8)5(3)9-7/h4-5,7H,1-3H3/t5-,7+/m0/s1
