19
gdb 106750	2.20229	1.597	1.1169	3.4292	78.28	-0.2234	0.0261	0.2495	1163.2329	0.157819	-419.17031	-419.160991	-419.160046	-419.204725	34.513	
C	 0.1664160678	 1.4418389539	 0.2089760428	-0.334224
N	-0.1859271994	 0.0573875612	-0.1096050402	-0.373424
C	 0.5027063431	-0.4684033919	-1.2293122779	 0.160224
C	 1.9989978398	-0.8945424489	-1.2853014342	-0.378229
C	 0.9157357376	-1.8652569386	-1.6259742512	 0.381827
C	 0.6493905167	-3.2287125555	-1.0860565634	-0.490949
O	 0.5238746405	-1.6092980537	-3.0141486643	-0.311407
C	 0.0478583399	-0.3497459809	-2.6519904766	 0.432297
N	-0.574731043	 0.5088308011	-3.3180819879	-0.561954
H	 1.2365758582	 1.5893967297	 0.4298692906	 0.098821
H	-0.0963227992	 2.0756007385	-0.6422513986	 0.157836
H	-0.4188560709	 1.7708067373	 1.0718023846	 0.118106
H	-0.0656374152	-0.5413061957	 0.6991918417	 0.222501
H	 2.6688395174	-0.5373871274	-2.0615998277	 0.12435
H	 2.4428567727	-1.0079697703	-0.2993764407	 0.11499
H	 0.8857418651	-3.2682818335	-0.018583273	 0.126529
H	-0.3997438192	-3.5052132343	-1.2248364119	 0.142388
H	 1.2732333301	-3.9713918949	-1.5947651444	 0.142128
H	-0.728092452	 0.1940923639	-4.2777197075	 0.228189
41.1294	133.5828	146.6582	186.2135	198.5385	250.0896	288.9283	360.7778	414.3927	477.8814	514.6276	605.8523	632.3807	670.9155	732.2036	823.5412	859.7044	870.1204	885.8016	941.9525	970.5406	987.2728	1041.2441	1046.2023	1069.6207	1119.9688	1158.1988	1173.3725	1191.0859	1255.7635	1369.3707	1407.8551	1424.8135	1459.0168	1466.9377	1475.8587	1488.7876	1493.3748	1511.0736	1523.6937	1836.0625	2967.7859	3038.2501	3081.4904	3105.2052	3112.7019	3118.99	3124.8778	3207.0635	3475.667	3536.9978
CNC12CC1(C)OC2=N	CN[C@@]12C[C@]1(C)O[C]2[NH]	
InChI=1S/C6H10N2O/c1-5-3-6(5,8-2)4(7)9-5/h7-8H,3H2,1-2H3	InChI=1S/C6H10N2O/c1-5-3-6(5,8-2)4(7)9-5/h7-8H,3H2,1-2H3/t5-,6+/m0/s1
