16
gdb 27736	2.29514	1.46739	0.90076	5.5633	80.39	-0.2118	-0.0374	0.1744	1244.4648	0.123701	-437.93666	-437.927937	-437.926993	-437.970098	31.861	
C	 0.1058100606	 1.4541577364	 0.0010063788	-0.492305
C	-0.0560424631	-0.0230107235	 0.0031573998	 0.376148
C	-1.1601413295	-0.8253917539	-0.073293568	-0.33688
C	-0.6860845635	-2.1708888826	-0.023282631	 0.198703
N	-1.47981205	-3.2986833687	-0.0083506449	-0.604284
C	 0.6959174359	-2.0893541205	 0.0801801332	 0.203914
O	 1.0649073412	-0.7571861149	 0.0971538664	-0.201811
C	 1.7044896428	-3.1043335901	 0.157482789	 0.055184
O	 2.905533363	-2.9341060635	 0.2433424319	-0.309748
H	 0.7302117719	 1.7783068997	-0.8384829854	 0.151678
H	-0.867459009	 1.9419131885	-0.0787396201	 0.137399
H	 0.5939274046	 1.7948247861	 0.9204042496	 0.15288
H	-2.1860347788	-0.4989193721	-0.148555202	 0.110353
H	-2.3765013036	-3.1997538103	-0.4594401427	 0.257856
H	-1.0259567039	-4.1674474683	-0.245726437	 0.260472
H	 1.2728530215	-4.1343820524	 0.1297289024	 0.040441
102.2903	134.7316	160.8413	192.5518	227.125	273.0003	326.8064	384.8023	410.8502	544.0546	563.8227	611.2095	641.1887	679.6026	704.2898	786.9864	855.441	1002.8959	1003.1355	1018.9428	1051.5305	1060.8115	1182.3579	1197.42	1300.0465	1329.4248	1411.2409	1432.2064	1471.0528	1476.9828	1509.5202	1577.3231	1637.74	1668.7259	1766.9114	2822.3071	3039.2234	3094.0054	3137.8492	3250.1073	3578.5089	3678.4632
CC1=CC(N)=C(O1)C=O	Cc1cc(N)c(o1)C=O	
InChI=1S/C6H7NO2/c1-4-2-5(7)6(3-8)9-4/h2-3H,7H2,1H3	InChI=1S/C6H7NO2/c1-4-2-5(7)6(3-8)9-4/h2-3H,7H2,1H3
