19
gdb 121604	4.52922	0.63972	0.56685	1.7033	74.35	-0.241	-0.0579	0.183	1885.8454	0.157521	-456.363727	-456.353177	-456.352232	-456.400432	37.09	
N	-0.0438422319	 1.3206026759	 0.2476047639	-0.509595
C	 0.0903578557	-0.0279584937	 0.1292574073	 0.267797
N	 1.2352338314	-0.6023166064	 0.0855606117	-0.515914
C	-1.2694260923	-0.7318169276	 0.0681295617	 0.346487
O	-2.2812166585	-0.0684153665	 0.0048119025	-0.311311
C	-1.2889267665	-2.2490755668	 0.0749857291	-0.335925
C	-2.7014144504	-2.8302854953	 0.0523880093	-0.169028
C	-2.6975911368	-4.3532305792	 0.0478169136	-0.079321
O	-4.0469822592	-4.7867279451	 0.0263583585	-0.41844
H	 0.7726153192	 1.8924094127	 0.1145383999	 0.261933
H	-0.956859769	 1.7089029176	 0.0785960986	 0.270367
H	 1.1353605954	-1.6124486403	 0.0335731557	 0.216576
H	-0.7082271129	-2.5992318204	-0.7901120911	 0.135974
H	-0.7320507939	-2.5927134303	 0.9576656187	 0.13612
H	-3.2656619554	-2.4758331715	 0.9206032696	 0.124014
H	-3.2394714132	-2.4698583803	-0.8295624564	 0.125067
H	-2.1441531423	-4.7227928059	-0.8320630524	 0.083739
H	-2.1704334841	-4.7287918605	 0.9410865862	 0.084204
H	-4.0561265153	-5.7481978565	 0.0263948236	 0.287256
48.3864	68.0067	90.2246	103.2424	142.266	248.7646	262.9574	287.0154	313.8219	374.6878	413.543	460.4164	529.9242	539.3713	615.3873	672.6466	772.3164	800.1088	818.8339	893.7403	1016.5129	1042.9407	1076.5823	1096.2426	1097.9977	1125.0449	1159.212	1205.446	1241.5447	1294.233	1306.8937	1310.7561	1379.6165	1432.2659	1458.4672	1468.5949	1493.7478	1528.3804	1589.3751	1715.2497	1790.4577	2952.54	2976.6059	3014.6978	3044.1711	3062.2815	3105.8402	3530.0867	3604.2713	3736.7493	3831.2009
NC(=N)C(=O)CCCO	NC(=N)C(=O)CCCO	
InChI=1S/C5H10N2O2/c6-5(7)4(9)2-1-3-8/h8H,1-3H2,(H3,6,7)	InChI=1S/C5H10N2O2/c6-5(7)4(9)2-1-3-8/h8H,1-3H2,(H3,6,7)
