17
gdb 72804	2.76515	1.59281	1.30401	4.6746	74.65	-0.2331	-0.0567	0.1764	1016.2475	0.136218	-421.83704	-421.829319	-421.828375	-421.869191	29.497	
C	-0.2067459994	 1.5679889187	-0.0442669916	-0.479832
C	 0.0231544726	 0.0641791829	-0.0105344977	 0.211926
C	-1.153660997	-0.8311154764	 0.4786863985	-0.104197
O	-0.3157226137	-1.4723445088	 1.4571801985	-0.288244
C	 0.7976795487	-0.5895740707	 1.1577675997	-0.027224
C	 1.9577380145	-1.3789923932	 0.5243091975	 0.381398
O	 2.8261838054	-1.9714080902	 1.1179974035	-0.322727
C	 1.7622746076	-1.2778151002	-0.9433947299	-0.191681
C	 0.7196897662	-0.4866719827	-1.2298992639	-0.107194
H	 0.736273119	 2.1089722367	-0.1734521343	 0.130117
H	-0.865046982	 1.8433067333	-0.8762326981	 0.123932
H	-0.6733563075	 1.9146635535	 0.8827058095	 0.128977
H	-1.9680554394	-0.266892715	 0.9516167213	 0.104055
H	-1.5722925475	-1.5412215887	-0.2434003168	 0.109276
H	 1.097814631	 0.0142510377	 2.0193247292	 0.092017
H	 2.4050777311	-1.786581665	-1.6507157238	 0.122561
H	 0.3711700502	-0.2499067017	-2.2312190715	 0.116842
94.8793	197.1918	211.2776	226.4459	280.8657	330.6494	391.1187	493.8303	572.9297	633.7306	719.0401	725.8281	832.5908	871.4659	892.7908	903.8389	926.2087	983.8899	1001.5644	1004.5662	1021.0701	1091.8575	1145.71	1168.4453	1178.4586	1191.728	1262.5876	1268.4209	1298.3125	1338.312	1377.4263	1413.3332	1491.5437	1495.7142	1517.1822	1638.4228	1821.2788	3009.8514	3029.9642	3065.9309	3070.3633	3096.1757	3109.0156	3174.0791	3223.0468
CC12COC1C(=O)C=C2	C[C@]12CO[C@H]1C(=O)C=C2	
InChI=1S/C7H8O2/c1-7-3-2-5(8)6(7)9-4-7/h2-3,6H,4H2,1H3	InChI=1S/C7H8O2/c1-7-3-2-5(8)6(7)9-4-7/h2-3,6H,4H2,1H3/t6-,7-/m0/s1
