22
gdb 87163	3.45349	1.00893	0.99048	1.3914	83.04	-0.2391	0.0688	0.3079	1349.0523	0.193454	-404.310441	-404.300704	-404.29976	-404.345597	35.789	
C	-0.0542603282	 1.4857990143	-0.1160330687	-0.404511
C	 0.0622466278	-0.0154482506	-0.0062598536	-0.032346
N	 1.3804044087	-0.6179284526	-0.2771326096	-0.383317
C	 0.7932431731	-0.7439350137	 1.0750642861	 0.318793
C	 1.512637927	-0.0163408843	 2.1905104183	-0.47097
C	 0.2429869587	-2.1086647683	 1.4321824512	 0.093089
C	 1.1687002541	-3.1735698083	 2.0757569999	-0.310881
C	 0.1310099839	-3.1779704646	 3.2139778036	-0.059246
O	-0.6031819337	-2.0921603129	 2.607798591	-0.290498
H	 0.8590700096	 1.9859327844	 0.2111408652	 0.127833
H	-0.2322952824	 1.7745994816	-1.1576249338	 0.119473
H	-0.8923335997	 1.8566087099	 0.4838085984	 0.120231
H	-0.8030154205	-0.5469627906	-0.4033895224	 0.079709
H	 1.2770168135	-1.4889896687	-0.7946299078	 0.22404
H	 1.8158776418	 0.9847881356	 1.882589297	 0.124536
H	 0.8604056416	 0.0635849447	 3.0646727228	 0.132639
H	 2.4211138133	-0.5511130526	 2.4874792038	 0.115671
H	-0.3100575915	-2.5025784025	 0.5649583341	 0.060352
H	 1.2792071776	-4.1040986813	 1.517526748	 0.109676
H	 2.1558112833	-2.8072990185	 2.3597499838	 0.117963
H	-0.4763081368	-4.0892035173	 3.2853161794	 0.101391
H	 0.4954557487	-2.9154592636	 4.2135272234	 0.106372
47.0629	77.6294	137.1272	158.2421	179.6874	230.3838	295.7759	307.6854	335.0654	458.486	497.8864	514.0241	691.1618	778.0597	784.6151	827.1632	864.4595	905.9341	954.8919	974.1496	995.167	1022.5983	1031.1605	1048.2907	1066.6191	1090.6398	1101.2753	1132.3077	1149.7797	1167.9871	1215.517	1241.8071	1255.3958	1274.5826	1292.8995	1347.0302	1358.8143	1388.3999	1412.5881	1426.39	1459.0511	1478.3289	1486.8323	1492.3571	1501.2418	1513.3183	1530.9557	2969.4359	3016.8121	3036.8217	3046.4782	3060.4833	3087.5152	3095.0778	3097.8468	3109.0866	3131.8979	3142.0528	3146.7541	3475.5261
CC1NC1(C)C1CCO1	C[C@H]1N[C@]1(C)[C@H]1CCO1	
InChI=1S/C7H13NO/c1-5-7(2,8-5)6-3-4-9-6/h5-6,8H,3-4H2,1-2H3	InChI=1S/C7H13NO/c1-5-7(2,8-5)6-3-4-9-6/h5-6,8H,3-4H2,1-2H3/t5-,6-,7+/m1/s1
