17
gdb 97890	6.68104	0.52839	0.50587	1.0595	74.91	-0.2483	0.0129	0.2612	2127.447	0.132418	-458.952766	-458.941988	-458.941044	-458.991543	35.139	
C	 0.0671116094	 1.320638752	 0.2750922933	-0.239743
O	-0.00016568	-0.0763236907	-0.0403255096	-0.232429
C	 0.6548537506	-0.4449877831	-1.1601401297	 0.466383
O	 1.2631770563	 0.3106657087	-1.867354422	-0.339128
C	 0.4826608854	-1.9491484815	-1.3661704894	-0.517073
C	 1.1910304166	-2.4756736703	-2.5197319044	 0.085404
C	 1.7764174785	-2.9342109957	-3.4640272142	 0.129334
C	 2.4790176315	-3.4564221183	-4.6284465184	-0.21696
O	 3.3441360739	-4.5144100709	-4.2319510258	-0.41002
H	 1.1042193504	 1.6326727946	 0.4210862989	 0.143465
H	-0.3693299909	 1.9182736013	-0.5291556742	 0.142295
H	-0.5027698549	 1.4444860602	 1.1958848893	 0.134752
H	 0.8101553117	-2.4495073373	-0.4463953367	 0.165683
H	-0.5944796077	-2.1489075067	-1.4339938914	 0.160751
H	 1.7407666377	-3.8029370915	-5.3702242291	 0.114949
H	 3.0419958708	-2.634493791	-5.0996023464	 0.12272
H	 3.8065851408	-4.8157207599	-5.0206341701	 0.289617
19.3632	27.0365	72.1859	121.2485	135.3896	163.5252	210.1664	238.6317	267.2212	343.4696	376.1046	434.8655	554.4061	582.9036	703.005	798.9741	896.7967	955.6092	1021.3814	1028.0868	1051.735	1159.7046	1180.0042	1197.8929	1216.4638	1219.2358	1246.6427	1259.0046	1358.6248	1440.1455	1460.8724	1473.1158	1482.1974	1498.0935	1503.1575	1840.369	2387.3446	2963.9209	2983.8976	3031.6596	3052.7655	3061.1802	3127.795	3160.327	3818.2547
COC(=O)CC#CCO	COC(=O)CC#CCO	
InChI=1S/C6H8O3/c1-9-6(8)4-2-3-5-7/h7H,4-5H2,1H3	InChI=1S/C6H8O3/c1-9-6(8)4-2-3-5-7/h7H,4-5H2,1H3
