21
gdb 89094	4.28619	0.61779	0.57834	4.2902	84.45	-0.2323	0.0339	0.2662	1909.9663	0.181826	-383.256722	-383.24672	-383.245776	-383.292732	35.716	
C	-0.3902424193	 1.383842884	 0.1537522447	-0.316495
N	 0.008238269	-0.0143601958	 0.1166712059	-0.074055
C	 1.3762713937	-0.3176949642	-0.2830798136	-0.26396
C	 0.9283032129	-0.558691984	 1.1190012607	 0.02036
C	 1.497412424	 0.2374976556	 2.276739152	-0.227286
C	 0.5478156177	 0.2927210688	 3.4809360325	-0.177651
C	 1.1772300055	 1.0378973162	 4.6745299421	-0.342211
C	 0.2907112645	 1.0974560806	 5.8345327446	 0.256863
N	-0.4232424533	 1.1354397998	 6.7423769698	-0.303058
H	 0.4035540025	 2.0868970321	 0.4527450824	 0.097165
H	-0.7263582457	 1.6736317425	-0.846910194	 0.129001
H	-1.2359486247	 1.505984948	 0.8384907727	 0.12571
H	 1.5051380345	-1.1403814808	-0.9819798096	 0.116031
H	 2.0562185818	 0.5202767055	-0.4416829719	 0.102614
H	 0.67386554	-1.5832902217	 1.3929089174	 0.090979
H	 2.4409622328	-0.2352503063	 2.5824301682	 0.106842
H	 1.7587329327	 1.2531437079	 1.9601517395	 0.102565
H	-0.3889416231	 0.7860162871	 3.2021256825	 0.128666
H	 0.282229307	-0.7235872982	 3.7927041509	 0.124576
H	 2.1114228741	 0.5493795866	 4.9764796424	 0.151858
H	 1.4402239133	 2.0628704563	 4.3869077508	 0.151485
49.6322	78.8402	93.0516	122.2584	179.8811	223.3712	271.7983	326.9619	348.2872	398.9759	431.7426	516.1355	565.6089	729.7098	752.8735	785.3443	860.6245	919.7171	946.6624	1009.3522	1037.0271	1047.1104	1062.7822	1093.5132	1117.7096	1133.6523	1145.5416	1169.2285	1204.8392	1214.9874	1260.512	1296.0389	1325.7655	1341.2516	1344.2721	1389.3031	1428.003	1452.0104	1467.9982	1478.4831	1490.0953	1500.4838	1506.8623	1516.8703	2362.8259	2974.0493	3017.4772	3035.4453	3049.205	3059.8032	3066.435	3069.9775	3079.5773	3093.5978	3099.3021	3101.7614	3167.8742
CN1CC1CCCC#N	CN1C[C@H]1CCCC#N	
InChI=1S/C7H12N2/c1-9-6-7(9)4-2-3-5-8/h7H,2-4,6H2,1H3	InChI=1S/C7H12N2/c1-9-6-7(9)4-2-3-5-8/h7H,2-4,6H2,1H3/t7-,9?/m1/s1
