16
gdb 48918	3.18038	1.51906	1.30274	2.95	69.99	-0.2463	-0.0365	0.2098	980.9941	0.125279	-437.818468	-437.81151	-437.810565	-437.850126	26.814	
O	 0.1051500871	-0.1149318963	 0.0065910671	-0.250733
C	 0.0993018165	 1.079757383	-0.1620773133	 0.020755
C	 1.3146361687	 1.9274060157	-0.1050344951	 0.218624
N	 2.7101077031	 1.385985751	-0.0839932354	-0.353243
C	 2.8890582764	 2.8767286534	 0.0245324584	-0.075106
C	 1.7873354464	 3.0826869691	-1.0611107454	-0.089707
C	 1.0236573279	 4.3410168499	-0.6857084862	-0.11735
O	 0.9751227458	 4.2245272303	 0.7541978452	-0.266842
C	 1.6719073811	 3.0336880903	 0.980887629	 0.075891
H	-0.8466205175	 1.6384852445	-0.3446167938	 0.079443
H	 2.8929973211	 0.9386158612	 0.8189325922	 0.220059
H	 3.870537022	 3.348618741	 0.0770704709	 0.091619
H	 2.0018898661	 2.8529099823	-2.1028121992	 0.103449
H	 1.5479951218	 5.2613630332	-0.9675485475	 0.11858
H	 0.0043729648	 4.3802088503	-1.0859786097	 0.118324
H	 1.7230895684	 2.7785193411	 2.0394332428	 0.106236
95.7587	152.5223	219.3295	314.0324	365.065	474.1117	533.4572	645.5796	718.2599	752.1646	763.6836	833.5037	901.3251	930.8276	949.3691	974.1145	995.7701	1001.0674	1026.8925	1052.9303	1095.8053	1108.508	1133.7038	1159.7121	1202.4017	1214.4893	1260.4538	1271.4102	1278.8768	1306.3018	1329.5753	1388.7627	1428.4411	1519.5505	1809.8292	2872.5887	3033.5967	3073.9999	3114.1131	3135.6153	3152.9055	3400.9371
O=CC12NC3C1COC23	O=C[C@@]12N[C@H]3[C@@H]1CO[C@@H]23	
InChI=1S/C6H7NO2/c8-2-6-3-1-9-5(6)4(3)7-6/h2-5,7H,1H2	InChI=1S/C6H7NO2/c8-2-6-3-1-9-5(6)4(3)7-6/h2-5,7H,1H2/t3-,4-,5+,6+/m0/s1
