21
gdb 58770	3.00521	1.32364	1.27198	2.3555	77.73	-0.2459	0.0784	0.3243	1120.0639	0.183179	-424.209819	-424.201428	-424.200483	-424.242523	33.512	
C	 0.1049649951	 1.5144650503	 0.1495771539	-0.405377
C	-0.0519546042	-0.0030251638	 0.0149180824	 0.020792
O	-1.4166513216	-0.3815645698	-0.1258891615	-0.440491
C	 0.7411177713	-0.5660054644	-1.1440261256	 0.462742
C	 2.2644111518	-0.4155882988	-1.3939434062	-0.286195
C	 1.9462880963	-1.5051549367	-2.4674438584	-0.079772
C	 0.9208404889	-2.0774918047	-1.4398522427	-0.273358
C	 0.9969790213	-0.7184231615	-3.378745768	-0.077027
O	 0.1696604171	-0.0716941068	-2.3849747032	-0.335652
H	 1.1404309419	 1.7869966549	 0.3801632772	 0.110358
H	-0.1800731902	 2.0112488352	-0.7822969227	 0.127
H	-0.537959305	 1.8796669949	 0.9543167605	 0.11997
H	 0.2957019719	-0.4877800457	 0.9351600054	 0.082842
H	-1.651825007	-0.1771198655	-1.0396777175	 0.288081
H	 2.6226706995	 0.5600186743	-1.7313181918	 0.100596
H	 2.8763246332	-0.7972229215	-0.5748041262	 0.103442
H	 2.7169647251	-2.1127098722	-2.9396710399	 0.074498
H	 1.3972667647	-2.6196550405	-0.6213987825	 0.101629
H	 0.0499780943	-2.6192323126	-1.8148692291	 0.102782
H	 1.500867209	 0.0361826166	-3.9939133295	 0.101397
H	 0.3824540166	-1.3557671618	-4.0251752845	 0.101745
81.8076	157.3587	194.8788	235.051	320.2343	339.9481	398.5406	431.5496	480.476	516.6096	520.2784	635.6498	689.8148	830.6788	853.2252	883.5507	893.6866	915.0596	940.1263	956.2301	977.5251	988.0529	1036.2605	1056.6754	1080.4858	1092.202	1102.4367	1120.9079	1147.1234	1161.9406	1189.4083	1220.6369	1250.624	1283.2405	1294.4998	1322.468	1353.7596	1383.8754	1397.9108	1440.0232	1473.5064	1488.8635	1499.4001	1507.1193	1530.9306	3024.0054	3039.0023	3040.7386	3064.1303	3067.0753	3074.3387	3110.7952	3127.3265	3128.788	3133.2091	3140.5708	3781.7676
CC(O)C12CC(C1)CO2	C[C@@H](O)[C@@]12C[C@@H](C1)CO2	
InChI=1S/C7H12O2/c1-5(8)7-2-6(3-7)4-9-7/h5-6,8H,2-4H2,1H3	InChI=1S/C7H12O2/c1-5(8)7-2-6(3-7)4-9-7/h5-6,8H,2-4H2,1H3/t5-,6-,7+/m1/s1
