20
gdb 113358	2.20767	1.13185	0.85401	2.401	77.34	-0.2588	-0.037	0.2218	1416.9698	0.169284	-440.272079	-440.261963	-440.261019	-440.308008	35.922	
C	-0.285338511	 1.4486922051	 0.3994420767	-0.380563
C	 0.2758724148	 0.0983479398	-0.0650663369	-0.197515
C	 0.9037953777	-0.6580552999	 1.0838557169	-0.024798
N	 0.0371926422	-1.4578316676	 1.9416760968	-0.370757
C	 1.0635854657	-2.158463927	 1.1386958761	 0.169869
C	 0.5394887957	-3.1199002331	 0.0971335988	-0.142175
O	-0.0585486744	-4.2444962979	 0.7196042847	-0.420235
C	 2.2542673939	-2.6293440461	 1.9127590309	 0.108588
O	 2.5374019195	-2.2122044393	 3.0116377835	-0.27399
H	 0.5011525149	 2.0810153652	 0.8254718484	 0.118175
H	-0.7361387898	 1.9929433175	-0.4353894374	 0.117496
H	-1.0528184924	 1.3037375122	 1.1657557363	 0.133142
H	-0.5283876591	-0.4972313063	-0.5056507666	 0.11092
H	 1.0300079913	 0.2546495244	-0.8464561074	 0.103951
H	 1.7040057483	-0.1189419231	 1.5918313701	 0.103844
H	 0.3859824449	-1.4185042488	 2.900574825	 0.248221
H	-0.1582931727	-2.6155767007	-0.5821731301	 0.099224
H	 1.3669895831	-3.5084007903	-0.5080410212	 0.111349
H	-0.7385655	-3.8935866196	 1.3075385509	 0.293909
H	 2.8771837773	-3.3973155344	 1.4084677947	 0.091344
47.4761	69.7062	119.807	143.9562	176.6716	224.4335	256.2824	286.2181	310.0354	365.4487	447.5669	478.4942	591.4983	658.564	749.2334	788.2497	827.2092	899.7179	924.691	973.3036	1024.7724	1030.7382	1056.3352	1090.6242	1098.0404	1125.1808	1148.6799	1200.0323	1260.7568	1298.7535	1309.4109	1337.0176	1349.0898	1378.7136	1406.9806	1423.2071	1433.4096	1463.042	1476.6577	1497.8389	1501.3157	1508.1082	1800.5315	2918.2418	3026.1699	3035.506	3036.6754	3069.2754	3085.2854	3104.9824	3114.1843	3117.3197	3454.3625	3787.4022
CCC1NC1(CO)C=O	CC[C@H]1N[C@]1(CO)C=O	
InChI=1S/C6H11NO2/c1-2-5-6(3-8,4-9)7-5/h3,5,7,9H,2,4H2,1H3	InChI=1S/C6H11NO2/c1-2-5-6(3-8,4-9)7-5/h3,5,7,9H,2,4H2,1H3/t5-,6+/m1/s1
