20
gdb 106182	2.68664	1.55558	1.3885	1.5272	77.37	-0.2377	0.0725	0.3102	1037.8591	0.173326	-403.112311	-403.104547	-403.103603	-403.14477	30.759	
O	 0.0319345334	 1.3554579583	-0.3195094181	-0.417078
C	 0.0054958557	 0.0134303305	 0.153014052	-0.201984
C	-1.3863602005	-0.5335502892	 0.1864139854	 0.326337
C	-1.9746648751	-1.8911445984	-0.0325160531	-0.106573
C	-2.9698428431	-1.6891164591	 1.1183918933	-0.25247
C	-2.574855633	-0.1760607694	 1.1304453134	-0.086117
C	-3.5209995682	 0.6279864212	 0.2368300511	-0.220736
C	-3.3766631559	-0.1154927782	-1.1160119131	-0.164629
N	-2.0835809159	-0.8409355288	-1.0633357633	-0.149572
H	-0.3162897217	 1.332389644	-1.2178842315	 0.287978
H	 0.6375056424	-0.6434628725	-0.4629633082	 0.096636
H	 0.4339901833	 0.0414476924	 1.1605017669	 0.108594
H	-1.5029526529	-2.823683746	-0.3256566445	 0.089719
H	-4.0231067509	-1.9335070509	 0.9405886725	 0.092783
H	-2.6326272597	-2.2099681305	 2.0179277871	 0.106027
H	-2.3556053238	 0.2642482818	 2.1026077397	 0.073844
H	-4.5520107554	 0.63639608	 0.6044079519	 0.097194
H	-3.1783637413	 1.6648348837	 0.1539373856	 0.108397
H	-4.1902124793	-0.8267026919	-1.2894403038	 0.108329
H	-3.3568456381	 0.5692073529	-1.9685736734	 0.103322
66.0239	119.8072	232.0105	285.7951	340.2418	380.2661	422.9971	483.0358	612.7418	664.3147	723.626	763.9191	823.1961	841.5603	870.151	885.6494	931.4027	940.1105	957.6331	1006.0744	1022.7232	1033.4039	1044.796	1082.3974	1114.0586	1121.98	1147.0148	1175.7677	1224.302	1232.0484	1241.5351	1256.3487	1276.9344	1294.6385	1337.4478	1342.756	1370.4724	1412.5034	1446.6179	1484.8889	1489.4837	1491.5607	1516.0103	2995.4843	3039.196	3042.1028	3053.9299	3073.9327	3081.4085	3098.651	3101.9268	3121.7999	3160.0558	3802.5986
OCC12C3CC1CCN23	OC[C@@]12[C@H]3C[C@@H]1CCN23	
InChI=1S/C7H11NO/c9-4-7-5-1-2-8(7)6(7)3-5/h5-6,9H,1-4H2	InChI=1S/C7H11NO/c9-4-7-5-1-2-8(7)6(7)3-5/h5-6,9H,1-4H2/t5-,6+,7-,8?/m0/s1
