21
gdb 100305	2.34152	1.19427	1.05553	2.2597	73.62	-0.2568	0.0468	0.3036	1256.6274	0.180781	-461.326369	-461.316267	-461.315323	-461.361192	37.517	
C	-0.2204325831	 1.548373291	-0.0334152341	-0.461902
C	-0.1338205074	 0.0172977617	-0.0814951526	 0.192031
C	 0.7826327494	-0.5093830385	 1.0514239473	-0.112093
O	 0.1433760757	-0.5528210506	 2.3257556223	-0.433131
C	-1.5528762794	-0.5839228236	 0.0857675387	-0.082896
O	-1.546228264	-1.9697803202	 0.3719070612	-0.43333
C	 0.4535726939	-0.4916163642	-1.3905843962	 0.074307
C	 0.5332317911	 0.2789874586	-2.6375697308	-0.193755
O	 1.6956444571	 0.0733421557	-1.8299030634	-0.251401
H	 0.7248119555	 1.9980934344	-0.3496308556	 0.14021
H	-1.0194349363	 1.9306208478	-0.6772666447	 0.119854
H	-0.4403335478	 1.8953554647	 0.9828502741	 0.096031
H	 1.0636798763	-1.5448393313	 0.8424839835	 0.119846
H	 1.7068763384	 0.0818173503	 1.0863114461	 0.113048
H	-0.0066475374	 0.3487789747	 2.6261854786	 0.289175
H	-2.0884520832	-0.0233953434	 0.8644308092	 0.08356
H	-2.1123858453	-0.457878053	-0.8482321877	 0.106536
H	-1.2557144309	-2.0466948071	 1.2888399905	 0.296656
H	 0.4090962652	-1.5777468268	-1.4822272267	 0.108176
H	 0.5301323972	-0.2482982842	-3.5905706931	 0.116527
H	 0.1707889149	 1.3038843538	-2.6783846967	 0.112552
83.5054	101.5006	117.3929	174.342	245.0386	261.2592	284.7624	296.0888	310.2816	353.794	381.2995	454.033	487.959	560.3948	629.9011	739.7618	828.8212	863.518	907.6528	937.9162	950.3525	987.5561	1011.7797	1058.122	1084.0145	1108.2332	1139.0075	1154.2692	1164.7641	1193.4107	1228.204	1250.7771	1271.9209	1310.9572	1368.2739	1402.5551	1412.0726	1422.7568	1424.1944	1440.3738	1493.5915	1496.9587	1502.3543	1513.6974	1534.2898	3002.2484	3024.3628	3029.9914	3065.0013	3086.5178	3091.2623	3096.7041	3107.0856	3117.297	3177.2287	3787.9472	3824.3836
CC(CO)(CO)C1CO1	CC(CO)(CO)[C@H]1CO1	
InChI=1S/C6H12O3/c1-6(3-7,4-8)5-2-9-5/h5,7-8H,2-4H2,1H3	InChI=1S/C6H12O3/c1-6(3-7,4-8)5-2-9-5/h5,7-8H,2-4H2,1H3/t5-/m1/s1
