20
gdb 94635	3.60696	0.75828	0.6769	3.4176	79.68	-0.2547	0.0315	0.2863	1650.6287	0.170333	-403.150573	-403.140957	-403.140013	-403.186381	34.05	
C	-0.3492421221	 1.5081545174	-0.1102658014	-0.405699
C	 0.1476368325	 0.0772790761	-0.0759694413	 0.137629
O	 1.443455555	-0.0772638598	-0.704263014	-0.286252
C	 1.9439798899	-0.8471871238	 0.4028369388	-0.080792
C	 0.677014484	-0.5624180097	 1.24210565	-0.062641
C	 0.8633838852	 0.3483797724	 2.4514980254	-0.204116
C	 1.5397151614	-0.3997841624	 3.6198282867	-0.34646
C	 1.7386665628	 0.4505577108	 4.7911342062	 0.258466
N	 1.8864780709	 1.137886697	 5.7081910687	-0.301768
H	 0.3506445023	 2.1931540905	 0.3747179667	 0.124513
H	-0.4670463098	 1.827081634	-1.1505458597	 0.132699
H	-1.324738022	 1.5923502291	 0.380729779	 0.119126
H	-0.5884445984	-0.5759896276	-0.5675585653	 0.07499
H	 2.0991516872	-1.9011024649	 0.1368358302	 0.101196
H	 2.886907853	-0.4392027088	 0.7906609927	 0.100141
H	 0.1242906239	-1.4589585605	 1.5389723872	 0.077057
H	 1.4742564829	 1.2175378013	 2.1865924548	 0.129562
H	-0.1045071901	 0.7335499491	 2.7902377677	 0.124011
H	 0.9344778494	-1.2644721599	 3.9169099324	 0.152724
H	 2.5149447519	-0.7921550805	 3.3081581352	 0.155613
44.5637	75.629	97.2832	107.9005	211.9245	233.821	259.2158	366.5851	392.2619	414.4175	478.241	563.0835	737.07	775.6731	845.3412	874.6938	893.7515	939.8771	967.8543	995.6877	1033.2713	1039.5506	1088.6486	1105.3876	1150.6449	1160.0991	1173.3116	1224.6726	1238.8009	1286.812	1298.168	1320.5857	1355.8474	1368.8891	1388.6949	1400.1347	1412.2444	1467.5152	1481.3561	1493.58	1502.3448	1524.9515	2363.298	2985.8505	3002.0848	3036.0782	3038.4442	3040.129	3048.855	3059.7189	3071.2334	3097.1454	3108.4606	3125.7248
CC1OCC1CCC#N	C[C@H]1OC[C@H]1CCC#N	
InChI=1S/C7H11NO/c1-6-7(5-9-6)3-2-4-8/h6-7H,2-3,5H2,1H3	InChI=1S/C7H11NO/c1-6-7(5-9-6)3-2-4-8/h6-7H,2-3,5H2,1H3/t6-,7-/m1/s1
