16
gdb 131775	3.47061	1.34125	1.03475	2.752	70.15	-0.2601	0.0089	0.269	1112.2397	0.126969	-434.04184	-434.034242	-434.033298	-434.074909	27.521	
O	 0.0026375422	 1.4184092085	 0.2107912862	-0.413454
C	 0.0158243523	 0.0633466775	-0.181915731	-0.069766
C	-1.3807962696	-0.5517675338	-0.0806415679	-0.172389
C	-1.4703481412	-2.1401807212	-0.1329955935	-0.201003
N	-1.9819920975	-2.0407406135	 1.2509377564	 0.074439
N	-2.2577472635	-2.6162095387	 2.4445996802	-0.280777
C	-2.3455383963	-1.5152093402	 3.1998549686	 0.025674
N	-2.1109710418	-0.3048602732	 2.581735012	-0.389301
C	-1.8890894166	-0.7212464451	 1.3483391612	 0.368221
H	-0.2569929669	 1.4555566603	 1.1394770263	 0.303047
H	 0.3620517012	 0.0448943976	-1.2204886723	 0.119024
H	 0.7240545229	-0.5317049152	 0.4167908778	 0.097671
H	-2.0710197727	-0.0435271113	-0.7578782394	 0.11892
H	-2.1832058389	-2.5653879552	-0.8418057423	 0.143793
H	-0.5065910285	-2.6501644757	-0.2038515584	 0.145179
H	-2.5972574151	-1.5846555009	 4.2478817261	 0.130723
54.7912	100.6014	142.2468	220.1083	378.0799	405.3868	425.2537	518.5685	665.6098	693.5405	753.1376	796.0733	861.912	887.2171	954.8448	977.1767	1007.2185	1081.583	1107.8665	1129.4832	1152.4325	1157.7323	1189.4302	1229.9084	1245.9953	1257.583	1301.4316	1330.7848	1391.9031	1408.5964	1423.4822	1484.8511	1504.8376	1517.2815	1572.7078	2978.0014	3072.7268	3074.2125	3095.5922	3135.3854	3260.413	3786.7993
OCC1CN2N=CN=C12	OC[C@H]1Cn2ncnc12	
InChI=1S/C5H7N3O/c9-2-4-1-8-5(4)6-3-7-8/h3-4,9H,1-2H2	InChI=1S/C5H7N3O/c9-2-4-1-8-5(4)6-3-7-8/h3-4,9H,1-2H2/t4-/m1/s1
