16
gdb 8869	3.33059	1.27226	1.08857	1.0082	61.84	-0.2511	-0.0988	0.1523	1099.5774	0.127143	-420.889506	-420.880229	-420.879285	-420.924227	31.542	
C	 0.1457155096	 1.3427911676	-0.3689556479	-0.403189
C	-0.1058530911	-0.1026121966	 0.1150645624	-0.118965
C	 0.666725529	-0.4104130238	 1.4074482513	-0.068333
O	 2.0656402915	-0.2445207022	 1.2495671168	-0.415119
C	-1.5888741106	-0.320895642	 0.3069362968	 0.285539
O	-2.1600233119	-0.3047625007	 1.3745445147	-0.28699
C	-2.4413240194	-0.5796125559	-0.9468544912	 0.095792
O	-1.9853389654	-0.7079359978	-2.0523971812	-0.219996
H	 1.2234345862	 1.5064673865	-0.4333299327	 0.144297
H	-0.3002678742	 1.518945671	-1.3504429635	 0.134735
H	-0.2675670462	 2.0663118718	 0.3414335095	 0.129122
H	 0.2204058136	-0.7812917087	-0.6847105802	 0.098981
H	 0.36282514	 0.2880531187	 2.1917844654	 0.129968
H	 0.4167624123	-1.4204604295	 1.7626869874	 0.098483
H	 2.3862620701	-0.9423323047	 0.6691053771	 0.284869
H	-3.5252106033	-0.6557459035	-0.7164716846	 0.110805
41.4395	103.5715	124.9409	152.6223	220.0292	234.1657	240.3063	311.2133	339.0396	447.3058	515.5276	598.4604	636.3494	790.2495	878.5744	919.6646	988.5371	1059.7181	1061.7441	1106.3655	1115.2149	1148.6631	1247.5782	1322.8921	1343.0772	1362.2046	1393.9674	1402.1701	1414.8849	1493.2397	1502.8974	1504.0322	1793.7441	1822.8454	2922.989	3003.3984	3025.0951	3046.0138	3099.126	3121.0512	3139.8497	3814.3906
CC(CO)C(=O)C=O	C[C@@H](CO)C(=O)C=O	
InChI=1S/C5H8O3/c1-4(2-6)5(8)3-7/h3-4,6H,2H2,1H3	InChI=1S/C5H8O3/c1-4(2-6)5(8)3-7/h3-4,6H,2H2,1H3/t4-/m0/s1
