19
gdb 97599	4.89582	0.57015	0.53758	4.1237	86.68	-0.2522	0.0191	0.2713	2057.8955	0.158097	-382.057816	-382.047179	-382.046235	-382.095202	36.834	
C	-0.4527481651	 1.4401242743	 0.0738230219	-0.365424
C	 0.3802296988	 0.1630875135	-0.141682654	-0.317268
C	 0.9854300989	-0.337304085	 1.0885097305	 0.123586
C	 1.4526587478	-0.731302832	 2.1263282541	 0.059872
C	 2.0709870778	-1.2235142668	 3.3565039455	-0.170352
N	 1.6058087775	-2.5742019203	 3.6634803449	-0.500938
C	 3.6273048634	-1.0751511541	 3.2273094786	-0.336803
C	 4.3087376714	-1.5469746886	 4.4283044262	 0.250098
N	 4.8046608655	-1.9390477599	 5.3962536196	-0.307928
H	 0.168166621	 2.246648216	 0.472853372	 0.128569
H	-0.8863614322	 1.7746835495	-0.8730286092	 0.118045
H	-1.2658153715	 1.2579421578	 0.7813565264	 0.133428
H	-0.2542499554	-0.6210260087	-0.5738086762	 0.135432
H	 1.1666961228	 0.3568571036	-0.8822049408	 0.130297
H	 1.7604232719	-0.5833718156	 4.192560527	 0.129718
H	 1.8420733659	-3.2069693021	 2.9047873127	 0.232015
H	 2.0660692254	-2.9159249091	 4.5029990859	 0.246507
H	 3.973938738	-1.6539651529	 2.3645524117	 0.15283
H	 3.8910388481	-0.0282013896	 3.0449188631	 0.158315
25.7376	59.3929	78.1464	120.5589	159.4472	204.2548	218.0238	312.8117	334.4979	366.9263	401.181	476.2154	504.6205	540.7588	556.972	755.8093	786.6	840.5126	867.4778	948.7078	959.5226	1003.4604	1068.0169	1090.6232	1105.4966	1157.0177	1196.5036	1246.1247	1283.7337	1287.2772	1346.4075	1350.8876	1410.2152	1417.878	1459.2775	1474.7254	1495.2162	1505.5371	1652.5537	2356.47	2368.5325	3023.1513	3023.4933	3046.7013	3051.4699	3052.5707	3097.4956	3120.6786	3126.6888	3485.9398	3574.4294
CCC#CC(N)CC#N	CCC#C[C@@H](N)CC#N	
InChI=1S/C7H10N2/c1-2-3-4-7(9)5-6-8/h7H,2,5,9H2,1H3	InChI=1S/C7H10N2/c1-2-3-4-7(9)5-6-8/h7H,2,5,9H2,1H3/t7-/m1/s1
