17
gdb 112378	3.41121	1.19212	0.91377	2.9876	71.12	-0.2419	-0.0153	0.2266	1247.3026	0.136586	-455.186142	-455.17767	-455.176726	-455.219781	30.971	
C	-0.124182664	 1.5470147828	 0.0038786607	-0.331402
N	 0.0008271642	 0.0970889148	-0.1505564684	-0.293969
C	-1.2387417544	-0.6352353399	 0.0336061763	-0.112925
C	-1.1535270009	-2.0999432504	-0.4058625608	-0.337783
C	-1.9855719358	-2.8321377145	 0.6171855012	 0.411281
N	-2.4735723565	-3.9837144611	 0.5127846502	-0.51395
O	-2.1278119291	-2.0258955525	 1.7403565848	-0.213218
C	-1.6266095608	-0.7569805335	 1.5138304462	 0.454715
O	-1.5716755112	 0.0551833072	 2.3831994771	-0.310278
H	 0.843437279	 2.0098936243	-0.2064904515	 0.122843
H	-0.8787277951	 1.9978939068	-0.6647207524	 0.096162
H	-0.4011475393	 1.7779937476	 1.0335674175	 0.164199
H	 0.3573563073	-0.112349417	-1.0767470951	 0.227601
H	-2.1069208508	-0.1489850619	-0.4560233667	 0.099194
H	-1.5067050136	-2.3015211719	-1.4169944031	 0.146247
H	-0.1140256071	-2.4394274878	-0.3257939659	 0.152797
H	-2.983322052	-4.2468117931	 1.3576905699	 0.238484
59.7736	128.3371	134.8215	202.0214	238.6961	315.8495	357.3116	416.7345	514.7462	550.8738	618.3801	634.2232	727.0323	764.6816	816.7485	897.882	915.659	967.5102	1022.9322	1047.8079	1068.2901	1119.4688	1145.5029	1164.1898	1180.8087	1227.6002	1279.8142	1308.7481	1328.9062	1370.0669	1457.4913	1470.4359	1484.6203	1501.2008	1525.2744	1796.3343	1913.4145	2895.6714	2952.3688	3052.0172	3090.1444	3137.6788	3145.1595	3482.0905	3524.7957
CNC1CC(=N)OC1=O	CN[C@H]1C[C]([NH])OC1=O	
InChI=1S/C5H8N2O2/c1-7-3-2-4(6)9-5(3)8/h3,6-7H,2H2,1H3	InChI=1S/C5H8N2O2/c1-7-3-2-4(6)9-5(3)8/h3,6-7H,2H2,1H3/t3-/m0/s1
