21
gdb 119572	3.07592	1.02936	0.8918	1.8123	78.79	-0.2457	0.077	0.3226	1405.6848	0.181217	-424.197338	-424.187929	-424.186985	-424.231991	35.192	
C	 0.0967734613	 1.5341266908	 0.1465182659	-0.384129
C	 0.1100482834	 0.0085790029	 0.0334565377	-0.166334
C	 0.6074572707	-0.481099229	-1.3376601637	-0.33023
C	 0.5552272435	-1.9699427897	-1.4653263139	 0.406789
O	 1.5201339554	-2.7562901447	-0.7300607464	-0.31154
C	 1.3906613118	-2.9742292279	-2.1489899854	-0.052044
C	 0.221836417	-3.9408251737	-2.3356815769	-0.290291
C	-0.6780583887	-2.9000462638	-1.5612876698	 0.086319
O	-1.2531564952	-3.285997015	-0.3433066527	-0.434677
H	 1.0979995168	 1.9522947379	-0.0072447229	 0.114327
H	-0.5663291426	 1.9823203103	-0.6020691373	 0.1131
H	-0.2501874763	 1.8562429006	 1.1330257896	 0.114465
H	 0.7548274029	-0.4181766021	 0.8107276343	 0.111038
H	-0.8942310399	-0.3916417471	 0.2157656099	 0.115849
H	-0.0072068788	-0.0387096666	-2.1331866904	 0.100756
H	 1.6372129469	-0.1424904556	-1.5050369594	 0.106578
H	 2.2865710239	-2.8452707776	-2.7455160954	 0.105237
H	-0.084787767	-4.0721054558	-3.3764452394	 0.107293
H	 0.337058483	-4.9166159834	-1.8573542664	 0.10833
H	-1.480302451	-2.4975843766	-2.1850511083	 0.091522
H	-0.5120151571	-3.517303974	 0.2321446111	 0.28764
69.396	85.8835	102.1158	170.4243	241.831	272.7859	304.0915	326.1118	402.6626	473.3832	507.8373	604.1591	713.7623	732.2422	746.5443	812.6549	866.1285	883.1253	898.9575	928.6092	947.0451	992.4759	1042.2879	1045.2922	1076.0241	1115.474	1120.9227	1146.8126	1191.8082	1198.9524	1246.8836	1254.038	1289.2957	1307.3349	1313.3951	1334.9327	1386.8461	1414.5248	1429.8355	1454.9968	1469.4867	1484.9428	1493.8922	1499.9669	1510.2538	3015.5053	3028.6348	3037.186	3052.4675	3063.4128	3073.0038	3085.9588	3098.1318	3104.0102	3123.3484	3186.3663	3766.4659
CCCC12OC1CC2O	CCC[C@]12O[C@H]1C[C@H]2O	
InChI=1S/C7H12O2/c1-2-3-7-5(8)4-6(7)9-7/h5-6,8H,2-4H2,1H3	InChI=1S/C7H12O2/c1-2-3-7-5(8)4-6(7)9-7/h5-6,8H,2-4H2,1H3/t5-,6+,7-/m1/s1
