23
gdb 94434	2.17647	1.36884	1.32448	1.2586	85.5	-0.2517	0.0742	0.3259	1181.2629	0.205429	-388.272866	-388.263453	-388.262509	-388.306796	36.447	
C	-0.6711851528	 1.1299713832	-0.026916237	-0.424408
C	 0.1949862191	-0.1160005615	-0.1250333345	 0.008949
C	 1.6174770827	-0.0027028584	-0.7381715727	-0.236118
C	 2.1066141049	-1.0511086446	 0.2939618747	-0.30576
C	 0.8435997863	-0.7718939056	 1.1405297416	 0.334512
C	 0.9218385242	 0.0526277085	 2.457218033	-0.291496
C	-0.2474241773	-0.7983057164	 3.0231526112	-0.264456
C	 0.0583591294	-1.8466792504	 1.920483853	 0.069914
O	-1.0046226278	-2.4252642277	 1.1974739643	-0.433651
H	-0.1523270896	 1.9510064861	 0.4796809751	 0.109664
H	-0.9412201312	 1.4856608873	-1.0279141757	 0.112011
H	-1.6035668378	 0.9323226726	 0.5131568076	 0.117837
H	-0.362638565	-0.902388087	-0.6437167928	 0.092259
H	 1.7312137013	-0.2372524011	-1.7996776814	 0.091007
H	 2.0568766191	 0.9831342396	-0.5526284711	 0.093782
H	 2.0975395025	-2.0666161477	-0.115543958	 0.101284
H	 3.0731858115	-0.8785946545	 0.7763591548	 0.088616
H	 1.8613531687	-0.1315817928	 2.9875155098	 0.096216
H	 0.7688376826	 1.1318142494	 2.3956870496	 0.101119
H	-0.1964107631	-1.1171375684	 4.0675576882	 0.087992
H	-1.2170073298	-0.3279237892	 2.8376533133	 0.108144
H	 0.7450790607	-2.6209548132	 2.2980609457	 0.059627
H	-1.4271385585	-3.0872596079	 1.7533208612	 0.282954
74.7046	109.413	162.0514	216.3384	230.6846	257.5748	269.6111	352.1123	391.9128	465.0806	484.9973	554.4125	648.7003	691.0785	767.6943	796.3061	869.6799	880.8594	893.566	932.5989	943.0924	952.9441	966.394	1048.2414	1093.5478	1103.3108	1115.5793	1149.497	1162.977	1183.5067	1194.0884	1210.4113	1218.8529	1242.1434	1259.4076	1261.045	1277.7234	1283.7559	1303.6487	1332.3629	1381.8653	1405.8941	1422.5265	1474.954	1478.2788	1490.9887	1497.6008	1497.9708	1504.2984	2969.8362	3024.2029	3040.7457	3045.6719	3052.5088	3056.6942	3058.1015	3086.8515	3088.409	3094.5389	3104.2695	3105.8952	3118.1588	3820.7798
CC1CCC11CCC1O	C[C@H]1CC[C@]21CC[C@H]2O	
InChI=1S/C8H14O/c1-6-2-4-8(6)5-3-7(8)9/h6-7,9H,2-5H2,1H3	InChI=1S/C8H14O/c1-6-2-4-8(6)5-3-7(8)9/h6-7,9H,2-5H2,1H3/t6-,7+,8+/m0/s1
