20
gdb 17131	5.57735	1.16225	1.10947	1.6218	74.88	-0.2626	0.0883	0.351	1147.7315	0.177032	-348.975146	-348.966994	-348.96605	-349.007996	30.564	
C	-0.2966488025	 1.41834932	-0.0724630728	-0.390772
C	 0.0431506998	-0.0491915833	 0.1707509096	 0.028537
C	 1.1127169518	-0.6294257014	-0.801612536	-0.245114
C	 2.1860121779	-0.4625990203	 0.3166934358	 0.008997
C	 1.0356081491	-0.2916721791	 1.3469283612	-0.251933
C	 3.1691272636	-1.5856275307	 0.504085635	 0.066949
C	 3.5765752431	-2.0831142126	 1.8237111201	-0.182586
O	 2.656530829	-2.8214735241	 1.0152006514	-0.234058
H	 0.6084662633	 2.0336978882	-0.1385399912	 0.11069
H	-0.8519585881	 1.5458801368	-1.0083107431	 0.112607
H	-0.911117381	 1.8214378046	 0.7402171849	 0.112493
H	-0.8805456651	-0.6321005932	 0.2296775309	 0.06852
H	 0.9364747234	-1.6843593277	-1.0284555065	 0.111016
H	 1.2764240038	-0.0885693441	-1.7379882678	 0.091257
H	 2.748421599	 0.468097666	 0.182761566	 0.073412
H	 1.1365044759	 0.5106387442	 2.0832950697	 0.088726
H	 0.8331811788	-1.2326558433	 1.8645949958	 0.115982
H	 3.8752335973	-1.7193534561	-0.3189035882	 0.087783
H	 4.555795174	-2.5414055048	 1.955268018	 0.113604
H	 3.1497262469	-1.634652559	 2.7196827372	 0.11389
72.9162	91.2986	170.0107	217.7512	251.2609	331.2497	374.4435	443.1357	567.2773	633.7478	786.3701	814.4212	819.4692	881.9392	903.0627	907.7931	945.8046	947.5545	989.6209	1030.01	1070.9254	1088.6575	1119.2278	1144.6328	1152.0324	1162.8942	1173.7367	1231.4079	1243.3421	1262.8207	1279.0765	1280.2409	1297.2343	1358.8774	1380.07	1409.7729	1429.7869	1468.2891	1490.3958	1496.7231	1499.2122	1527.3438	3021.346	3042.3716	3049.1394	3051.0967	3059.3682	3080.4105	3085.8679	3089.1182	3091.804	3108.489	3113.7045	3169.6894
CC1CC(C1)C1CO1	C[C@H]1C[C@@H](C1)[C@H]1CO1	
InChI=1S/C7H12O/c1-5-2-6(3-5)7-4-8-7/h5-7H,2-4H2,1H3	InChI=1S/C7H12O/c1-5-2-6(3-5)7-4-8-7/h5-7H,2-4H2,1H3/t5-,6-,7-/m1/s1
