15
gdb 75877	2.37773	1.8801	1.05282	5.7398	73.54	-0.1955	-0.0133	0.1822	1055.9724	0.115173	-454.010701	-454.002974	-454.002029	-454.042563	30.049	
O	 0.4960883834	 0.3268737766	 0.8693203817	-0.459431
C	-0.1657214922	-0.0695677281	-0.2421781281	 0.198022
C	-1.4896363661	-0.3850701913	-0.2188957726	 0.264225
N	-2.3283202646	-0.271582622	 0.8993889449	-0.592425
H	-1.808855993	 0.1149065932	 1.6790427348	 0.272301
H	-2.7292570992	-1.1600784861	 1.1847766587	 0.250685
N	-2.0880133134	-0.7959337948	-1.3914079855	-0.367283
C	-1.393895027	-0.8990699273	-2.5605172267	 0.017808
C	-0.0691950018	-0.5994165483	-2.6274128759	-0.266959
C	 0.6373853936	-0.1439957102	-1.4526940578	 0.32429
O	 1.8400697151	 0.1574296215	-1.3739080202	-0.453605
H	 1.4036226208	 0.4717141704	 0.5230708043	 0.300447
H	-3.0901871411	-0.8977036505	-1.3882244207	 0.265419
H	-1.9702045591	-1.2328075887	-3.4142317307	 0.133262
H	 0.4691528445	-0.6971733044	-3.5611958162	 0.113245
144.1174	211.8353	220.3416	283.5423	307.2242	330.9561	463.7354	500.303	518.9781	568.2755	576.157	590.0005	675.6344	710.1623	743.0033	825.2525	830.6972	871.2184	928.6116	1029.6768	1085.2617	1165.6605	1236.4639	1267.1614	1324.6384	1331.5763	1425.7463	1454.2634	1564.8555	1618.1086	1648.3687	1680.689	1730.3134	3207.6481	3225.3805	3501.794	3508.1235	3602.4019	3647.0138
O[C-]1C(=[NH2+])NC=CC1=O	Oc1c(N)[nH]ccc1=O	
InChI=1S/C5H5N2O2/c6-5-4(9)3(8)1-2-7-5/h1-2,9H,(H2,6,7)/q-1/p+1	InChI=1S/C5H6N2O2/c6-5-4(9)3(8)1-2-7-5/h1-2,9H,(H3,6,7,8)
