25
gdb 116892	3.9437	0.50865	0.46473	0.208	100.4	-0.2379	0.062	0.2999	2508.1059	0.226417	-352.350214	-352.338199	-352.337255	-352.389748	42.1	
C	-0.0305376682	 1.5785687314	 0.0461825002	-0.381248
C	 0.0046884122	 0.0493359004	 0.0196319257	-0.150819
C	 0.7036113897	-0.5011232705	-1.2403423685	-0.335722
C	 0.7469979976	-1.9591096106	-1.2874512499	 0.03529
C	 0.7594821195	-3.1643727006	-1.3029004351	 0.104058
C	 0.8083066869	-4.6275235066	-1.3243274273	-0.142923
C	 1.468836389	-5.1291261284	-2.6249358382	-0.381328
C	 1.5098782988	-5.1632811194	-0.0514167576	-0.154661
C	 1.4380604833	-6.6839430438	 0.1130073458	-0.393586
H	 0.9808929984	 2.0000209918	 0.0296888579	 0.114698
H	-0.5689955673	 1.9787939101	-0.8202852817	 0.114768
H	-0.5297485238	 1.9477049678	 0.947168793	 0.113203
H	 0.5233973704	-0.3318788035	 0.906414823	 0.106593
H	-1.0138227779	-0.3525867923	 0.0626791901	 0.106924
H	 0.1899550305	-0.1182223875	-2.133087458	 0.12145
H	 1.7251158479	-0.0992430385	-1.2895292638	 0.121107
H	-0.2264937002	-5.0016833862	-1.3097481886	 0.095684
H	 1.4314277911	-6.220038925	-2.691031158	 0.112987
H	 0.9582434701	-4.7179651657	-3.4996092104	 0.122019
H	 2.5168806446	-4.8156817924	-2.668624037	 0.120446
H	 2.5563688147	-4.8344781555	-0.0654129125	 0.101485
H	 1.0497023606	-4.6810644057	 0.8178770842	 0.10376
H	 0.3995133473	-7.0345227859	 0.109344158	 0.113483
H	 1.9697812222	-7.211088376	-0.6847842185	 0.119216
H	 1.8869463627	-6.9906780074	 1.0627959473	 0.113117
14.7486	55.6206	64.4905	95.0472	134.6165	170.002	215.8553	239.3442	265.8785	268.1046	296.8768	344.362	388.9891	460.4818	515.8301	552.4931	741.5092	742.8894	787.8258	844.5795	872.2475	892.1505	960.3589	976.6045	1027.97	1041.824	1076.5947	1108.5544	1122.2525	1132.0693	1153.174	1199.7056	1259.5459	1283.5919	1305.9848	1314.4956	1321.6625	1344.452	1375.4321	1381.1423	1405.1111	1410.9395	1413.1724	1474.8863	1483.4502	1491.8798	1492.1309	1498.0593	1498.6172	1505.1424	1508.8451	1509.2472	2361.155	2988.0191	3005.1232	3028.7509	3030.7303	3030.9457	3033.4344	3040.3538	3041.8644	3068.2083	3071.7746	3098.6868	3099.1153	3104.4548	3106.7624	3114.2471	3121.076
CCCC#CC(C)CC	CCCC#C[C@@H](C)CC	
InChI=1S/C9H16/c1-4-6-7-8-9(3)5-2/h9H,4-6H2,1-3H3	InChI=1S/C9H16/c1-4-6-7-8-9(3)5-2/h9H,4-6H2,1-3H3/t9-/m0/s1
