14
gdb 49400	3.45102	1.3874	1.1345	5.2319	68.28	-0.2371	-0.0162	0.2209	1030.4051	0.100462	-436.647047	-436.639986	-436.639041	-436.67956	26.331	
O	-0.0331682784	 0.0017624112	-0.1124689782	-0.326977
C	 0.0406528741	 1.1964170973	 0.0760985592	 0.134131
N	 1.1959872372	 1.8778271133	 0.2863199849	-0.043308
C	 1.5542744555	 3.2654307113	 0.0068856488	-0.01733
C	 2.7614565119	 2.8893946673	-0.7800149919	-0.103529
C	 2.9332046804	 3.4867258656	 0.6446391618	-0.235357
C	 3.3891768451	 2.124537214	 1.0926850747	 0.492466
O	 4.2199874483	 1.725937948	 1.8512361822	-0.321209
C	 2.5759213602	 1.4798089242	-0.0665583366	-0.192781
H	-0.839433529	 1.8686125718	 0.136896129	 0.074975
H	 0.833485946	 4.0629716027	-0.1159225707	 0.136996
H	 3.2036570822	 3.2025970776	-1.7138219573	 0.135878
H	 3.30467052	 4.4636599161	 0.9210275971	 0.12865
H	 2.7332254365	 0.4801915494	-0.4562927331	 0.137396
37.835	149.3635	191.4705	302.8859	426.0821	449.1881	598.4974	633.0824	729.1074	748.6859	767.0868	797.8654	835.0055	864.8222	885.7844	911.7456	1013.9011	1021.8438	1028.3489	1055.4124	1078.6702	1115.3064	1128.2956	1164.3838	1216.927	1267.1427	1323.7779	1405.9963	1450.8409	1791.735	1902.2678	2926.9514	3202.8889	3211.8126	3224.8419	3237.6689
O=CN1C2C3C2C(=O)C13	O=CN1[C@@H]2[C@H]3[C@@H]2C(=O)[C@@H]13	
InChI=1S/C6H5NO2/c8-1-7-4-2-3(4)6(9)5(2)7/h1-5H	InChI=1S/C6H5NO2/c8-1-7-4-2-3(4)6(9)5(2)7/h1-5H/t2-,3+,4-,5+/m1/s1
