19
gdb 90351	3.0589	1.49438	1.18007	4.0303	76.67	-0.2335	0.0258	0.2593	1091.2316	0.162063	-419.193898	-419.186118	-419.185174	-419.226062	30.317	
C	-0.2139437734	 1.4947695208	-0.147116369	-0.390773
C	 0.0183097788	 0.0109324026	 0.0225353713	 0.074404
O	 1.2035000246	-0.4446025275	-0.7524323702	-0.282471
C	 1.915479887	-0.5488265154	 0.414636212	 0.457807
N	 3.147628774	-0.4414263942	 0.6112911072	-0.311238
C	 3.4815772587	-0.2271286922	 2.0279613292	-0.133419
C	 2.3004437461	-0.2403683778	 3.0306295384	-0.182384
N	 1.0812769263	 0.3688680968	 2.4519054876	-0.316663
C	 0.7267500081	-0.4689845708	 1.3256063006	-0.131814
H	 0.6501884523	 2.0638529825	 0.2025787596	 0.145395
H	-0.3990124965	 1.7317420984	-1.1984712178	 0.132066
H	-1.0882700985	 1.8047733964	 0.435046042	 0.118765
H	-0.8518313644	-0.583204064	-0.2680328598	 0.089837
H	 4.2207263959	-0.9707696877	 2.346946242	 0.109749
H	 3.9852262584	 0.7463937391	 2.0709584979	 0.118721
H	 2.1093529792	-1.2808894491	 3.3492306876	 0.087027
H	 2.5864160746	 0.3251953027	 3.9222376544	 0.106627
H	 0.3489988065	 0.3805213873	 3.1545136597	 0.223094
H	 0.3514697925	-1.466895058	 1.6070074172	 0.085271
100.5044	181.2311	206.4023	244.796	282.849	391.4691	416.1477	473.3957	523.0123	570.4015	683.8519	752.861	812.618	832.9266	853.3419	861.487	899.3371	969.6345	1023.6083	1050.121	1061.882	1094.1029	1108.9511	1153.4852	1175.8941	1194.325	1216.4057	1262.7604	1273.3178	1335.6351	1336.2785	1368.2115	1376.2801	1410.7923	1427.9433	1461.0201	1485.502	1486.6328	1487.8526	1505.2068	1830.8919	2936.5721	2958.7113	3028.665	3044.4021	3061.631	3079.3116	3081.8355	3113.3984	3138.7895	3510.9662
CC1OC2=NCCNC12	C[C@H]1O[C]2[N]CCN[C@@H]12	
InChI=1S/C6H10N2O/c1-4-5-6(9-4)8-3-2-7-5/h4-5,7H,2-3H2,1H3	InChI=1S/C6H10N2O/c1-4-5-6(9-4)8-3-2-7-5/h4-5,7H,2-3H2,1H3/t4-,5+/m1/s1
