21
gdb 109611	2.49196	1.06425	0.96726	0.7644	86.85	-0.2278	0.0514	0.2792	1373.479	0.179132	-387.047064	-387.036385	-387.035441	-387.082468	39.437	
C	 0.2129313815	 1.5113526668	 0.152001178	-0.376717
C	-0.1901927934	 0.053368216	-0.1047937807	-0.204512
C	 0.5647655254	-0.5390985903	-1.2780559412	-0.064613
C	 1.9092772562	-1.1725660972	-1.1122694652	 0.051502
O	 2.4119036939	-1.2318591104	 0.1877001649	-0.415176
C	 0.7079180715	-2.0566946099	-1.4946837702	 0.04591
C	 0.1622704108	-3.0383227304	-0.467131142	-0.475519
C	 0.6605224691	-2.5116403803	-2.8572359182	 0.27263
C	 0.6278701073	-2.8953536127	-3.9981372127	-0.451003
H	 1.2760419573	 1.5794089213	 0.4016753491	 0.131087
H	 0.0336996134	 2.1355409329	-0.7304327472	 0.111739
H	-0.3590975824	 1.9360624148	 0.9827845109	 0.109822
H	-0.006946902	-0.5323218685	 0.7988725231	 0.113545
H	-1.2669384308	-0.0036117298	-0.3073741406	 0.098296
H	 0.4435845038	 0.0199084064	-2.2023372057	 0.095628
H	 2.6554120035	-1.0079580795	-1.8880892121	 0.096278
H	 2.9955010142	-1.9955027315	 0.2513595217	 0.292941
H	 0.4293132873	-2.7343216946	 0.5460609932	 0.131056
H	-0.9271844695	-3.1146564622	-0.5343638761	 0.127521
H	 0.5762383134	-4.0358151016	-0.644433997	 0.121672
H	 0.5927502696	-3.2329552892	-5.0038382621	 0.187914
63.2496	120.2568	130.2095	150.6245	185.7653	210.6611	240.204	285.4962	302.6926	326.7322	401.0606	447.7006	532.7324	545.5251	573.3827	603.717	639.2349	695.3463	766.6474	843.4613	853.0412	936.6398	982.7352	1001.6865	1056.5505	1071.4629	1101.3225	1122.774	1160.7638	1189.5237	1251.4227	1271.1931	1296.8845	1303.8284	1340.6408	1394.0106	1409.2378	1411.3756	1462.7887	1485.8826	1496.1932	1498.5518	1502.9269	1508.1167	2226.2012	3032.376	3033.3001	3043.8576	3089.3047	3103.2679	3106.5917	3111.395	3114.5038	3139.8071	3144.9439	3504.8141	3805.3276
CCC1C(O)C1(C)C#C	CC[C@H]1[C@@H](O)[C@]1(C)C#C	
InChI=1S/C8H12O/c1-4-6-7(9)8(6,3)5-2/h2,6-7,9H,4H2,1,3H3	InChI=1S/C8H12O/c1-4-6-7(9)8(6,3)5-2/h2,6-7,9H,4H2,1,3H3/t6-,7+,8+/m0/s1
