16
gdb 52560	3.45319	0.69754	0.58456	1.5503	84.87	-0.2565	-0.0184	0.238	1845.8322	0.120427	-400.682106	-400.671818	-400.670874	-400.720224	34.728	
C	 0.1846971616	 1.3845077535	 0.0077664151	-0.507442
C	 0.0778701629	-0.0644606011	 0.0008637584	 0.237781
C	-0.0182250398	-1.26452924	-0.0047710216	 0.008146
C	-0.1328442778	-2.6930128689	-0.0114305255	 0.20777
N	-1.2683954306	-3.2647327914	-0.0041422569	-0.53161
O	 1.1120089992	-3.2590555142	-0.0259624412	-0.236015
C	 1.1710797742	-4.6855912855	-0.0344843101	-0.274712
C	 2.5637596358	-5.1019435222	-0.0498868135	 0.278488
C	 3.7014534036	-5.4836170675	-0.0626847464	-0.38386
H	 1.2315414189	 1.7052953033	-0.0036894824	 0.157422
H	-0.311190467	 1.8173457431	-0.8678021522	 0.159564
H	-0.2886935501	 1.8072355951	 0.9005626013	 0.159563
H	-1.2071418399	-4.2809787384	-0.0102127291	 0.230678
H	 0.6651070353	-5.0877061206	 0.8549546521	 0.143824
H	 0.6484483258	-5.0777975176	-0.9186984039	 0.143823
H	 4.710879608	-5.8139338675	-0.0739518042	 0.206581
10.5136	66.5877	68.3891	99.7472	155.1811	188.3275	287.9595	320.5468	338.0743	383.8359	442.6431	492.1477	607.4687	621.1653	686.7838	712.6756	792.1435	820.5597	974.8756	990.0717	1036.9033	1048.344	1053.5827	1100.4853	1132.2026	1252.3435	1322.1838	1408.5104	1412.4894	1472.7496	1473.7333	1499.4385	1695.8493	2253.8405	2373.6498	2994.4273	3026.7254	3031.7241	3094.5938	3098.3416	3505.9362	3513.7757
CC#CC(=N)OCC#C	CC#C[C]([NH])OCC#C	
InChI=1S/C7H7NO/c1-3-5-7(8)9-6-4-2/h2,8H,6H2,1H3	InChI=1S/C7H7NO/c1-3-5-7(8)9-6-4-2/h2,8H,6H2,1H3
