21
gdb 68070	2.58624	1.68346	1.231	1.3979	82.84	-0.2325	0.0192	0.2517	1083.1278	0.182917	-387.096089	-387.087907	-387.086963	-387.127822	34.141	
C	-0.0571835508	 1.5340259789	 0.0166619795	-0.472643
C	 0.0269187887	 0.0180882543	 0.0183366711	 0.312977
C	 1.1197138447	-0.6637273706	-0.868207862	-0.277032
C	 1.1540321089	-1.7744059218	 0.2079204608	 0.38619
O	 2.3851193117	-2.4320635498	 0.3593890257	-0.49692
C	 0.7092531566	-0.6861504388	 1.2342718547	-0.308274
C	-0.0243939247	-2.7003936259	-0.0323635039	-0.138695
C	-1.2198678294	-2.1541079017	-0.2477531567	-0.073451
C	-1.3413182394	-0.6481673505	-0.2499882506	-0.289481
H	 0.9221847996	 1.9834363002	 0.2106776158	 0.110979
H	-0.4138736102	 1.910258677	-0.9498452641	 0.112365
H	-0.7505483335	 1.8937489909	 0.7864846287	 0.111571
H	 0.8657090021	-0.9548098316	-1.890303285	 0.092731
H	 2.0478047947	-0.0851544434	-0.8574176106	 0.098424
H	 2.2988511138	-3.0714060114	 1.0750611314	 0.27291
H	 1.5706247658	-0.111944991	 1.5877870164	 0.094266
H	 0.0851333532	-0.9974047064	 2.076618299	 0.084734
H	 0.1521943125	-3.7724303139	-0.0394640366	 0.084088
H	-2.1067437253	-2.7531164556	-0.4326922989	 0.089661
H	-2.069777208	-0.3216545786	 0.5070255132	 0.102209
H	-1.742458891	-0.3023943302	-1.2142947279	 0.103392
216.1343	227.6501	242.7733	265.8786	295.7357	337.4843	388.349	427.5444	446.0325	476.2488	518.3872	568.8805	693.8889	707.004	713.8827	840.4785	892.3893	903.4152	912.4576	962.3567	968.1677	978.8864	1000.5036	1014.6185	1021.0097	1068.8196	1087.7422	1130.5861	1167.7032	1197.3867	1214.9408	1254.2698	1255.8528	1269.8191	1281.241	1361.6981	1369.4178	1391.341	1414.0839	1469.7994	1472.5642	1491.6938	1494.7102	1510.6165	1699.7731	2993.5642	3017.3997	3018.2223	3045.1895	3056.0467	3079.5979	3094.7298	3109.0107	3116.3763	3156.5968	3180.7767	3799.5335
CC12CC(O)(C1)C=CC2	C[C@@]12C[C@@](O)(C1)C=CC2	
InChI=1S/C8H12O/c1-7-3-2-4-8(9,5-7)6-7/h2,4,9H,3,5-6H2,1H3	InChI=1S/C8H12O/c1-7-3-2-4-8(9,5-7)6-7/h2,4,9H,3,5-6H2,1H3/t7-,8-
