14
gdb 131220	5.40829	1.25342	1.01758	3.4131	70.36	-0.1845	0.0284	0.2129	1068.3111	0.104288	-432.891224	-432.883998	-432.883054	-432.922533	27.884	
O	 0.0795923412	 1.3295047634	 0.1925960307	-0.430214
C	 0.0681456295	-0.0091021406	-0.0012803737	 0.426562
C	 0.0805568706	-0.7718432112	-1.1530314953	-0.49661
C	 0.0567356449	-2.1186537288	-0.6764083781	 0.414174
C	 0.0314400767	-2.1170317814	 0.7173439347	 0.238099
N	 0.0389726647	-0.7912169877	 1.1266049038	-0.463837
C	 0.0090619607	-3.4650519177	 1.1158962844	-0.134313
N	 0.0196515619	-4.2590429855	 0.0430216766	-0.234998
N	 0.0486768939	-3.4286327324	-1.0363660559	-0.360711
H	 0.1000141729	 1.7641441664	-0.6654614829	 0.311091
H	 0.1030949747	-0.3991903233	-2.1641233352	 0.095272
H	 0.0259973282	-0.4267849036	 2.0619725289	 0.267873
H	-0.0137473639	-3.9023337519	 2.1022345247	 0.102945
H	 0.060488174	-3.8361589158	-1.9535979929	 0.264667
154.5239	203.0844	265.8083	318.0015	329.3774	356.9002	417.0921	526.591	564.1149	644.6591	667.1996	682.1537	738.7494	773.7216	835.5641	842.9771	974.0274	1016.4277	1081.8841	1156.1941	1186.4604	1199.6301	1242.9129	1300.6007	1355.6899	1408.5507	1492.3891	1517.4378	1549.992	1600.247	1624.6256	3251.3796	3256.419	3696.7211	3698.0551	3847.1956
OC1=CC2=C(N1)C=NN2	Oc1cc2c([nH]1)cn[nH]2	
InChI=1S/C5H5N3O/c9-5-1-3-4(7-5)2-6-8-3/h1-2,7,9H,(H,6,8)	InChI=1S/C5H5N3O/c9-5-1-3-4(7-5)2-6-8-3/h1-2,7,9H,(H,6,8)
