15
gdb 43125	2.38565	1.99293	1.91711	4.2079	69.45	-0.2171	-0.0158	0.2013	836.1841	0.115843	-416.820323	-416.813787	-416.812842	-416.850958	26.282	
O	 0.0034053749	 0.0339378437	-0.0908870636	-0.326364
C	-0.0020228576	 1.2285304811	-0.0101620882	 0.438484
C	-1.2188533061	 2.1814850144	 0.0534622971	-0.150298
N	-1.1876169684	 2.6952346078	 1.4435538027	-0.292972
C	 0.0514472327	 3.0596408095	 1.9316352648	 0.086879
N	 1.1907869448	 2.8361559901	 1.3921827426	-0.25528
C	 1.1506290064	 2.2311172218	 0.0303507077	-0.135697
C	 0.5971525935	 3.2619376208	-0.9378582808	-0.064185
C	-0.7457253198	 3.2333563379	-0.9301415484	-0.086693
H	-2.1738769623	 1.6961432633	-0.1433366573	 0.099534
H	-1.977102175	 3.2445507626	 1.7543879114	 0.247059
H	 0.0193805283	 3.5688015047	 2.8957593444	 0.11931
H	 2.1264673977	 1.8134349246	-0.2134764118	 0.093016
H	 1.2204743269	 3.9469076663	-1.4997019687	 0.117615
H	-1.4054885859	 3.8902180215	-1.4845547121	 0.109592
147.0965	248.4624	297.1331	374.87	439.2971	493.8647	574.2557	585.6345	587.5582	720.0348	771.9749	785.44	804.8852	909.2786	934.8189	948.2413	958.2052	966.3111	984.6918	1022.6323	1121.7028	1132.7824	1174.6509	1213.3459	1259.7707	1291.6392	1310.5653	1352.0454	1398.8674	1470.7153	1628.6125	1686.1268	1884.3554	3123.3431	3126.0262	3129.3669	3192.762	3217.1225	3580.6654
O=C1C2NC=NC1C=C2	O=C1[C@H]2NC=N[C@@H]1C=C2	
InChI=1S/C6H6N2O/c9-6-4-1-2-5(6)8-3-7-4/h1-5H,(H,7,8)	InChI=1S/C6H6N2O/c9-6-4-1-2-5(6)8-3-7-4/h1-5H,(H,7,8)/t4-,5+
