17
gdb 31456	5.22349	0.87151	0.78613	2.7271	87.31	-0.1903	0.0199	0.2101	1447.5445	0.13633	-380.867721	-380.858768	-380.857824	-380.901758	33.289	
C	 0.4335650826	 0.9819344296	 0.4738717793	-0.327889
N	-0.1359757975	 0.1475424181	-0.5932858794	-0.394642
C	-1.3501923972	-0.4898843408	-0.2869012286	 0.333434
C	-2.6620304846	-0.1941764155	-0.5705335436	-0.362747
C	-3.4712696484	-1.2505469606	-0.0309023331	 0.168724
C	-2.6095203361	-2.1468797881	 0.5764418284	-0.200051
N	-1.3352838753	-1.6782695707	 0.4120760572	-0.265985
C	-4.8799594517	-1.3554128376	-0.0918224339	 0.233553
C	-6.0813603018	-1.4305688454	-0.1522820115	-0.446897
H	 1.3798396067	 1.4068331988	 0.1273419761	 0.121981
H	-0.2292125677	 1.7999929449	 0.7940534437	 0.114735
H	 0.6462411003	 0.3607930052	 1.3486277803	 0.12559
H	-0.2402392177	 0.6891876853	-1.4419532677	 0.236678
H	-3.0235530833	 0.6771536125	-1.0935412608	 0.095603
H	-2.8155298949	-3.0639091438	 1.1025151794	 0.126477
H	-0.4916156853	-2.1599866775	 0.6716114861	 0.263819
H	-7.1389397381	-1.5007685742	-0.203353692	 0.177616
47.9196	115.1491	140.6779	182.2881	194.6543	371.3686	377.7703	456.799	515.8263	523.6544	538.3634	549.8875	643.3595	658.9367	687.0096	691.8378	723.7468	775.6927	808.9971	979.5239	988.5039	1050.5701	1129.916	1140.7252	1158.143	1180.2168	1255.2747	1332.1077	1390.024	1421.438	1454.5491	1488.134	1488.7113	1511.9126	1552.1502	1623.7715	2228.5727	2989.8367	3079.1606	3116.1423	3256.5795	3275.9563	3507.1717	3561.8791	3677.0472
CNC1=CC(=CN1)C#C	CNc1cc(c[nH]1)C#C	
InChI=1S/C7H8N2/c1-3-6-4-7(8-2)9-5-6/h1,4-5,8-9H,2H3	InChI=1S/C7H8N2/c1-3-6-4-7(8-2)9-5-6/h1,4-5,8-9H,2H3
