21
gdb 120919	3.1303	0.98202	0.88456	1.2145	79.34	-0.2347	0.0717	0.3064	1423.5272	0.181187	-424.165795	-424.156366	-424.155422	-424.20068	34.472	
C	 0.2193789669	 1.1999254679	 0.3234365911	-0.223426
O	 0.3399382028	-0.1759811066	 0.0547455551	-0.236097
C	-0.4119388656	-0.5860518121	-1.066972297	-0.09323
C	-0.1725199679	-2.0773657018	-1.2345234234	 0.128936
O	-1.0616033092	-2.71659196	-2.1919687022	-0.310427
C	 0.048283677	-3.4362318898	-2.7509701729	 0.072824
C	 0.9936228168	-2.5154541382	-3.4498269632	-0.014009
C	 0.5589555562	-1.3137568357	-4.2614826013	-0.422775
C	 1.0570234753	-2.6525985531	-1.93199766	-0.173437
H	 0.5757665218	 1.8142408318	-0.5186556652	 0.104597
H	-0.8233603935	 1.4843365246	 0.5364704675	 0.105116
H	 0.8313120478	 1.4169493166	 1.2024177406	 0.127052
H	-1.4910394981	-0.4167148501	-0.905931663	 0.094725
H	-0.1171721484	-0.0205634086	-1.9614085199	 0.092915
H	-0.3018363735	-2.5483137005	-0.2509011895	 0.092539
H	-0.0903079151	-4.4949476611	-2.9391549726	 0.100297
H	 1.8257312752	-3.0662258	-3.8874446829	 0.089716
H	-0.4430957645	-0.9891878845	-3.9743796307	 0.13662
H	 1.2479830099	-0.4704679099	-4.1459008592	 0.11586
H	 0.5283626009	-1.5736267932	-5.3251808876	 0.11343
H	 1.9500319652	-2.9870923655	-1.4219872738	 0.098773
56.4487	79.0199	126.4732	179.296	233.5114	247.627	256.4914	303.5083	377.7607	409.2995	553.6442	637.4666	711.2297	748.3647	805.648	871.6117	914.5582	968.1877	993.4712	1005.317	1025.5258	1045.5677	1061.6592	1078.437	1093.7428	1138.831	1151.0627	1172.0145	1187.3892	1206.8172	1226.0323	1245.1499	1259.454	1302.9674	1340.0559	1369.7243	1408.1519	1430.9829	1446.9719	1481.122	1485.9352	1497.7886	1503.2399	1508.154	1527.1807	2957.644	2971.499	3013.1387	3014.5565	3033.3422	3036.5986	3090.7988	3113.3132	3115.1637	3133.4261	3173.8037	3205.7811
COCC1OC2C(C)C12	COC[C@H]1O[C@H]2[C@@H](C)[C@@H]12	
InChI=1S/C7H12O2/c1-4-6-5(3-8-2)9-7(4)6/h4-7H,3H2,1-2H3	InChI=1S/C7H12O2/c1-4-6-5(3-8-2)9-7(4)6/h4-7H,3H2,1-2H3/t4-,5+,6-,7-/m0/s1
