20
gdb 63440	4.65408	0.7492	0.73079	4.2862	78.97	-0.2557	0.0249	0.2806	1605.2936	0.168676	-440.273979	-440.264251	-440.263307	-440.30939	35.822	
C	-0.2765564038	 1.4708009926	 0.0281040118	-0.450668
C	-0.0036262965	-0.0286625846	-0.0339224568	 0.415868
O	-1.1928179933	-0.7562487045	-0.2652088107	-0.470653
C	 1.2282004974	-0.4104708309	-0.9204410467	-0.318636
C	 2.0696443313	-0.5104320371	 0.3649437569	 0.148717
C	 0.7633955265	-0.5864713354	 1.193083231	-0.294323
O	 2.9305566572	-1.6379881716	 0.4046135868	-0.184677
C	 3.9776310151	-1.5906066932	 1.2496098534	 0.119257
N	 4.7069426847	-2.6074952086	 1.4144846525	-0.442595
H	 0.6316946303	 2.0380993396	 0.2565156966	 0.117999
H	-0.6563438066	 1.836158478	-0.9344966479	 0.109735
H	-1.0229762648	 1.6885444492	 0.7981462734	 0.128395
H	-1.6416545273	-0.3705001869	-1.0257208842	 0.275027
H	 1.083901468	-1.4053048477	-1.3472808912	 0.128558
H	 1.5550352929	 0.2861868485	-1.6962056318	 0.097046
H	 2.6448241065	 0.4009101679	 0.5669869823	 0.08102
H	 0.7071133832	-0.0309297824	 2.1321138259	 0.098525
H	 0.4839960852	-1.6290753947	 1.359168772	 0.132784
H	 4.1079539704	-0.610059223	 1.730214995	 0.081033
H	 5.4610296135	-2.3901984651	 2.0626626516	 0.227588
36.6549	73.9891	101.918	215.4596	265.5214	269.8241	296.2983	308.2434	351.0889	427.3429	443.9913	482.8517	541.6432	665.5962	776.9914	820.1254	824.8657	888.7332	901.2412	957.5123	979.842	1013.8942	1029.2374	1042.3404	1055.3366	1116.9449	1136.9329	1186.7058	1198.1125	1216.4229	1268.839	1281.5394	1285.5338	1300.2324	1378.0673	1393.0659	1411.2868	1429.5345	1461.3781	1487.0354	1491.2296	1501.3387	1745.3694	3008.3719	3021.6353	3032.3032	3064.7469	3070.4607	3087.5775	3110.6589	3132.5105	3136.055	3517.4707	3798.4186
CC1(O)CC(C1)OC=N	C[C@@]1(O)C[C@@H](C1)O[CH][NH]	
InChI=1S/C6H11NO2/c1-6(8)2-5(3-6)9-4-7/h4-5,7-8H,2-3H2,1H3	InChI=1S/C6H11NO2/c1-6(8)2-5(3-6)9-4-7/h4-5,7-8H,2-3H2,1H3/t5-,6+
