16
gdb 76318	1.97722	1.82591	1.30713	3.5634	64.21	-0.2712	0.0065	0.2777	1006.5686	0.123648	-475.014325	-475.00565	-475.004706	-475.047926	32.114	
O	 0.1728453227	 1.2065049638	-0.2607102757	-0.442565
C	 0.0676882489	-0.1854991267	-0.0833127998	 0.048678
C	 0.2152218851	-0.5661872123	 1.4221052316	 0.106099
O	 0.9149463382	 0.3951029893	 2.1732019801	-0.436019
C	-1.3516840989	-0.6312899848	 1.5579394844	-0.300785
C	-1.8851617073	 0.5282035832	 2.239615036	 0.291799
N	-2.2166370416	 1.4771820554	 2.8137177368	-0.333514
C	-1.4390802089	-0.5777418539	-0.0298593726	 0.147796
O	-2.3213946131	 0.3103412408	-0.6164784973	-0.415913
H	 0.6628867496	 1.5370860675	 0.5089590515	 0.299503
H	 0.6992510314	-0.7216033017	-0.7995241719	 0.084281
H	 0.6666052022	-1.5506550286	 1.5733541799	 0.102872
H	 0.3051954308	 0.841229605	 2.776273281	 0.312147
H	-1.7435438596	-1.541226644	 2.0168436935	 0.129338
H	-1.6373132821	-1.5808361536	-0.4156866704	 0.102303
H	-1.8761102174	 1.1720638806	-0.6023425272	 0.303981
52.8955	128.7591	151.335	215.157	272.4082	296.7395	365.3562	407.9694	477.0808	504.2682	568.0732	584.848	623.5183	690.7075	770.1419	788.5652	865.1351	886.8481	939.2582	1065.6903	1087.7629	1128.7182	1139.0415	1173.1829	1211.5324	1246.574	1257.6981	1295.5562	1337.5237	1349.738	1362.5097	1389.0249	1394.3567	1451.9528	2341.7921	3046.7154	3070.4956	3082.5189	3099.3687	3690.1154	3710.68	3753.7586
OC1C(O)C(C#N)C1O	O[C@H]1[C@@H](O)[C@@H](C#N)[C@H]1O	
InChI=1S/C5H7NO3/c6-1-2-3(7)5(9)4(2)8/h2-5,7-9H	InChI=1S/C5H7NO3/c6-1-2-3(7)5(9)4(2)8/h2-5,7-9H/t2-,3+,4-,5+
