20
gdb 11855	5.14693	1.19728	1.12257	1.4924	75.99	-0.2228	0.0835	0.3063	1157.9504	0.176172	-348.980273	-348.971924	-348.97098	-349.013419	31.52	
C	-0.3725539706	 1.39624792	-0.1396606117	-0.38057
C	-0.0585225628	-0.1002061976	-0.0605284632	-0.187581
C	 0.9702719533	-0.5319609141	-1.0900756789	 0.163863
C	 1.1655531943	-2.0464589002	-1.3362270331	-0.393335
C	 0.7173866849	-1.7183234449	-2.7545186726	 0.474582
C	 1.2842069667	-2.1556862075	-4.0648691595	-0.333337
C	-0.1637296726	-2.4656725572	-3.6973944702	-0.331941
O	 0.5006228148	-0.3388515967	-2.4550742569	-0.321996
H	 0.5189523826	 1.9999392592	 0.0638098029	 0.112127
H	-0.732361372	 1.6556013354	-1.1393189847	 0.137347
H	-1.1410151361	 1.6795756519	 0.5856049919	 0.11043
H	 0.3228314964	-0.3603577004	 0.9362649192	 0.093811
H	-0.9739318818	-0.6849303456	-0.2144755837	 0.098664
H	 1.9116396233	 0.0148571186	-0.9394285309	 0.072682
H	 2.1861493637	-2.4198179695	-1.2332341033	 0.109097
H	 0.483567452	-2.686750006	-0.7706685964	 0.107416
H	 1.4527861171	-1.3856547785	-4.81012216	 0.12298
H	 2.0040314347	-2.9681336834	-4.0774158995	 0.111121
H	-0.434041302	-3.4896441074	-3.4588266156	 0.111761
H	-0.9367611059	-1.8974120762	-4.203818184	 0.122881
47.7067	103.3113	174.4782	235.6414	289.1293	296.1374	362.5513	433.9616	475.2942	563.0267	753.8954	760.2487	798.9015	837.3225	888.7549	897.8377	914.1051	953.6318	972.1509	989.8731	1013.2285	1047.6864	1065.9477	1086.4022	1107.1256	1138.069	1186.8324	1198.2758	1225.4803	1245.4632	1284.1804	1310.8033	1351.4827	1371.7122	1407.5176	1415.7704	1447.843	1474.6182	1488.3248	1497.8197	1506.2167	1509.9781	3002.0762	3017.4081	3036.1706	3058.7921	3063.9634	3102.6982	3119.1818	3119.4123	3124.3601	3127.2211	3208.023	3222.4185
CCC1CC2(CC2)O1	CC[C@H]1CC2(CC2)O1	
InChI=1S/C7H12O/c1-2-6-5-7(8-6)3-4-7/h6H,2-5H2,1H3	InChI=1S/C7H12O/c1-2-6-5-7(8-6)3-4-7/h6H,2-5H2,1H3/t6-/m0/s1
