20
gdb 96508	2.35304	1.59166	1.04819	2.13	76.79	-0.2552	0.027	0.2822	1170.9778	0.172269	-440.29414	-440.285588	-440.284644	-440.327347	32.745	
C	-1.2106697198	 0.4985841023	 0.2163371929	-0.395999
C	 0.2517094502	 0.0845322826	 0.0173467562	-0.088918
C	 0.8548782673	 0.8216718659	-1.2042837685	-0.085274
O	 1.9353059128	 0.1514676033	-1.8232617764	-0.239934
C	 3.1141748375	 0.0928849205	-1.0539328595	-0.083302
C	 2.9895884393	-0.7514780968	 0.2099292302	-0.095028
O	 2.374393499	-0.0702616433	 1.3047726784	-0.253717
C	 1.0632043999	 0.3156785572	 1.2802059155	 0.384377
N	 0.5543439981	 0.8765439906	 2.2962992056	-0.505695
H	-1.2924042951	 1.5761629261	 0.3810481028	 0.133898
H	-1.797489394	 0.2314336679	-0.668007556	 0.104756
H	-1.6393658807	 0.0071544892	 1.0904425732	 0.137013
H	 0.2845638066	-0.986317391	-0.2250042962	 0.100466
H	 0.0861830161	 0.8956424284	-1.9783491037	 0.113332
H	 1.1430898603	 1.8460336066	-0.916397568	 0.101265
H	 3.8720036496	-0.3584761386	-1.7032974864	 0.11409
H	 3.4585878072	 1.1020084657	-0.77274486	 0.101817
H	 2.4681267562	-1.6899838702	-0.014974034	 0.118583
H	 3.9897825167	-0.998185458	 0.5775603584	 0.12076
H	 1.2536472928	 0.9515608616	 3.0380351955	 0.217509
69.1653	128.7337	216.4324	258.3677	278.8685	319.1326	338.7749	382.2287	396.4532	501.1844	555.3361	574.2502	680.4039	764.3906	845.9176	890.1943	918.0369	935.9103	979.3958	1008.7577	1026.3777	1099.7265	1109.2442	1120.242	1137.3393	1151.234	1176.7162	1251.3043	1277.9698	1297.3776	1324.3366	1343.0417	1371.5196	1401.4441	1411.5149	1414.5265	1428.3679	1478.0619	1486.2449	1491.7953	1492.724	1501.4472	1735.9325	2974.515	2979.014	3020.6593	3035.2764	3048.0989	3076.2768	3088.7732	3097.2394	3119.5727	3144.7933	3462.9181
CC1COCCOC1=N	C[C@H]1COCCO[C]1[NH]	
InChI=1S/C6H11NO2/c1-5-4-8-2-3-9-6(5)7/h5,7H,2-4H2,1H3	InChI=1S/C6H11NO2/c1-5-4-8-2-3-9-6(5)7/h5,7H,2-4H2,1H3/t5-/m0/s1
