21
gdb 90099	2.78101	1.47324	1.27576	1.4793	83.87	-0.2373	0.0637	0.301	1114.1564	0.182104	-386.954279	-386.946007	-386.945063	-386.986547	33.301	
C	-0.0846422298	 1.606218504	-0.1936827917	-0.404057
C	 0.032477679	 0.1183568575	 0.0691032145	 0.07654
O	 0.9350131829	-0.5828217575	-0.8967453732	-0.3682
C	 1.7762361804	-0.8876433254	 0.2178145715	 0.40867
C	 2.4371020235	-1.9580999255	 1.1374534716	-0.319964
C	 2.1689916184	-0.6233244818	 1.994381067	-0.112501
C	 2.7319756757	 0.2033092976	 0.8195302356	 0.018692
C	 4.2154319377	 0.2652306874	 0.4908381068	-0.448624
C	 0.7522427597	-0.6105799562	 1.2874296635	-0.118652
H	 0.8764836179	 2.1200463732	-0.2090988378	 0.131499
H	-0.5644311352	 1.766089186	-1.1651022882	 0.128794
H	-0.7154514065	 2.0651703786	 0.5750622018	 0.122997
H	-0.9609381095	-0.3331671333	-0.0156975332	 0.095504
H	 1.8135451982	-2.8168491741	 1.3927701968	 0.105829
H	 3.4776899483	-2.2513776803	 0.9891175706	 0.101363
H	 2.4031541467	-0.5099351996	 3.0545741599	 0.080412
H	 2.3126924297	 1.2090117806	 0.7887132294	 0.066627
H	 4.7109153699	-0.7083046675	 0.4990340274	 0.118262
H	 4.3625471092	 0.7009249198	-0.5033285688	 0.124671
H	 4.7392886867	 0.907017087	 1.2083806898	 0.116082
H	 0.1382629172	-1.4653598404	 1.5773051667	 0.076055
154.9842	162.8576	198.0603	216.7781	240.8785	341.2514	406.8144	454.7516	474.9407	559.164	592.7712	688.1141	731.6109	764.9116	785.2254	830.7584	874.823	905.5134	928.7421	996.2758	1000.121	1031.3027	1042.3675	1069.5826	1085.9052	1105.0017	1109.3967	1130.7611	1145.9674	1170.4738	1192.8283	1211.1135	1222.2957	1229.1117	1289.9303	1366.0667	1392.3685	1409.6922	1415.4597	1422.903	1479.5096	1495.8187	1496.4179	1501.8826	1526.9041	3034.5351	3039.9495	3049.5459	3072.3829	3079.6817	3089.9744	3093.6232	3102.7771	3105.1123	3123.054	3142.6638	3148.8532
CC1OC23CC(C2C)C13	C[C@H]1O[C@@]23C[C@@H]([C@H]2C)[C@@H]13	
InChI=1S/C8H12O/c1-4-6-3-8(4)7(6)5(2)9-8/h4-7H,3H2,1-2H3	InChI=1S/C8H12O/c1-4-6-3-8(4)7(6)5(2)9-8/h4-7H,3H2,1-2H3/t4-,5-,6+,7-,8+/m1/s1
