23
gdb 110681	4.45444	1.03829	0.998	0.0743	89.87	-0.2819	0.0974	0.3793	1329.9647	0.208235	-351.128623	-351.120577	-351.119633	-351.161267	32.416	
C	 0.06506562	 1.5836973778	 0.0671768542	-0.373259
C	-0.1892347292	 0.0787602357	-0.0822806826	-0.225695
C	 0.6203295383	-0.5383532402	-1.2165390532	 0.053277
C	 2.1384774696	-0.8410691631	-1.0646350019	-0.068614
C	 1.8112339056	-2.1158228294	-0.2165296146	 8.*^-6
C	 2.8488125067	-3.1984296295	-0.5183428387	-0.240321
C	 3.0102151837	-2.9932670249	-2.0511977392	-0.24618
C	 2.026148548	-1.8435712549	-2.2599176824	 0.004857
C	 0.7578502269	-2.0765695407	-1.3742741883	-0.086214
H	 1.1147583402	 1.7859887414	 0.3060819955	 0.11563
H	-0.1702796944	 2.1186487755	-0.8598191234	 0.112379
H	-0.5476476985	 2.0152686488	 0.8648408809	 0.109036
H	 0.0237799365	-0.4223759349	 0.8680974186	 0.094334
H	-1.2561767382	-0.0899732367	-0.2815061474	 0.092079
H	 0.3761143302	-0.0265985288	-2.157611257	 0.0523
H	 2.952540374	-0.133030939	-0.8890087469	 0.05774
H	 1.4814629687	-2.0074358275	 0.816641786	 0.059074
H	 3.7825293787	-3.0386965527	 0.0309060851	 0.094091
H	 2.4862386356	-4.1990698752	-0.2609057494	 0.094207
H	 4.0311431008	-2.7192858087	-2.3365749202	 0.094534
H	 2.7364870829	-3.8819528819	-2.6291635894	 0.094557
H	 1.8927624053	-1.4419039544	-3.266892305	 0.055388
H	-0.0378208315	-2.8037531669	-1.5571991807	 0.056791
71.2564	148.8214	196.2182	241.2955	278.2244	315.6221	430.4091	495.722	663.8873	717.8008	746.7455	766.5453	803.5173	830.0775	841.9259	904.7056	912.8756	929.7155	952.8121	962.5487	975.7186	991.2121	1031.0511	1044.6676	1063.3726	1083.1261	1097.0257	1112.9453	1138.9338	1145.3849	1173.7566	1210.2373	1221.723	1247.0717	1251.4435	1257.7611	1273.1452	1286.0171	1292.2598	1319.0758	1348.4019	1377.3375	1409.688	1433.7669	1486.225	1487.9641	1499.8987	1507.734	1509.3478	3005.0565	3018.2826	3029.4106	3038.1734	3048.1422	3062.42	3070.4545	3070.6821	3074.0492	3090.5991	3094.5289	3097.3657	3101.4351	3116.9322
CCC1C2C3CCC2C13	CC[C@H]1[C@H]2[C@@H]3CC[C@H]2[C@H]13	
InChI=1S/C9H14/c1-2-5-8-6-3-4-7(8)9(5)6/h5-9H,2-4H2,1H3	InChI=1S/C9H14/c1-2-5-8-6-3-4-7(8)9(5)6/h5-9H,2-4H2,1H3/t5-,6-,7+,8-,9+
