19
gdb 107712	3.4236	1.34949	1.15799	1.1869	75.93	-0.2456	0.075	0.3206	1108.7835	0.158146	-422.938998	-422.930669	-422.929725	-422.971671	32.372	
C	-0.0417986354	 1.3480160995	-0.0346740418	-0.262834
O	 0.1095053647	-0.060292981	-0.0535622321	-0.296381
C	 0.7559545151	-0.5363073235	-1.1665916921	 0.470791
C	 2.2068694006	-0.2711651589	-1.6414449883	-0.406105
C	 1.6039630191	-1.2818968194	-2.6431150106	 0.416779
O	 2.1662999538	-1.8105123206	-3.7859887997	-0.477111
C	 0.7874983959	-2.048808516	-1.5293968054	-0.181152
C	-0.517461553	-1.9627440155	-2.3490722446	-0.275929
C	 0.1923197708	-0.6237048204	-2.6429830675	-0.156044
H	 0.9307391497	 1.8594127988	-0.037036975	 0.115118
H	-0.6259073603	 1.7012209559	-0.8957855742	 0.113746
H	-0.57336101	 1.5987488806	 0.8856039125	 0.12969
H	 2.4366325303	 0.724299376	-2.0345175832	 0.095165
H	 3.008063411	-0.6341683396	-0.9881122897	 0.088959
H	 2.9401152533	-2.3263898145	-3.5350192651	 0.28533
H	 1.1620929398	-2.8448943807	-0.8833689281	 0.068401
H	-0.6122384722	-2.6555684678	-3.1890384333	 0.100477
H	-1.4478861342	-1.9087851567	-1.7782228277	 0.09997
H	-0.1140873889	 0.209402914	-3.2770878139	 0.071133
84.5698	170.6573	179.3746	255.5326	294.1257	297.1926	343.4439	429.7429	467.6105	521.0833	601.6313	665.1548	700.4439	792.7925	861.6226	891.8828	914.6547	959.4062	986.3089	1028.8524	1047.2749	1053.5754	1078.6579	1109.0798	1121.5484	1131.1852	1142.831	1162.3805	1181.8161	1182.5853	1221.5523	1241.7138	1275.4004	1288.4483	1338.6383	1406.3421	1483.1955	1488.3738	1500.2187	1506.1065	1523.1021	2994.8643	3033.5442	3049.7831	3057.5079	3096.6934	3098.9714	3107.6853	3118.1348	3124.9272	3805.8192
COC12CC3(O)C1CC23	CO[C@@]12C[C@@]3(O)[C@@H]1C[C@@H]23	
InChI=1S/C7H10O2/c1-9-7-3-6(8)4(7)2-5(6)7/h4-5,8H,2-3H2,1H3	InChI=1S/C7H10O2/c1-9-7-3-6(8)4(7)2-5(6)7/h4-5,8H,2-3H2,1H3/t4-,5+,6+,7-
