19
gdb 34599	3.63944	1.17479	0.98793	0.9242	90.28	-0.2235	-0.0112	0.2123	1228.1262	0.160328	-348.732686	-348.724629	-348.723684	-348.765158	32.026	
C	 0.2132724211	-1.0293545837	 0.6688787237	-0.423534
C	 0.0725733368	 0.1103202586	 0.3026259584	 0.228917
C	-0.0349139675	 1.4545555788	-0.1556025921	 0.134538
C	-1.154857793	 2.1672783697	 0.0487010523	-0.143466
C	-1.3697023351	 3.5734079701	-0.429656015	-0.273257
C	-0.0930244423	 4.3039575039	-0.8041469951	-0.023532
C	 1.0430401427	 4.3851468	 0.1871178592	-0.288667
C	 1.1723715909	 3.5159971546	-1.039997194	-0.022392
C	 1.1620772474	 2.0037503519	-0.910447184	-0.318854
H	 0.3192056637	-2.0333632676	 0.9970900468	 0.190694
H	-1.9803952735	 1.6978345911	 0.5759251806	 0.093209
H	-2.0409260988	 3.5454234637	-1.3022486864	 0.116518
H	-1.9210825116	 4.1375828426	 0.3357148306	 0.109551
H	-0.2460433092	 5.1781721372	-1.4296456317	 0.08057
H	 1.6228619136	 5.3002657065	 0.2340579218	 0.107694
H	 0.9113080842	 3.8883501238	 1.1434009427	 0.116828
H	 1.8354527177	 3.8846289768	-1.8170319277	 0.079838
H	 2.0816335297	 1.65593881	-0.4234196665	 0.116129
H	 1.1714045131	 1.5512548119	-1.9119089335	 0.119217
79.5259	154.5678	183.3303	289.3545	331.0926	369.8869	437.226	515.334	538.5089	563.9061	586.5534	636.0505	669.0936	762.6482	795.4822	825.9971	857.7374	865.6165	939.1335	975.6057	986.2326	1046.0821	1054.7484	1065.9995	1114.0767	1127.5684	1135.69	1161.1831	1228.7833	1238.8473	1248.2922	1315.6628	1360.1534	1378.1636	1388.8653	1420.4378	1473.2869	1479.9733	1496.3243	1694.8837	2217.8861	2987.5164	3010.6721	3016.0432	3042.4943	3128.3199	3141.143	3151.5364	3169.6602	3214.275	3504.2175
C#CC1=CCC2CC2C1	C#CC1=CC[C@H]2C[C@H]2C1	
InChI=1S/C9H10/c1-2-7-3-4-8-6-9(8)5-7/h1,3,8-9H,4-6H2	InChI=1S/C9H10/c1-2-7-3-4-8-6-9(8)5-7/h1,3,8-9H,4-6H2/t8-,9+/m0/s1
