20
gdb 85829	2.42159	1.25324	1.09613	1.5087	82.88	-0.2135	0.0324	0.2458	1237.7599	0.167217	-403.087949	-403.077772	-403.076828	-403.12248	37.831	
C	 0.0218249332	 1.5415872488	-0.046201646	-0.401245
C	 0.0542973551	 0.02814852	 0.0416890439	 0.033751
N	 1.0206858997	-0.6627779462	-0.8376050513	-0.082268
C	 0.5562201378	-1.1798212872	-2.1039235229	-0.326525
C	 1.3687782628	-1.619725125	 0.2224991009	-0.217039
C	 0.7482211895	-0.6456880116	 1.2733475511	 0.207382
O	 1.6886824807	 0.2479307133	 1.8428564293	-0.464707
C	-0.1091610232	-1.2345537076	 2.2908576488	 0.287532
C	-0.7858254414	-1.72656397	 3.1550580952	-0.481632
H	 1.0162695316	 1.9564738249	 0.1241144093	 0.140863
H	-0.3249584574	 1.8527639329	-1.0375421874	 0.111462
H	-0.6671641414	 1.9564383393	 0.6966042898	 0.118409
H	-0.9627124124	-0.3870218505	-0.0615513223	 0.063245
H	 0.2482774106	-0.3539818184	-2.7537841274	 0.122047
H	 1.3684441111	-1.7137235209	-2.6087838511	 0.121084
H	-0.2999970247	-1.8755257519	-2.0036011652	 0.089177
H	 0.816195257	-2.5709860224	 0.1671384745	 0.09067
H	 2.4397146661	-1.8199199216	 0.3370424475	 0.103195
H	 2.0628525535	-0.1783281949	 2.6211244638	 0.284826
H	-1.3938327083	-2.1574037209	 3.9119193794	 0.199771
76.7501	130.8881	179.1791	191.3003	206.6217	225.4472	246.588	265.0352	298.4923	370.5992	398.2872	495.4021	507.3294	581.943	612.1702	630.4752	661.928	748.5033	810.6967	916.0029	961.3423	994.0746	1018.5729	1070.3978	1103.5544	1113.8307	1137.3478	1182.3622	1198.1996	1228.2287	1253.6662	1295.1283	1319.9719	1361.5113	1392.5433	1406.2055	1451.5234	1483.0182	1485.1067	1492.2074	1497.3723	1504.9125	2229.987	2915.6927	2953.7299	2978.3338	3039.8511	3055.9956	3060.8535	3097.2436	3102.1812	3145.6683	3500.2792	3815.3614
CC1N(C)CC1(O)C#C	C[C@H]1N(C)C[C@]1(O)C#C	
InChI=1S/C7H11NO/c1-4-7(9)5-8(3)6(7)2/h1,6,9H,5H2,2-3H3	InChI=1S/C7H11NO/c1-4-7(9)5-8(3)6(7)2/h1,6,9H,5H2,2-3H3/t6-,7-/m1/s1
