14
gdb 7043	7.36523	0.88055	0.7904	5.739	73.65	-0.246	-0.0403	0.2057	1393.1138	0.105667	-378.721007	-378.711926	-378.710982	-378.757166	29.585	
C	 0.1363978017	 1.4815501839	 0.0198149006	-0.504921
C	 0.0447184198	 0.0335080554	-0.0596038217	 0.151055
C	-0.0437392574	-1.1670170645	-0.128960086	-0.067536
C	-0.2164887889	-2.6085771528	-0.2313244218	 0.286248
O	-1.2561807896	-3.1317243409	-0.5485007216	-0.300361
N	 0.9625790903	-3.2890109716	 0.0816729291	-0.320171
C	 1.2066494235	-4.6596713422	 0.1013505782	 0.083335
N	 0.3477625133	-5.5479486005	-0.1774159237	-0.396864
H	 0.9030892762	 1.863972263	-0.6625637279	 0.160038
H	-0.8165853614	 1.9508606279	-0.244971026	 0.165929
H	 0.4015944669	 1.8025098754	 1.0329185776	 0.160152
H	 1.7422725045	-2.699019589	 0.3267950096	 0.2599
H	 2.2479291658	-4.8497255713	 0.3928445563	 0.093541
H	 0.7718676253	-6.4703500326	-0.0896957728	 0.229657
13.7569	54.8342	83.4668	140.8567	195.7869	216.2672	310.523	382.4015	394.8084	575.8219	577.0233	606.182	754.1481	824.6231	915.2473	972.6549	1048.7476	1051.7094	1064.3009	1124.4708	1221.699	1260.6331	1410.9092	1431.8201	1470.952	1474.0025	1528.6466	1733.3643	1803.3472	2350.33	3027.5821	3032.7198	3095.7903	3101.0422	3496.7615	3635.1312
CC#CC(=O)NC=N	CC#CC(=O)NC=N	
InChI=1S/C5H6N2O/c1-2-3-5(8)7-4-6/h4H,1H3,(H2,6,7,8)	InChI=1S/C5H6N2O/c1-2-3-5(8)7-4-6/h4H,1H3,(H2,6,7,8)
