16
gdb 51106	5.00935	0.963	0.91257	2.8679	72.17	-0.2459	-0.0185	0.2274	1250.5302	0.12371	-437.896253	-437.888122	-437.887178	-437.929855	30.046	
O	 0.1239607358	 0.6919323014	 1.6061527081	-0.304206
C	 0.0783266633	 1.4281211808	 0.6494494116	 0.137029
N	 1.1137066814	 1.6966042612	-0.2102331734	-0.400002
C	 2.3883701255	 1.0865585873	-0.1604415488	 0.409275
C	 3.1248954035	 0.8812467871	 1.1044843958	-0.279655
C	 3.7751036676	 1.7819086829	 0.0538216234	-0.257187
C	 4.3264265364	 0.9333554598	-1.0491615737	 0.436604
O	 5.3594087021	 0.9283994759	-1.655441047	-0.313163
C	 2.9781594512	 0.1876919926	-1.2637136184	-0.417524
H	-0.8290186801	 1.9954279316	 0.3606356831	 0.081787
H	 0.9049333504	 2.2855416498	-1.0031543303	 0.251126
H	 2.7456789163	 1.4212996059	 1.9634184339	 0.150546
H	 3.5466047839	-0.0916838663	 1.3378517083	 0.131879
H	 4.0243168595	 2.8107879749	 0.2826821992	 0.116119
H	 2.9465843857	-0.8935462106	-1.1008091656	 0.129394
H	 2.5906511774	 0.4132056656	-2.2624910462	 0.12798
36.9782	96.1225	192.6949	200.144	342.5916	366.2076	401.3773	483.7506	544.2357	556.5761	590.9414	655.3406	778.6325	797.7518	873.3	917.3761	959.6236	976.1854	991.7417	1029.9913	1047.358	1088.4881	1102.0928	1121.9421	1162.5424	1209.4153	1237.1079	1250.6375	1399.3839	1440.2231	1458.1504	1504.5876	1519.258	1818.7844	1887.4479	2935.5021	3052.8201	3107.407	3133.6065	3198.7438	3232.2566	3603.2431
O=CNC12CC1C(=O)C2	O=CN[C@]12C[C@H]1C(=O)C2	
InChI=1S/C6H7NO2/c8-3-7-6-1-4(6)5(9)2-6/h3-4H,1-2H2,(H,7,8)	InChI=1S/C6H7NO2/c8-3-7-6-1-4(6)5(9)2-6/h3-4H,1-2H2,(H,7,8)/t4-,6-/m0/s1
