23
gdb 99970	2.61404	1.09594	0.94663	1.7647	87.28	-0.2581	0.0536	0.3117	1361.9351	0.20164	-388.258726	-388.247312	-388.246368	-388.294455	42.561	
C	 0.1046125737	 1.5551846553	-0.0380930631	-0.412261
C	-0.0308548311	 0.0174401598	 0.0439164944	-0.173309
C	 0.7310018687	-0.4738739183	 1.1933804401	 0.33192
C	 1.3695436612	-0.843714207	 2.1432578214	-0.468853
C	-1.5025848591	-0.5314603726	 0.0514640803	 0.256955
C	-1.4550748792	-2.0698474409	-0.0148160204	-0.416725
C	-2.268556624	-0.0918190659	 1.3111167972	-0.418324
C	-2.2273045168	-0.0038609195	-1.2010113803	-0.102355
O	-3.5074616278	-0.6167306241	-1.2793366492	-0.425864
H	 1.1614605928	 1.8330681587	-0.0159777074	 0.126965
H	-0.3248885312	 1.9460820036	-0.9637189753	 0.116067
H	-0.3843148295	 2.0456314248	 0.8073166062	 0.130553
H	 0.4437866827	-0.3963814241	-0.8580973482	 0.100522
H	 1.9352486115	-1.1816731364	 2.975847679	 0.191633
H	-0.9471963338	-2.4789902406	 0.8620367892	 0.123125
H	-2.4655113147	-2.4796982106	-0.061411745	 0.131407
H	-0.9138022093	-2.4083024187	-0.906313532	 0.100509
H	-2.3337509221	 0.9985200101	 1.3876423683	 0.104064
H	-3.2887262148	-0.4808912114	 1.2772639124	 0.12926
H	-1.7799125476	-0.4656828339	 2.2147437954	 0.122671
H	-2.3328757002	 1.0886401758	-1.1442212823	 0.086127
H	-1.6264029059	-0.2363961102	-2.0968203489	 0.078462
H	-3.9852559735	-0.2191410339	-2.0122842417	 0.287449
59.7608	116.3095	143.2869	186.9641	223.3218	227.8042	240.0799	244.8836	266.0968	296.6013	334.4955	350.2959	393.5521	422.0405	437.6298	558.4483	610.2641	624.0669	634.7228	728.3365	827.161	904.513	935.2406	962.7589	967.7	1009.9238	1041.0823	1075.8711	1092.1353	1120.4335	1184.3291	1213.8604	1233.4601	1280.6043	1291.8019	1336.608	1346.805	1395.8739	1406.2745	1411.953	1460.539	1485.2947	1490.8454	1495.8061	1500.4591	1501.9149	1518.4304	1523.0259	2228.6587	2952.8949	2992.7055	3011.6976	3034.6948	3042.9243	3052.7593	3106.173	3109.43	3122.2506	3129.4473	3130.42	3139.1559	3503.8505	3839.1331
CC(C#C)C(C)(C)CO	C[C@@H](C#C)C(C)(C)CO	
InChI=1S/C8H14O/c1-5-7(2)8(3,4)6-9/h1,7,9H,6H2,2-4H3	InChI=1S/C8H14O/c1-5-7(2)8(3,4)6-9/h1,7,9H,6H2,2-4H3/t7-/m0/s1
