19
gdb 38558	3.49772	2.00285	1.68596	0.2668	82.46	-0.2103	0.0125	0.2228	862.2621	0.163161	-348.691317	-348.685512	-348.684568	-348.720883	26.592	
C	-0.0302152052	 1.5903969029	 0.0914781429	-0.35148
C	 1.5274699345	 1.3628411762	-0.0233726616	-0.071212
C	 1.887454684	 0.6888493706	 1.3133443394	-0.23602
C	 0.9780545931	-0.5223567654	 1.1017193837	-0.024221
C	 1.4629475046	-1.3007293877	-0.1624306841	-0.121454
C	 0.1682327313	-2.0640941599	-0.5454071369	-0.088933
C	-0.8302893424	-1.1787116938	-0.4012706167	-0.232624
C	-0.0676049283	 0.0584735154	 0.0293933993	 0.314671
C	 1.2106274726	 0.0694660024	-0.8652661069	-0.006128
H	-0.4077943702	 2.1105289052	 0.9779571383	 0.091377
H	-0.4418620829	 2.0493545262	-0.8121007143	 0.103203
H	 2.1778670142	 2.152480054	-0.3987805471	 0.060144
H	 2.94732656	 0.4261859389	 1.3920531776	 0.095095
H	 1.6140306802	 1.2911940486	 2.1857415016	 0.092513
H	 0.6118589337	-1.0797992946	 1.9646677693	 0.059037
H	 2.4035803676	-1.856332231	-0.1916981461	 0.049606
H	 0.1182466685	-3.104921602	-0.833401104	 0.097496
H	-1.8931712965	-1.3067597183	-0.5454344246	 0.103481
H	 1.1121222812	 0.1553862323	-1.94788125	 0.065449
335.4982	371.0031	424.7876	437.4955	539.5423	624.9716	640.6774	677.8294	732.9378	762.4831	830.2225	833.2676	882.526	884.336	902.4933	908.0174	909.0292	945.2858	971.9746	990.7521	1003.4677	1017.6514	1047.3806	1055.4925	1094.2905	1146.9342	1154.4162	1170.2063	1196.6095	1200.6498	1216.0745	1236.2693	1243.218	1251.0769	1273.1801	1302.8826	1327.8027	1344.3093	1485.2838	1503.2209	1590.3107	3040.1549	3044.0001	3076.2523	3086.4308	3101.6292	3107.852	3110.7186	3119.9774	3219.973	3246.7615
C1C2CC3C4C=CC13C24	C1[C@H]2C[C@@H]3[C@H]4C=C[C@@]13[C@@H]24	
InChI=1S/C9H10/c1-2-9-4-5-3-7(9)6(1)8(5)9/h1-2,5-8H,3-4H2	InChI=1S/C9H10/c1-2-9-4-5-3-7(9)6(1)8(5)9/h1-2,5-8H,3-4H2/t5-,6-,7-,8+,9-/m1/s1
