19
gdb 87498	2.96164	1.38378	1.12995	0.3609	76.34	-0.246	0.0712	0.3172	1150.07	0.157191	-422.934036	-422.925537	-422.924593	-422.966848	32.644	
C	-0.0591764309	 1.5847400447	-0.072017671	-0.413491
C	-0.0701500571	 0.0848328948	 0.0482652759	-0.066082
O	 1.2099736001	-0.5936256337	-0.1597672958	-0.307706
C	 0.6164180028	-0.6295551935	 1.1076278487	 0.5022
C	 1.1688214758	-0.2782870736	 2.503071385	-0.075555
O	-0.120309009	-0.7822582215	 3.0347394329	-0.309783
C	 0.2934198518	-1.8074295946	 2.0453447904	-0.077787
C	 1.7359362133	-1.7255549063	 2.6322447637	 0.035941
C	 2.961823181	-2.1990847443	 1.8691688312	-0.447242
H	 0.8012113108	 2.010910099	 0.4499563881	 0.125446
H	-0.0118986371	 1.8891769837	-1.1225485965	 0.130495
H	-0.9735643341	 2.0037462988	 0.3612309903	 0.13196
H	-0.8989739538	-0.4222094735	-0.4472403436	 0.10023
H	 1.5484714275	 0.6614190412	 2.9045169814	 0.096113
H	-0.3597607306	-2.6687669437	 1.9051767035	 0.0968
H	 1.7404532606	-2.0409119962	 3.679485156	 0.083389
H	 2.9524872963	-1.8816033088	 0.8251980138	 0.15394
H	 3.8728026585	-1.8104128635	 2.3368425122	 0.120347
H	 3.0245299441	-3.292292809	 1.8937255739	 0.120784
131.2211	142.4557	185.3336	195.803	220.6733	300.4739	333.4229	431.3857	455.9871	508.797	615.8957	660.9991	755.836	796.0052	808.5213	824.4239	877.9446	927.4288	979.3625	1014.6234	1022.8201	1061.8932	1085.0473	1108.1985	1123.8662	1130.9559	1141.7429	1153.8593	1186.3184	1237.2483	1240.184	1258.6875	1356.6924	1380.3321	1410.5267	1418.8095	1478.2341	1491.9134	1500.509	1501.8558	1566.551	3039.0652	3039.5013	3076.8614	3095.3274	3102.4633	3104.7535	3120.2415	3125.938	3128.7572	3143.2724
CC1OC11C2OC1C2C	C[C@H]1O[C@]21[C@H]1O[C@@H]2[C@H]1C	
InChI=1S/C7H10O2/c1-3-5-7(4(2)9-7)6(3)8-5/h3-6H,1-2H3	InChI=1S/C7H10O2/c1-3-5-7(4(2)9-7)6(3)8-5/h3-6H,1-2H3/t3-,4-,5-,6+,7+/m1/s1
