16
gdb 126475	1.97636	1.73413	0.98613	2.406	78.86	-0.2445	-0.0254	0.2191	1175.8671	0.123309	-400.723077	-400.714554	-400.71361	-400.756648	31.304	
C	-0.2688164779	 1.4859952601	 0.1077116452	-0.384494
C	 0.1127698084	 0.0011127895	-0.0181654728	-0.305456
C	 0.7763700653	-0.530664077	 1.2138707751	 0.310682
N	 2.0536794603	-0.815416397	 1.2209548614	-0.195991
O	 2.3456708863	-1.2657204738	 2.5126818208	-0.163439
C	 1.2307210399	-1.2393349505	 3.2422626545	-0.015717
C	 0.1787041941	-0.7848769415	 2.5006021936	-0.041983
C	-1.1683097227	-0.6125437471	 2.8843339772	 0.246703
C	-2.323539319	-0.4601940997	 3.1882676631	-0.449133
H	 0.6186645498	 2.1022088031	 0.2782645902	 0.13081
H	-0.7542258659	 1.8317566296	-0.8094281217	 0.120099
H	-0.9607802891	 1.645110766	 0.9393998772	 0.13576
H	-0.7875975007	-0.5921829621	-0.2148023522	 0.122819
H	 0.7933009104	-0.1462314715	-0.8612798085	 0.130868
H	 1.3145716796	-1.5690899296	 4.2660144001	 0.16301
H	-3.3406636388	-0.3288953385	 3.4636297469	 0.195461
61.7537	121.2516	164.2115	178.0837	221.8894	327.6076	378.9325	494.1625	523.2054	569.6551	584.2226	612.0054	663.5397	676.6678	751.6864	795.9453	850.5476	897.1862	933.5738	978.4571	1078.8516	1097.8193	1165.4451	1191.9867	1280.3747	1295.7507	1350.2446	1400.8368	1415.6533	1478.533	1498.006	1504.3568	1522.7318	1624.983	2237.0133	3043.2961	3045.7595	3095.7624	3117.5752	3125.3262	3269.1832	3502.1487
CCC1=NOC=C1C#C	CCc1nocc1C#C	
InChI=1S/C7H7NO/c1-3-6-5-9-8-7(6)4-2/h1,5H,4H2,2H3	InChI=1S/C7H7NO/c1-3-6-5-9-8-7(6)4-2/h1,5H,4H2,2H3
