23
gdb 79921	2.23239	1.51555	1.18198	0.2862	91.72	-0.2111	0.0255	0.2365	1214.479	0.205653	-351.137211	-351.128094	-351.12715	-351.170265	36.114	
C	-0.2987342566	 1.5551978055	 1.1046258646	-0.431786
C	-0.1168434951	 0.1003078274	 0.7050761968	 0.061537
C	 0.9303123769	-0.3363926616	-0.3856476491	-0.094875
C	 2.2361669783	 0.1505831175	 0.2514563242	-0.203887
C	 2.1201813525	-0.2158675594	 1.5346087157	 0.350253
C	 3.0378786971	-0.0561151469	 2.6966617782	-0.521394
C	 0.7405731077	-0.8982143813	 1.5671845525	-0.148775
C	 0.8561538973	-1.7776333691	 0.2591476287	 0.063778
C	-0.2835668798	-2.717753282	-0.1167844486	-0.439241
H	 0.6549277172	 2.0409819135	 1.3254759233	 0.116586
H	-0.7866539449	 2.1171342688	 0.2999225442	 0.109629
H	-0.9381469568	 1.6359900503	 1.99129525	 0.108136
H	-1.0993626724	-0.3289551428	 0.4896044833	 0.064966
H	 0.7673685023	-0.1650099882	-1.4510549336	 0.048533
H	 3.0499289214	 0.6599840603	-0.2465689765	 0.088663
H	 3.9628545899	 0.4516005784	 2.4071884068	 0.122411
H	 2.56997629	 0.525420942	 3.5019256117	 0.124285
H	 3.3069935762	-1.0266981324	 3.1337477532	 0.123938
H	 0.3848635166	-1.3056883495	 2.5161483488	 0.046459
H	 1.8040453053	-2.320123496	 0.1936872873	 0.062348
H	-1.2724735741	-2.2545168246	-0.0754503922	 0.118291
H	-0.1396217316	-3.0982782763	-1.1344974754	 0.115442
H	-0.2967847075	-3.5840052635	 0.5547194162	 0.114702
138.3491	181.2647	183.6413	212.8356	220.0563	240.9436	285.8376	334.9479	361.2588	505.3478	552.0667	596.4398	618.6425	736.8919	752.4211	807.3766	818.7426	830.4547	868.8805	928.2225	984.8814	996.6998	1025.0913	1045.9739	1058.7386	1067.4546	1074.1434	1099.7962	1110.5723	1147.8461	1172.6301	1220.2733	1224.3252	1237.6252	1247.064	1260.3824	1314.9364	1379.5247	1392.7894	1404.1756	1412.5998	1421.0146	1476.8634	1487.5702	1491.0687	1495.8342	1499.2518	1503.2825	1685.8191	3010.1384	3028.3847	3029.215	3053.2164	3055.8825	3065.4847	3084.409	3085.3757	3090.4192	3100.7233	3101.2104	3114.3119	3119.6982	3220.054
CC1C2C=C(C)C1C2C	C[C@H]1[C@H]2C=C(C)[C@@H]1[C@H]2C	
InChI=1S/C9H14/c1-5-4-8-6(2)9(5)7(8)3/h4,6-9H,1-3H3	InChI=1S/C9H14/c1-5-4-8-6(2)9(5)7(8)3/h4,6-9H,1-3H3/t6-,7-,8-,9+/m0/s1
