14
gdb 80353	2.2794	1.55739	1.36296	3.6597	61.75	-0.2556	-0.017	0.2385	986.8229	0.0992	-473.764546	-473.756414	-473.75547	-473.79714	30.174	
O	 0.1085668666	 1.356699654	-0.0387567806	-0.421393
C	-0.0398226767	-0.019995201	-0.0285950984	 0.048252
C	-0.4638040427	-0.7946400629	 1.1788446849	-0.032742
O	-1.3890283715	 0.0128512428	 1.9337658286	-0.298796
C	-2.3740761475	-0.0655486943	 0.8674325367	-0.082705
C	-2.9375202606	 1.2285444558	 0.4815530447	 0.273789
N	-3.4114835934	 2.235625076	 0.1705304872	-0.313568
C	-1.3643630838	-0.7654115792	-0.055882035	 0.253706
O	-1.7090008243	-1.7618667748	-0.9309332593	-0.442823
H	-0.2345087714	 1.6936045529	 0.799485233	 0.306569
H	 0.7111155902	-0.5222674789	-0.6346102882	 0.126385
H	 0.0748766089	-1.5697343284	 1.7097445989	 0.12922
H	-3.1833038597	-0.7454930789	 1.1558427312	 0.148207
H	-1.6851264142	-1.4098972032	-1.8284591939	 0.3059
111.1072	132.6498	199.2986	250.1633	290.9217	327.5549	355.8407	393.3882	465.8375	529.0121	572.9091	636.99	688.1185	801.2606	834.0703	926.2239	948.3264	983.6368	1008.0528	1024.0069	1096.9896	1124.6474	1188.1374	1219.3258	1261.1102	1286.7899	1338.661	1347.6072	1389.9483	1485.8264	2355.3281	3058.0764	3150.4345	3197.8825	3772.5456	3790.9861
OC1C2OC(C#N)C12O	O[C@H]1[C@H]2O[C@@H](C#N)[C@@]12O	
InChI=1S/C5H5NO3/c6-1-2-5(8)3(7)4(5)9-2/h2-4,7-8H	InChI=1S/C5H5NO3/c6-1-2-5(8)3(7)4(5)9-2/h2-4,7-8H/t2-,3-,4+,5+/m0/s1
