16
gdb 75131	3.00641	1.29168	0.98189	5.8902	76.88	-0.2617	-0.0633	0.1985	1185.92	0.124175	-400.807918	-400.799391	-400.798447	-400.841799	30.513	
C	-0.0686405082	 1.5362123772	 0.0306695661	-0.492303
C	-0.0097660365	 0.0453675837	-0.0398914751	 0.211029
C	-0.0814367819	-0.7642755891	-1.1056249908	-0.151803
C	 0.0445283798	-2.2307313759	-0.7871031723	-0.287332
C	 0.1059836457	-2.2690200863	 0.7612866438	-0.260957
C	 1.2084329255	-3.0499952888	 1.3012881136	 0.284218
N	 2.0934060245	-3.6712688481	 1.7092895493	-0.321575
C	 0.1674914074	-0.7647922853	 1.1881382752	 0.332845
O	 0.3071168022	-0.3650858253	 2.3145551855	-0.305075
H	 0.8425217431	 1.9326788277	 0.4909421256	 0.152933
H	-0.1870082293	 1.9835919565	-0.9587717704	 0.127358
H	-0.9002421421	 1.8595562038	 0.6658276189	 0.148064
H	-0.2065266329	-0.4237240068	-2.1285617438	 0.12084
H	-0.7990719524	-2.8092799812	-1.1782862449	 0.13446
H	 0.9480467991	-2.6560893706	-1.2373770301	 0.150442
H	-0.827827254	-2.6667748616	 1.1751254192	 0.156858
45.2619	114.7078	138.2839	213.1809	245.8183	259.03	351.0248	425.6561	484.4343	567.4767	574.7458	672.288	698.9843	819.4121	839.6714	907.9629	933.7584	1017.3079	1037.4505	1044.6713	1069.8601	1079.5085	1166.6384	1207.2621	1238.94	1297.4922	1328.0007	1348.8369	1416.2056	1473.6612	1479.9019	1484.4131	1700.9821	1826.6271	2360.9569	3041.04	3046.7011	3052.8856	3080.6688	3096.6517	3128.7831	3189.2565
CC1=CCC(C#N)C1=O	CC1=CC[C@@H](C#N)C1=O	
InChI=1S/C7H7NO/c1-5-2-3-6(4-8)7(5)9/h2,6H,3H2,1H3	InChI=1S/C7H7NO/c1-5-2-3-6(4-8)7(5)9/h2,6H,3H2,1H3/t6-/m0/s1
