21
gdb 40600	3.46419	1.28073	1.13298	0.2611	85.11	-0.2027	0.0752	0.2779	1164.0413	0.183545	-349.854862	-349.847068	-349.846124	-349.88744	31.777	
C	 0.262150107	 1.6088549617	 0.2303952354	-0.290108
C	 1.3713753687	 0.7142493171	-0.2533921807	-0.242581
C	-0.0153340563	 0.1502031255	-0.0506921373	-0.032122
C	-0.3280189912	-0.7646796231	 1.1117003719	-0.020403
C	-0.8730894159	-2.1725093052	 1.1221382722	-0.102974
C	-0.2079920599	-3.2098249944	 0.1753282336	-0.054485
C	 0.9152515906	-2.6844832839	-0.6772214418	-0.299562
C	 1.1462546725	-2.9103929414	 0.7933463666	-0.051678
C	 0.4876176595	-1.87192532	 1.745345959	-0.093101
H	 0.2844288692	 1.9215754369	 1.2700565017	 0.107835
H	-0.139831986	 2.3526766468	-0.4488986148	 0.108263
H	 1.7381024994	 0.84292982	-1.2664338981	 0.10773
H	 2.1303248182	 0.4159972811	 0.4620106603	 0.117835
H	-0.5864192075	-0.0470380113	-0.9534193058	 0.093607
H	-0.8242126119	-0.2167079176	 1.9147405037	 0.090043
H	-1.7996779478	-2.4033256532	 1.6340600591	 0.082726
H	-0.6589275053	-4.1769355226	-0.0062270378	 0.084531
H	 1.3696040738	-3.4480646202	-1.30373947	 0.104762
H	 0.9097286984	-1.7020773394	-1.1247523981	 0.123234
H	 1.8851354194	-3.61497028	 1.1529004178	 0.084458
H	 0.7407556249	-1.8446495966	 2.7984225629	 0.08199
54.1163	141.4102	176.7314	297.6739	324.774	396.8736	523.4912	631.7071	690.4512	696.4418	704.3807	751.3719	790.7962	831.0177	861.1313	864.3034	891.224	905.5985	922.1495	939.7869	976.959	1010.4459	1019.5624	1032.3496	1055.7368	1059.4655	1075.61	1079.6697	1088.6709	1104.8303	1123.8802	1148.5625	1186.8745	1201.7764	1217.9915	1242.8936	1264.0562	1297.3256	1324.5907	1355.654	1373.9476	1444.7491	1467.655	1494.6679	1502.4278	3084.5937	3123.607	3129.983	3133.6819	3142.0951	3169.1327	3179.612	3186.299	3197.3802	3203.2618	3220.2203	3251.1125
C1CC1C1C2C3CC3C12	C1CC1[C@H]1[C@H]2[C@H]3C[C@H]3[C@@H]12	
InChI=1S/C9H12/c1-2-4(1)7-8-5-3-6(5)9(7)8/h4-9H,1-3H2	InChI=1S/C9H12/c1-2-4(1)7-8-5-3-6(5)9(7)8/h4-9H,1-3H2/t5-,6+,7-,8+,9-
