17
gdb 119557	3.13255	1.04798	0.86576	3.091	68.18	-0.2666	-0.0015	0.2651	1314.0565	0.134954	-458.952226	-458.943584	-458.942639	-458.98634	31.373	
O	 0.0653047204	 1.4843657159	-0.2235677042	-0.415627
C	 0.0265897548	 0.0687959458	-0.2093618501	-0.06265
C	-1.375822073	-0.4713782018	 0.1124601589	-0.338122
C	-1.4180360462	-1.9721204405	 0.0984250502	 0.121836
C	-1.6195095455	-2.8429023296	-1.160354819	-0.332636
C	-2.5112262387	-3.0109985736	 0.0114220996	 0.031013
O	-1.8465301913	-3.8595123954	 0.9908209601	-0.265691
C	-0.8680335777	-2.8876391459	 1.1667347856	 0.44052
O	 0.0072721761	-2.8759169241	 1.9702509441	-0.330499
H	-0.0244152034	 1.7930677218	 0.6835574957	 0.285409
H	 0.3225048974	-0.2514222365	-1.2140189294	 0.115586
H	 0.754994257	-0.3550485432	 0.4967834527	 0.119256
H	-1.6831847543	-0.1048883413	 1.1008777699	 0.106831
H	-2.0881260431	-0.0651849473	-0.6141420968	 0.11426
H	-2.0251086701	-2.291295649	-2.0041834836	 0.134126
H	-0.9187427673	-3.6319492767	-1.4137863186	 0.140603
H	-3.587013455	-2.9321990187	 0.0740258948	 0.135785
60.528	96.9046	118.6576	192.3798	262.8583	293.9538	342.7268	365.4396	468.2213	513.72	679.431	749.5181	779.015	788.5291	846.8641	907.7432	916.8592	937.097	1000.5375	1024.6827	1040.4948	1068.6336	1072.4181	1086.7399	1100.8787	1170.5882	1241.261	1275.785	1306.7748	1330.2304	1393.7094	1407.6944	1419.7907	1481.7514	1484.9805	1513.2398	1934.2454	3007.0391	3021.2314	3065.3976	3086.0025	3121.5488	3213.7131	3229.5793	3818.4705
OCCC12CC1OC2=O	OCC[C@]12C[C@H]1OC2=O	
InChI=1S/C6H8O3/c7-2-1-6-3-4(6)9-5(6)8/h4,7H,1-3H2	InChI=1S/C6H8O3/c7-2-1-6-3-4(6)9-5(6)8/h4,7H,1-3H2/t4-,6+/m1/s1
