15
gdb 49213	4.84859	1.02072	0.84759	1.9858	74.03	-0.2358	-0.053	0.1828	1256.8685	0.114615	-454.020281	-454.0122	-454.011256	-454.054791	28.849	
O	-0.0912604895	-0.0420637385	-0.0025382646	-0.301032
C	-0.0248998492	 1.1718084231	 0.0086171499	 0.095414
C	 1.218777956	 1.9169594166	 0.0022534199	 0.118019
C	 1.2069956975	 3.2654481422	 0.0157409352	-0.015407
N	 2.3522908335	 4.0072939399	 0.0104676359	-0.369537
C	 3.6388799663	 3.4413923859	-0.0133272902	 0.473644
O	 4.6271948541	 4.1457774324	-0.0195341647	-0.393801
N	 3.6544309547	 2.0809519863	-0.0287293703	-0.369366
C	 2.5185826241	 1.1589232842	-0.0189698584	-0.24525
H	-0.9440870996	 1.8009366194	 0.0249027198	 0.060306
H	 0.2761832798	 3.8239225537	 0.0316072377	 0.137035
H	 2.3373434104	 5.0138387115	 0.0198295601	 0.272853
H	 4.5850896005	 1.6951071566	-0.0449725613	 0.263227
H	 2.5757115426	 0.4940096478	 0.8536543145	 0.136813
H	 2.5528885689	 0.5045004588	-0.9005372334	 0.137081
14.7297	94.3229	172.7303	184.9765	359.5522	402.5234	433.1848	457.3841	501.1941	587.5208	597.6845	649.5986	758.2599	787.1534	826.3246	916.8803	978.8922	1021.7857	1049.4073	1089.3017	1199.0573	1234.5279	1247.3481	1296.3769	1396.5572	1410.3494	1443.6842	1474.9954	1492.8864	1528.7148	1718.153	1768.2444	1829.9965	2867.1799	3004.5211	3022.0223	3184.6722	3644.9411	3662.4511
O=CC1=CNC(=O)NC1	O=CC1=CNC(=O)NC1	
InChI=1S/C5H6N2O2/c8-3-4-1-6-5(9)7-2-4/h1,3H,2H2,(H2,6,7,9)	InChI=1S/C5H6N2O2/c8-3-4-1-6-5(9)7-2-4/h1,3H,2H2,(H2,6,7,9)
