16
gdb 124314	4.7152	1.00008	0.88633	4.8197	71.46	-0.2516	-0.0362	0.2154	1292.2929	0.123929	-434.081619	-434.073204	-434.072259	-434.116115	29.474	
C	 0.0655478505	 1.4672835021	-0.1840305486	-0.479115
C	 0.0673111363	 0.017831045	 0.2526459578	 0.375516
O	 0.9455314176	-0.4720978285	 0.9171720315	-0.274493
C	-1.1613112426	-0.7894191362	-0.1914221623	-0.265084
N	-1.0002522284	-2.2172844929	-0.0848790684	 0.078002
C	-0.6801563787	-2.9864237804	 0.9829044864	-0.081576
C	-0.6820443681	-4.2663874073	 0.4856904538	-0.069548
N	-0.9938929802	-4.2208859975	-0.8395807407	-0.18898
N	-1.1870462931	-2.9843370782	-1.1873686565	-0.147273
H	 0.8449688931	 2.0149640956	 0.3461072173	 0.155229
H	 0.2563186901	 1.5210123802	-1.2625038984	 0.159305
H	-0.910087186	 1.9332959325	-0.0087767799	 0.142448
H	-2.0137768162	-0.4480214438	 0.4124915992	 0.151278
H	-1.4047584752	-0.5799653031	-1.2361383271	 0.163455
H	-0.4635154164	-2.5701753263	 1.9503586552	 0.154921
H	-0.4762637326	-5.1965448112	 0.9895456307	 0.125915
47.0396	57.7279	123.2269	126.6102	278.4174	323.3418	343.1886	467.5951	571.6649	645.5237	715.767	778.4833	791.4462	812.5182	854.7373	861.7635	957.3405	979.8034	1037.4006	1059.9683	1095.5872	1138.3136	1163.7886	1191.8634	1295.43	1312.3353	1344.9793	1374.88	1387.4923	1450.6333	1463.2672	1475.2849	1503.3134	1526.4053	1831.7244	3020.2515	3038.0119	3098.4226	3112.516	3158.1787	3273.6639	3308.5595
CC(=O)CN1C=CN=N1	CC(=O)Cn1ccnn1	
InChI=1S/C5H7N3O/c1-5(9)4-8-3-2-6-7-8/h2-3H,4H2,1H3	InChI=1S/C5H7N3O/c1-5(9)4-8-3-2-6-7-8/h2-3H,4H2,1H3
