21
gdb 122390	3.0774	1.10049	0.95864	1.9541	78.77	-0.2475	0.0704	0.318	1310.7757	0.182881	-424.179276	-424.170387	-424.169443	-424.213471	33.547	
O	-0.1143800429	 1.2389172816	-0.9178906597	-0.418864
C	-0.2741037611	 0.1933202976	 0.0226356641	-0.06768
C	-1.7114667107	-0.3002196776	 0.0625168653	-0.071805
O	-2.0256051978	-0.7587994679	-1.2471332857	-0.269719
C	-3.3937784693	-0.9288526654	-1.466503254	 0.138222
C	-4.3163766407	 0.2264515479	-1.7264790404	-0.107472
C	-3.5814668204	 1.3310738582	-2.499539575	-0.233794
C	-3.2352381463	 0.3049789602	-3.6248874962	-0.221065
C	-3.9551206808	-0.7965978413	-2.8381979614	-0.110765
H	-0.4597746895	 0.8941593962	-1.7494522175	 0.294004
H	 0.3943964268	-0.6526764353	-0.2017051681	 0.095152
H	 0.0067219184	 0.5931860561	 1.0023405236	 0.108732
H	-1.8272521575	-1.1125605347	 0.7978296538	 0.088582
H	-2.3844308995	 0.5215864151	 0.3444375214	 0.104996
H	-3.8350769554	-1.7303453043	-0.8712258677	 0.084529
H	-5.2455054342	 0.3510005329	-1.1821219356	 0.084451
H	-4.2519642468	 2.1178292843	-2.8500123338	 0.103596
H	-2.7380264597	 1.793537984	-1.978952261	 0.109004
H	-3.7408526348	 0.5412984503	-4.5631824063	 0.10414
H	-2.1763858802	 0.1271635477	-3.8322666504	 0.09931
H	-4.5592904176	-1.5826797655	-3.2765290355	 0.086445
64.1406	77.2728	147.2977	164.9371	263.9652	265.8884	315.4114	432.3244	488.5279	499.5081	620.7365	734.0579	758.7193	798.2325	814.3942	865.585	903.5778	935.403	962.8409	968.0396	1010.3798	1018.3857	1030.9815	1070.8978	1082.5315	1100.6598	1129.2338	1141.8031	1155.107	1218.0359	1234.422	1239.6054	1253.6113	1261.078	1268.9636	1305.1001	1345.8458	1386.6164	1390.9224	1434.3478	1451.8573	1480.3259	1497.5247	1504.1258	1509.9754	2977.3951	2986.7802	3033.8388	3057.6467	3064.4834	3082.1649	3089.5368	3105.0726	3123.4325	3169.122	3180.2255	3802.5216
OCCOC1C2CCC12	OCCO[C@H]1[C@H]2CC[C@@H]12	
InChI=1S/C7H12O2/c8-3-4-9-7-5-1-2-6(5)7/h5-8H,1-4H2	InChI=1S/C7H12O2/c8-3-4-9-7-5-1-2-6(5)7/h5-8H,1-4H2/t5-,6+,7-
