22
gdb 13501	2.93873	1.61664	1.19601	1.6707	78.04	-0.2395	0.0785	0.318	1107.7361	0.199096	-350.198553	-350.189172	-350.188228	-350.232458	34.547	
C	 0.9445144606	 1.4451398079	 0.2572867056	-0.391463
C	 0.3248776458	 0.047633017	 0.1112370979	 0.01066
C	-1.2083540055	 0.1110071597	 0.1508959087	-0.39758
C	 0.8027327254	-0.5972520827	-1.1844014516	 0.163061
O	 2.2466338472	-0.6197846991	-1.3095116319	-0.297769
C	 2.2224314679	-1.9741045295	-1.7985252649	-0.077904
C	 0.7323082052	-2.1362832154	-1.4270998815	-0.051984
C	 0.4721128841	-3.0507020663	-0.2351293429	-0.408779
H	 2.0345617722	 1.3926282555	 0.2079013003	 0.136642
H	 0.6008893947	 2.1109472259	-0.5436507741	 0.108501
H	 0.6599272758	 1.8987036577	 1.2122483324	 0.105435
H	 0.6757731593	-0.5660817025	 0.9503151952	 0.071874
H	-1.5940537367	 0.7336458817	-0.665090654	 0.114327
H	-1.665666793	-0.8790211023	 0.0579041808	 0.114244
H	-1.5533103815	 0.5501107204	 1.0922371924	 0.115003
H	 0.3668368872	-0.0421515585	-2.0324817631	 0.059862
H	 2.4392591551	-2.0246970296	-2.8744692388	 0.09275
H	 2.9313297725	-2.6171156792	-1.2622393094	 0.097715
H	 0.0850165384	-2.4174265245	-2.2618719126	 0.07304
H	 1.1326617011	-2.8150449572	 0.6052219429	 0.126839
H	-0.5617304807	-2.9848577147	 0.1176594875	 0.120162
H	 0.6577009348	-4.0933249945	-0.516028549	 0.115365
67.353	100.6284	158.4019	210.4015	230.0841	242.5535	258.4581	310.3843	351.57	406.2846	459.9515	500.7446	772.7139	791.1491	869.0886	885.5536	923.9923	931.3463	952.8155	979.6811	1019.5633	1022.6481	1052.0331	1116.1189	1127.7381	1155.0515	1179.9964	1200.6157	1208.5489	1262.0619	1286.529	1316.0073	1343.0363	1354.9254	1377.4481	1395.2761	1406.3385	1413.9114	1424.0993	1488.2154	1488.9983	1496.1167	1500.1893	1503.5903	1513.4132	1526.8501	2950.9309	3000.4619	3026.8423	3026.9975	3032.3268	3034.4427	3046.8863	3069.5933	3090.0827	3094.3777	3097.9374	3103.9412	3109.8622	3126.0671
CC(C)C1OCC1C	CC(C)[C@H]1OC[C@H]1C	
InChI=1S/C7H14O/c1-5(2)7-6(3)4-8-7/h5-7H,4H2,1-3H3	InChI=1S/C7H14O/c1-5(2)7-6(3)4-8-7/h5-7H,4H2,1-3H3/t6-,7-/m1/s1
