17
gdb 70947	3.57974	1.33355	1.10817	2.5448	74.43	-0.248	-0.0269	0.2212	1081.6891	0.134914	-421.75912	-421.751319	-421.750375	-421.791385	30.114	
O	-0.0695358074	 1.3148621564	 0.0422501982	-0.471688
C	 0.0569353147	-0.0567748734	 0.0552228218	 0.406829
C	 0.7765082249	-0.9657638288	 1.0706142716	-0.381492
C	 0.1009069331	-1.9270073848	 0.0777320849	 0.277252
C	 0.1052217241	-3.4050351261	 0.066342351	 0.026864
O	 0.695536311	-4.0899866731	 0.8671080942	-0.255557
C	-1.1751155509	-1.0010362049	-0.0909872179	-0.121387
C	-1.0916269154	-1.0073548966	-1.629781865	-0.276492
C	 0.3797498303	-1.0001163845	-1.1734927053	-0.156363
H	 0.8107538132	 1.7065721638	 0.051823941	 0.287969
H	 1.8707445346	-0.9552961708	 1.0654658354	 0.10023
H	 0.388619393	-0.9689141553	 2.09295705	 0.109235
H	-0.4880909556	-3.8668175215	-0.7554837361	 0.072019
H	-2.0458996363	-1.0235938719	 0.5656695472	 0.088195
H	-1.4513996562	-1.9005707353	-2.1471848304	 0.10028
H	-1.4447043062	-0.1036999113	-2.1326105815	 0.112177
H	 1.297687669	-1.0193638218	-1.7636305991	 0.081928
90.6339	155.1648	223.1058	248.5451	307.6877	387.5697	400.3879	430.6645	507.6338	644.2032	677.1745	696.5654	806.7341	864.9239	898.923	917.5408	931.7843	993.6887	1024.3425	1028.5605	1053.8352	1082.3256	1109.631	1115.6801	1133.0777	1137.234	1169.9023	1183.0474	1233.1769	1268.3787	1283.1442	1336.254	1391.3684	1428.454	1509.1068	1517.4631	1806.7073	2868.2751	3050.4564	3057.889	3101.7816	3111.4221	3113.1187	3116.4816	3806.4057
OC12CC3(C=O)C1CC23	O[C@@]12C[C@@]3(C=O)[C@@H]1C[C@@H]23	
InChI=1S/C7H8O2/c8-3-6-2-7(9)4(6)1-5(6)7/h3-5,9H,1-2H2	InChI=1S/C7H8O2/c8-3-6-2-7(9)4(6)1-5(6)7/h3-5,9H,1-2H2/t4-,5+,6+,7-
