20
gdb 10205	3.13846	1.05925	0.84111	1.4818	72.31	-0.2478	-0.0213	0.2266	1381.4163	0.173984	-386.149787	-386.13955	-386.138606	-386.18606	34.888	
C	-0.0169207016	 1.5568413341	 0.1363569843	-0.392562
C	-0.0029292675	 0.0320681296	-0.0070287765	-0.195306
C	 0.721131255	-0.4672272473	-1.2767899636	-0.060639
C	 0.8655802472	-2.0004918542	-1.2697590815	-0.196639
C	 1.716197936	-2.5377682429	-2.4155187875	-0.085233
O	 1.7763127844	-3.9480955559	-2.2760865358	-0.419808
C	-0.0657855219	-0.0366937309	-2.4995086177	 0.17079
O	 0.3173583945	 0.7133485674	-3.3597655943	-0.257636
H	 1.0014781766	 1.9560190241	 0.1892799874	 0.122637
H	-0.5132120043	 2.0405395511	-0.7111908241	 0.130232
H	-0.5425686361	 1.8578830216	 1.0473896395	 0.117065
H	 0.4870490056	-0.4180782526	 0.86410598	 0.105829
H	-1.0315093122	-0.3537493033	-0.0079449607	 0.102628
H	 1.7093569113	 0.0038500252	-1.3432530577	 0.089518
H	 1.3156397306	-2.3183541783	-0.3228395017	 0.11242
H	-0.124745921	-2.4718856477	-1.3161577069	 0.10989
H	 1.2759151823	-2.2504575273	-3.3839288608	 0.09765
H	 2.7206978193	-2.0861693608	-2.372957269	 0.091973
H	 2.3027685298	-4.3001965238	-2.9996049223	 0.288153
H	-1.0890203578	-0.4862978179	-2.545457011	 0.06904
48.0478	73.4729	83.6137	107.2878	134.5195	219.6137	266.847	273.6205	322.8102	340.3285	368.0979	469.6238	571.0516	769.8284	780.5684	886.6556	933.0416	982.2677	1006.3418	1028.8378	1040.6466	1075.3325	1120.1043	1133.5391	1171.6507	1220.659	1242.3313	1271.6554	1299.2706	1309.9851	1352.0822	1357.3114	1370.6834	1416.6678	1423.7807	1466.6009	1482.6204	1494.5688	1499.1904	1504.7699	1526.4654	1831.9188	2825.3479	2965.2755	2991.2725	3017.7097	3029.0862	3036.5722	3043.4574	3059.0265	3078.0775	3104.9702	3109.5587	3831.677
CCC(CCO)C=O	CC[C@@H](CCO)C=O	
InChI=1S/C6H12O2/c1-2-6(5-8)3-4-7/h5-7H,2-4H2,1H3	InChI=1S/C6H12O2/c1-2-6(5-8)3-4-7/h5-7H,2-4H2,1H3/t6-/m0/s1
