15
gdb 57589	1.95151	1.55766	1.40795	1.0426	62.46	-0.2561	-0.1131	0.143	1030.9453	0.107203	-494.918024	-494.908244	-494.9073	-494.953183	33.547	
C	-0.306287139	 1.680824354	 0.2766591561	-0.416087
C	 0.148920699	 0.2471768298	 0.0192946563	 0.145093
O	 1.1808934577	-0.0554940728	 0.9462958275	-0.460466
C	-1.03406724	-0.7034463868	 0.2276238308	 0.123061
O	-1.676818465	-1.1843937543	-0.6690141254	-0.250987
C	 0.6699743178	 0.069001752	-1.4192458543	 0.300798
O	 0.6232448393	 0.9055519356	-2.2835805565	-0.272155
C	 1.323569013	-1.2830391346	-1.7481589763	 0.106486
O	 1.552526598	-2.1325022958	-0.9228468929	-0.247588
H	 0.552172364	 2.351249242	 0.1926673715	 0.147085
H	-1.0620071349	 1.9829359894	-0.4503040568	 0.149006
H	-0.7156842986	 1.7628219545	 1.2868861477	 0.133118
H	 1.4598699033	-0.96771837	 0.7790943674	 0.303549
H	-1.2388653886	-0.9148605116	 1.300462171	 0.103483
H	 1.5761006841	-1.3962577713	-2.820671816	 0.135605
61.9214	72.4977	124.6984	145.1597	190.2639	217.101	270.8093	311.9634	335.7043	391.1417	451.6039	501.3488	584.4858	631.8936	656.1221	694.04	911.7153	938.8318	989.7761	1010.6806	1087.3034	1172.9655	1179.594	1234.6876	1360.8605	1375.7442	1401.8837	1408.9365	1475.4835	1489.123	1802.5168	1813.1839	1832.232	2899.6397	2958.92	3056.9246	3133.5688	3150.8195	3730.4812
CC(O)(C=O)C(=O)C=O	C[C@@](O)(C=O)C(=O)C=O	
InChI=1S/C5H6O4/c1-5(9,3-7)4(8)2-6/h2-3,9H,1H3	InChI=1S/C5H6O4/c1-5(9,3-7)4(8)2-6/h2-3,9H,1H3/t5-/m1/s1
