20
gdb 119251	1.72568	1.49793	0.90956	4.076	77.06	-0.2327	-0.0042	0.2285	1332.1693	0.168444	-440.252966	-440.242917	-440.241973	-440.289033	35.248	
C	-0.2054551972	 1.486037247	-0.0822578485	-0.228903
O	-0.1977885485	 0.0874360961	-0.2641685118	-0.230502
C	-1.3993684749	-0.5403989531	 0.1308099094	-0.13753
C	-1.1728605995	-2.0339013023	 0.11810686	 0.306694
C	-0.15224199	-2.5406726418	 1.1238691205	-0.332544
C	 1.258851771	-2.0418979654	 0.8595598258	 0.173352
O	 2.0127823131	-1.6677385009	 1.7212623133	-0.260082
C	-2.305088211	-2.8984824583	-0.3054411416	-0.295221
N	-1.1394223957	-2.7231963501	-1.1848245054	-0.338804
H	 0.7711839895	 1.8591902634	-0.3970869104	 0.138267
H	-0.9862638446	 1.9693313627	-0.6898450612	 0.106081
H	-0.3692394972	 1.7561755563	 0.9717402538	 0.114071
H	-1.6912111007	-0.2095800577	 1.1421086451	 0.09749
H	-2.2218602786	-0.2687574898	-0.5532226714	 0.082982
H	-0.4288680182	-2.2788428514	 2.1501637562	 0.113926
H	-0.1150733018	-3.635337228	 1.0504832644	 0.12821
H	 1.5671536509	-2.0918768024	-0.2054091387	 0.090991
H	-2.4123128596	-3.8904622213	 0.12459606	 0.121351
H	-3.2435824026	-2.4208729759	-0.575854168	 0.113928
H	-1.3518852245	-2.0690689571	-1.9340415615	 0.236244
51.4297	61.3577	106.6096	117.8174	168.1727	220.7183	263.5704	297.8564	358.5238	369.5383	430.6434	500.7111	526.1996	754.229	794.3471	878.8227	921.8352	939.5247	963.2072	990.8032	1009.4459	1060.5595	1084.967	1086.5943	1139.7619	1162.0694	1182.6641	1205.4019	1225.4485	1247.8232	1259.7225	1293.6662	1347.5039	1389.0722	1421.7557	1428.4627	1447.5512	1480.1421	1486.5851	1498.998	1514.8847	1518.2574	1828.7824	2918.5587	2947.3975	2978.6294	2981.2405	3027.4049	3030.8674	3092.9986	3106.9941	3126.1465	3191.1475	3501.1635
COCC1(CC=O)CN1	COC[C@@]1(CC=O)CN1	
InChI=1S/C6H11NO2/c1-9-5-6(2-3-8)4-7-6/h3,7H,2,4-5H2,1H3	InChI=1S/C6H11NO2/c1-9-5-6(2-3-8)4-7-6/h3,7H,2,4-5H2,1H3/t6-/m1/s1
