27
gdb 104169	3.00111	0.95727	0.92316	0.0472	95.56	-0.2921	0.0775	0.3696	1512.2713	0.252335	-353.589321	-353.578881	-353.577937	-353.624454	40.596	
C	 0.1311906317	 1.5739013933	 0.0914519428	-0.396082
C	-0.0222066502	 0.0534528941	-0.0282424488	-0.219972
C	-1.4678989681	-0.4919774021	 0.0008831346	 0.363248
C	-2.2071258053	-0.0105192947	 1.2618349711	-0.441165
C	-2.2731796961	-0.0999401364	-1.2887719255	-0.261308
C	-2.5423439114	-1.4102712068	-2.0525587046	-0.20261
C	-2.5997281144	-2.4808992055	-0.9511525647	 0.048752
C	-2.518980673	-3.9225821683	-1.4478289684	-0.406782
C	-1.4421340665	-2.0502559094	-0.03528746	-0.250589
H	 1.1817659718	 1.8632756118	-0.0125739388	 0.110225
H	-0.4329012428	 2.1020180607	-0.684807798	 0.115703
H	-0.2152686226	 1.9432475249	 1.0613660974	 0.117121
H	 0.4495913023	-0.2809787221	-0.9619322696	 0.087846
H	 0.5449168198	-0.4256726456	 0.7816782897	 0.088987
H	-2.3888705736	 1.0685866432	 1.238291408	 0.11193
H	-3.1815581774	-0.5028673384	 1.352947557	 0.107701
H	-1.6344321518	-0.2357495747	 2.1693312014	 0.105643
H	-3.2223416311	 0.3694771187	-1.0072455786	 0.090874
H	-1.7378987033	 0.6306752992	-1.9025756422	 0.090834
H	-3.4483216356	-1.3694827873	-2.6657473936	 0.087437
H	-1.7076886838	-1.6385001486	-2.7292321575	 0.089642
H	-3.5445265782	-2.3533496844	-0.402483586	 0.067057
H	-1.5916216736	-4.0909488557	-2.0085603779	 0.109594
H	-2.5380359309	-4.6355979085	-0.6164427966	 0.109629
H	-3.3567235553	-4.1643281569	-2.1110636298	 0.109095
H	-0.4975519352	-2.3971893382	-0.4761603549	 0.082603
H	-1.5025606952	-2.4873974124	 0.9672137236	 0.084586
43.089	125.9919	140.8675	205.2022	230.4562	242.7964	276.6523	297.8524	327.8163	358.4573	403.5573	410.8649	454.2509	544.2842	583.8355	731.8083	788.7438	816.5625	860.9351	874.6928	908.4099	924.7397	950.1255	964.2991	996.4964	1017.6208	1019.6939	1050.741	1072.9689	1093.2744	1116.3093	1149.304	1180.7104	1215.246	1235.3133	1263.6139	1268.0689	1301.4399	1322.5367	1331.082	1348.5621	1358.8354	1369.2817	1389.6249	1410.2429	1411.5732	1416.0753	1479.9568	1486.468	1489.9943	1494.9662	1497.1069	1498.7966	1502.0861	1504.6236	1510.5463	1512.3115	2991.3512	3004.5709	3012.544	3018.1687	3022.5191	3024.6473	3034.7754	3038.4553	3038.6972	3066.9446	3072.1461	3082.3015	3087.7269	3090.0146	3092.2805	3096.0847	3099.7266	3107.3633
CCC1(C)CCC(C)C1	CC[C@@]1(C)CC[C@@H](C)C1	
InChI=1S/C9H18/c1-4-9(3)6-5-8(2)7-9/h8H,4-7H2,1-3H3	InChI=1S/C9H18/c1-4-9(3)6-5-8(2)7-9/h8H,4-7H2,1-3H3/t8-,9+/m1/s1
