19
gdb 90832	3.0013	1.8883	1.43685	2.0409	77.89	-0.228	0.0747	0.3027	950.7858	0.160295	-385.785577	-385.778692	-385.777748	-385.816474	28.87	
C	-0.2031002023	 1.5034864715	-0.0100928584	-0.40647
C	 0.0668735179	 0.0025610271	 0.0737911107	-0.118467
C	 1.0541441738	-0.5571674263	-1.0416944803	-0.233935
C	 2.2248522537	-1.1848155825	-0.21164519	-0.107921
C	 1.5221467783	-1.8725983526	 0.9792057053	-0.100833
C	 2.2845044267	-1.175477282	 2.1297956281	 0.000466
O	 1.0598725791	-0.491538529	 2.6684639162	-0.403191
C	 0.9414320424	-0.4530926412	 1.2211409775	 0.499656
C	 2.4523704425	-0.1913296493	 0.9483370445	-0.098686
H	 0.7312608315	 2.0742041583	 0.0166860241	 0.117151
H	-0.723339453	 1.7550706148	-0.9398942015	 0.11551
H	-0.8257684037	 1.8399470323	 0.8248621591	 0.126613
H	-0.8812550177	-0.5453325958	 0.0533636614	 0.082237
H	 0.5630227497	-1.3003076988	-1.6769371766	 0.10443
H	 1.4061007862	 0.2528597957	-1.6889559072	 0.103516
H	 3.0397157174	-1.6448561861	-0.7709651928	 0.066453
H	 0.950328263	-2.7992018472	 1.0218919442	 0.079647
H	 2.984441976	-1.5473239688	 2.8763864917	 0.093243
H	 2.9395935485	 0.7829146098	 0.958510844	 0.080581
155.5226	222.7268	224.8779	352.7096	444.2245	464.9473	541.9523	654.8176	668.0516	737.2886	753.1802	802.7775	819.91	856.6516	893.9501	907.4879	920.9783	932.6123	944.4489	989.0599	1020.016	1050.1768	1069.935	1082.0357	1101.5618	1131.6927	1137.7459	1174.9271	1179.9211	1218.4342	1220.8896	1250.1224	1257.431	1293.2181	1333.2143	1345.036	1385.5305	1413.4493	1491.0665	1496.1726	1499.9387	3032.9931	3043.9102	3050.107	3094.4108	3102.8248	3106.0878	3107.2809	3120.6241	3123.5308	3138.926
CC1CC2C3C4OC13C24	C[C@H]1C[C@@H]2[C@H]3[C@@H]4O[C@]13[C@H]24	
InChI=1S/C8H10O/c1-3-2-4-5-7-6(4)8(3,5)9-7/h3-7H,2H2,1H3	InChI=1S/C8H10O/c1-3-2-4-5-7-6(4)8(3,5)9-7/h3-7H,2H2,1H3/t3-,4-,5+,6-,7+,8-/m0/s1
