22
gdb 98889	3.78238	0.97433	0.80515	3.8109	83.94	-0.2288	0.0398	0.2686	1484.8521	0.195181	-404.404262	-404.394628	-404.393684	-404.439611	34.805	
C	 0.0109267574	 1.5091116792	-0.1764416491	-0.373096
C	-0.0462045995	-0.0037910209	 0.0236066264	-0.302225
C	-1.4825989046	-0.5234326234	 0.0752708125	 0.40274
O	-2.449637048	 0.2235690482	 0.0453009404	-0.384552
N	-1.6335172482	-1.8762223799	 0.1599132753	-0.083605
C	-0.5694054855	-2.8812081815	 0.185564389	-0.158014
C	-1.3132149776	-4.1805122517	 0.5323968004	-0.221263
C	-2.7054151759	-3.9622656147	-0.08326774	-0.223312
C	-2.9734547479	-2.4741603332	 0.1760382263	-0.1449
H	 1.0480353905	 1.8569624487	-0.1889990102	 0.100929
H	-0.464185071	 1.7953618998	-1.1179746975	 0.129157
H	-0.524029031	 2.0253948036	 0.6236158086	 0.134014
H	 0.4971453826	-0.523786767	-0.775919154	 0.113408
H	 0.4620105378	-0.2881544957	 0.9548894273	 0.117302
H	-0.0739085427	-2.9622697754	-0.7931884994	 0.106831
H	 0.2012868884	-2.6348277199	 0.9227123363	 0.112659
H	-0.8005531515	-5.067175747	 0.152500768	 0.106432
H	-1.3950682955	-4.2814707605	 1.6201620368	 0.111858
H	-2.6739635292	-4.1565799946	-1.1611470617	 0.108985
H	-3.4730882352	-4.6078981128	 0.3488611179	 0.107202
H	-3.4539042514	-2.310652099	 1.1496992163	 0.111217
H	-3.6061418117	-1.9989001122	-0.5770302696	 0.128233
50.4827	70.1407	114.444	164.4793	180.8216	212.2345	250.0757	299.9787	365.5987	520.5494	569.1796	584.7555	673.3315	770.0393	817.5215	863.7947	878.5864	920.0443	924.4771	952.696	981.5962	1023.4925	1045.223	1095.669	1099.3386	1147.249	1184.7899	1191.0412	1217.8723	1248.575	1275.0809	1288.2436	1322.5242	1331.3515	1345.9344	1367.806	1377.5021	1412.6717	1437.5275	1462.7055	1489.4582	1489.7248	1497.2198	1498.5742	1519.6026	1531.4065	1749.0781	2989.3141	3018.2187	3019.0606	3044.6932	3048.9864	3050.1299	3051.3138	3066.1399	3097.5624	3105.8617	3113.8689	3121.4522	3133.3145
CCC(=O)N1CCCC1	CCC(=O)N1CCCC1	
InChI=1S/C7H13NO/c1-2-7(9)8-5-3-4-6-8/h2-6H2,1H3	InChI=1S/C7H13NO/c1-2-7(9)8-5-3-4-6-8/h2-6H2,1H3
