19
gdb 90594	2.75768	1.3758	1.04042	2.7734	75.94	-0.2468	-0.0261	0.2208	1176.5757	0.158262	-423.012493	-423.003739	-423.002795	-423.045963	33.027	
C	-1.0143926937	 1.1131748706	 0.2082480264	-0.416642
C	-0.0512076447	-0.0497449078	 0.0256400903	 0.043241
C	 1.1325759289	 0.0707350576	-0.9833034068	-0.272968
C	 2.0798714475	-0.6613193043	 0.0239984297	-0.148301
C	 0.9662089874	-0.4168223269	 1.135632191	-0.084752
C	 1.8243358474	 0.7676865715	 1.7140225688	 0.048289
O	 2.0714850564	 0.8031364831	 3.0916736004	-0.443944
C	 2.9847276001	 0.2023979396	 0.8759528188	 0.354243
O	 4.1568919478	 0.1680150578	 1.1428341183	-0.32565
H	-0.4935009029	 2.0482919073	 0.4378383737	 0.120325
H	-1.5969230608	 1.279011432	-0.7047496966	 0.119476
H	-1.7202057842	 0.9166043773	 1.0224765447	 0.12397
H	-0.6230341764	-0.9524987328	-0.2167746938	 0.082646
H	 1.0033829223	-0.4391448653	-1.9395308374	 0.114989
H	 1.4333405863	 1.1025238294	-1.1876653744	 0.110831
H	 2.4594836875	-1.6372507535	-0.2773091924	 0.093942
H	 0.7193698881	-1.1640255912	 1.8890808629	 0.088507
H	 1.4596947489	 1.743972123	 1.3710174953	 0.095568
H	 3.0137286241	 0.6209349826	 3.2067287511	 0.296227
63.7582	155.6308	177.8981	223.2235	231.7083	265.3524	315.2851	373.8877	400.7443	481.915	594.8434	679.7391	739.3981	792.7503	833.3558	859.0783	875.908	918.2412	928.8621	953.8498	1034.1823	1068.2452	1080.5267	1118.9597	1131.0513	1144.6002	1182.782	1189.3494	1221.6417	1244.9879	1261.6738	1280.9431	1305.442	1354.054	1371.922	1396.8291	1413.1259	1486.4005	1494.9247	1498.3755	1852.4409	3023.251	3031.2827	3038.3226	3060.2553	3095.6581	3102.3216	3113.2175	3121.4993	3128.6827	3756.543
CC1CC2C1C(O)C2=O	C[C@H]1C[C@@H]2[C@H]1[C@@H](O)C2=O	
InChI=1S/C7H10O2/c1-3-2-4-5(3)7(9)6(4)8/h3-5,7,9H,2H2,1H3	InChI=1S/C7H10O2/c1-3-2-4-5(3)7(9)6(4)8/h3-5,7,9H,2H2,1H3/t3-,4+,5-,7+/m0/s1
