18
gdb 37535	3.95113	1.68766	1.44312	2.0017	81.53	-0.2235	0.0039	0.2274	930.635	0.149903	-364.689825	-364.683575	-364.682631	-364.720018	26.846	
C	-0.121777114	 1.5541097173	-0.0291650594	-0.190212
C	 1.3808900842	 1.3286821169	 0.0054822724	-0.112158
C	 1.1904910596	 0.1471123893	 0.9846894187	-0.053426
C	 1.9251036482	-0.8894877965	 0.1157850196	-0.022414
C	 3.3256123879	-0.9309251035	-0.5186197724	-0.339234
C	 2.951719767	-0.7883407878	-2.0075127542	-0.049327
C	 1.7223548758	-0.2815141975	-2.2053835573	-0.27948
C	 1.1865523883	 0.009843039	-0.8484181476	 0.415649
N	-0.0896763517	 0.0293450002	 0.0441176237	-0.231734
H	-0.5906195469	 2.0149054026	 0.8467950457	 0.097359
H	-0.5750289857	 1.9359319572	-0.9496414703	 0.099663
H	 2.2103494697	 2.041948027	-0.0337042354	 0.06584
H	 1.0348168585	 0.1944217631	 2.0647189448	 0.0801
H	 1.4818905696	-1.8887717599	 0.181644744	 0.087566
H	 3.9574570364	-0.0844883748	-0.2174841708	 0.115768
H	 3.8906057994	-1.8428183416	-0.3048360959	 0.107824
H	 3.656397827	-1.0189593659	-2.7997446019	 0.100456
H	 1.2798459568	-0.033804275	-3.1616025836	 0.10776
209.432	253.5416	297.0974	450.4944	524.1075	535.4474	657.0464	666.2972	705.5343	732.9066	811.4455	848.4012	879.7899	882.1853	895.5634	921.1983	941.9931	947.0532	988.2443	1019.9436	1053.6745	1076.721	1086.1611	1107.1965	1118.9125	1151.7264	1162.7776	1170.4874	1172.8299	1223.4314	1256.4738	1273.4739	1283.9589	1302.254	1356.7648	1384.6403	1479.5723	1520.0312	1609.3393	3023.2518	3034.4024	3053.0336	3056.2563	3082.9324	3092.0089	3093.8461	3186.1246	3219.9641
C1C2C3C4CC=CC24N13	C1[C@H]2[C@@H]3[C@@H]4CC=C[C@]24N13	
InChI=1S/C8H9N/c1-2-5-7-6-4-9(7)8(5,6)3-1/h1,3,5-7H,2,4H2	InChI=1S/C8H9N/c1-2-5-7-6-4-9(7)8(5,6)3-1/h1,3,5-7H,2,4H2/t5-,6-,7-,8+/m0/s1
