19
gdb 54404	3.21624	1.34569	1.21751	2.0936	75.02	-0.2431	-0.0183	0.2248	1099.3879	0.158918	-423.029923	-423.0216	-423.020655	-423.063748	31.54	
C	 0.5546618366	 1.3609072389	 0.029130947	-0.480079
C	-0.1660156987	 0.0337554707	-0.0137868049	 0.256649
O	-0.7822707842	-0.4270376651	 0.9214493783	-0.313678
C	-0.0919537469	-0.740156777	-1.3057432946	 0.344951
C	 0.7317199032	-2.0471465407	-1.4493049398	-0.257031
C	 0.7046770001	-1.5319894793	-2.9031000174	 0.066848
C	-0.7704734205	-1.6970695103	-3.3253905841	-0.222955
C	-1.413712429	-1.0740413734	-2.0461859867	-0.250879
O	 0.7211401983	-0.1640887167	-2.3793606119	-0.334023
H	 1.6202936319	 1.2121652134	-0.1742276393	 0.150956
H	 0.1845715306	 2.0133148553	-0.7695222991	 0.150251
H	 0.4117847964	 1.8299090231	 1.003085738	 0.136367
H	 1.7196696733	-1.9581018303	-0.9966211109	 0.113586
H	 0.2556778843	-2.9978612706	-1.2008998874	 0.107922
H	 1.4936259244	-1.7378080067	-3.6258474353	 0.08303
H	-0.992289974	-1.1254915349	-4.22854538	 0.111623
H	-1.0506988455	-2.7403005968	-3.4923802117	 0.104171
H	-2.0403712176	-1.761050136	-1.4752515238	 0.122099
H	-1.9857629627	-0.1685588637	-2.2579684665	 0.110192
26.507	131.3791	167.2595	179.769	290.2747	342.3696	414.6517	487.0928	544.0359	594.131	606.7061	706.0043	826.2318	831.9283	845.5611	875.3852	910.3249	938.8534	958.553	969.8756	1000.81	1022.2522	1032.1099	1096.1572	1104.3147	1147.1079	1156.0955	1211.1856	1227.1912	1233.0436	1284.3707	1302.0559	1307.3349	1346.9237	1384.9195	1453.2245	1462.8939	1481.5361	1482.9549	1507.1524	1803.3015	3042.5688	3069.0456	3076.3065	3081.8044	3103.2176	3117.218	3128.9085	3136.5978	3149.8442	3157.4539
CC(=O)C12CC(CC1)O2	CC(=O)[C@@]12C[C@@H](CC1)O2	
InChI=1S/C7H10O2/c1-5(8)7-3-2-6(4-7)9-7/h6H,2-4H2,1H3	InChI=1S/C7H10O2/c1-5(8)7-3-2-6(4-7)9-7/h6H,2-4H2,1H3/t6-,7+/m1/s1
