19
gdb 36040	3.76641	1.02062	0.90386	2.5328	79.01	-0.2543	0.0282	0.2825	1301.9883	0.159672	-382.042117	-382.033307	-382.032363	-382.076083	32.9	
N	-0.0106481116	-1.2876606449	-0.2817792101	-0.315651
C	-0.0361780564	-0.1322616374	-0.270204519	 0.258334
C	-0.0497506304	 1.3278635446	-0.2472902053	-0.396345
C	 1.3097924941	 1.973284884	 0.0481301659	 0.320216
C	 2.2453345529	 1.2989608052	 1.0171558808	-0.326035
C	 2.5692126085	 1.312801028	-0.4583137016	-0.302377
C	 1.2004725895	 3.4749005367	-0.0062941426	-0.063728
C	 0.850865163	 4.2681027561	 1.2025122511	-0.242196
N	 2.1873229592	 4.3762528591	 0.5916947951	-0.328077
H	-0.4207345046	 1.6793612862	-1.2186210009	 0.155024
H	-0.7825521323	 1.6525870988	 0.5016761797	 0.156658
H	 2.8440326305	 1.9080657178	 1.6867506576	 0.110701
H	 1.9274716768	 0.3582651076	 1.4528773082	 0.140923
H	 2.4853561979	 0.3779246665	-1.001263821	 0.139924
H	 3.3665885098	 1.9645969976	-0.7981066655	 0.12558
H	 0.8364482589	 3.8392510526	-0.9674143142	 0.095589
H	 0.2341516608	 5.1584938206	 1.1215925521	 0.123505
H	 0.7563583879	 3.7288615015	 2.1418960935	 0.115492
H	 2.8648304454	 3.8597165196	 1.1468415564	 0.232463
62.8695	81.5826	137.6534	207.091	261.3433	300.1852	343.8722	393.5334	434.0585	481.1727	578.2548	687.3055	782.8119	810.1738	853.6241	862.2226	918.8082	933.602	958.0826	970.7612	999.9727	1019.0968	1045.9063	1061.2304	1092.5048	1109.4387	1158.869	1181.2533	1189.2267	1226.438	1250.0417	1254.5161	1302.2403	1318.3863	1377.3174	1420.4632	1466.8701	1467.0186	1504.3528	1513.1596	2360.9084	3028.866	3063.7755	3098.0694	3108.5565	3131.8558	3137.6823	3195.4364	3211.3802	3227.8231	3506.418
N#CCC1(CC1)C1CN1	N#CCC1(CC1)[C@H]1CN1	
InChI=1S/C7H10N2/c8-4-3-7(1-2-7)6-5-9-6/h6,9H,1-3,5H2	InChI=1S/C7H10N2/c8-4-3-7(1-2-7)6-5-9-6/h6,9H,1-3,5H2/t6-/m1/s1
