21
gdb 76337	1.89407	1.75931	1.22304	2.413	73.66	-0.2438	0.0397	0.2835	1129.5967	0.179691	-461.35562	-461.345089	-461.344145	-461.392232	38.858	
C	-0.5027288865	 1.3638856803	 0.0060335394	-0.405237
C	-0.1591031764	-0.1220468319	 0.0249967696	-0.099316
C	 1.0222134555	-0.5483050825	-0.9144154492	 0.114858
O	 1.4335853498	 0.3055403682	-1.9444851302	-0.437032
C	 1.9694166306	-0.6348921921	 0.3266414646	 0.313639
C	 2.9442806946	-1.7862687769	 0.445834964	-0.507625
O	 2.6357769917	 0.6351044706	 0.4530990727	-0.487118
C	 0.7052451664	-0.5938781698	 1.2455913397	 0.115466
O	 0.7978205617	 0.2134000162	 2.3852881901	-0.437109
H	 0.3788484491	 1.9954768831	 0.1502976695	 0.110356
H	-0.9513141306	 1.638747348	-0.9526380629	 0.122112
H	-1.2113404133	 1.6009509818	 0.8044537406	 0.122185
H	-1.0709761786	-0.7086562333	-0.121193413	 0.064925
H	 0.8510971301	-1.5346781658	-1.3570164544	 0.078107
H	 1.9475943972	 1.0015929717	-1.5134198748	 0.285223
H	 3.7046858277	-1.7403254958	-0.3434620324	 0.126447
H	 3.4452376753	-1.7771346299	 1.4215430438	 0.127001
H	 2.4231946314	-2.7428730852	 0.3488698428	 0.132922
H	 3.5772735731	 0.4805847626	 0.5698341714	 0.296364
H	 0.4204167125	-1.597112514	 1.5781427603	 0.078079
H	 1.4156534688	 0.9196051247	 2.1528211186	 0.285753
10.642	77.7023	178.1952	202.0054	228.7817	235.6056	237.1694	262.7185	285.784	343.5076	435.4918	463.5859	500.4839	517.2584	572.2006	654.7081	679.2004	804.9285	808.27	826.2801	874.8622	955.3273	1006.6056	1027.9969	1103.6893	1120.0295	1135.619	1156.4062	1167.7323	1183.8677	1190.599	1265.4333	1275.6271	1300.2616	1328.7999	1367.2119	1390.7803	1406.9199	1410.8123	1432.877	1459.3183	1489.2457	1491.3919	1493.5409	1503.9838	3019.1734	3044.5916	3047.4319	3054.0338	3068.0166	3084.8134	3110.4812	3112.9922	3118.3996	3752.8498	3757.8876	3841.0136
CC1C(O)C(C)(O)C1O	C[C@H]1[C@@H](O)[C@@](C)(O)[C@H]1O	
InChI=1S/C6H12O3/c1-3-4(7)6(2,9)5(3)8/h3-5,7-9H,1-2H3	InChI=1S/C6H12O3/c1-3-4(7)6(2,9)5(3)8/h3-5,7-9H,1-2H3/t3-,4+,5-,6+
