21
gdb 75715	2.08732	1.64471	1.28248	2.913	82.41	-0.2309	-0.0156	0.2153	1123.7917	0.181227	-387.095438	-387.08625	-387.085305	-387.129425	34.766	
C	-0.4856432601	 1.4518451387	 0.0012439109	-0.420212
C	 0.011766916	 0.0134279542	-0.0124154996	-0.148167
C	 1.1912124223	-0.3818491375	-0.9161513354	 0.399602
O	 1.4939403317	-0.1024949018	-2.0423389898	-0.313455
C	 1.8673096991	-1.2003348909	 0.1892279608	-0.209211
C	 2.9490489122	-0.3661085918	 0.9355238645	-0.221317
C	 1.8515548124	 0.2336203608	 1.8613840973	-0.284081
C	 0.7628076851	-0.6602395102	 1.188433559	 0.342075
C	-0.0537160196	-1.5530058155	 2.0979474237	-0.496124
H	 0.3121753811	 2.1564715297	 0.2537012144	 0.123363
H	-0.8621324858	 1.72635397	-0.9887641906	 0.136638
H	-1.2984770253	 1.5871137368	 0.7221985284	 0.118386
H	-0.8178045016	-0.6564068982	-0.2873154473	 0.101488
H	 2.0702435659	-2.2533323274	-0.0136105775	 0.085981
H	 3.6606949401	-0.9977767962	 1.4712615546	 0.110377
H	 3.5133566442	 0.3338031838	 0.3146601014	 0.116122
H	 1.9980985079	 0.0056208013	 2.9200492944	 0.103953
H	 1.6964808991	 1.3115119194	 1.772606612	 0.103228
H	-0.7520827105	-0.9637275093	 2.7049768891	 0.120041
H	-0.6430546199	-2.2781447373	 1.5251353734	 0.11505
H	 0.5866875158	-2.1135075384	 2.7881109165	 0.116264
47.345	157.9618	168.4936	181.5482	225.2744	241.7805	273.556	329.531	438.1653	501.4269	578.7082	602.1741	627.6661	729.8339	775.6632	816.2915	846.3215	913.3471	930.0166	948.115	976.6612	1007.1609	1033.961	1058.6154	1100.1386	1122.9159	1129.9527	1158.237	1191.4761	1214.3634	1222.9943	1249.1818	1268.9103	1283.4518	1305.8503	1354.5836	1404.1623	1414.5683	1476.8329	1490.1068	1491.862	1494.587	1494.9493	1503.8485	1877.4081	2994.5996	3017.7839	3037.9249	3061.4443	3067.4442	3080.4411	3088.4173	3097.7416	3103.1726	3106.1404	3111.6635	3122.8825
CC1C(=O)C2CCC12C	C[C@H]1C(=O)[C@H]2CC[C@@]12C	
InChI=1S/C8H12O/c1-5-7(9)6-3-4-8(5,6)2/h5-6H,3-4H2,1-2H3	InChI=1S/C8H12O/c1-5-7(9)6-3-4-8(5,6)2/h5-6H,3-4H2,1-2H3/t5-,6+,8-/m0/s1
