17
gdb 126286	5.2885	0.86292	0.79027	3.3415	85.86	-0.2269	-0.0018	0.2251	1457.8448	0.136341	-380.870685	-380.861898	-380.860954	-380.904976	32.286	
C	 0.083711724	 1.5227285086	-0.2441968778	-0.368061
C	 0.0056636297	 0.0138647375	 0.0520843391	-0.312065
C	-1.3961210991	-0.497732236	 0.1726488871	 0.393963
C	-2.1760724858	-0.8075749396	 1.2662109844	-0.405214
C	-3.4303477917	-1.2077055098	 0.7342579187	 0.205596
N	-3.4290261655	-1.1502771122	-0.6046447429	-0.293828
N	-2.1945876346	-0.7187521615	-0.9085055795	-0.252556
C	-4.5750177749	-1.6280296324	 1.4581411382	 0.274789
C	-5.5259290834	-1.9792269905	 2.1066530373	-0.422579
H	 1.1255474128	 1.8482776305	-0.3185457259	 0.120119
H	-0.4148986152	 1.7692908966	-1.1869020138	 0.117926
H	-0.401603587	 2.0996183154	 0.5481435515	 0.132366
H	 0.5350442363	-0.5414688629	-0.732769817	 0.112109
H	 0.5301394738	-0.2046083986	 0.9870569617	 0.12495
H	-1.892011945	-0.7602333465	 2.3045526009	 0.110829
H	-1.9521835879	-0.6061375747	-1.879131261	 0.273206
H	-6.3713109665	-2.291081274	 2.667951049	 0.188449
32.0788	107.798	141.5946	192.7542	212.9583	332.2475	369.0997	480.3255	526.8578	553.3533	566.9799	578.5276	660.3218	688.5043	718.5903	731.2634	784.7982	826.3772	961.5384	1002.3221	1047.2776	1063.1454	1084.2837	1160.4572	1201.5029	1258.9648	1312.1749	1350.1545	1406.92	1420.2698	1456.6974	1461.7727	1485.7474	1495.931	1506.1443	1605.4252	2240.0045	3028.3203	3039.7586	3082.4035	3112.0008	3119.6478	3271.8078	3505.5036	3662.0661
CCC1=CC(=NN1)C#C	CCc1cc(n[nH]1)C#C	
InChI=1S/C7H8N2/c1-3-6-5-7(4-2)9-8-6/h1,5H,4H2,2H3,(H,8,9)	InChI=1S/C7H8N2/c1-3-6-5-7(4-2)9-8-6/h1,5H,4H2,2H3,(H,8,9)
