21
gdb 94190	2.69191	1.24533	1.11519	2.2031	78.49	-0.2397	0.0651	0.3048	1213.0078	0.180861	-424.190978	-424.181421	-424.180477	-424.225521	35.83	
C	 0.073487075	 1.6014684731	-0.0706799459	-0.448686
C	 0.0349304687	 0.0797249602	-0.0280169548	 0.390952
O	 0.9938969421	-0.4700359029	-0.9934799669	-0.32786
C	 1.9037833481	-0.8687270464	 0.0474682357	-0.11165
C	 0.8576380052	-0.5504678405	 1.1343885486	 0.02252
O	 1.2013871555	 0.3479448483	 2.1605959837	-0.425066
C	-1.3238395888	-0.5460071275	-0.241836323	-0.015582
C	-2.5564515471	-0.0710769339	 0.4921960107	-0.277937
C	-2.4461257907	 0.1182944414	-0.9987301296	-0.277049
H	 1.0703636033	 1.9621504353	 0.1874878918	 0.129866
H	-0.1677013791	 1.9435559552	-1.0806561611	 0.12472
H	-0.6316926712	 2.0486997648	 0.6354645007	 0.121655
H	 2.2239220371	-1.9119499275	-0.0599486189	 0.095485
H	 2.7879077071	-0.2191169344	 0.106369456	 0.096
H	 0.3706702415	-1.4478296855	 1.5358897677	 0.072741
H	 1.6080867773	-0.1463728473	 2.8781687584	 0.289286
H	-1.2479209862	-1.6216703373	-0.3764492394	 0.082687
H	-3.2400422531	-0.821890875	 0.8728033464	 0.110505
H	-2.4742792477	 0.8085691141	 1.1210096116	 0.118557
H	-2.2953521123	 1.1259483297	-1.3675159378	 0.116135
H	-3.0537147346	-0.503243114	-1.646843794	 0.11272
57.3438	82.0824	179.4767	192.7363	197.5962	240.4231	290.172	333.4828	376.4959	406.8818	474.9314	536.2652	643.7116	759.5372	787.3707	827.8814	874.0682	884.1293	922.8006	938.2235	961.7646	1017.39	1040.5885	1058.7201	1078.902	1081.5629	1127.3487	1130.5631	1140.8374	1169.473	1184.3517	1198.1354	1206.7193	1230.7205	1302.487	1313.9266	1328.8376	1395.4405	1411.1055	1441.7416	1466.4746	1490.3217	1492.7231	1507.3979	1518.057	3003.6469	3020.1372	3052.7143	3057.8511	3122.6961	3134.8992	3138.3632	3139.95	3144.5594	3213.0682	3229.7549	3830.0467
CC1(OCC1O)C1CC1	C[C@]1(OC[C@H]1O)C1CC1	
InChI=1S/C7H12O2/c1-7(5-2-3-5)6(8)4-9-7/h5-6,8H,2-4H2,1H3	InChI=1S/C7H12O2/c1-7(5-2-3-5)6(8)4-9-7/h5-6,8H,2-4H2,1H3/t6-,7+/m1/s1
