21
gdb 104064	3.00023	1.20747	1.11076	0.8751	77.36	-0.2446	0.0634	0.308	1199.3059	0.182289	-424.190316	-424.181175	-424.18023	-424.224941	34.659	
O	 0.1160296277	 1.39252114	-0.2284802348	-0.429621
C	 0.0526972586	-0.0256058211	-0.2623266779	-0.118557
C	-1.3753812385	-0.5218018198	-0.0375098024	 0.393371
O	-1.8991068852	 0.1130784424	 1.1321049027	-0.494055
C	-2.3801249545	-0.46551271	-1.2324711667	-0.303363
C	-2.72083911	-1.9669870659	-1.0240114359	-0.006782
C	-1.9015360469	-2.9505174117	-1.8993369889	-0.221983
C	-0.7820712355	-2.9883037543	-0.8143532338	-0.243725
C	-1.6215272076	-2.0465044901	 0.0965121511	-0.059312
H	-0.113848939	 1.6408162349	 0.6738087285	 0.277702
H	 0.4227147978	-0.3259093332	-1.2465115024	 0.104733
H	 0.7137907753	-0.4716706263	 0.4978961864	 0.089686
H	-2.2482319654	 0.9668704566	 0.8544214243	 0.277256
H	-3.216653256	 0.2160690594	-1.0533688271	 0.094581
H	-1.938679378	-0.2205517632	-2.2031878196	 0.099446
H	-3.770091639	-2.2054596373	-0.8497291121	 0.06563
H	-2.3910134051	-3.9177025491	-2.0386970604	 0.101241
H	-1.612830263	-2.5738862916	-2.885393322	 0.094834
H	-0.6360994389	-3.9786150637	-0.3773708436	 0.104273
H	 0.1986907414	-2.6170481657	-1.1209470294	 0.102094
H	-1.8120967382	-2.3767334001	 1.1175269141	 0.072552
37.9429	79.3072	117.7599	189.9159	259.6539	301.237	346.8569	395.5796	435.4829	469.8867	552.4002	656.4043	732.0471	761.0122	776.4036	838.6255	868.6589	900.7644	910.6466	957.0332	960.3014	971.6186	1028.3843	1054.5107	1075.7318	1083.8172	1121.3301	1145.8663	1153.7234	1203.6207	1228.7113	1238.3596	1244.7905	1263.2646	1272.3712	1288.2578	1297.0803	1323.0582	1349.2949	1390.6628	1424.1906	1465.9128	1480.1485	1497.0743	1499.906	2979.6517	3046.4583	3050.7912	3066.1393	3089.9866	3090.5074	3098.0182	3106.7761	3109.5842	3121.1284	3801.8506	3805.3395
OCC1(O)CC2CCC12	OC[C@@]1(O)C[C@H]2CC[C@@H]12	
InChI=1S/C7H12O2/c8-4-7(9)3-5-1-2-6(5)7/h5-6,8-9H,1-4H2	InChI=1S/C7H12O2/c8-4-7(9)3-5-1-2-6(5)7/h5-6,8-9H,1-4H2/t5-,6-,7+/m1/s1
