18
gdb 37495	3.40344	2.24834	1.95797	0.6611	79.62	-0.1912	-0.0812	0.11	784.5128	0.150477	-364.655212	-364.649318	-364.648374	-364.684831	26.191	
C	-0.0582772827	 1.5471186304	-0.0493337165	-0.25086
C	 1.47346527	 1.425144894	 0.1002377475	-0.037022
C	 1.2780402501	 0.0825135164	 0.8891971774	-0.058635
C	-0.0112068488	 0.019492018	-0.0258677546	 0.010144
N	 0.6622985277	-0.4242975597	-1.2707258785	-0.169569
C	 1.3297074426	-1.7179259978	-0.7500923512	-0.187356
C	 2.2319308421	-0.9252149077	 0.2148219653	 0.004488
C	 3.0120242302	-0.2536283965	-0.704686028	-0.133587
C	 1.9371441838	 0.6884603522	-1.1511327218	-0.010652
H	-0.5353674643	 1.9552277219	 0.8452829609	 0.100348
H	-0.4480583924	 2.0358891438	-0.9473005046	 0.10048
H	 2.1012467552	 2.2503941588	 0.4346456111	 0.074257
H	 1.1842307083	 0.0961362274	 1.972872707	 0.070902
H	-0.8770614186	-0.5921471543	 0.2282994583	 0.071884
H	 0.5538164325	-2.3535942164	-0.315648816	 0.110498
H	 1.8568709232	-2.2537332559	-1.5376476792	 0.115494
H	 3.6055910278	-0.7997484361	-1.4343489239	 0.103835
H	 2.0420627434	 1.2287833316	-2.0899490734	 0.085351
245.053	370.3717	386.5492	447.4453	514.3976	622.4966	642.6328	667.4267	718.5991	801.8932	827.0601	856.0602	864.0042	895.6676	908.9024	929.3378	955.7769	965.5192	1002.72	1007.6273	1029.4238	1037.1415	1078.2119	1098.4903	1104.5868	1143.9267	1163.2685	1192.2278	1209.7514	1225.9567	1237.6922	1248.1864	1259.1777	1288.3504	1306.421	1317.9169	1452.0357	1494.4565	1509.135	3051.5489	3070.157	3107.8272	3112.804	3119.2898	3130.1946	3139.2437	3142.8229	3152.1703
C1C2C3C1N1CC3=CC21	C1[C@H]2[C@H]3[C@@H]1N1C[C]3[CH][C@H]21	
InChI=1S/C8H9N/c1-4-3-9-6(1)5-2-7(9)8(4)5/h1,5-8H,2-3H2	InChI=1S/C8H9N/c1-4-3-9-6(1)5-2-7(9)8(4)5/h1,5-8H,2-3H2/t5-,6-,7-,8+/m1/s1
