23
gdb 96339	2.15364	1.581	1.30268	1.7731	80.51	-0.2462	0.0715	0.3177	1132.0236	0.206362	-425.440082	-425.430894	-425.42995	-425.472972	36.902	
C	 0.0251336483	 1.5451914458	 0.0023083565	-0.424175
C	-0.0369745446	 0.00999685	 0.0050390935	 0.253997
C	-1.5163756948	-0.4204613397	 0.0271138513	-0.430068
C	 0.6862403793	-0.5443330021	-1.2482122977	-0.234982
C	 0.9566378383	-2.0495005012	-1.1620146566	-0.091631
O	 1.6375859249	-2.3958360473	 0.041030086	-0.259787
C	 0.8645756607	-2.059817697	 1.1874313013	-0.126329
C	 0.7037644834	-0.5390131799	 1.2609764157	 0.124082
O	 1.9961542472	 0.0400187693	 1.4084763967	-0.450694
H	 1.0578598244	 1.8919288179	 0.0683237685	 0.130062
H	-0.426325783	 1.9484032576	-0.9110852018	 0.101522
H	-0.5232732213	 1.9595147103	 0.8562789158	 0.105329
H	-2.059460055	 0.0528191732	-0.7978993868	 0.114345
H	-1.6556117327	-1.5004084551	-0.0686271533	 0.111458
H	-1.997902287	-0.1062149378	 0.9600297442	 0.113946
H	 0.102149189	-0.3268574384	-2.150908542	 0.093628
H	 1.645713429	-0.0259305297	-1.3624776403	 0.101256
H	 0.0186581192	-2.6237753556	-1.229438948	 0.092786
H	 1.603373327	-2.3768145399	-1.9812267064	 0.109059
H	-0.1053732243	-2.5778037764	 1.1672190663	 0.094374
H	 1.4295443573	-2.4149649872	 2.0538239872	 0.1139
H	 0.1390395457	-0.2659267413	 2.1612954122	 0.072712
H	 2.5885483287	-0.4901695358	 0.8603609577	 0.28521
135.5577	186.4276	212.5832	244.1691	249.3276	303.3607	331.1819	355.9626	384.9141	436.9298	446.4281	456.2801	507.4692	557.4663	681.5906	738.6791	838.7542	861.8925	909.2636	921.8439	947.6138	986.9275	1003.3812	1015.2068	1038.8693	1049.2412	1100.4519	1129.7356	1193.2227	1204.5049	1226.7027	1260.3126	1268.7367	1290.7967	1320.7615	1348.1231	1377.5317	1380.5218	1396.0629	1412.0265	1426.0449	1428.9673	1474.3374	1484.7096	1489.7668	1493.3132	1500.8361	1512.0116	1516.1943	2977.1914	3002.7919	3025.4543	3027.7572	3031.5737	3038.261	3066.9335	3085.1167	3086.7699	3092.0474	3094.3182	3111.4715	3134.7129	3770.8518
CC1(C)CCOCC1O	CC1(C)CCOC[C@H]1O	
InChI=1S/C7H14O2/c1-7(2)3-4-9-5-6(7)8/h6,8H,3-5H2,1-2H3	InChI=1S/C7H14O2/c1-7(2)3-4-9-5-6(7)8/h6,8H,3-5H2,1-2H3/t6-/m1/s1
