18
gdb 101508	5.9082	0.54873	0.52374	6.3607	87.73	-0.2764	-0.0359	0.2405	2055.4471	0.145516	-401.942272	-401.932024	-401.93108	-401.978421	35.845	
C	 0.0808565472	 1.5523254836	-0.0690443181	-0.388503
C	 0.0045369738	 0.0251853775	-0.0075803724	-0.190438
C	-1.4365948252	-0.4974977432	 0.0275184495	 0.143524
O	-2.1926355358	-0.0735123682	-1.0922805252	-0.415627
C	-1.462637133	-2.0420401907	 0.170011687	-0.411881
C	-2.805290164	-2.5855819547	 0.2626106497	 0.075988
C	-3.9248384929	-3.0308207919	 0.3513021711	 0.082149
C	-5.1884862871	-3.5368085245	 0.4505699187	 0.204686
N	-6.2629291305	-3.970719476	 0.5363918467	-0.340022
H	 1.1176816433	 1.890915432	-0.1485524179	 0.1169
H	-0.4749202164	 1.9333121991	-0.9294836344	 0.131853
H	-0.3514601597	 2.0029995472	 0.830642086	 0.122009
H	 0.5143471356	-0.4129973042	-0.8787995907	 0.090684
H	 0.5394115018	-0.3448469738	 0.8759588446	 0.103183
H	-1.9575929458	-0.0674717757	 0.8909354479	 0.10834
H	-1.7429470485	-0.371632774	-1.8916351759	 0.28222
H	-0.9468190705	-2.4905731141	-0.6909989184	 0.136772
H	-0.8904186922	-2.3358581784	 1.0592107521	 0.148164
46.6181	60.3901	111.5737	158.5859	181.4471	219.8149	249.3382	308.9725	330.1242	368.3631	392.1468	459.1264	546.2487	578.8611	585.6519	732.6253	781.7845	848.2556	906.8784	993.3901	1004.4028	1074.5934	1103.8972	1138.015	1175.5247	1193.3352	1264.1613	1288.2961	1346.2851	1359.8255	1384.0524	1408.7687	1424.4556	1453.9608	1482.4541	1495.8975	1508.5217	2266.6996	2402.5353	2999.2303	3010.7325	3042.076	3045.739	3049.1974	3065.6209	3108.8187	3126.4091	3790.3584
CCC(O)CC#CC#N	CC[C@@H](O)CC#CC#N	
InChI=1S/C7H9NO/c1-2-7(9)5-3-4-6-8/h7,9H,2,5H2,1H3	InChI=1S/C7H9NO/c1-2-7(9)5-3-4-6-8/h7,9H,2,5H2,1H3/t7-/m1/s1
