21
gdb 115904	3.18176	1.3826	1.22868	0.5543	78.32	-0.2572	0.0855	0.3427	1117.7311	0.184537	-424.213398	-424.205317	-424.204372	-424.246024	31.516	
C	-0.0710678782	 1.4193925457	-0.031485159	-0.241724
O	-0.1152640529	 0.0052298726	-0.06864099	-0.244321
C	 0.6956205953	-0.560009564	-1.0656194397	 0.241141
O	 2.0717859995	-0.3014900293	-0.8556727747	-0.276534
C	 2.7911177796	-1.265607772	-0.0805312438	-0.084007
C	 2.2234986282	-2.674333005	-0.2689021406	-0.028553
C	 1.638589438	-2.784639296	-1.7069836776	-0.231196
C	 0.3963864334	-2.0602923104	-1.1167426396	-0.067288
C	 0.7615201522	-2.6937548945	 0.2515109016	-0.218516
H	 0.9422034077	 1.7856618251	 0.1693815391	 0.124609
H	-0.4187761842	 1.8550937097	-0.9808667808	 0.10317
H	-0.7396961076	 1.7399763981	 0.7705415826	 0.122963
H	 0.4776842551	-0.0769882042	-2.0319557013	 0.067024
H	 3.8269689406	-1.206682984	-0.4329927362	 0.103256
H	 2.7789576559	-0.989874277	 0.9844636584	 0.096544
H	 2.92708809	-3.4307076611	 0.0876262089	 0.062986
H	 2.1787272791	-2.2998815237	-2.5241167988	 0.10211
H	 1.4098709849	-3.8192298148	-1.9727244078	 0.097351
H	-0.5934333344	-2.2381058773	-1.5402822168	 0.069972
H	 0.3699176565	-3.7102486242	 0.3404196118	 0.091759
H	 0.5252632512	-2.1230661636	 1.1514533444	 0.109254
101.9578	125.9274	177.9957	193.5364	317.2846	370.173	399.9888	434.4616	539.4572	566.4385	663.7546	827.6348	830.661	835.1941	880.4044	921.9921	939.2048	953.4041	979.3459	993.7095	1038.0204	1060.9513	1097.4981	1105.878	1125.1119	1129.6929	1152.2074	1180.6299	1185.5576	1219.6316	1239.8568	1250.83	1269.7005	1296.6324	1341.159	1348.155	1378.747	1395.342	1417.0667	1474.0681	1478.9134	1483.4601	1504.57	1514.1672	1516.4647	2973.3941	2988.8397	2994.0445	3057.6562	3060.844	3062.854	3064.4152	3080.0712	3096.9788	3119.64	3122.4809	3124.4701
COC1OCC2CC1C2	CO[C@H]1OC[C@@H]2C[C@H]1C2	
InChI=1S/C7H12O2/c1-8-7-6-2-5(3-6)4-9-7/h5-7H,2-4H2,1H3	InChI=1S/C7H12O2/c1-8-7-6-2-5(3-6)4-9-7/h5-7H,2-4H2,1H3/t5-,6+,7-/m0/s1
