18
gdb 82408	2.58084	1.67266	1.22838	4.6048	70.73	-0.2531	0.0133	0.2665	1037.2979	0.149446	-439.096926	-439.088984	-439.088039	-439.129622	30.267	
C	 0.2236549521	 1.5597621625	 0.1237233143	-0.394375
C	 0.100545444	 0.0294258434	-0.013902668	-0.140925
C	 0.7554225916	-0.5450376018	-1.2692474644	-0.045592
N	 1.8491710363	 0.2153594323	-1.8940295671	-0.326306
C	 2.1562876063	-1.0191534947	-1.1504543178	-0.06189
C	 2.7880808942	-0.8076501408	 0.2078626075	-0.08387
O	 1.8849904822	-1.1040138109	 1.2905905949	-0.22791
C	 0.6079706809	-0.6505211852	 1.2627680135	 0.414473
O	-0.0859552161	-0.7980573149	 2.2328505293	-0.336765
H	 1.2660182574	 1.8816355163	 0.1676304646	 0.136184
H	-0.2324286524	 2.0499600025	-0.7403781028	 0.12279
H	-0.2897776663	 1.8891966851	 1.0302358761	 0.136019
H	-0.9641145815	-0.2166707955	-0.0333286005	 0.110964
H	 0.0940240897	-1.1008752984	-1.9278531482	 0.099867
H	 1.8666536008	 0.0357311661	-2.8944034217	 0.238039
H	 2.4606717667	-1.900671378	-1.706350192	 0.099842
H	 3.6380643086	-1.4726145578	 0.37231992	 0.126947
H	 3.1346138954	 0.2269563197	 0.2967674824	 0.132508
61.9684	167.0767	208.1878	240.2333	243.6211	366.0553	431.1462	459.2496	511.0804	589.2987	713.1952	746.154	776.8465	814.349	844.1192	919.2559	937.1848	959.1568	988.4011	1040.4456	1065.942	1084.8706	1094.8684	1135.043	1183.187	1202.2008	1239.7875	1265.1744	1281.6604	1311.1932	1344.1409	1384.8336	1409.5155	1417.7031	1454.6227	1491.8044	1494.4453	1505.5017	1838.5089	3053.4074	3055.7611	3077.9482	3114.903	3127.0884	3139.0205	3142.6542	3156.95	3509.4724
CC1C2NC2COC1=O	C[C@H]1[C@H]2N[C@H]2COC1=O	
InChI=1S/C6H9NO2/c1-3-5-4(7-5)2-9-6(3)8/h3-5,7H,2H2,1H3	InChI=1S/C6H9NO2/c1-3-5-4(7-5)2-9-6(3)8/h3-5,7H,2H2,1H3/t3-,4-,5+/m0/s1
