20
gdb 39211	2.48063	2.00204	1.50992	2.4522	77.72	-0.2355	0.0654	0.3009	952.9848	0.174639	-403.102586	-403.095653	-403.094709	-403.133486	29.243	
C	 0.0512284328	 1.6268012705	 0.0278329945	-0.225255
C	 1.5864833134	 1.418002912	 0.082981199	 0.130494
C	 1.3125778809	-0.0168856348	 0.6223267245	-0.265567
C	-0.1126979969	 0.082692587	-0.0050136957	-0.029157
C	-0.1456310085	-0.5082697246	-1.4099362517	-0.035941
N	-0.2779839425	 0.4025320771	-2.565507192	-0.330473
C	 0.9770351553	-0.3309624741	-2.3687603584	-0.027487
C	 2.2612292948	 0.4275761664	-2.0619517677	-0.085475
O	 2.1901569926	 1.5384227855	-1.1982096792	-0.267087
H	-0.3330899261	 2.0469357112	 0.961638892	 0.087713
H	-0.322786909	 2.1876563386	-0.8276832697	 0.128081
H	 2.156765552	 2.0863933908	 0.7340423783	 0.073923
H	 1.9597315216	-0.8377594967	 0.3053809332	 0.098756
H	 1.281309988	 0.0007869636	 1.7150717433	 0.100398
H	-0.9349245957	-0.3296346577	 0.5856489943	 0.05875
H	-0.6654756794	-1.4624575218	-1.4769221149	 0.078773
H	-0.8336997094	-0.0229379141	-3.3017187159	 0.229807
H	 1.175697106	-1.1712677133	-3.0361373242	 0.080154
H	 2.9949242991	-0.3113341682	-1.6974855075	 0.088149
H	 2.6615767311	 0.8338371324	-2.9983371722	 0.111445
162.9311	231.4145	319.6614	328.952	387.9272	419.5952	491.5715	532.2699	698.9119	736.8259	751.0951	778.7823	813.0978	863.8862	881.2614	918.7232	930.691	955.027	973.5665	991.7221	1050.6027	1070.659	1091.2798	1093.2847	1118.768	1135.3609	1163.2723	1184.9081	1205.4272	1240.9598	1255.7377	1268.7715	1275.7851	1287.0758	1313.9276	1362.5485	1382.7319	1403.0879	1416.1716	1455.4147	1471.2562	1488.2765	1500.2198	2959.4178	3052.7811	3055.2919	3061.9049	3062.8612	3077.0122	3090.1153	3115.9493	3117.7427	3151.2649	3509.9486
C1C2CC1C1NC1CO2	C1[C@H]2C[C@@H]1[C@H]1N[C@H]1CO2	
InChI=1S/C7H11NO/c1-4-2-5(1)9-3-6-7(4)8-6/h4-8H,1-3H2	InChI=1S/C7H11NO/c1-4-2-5(1)9-3-6-7(4)8-6/h4-8H,1-3H2/t4-,5+,6-,7+/m0/s1
