21
gdb 71594	2.07925	1.95311	1.70056	1.3039	82.11	-0.229	0.0929	0.3219	989.6174	0.182831	-387.064679	-387.056552	-387.055608	-387.096645	32.761	
C	 0.0224285232	 1.5093682722	-0.0464836561	-0.52738
C	 0.0456997961	 0.0046757995	-0.0521654517	 0.277806
C	 0.6674731249	-0.9556931769	-1.0968055661	-0.307376
C	 0.0589849195	-1.8998691619	-0.0360963815	-0.123967
C	 0.5889707784	-0.9430219095	 1.0808660646	-0.092691
C	-0.4489973675	-0.9403254152	 2.1899866643	-0.118614
O	-1.6581219473	-0.9475781628	 1.420104365	-0.323899
C	-1.1864432923	-0.9642495376	 0.0732660087	 0.460719
C	-2.351455185	-0.9801863865	-0.8787391979	-0.496419
H	 1.0352183164	 1.9254655001	-0.0069075482	 0.117967
H	-0.4631416036	 1.8995661568	-0.9479137504	 0.120364
H	-0.5325339378	 1.8870626277	 0.8193361058	 0.126627
H	 0.2263443045	-0.9664883905	-2.0973566558	 0.08947
H	 1.7591858764	-0.9492817835	-1.1599723253	 0.090484
H	 0.0682325891	-2.9906258084	-0.0161356628	 0.067408
H	 1.6500363327	-0.9334792879	 1.3333164301	 0.067008
H	-0.403491601	-1.8280608564	 2.8340153861	 0.097863
H	-0.4083469137	-0.0459923855	 2.8254473193	 0.097267
H	-2.9752671183	-0.0934227985	-0.7296204726	 0.127515
H	-2.0185576557	-0.9986708361	-1.9192148367	 0.12084
H	-2.9748248791	-1.8613566692	-0.6990339688	 0.129007
179.0233	181.906	190.355	217.3158	260.7401	319.7324	384.7604	447.8434	471.7865	641.0551	649.22	691.0763	727.3079	747.9326	814.0829	891.5787	906.5605	930.3699	945.4096	970.9023	997.2063	1013.5387	1025.7622	1046.5378	1099.0024	1116.2127	1138.3599	1160.2321	1168.3279	1190.6379	1197.5491	1216.4268	1239.3961	1297.6402	1317.9849	1340.4681	1375.8147	1406.448	1420.4117	1478.1218	1488.838	1489.6438	1497.59	1522.3362	1526.7216	3009.9034	3024.6939	3043.7834	3044.5406	3050.3698	3089.9365	3094.1953	3101.6813	3104.4857	3108.5506	3115.4457	3125.9565
CC12CC3C1COC23C	C[C@@]12C[C@H]3[C@@H]1CO[C@@]23C	
InChI=1S/C8H12O/c1-7-3-5-6(7)4-9-8(5,7)2/h5-6H,3-4H2,1-2H3	InChI=1S/C8H12O/c1-7-3-5-6(7)4-9-8(5,7)2/h5-6H,3-4H2,1-2H3/t5-,6-,7+,8+/m0/s1
