18
gdb 13312	5.20623	1.17321	1.00614	1.539	72.89	-0.249	0.0491	0.2981	1151.7781	0.154031	-347.775476	-347.767305	-347.766361	-347.80901	29.704	
C	-0.0669151182	-1.2325457276	 0.0293969806	-0.442235
C	-0.0524320807	-0.0309047847	-0.0008890537	 0.299208
C	-0.0030655585	 1.426832159	-0.0398047162	-0.380111
C	 1.4298838614	 1.985055677	-0.0070173023	 0.030729
C	 1.5026243169	 3.5303709932	-0.05096703	-0.269003
C	 2.6813415765	 3.8719875558	 0.8978354672	-0.071682
O	 3.2467787825	 2.6348504079	 1.3174396951	-0.244733
C	 2.2122298029	 1.669428472	 1.2771930456	-0.084964
H	-0.0911473662	-2.2936609842	 0.0569483372	 0.196094
H	-0.5132313792	 1.782719648	-0.9439043439	 0.132799
H	-0.5684809996	 1.8357649373	 0.808962856	 0.127929
H	 1.9859506354	 1.5699958158	-0.85369485	 0.092142
H	 1.6654763587	 3.9006191883	-1.0657686321	 0.11095
H	 0.5703931493	 3.9751621712	 0.3124539593	 0.102103
H	 3.4737684685	 4.4510424805	 0.4152690305	 0.108408
H	 2.3258202587	 4.4441124893	 1.7682938578	 0.091169
H	 1.5515098971	 1.7545499311	 2.1592147103	 0.081356
H	 2.6693985845	 0.6779229098	 1.2856192186	 0.119839
41.1595	81.0394	129.2697	211.6188	295.7503	350.4448	397.84	457.7192	621.2878	628.9203	645.278	698.8522	811.5839	847.5583	913.2314	936.909	952.1217	971.1084	998.601	1079.8054	1088.7451	1118.2359	1135.6121	1205.9914	1232.3158	1253.2024	1281.1874	1285.3597	1318.0433	1333.5405	1362.837	1379.3807	1407.5582	1470.2723	1497.7592	1509.1896	1528.2874	2237.79	2941.0654	2985.5042	3012.4106	3042.6539	3053.1738	3060.2606	3077.5455	3105.7661	3111.0383	3506.8515
C#CCC1CCOC1	C#CC[C@H]1CCOC1	
InChI=1S/C7H10O/c1-2-3-7-4-5-8-6-7/h1,7H,3-6H2	InChI=1S/C7H10O/c1-2-3-7-4-5-8-6-7/h1,7H,3-6H2/t7-/m0/s1
