15
gdb 5374	5.04134	1.66328	1.26043	2.7414	74.89	-0.2065	-0.0432	0.1633	935.0832	0.119738	-362.691122	-362.683953	-362.683009	-362.722807	26.286	
C	-0.0403030628	 1.4442211994	 0.0079514552	-0.318012
N	 0.0271107929	-0.0054407835	 0.0029322433	-0.317985
C	-1.0517929831	-0.6703468758	 0.0089332933	 0.40598
O	-2.2912141612	-0.0061685505	 0.0202723746	-0.247269
C	-3.4541656292	-0.6920507059	 0.0265063993	 0.08187
C	-3.5234440995	-2.0331771245	 0.022664828	-0.193239
C	-2.2886445426	-2.775587654	 0.0112464393	-0.074891
C	-1.1103269075	-2.1181030647	 0.0047144698	-0.170071
H	 0.9744728703	 1.8491280008	-0.0000177213	 0.116804
H	-0.5757279959	 1.8374105776	-0.8676909807	 0.116809
H	-0.5595072819	 1.831834575	 0.8957767993	 0.11684
H	-4.3072200174	-0.02398776	 0.034912787	 0.133933
H	-4.4866221409	-2.5249373248	 0.0281022556	 0.112098
H	-2.3149026756	-3.85992157	 0.0079587979	 0.113116
H	-0.1537045954	-2.6241436892	-0.0039596305	 0.124018
79.4816	123.5094	214.7853	231.0435	377.5426	444.0096	526.9234	581.5508	620.4137	723.5514	761.3989	780.1529	850.5936	934.2037	944.8061	994.6503	1005.5084	1047.1113	1102.3637	1106.8443	1127.5454	1178.5722	1219.7583	1280.5093	1402.6129	1436.1108	1456.7958	1485.1449	1497.4188	1602.4274	1686.1485	1744.238	2993.2429	3039.6102	3104.1527	3189.2441	3206.8233	3224.968	3233.1912
CN=C1OC=CC=C1	C[N]C1=CCC=CO1	
InChI=1S/C6H7NO/c1-7-6-4-2-3-5-8-6/h2-5H,1H3	InChI=1S/C6H8NO/c1-7-6-4-2-3-5-8-6/h3-5H,2H2,1H3
