13
gdb 42178	2.20654	1.683	1.0306	5.0386	69.38	-0.3163	-0.1083	0.208	1083.3619	0.08809	-415.623621	-415.615263	-415.614319	-415.657331	29.32	
O	 0.0126940956	 0.1200776698	-0.6786828076	-0.284921
C	-0.0411417659	 1.2251277496	-0.195506546	 0.272919
C	 1.1866428056	 1.8995589024	 0.253536575	 0.243679
N	 2.1720988647	 2.3981218641	 0.5948942369	-0.305168
C	-1.3265925061	 1.970777516	-0.0228225793	 0.067265
C	-2.3975808232	 1.6833270702	-1.0974730811	-0.268213
C	-2.5639947988	 1.0866404745	 0.2434297617	-0.268304
C	-1.2894628318	 3.2812223915	 0.5647759582	 0.211178
N	-1.2780482708	 4.3370531406	 1.0358865303	-0.327729
H	-3.0110851688	 2.5294844226	-1.3806069363	 0.163139
H	-2.0562596808	 1.0426705923	-1.9018508305	 0.166514
H	-2.3375871478	 0.0340184848	 0.3646745228	 0.166537
H	-3.2970406321	 1.5047553615	 0.921925936	 0.163103
43.4513	113.8881	189.8074	210.5231	242.6015	266.5901	320.3955	442.8892	505.7477	561.5268	563.5557	671.7837	743.4711	792.3303	836.3727	862.0483	970.2741	996.1515	1071.1739	1107.2686	1115.775	1209.8032	1295.3482	1304.6226	1450.6717	1479.5481	1774.7301	2344.0487	2358.8685	3154.9807	3155.0015	3249.2205	3262.4491
O=C(C#N)C1(CC1)C#N	O=C(C#N)C1(CC1)C#N	
InChI=1S/C6H4N2O/c7-3-5(9)6(4-8)1-2-6/h1-2H2	InChI=1S/C6H4N2O/c7-3-5(9)6(4-8)1-2-6/h1-2H2
