15
gdb 24359	3.69995	1.56281	1.1327	1.5653	66.51	-0.2123	0.0134	0.2258	1000.8912	0.115634	-457.77696	-457.770454	-457.76951	-457.80792	25.636	
C	 0.0261433033	 1.4180223206	-0.0022235397	-0.002985
O	 1.3120117644	 1.9514843976	-0.0429072208	-0.23073
C	 2.0421804267	 1.7085755021	 1.1653868376	-0.208828
C	 1.8935039821	 0.2635546414	 1.5309316141	 0.101975
C	 2.538406151	-0.5956259717	 2.3624361492	-0.110527
O	 1.9886706363	-1.8338315728	 2.288487664	-0.14941
C	 0.9579366178	-1.7806865542	 1.390474749	-0.137453
C	 0.8654016832	-0.5150593536	 0.9033175252	 0.258915
O	 0.0134207817	-0.0103801431	-0.0252120778	-0.271337
H	-0.512002853	 1.7587800749	 0.8988322774	 0.093384
H	-0.4914116964	 1.7368738993	-0.9072854855	 0.128956
H	 3.0775355411	 1.9861238	 0.9505358356	 0.133912
H	 1.6715761046	 2.3744312955	 1.9610454745	 0.112028
H	 3.3688872341	-0.490824399	 3.0408878998	 0.140561
H	 0.4250853533	-2.6964080669	 1.2080089374	 0.141539
122.8389	218.7316	340.8052	377.4365	415.2181	475.5039	584.6093	603.6937	655.3342	707.2816	722.1034	753.6379	779.4258	904.7286	956.812	1003.8044	1027.5335	1065.7416	1093.203	1143.7557	1190.2968	1227.834	1248.8056	1255.394	1314.6831	1325.4154	1364.0484	1426.9879	1445.2262	1494.9266	1510.4205	1593.2597	1678.2169	2959.0217	2975.5853	3088.8769	3133.6924	3273.687	3298.8597
C1OCC2=COC=C2O1	C1OCc2cocc2O1	
InChI=1S/C6H6O3/c1-5-2-8-4-9-6(5)3-7-1/h1,3H,2,4H2	InChI=1S/C6H6O3/c1-5-2-8-4-9-6(5)3-7-1/h1,3H,2,4H2
