19
gdb 127073	2.54241	1.4825	1.02087	4.0968	79.42	-0.1969	0.0078	0.2048	1198.8378	0.159522	-415.381303	-415.371927	-415.370982	-415.415824	33.674	
C	 0.0571841206	 1.4645966409	-0.2504473345	-0.316774
N	-0.031564851	 0.0425091423	 0.0597716936	-0.158078
C	 0.6255339597	-0.2996276333	 1.3173848872	-0.336588
C	-1.2965987434	-0.5214132443	-0.1330093007	 0.286975
C	-1.626777304	-1.8633418549	-0.2416426907	 0.253625
C	-0.8130991134	-3.1104878087	-0.203911738	-0.515144
N	-2.9685577937	-1.8235400027	-0.4514932788	-0.224608
N	-3.4440443399	-0.569764416	-0.5029907769	-0.133991
N	-2.4278730941	 0.224206544	-0.2971049324	-0.270122
H	 1.1133658517	 1.7507416884	-0.281197013	 0.109393
H	-0.3922672286	 1.6574690867	-1.2257789437	 0.13884
H	-0.4568694016	 2.0989151644	 0.4884039086	 0.116081
H	 0.1681859655	 0.2026342037	 2.1872527527	 0.10965
H	 0.5879989105	-1.3775897957	 1.4883488526	 0.120518
H	 1.6780027826	-0.0027837121	 1.2666653707	 0.120905
H	-0.7346838582	-3.5346429824	 0.8049047657	 0.140135
H	-1.2352111163	-3.883558885	-0.8540634883	 0.129404
H	 0.20104051	-2.8962522262	-0.5529380247	 0.154868
H	-3.6023602065	-2.594649429	-0.5906007893	 0.27491
40.8134	143.3407	162.3274	180.3092	217.0335	236.8505	246.6055	291.3917	373.1103	419.5649	508.9079	561.1965	615.2684	705.5175	707.8699	761.7834	962.958	989.3917	1025.8337	1061.8894	1073.9041	1104.6625	1122.7936	1174.7387	1181.2191	1219.8542	1241.9439	1296.2832	1358.5444	1372.4447	1422.0263	1445.8053	1460.7949	1476.1762	1483.8527	1488.38	1497.662	1500.8734	1507.6743	1541.2614	1632.5003	2958.7363	2985.8999	3022.3525	3069.3444	3070.9362	3079.7407	3112.3076	3122.0782	3135.3488	3650.101	40.81	143.339	162.3268	180.3088	217.0337	236.85	246.6053	291.3913	373.1103	419.5649	508.908	561.1963	615.2682	705.5174	707.8701	761.7836	962.9577	989.3919	1025.8337	1061.89	1073.9044	1104.6628	1122.7941	1174.7391	1181.2196	1219.8545	1241.9444	1296.2838	1358.5444	1372.4451	1422.0268	1445.8057	1460.7952	1476.1768	1483.8535	1488.3804	1497.6625	1500.8738	1507.6747	1541.2615	1632.5007	2958.736	2985.8997	3022.3525	3069.3442	3070.9362	3079.7406	3112.3075	3122.0781	3135.3487	3650.1011
CN(C)C1=C(C)NN=N1	CN(C)c1c(C)[nH]nn1	
InChI=1S/C5H10N4/c1-4-5(9(2)3)7-8-6-4/h1-3H3,(H,6,7,8)	InChI=1S/C5H10N4/c1-4-5(9(2)3)7-8-6-4/h1-3H3,(H,6,7,8)
