18
gdb 26659	2.22507	1.60822	0.94833	0.3918	76.97	-0.1761	0.039	0.2151	1225.9129	0.145899	-439.11921	-439.109212	-439.108268	-439.153765	35.835	
C	 0.1576484079	 1.4739803886	 0.0331493021	-0.490321
C	-0.0476555365	 0.0021652402	 0.0073415113	 0.252622
C	-1.1510926605	-0.7971614417	 0.0421474901	 0.146709
C	-2.5920966369	-0.4013983347	 0.1125577659	-0.516267
C	-0.6672930066	-2.1578451099	-0.0255891713	 0.030985
N	-1.4661963878	-3.3157058037	-0.1122210598	-0.616418
C	 0.6848183997	-2.0671892867	-0.0869186532	 0.279433
O	 1.6372050823	-3.0267782805	-0.1017802153	-0.43247
O	 1.0890713254	-0.7633076909	-0.0719026518	-0.216683
H	 0.7345354782	 1.7892437213	 0.9111054463	 0.13374
H	 0.700869336	 1.820753226	-0.8540050304	 0.132188
H	-0.8050393402	 1.989139421	 0.0615454744	 0.130579
H	-3.169505598	-0.8799413351	-0.6868247515	 0.136392
H	-3.0540108506	-0.7015332306	 1.0623301285	 0.119884
H	-2.7193697541	 0.6801159302	 0.018318213	 0.122978
H	-2.1457779036	-3.3651206847	 0.6393864668	 0.239884
H	-0.8918517514	-4.1501218533	-0.0718850614	 0.243349
H	 2.1606863668	-2.9524296455	-0.9097482039	 0.303417
101.3384	124.6992	147.1103	164.7792	186.4857	226.7175	258.0808	278.2245	296.8621	338.0594	342.893	543.0652	592.0044	611.4437	622.8932	672.6511	735.8989	827.9273	868.9259	983.4507	1007.1695	1057.6936	1065.5882	1142.022	1171.7503	1204.0239	1269.6604	1298.2146	1340.7352	1412.4797	1423.6871	1463.5686	1471.3274	1479.7306	1492.5139	1499.7413	1647.0141	1662.8071	1743.1051	3017.1557	3022.7996	3066.7736	3068.3486	3112.0032	3125.8181	3505.403	3593.5764	3753.8794
CC1=C(C)C(N)=C(O)O1	Cc1c(C)c(N)c(O)o1	
InChI=1S/C6H9NO2/c1-3-4(2)9-6(8)5(3)7/h8H,7H2,1-2H3	InChI=1S/C6H9NO2/c1-3-4(2)9-6(8)5(3)7/h8H,7H2,1-2H3
