19
gdb 39770	2.99962	1.79775	1.45992	1.6423	77.7	-0.2364	0.0822	0.3186	955.0337	0.16103	-385.812983	-385.806208	-385.805264	-385.843691	28.975	
C	-0.0171315801	 1.5263689407	 0.0372399074	-0.30569
C	 1.3096476051	 0.8139934059	-0.0542169146	-0.046533
C	 0.0109438887	 0.0202005938	-0.0455649703	-0.046534
C	 0.1628251136	-0.6589130557	-1.4223811655	-0.024174
O	 1.573871486	-1.0920462532	-1.3775182434	-0.305375
C	 1.8314010293	 0.3609527785	-1.4334977095	-0.024182
C	 0.6283888959	 0.4439281121	-2.3776647575	 0.440357
C	 0.6692378229	 0.3608429085	-3.8646173997	-0.368425
C	-0.0336458537	 1.5183127865	-3.1761020706	-0.362508
H	-0.2603269447	 1.934902137	 1.0140319819	 0.10803
H	-0.3853577705	 2.1198217977	-0.7879644312	 0.125116
H	 1.9921603345	 0.8121358406	 0.7866275532	 0.095216
H	-0.2904685778	-0.5830490456	 0.8018351238	 0.095216
H	-0.5338331652	-1.4477964566	-1.7056909833	 0.076683
H	 2.848375505	 0.619477043	-1.7282221847	 0.076683
H	 1.6103689859	 0.5617815266	-4.36647554	 0.116071
H	 0.0564055978	-0.3880646172	-4.3560846367	 0.116071
H	-1.1187544103	 1.5470985597	-3.2059512264	 0.116988
H	 0.4352376577	 2.4969390877	-3.2163442731	 0.116988
197.993	209.5653	261.6131	383.1874	390.4806	486.466	606.386	649.7781	681.5403	751.86	783.0714	804.3828	818.5458	853.7933	866.0636	899.2333	912.1471	926.1443	966.8061	989.939	997.499	1036.3041	1041.5462	1061.2613	1080.7173	1085.8378	1099.0206	1099.5467	1182.4684	1185.1322	1185.7271	1225.0588	1242.6996	1244.2744	1275.2344	1313.5015	1354.2316	1426.2984	1463.7575	1482.6131	1514.6571	3118.7101	3123.0879	3125.2289	3126.0451	3136.1948	3183.7304	3192.4276	3196.0771	3211.7721	3234.1496
C1C2C1C1OC2C11CC1	C1[C@H]2[C@@H]1[C@@H]1O[C@H]2C21CC2	
InChI=1S/C8H10O/c1-2-8(1)6-4-3-5(4)7(8)9-6/h4-7H,1-3H2	InChI=1S/C8H10O/c1-2-8(1)6-4-3-5(4)7(8)9-6/h4-7H,1-3H2/t4-,5+,6+,7-
