18
gdb 103143	2.29535	1.46904	1.15135	2.5015	67.62	-0.2465	0.	0.2464	1127.5536	0.14692	-476.242748	-476.233369	-476.232425	-476.276789	34.365	
C	-0.2251031077	 1.5151153241	-0.0608836372	-0.401687
C	 0.0717490549	 0.0352214122	-0.0152606291	 0.107615
O	 1.2957110232	-0.3150622031	-0.7696159776	-0.263341
C	 1.9257305235	-0.7777745064	 0.3498613433	 0.415203
O	 3.0285972589	-1.2259044198	 0.4470709276	-0.351955
C	 0.7118352519	-0.5526551656	 1.2753642059	 0.061734
N	 0.8177167493	 0.3064454649	 2.4296853138	-0.560034
C	 0.1499248003	-1.9126379861	 1.7141689612	-0.105744
O	 1.0114148873	-2.531153138	 2.6506993617	-0.421586
H	 0.6338904661	 2.105329864	 0.2698613554	 0.122746
H	-0.4798154553	 1.8220387283	-1.0789912098	 0.135208
H	-1.0685759578	 1.7419162547	 0.5972456675	 0.141838
H	-0.759943843	-0.5542634114	-0.4131268416	 0.09721
H	 1.1214952972	-0.2573192972	 3.2190487204	 0.249806
H	 1.5088742043	 1.0370920369	 2.2993448278	 0.239104
H	-0.8063245865	-1.759026812	 2.225028141	 0.125987
H	-0.0252128832	-2.547777489	 0.8336750628	 0.105588
H	 1.8675158468	-2.6570276865	 2.220710887	 0.302309
96.929	99.9563	157.3746	184.4705	225.7407	257.2677	282.1774	327.0934	342.5987	441.3888	478.0631	495.8848	594.3381	712.3131	762.2513	769.2196	849.8135	866.6859	912.5769	1007.155	1017.9127	1044.5427	1070.7988	1089.4339	1144.7558	1156.0627	1217.5408	1274.6562	1287.7062	1354.6336	1387.6751	1400.4064	1413.7909	1429.9704	1478.147	1493.7333	1498.5549	1665.749	1902.6401	3000.5343	3048.4256	3065.2892	3080.9594	3123.9678	3127.3277	3501.2765	3580.2956	3770.2577
CC1OC(=O)C1(N)CO	C[C@H]1OC(=O)[C@]1(N)CO	
InChI=1S/C5H9NO3/c1-3-5(6,2-7)4(8)9-3/h3,7H,2,6H2,1H3	InChI=1S/C5H9NO3/c1-3-5(6,2-7)4(8)9-3/h3,7H,2,6H2,1H3/t3-,5+/m1/s1
