21
gdb 39877	3.76758	1.49155	1.38002	0.0917	86.44	-0.2523	0.1009	0.3533	1027.1979	0.185752	-349.906497	-349.899739	-349.898794	-349.937215	29.396	
C	-0.001274365	 1.5595497242	 0.0621756795	-0.359208
C	 1.292490862	 0.7610007152	-0.0019987998	-0.360142
C	-0.0325889333	 0.0668957419	 0.004879518	 0.45623
C	-0.5333774562	-0.9733195462	 1.0178913502	-0.139449
C	-2.060719638	-0.8755283706	 0.7966437064	-0.205864
C	-2.0134231876	-1.3608434622	-0.6708910276	-0.047339
C	-1.479415017	-2.8070947017	-0.490265146	-0.240815
C	-0.1888430066	-2.0920165539	-0.0663957607	-0.015603
C	-0.5256023919	-0.9140794112	-1.0419082224	-0.120939
H	-0.2471974813	 2.0475193281	 1.0007588589	 0.107793
H	-0.2960338044	 2.1208814945	-0.8190632943	 0.108755
H	 1.8616254935	 0.7874854283	-0.9263629331	 0.108669
H	 1.9050249987	 0.7202340764	 0.8935065026	 0.109139
H	-0.1507251514	-1.014287989	 2.0377447904	 0.057423
H	-2.6514239764	-1.5418685508	 1.4324410082	 0.085984
H	-2.4276020851	 0.1470492353	 0.9195638327	 0.093533
H	-2.8626497808	-1.1381043765	-1.3161462275	 0.057843
H	-2.0021426892	-3.4624172296	 0.2146114875	 0.085366
H	-1.3394086009	-3.3270254734	-1.4429740646	 0.093404
H	 0.7922558304	-2.5610766146	-0.0129912487	 0.064705
H	-0.2361794193	-0.895269384	-2.0923483997	 0.060513
160.824	232.9811	247.635	420.0552	452.8643	477.2532	574.5448	677.2507	736.6184	773.8161	805.574	826.2821	832.3873	874.3153	911.7644	919.438	926.1165	937.3825	952.1503	979.963	981.9264	998.1789	1011.2669	1044.7995	1049.7394	1066.7489	1075.2869	1089.2799	1149.1436	1155.3812	1180.767	1183.6424	1201.3282	1215.5451	1233.3683	1239.7188	1254.6527	1280.6228	1301.5686	1317.8427	1414.0474	1463.0163	1491.8439	1508.5113	1513.7642	3036.8366	3051.3656	3092.6154	3098.9413	3111.5554	3113.0176	3116.6145	3120.4498	3120.7924	3131.5338	3193.0018	3207.7538
C1CC11C2CC3CC2C13	C1CC21[C@H]1C[C@@H]3C[C@H]1[C@H]23	
InChI=1S/C9H12/c1-2-9(1)7-4-5-3-6(7)8(5)9/h5-8H,1-4H2	InChI=1S/C9H12/c1-2-9(1)7-4-5-3-6(7)8(5)9/h5-8H,1-4H2/t5-,6+,7-,8+/m0/s1
