15
gdb 101992	2.25668	0.89221	0.66099	2.7278	85.79	-0.2509	-0.0538	0.197	1618.587	0.107801	-420.556701	-420.546651	-420.545707	-420.592941	34.046	
C	-0.8876896179	 0.8542286765	-0.0838301148	-0.239204
O	 0.3480030373	 0.2358830559	 0.2303029712	-0.229464
C	 0.9559118691	-0.4241596212	-0.8596704384	-0.183077
C	 2.3473643231	-0.8530901409	-0.3496794435	 0.160586
O	 3.3333927521	-0.8636636647	-1.0290283347	-0.229621
C	 0.2263128851	-1.6127855307	-1.3022965985	 0.518712
C	-0.3573677595	-2.6165926351	-1.6463274174	-0.369246
C	-1.0121564639	-3.7427296883	-2.0363346287	 0.300774
C	-1.5952710319	-4.7415877556	-2.3825940891	-0.541296
H	-0.7668800747	 1.6103899635	-0.8732340261	 0.114898
H	-1.6358049793	 0.1197864912	-0.4088114053	 0.128253
H	-1.2338070125	 1.3421836756	 0.8292039757	 0.138409
H	 1.1077007321	 0.256362838	-1.7124362831	 0.121371
H	 2.334315887	-1.1498920202	 0.7194274132	 0.108736
H	-2.1045795462	-5.6220890341	-2.6879271904	 0.200169
53.868	70.2572	98.4346	111.9905	193.2089	211.5421	214.8013	271.2027	391.832	449.399	469.2617	524.5732	541.6275	573.0361	598.9038	618.9988	757.3929	956.9027	1019.8364	1046.484	1138.9908	1165.2252	1183.2081	1210.7123	1270.4704	1331.5076	1391.9589	1477.3287	1485.0498	1507.3363	1850.9413	2179.3062	2351.7908	2927.8648	2987.0428	2995.3342	3057.0321	3131.7866	3502.6791
COC(C=O)C#CC#C	CO[C@@H](C=O)C#CC#C	
InChI=1S/C7H6O2/c1-3-4-5-7(6-8)9-2/h1,6-7H,2H3	InChI=1S/C7H6O2/c1-3-4-5-7(6-8)9-2/h1,6-7H,2H3/t7-/m1/s1
