20
gdb 40449	3.40192	1.2253	1.10869	1.8271	78.22	-0.2441	0.0723	0.3164	1173.5025	0.17311	-403.116779	-403.108927	-403.107983	-403.149335	30.807	
C	 0.0463092799	 1.4637444179	-0.036758592	-0.191255
O	 1.1840113296	 0.6018608442	-0.1225353767	-0.241322
C	-0.1079798159	 0.0045511828	 0.0384416812	 0.016071
C	-0.355984213	-0.7310653304	 1.3141965983	 0.34004
C	 0.105920081	-0.1445905491	 2.6422248981	-0.301477
C	 0.0645116879	-1.3264173172	 3.6395191791	-0.247103
C	 0.2661211513	-2.596738206	 2.7788706959	-0.22661
C	-0.2673569132	-2.219906372	 1.4072569643	-0.051129
N	-1.5767734789	-1.5585310442	 1.3142192042	-0.384303
H	-0.015012783	 2.0642816314	 0.8690872012	 0.111365
H	-0.2164798552	 1.9850124649	-0.9562682484	 0.115941
H	-0.4828954247	-0.5124269955	-0.8448175391	 0.094547
H	 1.1264467379	 0.2309856153	 2.5100472883	 0.125436
H	-0.5118969314	 0.6971585469	 2.974700672	 0.098043
H	 0.8176646066	-1.2324209855	 4.4252397653	 0.10756
H	-0.9041622938	-1.3608748946	 4.1488546507	 0.103542
H	 1.3311453744	-2.8404970784	 2.6852371637	 0.110805
H	-0.2277041787	-3.4765679861	 3.2059756297	 0.102772
H	-0.0099625515	-2.8383199762	 0.5517624586	 0.09067
H	-2.0459220993	-1.5245653281	 2.2159448855	 0.226406
74.3259	153.8091	193.2869	225.7228	301.0013	383.1634	416.5834	522.6146	578.0364	651.372	699.0891	801.5741	847.5396	863.9528	870.1104	897.4334	909.2101	939.7938	963.0088	1009.4719	1023.517	1048.3466	1063.7795	1099.5837	1114.3479	1152.5023	1162.1098	1173.7948	1186.7221	1215.2022	1258.4326	1271.8964	1295.9203	1304.7106	1323.1554	1340.0495	1358.5289	1399.468	1468.0707	1489.7991	1497.8919	1511.5048	1529.4577	3034.2732	3037.8029	3047.6286	3072.8309	3079.348	3086.6661	3104.0193	3114.9454	3148.7721	3172.6875	3497.7519
C1OC1C12CCCC1N2	C1O[C@H]1[C@]12CCC[C@H]1N2	
InChI=1S/C7H11NO/c1-2-5-7(3-1,8-5)6-4-9-6/h5-6,8H,1-4H2	InChI=1S/C7H11NO/c1-2-5-7(3-1,8-5)6-4-9-6/h5-6,8H,1-4H2/t5-,6-,7+/m1/s1
