19
gdb 44633	2.84482	1.61287	1.43265	2.8605	77.78	-0.2358	-0.0208	0.215	990.2898	0.160458	-385.860319	-385.85309	-385.852146	-385.892304	29.251	
O	 0.2422369399	 0.0494952798	-0.6595648756	-0.301096
C	 0.1169179895	 1.169526797	-0.2562797395	 0.40634
C	-1.096990477	 2.0022891966	 0.2148812968	-0.371114
C	-0.1313691455	 3.1921236322	 0.4805820162	-0.042381
C	 0.5628808565	 3.3174936475	 1.8773092741	-0.018819
C	 0.2591378688	 2.2659941392	 2.9785734481	-0.238169
C	 1.4064054545	 1.3559253236	 2.4307162556	-0.247835
C	 1.7554056057	 2.4412471906	 1.3704050301	-0.017711
C	 1.084820893	 2.3437559829	-0.0450203654	-0.162839
H	-1.7877115412	 2.1888844442	-0.6148945117	 0.131768
H	-1.6763470331	 1.5917563082	 1.0460972408	 0.128505
H	-0.4125049685	 4.1359176237	 0.0147361059	 0.074907
H	 0.7033917391	 4.3464385459	 2.21138252	 0.067751
H	 0.4649690398	 2.6471854472	 3.9817763066	 0.103817
H	-0.7456886327	 1.8363684771	 2.9893218394	 0.101732
H	 2.2070532039	 1.1783253098	 3.1521166749	 0.102748
H	 1.0996557269	 0.3881472079	 2.0271094689	 0.122268
H	 2.7847197971	 2.8003402633	 1.3584537512	 0.073122
H	 1.7097616331	 2.6213003233	-0.8955864163	 0.087009
53.8946	150.2745	276.2753	339.4814	422.4315	435.5707	526.5638	594.9395	695.9031	714.7688	730.599	777.5141	821.4737	847.8732	860.9047	892.1098	907.5706	955.4054	963.0712	1005.6309	1045.9023	1049.5334	1078.1887	1082.2106	1117.17	1133.2208	1157.2371	1201.0959	1205.5242	1224.1009	1228.637	1244.9116	1260.5986	1279.2585	1302.1614	1313.3164	1322.274	1432.3338	1485.4224	1501.8638	1881.1721	3051.9805	3060.9482	3068.2057	3086.1097	3094.8285	3101.7839	3103.0999	3107.0857	3116.9215	3123.581
O=C1CC2C3CCC3C12	O=C1C[C@H]2[C@H]3CC[C@H]3[C@@H]12	
InChI=1S/C8H10O/c9-7-3-6-4-1-2-5(4)8(6)7/h4-6,8H,1-3H2	InChI=1S/C8H10O/c9-7-3-6-4-1-2-5(4)8(6)7/h4-6,8H,1-3H2/t4-,5+,6-,8+/m0/s1
