17
gdb 126019	3.03678	1.64042	1.11557	1.799	74.25	-0.2045	0.004	0.2084	1061.0698	0.139828	-414.188076	-414.180522	-414.179578	-414.220021	28.887	
C	-0.2026504561	 1.5759825072	-0.0101331551	-0.396537
C	 0.0339042937	 0.0655664519	 0.0336385793	-0.118048
C	 0.9289839388	-0.4638072977	-1.1477232497	-0.180097
N	 1.6991566891	-1.6235605942	-0.6133342072	-0.404486
C	 1.7622862113	-1.4027905378	 0.7571124224	 0.354538
N	 2.4418549255	-1.8945208089	 1.7796046194	-0.341361
N	 1.8656994084	-1.2298103965	 2.8119720691	-0.114969
N	 0.8977448078	-0.357272213	 2.5121459878	-0.319267
C	 0.8248267836	-0.462164581	 1.1939636812	 0.301538
H	 0.7449268486	 2.1216143118	 0.0403547859	 0.120699
H	-0.7172079492	 1.8660198382	-0.9322227244	 0.114968
H	-0.8192980025	 1.8943817206	 0.8349969051	 0.133635
H	-0.9382569829	-0.4450199937	-0.0069096084	 0.102128
H	 0.3331987562	-0.7692053825	-2.0114350554	 0.11411
H	 1.6061001054	 0.3428422948	-1.4659243217	 0.102852
H	 2.5724746077	-1.8122984984	-1.0863980857	 0.244228
H	 2.2072581648	-1.3345457909	 3.7516665175	 0.286069
114.027	173.3757	214.2734	270.4557	288.4465	351.2168	442.7108	514.4219	550.814	630.9018	677.2229	691.1232	779.6544	803.8668	905.0338	946.299	976.8572	1006.3595	1058.2114	1108.2203	1131.3042	1140.0446	1164.0158	1198.6659	1228.6776	1301.3227	1310.585	1357.9559	1388.3027	1412.3403	1448.8965	1472.4153	1494.9473	1499.1628	1510.6944	1561.2092	1633.0542	2990.7742	3006.3721	3036.2105	3091.491	3105.2337	3115.9399	3581.7438	3692.6041
CC1CNC2=NNN=C12	C[C@H]1CNc2n[nH]nc12	
InChI=1S/C5H8N4/c1-3-2-6-5-4(3)7-9-8-5/h3H,2H2,1H3,(H2,6,7,8,9)	InChI=1S/C5H8N4/c1-3-2-6-5-4(3)7-9-8-5/h3H,2H2,1H3,(H2,6,7,8,9)/t3-/m0/s1
