20
gdb 106536	2.09992	1.50268	1.48522	1.9695	80.28	-0.2403	0.0071	0.2474	1088.5458	0.169547	-403.100096	-403.090989	-403.090045	-403.133793	34.218	
C	 0.1161964877	 1.4848610885	-0.2139746287	-0.396526
C	-0.0268725796	 0.0012259086	 0.1553859646	-0.325459
C	-1.4185179064	-0.5439206694	-0.0044886835	 0.222483
C	-1.8967708716	-2.0220088982	 0.0901780704	-0.266501
C	-3.2063905661	-1.2127606536	-0.0599651771	-0.138008
N	-2.6017960432	-0.2413669803	 0.9402460188	-0.119034
C	-3.1634202785	 1.1125851627	 0.9955792124	-0.345329
C	-2.4751051067	-0.3681989376	-1.1321955526	 0.388114
O	-2.6806335853	 0.2811882846	-2.1123708341	-0.334204
H	 1.1652990575	 1.7909465512	-0.1685399234	 0.115447
H	-0.2525264662	 1.6708242293	-1.2264786081	 0.146256
H	-0.445071049	 2.1275923929	 0.4698833638	 0.122683
H	 0.629727982	-0.5981951272	-0.4877328992	 0.114898
H	 0.3075184152	-0.1755799326	 1.1849720315	 0.113578
H	-1.6174343473	-2.6930205039	-0.7237228525	 0.107561
H	-1.767629795	-2.4570598488	 1.0825758405	 0.111224
H	-4.2385909731	-1.5480710518	 0.0211369467	 0.097057
H	-4.1553774045	 1.0480808697	 1.4538786473	 0.127063
H	-2.5355175056	 1.7253137024	 1.6479028504	 0.129701
H	-3.2625271443	 1.6175990334	 0.023089763	 0.128998
71.8837	139.9235	146.7219	192.0856	219.6183	250.4402	328.6052	340.4492	405.7121	462.7664	537.4267	652.4203	658.0375	736.6893	779.689	805.4599	838.845	846.7585	937.5205	980.9152	1003.4694	1011.9159	1052.6664	1097.7239	1145.4785	1156.3201	1159.3157	1180.0279	1193.0849	1210.9691	1220.7071	1299.4205	1317.7526	1393.2395	1416.4192	1447.7489	1473.8266	1481.7716	1492.6964	1498.0213	1504.0165	1511.1901	1884.9065	2992.2871	3027.0976	3047.5769	3060.8012	3076.2146	3080.3714	3111.208	3117.0641	3125.483	3144.1535	3155.7213
CCC12CC(N1C)C2=O	CC[C@@]12C[C@@H](N1C)C2=O	
InChI=1S/C7H11NO/c1-3-7-4-5(6(7)9)8(7)2/h5H,3-4H2,1-2H3	InChI=1S/C7H11NO/c1-3-7-4-5(6(7)9)8(7)2/h5H,3-4H2,1-2H3/t5-,7+/m1/s1
