19
gdb 95363	2.86011	1.5335	1.10008	0.2675	77.19	-0.2347	0.0032	0.2379	1107.9079	0.16102	-423.030992	-423.023144	-423.0222	-423.063542	30.516	
O	 0.0258254172	 1.3613228606	-0.2597384144	-0.424512
C	 0.0636334963	-0.0384838123	-0.0239890066	 0.032448
C	 0.6638906214	-0.4544121727	 1.3687105509	-0.249929
C	-0.5107129299	-1.0066898503	 2.2188223919	-0.25008
C	-1.3943641324	-1.6694177093	 1.1457331679	 0.08196
O	-2.7807765085	-1.8064658599	 1.4186583743	-0.284899
C	-3.5253361902	-1.1770059801	 0.3686386277	-0.111073
C	-2.5149335735	-0.3639458253	-0.4083633329	-0.265044
C	-1.2978656652	-0.6738599861	 0.0223706452	 0.267385
H	-0.6637920494	 1.7282422651	 0.3047848226	 0.274959
H	 0.6873737371	-0.4334517128	-0.8327252727	 0.101843
H	 1.41419799	-1.2382857142	 1.2183236777	 0.106445
H	 1.1741905017	 0.3956401986	 1.8273785154	 0.112016
H	-0.1836459997	-1.6837728751	 3.0116805092	 0.101961
H	-1.0826444896	-0.1939755659	 2.6803839559	 0.102098
H	-0.9711855185	-2.6538937883	 0.8789131985	 0.076439
H	-4.0285050161	-1.9376732646	-0.251718738	 0.10495
H	-4.3121328512	-0.5503055591	 0.8114977567	 0.110277
H	-2.7866522795	 0.3838550416	-1.1427552994	 0.112755
74.3694	150.8489	172.8958	285.9752	314.7053	350.6363	420.67	475.6997	576.8086	622.6997	683.746	773.069	786.9547	831.4375	858.5041	921.1996	933.3519	967.5662	973.2622	1019.7508	1027.7335	1042.6627	1085.3391	1122.9867	1152.2538	1172.6259	1186.1405	1196.1154	1254.8855	1272.2819	1282.3805	1302.9413	1327.3553	1344.0605	1362.8632	1387.0883	1430.4286	1481.0551	1498.4386	1520.2145	1735.5513	2942.5267	2962.9486	3014.7592	3043.1632	3048.3612	3058.4908	3102.5561	3112.3476	3215.9852	3798.8356
OC1CCC2OCC=C12	O[C@H]1CC[C@H]2OC[CH][C]12	
InChI=1S/C7H10O2/c8-6-1-2-7-5(6)3-4-9-7/h3,6-8H,1-2,4H2	InChI=1S/C7H10O2/c8-6-1-2-7-5(6)3-4-9-7/h3,6-8H,1-2,4H2/t6-,7+/m0/s1
