21
gdb 116305	2.37546	1.31533	0.95977	1.3639	75.6	-0.2509	0.0809	0.3317	1308.0073	0.181559	-461.348755	-461.338887	-461.337942	-461.384289	34.613	
C	-0.3250253582	 1.590975356	-0.0920524253	-0.235478
O	-0.2550066364	 0.3166424133	 0.5057439759	-0.237186
C	-1.25651838	-0.5640376279	 0.0777238355	 0.112783
C	-1.0946741296	-1.1516388419	-1.3398225404	-0.279015
C	-1.8751235449	-2.4737654325	-1.2352487508	-0.078926
O	-2.0684260183	-2.7361768961	 0.16855499	-0.269008
C	-1.2812176264	-1.8447730017	 0.9231015699	 0.184511
O	 0.0333694252	-2.2894133483	 1.0918251567	-0.235758
C	 0.1375910176	-3.4479356871	 1.8972688029	-0.239428
H	 0.4505877288	 2.2059628616	 0.3703957219	 0.129688
H	-0.1440479055	 1.5540742037	-1.1764844158	 0.107608
H	-1.304112849	 2.0672492793	 0.0777364009	 0.102458
H	-2.2476587519	-0.0900777282	 0.1727935404	 0.070268
H	-1.4814773685	-0.5033711096	-2.1283939688	 0.101862
H	-0.0305298264	-1.3274518452	-1.5160656607	 0.128192
H	-2.8675418137	-2.4089674196	-1.6943481796	 0.105572
H	-1.3404511513	-3.3101553465	-1.6986303495	 0.108149
H	-1.7780941662	-1.733757734	 1.8969979029	 0.071893
H	 1.1997827927	-3.6903206881	 1.9728438941	 0.125083
H	-0.259757512	-3.2683398339	 2.9080405566	 0.104936
H	-0.400034256	-4.2963484531	 1.4568667332	 0.121798
72.5195	84.5506	100.9559	132.3125	163.3237	189.6407	205.5494	281.9118	351.4538	402.8561	497.4124	558.7674	667.3512	755.5045	850.7514	903.9584	931.7314	949.1525	997.1335	1028.0131	1068.9515	1088.845	1118.1569	1145.4672	1177.8237	1181.414	1182.9178	1209.161	1218.5395	1236.6117	1239.8481	1294.2199	1324.5904	1349.8843	1386.7351	1393.6861	1413.0212	1477.502	1481.6893	1484.6129	1487.9003	1494.1177	1509.4288	1513.0211	1528.3417	2964.4662	2973.8314	2988.379	3017.4534	3022.3476	3033.5114	3058.2276	3066.6382	3074.0435	3115.8105	3123.3217	3125.9101
COC1CCOC1OC	CO[C@H]1CCO[C@H]1OC	
InChI=1S/C6H12O3/c1-7-5-3-4-9-6(5)8-2/h5-6H,3-4H2,1-2H3	InChI=1S/C6H12O3/c1-7-5-3-4-9-6(5)8-2/h5-6H,3-4H2,1-2H3/t5-,6+/m0/s1
