18
gdb 7852	3.78252	1.26812	1.22267	1.794	68.99	-0.2632	0.0162	0.2794	1098.4969	0.151465	-384.967743	-384.958678	-384.957734	-385.002724	31.674	
C	-0.2189166171	 1.3868870334	 0.4251272072	-0.408625
C	 0.0733466334	-0.0745663576	 0.1720595002	-0.01439
C	 1.4381563487	-0.509986264	-0.3329282294	-0.336237
C	 1.0110622103	-0.8457014113	 1.0600833133	 0.137376
O	 1.7005069235	-0.1505783922	 2.0854086749	-0.243425
C	 1.2329272364	-0.3309795842	 3.3460960496	 0.427745
C	 2.0604613912	 0.4618227414	 4.3289671289	-0.480686
O	 0.2979998481	-1.0370887336	 3.6203198978	-0.346483
H	 0.6568309645	 1.8982660492	 0.8333209778	 0.122003
H	-0.5051436863	 1.8947399321	-0.5017391525	 0.118946
H	-1.039753307	 1.5054711058	 1.1406956681	 0.125127
H	-0.7732580113	-0.6500651987	-0.1931727877	 0.092981
H	 1.5139218728	-1.310905441	-1.0598093492	 0.117014
H	 2.1919792112	 0.2642941194	-0.4314747453	 0.1228
H	 0.7647120386	-1.8639548702	 1.334259315	 0.118362
H	 2.0179468321	 1.526658201	 4.0828020897	 0.148793
H	 1.6810882697	 0.2979665915	 5.3367189477	 0.148187
H	 3.1088889312	 0.156600789	 4.2691884341	 0.150513
33.3792	59.3764	97.3425	168.8214	202.9041	240.8185	326.8522	368.3492	434.3571	544.0287	611.5346	649.3811	779.6326	812.9825	836.4355	897.2369	948.4654	972.8036	1035.5341	1050.9239	1063.2197	1095.4444	1105.9082	1139.0258	1169.6486	1191.819	1237.0994	1260.4751	1375.1477	1393.4938	1412.8105	1419.9524	1469.6314	1476.2616	1487.6497	1496.3479	1505.5324	1830.6208	3035.1391	3057.4203	3095.1902	3114.0764	3122.1599	3134.3503	3143.6821	3169.6566	3189.914	3222.5733
CC1CC1OC(C)=O	C[C@H]1C[C@H]1OC(=O)C	
InChI=1S/C6H10O2/c1-4-3-6(4)8-5(2)7/h4,6H,3H2,1-2H3	InChI=1S/C6H10O2/c1-4-3-6(4)8-5(2)7/h4,6H,3H2,1-2H3/t4-,6+/m0/s1
