17
gdb 8897	3.81584	1.21782	1.01961	3.098	61.55	-0.2328	0.009	0.2419	1160.6562	0.140714	-438.151658	-438.142045	-438.141101	-438.186647	32.733	
C	-0.0187377655	 1.3416497008	 0.0126584126	-0.24269
O	-0.0029689695	-0.0903807454	-0.066987669	-0.230037
C	 0.5984094695	-0.600492979	-1.1565623195	 0.44727
O	 1.0961403136	 0.0694680103	-2.0269870988	-0.364635
C	 0.6133316654	-2.1197999115	-1.1194187573	-0.064372
N	 0.7290913853	-2.6315141318	-2.4761362346	-0.524922
C	 1.7470433321	-2.5726053111	-0.1759286883	-0.093553
O	 1.7392879568	-3.9919091645	-0.1911727196	-0.419445
H	 0.9992626718	 1.7393023965	 0.0191297989	 0.140352
H	-0.5560494674	 1.7662440415	-0.8387968548	 0.145803
H	-0.5296068799	 1.5810159564	 0.9450971174	 0.135439
H	-0.3282520936	-2.4628463467	-0.6744670588	 0.110486
H	 1.386685793	-2.0499523767	-2.9882553513	 0.236113
H	 1.1033662945	-3.5742155133	-2.4320258357	 0.238015
H	 2.7039536633	-2.1725647527	-0.5463154213	 0.093322
H	 1.573095575	-2.1790264808	 0.8362915634	 0.100292
H	 2.5268685556	-4.3062543521	 0.2615213267	 0.292562
45.5501	109.5179	115.1071	127.8081	218.6148	234.443	243.8668	300.0745	324.7245	363.8987	390.9423	525.7951	694.9924	763.9892	868.4052	900.9917	939.2526	1020.9022	1054.134	1083.9192	1165.0738	1179.3526	1184.4737	1211.13	1221.8426	1256.9762	1283.4198	1349.7201	1423.0629	1439.3828	1475.7435	1481.666	1497.5657	1516.2222	1635.0062	1820.3933	2975.1449	3017.1474	3048.0209	3053.528	3128.706	3161.5647	3493.5002	3582.262	3838.2922
COC(=O)C(N)CO	COC(=O)[C@@H](N)CO	
InChI=1S/C4H9NO3/c1-8-4(7)3(5)2-6/h3,6H,2,5H2,1H3	InChI=1S/C4H9NO3/c1-8-4(7)3(5)2-6/h3,6H,2,5H2,1H3/t3-/m0/s1
