18
gdb 8684	2.69388	1.64771	1.30622	3.9688	68.06	-0.2445	0.0215	0.266	1023.048	0.152274	-381.127856	-381.118198	-381.117254	-381.161752	34.617	
C	 0.0303879026	 1.5136544419	 0.1736542134	-0.419926
C	-0.0520395071	-0.0016429976	-0.0225101884	-0.195567
C	 0.7020268618	-0.5222936725	-1.2672209599	 0.209877
O	 2.0862100723	-0.1782479848	-1.2214130432	-0.45665
C	 0.6708452442	-2.0587028077	-1.3262545457	-0.164222
N	 1.3434993901	-2.530678696	-2.5266868141	-0.506892
C	 0.0885831015	 0.0506083849	-2.489692361	 0.275578
N	-0.3998233626	 0.5722715189	-3.3979965508	-0.346615
H	 1.0660600379	 1.8409138087	 0.3132185693	 0.116584
H	-0.3917435885	 2.0521258983	-0.6804955628	 0.145541
H	-0.5257148729	 1.8128226285	 1.0660852274	 0.127116
H	 0.3785383322	-0.5147248724	 0.8442180844	 0.111752
H	-1.099773354	-0.3134364831	-0.0996949861	 0.116041
H	 2.17856798	 0.7653969631	-1.3889383356	 0.298431
H	 1.1112725226	-2.4091218284	-0.3774589591	 0.096276
H	-0.3734167316	-2.38655649	-1.3484236586	 0.117914
H	 2.3230541449	-2.2701123191	-2.4855366205	 0.241854
H	 1.2970223265	-3.5416071728	-2.5850518089	 0.232909
92.1994	121.2526	161.6339	167.5771	202.6021	242.9223	264.6337	286.7685	322.6666	398.1843	411.2701	439.6217	592.8294	640.5602	687.885	789.4389	851.0787	906.3391	972.6925	993.5885	1038.9586	1090.8529	1100.1724	1119.9462	1175.2748	1227.953	1299.8573	1327.2534	1346.8387	1386.4693	1413.0912	1428.2866	1471.6967	1495.4042	1502.304	1510.5513	1648.2361	2351.4355	2958.6847	3038.5681	3040.955	3074.7994	3083.3715	3109.6519	3118.7109	3514.7124	3597.6252	3823.163
CCC(O)(CN)C#N	CC[C@@](O)(CN)C#N	
InChI=1S/C5H10N2O/c1-2-5(8,3-6)4-7/h8H,2-3,6H2,1H3	InChI=1S/C5H10N2O/c1-2-5(8,3-6)4-7/h8H,2-3,6H2,1H3/t5-/m1/s1
