25
gdb 117977	2.61463	0.84735	0.76154	0.1585	85.18	-0.2605	0.0671	0.3276	1639.5354	0.225261	-426.628966	-426.617063	-426.616119	-426.665856	43.937	
C	 0.0616904745	 1.5489995755	 0.0729461284	-0.41576
C	-0.0509482759	 0.0186243397	-0.0460204577	 0.033522
C	-1.5096622536	-0.4588985838	 0.0615025771	-0.189428
C	-2.17733372	-0.1119490441	 1.3887779639	-0.083014
O	-3.4456420146	-0.7542050644	 1.4055632437	-0.423303
C	 0.679279137	-0.5176239131	-1.3113054952	 0.348318
C	 0.6715018185	-2.0537302907	-1.3643029532	-0.420322
C	 0.1228904759	 0.0601030737	-2.6214695936	-0.423554
O	 2.0368663209	-0.07937149	-1.135337097	-0.469228
H	 1.0831529802	 1.8727895875	-0.1322851557	 0.135484
H	-0.6113786239	 2.0584831089	-0.6259723695	 0.107694
H	-0.2019864732	 1.8838107814	 1.080276918	 0.107838
H	 0.5077939653	-0.4162316583	 0.7946405507	 0.076028
H	-2.1150525859	-0.0328058249	-0.7480942456	 0.101609
H	-1.5686115186	-1.5467417739	-0.0413567071	 0.106902
H	-1.5446389655	-0.4598056648	 2.2228348377	 0.082944
H	-2.2893180422	 0.9768167874	 1.495898985	 0.088616
H	-3.8987160992	-0.5008136952	 2.214873706	 0.28397
H	-0.3210776746	-2.4600914989	-1.5754778594	 0.120557
H	 1.3396484543	-2.3997119182	-2.1618255017	 0.096971
H	 1.0297129854	-2.4743967169	-0.4200266607	 0.118591
H	 0.2075393258	 1.1490355023	-2.6377293734	 0.123838
H	 0.6867448355	-0.3335164349	-3.4758870575	 0.099613
H	-0.9261583311	-0.210922435	-2.7727221279	 0.120034
H	 2.535208645	-0.3555563793	-1.9114112654	 0.272079
52.8219	79.83	107.5428	149.4027	221.3747	239.7569	257.4224	264.8102	268.8387	284.8474	293.7676	327.4983	348.4527	382.4823	407.2079	473.4795	534.9006	540.7975	734.3102	800.4782	871.2627	915.7446	922.3878	958.5725	972.5892	1004.8071	1024.4797	1054.5909	1084.6455	1103.6643	1130.1813	1187.1674	1192.9157	1219.3713	1247.0742	1250.5872	1316.7257	1329.3641	1358.9941	1370.8642	1379.1363	1397.5069	1406.2999	1416.7117	1462.1786	1478.7695	1487.2501	1489.9159	1497.7774	1505.0038	1511.5384	1514.1572	1529.8129	2959.5593	3004.7441	3004.9942	3028.3722	3033.3362	3034.8284	3040.364	3086.1476	3094.4137	3098.175	3099.7838	3122.1187	3128.8064	3138.8592	3811.0433	3830.4458
CC(CCO)C(C)(C)O	C[C@@H](CCO)C(C)(C)O	
InChI=1S/C7H16O2/c1-6(4-5-8)7(2,3)9/h6,8-9H,4-5H2,1-3H3	InChI=1S/C7H16O2/c1-6(4-5-8)7(2,3)9/h6,8-9H,4-5H2,1-3H3/t6-/m0/s1
