14
gdb 130929	4.52779	1.00266	0.89106	3.406	71.3	-0.2473	-0.0831	0.1643	1245.1076	0.100953	-432.881702	-432.874077	-432.873133	-432.915311	26.661	
O	-0.2977153704	 0.0567996132	 0.1435332296	-0.225036
C	-0.036191353	 1.2193272755	-0.0017437805	 0.15667
C	 1.3736366297	 1.7437449445	-0.2786956639	-0.346332
C	 1.3771139584	 2.8330674991	-1.3146651788	 0.361913
N	 1.9701337743	 2.5856819717	-2.4927513005	-0.258839
C	 1.9250956222	 3.584560083	-3.3619811498	-0.005427
C	 1.2824586742	 4.7804798672	-3.0419402032	 0.017118
N	 0.6976426254	 4.9576183277	-1.8605136923	-0.163301
N	 0.7511166219	 3.9682598155	-0.9765947622	-0.222902
H	-0.8073679934	 2.0152353025	 0.0734815795	 0.108385
H	 1.7319694893	 2.1624812393	 0.6709703038	 0.156573
H	 2.0182288454	 0.9174352806	-0.5776926101	 0.146731
H	 2.4006955513	 3.4336347307	-4.3283416611	 0.137477
H	 1.2264987646	 5.6120910195	-3.7365103707	 0.136971
41.2156	75.6477	132.8228	236.8786	360.4617	384.887	433.1293	521.8452	634.6579	660.5907	768.1523	838.1161	875.4122	890.3913	1011.3601	1022.5504	1036.3797	1049.3196	1087.527	1121.3148	1167.4485	1219.7903	1258.575	1331.6549	1388.2241	1412.8773	1437.3936	1461.6229	1568.3509	1589.8693	1840.6778	2914.5724	3037.7471	3148.2092	3158.8524	3194.8945
O=CCC1=NC=CN=N1	O=CCc1nccnn1	
InChI=1S/C5H5N3O/c9-4-1-5-6-2-3-7-8-5/h2-4H,1H2	InChI=1S/C5H5N3O/c9-4-1-5-6-2-3-7-8-5/h2-4H,1H2
