15
gdb 123579	3.99542	1.67591	1.29087	1.8923	69.96	-0.2329	-0.0068	0.2261	926.7866	0.117175	-412.957908	-412.951737	-412.950793	-412.988292	24.843	
C	 0.0211338743	 1.4487852094	 0.0098908998	-0.246299
C	 1.2691028551	 0.6497399302	 0.0464789021	-0.02115
C	 1.978391554	 0.3877261956	 1.3995102858	-0.380903
C	 0.8936920288	-0.3567560425	 2.1189415975	 0.295825
N	 0.6450569262	-0.9033396816	 3.3010370841	-0.307743
N	-0.5846572446	-1.4029263433	 3.1178860024	-0.102459
N	-1.152867167	-1.2288752523	 1.9125580355	-0.319794
C	-0.2051806431	-0.5560848409	 1.2798175468	 0.343771
N	-0.073873352	-0.0339399676	-0.0274121242	-0.183924
H	-0.3040411602	 1.9431574016	 0.9220004098	 0.127885
H	-0.2773367238	 1.9400677923	-0.911012987	 0.12888
H	 1.865130658	 0.5738342131	-0.8563363873	 0.107316
H	 2.8785037637	-0.2182198447	 1.2505628475	 0.132909
H	 2.2866880405	 1.3141559517	 1.8945792042	 0.133569
H	-1.0548336396	-1.9151932011	 3.8453680128	 0.292116
175.4794	240.0651	348.6128	419.1739	456.9268	469.6533	622.6874	696.9576	698.7177	746.8967	776.7661	786.3475	835.7249	912.8596	965.5423	987.9668	1058.7559	1088.8255	1117.1437	1126.9538	1158.9762	1166.9583	1173.6036	1196.1818	1261.4462	1287.3396	1368.6944	1438.5339	1442.6076	1484.9887	1497.9403	1528.9656	1599.8557	3046.4363	3081.1603	3111.3887	3172.1929	3203.6845	3680.8158
C1C2CC3=NNN=C3N12	C1[C@H]2Cc3n[nH]nc3N12	
InChI=1S/C5H6N4/c1-3-2-9(3)5-4(1)6-8-7-5/h3H,1-2H2,(H,6,7,8)	InChI=1S/C5H6N4/c1-3-2-9(3)5-4(1)6-8-7-5/h3H,1-2H2,(H,6,7,8)/t3-,9?/m1/s1
