14
gdb 23911	2.90187	1.9287	1.64346	3.1179	50.32	-0.2644	0.0685	0.3329	817.3624	0.103344	-510.209955	-510.202341	-510.201397	-510.242061	27.928	
C	-0.1304270996	 1.5031736378	-0.1783664296	-0.485744
C	 0.0141239168	 0.002059527	-0.0527523868	 0.14769
C	 0.8440774248	-0.7669532836	-1.013737607	-0.275254
N	 1.2827892718	-0.5908100238	 0.3815024491	-0.333445
C	-1.1950086921	-0.677972918	 0.5560149668	 0.28355
F	-2.2971031771	-0.4132367165	-0.1718861643	-0.086636
F	-1.0619254699	-2.0040872275	 0.6193279631	-0.068506
F	-1.426694738	-0.228286825	 1.7999529555	-0.081894
H	 0.7561684982	 1.9299575738	-0.6556145209	 0.119704
H	-1.0040591044	 1.7636499994	-0.7821056089	 0.144607
H	-0.2504747917	 1.9628000826	 0.8074347252	 0.142405
H	 0.5759566335	-1.7845321479	-1.2773893071	 0.138369
H	 1.3372757216	-0.2005670048	-1.7991135242	 0.118395
H	 1.992186286	 0.1351215565	 0.4456999389	 0.23676
66.759	204.1017	222.9125	232.8514	316.0565	349.5516	393.4684	457.7486	523.3525	581.5592	596.0433	744.1269	860.4648	871.4285	942.8314	975.9551	998.6913	1054.049	1123.8254	1159.3941	1181.7794	1199.5494	1218.7121	1265.2627	1365.2272	1415.4704	1423.0539	1482.3	1505.8073	1516.1769	3043.7404	3115.6272	3119.4076	3121.8895	3210.8287	3502.7585
CC1(CN1)C(F)(F)F	C[C@]1(CN1)C(F)(F)F	
InChI=1S/C4H6F3N/c1-3(2-8-3)4(5,6)7/h8H,2H2,1H3	InChI=1S/C4H6F3N/c1-3(2-8-3)4(5,6)7/h8H,2H2,1H3/t3-/m0/s1
