14
gdb 42625	2.82179	1.93469	1.39465	5.9937	65.35	-0.229	-0.0773	0.1517	890.7241	0.102296	-436.656637	-436.650112	-436.649168	-436.687627	25.699	
O	-0.0057593434	 0.0060342146	-0.1976220645	-0.300739
C	-0.0362255748	 1.1908404152	-0.0014620892	 0.332516
C	-1.2264636881	 2.082843442	 0.1203089308	-0.173937
C	-1.2576687994	 3.1399846635	 1.2184231544	-0.01385
N	 0.0780110106	 3.2350782749	 1.8432148068	-0.335235
C	 0.6472702373	 3.484767987	 0.4562769094	-0.165672
C	-0.7859296974	 3.5350170667	-0.1439265754	-0.131594
C	 1.2150911826	 2.1281812457	 0.0551307972	 0.378357
O	 2.3452811336	 1.8138709901	-0.1841185847	-0.292692
H	-2.1840651062	 1.7363104962	-0.2463840499	 0.123308
H	-2.1754791522	 3.3434194102	 1.7563202773	 0.118783
H	 0.1426431195	 4.1003984201	 2.3729821544	 0.236898
H	 1.3190626001	 4.3329639851	 0.3541501106	 0.106333
H	-1.1817489023	 4.1621612588	-0.931345957	 0.117524
107.9635	193.2052	308.4781	374.533	469.2379	493.2925	604.7167	651.7771	699.532	731.871	779.5774	787.2535	834.262	899.5498	919.6981	940.617	974.863	993.094	1028.8574	1045.4145	1061.9447	1120.9911	1172.6487	1192.4165	1225.8568	1240.9008	1310.826	1348.8519	1400.7771	1847.1712	1874.6453	3157.0991	3190.9519	3202.7147	3212.9437	3504.3988
O=C1C2C3NC(C23)C1=O	O=C1[C@H]2[C@H]3N[C@H]([C@@H]23)C1=O	
InChI=1S/C6H5NO2/c8-5-2-1-3(2)7-4(1)6(5)9/h1-4,7H	InChI=1S/C6H5NO2/c8-5-2-1-3(2)7-4(1)6(5)9/h1-4,7H/t1-,2+,3-,4+/m0/s1
