20
gdb 102604	2.39058	1.06579	0.95959	2.4456	72.68	-0.2619	0.0251	0.287	1353.4581	0.169335	-477.420351	-477.410146	-477.409202	-477.456037	36.737	
C	-0.1053400396	 1.4139975753	-0.3878168427	-0.444125
C	-0.2455462979	-0.0224747482	 0.0271164805	 0.417599
N	-0.5851662232	-0.3493296611	 1.2029444264	-0.514581
O	 0.0581280448	-0.834870871	-1.0307302102	-0.267631
C	-0.1047147187	-2.2549508008	-0.9293918226	 0.043945
C	-1.5796283814	-2.6675069367	-1.0693014004	-0.066044
O	-2.1926132707	-2.1930344319	-2.2443424034	-0.42581
C	 0.7860973149	-2.8223473791	-2.0359867105	-0.086487
O	 0.3986505776	-2.3589094197	-3.3256665033	-0.418132
H	 0.9074236857	 1.6056800547	-0.7559521478	 0.135129
H	-0.7980888769	 1.6368164483	-1.2052949853	 0.144674
H	-0.3174940546	 2.0614962466	 0.4614175488	 0.150667
H	-0.6418529012	-1.356467768	 1.3437749347	 0.218455
H	 0.2798632849	-2.6168639305	 0.0353322217	 0.085044
H	-1.6180318246	-3.7687209135	-0.9900584324	 0.087086
H	-2.156822833	-2.2643992786	-0.2313536893	 0.118062
H	-1.5890951911	-2.3886960499	-2.9746448313	 0.287958
H	 1.8334344538	-2.5641776348	-1.8276569429	 0.110243
H	 0.7010236565	-3.9128475405	-2.0570530828	 0.122498
H	 0.4437560348	-1.3952590506	-3.2884316273	 0.30145
60.9143	83.4684	103.9283	152.9572	163.2133	209.8033	274.7507	300.8422	313.1472	391.8257	437.8133	488.1531	556.9688	612.8305	640.956	740.5897	816.5502	877.4076	906.907	919.8129	964.642	986.4966	1038.2514	1074.7237	1079.1727	1103.4126	1125.4629	1130.2244	1227.2731	1246.3983	1309.563	1322.8616	1368.0878	1393.1982	1399.649	1409.6487	1428.828	1474.2077	1474.6738	1479.2953	1493.0637	1507.1501	1737.6483	2949.0893	3002.2106	3018.162	3050.6994	3079.7337	3094.5196	3109.5355	3171.4385	3504.201	3732.7886	3790.4892
CC(=N)OC(CO)CO	C[C]([NH])OC(CO)CO	
InChI=1S/C5H11NO3/c1-4(6)9-5(2-7)3-8/h5-8H,2-3H2,1H3	InChI=1S/C5H11NO3/c1-4(6)9-5(2-7)3-8/h5-8H,2-3H2,1H3
