18
gdb 74094	2.57986	1.558	1.12243	4.6231	79.49	-0.2276	-0.0485	0.1791	1116.4137	0.147157	-401.961671	-401.953182	-401.952238	-401.994425	32.307	
C	-0.0300270823	 1.4819004489	 0.0464279128	-0.503172
C	-0.0510270012	-0.0078675589	-0.0312249241	 0.32957
C	 0.0004468975	-0.772885694	-1.1346348671	-0.318404
C	-0.0018681898	-2.2157651598	-0.7870853157	 0.44464
O	-0.0453042209	-3.1620745977	-1.5384682264	-0.337978
C	 0.0154597969	-2.2681369256	 0.7318670691	-0.227743
N	 1.2269580316	-1.6062553059	 1.3143635438	-0.360623
C	-0.0659054302	-0.8735958991	 1.2144111418	 0.218932
C	-0.8042205366	-0.4373720967	 2.4526645374	-0.499921
H	 0.8490140203	 1.8238092132	 0.607338131	 0.147215
H	-0.0040243161	 1.9366521324	-0.946223266	 0.136555
H	-0.9087073521	 1.8647369208	 0.5796604485	 0.136328
H	 0.0721206088	-0.4228962591	-2.1569265379	 0.111335
H	-0.427284851	-3.1116614525	 1.2484842839	 0.10505
H	 1.329933793	-1.954102514	 2.2697000474	 0.229153
H	-0.3607192517	 0.4659551535	 2.885881832	 0.131032
H	-1.8547387118	-0.2211793418	 2.2306589553	 0.134318
H	-0.7787946545	-1.2225007438	 3.2145925141	 0.123713
132.24	141.9514	180.76	218.6138	243.3357	284.1902	316.7296	409.8195	489.1141	537.1551	570.0404	610.2861	669.8097	751.904	816.1564	853.7375	871.1252	898.2619	971.6395	1013.2171	1023.7564	1045.0643	1068.6989	1081.6098	1124.5968	1170.5283	1188.4609	1280.7666	1308.1341	1362.0302	1405.0048	1408.7852	1425.2718	1475.4591	1476.255	1486.7103	1500.2693	1671.5701	1817.746	3023.3831	3030.1787	3072.4326	3093.3765	3105.4815	3124.9162	3188.6105	3214.6177	3440.7586
CC1=CC(=O)C2NC12C	CC1=CC(=O)[C@H]2N[C@@]12C	
InChI=1S/C7H9NO/c1-4-3-5(9)6-7(4,2)8-6/h3,6,8H,1-2H3	InChI=1S/C7H9NO/c1-4-3-5(9)6-7(4,2)8-6/h3,6,8H,1-2H3/t6-,7+/m1/s1
