18
gdb 40107	3.12676	1.56714	1.20433	3.7215	75.75	-0.2464	0.0169	0.2633	1041.1871	0.149416	-401.90638	-401.899177	-401.898233	-401.937911	28.8	
C	 0.0088600613	 1.5360570816	 0.0975897731	-0.302394
C	 1.3397759269	 0.8188397084	 0.0932438712	-0.330106
C	 0.0656059614	 0.0336016684	-0.0028697154	 0.316784
C	-0.4598151525	-0.862853698	 1.1644508987	-0.224477
N	-1.7131077531	-1.5040457613	 0.6626130617	-0.308748
C	-1.5735495099	-1.4260143301	-0.5877994953	 0.433084
O	-2.4193010313	-1.4062965791	-1.6635819554	-0.272753
C	-1.5002149895	-0.4225208159	-2.292905234	-0.122549
C	-0.4102094725	-0.7435591078	-1.2231711551	-0.246003
H	-0.3371977563	 1.9701826698	 1.0300236478	 0.120034
H	-0.2656424982	 2.1029428169	-0.7858271127	 0.113867
H	 1.9647658822	 0.9025330411	-0.7897118906	 0.113982
H	 1.893999458	 0.7713802057	 1.0254109759	 0.117878
H	 0.2794742088	-1.621596722	 1.4558753785	 0.107788
H	-0.6956746012	-0.2748697764	 2.0568983158	 0.11419
H	-1.2764051968	-0.706802262	-3.3218164781	 0.128696
H	-1.9417170427	 0.5752060151	-2.2375560004	 0.131513
H	 0.3501334954	-1.4165305343	-1.6300895456	 0.109214
111.1857	204.7746	247.6315	267.5952	346.2375	451.8488	489.3211	502.3913	669.0481	722.8343	764.0885	780.2451	830.5616	894.0166	912.4562	926.393	940.6383	963.9687	995.6855	1029.7502	1046.8525	1058.4458	1067.1957	1085.0506	1149.4413	1162.1916	1187.6624	1193.5655	1207.9501	1243.7264	1292.6772	1314.1345	1357.7419	1383.9031	1466.311	1493.2638	1498.9426	1505.5434	1772.8259	3013.0929	3066.8904	3070.6345	3077.5062	3124.9997	3129.2352	3144.9413	3202.8843	3217.7829
C1CC11CN=C2OCC12	C1CC21C[N][C]1OC[C@@H]21	
InChI=1S/C7H9NO/c1-2-7(1)4-8-6-5(7)3-9-6/h5H,1-4H2	InChI=1S/C7H9NO/c1-2-7(1)4-8-6-5(7)3-9-6/h5H,1-4H2/t5-/m1/s1
