19
gdb 78963	2.59535	2.11152	1.58252	1.6976	77.13	-0.2188	0.0728	0.2915	921.5278	0.159758	-381.975815	-381.968387	-381.967443	-382.007158	30.029	
C	-0.1522295769	 1.5256519498	 0.0068758305	-0.338267
N	 0.0163483612	 0.0820621147	 0.021240322	-0.102781
C	 1.0541931802	-0.5206262018	-0.8329673529	-0.051223
C	 2.465267683	-0.0864006877	-0.3203137206	-0.057948
C	 2.2148132739	-0.1053093222	 1.1443150673	-0.107957
N	 2.7125041469	-1.345228433	 0.4600723754	-0.183089
C	 1.2361389037	-1.6620227802	 0.2020493015	-0.055861
C	 0.7118941529	-0.5546944309	 1.1668356851	 0.336144
C	-0.0152336317	-0.734180064	 2.469649966	-0.519899
H	 0.7894839961	 2.0757179134	 0.1746295602	 0.102756
H	-0.5624730922	 1.8348529804	-0.960007616	 0.121952
H	-0.8666178597	 1.8216221462	 0.7816703426	 0.122109
H	 0.8611260522	-0.6201443335	-1.8999622806	 0.07708
H	 3.2705614049	 0.4450502584	-0.8121376197	 0.09594
H	 2.8082991425	 0.4108785487	 1.8895262128	 0.092777
H	 0.8793068091	-2.6858417574	 0.1254383287	 0.086252
H	 0.5700316459	-1.3583238055	 3.1522685892	 0.131141
H	-0.1827418064	 0.2300143541	 2.9641026792	 0.121442
H	-0.9876575556	-1.2077464296	 2.3078978192	 0.12943
191.6775	199.4599	206.1792	229.9278	290.7906	308.2415	589.6514	602.9573	616.0177	682.3485	779.4687	790.5188	824.3368	831.177	846.8727	876.9928	891.032	898.7359	942.2092	952.0617	997.1233	1031.7999	1105.3713	1120.9733	1135.3516	1150.8657	1155.6608	1165.4629	1200.0868	1216.1734	1235.6622	1249.6866	1281.8074	1311.332	1364.8346	1414.7305	1443.2217	1483.1918	1487.7028	1492.8699	1501.1865	2963.6403	3030.6291	3065.0771	3094.5531	3102.344	3116.5119	3128.5627	3154.0808	3180.4122	3194.0171
CN1C2C3C4N3C2C14C	CN1[C@H]2[C@H]3[C@@H]4N3[C@H]2[C@]14C	
InChI=1S/C7H10N2/c1-7-5-3(8(7)2)4-6(7)9(4)5/h3-6H,1-2H3	InChI=1S/C7H10N2/c1-7-5-3(8(7)2)4-6(7)9(4)5/h3-6H,1-2H3/t3-,4-,5+,6-,7-,9?/m0/s1
