21
gdb 91097	2.58352	1.64946	1.50733	1.3344	80.38	-0.252	0.066	0.318	1007.8946	0.185422	-387.073955	-387.066443	-387.065499	-387.105501	31.327	
O	-0.2231498612	 1.3630339209	 0.9203331678	-0.41609
C	-0.0242507634	 0.1424599201	 0.2298758697	 0.099674
C	 0.5175450979	-1.049591347	 1.0760162811	-0.273751
C	-0.8672282316	-1.7594970858	 0.9625694739	-0.018661
C	-1.8118682904	-1.7362471533	 2.156546328	-0.047536
C	-1.9301113526	-0.4721546034	 2.9797631009	-0.296373
C	-2.9294852732	-0.7452039765	 1.888169962	-0.02574
C	-2.6947393508	-0.0735858597	 0.5340536456	-0.248398
C	-1.3575682801	-0.631912552	-0.0044294316	-0.020597
H	 0.6419233424	 1.7198908662	 1.1460137307	 0.283763
H	 0.5422319698	 0.3232934487	-0.6938073011	 0.063016
H	 1.3349219139	-1.5903564745	 0.5909906419	 0.092072
H	 0.8260302439	-0.7835827573	 2.0904976851	 0.098989
H	-0.8212113546	-2.7648764909	 0.536989658	 0.060984
H	-2.018602129	-2.6767017552	 2.6561092571	 0.073602
H	-2.263561546	-0.5867356452	 4.0060607791	 0.099084
H	-1.2195889056	 0.3316095768	 2.8232735033	 0.12563
H	-3.9521167674	-0.97296055	 2.1699391435	 0.073663
H	-3.5081396879	-0.3359113683	-0.1505551519	 0.090524
H	-2.6719094042	 1.0175832605	 0.6084751331	 0.119151
H	-1.4471096397	-0.9384576442	-1.0489831563	 0.066996
120.8164	204.847	237.2602	289.1442	351.8572	408.8609	450.3187	521.1154	624.3198	651.4957	704.7903	770.0853	778.4651	821.7573	849.2927	856.9567	908.0054	929.901	970.879	973.3951	1033.4561	1038.0553	1042.6689	1069.9535	1093.1351	1102.9821	1111.6915	1119.3059	1144.6666	1195.2098	1204.8766	1217.8919	1230.9836	1255.9939	1258.3021	1311.2451	1315.0634	1332.6761	1336.2205	1359.9251	1389.3374	1416.4765	1469.8168	1486.0742	1500.8095	2995.7635	3044.0367	3053.5348	3065.9975	3080.769	3093.1337	3110.051	3130.5652	3155.0528	3165.1573	3220.5485	3815.7384
OC1CC2C3CC3CC12	O[C@H]1C[C@H]2[C@H]3C[C@H]3C[C@@H]12	
InChI=1S/C8H12O/c9-8-3-6-5-1-4(5)2-7(6)8/h4-9H,1-3H2	InChI=1S/C8H12O/c9-8-3-6-5-1-4(5)2-7(6)8/h4-9H,1-3H2/t4-,5-,6-,7+,8-/m0/s1
