15
gdb 17991	4.27259	1.71928	1.47453	5.8236	65.31	-0.2348	0.0187	0.2536	857.0698	0.121026	-358.791606	-358.784859	-358.783914	-358.822652	25.636	
N	 0.0181027341	-1.1456363683	-0.0240030558	-0.327731
C	 0.0202226129	 0.0097114137	-0.0087516646	 0.313146
C	 0.0111825507	 1.4716703617	-0.0390235485	-0.12863
N	-0.2995161327	 2.1426573032	 1.2512875279	-0.309679
C	 0.8360943917	 3.0855078245	 1.0944825068	-0.017026
C	 2.0891429062	 2.6521514951	 1.8898306146	-0.152603
N	 2.385405761	 1.6458504403	 0.8319351853	-0.29572
C	 1.3832700108	 2.2196313014	-0.0751920065	-0.029599
H	-0.6274379879	 1.796286223	-0.871830081	 0.110239
H	-1.2174019	 2.5684542109	 1.2845276354	 0.230461
H	 0.5876933671	 4.145648729	 1.0324428568	 0.081595
H	 2.8334865654	 3.4556019655	 1.9685761084	 0.094448
H	 1.9048104098	 2.2219687187	 2.8786286237	 0.118506
H	 3.3337978558	 1.6340559572	 0.4817408167	 0.229137
H	 1.7222301752	 2.5831853838	-1.0461466291	 0.083457
98.4534	149.8784	244.5256	357.3462	388.7037	516.93	544.5653	603.4222	654.1881	753.7053	799.8667	810.5284	904.9587	957.5106	978.9344	1009.7422	1022.9098	1056.8887	1067.164	1099.5479	1137.3797	1166.4195	1191.003	1219.3705	1276.4558	1303.2838	1353.6412	1363.0795	1394.8977	1398.0214	1500.7564	2359.5718	3010.1905	3011.9957	3086.1181	3094.1775	3105.5803	3558.0199	3574.5378
N#CC1NC2CNC12	N#C[C@H]1N[C@H]2CN[C@@H]12	
InChI=1S/C5H7N3/c6-1-3-5-4(8-3)2-7-5/h3-5,7-8H,2H2	InChI=1S/C5H7N3/c6-1-3-5-4(8-3)2-7-5/h3-5,7-8H,2H2/t3-,4+,5+/m1/s1
