17
gdb 69241	2.88954	1.57379	1.20803	1.6027	74.81	-0.2385	-0.014	0.2245	1042.1272	0.137836	-418.055797	-418.048175	-418.047231	-418.087639	29.938	
C	 0.0208539683	 1.4961174069	 0.0037940134	-0.447056
C	 0.0145143169	-0.0154426701	-0.0092824065	 0.325162
C	-0.8546007452	-0.7608550412	 0.9584566386	-0.320716
C	 0.6502508002	-0.776653568	 1.1787679499	-0.199415
C	 1.430485696	-1.9973425064	 0.8781485136	 0.428827
O	 2.180704617	-2.555570561	 1.6502814386	-0.364516
N	 1.258022858	-2.4670726165	-0.4253260187	-0.345515
C	 0.7065306877	-1.7056211797	-1.4480917856	 0.06901
N	 0.151650107	-0.5694779978	-1.3228894646	-0.280479
H	 0.9655636507	 1.8827560465	-0.3906153252	 0.127148
H	-0.7886099626	 1.878353814	-0.6255004678	 0.133145
H	-0.1131573054	 1.8832231641	 1.0179890602	 0.113843
H	-1.4326859676	-0.1828688349	 1.6704438925	 0.128475
H	-1.3293394724	-1.6742732998	 0.6177267063	 0.130888
H	 1.0365890599	-0.2181447955	 2.0231038793	 0.113724
H	 1.8016077403	-3.2859738399	-0.6587738102	 0.260222
H	 0.7919515912	-2.1594904505	-2.4341870739	 0.127255
127.7555	167.5718	213.7739	293.5304	339.0013	365.5169	440.2694	497.4382	541.8773	595.0138	652.9038	674.1821	758.8533	777.2418	805.2588	915.0403	924.2	945.4854	958.1852	996.8764	1039.9591	1059.2772	1103.09	1110.5243	1122.6124	1246.4795	1261.3886	1317.8605	1384.1538	1419.0317	1426.9838	1449.6263	1476.4788	1483.4461	1499.4506	1730.1119	1807.1472	3039.4253	3109.8508	3117.014	3136.9656	3145.718	3186.757	3228.6818	3610.827
CC12CC1C(=O)NC=N2	C[C@]12C[C@H]1C(=O)NC=N2	
InChI=1S/C6H8N2O/c1-6-2-4(6)5(9)7-3-8-6/h3-4H,2H2,1H3,(H,7,8,9)	InChI=1S/C6H8N2O/c1-6-2-4(6)5(9)7-3-8-6/h3-4H,2H2,1H3,(H,7,8,9)/t4-,6-/m0/s1
