16
gdb 45390	2.17376	1.80696	1.23238	3.4867	76.72	-0.2276	-0.0272	0.2004	1036.8931	0.123142	-400.686388	-400.678279	-400.677335	-400.719116	30.879	
O	-0.0931044133	 0.0955474173	-0.7671436312	-0.284065
C	-0.1092009447	 1.1590783874	-0.2311328072	 0.386669
C	-1.1828833628	 1.9715237764	 0.5254545363	-0.360204
C	-0.2208266217	 3.1910407867	 0.5752674318	-0.110882
C	 0.6733186672	 3.277814466	 1.8263286201	-0.167401
N	 1.5148775762	 2.1770925938	 1.2979196244	-0.350825
C	 0.930627932	 2.3131170761	-0.0747998245	 0.101229
C	 1.795328581	 2.6990381669	-1.1508737167	 0.17325
C	 2.5211040647	 3.0067684575	-2.0602298413	-0.405904
H	-2.0794052316	 2.122264322	-0.0832288377	 0.138349
H	-1.4846811588	 1.5541211283	 1.4898699192	 0.138084
H	-0.5757605128	 4.1110300828	 0.1183208666	 0.097932
H	 1.190852762	 4.2428277518	 1.8978569254	 0.106203
H	 0.2015496667	 3.0571141051	 2.79047954	 0.107089
H	 2.5168931888	 2.3195145587	 1.331991683	 0.233564
H	 3.1591270571	 3.2739715932	-2.8662391684	 0.196912
86.8295	114.7542	165.9217	229.9465	318.2462	370.4971	471.8539	488.2618	531.563	590.5406	617.3588	629.2366	647.8313	674.9344	800.1875	815.5031	926.3333	943.9808	994.4501	1021.8139	1043.5182	1053.5111	1058.2325	1114.4114	1159.424	1185.213	1209.9328	1227.3159	1310.9278	1326.512	1379.3706	1433.8764	1517.0118	1903.5939	2226.4581	3015.4728	3062.2242	3063.6318	3114.527	3150.8735	3499.4161	3557.4747
O=C1CC2CNC12C#C	O=C1C[C@H]2CN[C@@]12C#C	
InChI=1S/C7H7NO/c1-2-7-5(4-8-7)3-6(7)9/h1,5,8H,3-4H2	InChI=1S/C7H7NO/c1-2-7-5(4-8-7)3-6(7)9/h1,5,8H,3-4H2/t5-,7+/m0/s1
