20
gdb 119849	4.41973	0.89766	0.79231	1.9047	82.27	-0.2238	0.0242	0.248	1487.1487	0.171357	-403.116145	-403.10743	-403.106486	-403.150099	32.368	
C	 0.0445416112	 1.4132244437	 0.0416674471	-0.222491
O	-0.0184748388	 0.0087272162	 0.0033757261	-0.226865
C	 0.6569573419	-0.5984901675	 1.0785246924	-0.17187
C	 0.5855513922	-2.0849942845	 0.9647335039	 0.342905
C	 0.0797072066	-2.8076856308	-0.038554407	-0.169784
C	 0.2018029455	-4.2991448358	 0.2024571645	-0.257453
C	 0.9510133632	-4.3747415793	 1.5289218882	-0.034672
N	 2.3098132365	-3.7903880809	 1.4866692706	-0.331834
C	 1.1674047806	-2.9840621016	 2.0100202208	-0.167678
H	 1.0826521223	 1.7786155881	-0.0093873324	 0.104782
H	-0.5045652049	 1.7888532125	-0.8250544381	 0.127458
H	-0.415868414	 1.8193082298	 0.9568234525	 0.102279
H	 1.7156367145	-0.2772177692	 1.1030431827	 0.101891
H	 0.2212758382	-0.2724469309	 2.0429753556	 0.087167
H	-0.3409243792	-2.386923416	-0.9427401627	 0.104851
H	-0.7814701022	-4.7837113974	 0.2708738057	 0.102891
H	 0.7508857483	-4.803028502	-0.6022288084	 0.117792
H	 0.7616655057	-5.1939659257	 2.2141822677	 0.085323
H	 2.8329339247	-4.1591229562	 2.2801058154	 0.22413
H	 1.1605952679	-2.7101341125	 3.0607895756	 0.081179
73.1594	82.6623	135.3103	202.7165	236.3656	291.9036	349.9889	376.4291	393.6601	586.5042	678.2324	743.0818	808.3665	821.8732	856.2325	873.6352	919.6736	939.1169	971.0714	999.5014	1010.4829	1045.7294	1076.9797	1131.2179	1153.092	1166.8695	1181.6658	1185.206	1192.1403	1227.0424	1246.5293	1256.7753	1271.1744	1324.6648	1373.638	1411.3751	1434.7186	1467.5451	1479.608	1485.2296	1497.548	1521.7381	1711.5526	2916.0742	2931.403	2967.8688	3010.5076	3017.5629	3055.5683	3114.8658	3152.8964	3168.7356	3221.5049	3468.1271
COCC1=CCC2NC12	COCC1=CC[C@H]2N[C@@H]12	
InChI=1S/C7H11NO/c1-9-4-5-2-3-6-7(5)8-6/h2,6-8H,3-4H2,1H3	InChI=1S/C7H11NO/c1-9-4-5-2-3-6-7(5)8-6/h2,6-8H,3-4H2,1H3/t6-,7+/m1/s1
