19
gdb 31721	5.439	0.79786	0.73354	2.843	80.54	-0.1858	0.0469	0.2327	1561.5204	0.160288	-419.224691	-419.215193	-419.214249	-419.259904	34.412	
C	 0.333319803	 0.7874391362	-0.8346654267	-0.32528
N	-0.3899697131	 0.2733692312	 0.3361446614	-0.385415
C	 0.4070909259	-0.3106239585	 1.3371289493	 0.321506
C	 0.8720403574	 0.1469865179	 2.5515952907	-0.348839
C	 1.596223087	-0.9191214913	 3.168876307	 0.235933
C	 2.2970001188	-0.8938355294	 4.4955809516	-0.159115
O	 2.4125187014	-2.1833253279	 5.08522941	-0.414561
C	 1.5548122096	-1.9897956413	 2.3039404398	-0.180869
N	 0.8305353245	-1.610513445	 1.197532758	-0.273689
H	 0.8577474643	-0.0348810468	-1.3295538311	 0.125109
H	-0.3868818686	 1.2012306712	-1.5463705046	 0.119515
H	 1.0766533584	 1.5612206265	-0.5888231086	 0.11147
H	-0.9609899921	 1.0046254827	 0.74070159	 0.233719
H	 0.7202336025	 1.1391649852	 2.9511561421	 0.081639
H	 3.3292468838	-0.535047697	 4.3961300216	 0.115664
H	 1.7853453549	-0.187373313	 5.169959633	 0.08634
H	 1.5295623818	-2.5687085586	 5.0780141018	 0.275561
H	 1.9900084397	-2.9718313692	 2.3858044458	 0.123439
H	 0.5386947007	-2.2125796829	 0.4471798788	 0.257873
44.1604	57.1158	139.5268	162.8647	185.4674	251.3309	335.2181	360.5533	388.9497	465.2855	503.098	616.9832	664.0882	688.9333	718.235	732.5046	777.9301	793.6408	974.4562	984.2659	1001.8124	1050.0116	1062.6304	1121.8276	1141.2827	1158.4936	1179.6904	1205.9078	1261.3016	1317.0693	1360.8022	1406.5601	1421.8766	1441.053	1453.6712	1487.4468	1501.2881	1508.997	1514.6404	1559.0074	1628.9526	2965.3046	2985.7858	3036.0319	3077.7017	3115.0201	3234.0679	3274.0413	3561.4009	3677.7747	3802.2819
CNC1=CC(CO)=CN1	CNc1cc(CO)c[nH]1	
InChI=1S/C6H10N2O/c1-7-6-2-5(4-9)3-8-6/h2-3,7-9H,4H2,1H3	InChI=1S/C6H10N2O/c1-7-6-2-5(4-9)3-8-6/h2-3,7-9H,4H2,1H3
