20
gdb 88485	2.21621	1.54397	1.15564	1.4446	85.48	-0.2131	0.0481	0.2612	1159.5204	0.168415	-365.927425	-365.918061	-365.917117	-365.961333	36.057	
C	 3.1234981596	-0.740729777	-0.3142146667	-0.417114
C	 1.6470858716	-1.0103902509	-0.1238978049	 0.033651
C	 1.1689334536	-1.9681089769	 0.9149264347	-0.269333
N	 0.8924902772	-0.5411516119	 1.0422606092	-0.141731
C	 1.5242698533	 0.2702108705	 2.0655212067	 0.152489
C	 1.0825680352	 0.0569911509	 3.4983279613	-0.299634
C	 2.501872936	-0.2625710607	 3.1147968072	-0.308564
C	 1.7241784137	 1.6323869298	 1.6348262993	 0.326891
C	 1.8998198994	 2.7665324029	 1.2755339979	-0.459883
H	 3.6926596001	-0.89389135	 0.605260868	 0.125207
H	 3.5279096191	-1.4126553776	-1.0788575406	 0.117574
H	 3.2917674927	 0.2882062371	-0.6465940774	 0.136591
H	 1.0652879872	-0.9337099427	-1.0415367707	 0.091066
H	 0.2978239959	-2.597474705	 0.7508607622	 0.114101
H	 1.9345803298	-2.4196641185	 1.5428375452	 0.108868
H	 0.8846336505	 0.932462935	 4.1045737033	 0.128216
H	 0.4063559843	-0.7754626991	 3.6609203314	 0.124755
H	 2.7898864013	-1.3057993642	 3.0685936139	 0.11778
H	 3.29133031	 0.4065537663	 3.4367680382	 0.126664
H	 2.0458758296	 3.7695384921	 0.9595126618	 0.192409
57.5585	128.0965	171.2461	196.1092	217.529	260.3995	328.4052	366.2413	444.0432	471.6671	538.672	571.6882	583.8063	619.7635	659.6241	766.6297	795.8599	820.0784	878.7102	905.4476	918.2415	934.7427	981.7069	1030.2969	1046.7831	1059.3766	1078.4227	1115.6575	1140.5392	1164.3473	1189.5773	1191.996	1232.8978	1300.3241	1353.9607	1401.8702	1419.3914	1456.0889	1486.1748	1490.2602	1498.8858	1513.5785	2236.7659	3040.9017	3095.2861	3102.3189	3106.7231	3131.7724	3139.3645	3143.5978	3176.1705	3224.2551	3238.3298	3503.372
CC1CN1C1(CC1)C#C	C[C@H]1CN1C1(CC1)C#C	
InChI=1S/C8H11N/c1-3-8(4-5-8)9-6-7(9)2/h1,7H,4-6H2,2H3	InChI=1S/C8H11N/c1-3-8(4-5-8)9-6-7(9)2/h1,7H,4-6H2,2H3/t7-,9?/m0/s1
