16
gdb 16653	2.82733	2.34143	1.71039	2.0587	64.25	-0.2338	-0.0221	0.2117	805.4237	0.131816	-383.754433	-383.747497	-383.746552	-383.785475	26.917	
O	 0.1722776536	 1.3381778257	 0.2022283451	-0.428125
C	-0.045330823	-0.0637849233	 0.0404461595	 0.000167
C	-1.5445862327	-0.3420240241	-0.1375622918	-0.234363
C	-1.7784389723	-0.4802579743	-1.6437403199	-0.043667
C	-1.2836479731	 0.6342984934	-2.499941037	-0.281843
C	-0.4283089114	-0.6264539553	-2.333089521	-0.152101
C	 0.6187478928	-0.5340926246	-1.2808696055	 0.398142
O	 1.7973874178	-0.7758936855	-1.3902885757	-0.343861
H	 1.1260992509	 1.4809418757	 0.1784438199	 0.294528
H	 0.3868841578	-0.6194436993	 0.8824230337	 0.090653
H	-1.8037714398	-1.2802384651	 0.362977415	 0.109986
H	-2.1421974885	 0.4551328877	 0.3139842924	 0.121463
H	-2.6224171117	-1.0693838604	-1.9832063698	 0.094957
H	-1.724488271	 0.7588467349	-3.4826461363	 0.122628
H	-0.9467303865	 1.5481933273	-2.0251429857	 0.145155
H	-0.2482626527	-1.2529817729	-3.1970716431	 0.106281
94.4476	202.9235	247.4782	363.6602	384.0281	396.3794	464.1156	571.7641	663.0102	717.0909	799.7764	809.1243	846.1796	877.823	940.5657	955.5516	990.319	1013.7887	1079.7395	1087.3723	1105.5213	1116.7422	1184.4966	1199.718	1217.5486	1236.8922	1316.1272	1323.8736	1346.1068	1373.6178	1414.3017	1478.0106	1490.2779	1826.7937	3020.5441	3055.7356	3099.48	3141.5678	3178.5192	3201.3903	3235.0767	3793.235
OC1CC2CC2C1=O	O[C@H]1C[C@H]2C[C@H]2C1=O	
InChI=1S/C6H8O2/c7-5-2-3-1-4(3)6(5)8/h3-5,7H,1-2H2	InChI=1S/C6H8O2/c7-5-2-3-1-4(3)6(5)8/h3-5,7H,1-2H2/t3-,4-,5+/m1/s1
