13
gdb 130083	5.60626	1.3568	1.09461	6.8738	65.64	-0.232	0.0093	0.2413	1003.3715	0.093206	-445.106972	-445.10031	-445.099366	-445.137798	25.782	
N	 0.0287175817	 1.3367034584	-0.1323873575	-0.591023
C	-0.0073469997	-0.034862715	-0.028153692	 0.458263
N	-1.1061307151	-0.7488435666	 0.0133535644	-0.328965
N	-0.6147221673	-2.0463366468	-0.0065167893	 0.017693
C	-1.0129871387	-3.3554154424	 0.0064789784	-0.007326
N	 0.0553595901	-4.1237423336	-0.0131959218	-0.222762
N	 1.2015087587	-3.3301597785	-0.0333678753	-0.363606
C	 0.7400680798	-2.107629157	-0.0296050655	 0.505701
N	 1.1541092238	-0.7861661462	-0.0207396768	-0.454156
H	 0.6868195346	 1.7912290967	 0.4872918978	 0.266603
H	-0.895651628	 1.740246746	-0.0545328609	 0.278483
H	-2.0385397625	-3.6812743313	 0.0312091346	 0.151266
H	 2.0725896627	-0.4557800937	-0.2601157462	 0.289827
145.2883	283.8489	314.4146	322.2177	348.0329	375.8882	536.7981	601.8867	655.5183	660.7541	729.7299	755.7491	782.6112	807.3902	856.0708	992.1075	1006.9007	1015.0716	1131.0495	1205.882	1209.2654	1278.8768	1379.0211	1420.7106	1473.7687	1522.2003	1607.918	1641.7005	1672.7122	3295.0631	3548.8488	3647.4776	3688.0255
NC1=NN2C=NN=C2N1	Nc1nn2cnnc2[nH]1	
InChI=1S/C3H4N6/c4-2-6-3-7-5-1-9(3)8-2/h1H,(H3,4,6,7,8)	InChI=1S/C3H4N6/c4-2-6-3-7-5-1-9(3)8-2/h1H,(H3,4,6,7,8)
