18
gdb 13918	3.32087	1.90686	1.52776	2.5983	72.14	-0.2329	-0.0193	0.2136	897.6033	0.153781	-347.805329	-347.797695	-347.796751	-347.838268	28.501	
O	 0.0608892528	 0.1382516022	-0.5612143355	-0.304015
C	 0.0029517818	 1.2631481974	-0.1507224987	 0.357565
C	-1.1114640925	 2.1232806923	 0.4705725755	-0.344787
C	-0.1133555786	 3.3226203754	 0.4646612947	-0.335056
C	 1.0201948687	 2.4097904737	-0.0792904686	 0.250795
C	 2.3419938475	 2.0990811465	 0.6859425613	-0.271167
C	 3.0420657717	 1.9022339723	-0.683653962	-0.201788
C	 1.8759049151	 2.6791774212	-1.3485650118	-0.275095
H	-2.0069954316	 2.2215093395	-0.1493893137	 0.130568
H	-1.4199581407	 1.7748405928	 1.4610311162	 0.131946
H	-0.3932153375	 4.1247110146	-0.222651757	 0.109114
H	 0.0877332193	 3.7593535851	 1.4454362149	 0.106741
H	 2.7015796173	 2.990378596	 1.209566653	 0.10324
H	 2.3296992672	 1.257089511	 1.3824827328	 0.107585
H	 4.0506336144	 2.3046739855	-0.7984974783	 0.097083
H	 3.0394079982	 0.8519929104	-0.9830773059	 0.125518
H	 1.4847876828	 2.3020816149	-2.2966873816	 0.108959
H	 2.094625374	 3.7467243891	-1.4505938954	 0.102794
26.3847	116.1503	168.48	263.5914	284.6498	459.1538	507.754	526.3101	689.1093	709.5385	733.4573	794.0578	838.1345	861.6905	897.5183	933.1282	940.3031	970.1279	1022.1488	1052.9026	1090.5255	1139.3677	1170.668	1180.4156	1208.7794	1211.8206	1228.5379	1249.0177	1252.8493	1281.4804	1283.7783	1299.2962	1436.2098	1470.2107	1480.6536	1485.0498	1500.158	1876.3855	3048.5392	3052.1927	3057.8606	3067.4361	3070.7833	3101.4774	3104.0424	3107.1591	3122.1826	3130.3735
O=C1CCC11CCC1	O=C1CCC21CCC2	
InChI=1S/C7H10O/c8-6-2-5-7(6)3-1-4-7/h1-5H2	InChI=1S/C7H10O/c8-6-2-5-7(6)3-1-4-7/h1-5H2
