18
gdb 123421	4.97684	0.92704	0.84146	6.2668	76.45	-0.246	0.0196	0.2656	1367.8438	0.149891	-398.127136	-398.119178	-398.118234	-398.161372	29.16	
C	-0.0368687265	 1.4799622312	-0.273769983	-0.210213
C	-0.0940018589	-0.02544188	-0.1411115615	 0.026658
C	-0.3044903724	-0.6680122258	 1.2068960413	-0.255854
C	-1.4086134954	-0.6887698444	 0.1802499262	-0.271045
N	 1.3053597685	 2.0230746144	-0.0890845564	 0.001093
C	 2.0124257456	 2.1670946301	 1.0717909186	 0.020701
N	 3.2050673678	 2.6529924533	 0.8395251541	-0.223179
N	 3.3088239361	 2.8393598772	-0.5255183625	-0.225139
C	 2.1733294211	 2.4580581021	-1.0509300173	 0.015496
H	-0.3744034105	 1.7936586272	-1.266554454	 0.131371
H	-0.7072785309	 1.9488091532	 0.455007591	 0.126056
H	 0.5609561271	-0.5514395567	-0.8297731077	 0.102522
H	 0.2228528423	-1.5901458936	 1.4214995991	 0.127228
H	-0.4319259586	-0.0205174115	 2.0687225499	 0.115759
H	-2.2706007469	-0.0521198214	 0.3519845909	 0.117806
H	-1.6421992035	-1.6247603761	-0.3135829747	 0.124456
H	 1.6122441438	 1.9093974667	 2.0398782738	 0.138224
H	 1.9206915414	 2.478452264	-2.1002397778	 0.138059
25.9369	82.4941	101.0835	268.3609	290.1212	346.9466	411.8706	649.0624	696.7374	729.8444	775.9212	809.0297	816.6453	845.1564	848.3353	904.3707	955.214	960.6727	1011.4982	1024.7641	1060.0702	1084.9385	1088.3276	1135.52	1155.5227	1196.7325	1207.674	1225.7737	1232.8004	1254.2178	1351.218	1381.0025	1406.3112	1423.9441	1469.5798	1481.8449	1498.9593	1508.3009	1553.3772	3043.4116	3088.4882	3133.2069	3137.5826	3153.3265	3213.3502	3227.7358	3258.7711	3268.5399
C(C1CC1)N1C=NN=C1	C(C1CC1)n1cnnc1	
InChI=1S/C6H9N3/c1-2-6(1)3-9-4-7-8-5-9/h4-6H,1-3H2	InChI=1S/C6H9N3/c1-2-6(1)3-9-4-7-8-5-9/h4-6H,1-3H2
