19
gdb 81607	2.91994	1.20613	1.05224	3.5663	80.43	-0.2175	0.0329	0.2504	1200.2944	0.159488	-381.993583	-381.985094	-381.98415	-382.027539	31.853	
C	-0.42636243	 1.4785284038	 0.0470245141	-0.344055
N	-0.192619814	 0.0328540801	-0.021629129	-0.096065
C	-1.087984823	-0.926881318	 0.7336368824	-0.042755
C	 0.0074736801	-1.9893685944	 0.4392925308	-0.20634
C	 0.713351879	-0.7027929986	 0.9495351794	-0.05953
C	-0.3493268616	-0.668420449	 2.0937495185	 0.045867
C	-0.5347015105	 0.5671287276	 2.9926530613	-0.414104
C	-1.9294759184	 0.7581357666	 3.3884101495	 0.2721
N	-3.0397238598	 0.8933205603	 3.6800262736	-0.312844
H	 0.5077720919	 2.0065793021	 0.2705944067	 0.118792
H	-0.7577864762	 1.8170267226	-0.94106325	 0.125879
H	-1.1906829796	 1.80088181	 0.7646086915	 0.120992
H	-2.1611364199	-0.9890078055	 0.5480528307	 0.098638
H	 0.0428655605	-2.870305827	 1.0810135822	 0.098761
H	 0.1589722435	-2.2069360429	-0.6161675514	 0.112373
H	 1.7836815733	-0.4936094947	 1.0086204955	 0.083187
H	-0.3423131749	-1.5522476622	 2.7405984315	 0.09126
H	 0.0627930137	 0.4283275067	 3.9013584907	 0.151075
H	-0.175457264	 1.4864138025	 2.5302693619	 0.156767
36.1625	105.119	128.1104	254.1879	301.3555	314.3366	355.5091	409.164	466.399	582.0485	673.4978	738.8146	757.7507	761.0376	817.9914	889.3352	895.1488	940.9014	993.1204	1026.3786	1047.4764	1076.1393	1082.185	1125.691	1128.2823	1138.3389	1177.9471	1192.2831	1209.0243	1217.5792	1236.3404	1246.3576	1287.0236	1327.0627	1424.1438	1445.4593	1468.9498	1487.5382	1497.9636	1535.8205	2359.4426	3007.4896	3037.6146	3052.6441	3062.9471	3084.7127	3085.8995	3095.8984	3113.2244	3133.8189	3175.6772
CN1C2CC1C2CC#N	CN1[C@H]2C[C@@H]1[C@H]2CC#N	
InChI=1S/C7H10N2/c1-9-6-4-7(9)5(6)2-3-8/h5-7H,2,4H2,1H3	InChI=1S/C7H10N2/c1-9-6-4-7(9)5(6)2-3-8/h5-7H,2,4H2,1H3/t5-,6-,7+
