17
gdb 95365	2.96899	1.59678	1.14463	1.6274	69.97	-0.2507	-0.0077	0.243	1046.1071	0.137241	-458.951265	-458.943697	-458.942752	-458.983715	28.725	
O	 0.0148868549	 1.3183853418	-0.3558553594	-0.424964
C	 0.0601072574	-0.0572760477	-0.0314688459	 0.012577
C	 0.5030776756	-0.3725019238	 1.4485464428	-0.11768
O	-0.6184882862	-0.9302056484	 2.1419233734	-0.270822
C	-1.3330595086	-1.6710108061	 1.1472541193	 0.17445
O	-2.6815476228	-1.8702072758	 1.4326598284	-0.269596
C	-3.4853865698	-1.1750080939	 0.4669782551	-0.111566
C	-2.5073448083	-0.4254476602	-0.4024176921	-0.239406
C	-1.2732736884	-0.7387308944	-0.0284114181	 0.205818
H	-0.6869046496	 1.714145016	 0.1741141629	 0.281405
H	 0.7744429655	-0.4914215251	-0.7379732765	 0.107455
H	 1.3450684976	-1.0808501083	 1.4489857215	 0.099149
H	 0.8140564538	 0.5391531988	 1.9639189592	 0.120904
H	-0.8440011438	-2.6527656473	 1.0240170334	 0.072394
H	-4.1017452787	-1.9069090016	-0.0741518854	 0.11874
H	-4.1696992424	-0.4835524071	 0.9788470579	 0.121079
H	-2.8074269864	 0.3306955829	-1.1170283565	 0.120061
70.0746	149.0806	165.688	287.3448	347.2881	376.6594	438.4916	483.8635	624.0389	694.4855	709.448	798.7349	833.1528	868.067	926.5978	949.0771	978.3715	998.3637	1013.3167	1034.5515	1044.4574	1081.3911	1138.2473	1175.4887	1196.2695	1225.0196	1251.5058	1258.2603	1304.3301	1339.147	1353.6345	1382.1749	1408.9191	1435.151	1504.6664	1513.8772	1740.5356	2951.3744	2990.1216	3000.4082	3024.7397	3062.8614	3103.8648	3215.531	3792.9573
OC1COC2OCC=C12	O[C@H]1CO[C@H]2OC[CH][C]12	
InChI=1S/C6H8O3/c7-5-3-9-6-4(5)1-2-8-6/h1,5-7H,2-3H2	InChI=1S/C6H8O3/c7-5-3-9-6-4(5)1-2-8-6/h1,5-7H,2-3H2/t5-,6+/m0/s1
