18
gdb 41366	2.41646	2.01432	1.88955	1.5389	73.48	-0.2411	0.0152	0.2563	877.0966	0.149739	-401.926921	-401.920077	-401.919133	-401.957911	28.056	
C	-0.0085410631	 1.4550739905	-0.3531087254	-0.297276
C	 1.4442161482	 1.6008594017	 0.2472705624	-0.285894
C	 1.4259202899	 0.0834128055	 0.5838078776	 0.290105
C	 0.9408313069	-0.3847634479	 1.9844270479	-0.285893
C	-0.5150306429	-0.5427174692	 1.3947417144	-0.297277
C	 0.0112822096	-0.0428252956	 0.0295843893	 0.373023
O	 0.1080829167	-1.0025716342	-1.0393566724	-0.280419
C	 1.4394439417	-1.3438726346	-1.043682137	 0.081677
N	 2.2550717244	-0.8250369323	-0.214308552	-0.32072
H	-0.7862959811	 2.0539585722	 0.1268966354	 0.104925
H	-0.0619038977	 1.6125707025	-1.432175888	 0.117691
H	 2.2080398342	 1.8717091506	-0.4840902975	 0.116428
H	 1.52836686	 2.268695227	 1.1080685465	 0.102826
H	 1.3986035488	-1.3210794685	 2.3091308878	 0.116428
H	 1.0427242108	 0.3529161779	 2.7841176306	 0.102826
H	-0.8699523514	-1.5745032341	 1.356183958	 0.117691
H	-1.2876994466	 0.0761446937	 1.8573039812	 0.104926
H	 1.6981760016	-2.0739739854	-1.8032334788	 0.138935
106.1537	263.2956	273.9731	317.5123	360.4587	529.0737	578.9395	660.3174	670.7187	679.8672	728.2362	729.2461	872.5137	878.9634	886.3332	896.0065	922.0549	967.7257	969.0872	1000.4259	1016.9026	1064.5817	1149.1985	1170.0738	1186.0705	1216.0447	1219.5939	1241.0536	1246.0677	1250.5171	1272.8725	1284.2392	1285.0331	1329.1402	1459.0299	1467.7291	1471.3541	1485.6043	1644.5067	3062.7739	3064.556	3067.4938	3070.7784	3114.9647	3116.9792	3131.5057	3135.178	3213.1835
C1CC23CCC12OC=N3	C1C[C@@]23CC[C@@]12OC=N3	
InChI=1S/C7H9NO/c1-3-7-4-2-6(1,7)8-5-9-7/h5H,1-4H2	InChI=1S/C7H9NO/c1-3-7-4-2-6(1,7)8-5-9-7/h5H,1-4H2/t6-,7+
