15
gdb 51500	3.47876	1.19672	0.93515	4.5323	69.95	-0.2373	-0.0332	0.2041	1194.1867	0.112796	-453.972213	-453.964063	-453.963118	-454.005723	29.372	
N	-0.06134715	 1.287423496	-0.0049673828	-0.443156
C	-0.126812894	 0.0377787074	-0.1527334418	 0.142021
O	-0.7204513439	-0.7116432075	 0.8103779917	-0.195282
C	-0.824605012	-2.1033837525	 0.5519372362	-0.027028
C	-1.2778303988	-2.8706066368	 1.7609397008	-0.179825
C	-2.3656060471	-3.5719926316	 1.4317493123	-0.008357
N	-2.7440137773	-3.359929327	 0.0930116379	-0.332178
C	-1.9305204722	-2.4176070139	-0.5009838591	 0.407871
O	-2.0499487057	-1.9332100951	-1.5994074042	-0.353424
H	 0.4261205338	 1.7038675131	-0.7955943252	 0.230815
H	 0.2552994699	-0.5499341221	-0.9945388056	 0.104048
H	 0.1311995597	-2.4870092585	 0.1624156412	 0.118504
H	-0.7720659071	-2.8699108374	 2.713159092	 0.125482
H	-2.9405839977	-4.2592625229	 2.0358422369	 0.141992
H	-3.6154251176	-3.6557044814	-0.3164345502	 0.268517
70.5676	91.3552	122.283	208.3822	257.3049	355.525	420.1792	499.5876	507.5836	621.1518	680.1211	710.24	757.7885	809.3007	816.6342	902.2945	924.4049	1018.4388	1031.1271	1040.1237	1072.0589	1120.6087	1165.8149	1211.0547	1263.053	1282.1447	1332.167	1380.2076	1408.8746	1428.6638	1674.4997	1746.6426	1849.162	2987.1966	3064.6647	3239.9546	3269.7364	3518.5107	3652.1719
N=COC1C=CNC1=O	[NH][CH]O[C@H]1C=CNC1=O	
InChI=1S/C5H6N2O2/c6-3-9-4-1-2-7-5(4)8/h1-4,6H,(H,7,8)	InChI=1S/C5H6N2O2/c6-3-9-4-1-2-7-5(4)8/h1-4,6H,(H,7,8)/t4-/m0/s1
