22
gdb 110415	4.56297	1.0632	0.97874	1.7294	86.53	-0.2189	0.083	0.3019	1322.3266	0.194264	-367.147988	-367.139264	-367.13832	-367.181034	34.118	
C	-0.0865140247	 1.5233759673	-0.0629752635	-0.382035
C	 0.1316391586	 0.0102890663	 0.0242064269	-0.188525
C	 0.7605374591	-0.5620156237	-1.2382481389	 0.053258
C	 0.7570484521	-2.079343351	-1.3491216996	-0.13687
C	-0.5388186304	-1.997121463	-2.1041184623	-0.076607
N	-0.2082588067	-0.5194942123	-2.4164559918	-0.1777
C	 0.6660938245	-1.0379455824	-3.5393348039	-0.22278
C	 0.6941388667	-2.4006770345	-2.8621510379	 0.30975
C	 1.0767099714	-3.7342203808	-3.4308086517	-0.508476
H	 0.8648225748	 2.0555616298	-0.1764851106	 0.107186
H	-0.7119834986	 1.766027302	-0.9262849373	 0.138196
H	-0.5754837892	 1.9061655992	 0.8379636271	 0.106162
H	 0.7797898812	-0.2312936299	 0.8771907415	 0.08898
H	-0.8234653669	-0.4975144613	 0.2066125407	 0.096944
H	 1.703197904	-0.0396283158	-1.4537265319	 0.060362
H	 1.0710220398	-2.8296208387	-0.632248901	 0.082758
H	-1.5266370237	-2.418186809	-1.9799144825	 0.092773
H	 0.0938146167	-1.051329672	-4.4723276939	 0.100401
H	 1.5973740204	-0.4776719895	-3.6889427854	 0.092302
H	 2.15864632	-3.8036543871	-3.592969045	 0.122294
H	 0.7914458669	-4.5504634984	-2.7585096947	 0.120706
H	 0.5829903341	-3.9099282451	-4.3934305543	 0.120923
96.5189	140.9514	174.2724	209.5589	237.1452	278.2613	315.6942	404.2345	452.4355	500.6466	619.5133	741.3043	765.6212	799.2369	839.4939	861.3148	877.7743	894.5121	908.3269	930.3903	964.7454	990.9778	1017.595	1034.2502	1055.8679	1088.0889	1100.4851	1126.2414	1149.0247	1160.1607	1186.2093	1224.5324	1244.5031	1278.3171	1292.5282	1302.3942	1344.6757	1402.909	1404.7304	1412.0286	1431.8343	1481.3268	1487.5383	1495.6011	1499.3512	1510.5316	1513.495	3002.8077	3019.1171	3021.2081	3025.2391	3034.0022	3057.4143	3081.4134	3082.7813	3092.9289	3098.5664	3120.8915	3175.4363	3213.2266
CCC1C2C3N1CC23C	CC[C@H]1[C@H]2[C@H]3N1C[C@@]23C	
InChI=1S/C8H13N/c1-3-5-6-7-8(6,2)4-9(5)7/h5-7H,3-4H2,1-2H3	InChI=1S/C8H13N/c1-3-5-6-7-8(6,2)4-9(5)7/h5-7H,3-4H2,1-2H3/t5-,6-,7+,8-/m0/s1
