19
gdb 83180	2.58948	1.51508	1.40067	2.398	76.85	-0.2293	0.0248	0.2541	1036.0811	0.160489	-419.187327	-419.178889	-419.177944	-419.220769	31.401	
C	-0.4105824187	 1.4482879754	-0.1456137296	-0.337054
N	-0.017319646	 0.0542965854	 0.0115617307	-0.094016
C	 1.296552029	-0.4722310102	-0.3031791293	-0.046745
C	 2.5063536985	 0.3764759886	-0.6276585034	-0.110671
O	 2.7003074077	 1.5349496866	 0.1890628306	-0.251905
C	 2.3319459217	 1.5772343885	 1.5013261754	 0.380298
N	 2.6165040378	 2.5803342659	 2.2204540779	-0.514304
C	 1.5583928979	 0.4161894186	 2.0857998076	-0.306206
C	 0.8018502324	-0.4557984737	 1.101926795	-0.039887
H	 0.3165270976	 2.1992746725	 0.1824665419	 0.134242
H	-0.6272265043	 1.6263981904	-1.2038319224	 0.125739
H	-1.3397297114	 1.6049718002	 0.4112445818	 0.128536
H	 1.2919678509	-1.3989675689	-0.8784226004	 0.095443
H	 3.4003404825	-0.2612810921	-0.5661584401	 0.116948
H	 2.4528406776	 0.7634873964	-1.6507601497	 0.125898
H	 3.1601395145	 3.2560208375	 1.6794104885	 0.217326
H	 2.2744131036	-0.2323436082	 2.6088696502	 0.136537
H	 0.9054161752	 0.8258487862	 2.8608948277	 0.14504
H	 0.4178733437	-1.372188879	 1.5482146775	 0.094782
71.0058	95.4606	138.0069	180.2305	232.6426	377.0996	417.5395	422.5237	518.3092	543.738	625.4239	720.0809	752.1495	759.4631	848.9839	874.1707	910.143	970.5509	994.9915	1013.9292	1048.7539	1083.0671	1141.031	1149.6937	1159.5809	1176.3598	1193.1904	1239.2113	1285.937	1308.1027	1325.0862	1347.6521	1373.8043	1430.1727	1441.0711	1461.8432	1481.604	1499.7334	1500.385	1511.1271	1741.5844	3001.6459	3025.6118	3028.8578	3067.0354	3091.5932	3094.6001	3095.72	3101.1865	3111.1007	3463.6174
CN1C2COC(=N)CC12	CN1[C@H]2CO[C]([NH])C[C@@H]12	
InChI=1S/C6H10N2O/c1-8-4-2-6(7)9-3-5(4)8/h4-5,7H,2-3H2,1H3	InChI=1S/C6H10N2O/c1-8-4-2-6(7)9-3-5(4)8/h4-5,7H,2-3H2,1H3/t4-,5+,8?/m1/s1
