21
gdb 60542	2.81971	1.21059	1.04922	1.233	77.71	-0.2576	0.0753	0.3329	1239.3443	0.18086	-424.182062	-424.172623	-424.171679	-424.216722	36.057	
C	 0.1340948423	 1.3861107484	 0.4378430918	-0.43802
C	 0.1184980128	-0.1037251824	 0.0771007619	-0.073783
C	-1.2876647428	-0.6893461244	 0.0742321133	 0.076314
C	-2.4637276384	-0.0780946899	 0.7046933451	-0.187559
O	-2.2842418646	-0.0209726453	-0.7125543473	-0.24356
C	 0.8024943937	-0.4406098149	-1.2568032352	 0.431439
O	 0.7193469595	-1.8108477108	-1.5832112307	-0.476556
C	 0.8373627868	 0.5175686439	-2.4180468109	-0.312585
C	 2.1082271078	 0.1739783705	-1.6631530855	-0.314268
H	 1.1287621227	 1.8207280289	 0.3155396268	 0.119947
H	-0.567246417	 1.9458370617	-0.1871354699	 0.139716
H	-0.1520105732	 1.5313748853	 1.4830981911	 0.117435
H	 0.6722086382	-0.6599211033	 0.8475284267	 0.086573
H	-1.3079801638	-1.7736687327	-0.0360124574	 0.093717
H	-3.2772029059	-0.716960278	 1.0470519162	 0.112818
H	-2.3801007176	 0.8750634039	 1.2212920018	 0.114952
H	-0.1296445847	-1.9587136778	-2.0136790534	 0.288238
H	 0.714020171	 0.0914790944	-3.4076013601	 0.111363
H	 0.4179337198	 1.5089672885	-2.2970824195	 0.1188
H	 2.5621522034	 0.934199161	-1.0385245506	 0.112376
H	 2.8096447898	-0.4965855669	-2.145374384	 0.122641
39.9454	64.7729	196.2568	219.1382	273.6996	292.3688	323.6	351.8533	379.7448	433.2773	440.9241	477.4149	615.2594	703.9683	763.787	779.1492	851.8476	899.4657	917.325	931.4807	953.1581	973.179	990.3812	1047.9942	1051.3528	1078.6641	1100.813	1110.5827	1136.9228	1166.5357	1186.3169	1189.6238	1236.6481	1295.3223	1316.8965	1331.6239	1351.0232	1363.1201	1397.745	1431.9236	1453.5431	1494.8888	1503.9454	1516.2138	1532.1967	3003.6847	3050.4571	3088.9374	3107.9293	3115.6501	3127.1871	3141.608	3144.8156	3178.0988	3224.2532	3237.346	3802.4433
CC(C1CO1)C1(O)CC1	C[C@@H]([C@H]1CO1)C1(O)CC1	
InChI=1S/C7H12O2/c1-5(6-4-9-6)7(8)2-3-7/h5-6,8H,2-4H2,1H3	InChI=1S/C7H12O2/c1-5(6-4-9-6)7(8)2-3-7/h5-6,8H,2-4H2,1H3/t5-,6+/m0/s1
