23
gdb 79913	2.27651	1.49869	1.26878	0.2658	91.23	-0.2135	0.027	0.2405	1173.1979	0.206017	-351.165884	-351.156659	-351.155715	-351.199048	36.329	
C	 0.2713707809	 1.8181784388	-0.4014247824	-0.413633
C	 0.2989265334	 0.3125745125	-0.2515971286	 0.004598
C	 1.5454054978	-0.5414314421	-0.4413075949	-0.107283
C	 2.8583677321	 0.1315156913	-0.229910785	-0.189972
C	 3.0298244447	 0.5468673367	 1.0308221619	 0.318633
C	 4.2025307826	 1.2967137329	 1.5810662141	-0.496056
C	 1.853526699	 0.1286528571	 1.9118696444	-0.074963
C	 1.2906317921	 1.2222334583	 2.8342472096	-0.402921
C	 0.8572217222	-0.4758287568	 0.9161599457	-0.083327
H	 1.2141469972	 2.278556054	-0.0998566529	 0.120933
H	 0.0890720606	 2.0911466491	-1.4474062458	 0.108522
H	-0.5313033065	 2.2614821919	 0.1983222758	 0.112209
H	-0.5927403964	-0.161126186	-0.6590616826	 0.079401
H	 1.487606956	-1.4120991038	-1.0868064817	 0.07757
H	 3.574675926	 0.2868210968	-1.0306122895	 0.081692
H	 4.9731337626	 1.4470737022	 0.8199214771	 0.120948
H	 3.9125663075	 2.2833569428	 1.9639514714	 0.126188
H	 4.6572820625	 0.7601718859	 2.4245655562	 0.120525
H	 2.2045124093	-0.6844243123	 2.5685757482	 0.076491
H	 0.9437486334	 2.0918989365	 2.2708468287	 0.121402
H	 0.4430408409	 0.8374541624	 3.4102424424	 0.113299
H	 2.0468244664	 1.5632874197	 3.5492637899	 0.110241
H	 0.254285316	-1.3064966279	 1.2671452279	 0.075503
116.4861	174.3496	187.0264	211.3834	245.1433	251.1171	279.2284	306.5593	346.7139	504.972	514.694	546.744	666.4665	697.2411	738.4711	760.2394	797.7787	862.8605	891.8335	946.4214	959.3275	1009.0985	1012.8067	1026.1913	1057.7657	1066.3153	1090.0812	1096.1499	1111.3603	1135.2598	1138.0296	1207.0044	1231.7401	1287.9013	1315.5828	1336.1287	1354.4174	1366.473	1409.1519	1410.5707	1414.4636	1430.7777	1477.4621	1487.6439	1497.2064	1497.8097	1506.3354	1508.6433	1703.0128	2959.82	3012.6438	3029.2035	3038.3521	3056.9261	3081.4901	3098.0724	3107.071	3111.2221	3123.1508	3132.209	3149.9553	3161.7937	3178.4648
CC1C2C=C(C)C(C)C12	C[C@H]1[C@H]2C=C(C)[C@@H](C)[C@@H]12	
InChI=1S/C9H14/c1-5-4-8-7(3)9(8)6(5)2/h4,6-9H,1-3H3	InChI=1S/C9H14/c1-5-4-8-7(3)9(8)6(5)2/h4,6-9H,1-3H3/t6-,7+,8-,9+/m1/s1
