18
gdb 123727	4.83867	1.00951	0.96232	2.9875	79.28	-0.2478	-0.0095	0.2384	1268.1717	0.149652	-401.938693	-401.931116	-401.930172	-401.971721	28.553	
C	-0.050797133	 1.5012758471	-0.1154087541	-0.215564
C	 1.4995392104	 1.4989500494	-0.0722485724	-0.22703
C	 1.4425875602	 0.0881567743	 0.5994924466	-0.087219
C	-0.0215013852	-0.0387972043	 0.0655029877	-0.227033
C	 2.4425221701	-0.9352563095	 0.2160209262	 0.440877
C	 3.3032489506	-1.7234423513	 0.9204170536	-0.357096
C	 3.9705495647	-2.4738071299	-0.0823558448	 0.035599
N	 3.5568461704	-2.1718251999	-1.2878231886	-0.14181
O	 2.5827491761	-1.1917993021	-1.100572086	-0.217233
H	-0.4797541748	 2.003663805	 0.756305238	 0.104223
H	-0.5297337182	 1.8945080898	-1.0140726024	 0.104754
H	 1.9334696201	 1.4311260614	-1.072592318	 0.125016
H	 2.0053700976	 2.2922414441	 0.4823956515	 0.103161
H	 1.446375905	 0.1819652497	 1.6884778058	 0.084138
H	-0.754513165	-0.4979549696	 0.7323419858	 0.103163
H	-0.0367224803	-0.5607095868	-0.8941627375	 0.125014
H	 3.4386436365	-1.7616470279	 1.9882643019	 0.116474
H	 4.7399048846	-3.2246715197	 0.0327061567	 0.130567
49.9133	110.2164	133.8325	228.88	371.8742	390.8532	562.2008	647.4844	714.3019	715.6799	789.8618	811.1885	850.2636	908.369	917.4071	929.5203	936.8775	942.7016	945.1675	990.317	1031.1532	1034.2001	1054.9172	1117.6727	1205.9175	1209.5647	1240.0348	1253.772	1257.3978	1269.8792	1277.8975	1282.7492	1326.8097	1399.485	1476.213	1488.2805	1508.9193	1514.263	1631.4442	3061.9235	3066.1996	3070.6697	3074.988	3110.0389	3123.5369	3133.8451	3241.4481	3279.3079
C1CC(C1)C1=CC=NO1	C1CC(C1)c1ccno1	
InChI=1S/C7H9NO/c1-2-6(3-1)7-4-5-8-9-7/h4-6H,1-3H2	InChI=1S/C7H9NO/c1-2-6(3-1)7-4-5-8-9-7/h4-6H,1-3H2
