18
gdb 62184	5.2438	0.62678	0.57833	3.5016	79.82	-0.2721	0.0158	0.2878	1841.5077	0.144409	-401.916935	-401.906591	-401.905647	-401.953381	35.714	
C	 0.0022267321	 1.5641058065	 0.0086686622	-0.390403
C	-0.0076630946	 0.0252176268	 0.0684082729	-0.153169
C	 0.7433590237	-0.5155589238	 1.2973088408	-0.043977
O	 2.0862140422	-0.1067936748	 1.1756014981	-0.249327
C	 2.8838799737	-0.5193634428	 2.2726940876	-0.210195
C	 4.2538041754	-0.0631619433	 2.0871265452	 0.277197
C	 5.3905917773	 0.3007040304	 1.9588318498	-0.407209
C	-1.375548052	-0.4999773874	 0.0639814786	 0.256594
N	-2.4557267132	-0.9106428561	 0.075548493	-0.317922
H	 1.0353211736	 1.9145362019	 0.0275311277	 0.150045
H	-0.4813167194	 1.9210737687	-0.9033590147	 0.136367
H	-0.5287593914	 1.9868375753	 0.8665695068	 0.133467
H	 0.5014928135	-0.3695313742	-0.8193607404	 0.140986
H	 0.2891344768	-0.1177451784	 2.2197079027	 0.1077
H	 0.667048422	-1.6133794231	 1.3353121189	 0.11176
H	 2.4783786031	-0.1130789825	 3.2144844604	 0.125899
H	 2.8652993745	-1.6180556782	 2.3671735957	 0.126413
H	 6.3953275829	 0.6243508049	 1.8407598949	 0.205772
39.8833	78.0977	88.8722	133.4902	154.3109	215.0157	227.0798	307.3081	328.8447	334.2097	398.4202	528.339	558.4197	593.3098	615.0107	683.9499	827.1801	931.1415	938.542	981.3973	1021.4733	1032.7245	1095.5434	1126.7238	1148.2151	1170.4333	1253.6837	1265.1784	1307.148	1341.5749	1383.7535	1404.2944	1445.2389	1493.0506	1497.9991	1500.9091	1523.8398	2250.2778	2359.5951	2959.4186	2971.2091	2982.044	3005.9035	3046.5177	3055.2826	3128.2283	3149.9269	3505.2827
CC(COCC#C)C#N	C[C@@H](COCC#C)C#N	
InChI=1S/C7H9NO/c1-3-4-9-6-7(2)5-8/h1,7H,4,6H2,2H3	InChI=1S/C7H9NO/c1-3-4-9-6-7(2)5-8/h1,7H,4,6H2,2H3/t7-/m1/s1
