21
gdb 111105	2.29527	1.57662	1.21766	1.7305	77.98	-0.2437	0.0741	0.3177	1136.6148	0.182976	-424.197874	-424.18923	-424.188286	-424.231147	33.037	
C	 0.5793262838	 1.5155830642	 0.1460274035	-0.244183
O	 0.778094548	 0.1552949385	-0.1832634341	-0.241928
C	 1.2156688889	-0.6166727693	 0.8928525775	 0.1578
C	 0.2274032371	-1.2527896814	 1.9126349484	 0.021722
C	-0.8100595278	-1.9629762463	 1.0231107972	-0.243758
C	 0.1904108823	-2.7188143774	 0.0842314457	 0.055638
C	-0.0248286236	-2.5578809585	-1.4196331981	-0.427173
C	 1.4884152831	-2.1200085678	 0.6768336099	-0.009938
O	 1.250578847	-2.2774058586	 2.1136120408	-0.299752
H	 1.5011320131	 1.9720878777	 0.5366522451	 0.111953
H	 0.2880440508	 2.0323454961	-0.770909085	 0.131433
H	-0.2152789944	 1.6456230629	 0.8950570479	 0.112159
H	 2.0545849815	-0.1464701897	 1.4209095786	 0.082448
H	-0.0949037841	-0.7636435603	 2.8318975622	 0.074742
H	-1.4498113004	-2.6345060976	 1.5990378078	 0.101381
H	-1.4379901783	-1.2513858808	 0.4791597838	 0.102903
H	 0.1918220446	-3.7840203673	 0.3362932435	 0.079196
H	-0.0289696761	-1.5064468966	-1.7117332684	 0.141077
H	 0.7648592658	-3.0666361798	-1.9842911303	 0.107526
H	-0.9789879226	-3.0037498777	-1.720181957	 0.110984
H	 2.4500454414	-2.5059412105	 0.337504401	 0.07577
77.5278	151.9312	167.2015	214.768	235.8012	249.5064	328.7583	403.6416	448.5516	531.8824	587.6417	707.0729	803.8161	816.3663	858.4364	876.8625	882.9249	926.5725	979.7343	993.7612	1024.113	1033.9607	1070.2473	1093.726	1122.7134	1161.6155	1180.2074	1189.3614	1203.6228	1207.0648	1239.2321	1246.2375	1279.0438	1296.361	1313.3052	1346.359	1368.391	1396.6254	1412.5335	1478.8621	1484.7697	1490.3718	1499.099	1508.1784	1511.8383	2983.5542	3033.4353	3033.6061	3036.6306	3052.1369	3064.4929	3088.9949	3116.5739	3119.4506	3121.9209	3124.2884	3141.2872
COC1C2CC(C)C1O2	CO[C@H]1[C@H]2C[C@@H](C)[C@@H]1O2	
InChI=1S/C7H12O2/c1-4-3-5-7(8-2)6(4)9-5/h4-7H,3H2,1-2H3	InChI=1S/C7H12O2/c1-4-3-5-7(8-2)6(4)9-5/h4-7H,3H2,1-2H3/t4-,5-,6+,7+/m1/s1
