16
gdb 57033	2.47131	1.36084	0.91956	2.7494	71.42	-0.2493	0.0255	0.2748	1211.9712	0.122462	-437.859179	-437.849945	-437.849001	-437.893767	33.059	
O	 0.0195856622	 1.4915132734	-0.0000610506	-0.42018
C	 0.0519405557	 0.065010217	-0.0144044579	-0.061653
C	 0.6673241845	-0.4539831705	-1.2356974265	 0.303536
C	 1.2189201864	-0.8388981808	-2.2313175138	-0.433741
C	 0.7518205428	-0.4782540011	 1.2388611508	-0.161527
C	 0.0621340353	-0.1307728344	 2.5889579833	-0.184232
N	-0.1465624464	-1.5699611838	 2.7748353762	-0.320034
C	 0.4599565619	-1.9646540968	 1.6078444458	 0.41331
O	 0.6575303263	-3.0373433791	 1.1070632008	-0.350959
H	 0.8842506032	 1.8032820479	-0.290216601	 0.286655
H	-1.0020895181	-0.2386617256	 0.0181196124	 0.125072
H	 1.6878526822	-1.200106653	-3.1133782506	 0.205468
H	 1.8202316283	-0.2506622669	 1.2055202942	 0.10445
H	 0.7132800593	 0.3307405888	 3.3372136138	 0.114205
H	-0.8578545481	 0.4530209869	 2.4925439208	 0.12644
H	-0.5573402857	-2.1043366222	 3.5257930724	 0.25319
57.3543	87.5022	126.6646	174.4441	203.0121	268.2998	292.2928	343.6522	452.4106	489.5779	536.0895	582.6822	643.3907	679.2536	693.7248	763.4903	869.0536	920.1737	964.5326	989.9314	1047.5212	1076.8722	1120.7773	1158.0827	1170.3182	1180.3145	1248.0679	1279.0621	1296.7233	1373.035	1393.8169	1417.232	1529.7486	1896.2815	2238.2656	3033.3222	3048.7014	3087.3659	3099.8475	3502.7257	3613.9492	3804.958
OC(C#C)C1CNC1=O	O[C@@H](C#C)[C@H]1CNC1=O	
InChI=1S/C6H7NO2/c1-2-5(8)4-3-7-6(4)9/h1,4-5,8H,3H2,(H,7,9)	InChI=1S/C6H7NO2/c1-2-5(8)4-3-7-6(4)9/h1,4-5,8H,3H2,(H,7,9)/t4-,5+/m1/s1
