12
gdb 131979	4.87143	1.09182	0.89247	6.628	61.63	-0.2482	-0.0899	0.1583	1174.0712	0.077215	-505.845642	-505.838177	-505.837233	-505.878211	26.985	
N	 0.028458441	 1.3527423005	 0.1650958469	-0.594704
C	-0.0987097215	-0.0011434869	 0.0665662603	 0.536437
C	-1.1700858249	-0.854713936	 0.0383086907	-0.451459
C	-0.531084857	-2.1104307424	 0.0045164953	 0.505633
N	 0.7770620448	-2.0695824356	 0.0082463511	-0.177781
O	 1.0527391907	-0.7013549665	 0.0475366748	-0.204946
N	-1.2083065993	-3.4048003824	-0.0359048898	 0.362448
O	-2.4328583025	-3.3578301294	-0.0457633134	-0.351188
O	-0.5241644291	-4.4112633923	-0.0571411421	-0.331679
H	 0.9209832576	 1.7269471843	-0.121819826	 0.278887
H	-0.7639263973	 1.8951554328	-0.1404583486	 0.27809
H	-2.2231544327	-0.6437543163	 0.045582401	 0.150263
57.2756	157.2467	197.3836	285.8883	349.8084	384.7013	413.2959	511.303	552.8036	618.4206	707.8208	725.4436	759.7966	808.4812	842.1943	949.5949	1009.2097	1029.1803	1067.6793	1156.4576	1355.6632	1403.3633	1444.0314	1557.5496	1620.0177	1656.44	1678.6722	3313.3698	3585.3462	3695.0091
NC1=CC(=NO1)N(=O)=O	Nc1cc(no1)N(=O)=O	
InChI=1S/C3H3N3O3/c4-2-1-3(5-9-2)6(7)8/h1H,4H2	InChI=1S/C3H3N3O3/c4-2-1-3(5-9-2)6(7)8/h1H,4H2
