21
gdb 120311	2.73817	1.05868	0.9426	1.6807	79.57	-0.2444	0.08	0.3244	1369.3028	0.181278	-424.177365	-424.16783	-424.166886	-424.212303	35.228	
C	-0.4441000858	 1.2390447523	-0.5130929324	-0.223639
O	-0.6370908105	-0.1541088289	-0.5399970014	-0.238307
C	-0.9161734715	-0.6945334209	 0.7412465077	-0.090371
C	-1.0488082319	-2.1869425279	 0.5960844432	-0.095343
C	-1.9336303137	-3.0968140575	 1.4305078788	-0.146517
C	-3.2711903144	-2.4276525308	 1.7716376549	-0.225643
C	-3.5476908833	-2.2208409586	 0.2454959932	-0.300518
C	-2.2018582554	-2.8901994509	-0.0603270022	 0.403817
O	-2.0141761299	-3.7913907454	-1.0932708869	-0.464908
H	-0.2399917993	 1.5631559799	-1.5367697703	 0.124629
H	-1.3365409893	 1.7707343755	-0.1448003982	 0.101646
H	 0.4077806544	 1.5236349416	 0.1253768219	 0.102541
H	-0.1012803499	-0.4470646755	 1.4431185424	 0.084439
H	-1.8333612621	-0.2411859067	 1.1480881512	 0.087406
H	-0.1106683261	-2.6766965992	 0.3419302489	 0.092455
H	-1.5113579845	-3.9525693048	 1.9434263303	 0.089762
H	-3.9789647146	-3.1236049311	 2.2268572904	 0.105807
H	-3.2270247803	-1.5280515438	 2.3929097778	 0.096665
H	-4.3822303832	-2.8322723269	-0.1036730733	 0.110195
H	-3.6825511903	-1.1963383637	-0.1159452887	 0.096506
H	-1.6117367483	-3.3178351867	-1.8296258874	 0.289377
49.8498	92.1517	100.6811	215.9621	229.9904	257.8287	276.2672	321.8331	376.3416	416.2417	473.1677	554.4063	629.1746	735.3873	788.5754	827.5973	898.1107	934.153	956.5671	983.7184	985.8564	1021.061	1046.8637	1083.6283	1119.5613	1146.2424	1155.5875	1184.316	1206.4216	1219.161	1227.1377	1230.7496	1243.1833	1271.7598	1296.2113	1320.1324	1344.9017	1410.0554	1471.5057	1481.7359	1484.6562	1485.8185	1504.1515	1512.4391	1527.0351	2954.0281	2967.6257	2995.1911	3007.422	3047.9222	3056.0568	3100.279	3109.9656	3119.7135	3134.2821	3184.2571	3797.0414
COCC1C2CCC12O	COC[C@H]1[C@H]2CC[C@@]12O	
InChI=1S/C7H12O2/c1-9-4-6-5-2-3-7(5,6)8/h5-6,8H,2-4H2,1H3	InChI=1S/C7H12O2/c1-9-4-6-5-2-3-7(5,6)8/h5-6,8H,2-4H2,1H3/t5-,6+,7+/m1/s1
