21
gdb 111807	2.84512	1.39953	1.33903	1.0628	77.31	-0.2326	0.079	0.3116	1092.694	0.184788	-424.226189	-424.218137	-424.217193	-424.25881	31.351	
C	-0.0166066371	 1.3506948274	 0.0948228201	-0.24249
O	-0.0223469827	-0.0393439675	-0.1492252726	-0.258159
C	-1.2914283812	-0.6305533688	-0.0264966071	 0.14586
C	-1.2494482155	-2.1316345127	-0.3662421385	-0.0879
C	-0.3012240976	-2.6797256116	 0.7282018031	-0.209605
C	-0.6911811898	-1.8262035217	 1.9791076245	-0.213128
C	-1.7892034712	-0.9088324821	 1.4132723919	 0.071732
O	-2.9702619909	-1.6812395455	 1.1712783517	-0.283113
C	-2.6864208887	-2.5066441402	 0.0186171313	-0.078152
H	 1.0002057908	 1.7061698143	-0.0881616625	 0.12826
H	-0.7054949147	 1.8817015672	-0.5799696423	 0.108114
H	-0.2940049096	 1.5948778448	 1.1306115778	 0.109817
H	-2.0416492652	-0.0761128505	-0.6096152086	 0.065695
H	-0.9757722456	-2.3851989276	-1.3908477422	 0.070074
H	-0.4490920922	-3.7518349188	 0.8851783238	 0.093531
H	 0.7417363467	-2.5190259332	 0.4498861026	 0.111239
H	-1.088452152	-2.425483126	 2.8013236823	 0.10327
H	 0.1577265691	-1.2477775575	 2.3529811561	 0.10196
H	-2.0663820635	-0.0558829597	 2.0338822086	 0.069051
H	-3.4111830735	-2.2800031228	-0.7743769056	 0.096354
H	-2.7889649755	-3.5656485077	 0.2864299259	 0.097592
83.2311	171.7447	182.9622	196.4999	279.9949	334.0837	398.7679	446.4834	531.6311	603.6123	769.6075	777.89	842.9121	856.4279	877.3145	900.6095	941.4626	959.6569	975.508	1021.437	1027.6161	1048.9338	1066.4149	1092.3124	1155.1905	1166.6194	1176.8262	1185.2407	1205.8897	1225.8203	1246.4493	1261.5947	1281.6002	1298.9399	1312.3149	1337.8743	1350.0426	1372.6337	1405.089	1470.7274	1482.7417	1490.4565	1495.6001	1508.7198	1531.1123	2980.0225	2999.6673	3008.6836	3029.7851	3044.5589	3059.8369	3067.8228	3105.3306	3111.7774	3115.7653	3116.6857	3123.9396
COC1C2CCC1OC2	CO[C@H]1[C@H]2CC[C@@H]1OC2	
InChI=1S/C7H12O2/c1-8-7-5-2-3-6(7)9-4-5/h5-7H,2-4H2,1H3	InChI=1S/C7H12O2/c1-8-7-5-2-3-6(7)9-4-5/h5-7H,2-4H2,1H3/t5-,6-,7-/m0/s1
