14
gdb 25846	3.9611	1.29801	0.97764	3.6815	71.56	-0.2475	-0.0693	0.1782	1114.7585	0.103718	-432.951692	-432.944348	-432.943404	-432.983823	27.28	
N	-0.0753685031	 1.3228038865	 0.008758501	-0.538332
C	 0.0544325599	-0.0249925887	 0.0030740763	 0.355704
O	 1.1166493118	-0.6222281585	-0.0073679482	-0.35959
C	-1.2608684104	-0.7647442914	 0.0110796827	 0.209615
C	-1.2634805491	-2.1614540617	 0.0070206899	-0.019906
N	-2.3964688462	-2.8648966384	 0.013684336	-0.243172
C	-3.5278455195	-2.1568059636	 0.0244339217	-0.002881
C	-3.5310043839	-0.762745858	 0.0285069242	-0.025308
N	-2.3980961422	-0.0618982846	 0.0218559075	-0.317592
H	 0.7519351064	 1.8940059429	 0.00287095	 0.265194
H	-0.9939804284	 1.7345221562	 0.0162229638	 0.274207
H	-0.3220791976	-2.6995194815	-0.001796512	 0.15249
H	-4.4610426873	-2.7137947557	 0.0299823745	 0.125866
H	-4.4629526605	-0.2040072437	 0.0372694727	 0.123706
77.5663	156.2542	215.0401	279.5908	378.4061	394.7769	457.0252	495.2456	609.1518	631.4624	648.9503	747.5159	805.3781	807.4392	894.5181	993.1103	1008.58	1037.4238	1073.4329	1092.4321	1186.4761	1196.3654	1244.6726	1315.9771	1374.1901	1439.9536	1501.6873	1580.0234	1591.2242	1616.6351	1791.7449	3160.0104	3178.1374	3205.2014	3598.8404	3742.637
NC(=O)C1=CN=CC=N1	NC(=O)c1cnccn1	
InChI=1S/C5H5N3O/c6-5(9)4-3-7-1-2-8-4/h1-3H,(H2,6,9)	InChI=1S/C5H5N3O/c6-5(9)4-3-7-1-2-8-4/h1-3H,(H2,6,9)
