18
gdb 13071	4.01882	1.15786	0.98964	1.8907	76.65	-0.245	0.046	0.2911	1227.6668	0.152001	-347.766873	-347.757638	-347.756694	-347.80284	31.488	
C	 0.1405044843	 1.5668235621	-0.0941597758	-0.497411
C	 0.1049798348	 0.112821058	-0.0266256347	 0.038147
C	 0.0803070269	-1.0908986496	 0.0257108572	 0.113712
C	 0.0507253172	-2.5362447551	 0.1043206758	-0.259859
C	-0.0330175059	-3.1833815706	 1.5147556548	-0.071967
O	-1.2592885391	-3.8587494034	 1.1922042606	-0.288111
C	-1.3074467966	-3.2833602447	-0.1343095412	 0.159738
C	-2.5586565716	-2.4648014978	-0.3681641298	-0.397947
H	 0.9483782475	 1.9165724626	-0.7464194002	 0.148363
H	-0.7997118017	 1.9696207689	-0.4868782193	 0.149131
H	 0.2999821869	 2.0076203683	 0.8961960521	 0.148934
H	 0.8565053088	-2.9628653883	-0.4995149757	 0.103516
H	 0.776469379	-3.8829657766	 1.7556883518	 0.101537
H	-0.1544137587	-2.4711814528	 2.3387000604	 0.107457
H	-1.2203787779	-4.0712077854	-0.8945696535	 0.075961
H	-2.634708108	-1.6481333797	 0.3542471545	 0.127622
H	-2.5536294818	-2.0362511576	-1.3758299914	 0.117816
H	-3.4407235241	-3.1051316781	-0.2688649655	 0.12336
21.2213	41.5621	90.9405	136.0801	215.4103	249.3064	303.4959	353.0096	415.0172	469.8345	536.0762	708.0581	756.6395	878.2997	886.5999	938.0123	1006.6539	1045.5564	1051.7062	1053.1228	1074.6928	1094.294	1144.3158	1165.0799	1202.5728	1226.2547	1283.8383	1351.9205	1358.8833	1384.7931	1409.9841	1415.2879	1478.0863	1478.6937	1482.07	1486.7969	1526.4301	2366.3112	3006.7387	3019.4587	3026.4988	3039.6525	3058.1213	3073.2982	3086.9654	3087.3387	3109.9982	3125.6808
CC#CC1COC1C	CC#C[C@H]1CO[C@H]1C	
InChI=1S/C7H10O/c1-3-4-7-5-8-6(7)2/h6-7H,5H2,1-2H3	InChI=1S/C7H10O/c1-3-4-7-5-8-6(7)2/h6-7H,5H2,1-2H3/t6-,7-/m0/s1
