16
gdb 49414	3.17403	1.7024	1.45003	1.5886	71.35	-0.2195	-0.0283	0.1913	914.7534	0.125208	-400.706631	-400.699767	-400.698823	-400.738161	26.741	
O	-0.6349681414	 0.7457406899	 0.635787101	-0.252158
C	 0.0791970986	 1.0409691559	-0.2886816472	 0.142008
C	 1.2487518528	 1.9863151833	-0.2079975698	-0.08707
C	 1.4436538618	 3.0910991348	-1.2428862291	-0.097629
C	 0.72373956	 4.3765329125	-0.9116275917	-0.063463
C	-0.4076289109	 4.3661043964	 0.0569658362	-0.083938
C	-0.0316122175	 3.679885391	 1.1366625966	-0.068884
C	 1.3425131577	 3.1173513053	 0.8739116625	-0.08249
N	 1.9686749028	 4.0338415348	-0.190783152	-0.128438
H	-0.0812043179	 0.6008102731	-1.3019464875	 0.075996
H	 2.1666232878	 1.3849312864	-0.1909558365	 0.122953
H	 1.9503153408	 2.9621476695	-2.19473288	 0.101403
H	 0.8218249071	 5.1737274172	-1.6425507625	 0.098298
H	-1.3672798471	 4.8278846475	-0.132204112	 0.110567
H	-0.6344701481	 3.4210743114	 1.9956158649	 0.123405
H	 1.9823209835	 2.9316228611	 1.7341632174	 0.08944
83.2706	165.1356	179.7561	362.5114	435.1525	516.0958	659.7509	677.963	721.5768	737.5747	771.8298	800.8254	816.2567	858.5994	908.2302	933.9553	969.7235	980.923	1026.0078	1035.242	1063.9344	1083.7064	1111.9116	1126.6805	1154.634	1173.8369	1233.7309	1280.7735	1324.8472	1338.2648	1351.0966	1380.5334	1419.3801	1657.465	1824.7454	2845.9889	3037.4355	3132.9717	3150.5653	3161.7621	3219.8273	3245.6269
O=CC1C2C3C=CC1N23	O=C[C@H]1[C@H]2[C@H]3C=C[C@@H]1N23	
InChI=1S/C7H7NO/c9-3-4-5-1-2-6-7(4)8(5)6/h1-7H	InChI=1S/C7H7NO/c9-3-4-5-1-2-6-7(4)8(5)6/h1-7H/t4-,5+,6-,7+,8?/m1/s1
