15
gdb 66299	2.09687	1.74472	1.4558	1.8934	61.35	-0.2631	-0.0564	0.2067	972.49	0.110497	-494.942667	-494.93414	-494.933196	-494.976218	29.859	
C	-0.1724497881	 1.7084104452	 0.1278673549	-0.441637
C	 0.0772165098	 0.2122586484	-0.0326800349	 0.101489
O	 1.0091342347	-0.0488456936	-1.0626765969	-0.260906
C	 1.7690872195	-1.1622543908	-0.6632484339	 0.016395
O	 1.7576678854	-1.1839068719	 0.7701744554	-0.223742
C	 0.7470105625	-0.4011120806	 1.211383676	 0.416603
O	 0.4540894911	-0.2470243397	 2.3589585873	-0.334456
C	-1.2427297381	-0.5465818477	-0.2646561988	 0.138305
O	-1.3834507746	-1.3698197522	-1.1261883724	-0.238132
H	 0.778234863	 2.230052128	 0.2559571071	 0.146586
H	-0.6786198559	 2.110675199	-0.7535539615	 0.142379
H	-0.7901027904	 1.8844538067	 1.0117933361	 0.152924
H	 1.3395954205	-2.1026157841	-1.028398685	 0.137622
H	 2.7994675024	-1.0379352195	-1.004195101	 0.138879
H	-2.0545311018	-0.2757407873	 0.4438145175	 0.107691
82.0126	102.4927	174.2153	190.013	201.4957	263.1828	273.228	348.4985	492.0673	590.5985	636.051	719.5367	754.0876	788.5949	869.9319	914.444	995.3385	1011.3237	1068.7253	1137.1312	1149.1615	1171.6972	1214.1381	1227.8766	1253.7927	1393.7513	1406.7167	1439.7328	1479.4165	1494.8168	1540.4704	1835.8555	1889.8617	2909.8347	3037.5377	3054.6592	3112.9017	3134.6278	3142.5636
CC1(OCOC1=O)C=O	C[C@]1(OCOC1=O)C=O	
InChI=1S/C5H6O4/c1-5(2-6)4(7)8-3-9-5/h2H,3H2,1H3	InChI=1S/C5H6O4/c1-5(2-6)4(7)8-3-9-5/h2H,3H2,1H3/t5-/m0/s1
