21
gdb 87458	2.80917	1.35444	1.22099	1.6962	83.63	-0.2482	0.097	0.3452	1161.9481	0.181379	-387.031862	-387.023102	-387.022158	-387.064808	34.158	
C	 0.0101474447	 1.5366419031	-0.128945753	-0.413029
C	-0.0293957165	 0.0418464286	 0.0539828062	-0.093173
O	 1.248900747	-0.6529979399	-0.05150715	-0.333063
C	 0.578629164	-0.6408969917	 1.1861219526	 0.525825
C	 1.144343965	-0.246833129	 2.5566689582	-0.156082
C	-0.185578634	-0.81234047	 3.1405392253	-0.259543
C	 0.2412102553	-1.8636607783	 2.0618199587	 0.220604
C	-0.4616861207	-3.1291027394	 1.6563554167	-0.517765
C	 1.698615861	-1.7045086745	 2.6237281351	-0.264059
H	 0.8255797402	 1.9777867683	 0.4496121831	 0.126149
H	 0.1575006811	 1.7926919062	-1.1834448701	 0.1288
H	-0.9339190555	 1.9873732154	 0.1966444066	 0.120492
H	-0.8324504565	-0.4699225149	-0.4802101226	 0.089315
H	 1.6568837238	 0.6713265485	 2.8403083363	 0.077554
H	-0.1360281319	-1.1552240876	 4.1772067413	 0.092549
H	-1.1001070301	-0.2447343128	 2.9464964457	 0.089763
H	-1.489093607	-2.9245618317	 1.3351963841	 0.118095
H	 0.0616066236	-3.6112326411	 0.8237947258	 0.130736
H	-0.50614843	-3.8421442712	 2.4863032109	 0.120413
H	 2.5156718924	-1.9521170808	 1.9429551861	 0.109537
H	 1.8669280743	-2.1056753773	 3.627342003	 0.086883
136.0265	146.8534	174.7577	191.3392	210.3984	258.2359	322.8957	447.7231	456.0545	490.8325	611.3808	622.3322	655.4316	784.9886	799.3387	807.4814	896.4272	909.5859	953.0701	962.2944	1010.9844	1014.2241	1020.2468	1044.1905	1079.7214	1087.121	1104.4829	1126.8414	1177.581	1179.8398	1185.6132	1219.0893	1223.9596	1227.8224	1334.2317	1355.5667	1409.6144	1410.2619	1476.406	1488.4464	1489.4057	1491.4258	1493.0933	1518.7003	1568.5278	3028.3424	3035.323	3049.4375	3054.2197	3086.5393	3094.5344	3098.0634	3099.9522	3116.2421	3124.317	3126.761	3127.6064
CC1OC11C2CC1(C)C2	C[C@H]1O[C@]21[C@H]1C[C@]2(C)C1	
InChI=1S/C8H12O/c1-5-8(9-5)6-3-7(8,2)4-6/h5-6H,3-4H2,1-2H3	InChI=1S/C8H12O/c1-5-8(9-5)6-3-7(8,2)4-6/h5-6H,3-4H2,1-2H3/t5-,6-,7+,8-/m1/s1
