20
gdb 105544	2.58677	1.41042	1.13472	2.2494	73.61	-0.2444	0.0608	0.3052	1144.7004	0.17149	-440.233924	-440.225071	-440.224127	-440.267646	33.244	
O	 0.3366568737	 1.2394783872	-0.0425118212	-0.426725
C	 0.1157089908	-0.1452005441	 0.1261980327	-0.112725
C	-1.3757739344	-0.4826533632	 0.1369425999	 0.363449
C	-2.2497885046	 0.3650959062	 1.0970843766	-0.317625
C	-2.908424846	 0.9007502063	-0.1847033856	-0.076369
O	-2.0081492174	 0.1349901617	-1.0279949306	-0.342776
C	-1.5997050342	-1.9781023908	 0.1605143659	-0.041358
C	-2.8358502498	-2.5809375145	-0.3887926493	-0.250514
N	-1.5517121378	-2.7338699758	-1.1007958345	-0.328152
H	-0.1352015837	 1.475885864	-0.850756201	 0.288641
H	 0.6086949408	-0.7335844071	-0.6638000143	 0.103545
H	 0.5643101914	-0.4310126431	 1.0841248476	 0.113322
H	-2.8952899281	-0.2064528984	 1.7645630282	 0.111979
H	-1.6871892633	 1.1115263051	 1.6576039653	 0.127726
H	-3.9515900043	 0.6054379375	-0.3430423856	 0.108758
H	-2.8076472005	 1.9757851524	-0.3663875444	 0.110986
H	-1.1058115071	-2.4794713787	 0.9924691938	 0.09123
H	-3.2316231326	-3.4936150393	 0.0472684791	 0.116775
H	-3.5767594706	-1.9164090348	-0.8225870182	 0.118334
H	-1.5442911121	-2.0610337807	-1.8668208846	 0.241499
87.5306	106.3446	133.4355	176.0996	230.647	274.7358	320.7198	405.326	448.2239	487.3371	610.0367	655.4984	774.9537	839.3423	856.8314	868.0753	888.2382	938.9635	968.161	981.5334	998.4393	1013.7633	1068.2535	1086.2582	1121.1867	1149.6503	1162.2575	1185.7102	1191.9776	1219.8567	1230.7715	1249.3269	1271.9287	1284.3845	1310.6497	1349.2752	1383.0925	1424.7695	1427.679	1478.3765	1492.2739	1499.7281	1524.2518	2985.2031	3030.8327	3072.0382	3076.8377	3090.2584	3111.079	3117.374	3152.4248	3204.3988	3476.6323	3782.2369
OCC1(CCO1)C1CN1	OC[C@]1(CCO1)[C@H]1CN1	
InChI=1S/C6H11NO2/c8-4-6(1-2-9-6)5-3-7-5/h5,7-8H,1-4H2	InChI=1S/C6H11NO2/c8-4-6(1-2-9-6)5-3-7-5/h5,7-8H,1-4H2/t5-,6-/m1/s1
