19
gdb 117308	4.3356	0.7516	0.64833	4.4054	76.72	-0.2465	0.0082	0.2547	1747.7509	0.157407	-456.398112	-456.387561	-456.386617	-456.435719	35.944	
C	-0.3858239788	 1.5460642787	-0.0883474299	-0.392786
C	-0.0589915983	 0.0678441914	 0.001707651	-0.033999
O	-1.3028593172	-0.6543187107	-0.0223761019	-0.285808
C	-1.1795477696	-2.0076058666	 0.0583391772	 0.534546
O	-0.1396921569	-2.5985925681	 0.1442242459	-0.359898
N	-2.461048135	-2.5359589438	 0.0216338616	-0.403287
C	-2.8585776217	-3.876189715	 0.0745419267	 0.359674
C	-4.3678210968	-4.0074943875	 0.003680743	-0.48415
N	-2.0145980682	-4.8199791611	 0.1700450571	-0.454317
H	 0.5385332348	 2.1309467958	-0.0733005162	 0.124572
H	-0.9215476218	 1.7732013542	-1.0145378244	 0.127301
H	-1.0066174888	 1.8620660973	 0.7549579353	 0.127328
H	 0.5627762842	-0.264992403	-0.8354623772	 0.123731
H	 0.4776209635	-0.1769179755	 0.9237770217	 0.124078
H	-3.1888807518	-1.8441603779	-0.0541034207	 0.256507
H	-4.8461597954	-3.4792088991	 0.8363631958	 0.141355
H	-4.7549567357	-3.5765975359	-0.9267680401	 0.141366
H	-4.6606507537	-5.0572492745	 0.0464454818	 0.137479
H	-2.5023843427	-5.7141513188	 0.1938830334	 0.216309
25.1821	55.8694	74.7062	118.8545	136.0546	150.091	241.024	260.0052	331.7382	374.5937	431.8357	535.5904	561.337	581.6861	765.2594	774.0058	807.4506	864.1925	872.3928	957.7426	969.5165	1047.2072	1066.4983	1085.3758	1136.1769	1161.9491	1185.3843	1210.4197	1291.2546	1343.426	1395.0219	1405.8735	1420.9078	1479.1582	1481.9183	1486.1189	1497.2223	1521.3934	1552.1019	1736.9491	1861.9197	3032.9553	3045.3411	3050.9955	3088.0608	3092.1455	3120.6015	3123.983	3142.1738	3492.8038	3649.2488
CCOC(=O)NC(C)=N	CCOC(=O)NC(=N)C	
InChI=1S/C5H10N2O2/c1-3-9-5(8)7-4(2)6/h3H2,1-2H3,(H2,6,7,8)	InChI=1S/C5H10N2O2/c1-3-9-5(8)7-4(2)6/h3H2,1-2H3,(H2,6,7,8)
