20
gdb 101881	1.89783	1.40654	1.06039	3.6574	75.5	-0.2627	0.0201	0.2828	1249.5423	0.168186	-440.273141	-440.262559	-440.261614	-440.30965	36.568	
C	 0.6841409548	 0.2709421056	-0.3482901373	-0.236676
O	 0.0502517194	-0.825441058	 0.2743726343	-0.252846
C	-1.354380081	-0.9186866713	 0.0790495531	 0.128258
C	-1.7672657914	-1.0912019246	-1.3847757257	-0.410386
C	-1.8163483029	-2.0785303764	 0.9615189713	-0.093903
O	-1.4511130604	-3.3713124093	 0.4950230559	-0.238003
C	-0.1066857977	-3.7495799865	 0.6885888299	-0.186887
C	 0.7139987964	-3.6059938431	-0.5291744026	 0.282699
N	 1.356375456	-3.5446300195	-1.4876096484	-0.327568
H	 1.7082315349	 0.3024468817	 0.0309040509	 0.131581
H	 0.7213577246	 0.169167268	-1.4401561694	 0.125331
H	 0.1831524458	 1.2189425948	-0.097435259	 0.102087
H	-1.8326216747	-0.0061620651	 0.4811278317	 0.067227
H	-2.8528846514	-1.2150545204	-1.4504461071	 0.117033
H	-1.4994326403	-0.2151991678	-1.9805007275	 0.118989
H	-1.2915380276	-1.970588241	-1.8235977265	 0.153859
H	-1.4329760367	-1.921153581	 1.9798198617	 0.103914
H	-2.9096819618	-2.0896010119	 1.0000130719	 0.115249
H	 0.3679207404	-3.1777301006	 1.4944205519	 0.150397
H	-0.1005103664	-4.8100764336	 0.9680563009	 0.149644
46.0843	66.031	97.8924	111.6404	181.7267	189.859	240.8516	275.0204	288.6103	354.9043	367.5994	425.9323	463.2921	574.4504	660.7817	787.6681	889.2088	905.499	923.9056	957.134	1029.8477	1054.1089	1109.7551	1137.2802	1144.1738	1178.0807	1184.926	1228.5769	1292.6997	1329.7871	1364.1842	1376.5768	1393.9242	1403.0313	1421.3833	1461.2855	1475.6701	1479.6127	1485.8547	1489.8447	1505.6439	1510.7135	2358.2578	2933.2871	2983.3294	3008.0196	3030.3363	3048.2121	3054.1702	3075.601	3092.4496	3115.5683	3118.5865	3142.2489
COC(C)COCC#N	CO[C@@H](C)COCC#N	
InChI=1S/C6H11NO2/c1-6(8-2)5-9-4-3-7/h6H,4-5H2,1-2H3	InChI=1S/C6H11NO2/c1-6(8-2)5-9-4-3-7/h6H,4-5H2,1-2H3/t6-/m0/s1
