14
gdb 49680	2.41258	1.87596	1.63473	5.9389	62.5	-0.2757	-0.0628	0.2128	877.1674	0.101088	-473.836048	-473.828796	-473.827851	-473.868088	26.352	
O	-0.4122045181	 0.4754580334	 0.6591536294	-0.246086
C	 0.0536039426	 1.1951545521	-0.189456315	 0.14226
C	 1.2789597273	 2.0294201497	-0.0236864078	-0.112814
C	 1.4888452372	 2.8550121277	 1.2232704117	-0.069813
C	 0.7244615414	 2.5273236864	 2.5020503008	-0.103598
O	 1.2530975786	 1.2695448042	 2.9254272	-0.220591
C	 2.0441170834	 0.7262306388	 1.962798347	 0.491175
O	 2.4980342257	-0.3704770424	 2.0054698798	-0.33528
N	 2.3503429764	 1.7214222482	 0.9528593995	-0.17843
H	-0.4285159653	 1.3072232982	-1.1836811144	 0.105061
H	 1.6678481746	 2.4376379215	-0.9532316221	 0.122107
H	 1.9149531595	 3.8471555677	 1.1102201175	 0.127429
H	 0.9291021951	 3.2713390737	 3.2760741771	 0.135166
H	-0.3564312182	 2.4286820308	 2.3679755566	 0.143416
104.496	129.5718	191.1235	208.7716	302.5976	394.8303	502.8656	672.7144	690.7288	741.8876	766.827	813.3286	844.5349	872.9011	939.1747	978.9617	1027.8495	1055.4671	1066.9403	1088.3254	1122.2593	1148.5153	1230.1942	1281.7843	1359.1389	1381.5512	1402.5984	1423.6783	1509.7722	1812.5377	1917.4809	2910.8166	3061.9513	3109.0669	3146.3301	3161.1077
O=CC1C2COC(=O)N12	O=C[C@H]1[C@H]2COC(=O)N12	
InChI=1S/C5H5NO3/c7-1-3-4-2-9-5(8)6(3)4/h1,3-4H,2H2	InChI=1S/C5H5NO3/c7-1-3-4-2-9-5(8)6(3)4/h1,3-4H,2H2/t3-,4+,6?/m0/s1
