17
gdb 17456	3.53142	2.10579	1.67329	1.7877	67.07	-0.2255	0.0669	0.2925	826.1509	0.141067	-363.782606	-363.775221	-363.774277	-363.81377	28.479	
C	-0.1691469629	 1.4808082956	-0.1471942989	-0.315471
N	 0.0910880222	 0.0559547465	 0.0113934817	-0.079481
C	 1.4067768353	-0.5270194697	-0.1615679842	-0.081872
C	 2.5243614853	 0.3220742235	 0.4298899268	-0.073883
O	 3.0787294827	-0.3896304928	 1.5502753022	-0.286768
C	 1.8553832856	 0.3452721326	 1.7494437438	 0.400332
C	 1.8256954102	 1.3625957667	 2.8447552993	-0.500182
C	 0.7164242956	-0.5130006849	 1.1906655177	-0.132362
H	 0.6267111878	 2.1428410172	 0.2181425746	 0.109625
H	-0.3248885593	 1.6872692373	-1.2107919775	 0.125227
H	-1.0950749909	 1.7272772008	 0.3820223654	 0.124371
H	 1.5273739244	-1.3600906828	-0.8444331968	 0.105907
H	 3.1571907968	 1.067014125	-0.0382121755	 0.105564
H	 2.7561339249	 1.9361434405	 2.8577447723	 0.135487
H	 0.9849211935	 2.0515584715	 2.718993317	 0.128101
H	 1.7152831974	 0.8754537781	 3.8199947918	 0.133986
H	 0.2224831314	-1.3334599052	 1.6994891303	 0.101418
164.9236	180.8169	209.1772	217.9715	310.6885	355.9114	456.6377	510.6482	620.9436	649.1771	751.4783	770.652	857.1446	870.7547	903.909	928.8284	969.3519	996.7203	1032.9103	1052.5578	1071.645	1100.8852	1156.942	1179.8377	1192.0356	1246.1142	1263.8625	1283.3648	1347.9602	1402.2989	1443.7041	1450.8127	1482.8917	1490.1792	1491.5118	1506.6052	3011.6315	3037.2601	3078.416	3099.1904	3103.8584	3123.4242	3172.6608	3182.2986	3190.8727
CN1C2C3OC3(C)C12	CN1[C@H]2[C@@H]3O[C@]3(C)[C@@H]12	
InChI=1S/C6H9NO/c1-6-4-3(7(4)2)5(6)8-6/h3-5H,1-2H3	InChI=1S/C6H9NO/c1-6-4-3(7(4)2)5(6)8-6/h3-5H,1-2H3/t3-,4+,5+,6-,7?/m1/s1
