17
gdb 77267	2.68792	1.05001	0.97594	3.4333	74.03	-0.2566	-0.0396	0.2171	1267.6772	0.133586	-417.990927	-417.981419	-417.980475	-418.026558	32.811	
C	-1.7913298097	 0.8220587626	-0.6792296557	-0.336222
N	-0.827154921	-0.2600333681	-0.4895248605	-0.088882
C	 0.3618084152	-0.3599438328	-1.3176959896	-0.016252
C	 0.6997660701	 0.6169473977	-2.4313561544	-0.321934
C	-0.0358385228	 0.2638623907	-3.7121989064	 0.166045
O	-0.7213723708	 1.0288806245	-4.3366630008	-0.228422
C	 0.4710272055	 0.0226808739	 0.1367890669	-0.185192
C	 0.8506165202	 1.371936673	 0.4791468124	 0.298098
N	 1.1447615788	 2.4519452828	 0.7721053177	-0.337815
H	-1.3506263481	 1.8130694957	-0.8436109568	 0.137985
H	-2.4227156797	 0.5728581422	-1.5358675693	 0.145515
H	-2.4226815333	 0.8742690254	 0.2116906899	 0.141903
H	 0.6285534862	-1.3916662618	-1.5483505924	 0.113933
H	 0.4881299731	 1.654868592	-2.1720129717	 0.149577
H	 1.7767800993	 0.533803229	-2.6362229237	 0.139632
H	 0.1067882917	-0.7891563264	-4.0498334459	 0.081316
H	 0.8021203854	-0.7169798104	 0.8615501203	 0.140716
46.7112	55.456	106.7024	148.7882	163.4612	229.8045	276.9063	353.6508	375.7491	468.923	526.3179	601.9631	629.0684	728.5027	746.443	845.7409	881.5778	1002.0597	1036.4591	1042.015	1094.2861	1130.6635	1146.1607	1168.5263	1176.875	1211.7775	1284.6806	1333.3643	1363.5635	1419.3535	1429.5292	1453.3321	1463.1668	1486.1069	1509.2322	1839.8034	2347.9778	2862.6721	3021.6387	3025.3811	3097.8728	3101.1356	3126.8873	3136.5931	3140.6362
CN1C(CC=O)C1C#N	CN1[C@@H](CC=O)[C@H]1C#N	
InChI=1S/C6H8N2O/c1-8-5(2-3-9)6(8)4-7/h3,5-6H,2H2,1H3	InChI=1S/C6H8N2O/c1-8-5(2-3-9)6(8)4-7/h3,5-6H,2H2,1H3/t5-,6+,8?/m0/s1
