23
gdb 121285	2.69483	0.99137	0.77699	1.5936	89.25	-0.224	0.0255	0.2495	1569.4968	0.204675	-388.311132	-388.301004	-388.30006	-388.346781	36.824	
C	-0.2306117318	 1.5343003903	-0.0203897338	-0.383326
C	-0.019652845	 0.0183668409	-0.0105159625	-0.161729
C	 0.7278644033	-0.490483979	-1.2474844514	-0.176082
C	 0.9137653054	-2.0127856765	-1.2504508891	 0.034885
O	-0.3617072532	-2.6612556859	-1.1999377547	-0.279492
C	-0.4918067051	-3.5902621971	-2.2722479337	-0.11497
C	 0.7778339652	-3.4560399772	-3.059393871	-0.209939
C	 1.5875854016	-2.5690744767	-2.4874149081	 0.314537
C	 2.9593671946	-2.1510950879	-2.9100807034	-0.498501
H	 0.7247415258	 2.0705844077	-0.0561242193	 0.108717
H	-0.8157872721	 1.8471843389	-0.8924815695	 0.112916
H	-0.7653273036	 1.8679717734	 0.8745696671	 0.110537
H	 0.5384693134	-0.2696497457	 0.8906463198	 0.089584
H	-0.9846939032	-0.4954193272	 0.0493265174	 0.117797
H	 0.1852034656	-0.2045899823	-2.1581231613	 0.092798
H	 1.7168944686	-0.0152282752	-1.3019676539	 0.087261
H	 1.4869166481	-2.2904081042	-0.3459830894	 0.069988
H	-0.6311042036	-4.6089186531	-1.8736859199	 0.099954
H	-1.3910463935	-3.3525043441	-2.862228285	 0.102
H	 0.9827779726	-4.0280898422	-3.956399873	 0.095847
H	 3.2894508866	-2.7028375997	-3.7939018247	 0.126204
H	 3.0004088907	-1.0806170509	-3.1441423893	 0.132933
H	 3.6888776995	-2.3238270164	-2.1085665312	 0.128081
61.7071	89.1764	106.1492	133.4	169.7869	238.9274	247.4913	259.2759	318.9838	357.0724	457.5216	562.5638	604.1734	743.5812	771.4307	806.1049	829.8936	899.9867	918.871	943.5456	948.2199	1016.1772	1045.2203	1045.8609	1059.9674	1062.3686	1111.512	1129.088	1143.1427	1196.9384	1210.1359	1257.7533	1273.0266	1299.8277	1325.0316	1354.2459	1369.8021	1384.8181	1396.1975	1413.2417	1415.9048	1473.0389	1481.4306	1489.7145	1494.0962	1500.0576	1510.3008	1524.4488	1734.1059	2921.5525	2963.9824	2983.1631	3009.4473	3019.2709	3022.0616	3026.9225	3050.6317	3069.4072	3073.491	3097.0173	3099.6111	3114.8283	3205.3984
CCCC1OCC=C1C	CCC[C@H]1OCC=C1C	
InChI=1S/C8H14O/c1-3-4-8-7(2)5-6-9-8/h5,8H,3-4,6H2,1-2H3	InChI=1S/C8H14O/c1-3-4-8-7(2)5-6-9-8/h5,8H,3-4,6H2,1-2H3/t8-/m1/s1
