16
gdb 33684	3.97667	1.48154	1.38429	1.9463	79.06	-0.2253	0.0267	0.252	958.1303	0.125229	-363.519521	-363.512909	-363.511965	-363.550263	27.563	
C	 0.0375933155	-1.1744939137	-0.0281630551	-0.32981
C	 0.0212463264	 0.0284742974	-0.0144468359	 0.039639
C	-0.0496690684	 1.4458286271	 0.010434147	 0.281062
C	-1.2009904733	 2.3117785679	 0.6197811331	-0.148189
C	-0.5062521099	 3.5993812946	 0.9879926472	-0.090567
C	 0.9857722401	 3.3377478956	 1.0647826781	-0.178016
N	 1.1671543749	 2.299033424	 0.0407319838	-0.160371
C	 0.184898805	 2.5041986969	-1.0297953831	-0.133753
C	-0.9598378636	 3.3686061066	-0.4367832949	-0.090063
H	 0.0663166898	-2.2356105036	-0.0430340876	 0.179728
H	-2.1237143559	 1.939913895	 1.0391784465	 0.101372
H	-1.0103827411	 4.3301982989	 1.6080668982	 0.096961
H	 1.5904597315	 4.2127386887	 0.8057935423	 0.112218
H	 1.3077684601	 2.9543065953	 2.0375923068	 0.11532
H	 0.4883009836	 2.4171288658	-2.0648979743	 0.107585
H	-1.6659505348	 3.9775692634	-0.9810672823	 0.096884
141.129	158.3108	390.8287	448.2474	486.7154	527.2207	590.6818	600.6142	658.6292	726.9713	753.6607	763.4097	782.7506	826.2775	842.9496	861.9419	900.022	945.3244	985.4098	995.5925	1008.0912	1026.2242	1049.8498	1055.0577	1088.4469	1129.9281	1211.4151	1219.7549	1229.1525	1256.752	1301.8477	1348.2927	1402.3869	1495.4081	2238.5125	3053.1763	3101.5898	3198.8537	3201.8093	3225.5156	3236.7483	3503.5817
C#CC12C3C4CN1C2C34	C#C[C@@]12[C@H]3[C@H]4CN1[C@@H]2[C@@H]34	
InChI=1S/C8H7N/c1-2-8-6-4-3-9(8)7(8)5(4)6/h1,4-7H,3H2	InChI=1S/C8H7N/c1-2-8-6-4-3-9(8)7(8)5(4)6/h1,4-7H,3H2/t4-,5+,6-,7+,8-,9?/m0/s1
