17
gdb 12029	3.76615	1.77065	1.56308	1.7884	73.89	-0.2354	0.042	0.2774	882.0598	0.140906	-326.64293	-326.635231	-326.634287	-326.674327	30.1	
C	-0.1356996738	 1.6016306861	 0.0128029611	-0.441902
C	 0.027650748	 0.0812893424	-0.0022625608	 0.111262
C	 1.1200461144	-0.5490041435	-0.938323746	-0.305703
C	 1.7533199318	-1.1191519214	 0.3251020993	 0.003317
C	 2.0881369317	-0.0501576416	 1.2793833533	-0.24379
N	 0.6905067759	-0.5296816732	 1.2368576457	-0.149819
C	-1.2724597339	-0.5539699876	-0.1819108063	 0.329896
C	-2.3477081211	-1.0621916299	-0.3550222612	-0.443933
H	 0.8253009359	 2.1159954698	 0.0866471565	 0.114822
H	-0.625233155	 1.9314150107	-0.9080848981	 0.131785
H	-0.7600500781	 1.901783311	 0.8590651582	 0.13902
H	 0.7057634351	-1.2987698159	-1.611377124	 0.125771
H	 1.7341758939	 0.1515659011	-1.5122226346	 0.103914
H	 2.0928234514	-2.1422634714	 0.4463870011	 0.096371
H	 2.5790506436	-0.3315254587	 2.2059268035	 0.124775
H	 2.3457753645	 0.9425923896	 0.9213821908	 0.110957
H	-3.2968647444	-1.5169414374	-0.4960618088	 0.193258
140.8626	164.2318	202.9937	252.4753	293.189	402.822	467.2947	495.3309	536.2931	620.1958	626.398	645.392	753.9372	765.9613	825.7035	854.044	909.3496	942.808	977.2898	1009.934	1061.7675	1103.603	1108.9697	1132.1423	1141.2677	1181.4366	1238.1846	1263.7398	1278.4165	1366.0731	1405.4031	1480.1013	1485.0764	1491.0552	1509.1762	2236.9497	3046.8229	3056.5827	3116.1406	3120.221	3128.0596	3139.1807	3168.152	3203.3173	3502.3511
CC1(CC2CN12)C#C	C[C@]1(C[C@H]2CN12)C#C	
InChI=1S/C7H9N/c1-3-7(2)4-6-5-8(6)7/h1,6H,4-5H2,2H3	InChI=1S/C7H9N/c1-3-7(2)4-6-5-8(6)7/h1,6H,4-5H2,2H3/t6-,7+,8?/m0/s1
