22
gdb 108332	2.51315	1.60316	1.27441	1.6597	84.46	-0.2175	0.0752	0.2927	1113.0709	0.195033	-367.146028	-367.137741	-367.136797	-367.178536	33.386	
C	 0.068753525	 1.4977990524	 0.2203980598	-0.384995
C	-0.109019493	 0.0124633085	-0.1174839499	-0.294493
C	 0.6948192268	-0.4814528308	-1.3079363727	 0.375148
C	 0.8467732289	-2.026409427	-1.4868844922	-0.309599
C	 2.3978108571	-1.8541596539	-1.5864315299	-0.239857
C	 2.2326130954	-0.3189612764	-1.4444907737	-0.015493
N	 2.1029370967	 0.5589800359	-2.681190001	-0.149954
C	 1.3871700766	-0.1889883366	-3.731739987	-0.257803
C	 0.5938439765	 0.3426639238	-2.6105666152	-0.07925
H	 1.1183489555	 1.7380563442	 0.4177816718	 0.123787
H	-0.2695893205	 2.1468414317	-0.5925801146	 0.122184
H	-0.5066318366	 1.76006354	 1.1133796079	 0.112463
H	 0.1666157558	-0.5894090853	 0.7583245315	 0.094425
H	-1.1728650451	-0.1973745509	-0.3017028336	 0.097261
H	 0.5271788466	-2.591001023	-0.6068715786	 0.098766
H	 0.3506584967	-2.4528721683	-2.3627966245	 0.098642
H	 2.9316917339	-2.2870529179	-0.736646593	 0.103082
H	 2.8812343655	-2.2109056123	-2.4995253691	 0.107774
H	 2.849192832	 0.1896711436	-0.7024293634	 0.076054
H	 1.3505371235	 0.3648834074	-4.6659091991	 0.118571
H	 1.5463288699	-1.2538510377	-3.8636636397	 0.115258
H	-0.094386227	 1.1722992924	-2.7484223939	 0.088027
94.5021	155.1184	191.1951	253.8952	279.9367	335.5693	376.512	423.9103	522.3444	593.538	673.5146	719.3153	733.2555	753.1189	788.907	861.319	903.385	908.2429	938.366	953.3278	967.4017	997.6097	1035.2209	1048.2518	1053.3605	1106.3896	1108.928	1142.3311	1150.1074	1174.8162	1197.9548	1212.9991	1227.1499	1243.8439	1267.5334	1278.6805	1309.9918	1319.4603	1370.9555	1383.74	1414.1743	1472.7201	1481.0542	1486.2725	1500.6695	1505.1668	1511.2767	3001.9438	3037.3223	3041.1908	3053.377	3060.9258	3093.5619	3099.2506	3107.6199	3110.9528	3115.3407	3120.8847	3139.8185	3200.1943
CCC12CCC1N1CC21	CC[C@]12CC[C@H]1N1C[C@@H]21	
InChI=1S/C8H13N/c1-2-8-4-3-6(8)9-5-7(8)9/h6-7H,2-5H2,1H3	InChI=1S/C8H13N/c1-2-8-4-3-6(8)9-5-7(8)9/h6-7H,2-5H2,1H3/t6-,7+,8+,9?/m1/s1
