16
gdb 28275	5.25149	1.2702	1.02937	3.2156	79.91	-0.1781	0.0205	0.1986	1119.0573	0.127267	-396.982955	-396.97536	-396.974415	-397.014774	29.385	
C	-0.020587136	 1.485267557	 0.033844158	-0.503839
C	-0.0023970597	-0.0051994963	-0.0364548567	 0.318331
N	-0.0448386893	-0.7069984395	-1.1398985386	-0.394494
C	-0.0043464516	-2.0291692998	-0.7137714398	 0.261613
C	-0.0080303999	-3.3249480652	-1.1932234187	-0.216043
N	 0.0576451846	-4.1364936086	-0.0834135814	-0.235167
C	 0.1035463373	-3.4151851753	 1.0999640838	-0.236715
C	 0.0648560329	-2.0983537986	 0.7081080269	 0.306038
N	 0.0637551465	-0.7775440029	 1.119130725	-0.466096
H	 0.884689217	 1.8779918136	 0.5118272352	 0.1303
H	-0.0805066802	 1.8834609335	-0.979192764	 0.157701
H	-0.880719128	 1.8520055213	 0.6063883472	 0.130074
H	-0.0496389027	-3.7375578958	-2.1867720099	 0.119899
H	 0.0712464706	-5.140059405	-0.1227856854	 0.25975
H	 0.1568342696	-3.9093379724	 2.0543802514	 0.11343
H	 0.105308829	-0.4231296958	 2.0577635772	 0.255217
102.826	148.7692	273.8656	286.5815	332.6855	357.6521	449.6904	526.374	578.1665	584.9651	609.961	666.1206	697.4159	749.8506	767.3547	826.1996	943.5849	970.6582	1019.304	1055.5564	1059.1677	1137.7381	1185.9725	1220.1907	1277.7935	1328.6659	1390.7524	1412.4959	1443.8446	1471.8328	1480.9791	1487.6597	1543.933	1602.1815	1682.3869	3028.6499	3077.3633	3153.9188	3275.698	3278.7579	3685.6899	3690.5109
CC1=NC2=CNC=C2N1	Cc1nc2c[nH]cc2[nH]1	
InChI=1S/C6H7N3/c1-4-8-5-2-7-3-6(5)9-4/h2-3,7H,1H3,(H,8,9)	InChI=1S/C6H7N3/c1-4-8-5-2-7-3-6(5)9-4/h2-3,7H,1H3,(H,8,9)
