19
gdb 73137	2.3947	1.81152	1.59953	0.8651	73.36	-0.2483	0.0728	0.3212	953.5636	0.160217	-423.007957	-423.00043	-422.999486	-423.039456	30.668	
O	-0.1011375451	 1.3382325457	 0.5014121966	-0.48078
C	 0.0200486411	 0.0294184741	-0.013064307	 0.374543
C	 0.2731888559	-0.1483815903	-1.5376043438	-0.286443
C	-0.8985143395	-1.1716658187	-1.5843146343	-0.228265
C	-1.3289500091	-0.7361815964	-0.1502036187	-0.036015
C	-1.4141068605	-1.7876022587	 0.9761984576	-0.272637
C	 0.0064601667	-1.9035855399	 1.4986504184	 0.060333
O	 0.9736433021	-2.2067588101	 0.4785015309	-0.259136
C	 0.8504899368	-0.848960448	 0.9154817041	-0.04149
H	 0.7617896049	 1.7647718786	 0.4502090408	 0.276925
H	 0.0424937594	 0.7788255512	-2.0685556708	 0.101695
H	 1.2595140626	-0.5060518618	-1.841276926	 0.101489
H	-1.639990485	-1.0170454802	-2.37101795	 0.093358
H	-0.5482745548	-2.2034313794	-1.6167093207	 0.117795
H	-2.1848593868	-0.0596434918	-0.1608129153	 0.082886
H	-2.068432555	-1.450259815	 1.7884249863	 0.107326
H	-1.7989908502	-2.7507247644	 0.6235171425	 0.110691
H	 0.2104050113	-2.3513280004	 2.4686821813	 0.093829
H	 1.7237519953	-0.4331998344	 1.417069098	 0.083897
145.8203	210.1763	237.4644	269.0592	354.5419	361.5561	412.7538	475.7628	577.8117	642.4295	715.0647	760.1837	788.9523	834.0489	863.5637	878.1639	887.405	946.1246	958.8383	1001.3427	1011.7158	1043.0721	1065.0305	1082.7665	1132.5549	1140.8899	1180.8535	1215.6098	1225.8848	1233.0209	1259.9852	1267.1757	1276.2496	1302.1443	1329.7463	1339.0628	1372.9486	1430.6811	1467.9627	1475.4312	1489.5261	3038.0864	3060.7986	3073.9369	3078.5931	3099.5582	3116.1039	3116.8135	3141.9776	3143.859	3793.9992
OC12CCC1CC1OC21	O[C@]12CC[C@H]1C[C@H]1O[C@@H]21	
InChI=1S/C7H10O2/c8-7-2-1-4(7)3-5-6(7)9-5/h4-6,8H,1-3H2	InChI=1S/C7H10O2/c8-7-2-1-4(7)3-5-6(7)9-5/h4-6,8H,1-3H2/t4-,5+,6+,7+/m0/s1
