25
gdb 100104	2.55265	0.94593	0.89184	3.2221	85.64	-0.2439	0.056	0.2999	1527.4657	0.225816	-426.641815	-426.630322	-426.629378	-426.677852	43.377	
C	-0.8632520818	 1.2298485949	 0.0769271145	-0.395345
C	-0.476679985	-0.2430669379	-0.0878669039	-0.187779
C	 0.5431346052	-0.5091969979	-1.2228137147	 0.35482
C	 0.0297951942	 0.0054879792	-2.572459487	-0.402964
O	 1.7466920318	 0.2171399634	-0.9715540789	-0.476937
C	 0.855095786	-2.021618995	-1.3604272908	-0.214231
C	 1.2674102247	-2.7605118476	-0.0854074528	 0.10469
C	 1.64196334	-4.2163034746	-0.3581069723	-0.402342
O	 2.3838713723	-2.0510846947	 0.4772561202	-0.434166
H	 0.0364648966	 1.8473235059	 0.1448878047	 0.132628
H	-1.462066113	 1.5939366127	-0.7632181553	 0.112526
H	-1.4524953584	 1.3772274406	 0.9874543606	 0.101177
H	-0.0318706667	-0.5903816448	 0.8519573029	 0.090731
H	-1.3744032889	-0.8539963055	-0.2539757559	 0.080205
H	-0.0388982009	 1.0954730163	-2.5616997992	 0.124276
H	 0.722943512	-0.2760665035	-3.3705132707	 0.112329
H	-0.9575546705	-0.4054472341	-2.806531895	 0.101654
H	 2.2179076281	-0.2683803412	-0.2807037664	 0.285686
H	-0.0218987975	-2.5366021681	-1.7707320562	 0.093764
H	 1.6620154709	-2.1212622353	-2.0967409798	 0.104501
H	 0.4315319702	-2.7394697394	 0.6290538815	 0.07579
H	 1.9474282823	-4.7208118472	 0.5660138103	 0.103697
H	 0.7915893608	-4.7682611675	-0.7711960785	 0.119653
H	 2.4725299572	-4.2713778173	-1.0685490258	 0.128525
H	 2.6110859403	-2.4528993111	 1.3212187183	 0.287114
55.7971	107.6729	132.4392	188.9054	207.9499	231.731	241.1869	266.1264	278.5803	303.4419	316.6793	368.2038	398.904	429.0802	465.3371	499.7853	541.1473	603.3984	731.8336	788.4955	839.7831	887.4217	921.5712	937.18	974.3398	1002.2143	1010.1378	1045.3224	1063.4852	1093.6044	1121.2147	1161.5034	1177.0751	1212.6898	1254.2119	1311.5073	1318.43	1333.724	1367.7771	1392.1555	1395.9337	1403.1927	1407.3862	1421.1107	1455.8385	1461.2901	1477.3907	1485.8001	1492.3169	1496.6862	1497.9955	1506.0353	1514.1254	2995.827	3014.4245	3025.6475	3030.0464	3040.0232	3043.16	3057.9429	3073.0593	3095.4143	3103.2393	3111.0078	3115.6159	3122.3207	3128.1765	3742.7043	3826.1312
CCC(C)(O)CC(C)O	CC[C@@](C)(O)C[C@@H](C)O	
InChI=1S/C7H16O2/c1-4-7(3,9)5-6(2)8/h6,8-9H,4-5H2,1-3H3	InChI=1S/C7H16O2/c1-4-7(3,9)5-6(2)8/h6,8-9H,4-5H2,1-3H3/t6-,7-/m1/s1
