16
gdb 22328	2.36823	1.40114	0.88993	3.5263	80.41	-0.2422	-0.0673	0.1748	1238.4256	0.123174	-437.896433	-437.887882	-437.886938	-437.929808	31.49	
C	-0.030687977	 1.4991563909	 0.1090705657	-0.496971
C	-0.007987061	 0.0106402216	 0.0025984704	 0.279477
C	-0.0190704311	-0.7454877277	-1.1177765868	-0.296117
C	 0.0118405523	-2.1871692577	-0.7944284044	 0.379473
O	 0.010743395	-3.1119245135	-1.5735410612	-0.326436
C	 0.0462169312	-2.3013131924	 0.7398296491	-0.439972
C	 0.0316224103	-0.8637998774	 1.1836556568	 0.324883
N	 0.0484155452	-0.3710346613	 2.3644999767	-0.226244
O	 0.0856373236	-1.3739245787	 3.3312066202	-0.374474
H	 0.8502921762	 1.8566917667	 0.6523852822	 0.151396
H	-0.0581987145	 1.9706040376	-0.8752582354	 0.13046
H	-0.9008567554	 1.8274491317	 0.6871857245	 0.151391
H	-0.0467110564	-0.3804305091	-2.1366608817	 0.119053
H	-0.8151909913	-2.8639882673	 1.1130059309	 0.15556
H	 0.9409444925	-2.834664641	 1.0758190343	 0.155559
H	 0.0947474803	-0.8733601623	 4.1549218085	 0.312961
100.4431	115.9546	176.9532	185.2883	226.2592	275.3432	394.6064	454.5708	502.7562	523.8461	560.3151	576.8085	619.2575	649.7906	819.3832	841.9695	878.4974	959.1809	1001.1104	1010.2332	1063.2757	1098.0182	1138.7123	1185.648	1230.4182	1253.5406	1353.0204	1409.4035	1419.4616	1438.4736	1471.2028	1477.5593	1645.0597	1723.6365	1813.9493	3042.8764	3065.397	3097.9709	3102.506	3134.2783	3221.1892	3809.0592
CC1=CC(=O)CC1=NO	CC1=CC(=O)CC1=NO	
InChI=1S/C6H7NO2/c1-4-2-5(8)3-6(4)7-9/h2,9H,3H2,1H3	InChI=1S/C6H7NO2/c1-4-2-5(8)3-6(4)7-9/h2,9H,3H2,1H3
