17
gdb 45148	2.9571	1.5452	1.20156	1.8637	72.87	-0.2378	-0.028	0.2098	1042.8509	0.134775	-421.791173	-421.783593	-421.782649	-421.823524	29.527	
O	 0.2024967252	 0.0558874952	-0.4441286362	-0.29707
C	 0.113153151	 1.1915964278	-0.082505505	 0.415653
C	-1.0214898938	 2.0359940467	 0.5413763946	-0.368655
C	-0.0525066397	 3.2443004126	 0.5531165994	 0.108377
O	 0.6926417867	 3.3470519359	 1.7837772102	-0.315153
C	 1.7772632603	 2.5952334832	 1.2274952673	 0.460536
C	 3.2002038664	 2.9581496641	 1.4920105753	-0.343776
C	 2.6095060993	 1.6645716093	 2.0414959013	-0.330974
C	 1.0745035509	 2.3931791013	-0.1170246579	-0.315516
H	-1.8564363854	 2.1477854086	-0.1596407288	 0.135025
H	-1.405592138	 1.7171793355	 1.5129034496	 0.141547
H	-0.4091032763	 4.2091025436	 0.1922124936	 0.093391
H	 3.9117788752	 2.9014770449	 0.6747694535	 0.120397
H	 3.3726520132	 3.7657670915	 2.1953786268	 0.129659
H	 2.4016396988	 1.6259931143	 3.1053053625	 0.130128
H	 2.9120421978	 0.7206844994	 1.6004453449	 0.132596
H	 1.6206230683	 2.6212812764	-1.0312449311	 0.103835
80.1281	98.0893	230.9866	300.9993	365.4185	433.4025	447.8005	485.5477	570.8296	666.7795	752.3336	786.3056	820.7537	849.3147	874.998	899.5724	935.3641	947.3698	981.8899	1011.203	1037.647	1050.2398	1054.8147	1070.0756	1112.1136	1156.3649	1177.7908	1186.1818	1198.6372	1235.5666	1256.9628	1328.3468	1376.2898	1416.1271	1447.8013	1495.5892	1893.7249	3053.0785	3111.8291	3123.5187	3129.6137	3129.983	3134.1983	3214.8945	3228.7357
O=C1CC2OC3(CC3)C12	O=C1C[C@H]2OC3(CC3)[C@@H]12	
InChI=1S/C7H8O2/c8-4-3-5-6(4)7(9-5)1-2-7/h5-6H,1-3H2	InChI=1S/C7H8O2/c8-4-3-5-6(4)7(9-5)1-2-7/h5-6H,1-3H2/t5-,6+/m1/s1
