17
gdb 20005	3.93582	1.24902	1.03551	3.2174	70.56	-0.2456	-0.0245	0.2211	1133.099	0.14164	-363.827535	-363.819624	-363.81868	-363.860684	28.829	
O	-0.3662767498	 0.4406142651	 0.7744105584	-0.261319
C	 0.2632188173	 0.7476879237	-0.207155652	 0.17904
C	 1.3830919887	 1.7269256181	-0.1963141522	-0.133672
N	 2.3409002191	 1.6203997761	-1.3189779406	-0.34078
C	 1.5058671808	 2.8094443609	-1.2407100982	-0.016474
C	 0.5126608555	 3.0471810456	-2.331362654	 0.02887
C	-0.4337779978	 4.2188267352	-2.2329613452	-0.266574
C	 0.6850839554	 4.2401436399	-3.2414465227	-0.272835
H	 0.051215819	 0.3064688836	-1.2052882358	 0.083192
H	 1.7480315194	 1.9682148338	 0.7992829293	 0.102696
H	 3.2860715205	 1.7979632741	-0.9916644718	 0.243613
H	 1.9655440939	 3.7234521007	-0.8612764491	 0.090979
H	 0.129390541	 2.1438113173	-2.7927988862	 0.095741
H	-1.4501971463	 4.0853193174	-2.585133333	 0.120312
H	-0.3478325138	 4.8663839137	-1.3663539296	 0.11561
H	 1.5245990254	 4.9022341395	-3.0547583402	 0.112363
H	 0.4415779218	 4.1191951453	-4.2907714473	 0.119237
48.9979	92.5924	170.9813	220.1563	298.215	314.9851	433.1333	464.1558	547.4995	747.8747	797.1882	825.0918	858.6727	899.7878	914.5112	950.827	986.4309	995.1634	1040.7426	1061.1815	1079.5841	1080.3944	1127.3874	1152.4317	1196.817	1207.0466	1222.4907	1225.3555	1268.6968	1336.6916	1366.2037	1429.2088	1469.8706	1481.4788	1509.2895	1821.5358	2899.1167	3092.5295	3131.4936	3136.1635	3145.5511	3171.5092	3210.7394	3225.9798	3517.1381
O=CC1NC1C1CC1	O=C[C@H]1N[C@H]1C1CC1	
InChI=1S/C6H9NO/c8-3-5-6(7-5)4-1-2-4/h3-7H,1-2H2	InChI=1S/C6H9NO/c8-3-5-6(7-5)4-1-2-4/h3-7H,1-2H2/t5-,6+/m1/s1
