16
gdb 28612	4.0483	1.1126	0.93748	0.8686	72.81	-0.2072	0.0244	0.2315	1228.5509	0.125734	-437.911398	-437.903796	-437.902852	-437.943997	28.846	
O	-0.1978127417	 1.219260569	-0.1906437346	-0.401057
C	 0.0372885242	-0.0856653265	-0.0586873081	 0.465823
N	 1.1476551559	-0.6869460596	 0.2013155645	-0.38081
C	 0.7762977798	-2.0380670165	 0.2157256554	-0.223474
C	-0.5462458603	-2.1598815801	-0.0392586899	 0.35412
O	-1.0392543412	-0.871174717	-0.2214073341	-0.209531
C	-1.4864145885	-3.2746778565	-0.1532286298	-0.106658
C	-2.9212086537	-3.1457982353	 0.3219244282	-0.267888
C	-2.6298190836	-3.2411689328	-1.1494319187	-0.267904
H	 0.6475619294	 1.6649275008	-0.0516694799	 0.322094
H	 1.494707199	-2.8181857884	 0.4094707771	 0.120879
H	-1.0067999174	-4.2347841779	 0.0039920384	 0.09896
H	-3.3624969837	-4.000603893	 0.8218881684	 0.117652
H	-3.2257429041	-2.1824438057	 0.71399248	 0.130061
H	-2.7389572787	-2.3417938664	-1.7441760618	 0.130083
H	-2.8691791955	-4.1620766542	-1.669074805	 0.117649
70.9934	140.5927	147.5571	285.8633	377.357	419.1382	442.509	480.6449	615.1835	675.8898	743.5534	744.3902	793.531	819.2386	829.9931	907.2363	907.9612	984.7593	1009.3078	1064.3992	1066.9698	1084.679	1122.8625	1132.3853	1202.7638	1207.7779	1224.4212	1248.6567	1283.0746	1385.6057	1465.3841	1482.1138	1506.1249	1661.4977	1665.3136	3139.2741	3142.6708	3170.7348	3223.2268	3238.3357	3267.0742	3809.5929
OC1=NC=C(O1)C1CC1	Oc1ncc(o1)C1CC1	
InChI=1S/C6H7NO2/c8-6-7-3-5(9-6)4-1-2-4/h3-4H,1-2H2,(H,7,8)	InChI=1S/C6H7NO2/c8-6-7-3-5(9-6)4-1-2-4/h3-4H,1-2H2,(H,7,8)
