18
gdb 124597	2.67803	1.33058	1.10418	3.7668	74.36	-0.2205	0.0029	0.2234	1168.0133	0.147416	-435.267164	-435.258305	-435.25736	-435.301946	32.442	
C	-0.0546539386	 1.5367572681	 0.0210285201	-0.390412
C	 0.0496673242	 0.0084084704	 0.0081281634	 0.033226
C	 0.6999998049	-0.5291669816	-1.2705462282	-0.390367
N	 0.7525815695	-0.4793126894	 1.1988821757	-0.108267
C	 2.0383559452	-0.2556609656	 1.5954652569	 0.063681
N	 2.3556100436	-0.8322464008	 2.7033564703	-0.146485
O	 1.1605473054	-1.5140134565	 3.0925877565	-0.251421
C	 0.177703463	-1.295453698	 2.1667820241	 0.493265
N	-1.0127082036	-1.7276416198	 2.1598656774	-0.612825
H	 0.9323857262	 2.0064799021	-0.0562310751	 0.116448
H	-0.6514820538	 1.8777436867	-0.8296762195	 0.129321
H	-0.5325440885	 1.8874750688	 0.9393720423	 0.13851
H	-0.9507705136	-0.4208570505	 0.1101861785	 0.143713
H	 1.7162713727	-0.1394039087	-1.3975922795	 0.116438
H	 0.7489416052	-1.6209820706	-1.2540210921	 0.138536
H	 0.1162777297	-0.2237587701	-2.1435711251	 0.129291
H	 2.7381245883	 0.3491989672	 1.0386644644	 0.163193
H	-1.1985420498	-2.3053826315	 2.9749356698	 0.234156
18.7721	99.9635	189.7721	220.2035	230.5416	261.2096	297.6127	421.4212	422.2212	540.0842	603.4491	622.6773	726.5113	744.1163	771.9044	874.7328	885.4813	891.5691	936.2998	936.7409	951.6557	1028.5952	1117.1537	1150.6725	1150.8841	1217.2836	1234.166	1288.5605	1364.0398	1389.344	1403.2127	1422.9385	1453.596	1483.449	1489.4847	1502.0537	1507.2147	1650.5036	1770.2678	3035.727	3038.7339	3082.821	3104.0528	3115.4573	3124.8487	3127.3738	3262.7749	3546.0275
CC(C)N1C=NOC1=N	CC(C)N1C=NO[C@H]1[NH]	
InChI=1S/C5H9N3O/c1-4(2)8-3-7-9-5(8)6/h3-4,6H,1-2H3	InChI=1S/C5H10N3O/c1-4(2)8-3-7-9-5(8)6/h3-6H,1-2H3/t5-/m0/s1
