19
gdb 76987	2.75984	1.39255	1.16804	1.3663	75.61	-0.2383	-0.0232	0.2151	1110.3694	0.157052	-423.001824	-422.992641	-422.991697	-423.035537	34.185	
C	-0.2241301345	 1.4766446136	-0.1455146201	-0.420821
C	 0.0878650323	-0.0115841309	-0.0567576054	-0.057421
C	 1.2430587465	-0.6864228971	-0.8977888907	-0.110852
C	 2.255675932	 0.1303348283	-1.6527370312	 0.147221
O	 2.5346133425	 1.2855852818	-1.4347936655	-0.256296
C	 1.8069087688	-1.2920243239	 0.4158560751	-0.141653
C	 2.1563333403	-0.1813441186	 1.3852273633	-0.352073
C	 0.7216180328	-0.5883350451	 1.2166710308	 0.402667
O	-0.0268285014	-1.1232313067	 2.2509486506	-0.467954
H	 0.654125885	 2.0920735216	 0.0525772113	 0.141255
H	-0.5933102736	 1.7438099659	-1.1411725038	 0.11536
H	-1.0083467038	 1.73366959	 0.5761122517	 0.10636
H	-0.8214147694	-0.5875184377	-0.2587649374	 0.08854
H	 0.8594313982	-1.468233319	-1.5596689302	 0.085465
H	 2.8061759208	-0.4395209469	-2.4381439259	 0.077443
H	 2.2042351327	-2.2936450104	 0.5167195855	 0.10155
H	 2.6056022265	-0.5385766507	 2.3067299491	 0.114567
H	 2.5356077051	 0.7708588387	 1.0269673882	 0.137735
H	-0.0709094409	-0.4753990827	 2.9620501446	 0.288907
84.3328	127.1013	178.2494	196.1822	216.7668	240.8956	249.0125	315.8083	411.2757	469.1042	513.8938	596.4868	681.1078	740.1788	765.5225	829.5667	866.1095	916.8381	951.6189	975.5792	1010.6035	1034.1072	1055.5993	1089.9857	1091.2857	1106.1418	1149.4366	1193.8115	1211.1865	1237.0884	1280.6713	1323.3147	1343.7457	1367.7332	1407.7906	1414.9881	1430.083	1487.4646	1490.2412	1500.881	1811.1733	2850.7664	3033.5214	3048.62	3068.6058	3092.1789	3122.6765	3144.1094	3197.5249	3212.5038	3804.2884
CC1C(C=O)C2CC12O	C[C@H]1[C@@H](C=O)[C@H]2C[C@@]12O	
InChI=1S/C7H10O2/c1-4-5(3-8)6-2-7(4,6)9/h3-6,9H,2H2,1H3	InChI=1S/C7H10O2/c1-4-5(3-8)6-2-7(4,6)9/h3-6,9H,2H2,1H3/t4-,5+,6+,7+/m0/s1
