16
gdb 24354	3.54013	1.62673	1.14982	0.7392	71.23	-0.1889	0.0499	0.2388	1010.6016	0.127392	-437.904362	-437.897353	-437.896409	-437.935574	27.898	
C	-0.0068214967	 1.4092174554	 0.0086167069	-0.100839
C	 1.4208125654	 1.9569139995	 0.0229146802	-0.100818
O	 2.1195293304	 1.5671981823	 1.2038891228	-0.286107
C	 1.9186697708	 0.2392549685	 1.4629991876	 0.238622
C	 2.627780726	-0.5860167072	 2.3037257026	-0.208421
N	 2.0301946833	-1.8244644545	 2.2348220508	-0.247479
C	 0.9584778507	-1.8060361803	 1.3707142723	-0.208422
C	 0.8729974949	-0.5248837235	 0.8787053246	 0.238603
O	-0.0204123258	-0.0168063947	-0.023853273	-0.286102
H	-0.5446030696	 1.7685291666	 0.8979484413	 0.110998
H	-0.5350509616	 1.7469253758	-0.8868416376	 0.114634
H	 1.9587281871	 1.5971947561	-0.8661714349	 0.110999
H	 1.409229502	 3.0499355825	 0.0133845789	 0.114633
H	 3.4807394971	-0.3938588994	 2.9312319834	 0.123564
H	 2.334606815	-2.63182895	 2.7459014476	 0.262571
H	 0.363104111	-2.6809735872	 1.1751570165	 0.123566
121.4301	235.7794	272.8332	349.6733	410.2669	429.8071	470.017	539.6983	601.5735	612.9863	699.5002	706.2843	719.2408	719.7691	887.1589	907.2089	943.0295	1060.2172	1062.2818	1093.0362	1122.4276	1148.162	1195.1052	1252.3504	1278.932	1293.7404	1359.7631	1392.454	1400.7622	1442.4205	1473.3645	1489.8696	1492.8289	1590.1719	1659.0836	3000.3374	3012.0406	3100.7596	3101.7994	3278.8603	3281.6145	3709.9908
C1COC2=CNC=C2O1	C1COc2c[nH]cc2O1	
InChI=1S/C6H7NO2/c1-2-9-6-4-7-3-5(6)8-1/h3-4,7H,1-2H2	InChI=1S/C6H7NO2/c1-2-9-6-4-7-3-5(6)8-1/h3-4,7H,1-2H2
