18
gdb 46609	2.93012	1.53222	1.03496	5.4078	82.01	-0.2037	-0.0093	0.1944	1131.4645	0.150765	-402.002314	-401.994661	-401.993717	-402.034635	29.356	
O	-0.0793173684	-0.0606774822	-0.1119152413	-0.366158
C	-0.0039435164	 1.1507172251	-0.0488043244	 0.276185
C	-1.2329832576	 2.1069187684	-0.0268411028	-0.316549
C	-0.6729490512	 3.5517635064	 0.0703017114	-0.365279
C	 0.8043318499	 3.3082498765	 0.0751907951	 0.349543
C	 1.1619203069	 2.0051710565	 0.0067871985	 0.125237
C	 2.6638863221	 1.8893083123	 0.0677317144	-0.361186
C	 3.0971597774	 3.3833966008	-0.1025700834	-0.170512
N	 1.8658031105	 4.1592983452	 0.193989491	-0.38468
H	-1.8294532809	 1.9488553824	-0.9300265286	 0.125251
H	-1.8726935646	 1.8501496109	 0.8223472808	 0.126572
H	-0.9793639372	 4.1833933773	-0.772543384	 0.116443
H	-0.9945173637	 4.0715559452	 0.9804225348	 0.125786
H	 2.9993198261	 1.4903671341	 1.0327808543	 0.121749
H	 3.0957407629	 1.251125975	-0.7076984452	 0.12437
H	 3.9059159346	 3.6733044325	 0.5729061934	 0.117748
H	 3.42767766	 3.5775644569	-1.1315137373	 0.111459
H	 1.7979173197	 5.1082663167	-0.1420270167	 0.24402
111.1209	119.6085	190.7563	226.7367	281.4457	480.7896	504.3486	558.9919	585.4686	601.0414	606.4889	715.5225	764.9442	839.224	862.5974	922.7423	975.5954	991.4991	1009.5414	1026.5319	1061.2289	1072.0384	1151.5238	1190.5082	1224.0488	1232.8753	1243.2215	1267.7257	1283.5261	1325.1899	1351.5225	1385.3706	1460.945	1482.1899	1491.5303	1502.2615	1530.97	1663.6033	1789.5702	3014.1883	3030.378	3030.8383	3059.5918	3064.7338	3082.9107	3094.1079	3106.157	3610.2686
O=C1CCC2=C1CCN2	O=C1CCC2=C1CCN2	
InChI=1S/C7H9NO/c9-7-2-1-6-5(7)3-4-8-6/h8H,1-4H2	InChI=1S/C7H9NO/c9-7-2-1-6-5(7)3-4-8-6/h8H,1-4H2
