19
gdb 55094	3.20381	1.12739	1.0898	3.3001	75.99	-0.2347	0.0342	0.2688	1210.8	0.15924	-419.207026	-419.198135	-419.19719	-419.241054	33.669	
C	 0.2058138188	 1.2254638432	 0.953640367	-0.489354
C	 0.0272002699	-0.0307818977	 0.1544784629	 0.360336
C	-0.9743940044	-1.0700241775	 0.4735808538	-0.282092
N	 0.4509824365	-1.4062159188	 0.6649838325	-0.191272
C	 0.9824056687	-1.7044731823	-0.7135295651	-0.036385
C	 0.6326958296	-0.2855583309	-1.229298774	-0.318131
C	 2.4706391964	-2.0362466159	-0.7286545667	 0.367106
N	 2.9781379081	-2.3415343036	 0.491071542	-0.519476
O	 3.1059903257	-2.0375880705	-1.7668654496	-0.376064
H	 1.249812006	 1.5560929283	 0.9424881985	 0.126513
H	-0.4072808528	 2.0352597003	 0.5408756481	 0.127173
H	-0.0933814019	 1.0719954922	 1.9946261609	 0.127834
H	-1.5155964488	-0.9742133057	 1.41029617	 0.120548
H	-1.5264769185	-1.573221802	-0.3184158408	 0.114334
H	 0.4557094828	-2.5308948425	-1.2043096826	 0.104325
H	-0.0451468711	-0.2070711929	-2.0829946269	 0.10791
H	 1.5256725557	 0.3072949334	-1.4340939199	 0.129191
H	 2.3967807305	-2.2219188599	 1.3061372991	 0.270084
H	 3.959245359	-2.5476052274	 0.575842491	 0.257419
38.9384	99.913	180.532	215.1049	298.7757	321.8493	346.0462	371.3044	423.1055	473.353	537.5654	612.8623	650.4585	713.635	765.0668	784.6102	829.8048	914.3888	942.3639	965.4765	990.4301	1034.6043	1057.5931	1097.4916	1102.7005	1125.0953	1140.2162	1154.6572	1233.1454	1242.3011	1310.5448	1316.4499	1374.6427	1380.4561	1421.92	1481.8945	1491.8938	1493.8854	1513.3287	1589.3682	1798.9846	3029.1232	3045.6753	3067.8325	3091.6532	3097.7393	3111.4638	3126.4694	3191.3796	3576.0323	3724.0374
CC12CN1C(C2)C(N)=O	C[C@]12CN1[C@@H](C2)C(=O)N	
InChI=1S/C6H10N2O/c1-6-2-4(5(7)9)8(6)3-6/h4H,2-3H2,1H3,(H2,7,9)	InChI=1S/C6H10N2O/c1-6-2-4(5(7)9)8(6)3-6/h4H,2-3H2,1H3,(H2,7,9)/t4-,6-,8?/m0/s1
