17
gdb 97026	1.98133	1.82264	0.96068	1.7696	80.07	-0.2256	-0.0223	0.2033	1185.5112	0.135977	-418.042225	-418.033736	-418.032792	-418.07648	30.865	
C	 0.2481472723	 1.3755548156	-0.0278218914	-0.336478
N	 0.0289005587	-0.0511335143	 0.0614568638	-0.296052
C	-1.0971986521	-0.6147725577	 0.1351752039	 0.395202
C	-1.2351880944	-2.1346333544	 0.226699485	-0.339677
C	-2.7182030582	-2.3608652993	 0.2943018572	-0.164074
C	-3.3491603248	-1.191031706	 0.2509466792	 0.011871
N	-2.4388543486	-0.1045932424	 0.1555973836	-0.154498
C	-2.9113001888	 1.1975107933	 0.0992254225	 0.147162
O	-4.089708399	 1.4712820319	 0.1273273865	-0.316714
H	 1.3242041187	 1.5622398589	-0.0790060972	 0.127381
H	-0.2052637644	 1.8176153531	-0.926519705	 0.126432
H	-0.1383438248	 1.9183222658	 0.8466413213	 0.126465
H	-0.7626558911	-2.6050798633	-0.6432055047	 0.145852
H	-0.6980326566	-2.5055855001	 1.1071473219	 0.145843
H	-3.1945326417	-3.3270746593	 0.3668352327	 0.117803
H	-4.3996081727	-0.949288502	 0.2758783745	 0.160538
H	-2.1203123024	 1.9511045402	 0.0273070562	 0.102945
21.7176	139.3191	209.6802	233.1389	242.058	254.4983	309.857	399.813	466.5409	557.2958	630.9269	646.9769	741.2466	787.4483	861.575	948.9049	964.3602	983.377	1012.7654	1013.0252	1054.5055	1099.2681	1135.5139	1158.5642	1178.8775	1215.7487	1279.8419	1319.4392	1382.3956	1429.3346	1439.4392	1454.0789	1494.8023	1511.5433	1692.5966	1778.0426	1788.466	2984.1354	3039.6981	3042.2549	3069.7218	3088.7712	3096.7819	3245.9271	3282.627
CN=C1CC=CN1C=O	CN=C1CC=CN1C=O	
InChI=1S/C6H8N2O/c1-7-6-3-2-4-8(6)5-9/h2,4-5H,3H2,1H3	InChI=1S/C6H8N2O/c1-7-6-3-2-4-8(6)5-9/h2,4-5H,3H2,1H3
