20
gdb 52967	5.39189	0.78167	0.74164	1.4682	91.85	-0.2205	0.031	0.2514	1622.0631	0.169529	-365.950969	-365.941311	-365.940366	-365.98693	35.033	
C	-0.1631601506	 1.4774575264	 0.1345949951	-0.50907
C	-0.0561349218	 0.0300454206	 0.0355735215	 0.254186
C	 0.0217833631	-1.1701949501	-0.0498339938	-0.176573
C	 0.1573062149	-2.5861452608	-0.1311459262	 0.184783
C	-0.2848618292	-3.3994557605	-1.2889610397	-0.273494
N	-1.0251214429	-3.57731585	-0.0318771748	-0.180286
C	-0.1653823559	-4.4298157092	 0.8778574995	 0.091164
C	 0.0029650422	-5.8888534076	 0.4915838918	-0.40884
C	 1.0327749413	-3.4450088131	 0.7915639881	-0.338361
H	 0.5691698955	 1.8810046979	 0.8426834131	 0.14891
H	 0.0093691006	 1.9610483886	-0.8334602117	 0.148152
H	-1.1580904305	 1.776990238	 0.4828444452	 0.152264
H	-0.8751941578	-2.8956622595	-2.0474589814	 0.127017
H	 0.3605000595	-4.1889571024	-1.6680372877	 0.108189
H	-0.6282556425	-4.3745619507	 1.8669513751	 0.089427
H	 0.4967492535	-6.0136448062	-0.4767395609	 0.115924
H	 0.6103381456	-6.4086683102	 1.24038084	 0.119641
H	-0.9719527778	-6.384843233	 0.4426045832	 0.129032
H	 1.9611316244	-3.8128094787	 0.34343744	 0.100462
H	 1.2642792584	-2.9630295694	 1.7418969936	 0.117474
17.4037	81.0686	87.5195	187.2282	217.3686	255.4241	305.4161	331.862	413.846	418.3144	518.4598	548.0817	554.348	689.5882	759.9768	804.8566	850.2045	876.0697	935.5266	964.0796	1034.6503	1051.1068	1054.0973	1087.2225	1099.1436	1118.9476	1130.7498	1138.2413	1202.1459	1241.5156	1255.7168	1311.4503	1369.1026	1394.3512	1409.9763	1416.329	1475.8655	1478.0843	1482.6712	1491.6844	1496.449	1508.6093	2361.5391	3024.6051	3034.4374	3052.3988	3060.0729	3084.5465	3086.5071	3101.2332	3104.0712	3111.8338	3127.6379	3200.8078
CC#CC12CN1C(C)C2	CC#C[C@]12CN1[C@@H](C)C2	
InChI=1S/C8H11N/c1-3-4-8-5-7(2)9(8)6-8/h7H,5-6H2,1-2H3	InChI=1S/C8H11N/c1-3-4-8-5-7(2)9(8)6-8/h7H,5-6H2,1-2H3/t7-,8-,9?/m0/s1
