19
gdb 85430	2.3755	1.48821	1.18016	4.9331	70.98	-0.2598	0.018	0.2778	1120.942	0.157678	-460.219656	-460.210611	-460.209667	-460.252966	34.664	
C	 0.2493805387	 1.4478052954	-0.3298434636	-0.415045
C	-0.0785634742	 0.0412667106	 0.1513300969	 0.116663
O	 0.1549514058	-0.8920078115	-0.9262242497	-0.228109
C	 1.2776174243	-1.6291808141	-0.7198581267	 0.433259
O	 1.661334307	-2.4517995344	-1.4981975899	-0.339154
C	 1.9081507061	-1.2036297301	 0.6008173826	-0.406808
C	 0.7590882691	-0.5053361287	 1.3382977322	 0.353373
C	 1.1842774821	 0.5312267488	 2.373807487	-0.454002
O	-0.0963018387	-1.4819562263	 1.9369928016	-0.473332
H	 1.3155667907	 1.5619850605	-0.5511189351	 0.122193
H	-0.3077461561	 1.6546180683	-1.2469179522	 0.140711
H	-0.032681922	 2.1933025208	 0.4186296074	 0.126251
H	-1.1371429538	-0.0403019599	 0.4105160837	 0.111731
H	 2.3135876458	-2.066545232	 1.1324813303	 0.128263
H	 2.7392445682	-0.5222326553	 0.3868936787	 0.133195
H	 1.8181786349	 1.3109646182	 1.9435555137	 0.123827
H	 0.3054639831	 1.0002566503	 2.8259149622	 0.131972
H	 1.7541385161	 0.0467399002	 3.1748057048	 0.114494
H	 0.4062888031	-1.9467196609	 2.6148453462	 0.280519
94.4403	117.164	235.6687	246.7829	274.5566	296.2328	301.3967	347.8599	372.7233	422.1624	500.9448	532.7868	556.568	606.091	687.34	771.9769	840.171	889.2218	947.6818	952.153	966.7366	1033.0555	1079.264	1104.8023	1126.9981	1149.8665	1183.9545	1198.6524	1220.4963	1292.8288	1349.8192	1377.0004	1380.4422	1409.9051	1414.255	1453.729	1482.2411	1491.6323	1499.5818	1502.8093	1886.0216	3035.0902	3043.5369	3055.6456	3082.9479	3100.4765	3117.8253	3119.4187	3124.3061	3128.6825	3806.7507
CC1OC(=O)CC1(C)O	C[C@H]1OC(=O)C[C@]1(C)O	
InChI=1S/C6H10O3/c1-4-6(2,8)3-5(7)9-4/h4,8H,3H2,1-2H3	InChI=1S/C6H10O3/c1-4-6(2,8)3-5(7)9-4/h4,8H,3H2,1-2H3/t4-,6+/m1/s1
