13
gdb 130085	5.63666	1.36774	1.10164	1.1328	66.53	-0.2176	0.003	0.2206	998.0355	0.094039	-445.122864	-445.116338	-445.115394	-445.15352	25.462	
N	-0.0239031894	 1.3054021608	 0.141458495	-0.578777
C	 0.001399481	-0.0630587073	 0.0562083614	 0.412118
N	-1.1281127093	-0.784826279	 0.0185109646	-0.370952
N	-0.600756172	-2.0521410914	 0.0062165015	 0.035832
C	-0.96221854	-3.3683192098	-0.0281912732	 0.026346
N	 0.0996615346	-4.138071532	-0.0292315951	-0.212278
N	 1.1720877132	-3.2744365557	 0.0039448155	-0.375725
C	 0.759284698	-1.9878115639	 0.0274035775	 0.524727
N	 1.1980439829	-0.7426119176	 0.0584141524	-0.448541
H	 0.8132064822	 1.753332584	-0.1978361402	 0.263638
H	-0.8815006479	 1.7312856663	-0.17534692	 0.262972
H	-1.9764965254	-3.7278902608	-0.0503797281	 0.169117
H	 2.1065892721	-3.6408044935	 0.0175895288	 0.291524
160.5646	300.4343	309.8307	353.5796	377.3711	399.3032	552.5251	562.8587	618.9095	646.1584	741.8939	774.0795	815.0145	829.5676	875.9401	992.1287	1018.3177	1062.0448	1099.4382	1221.625	1243.1735	1352.5135	1384.9889	1407.6987	1453.7269	1547.4899	1570.545	1646.2249	1671.6971	3298.6991	3586.1903	3697.6883	3706.2695
NC1=NN2C=NNC2=N1	Nc1nn2cn[nH]c2n1	
InChI=1S/C3H4N6/c4-2-6-3-7-5-1-9(3)8-2/h1H,(H3,4,6,7,8)	InChI=1S/C3H4N6/c4-2-6-3-7-5-1-9(3)8-2/h1H,(H3,4,6,7,8)
