16
gdb 23504	5.06199	1.15482	1.05102	1.5194	72.35	-0.2394	0.0042	0.2436	1108.1504	0.12483	-437.781874	-437.774991	-437.774046	-437.813149	27.731	
O	-0.1462948392	 1.3511746311	 0.0441029933	-0.391903
N	 0.0276365153	-0.0452430359	 0.0085686064	-0.256182
C	-1.0945399325	-0.6407234565	 0.0008656211	 0.419037
C	-2.5122902333	-0.0886101745	 0.0233100732	-0.34255
C	-3.2676986184	-1.4154868087	-0.0047274093	-0.054675
C	-2.5111821431	-2.4750948031	 0.8534061492	 0.058412
O	-2.9071671097	-3.5516905422	-0.0596703667	-0.316205
C	-2.5222353356	-2.4312616213	-0.9234041003	 0.058412
C	-1.2687716484	-2.1184313675	-0.0345033473	-0.129685
H	 0.7629829624	 1.6687772477	 0.0462791658	 0.307488
H	-2.7027651848	 0.5082367019	 0.9213401285	 0.13158
H	-2.7137358883	 0.5517445245	-0.841750213	 0.13158
H	-4.3558803871	-1.4359448245	 0.0015373632	 0.088023
H	-2.5511602977	-2.6667624171	 1.9261135508	 0.100837
H	-2.5756052948	-2.5698153097	-2.0036773513	 0.100837
H	-0.4087528649	-2.7817212644	-0.0562165107	 0.094994
106.9077	208.3011	277.7686	373.5328	422.4416	435.8394	508.4101	561.2707	675.3992	723.7232	745.709	767.4868	846.7688	878.7865	900.935	907.3367	957.3635	970.4333	974.9911	997.0431	1015.4087	1115.3292	1122.1836	1158.739	1170.3373	1192.7761	1212.3649	1218.1215	1259.1737	1280.3271	1282.4938	1354.2372	1413.78	1473.509	1774.4525	3052.348	3089.2996	3113.0477	3116.5256	3146.4629	3174.4577	3818.0073
ON=C1CC2C3OC2C13	ON=C1C[C@@H]2[C@H]3O[C@@H]2[C@@H]13	
InChI=1S/C6H7NO2/c8-7-3-1-2-5-4(3)6(2)9-5/h2,4-6,8H,1H2	InChI=1S/C6H7NO2/c8-7-3-1-2-5-4(3)6(2)9-5/h2,4-6,8H,1H2/t2-,4+,5-,6+
