17
gdb 23344	4.11483	0.95567	0.89053	1.3003	74.7	-0.2315	0.014	0.2456	1328.7764	0.134833	-454.995215	-454.986619	-454.985675	-455.028847	31.536	
C	 0.0204578396	 1.2725357655	-0.2556980087	-0.244851
O	-0.073755861	 0.0201004471	 0.3921228312	-0.242798
C	-1.3109456993	-0.5801269343	 0.2453662728	 0.21573
C	-1.6435088463	-1.3859978825	-1.0715875999	-0.184809
N	-0.5689386217	-2.3820983294	-0.6103871912	-0.3088
C	-1.3804770119	-2.07437073	 0.6580634439	-0.175291
C	-2.6201434056	-2.1663955225	-0.2084820924	 0.483814
N	-3.7252076809	-2.7739967754	-0.1857997267	-0.320185
O	-4.4341136902	-2.5811239889	-1.3971366286	-0.401986
H	 1.0037963283	 1.6827200961	-0.0173972846	 0.134764
H	-0.069987175	 1.1747450081	-1.3468256892	 0.11379
H	-0.7538861141	 1.970832867	 0.0976558553	 0.10792
H	-2.1282347871	 0.0566248995	 0.6100093327	 0.083683
H	-1.7297172464	-1.0510056736	-2.1020040034	 0.103579
H	-0.8205157279	-3.3173874942	-0.944326489	 0.225165
H	-1.1577583734	-2.5272905431	 1.6215394896	 0.103707
H	-5.2395614972	-3.0836920095	-1.2349686118	 0.306569
79.2978	103.4752	148.2615	194.1756	248.9961	308.2685	343.2795	385.5536	422.5562	519.1814	617.111	704.0111	745.7587	782.9803	819.2105	864.921	940.8932	952.3777	1033.029	1050.7641	1091.7249	1120.418	1137.0653	1146.2217	1180.9983	1187.0945	1208.9596	1222.8228	1238.4354	1279.1719	1290.6078	1405.3218	1414.3651	1484.9941	1489.7588	1507.285	1814.0207	2981.7821	3020.6849	3035.597	3126.2517	3154.5284	3160.5063	3402.3998	3819.7837
COC1C2NC1C2=NO	CO[C@H]1[C@H]2N[C@@H]1C2=NO	
InChI=1S/C5H8N2O2/c1-9-5-3-2(7-8)4(5)6-3/h3-6,8H,1H3	InChI=1S/C5H8N2O2/c1-9-5-3-2(7-8)4(5)6-3/h3-6,8H,1H3/t3-,4+,5-
