21
gdb 107748	2.75286	1.36137	1.22061	1.2792	81.9	-0.2298	0.0682	0.298	1149.7309	0.182359	-387.0407	-387.032083	-387.031139	-387.073688	34.032	
C	-0.0976513583	 1.4811749685	 0.0616070309	-0.382018
C	 0.0369425459	-0.0471248121	 0.0274884918	-0.299809
C	 0.7402243367	-0.5563784104	-1.2058349856	 0.257894
C	 0.1015514466	-0.4440906188	-2.6255557454	-0.267401
C	 0.9062385947	-1.6851776078	-2.9968567918	-0.15574
C	 2.275069939	-1.5660604142	-2.2561325678	-0.113372
C	 2.2480587639	-0.2555927771	-1.4768225887	-0.267549
C	 1.0655071884	-2.0925488962	-1.5550276382	 0.323836
O	 0.9066191877	-3.269666013	-0.8694155675	-0.452615
H	 0.8841897802	 1.9654259482	 0.0380917051	 0.12081
H	-0.6693415157	 1.8486911964	-0.7971165202	 0.118832
H	-0.6106625892	 1.8114552628	 0.9700088284	 0.111886
H	 0.5813662724	-0.3880239724	 0.9177500696	 0.101397
H	-0.9612997953	-0.5019707713	 0.0900163343	 0.086774
H	-0.9740027858	-0.6490821111	-2.6053633483	 0.086971
H	 0.2851865483	 0.4836090621	-3.1797974816	 0.087968
H	 0.8198747114	-2.3191630733	-3.8702804066	 0.083556
H	 3.1279175967	-2.1309831299	-2.6097921673	 0.086614
H	 2.4853123683	 0.6763987752	-2.0030579041	 0.085653
H	 2.8440541771	-0.3229548284	-0.5614773892	 0.097571
H	-0.016315143	-3.5401895472	-0.9336094978	 0.288743
80.251	131.9751	199.5975	236.1329	259.6586	331.0256	352.4376	392.3148	488.5684	492.4169	579.1323	674.8284	716.1255	736.9965	785.433	844.1967	887.9019	895.7088	926.2451	963.1829	972.1323	999.4118	1011.8218	1019.4935	1055.914	1104.4074	1106.0718	1116.8492	1125.848	1194.9511	1213.1269	1238.0905	1250.9062	1263.7492	1307.3584	1321.1761	1323.8858	1376.6805	1409.5686	1476.5882	1485.4376	1488.926	1499.821	1506.9487	1512.5434	3008.1205	3023.5448	3030.6613	3034.4959	3040.8973	3079.5447	3088.028	3101.7778	3104.1642	3191.8095	3202.1396	3785.2562	80.2509	131.9749	199.5976	236.1327	259.6586	331.0249	352.4372	392.3147	488.5683	492.4168	579.1323	674.8283	716.1255	736.9964	785.433	844.1966	887.9018	895.7088	926.2451	963.1829	972.1323	999.4119	1011.8218	1019.4934	1055.9141	1104.4074	1106.0719	1116.8493	1125.8481	1194.9511	1213.1268	1238.0905	1250.9062	1263.7492	1307.3586	1321.1762	1323.886	1376.6805	1409.5685	1476.5882	1485.4377	1488.926	1499.8208	1506.9486	1512.5435	3008.1205	3023.5448	3030.6613	3034.4959	3040.8973	3079.5447	3088.028	3101.7778	3104.1642	3191.8095	3202.1396	3785.2558
CCC12CC3C(C1)C23O	CC[C@@]12C[C@H]3[C@@H](C1)[C@@]23O	
InChI=1S/C8H12O/c1-2-7-3-5-6(4-7)8(5,7)9/h5-6,9H,2-4H2,1H3	InChI=1S/C8H12O/c1-2-7-3-5-6(4-7)8(5,7)9/h5-6,9H,2-4H2,1H3/t5-,6+,7+,8+
