17
gdb 49039	2.47026	1.72952	1.31603	2.5714	73.27	-0.246	-0.0351	0.2108	1000.9736	0.135999	-421.826719	-421.819118	-421.818174	-421.859075	28.828	
O	-0.5520176273	 0.7143976249	 0.4506499874	-0.252303
C	 0.5134694385	 0.7934058836	-0.1055631567	 0.100659
C	 1.4595007724	 1.9676990125	 0.0220160995	 0.329701
C	 1.3816553063	 2.7300374379	 1.353110877	-0.322656
C	 1.4386467701	 4.1789424181	 0.931802627	-0.061963
C	 1.4186387377	 4.340961764	-0.3914923822	-0.082237
C	 1.3930286963	 3.0336551567	-1.1301464811	-0.164191
C	 2.7665938408	 2.4481596887	-1.5394499505	-0.086391
O	 2.7980807106	 1.5945521345	-0.3744613935	-0.325583
H	 0.8888632139	-0.0032966652	-0.7859868045	 0.089757
H	 0.4517158763	 2.4883464396	 1.8814673042	 0.135067
H	 2.2174605382	 2.4378469011	 1.9991952464	 0.126124
H	 1.4755774826	 4.98715728	 1.6540858904	 0.103058
H	 1.4320261859	 5.2944814488	-0.9078741726	 0.101609
H	 0.6002364587	 2.9511703575	-1.8777548243	 0.095639
H	 2.7597419772	 1.863795182	-2.4682643956	 0.104069
H	 3.6060600617	 3.1515106953	-1.5569346411	 0.109641
90.1036	109.2498	222.5964	245.6399	288.4867	383.7276	454.5936	507.9437	619.068	721.813	743.8821	772.4857	838.051	883.3166	896.3453	941.2262	967.5597	973.7755	1017.9092	1041.7242	1076.8544	1080.6458	1094.4924	1142.8891	1165.1373	1185.0745	1207.0848	1232.0064	1301.962	1336.4949	1343.1694	1367.671	1397.5832	1462.4248	1520.849	1678.9084	1822.8972	2889.7453	3016.3668	3036.3146	3069.6141	3076.0894	3082.1503	3183.1581	3207.4662
O=CC12CC=CC1CO2	O=C[C@]12CC=C[C@H]1CO2	
InChI=1S/C7H8O2/c8-5-7-3-1-2-6(7)4-9-7/h1-2,5-6H,3-4H2	InChI=1S/C7H8O2/c8-5-7-3-1-2-6(7)4-9-7/h1-2,5-6H,3-4H2/t6-,7+/m0/s1
