20
gdb 93408	2.68568	1.34551	0.94252	4.3839	84.64	-0.2227	-0.0425	0.1802	1263.5924	0.171259	-403.182123	-403.173225	-403.172281	-403.21553	34.008	
C	-0.080699774	 1.5627685106	-0.0458616817	-0.408681
C	 0.0200914635	 0.0332986146	 0.0249426573	-0.042233
N	 0.6510676176	-0.4429796265	-1.2014578296	-0.31258
C	 0.8756355337	-1.8810956726	-1.2447586396	-0.286252
C	 1.7732940252	-2.3042778589	-0.088305178	 0.400441
O	 2.5003900662	-3.2750636903	-0.1609743434	-0.335751
C	 1.6237679407	-1.5108609566	 1.139917335	-0.270996
C	 0.7892867811	-0.4618939949	 1.2372054199	 0.351662
C	 0.5472034677	 0.2269110165	 2.5502030939	-0.483772
H	 0.9162045359	 2.0095520574	-0.0944945479	 0.134132
H	-0.6267903933	 1.8552352341	-0.9487624664	 0.114632
H	-0.6181524707	 1.9752789558	 0.8110485788	 0.120121
H	-1.0132303835	-0.3632075076	 0.1436246394	 0.070843
H	 0.1029667337	-0.1473856509	-2.0015896429	 0.221245
H	-0.0531679392	-2.483643749	-1.1697551849	 0.096756
H	 1.365660567	-2.1552432526	-2.1821113765	 0.125924
H	 2.1820141537	-1.8678539617	 2.0010376428	 0.096688
H	 1.0471487717	-0.2977014436	 3.367095305	 0.13253
H	 0.9083041618	 1.2616233666	 2.5349916771	 0.141457
H	-0.5253284288	 0.2737375398	 2.7769479016	 0.133833
71.9751	155.6863	198.2505	211.8867	243.1588	312.7816	329.0965	362.9313	425.4522	457.5657	507.116	559.3907	613.1563	651.4046	730.4597	789.6414	867.6546	899.5555	959.6214	1007.3235	1015.3232	1028.2684	1066.3707	1098.3636	1125.2581	1157.1149	1187.2871	1240.7856	1271.7207	1291.2685	1338.6667	1345.8458	1393.9687	1408.002	1410.103	1472.5717	1478.6958	1480.1917	1485.4996	1500.9845	1510.8536	1685.9338	1781.5235	2844.1509	2892.556	3026.0341	3042.6704	3076.9133	3098.2136	3109.258	3125.3524	3131.7466	3170.0409	3528.4734
CC1NCC(=O)C=C1C	C[C@H]1NCC(=O)C=C1C	
InChI=1S/C7H11NO/c1-5-3-7(9)4-8-6(5)2/h3,6,8H,4H2,1-2H3	InChI=1S/C7H11NO/c1-5-3-7(9)4-8-6(5)2/h3,6,8H,4H2,1-2H3/t6-/m1/s1
