21
gdb 121179	2.43151	0.99462	0.76598	2.0251	84.53	-0.2513	0.022	0.2732	1544.7854	0.180465	-387.039032	-387.02896	-387.028016	-387.075624	36.099	
C	 0.0773075495	 1.5639560209	 0.103463229	-0.380915
C	 0.0142041559	 0.0366374447	 0.0193504347	-0.171648
C	-1.4212572222	-0.5033502093	 0.0110323889	-0.190311
C	-1.4781270024	-2.0233345828	-0.0514631797	-0.057332
C	-1.1238353647	-2.8033053884	 1.233618527	-0.075535
O	-2.4340357712	-3.4046864138	 1.298434421	-0.278369
C	-2.8677124773	-2.7276332801	 0.0926720932	-0.075544
C	-4.0469351378	-1.8988372176	 0.2856596725	 0.356102
C	-5.0272316448	-1.217808696	 0.4304065959	-0.465815
H	 1.1117220475	 1.9212248947	 0.1045260805	 0.112475
H	-0.43520885	 2.0282829202	-0.7463424276	 0.11581
H	-0.4030622809	 1.9298649802	 1.017529893	 0.116899
H	 0.5345277994	-0.3038163251	-0.8858730253	 0.095536
H	 0.5638572596	-0.3979350814	 0.8650621375	 0.098762
H	-1.9541520748	-0.156085395	 0.905145512	 0.108551
H	-1.9659235872	-0.0852240292	-0.8455374867	 0.10229
H	-0.9396755625	-2.383668838	-0.9326025598	 0.081836
H	-0.333571955	-3.5576591083	 1.1414549906	 0.101917
H	-0.9200103692	-2.1798643301	 2.1141516259	 0.102257
H	-3.0680244213	-3.4564384148	-0.7043470773	 0.101807
H	-5.8954764704	-0.620753921	 0.5629779547	 0.201227
23.9614	87.7382	93.463	100.6347	177.9019	227.3639	248.8005	314.2211	344.9584	431.2887	525.5826	560.2528	622.7993	669.947	742.6376	807.9395	817.8158	867.6618	889.4182	919.1406	974.0548	995.2488	1025.3754	1041.1728	1061.4127	1113.4803	1136.9434	1156.0363	1186.8433	1232.5021	1256.6919	1273.4119	1307.966	1327.6319	1349.1257	1359.2812	1380.7258	1402.1768	1413.9166	1480.4225	1492.8889	1499.5577	1509.8321	1525.7486	2231.2176	3004.8311	3009.6806	3012.6854	3022.4469	3031.0765	3036.2797	3050.2381	3059.353	3076.8184	3097.7918	3103.4172	3503.1644
CCCC1COC1C#C	CCC[C@H]1CO[C@H]1C#C	
InChI=1S/C8H12O/c1-3-5-7-6-9-8(7)4-2/h2,7-8H,3,5-6H2,1H3	InChI=1S/C8H12O/c1-3-5-7-6-9-8(7)4-2/h2,7-8H,3,5-6H2,1H3/t7-,8-/m0/s1
