17
gdb 13975	5.7364	1.09559	1.01804	1.5764	80.07	-0.2224	0.0278	0.2502	1205.5657	0.141741	-326.658603	-326.650435	-326.649491	-326.692786	29.261	
C	-0.0581919817	 1.464827841	 0.0370807972	-0.507979
C	-0.0145699798	 0.0112666839	 0.0009518279	 0.232917
C	 0.0109525759	-1.1938592209	-0.0319102586	-0.138241
C	 0.085513315	-2.6161689509	-0.051691522	 0.172248
C	-0.4136557151	-3.4533481193	-1.1712117145	-0.266071
N	-1.1357818507	-3.5568728797	 0.1021943599	-0.161608
C	-0.2771918244	-4.4393146762	 0.9695311496	-0.14984
C	 0.928665858	-3.4705987691	 0.9039053015	-0.310095
H	 0.6817856753	 1.865530988	 0.7387422278	 0.149621
H	 0.1482430216	 1.8985404103	-0.9477843261	 0.148626
H	-1.043443931	 1.8217723578	 0.3575242389	 0.153069
H	-0.9845191735	-2.9477487125	-1.9432774474	 0.127167
H	 0.1806361427	-4.298606433	-1.5179326151	 0.106595
H	-0.7189202862	-4.525764104	 1.9635185644	 0.114481
H	-0.1344080481	-5.4426632315	 0.5539012496	 0.104145
H	 1.876129781	-3.8429546889	 0.5038091037	 0.10334
H	 1.1168889811	-2.9689391649	 1.8538061532	 0.121625
16.8233	99.8883	107.206	237.6569	300.822	332.3831	420.1348	480.2412	529.1027	546.973	732.8898	762.3625	789.6836	838.4503	933.1981	952.7667	989.312	1045.1906	1050.7851	1054.8847	1090.8639	1107.872	1133.9697	1195.1998	1220.0112	1243.016	1259.3934	1311.4043	1381.9018	1414.8904	1475.5909	1477.8939	1487.8154	1491.9581	1516.1221	2360.864	3025.0209	3044.3192	3059.8105	3085.1498	3087.2124	3087.7589	3109.5359	3131.3358	3197.3971
CC#CC12CN1CC2	CC#C[C@]12CN1CC2	
InChI=1S/C7H9N/c1-2-3-7-4-5-8(7)6-7/h4-6H2,1H3	InChI=1S/C7H9N/c1-2-3-7-4-5-8(7)6-7/h4-6H2,1H3/t7-,8?/m0/s1
