21
gdb 39128	3.2721	1.41257	1.2671	1.3749	81.87	-0.24	0.0859	0.3258	1093.6096	0.18449	-387.078408	-387.070784	-387.06984	-387.110343	31.099	
C	-0.1718637953	 1.3436237452	-0.0220951177	-0.303851
C	 1.2187596308	 0.7671772049	-0.0972497173	-0.052276
C	 1.9778510747	 0.7091597954	 1.2152510754	-0.112696
O	 1.0564840551	 0.1756049105	 2.1644573384	-0.307462
C	 0.1489420048	-0.6971085291	 1.5027872276	 0.447977
C	 0.4373631487	-2.2298573118	 1.5669090664	-0.287264
C	-1.0592371214	-2.4500391996	 1.9185894715	-0.215034
C	-1.1582866274	-0.9449556203	 2.2917257231	-0.280673
C	 0.0315702082	-0.1460925935	 0.092386075	-0.095599
H	-0.4524454577	 1.8923002085	 0.8718699941	 0.121739
H	-0.6072136985	 1.7173354332	-0.9420861657	 0.108266
H	 1.7748080277	 0.8052526705	-1.0263295954	 0.087258
H	 2.8650736462	 0.0638846625	 1.114726605	 0.091651
H	 2.304766555	 1.6844582459	 1.5924103788	 0.104991
H	 0.8359648855	-2.714145093	 0.6712704948	 0.090298
H	 1.0917176751	-2.448194583	 2.4149823027	 0.106711
H	-1.6585002534	-2.6971852442	 1.038088205	 0.101291
H	-1.2856274194	-3.1738999631	 2.7035648047	 0.100378
H	-0.9874574417	-0.7778959648	 3.3583027956	 0.110883
H	-2.0437684327	-0.3867298483	 1.9783836184	 0.096587
H	-0.3196784144	-0.8012051359	-0.6961440904	 0.086824
114.5324	135.2594	202.1489	321.5201	340.2359	370.6822	460.5107	502.6858	670.1721	703.7306	745.368	790.5919	799.0778	834.731	864.3237	903.3302	914.8346	929.2353	956.721	982.1572	1003.0225	1023.4264	1034.2467	1074.796	1079.6745	1097.3171	1104.0773	1119.4866	1157.8012	1191.1591	1196.3914	1205.0608	1234.4775	1245.291	1265.1219	1272.8237	1286.7589	1348.3246	1370.5081	1399.0803	1468.8633	1478.8605	1484.5813	1506.5328	1520.1121	2977.0393	3053.9695	3060.8712	3060.9686	3066.6858	3104.2995	3114.7307	3126.9303	3127.6324	3176.2019	3185.2114	3217.6785
C1C2COC3(CCC3)C12	C1[C@H]2COC3(CCC3)[C@@H]12	
InChI=1S/C8H12O/c1-2-8(3-1)7-4-6(7)5-9-8/h6-7H,1-5H2	InChI=1S/C8H12O/c1-2-8(3-1)7-4-6(7)5-9-8/h6-7H,1-5H2/t6-,7-/m0/s1
