21
gdb 63426	3.66167	0.86598	0.85537	2.0781	85.01	-0.2416	0.0527	0.2943	1483.3408	0.179146	-387.055417	-387.045358	-387.044414	-387.090631	37.597	
C	 0.3830572356	 1.3358120209	 0.2396523662	-0.427661
C	-0.0649195069	-0.0912055743	-0.0395512506	 0.442874
C	-1.570431352	-0.2634811979	 0.1258961915	-0.424848
C	 0.5331331754	-0.766147388	-1.302893357	-0.366659
C	 1.134742107	-1.7820250461	-0.3135679868	 0.162907
C	 2.6583118736	-1.9412503062	-0.3138231579	-0.369607
C	 3.1432670455	-2.805633584	 0.7544350389	 0.304405
C	 3.52416567	-3.5306345326	 1.6337314065	-0.440121
O	 0.6504228326	-1.0342501323	 0.8185841308	-0.332052
H	 1.4673585916	 1.4312821638	 0.1351502549	 0.114994
H	-0.0963112016	 2.0351029979	-0.4542033581	 0.113986
H	 0.113023182	 1.6264324234	 1.260112759	 0.125511
H	-2.116071158	 0.3865130241	-0.5669731786	 0.112627
H	-1.8676125559	-1.2986362541	-0.0655039574	 0.117185
H	-1.8708414874	-0.0067374785	 1.1466928608	 0.12457
H	-0.1863776054	-1.1605227628	-2.0222870418	 0.105498
H	 1.2732709472	-0.1582019129	-1.8294768728	 0.10275
H	 0.6706941959	-2.7763929719	-0.3535043688	 0.082581
H	 2.9602164223	-2.3497196932	-1.2883327358	 0.127572
H	 3.115875632	-0.9477714181	-0.2305390087	 0.12899
H	 3.8648567165	-4.163030097	 2.4153731657	 0.194497
49.0472	71.8901	123.4565	192.8779	228.3432	268.3213	309.7668	333.9073	354.0821	375.0479	412.5538	459.4732	518.2234	616.3921	636.3754	648.1564	791.2475	852.8316	896.9446	899.6574	920.9939	956.9727	966.3131	991.8843	1023.3002	1036.7581	1083.1532	1131.4358	1182.122	1229.9686	1240.7942	1277.99	1289.0761	1293.7494	1342.4373	1395.6973	1401.2384	1412.8582	1455.1239	1472.8499	1480.4255	1488.6844	1494.2857	1504.6194	2241.0141	3011.1328	3014.7473	3030.2666	3035.841	3057.8435	3066.3678	3100.644	3107.5528	3111.3486	3115.0942	3124.7344	3508.152
CC1(C)CC(CC#C)O1	CC1(C)C[C@@H](CC#C)O1	
InChI=1S/C8H12O/c1-4-5-7-6-8(2,3)9-7/h1,7H,5-6H2,2-3H3	InChI=1S/C8H12O/c1-4-5-7-6-8(2,3)9-7/h1,7H,5-6H2,2-3H3/t7-/m1/s1
