19
gdb 33242	5.49299	0.7348	0.65608	1.6877	78.53	-0.2178	0.0257	0.2435	1700.1545	0.158769	-423.044847	-423.035728	-423.034784	-423.080317	32.297	
C	-0.6844068066	 1.3070018651	-0.2778208438	-0.386978
C	 0.074798488	 0.0212841373	 0.0021798462	-0.0217
O	 0.5541193048	-0.4928062151	-1.223365253	-0.243626
C	 1.2783948878	-1.6928496942	-1.080897883	-0.176123
C	 1.7378167906	-2.1498989267	-2.427775479	 0.217149
C	 1.5122055218	-1.534639203	-3.6181239721	-0.077143
O	 2.0803850581	-2.2362786116	-4.6379352964	-0.147289
C	 2.6796404159	-3.320238237	-4.082963348	 0.008295
C	 2.5063187204	-3.3248822609	-2.736557758	-0.294127
H	-0.0290834259	 2.0433896556	-0.7514728352	 0.127629
H	-1.5270550766	 1.1159995479	-0.9482865697	 0.127624
H	-1.0702461768	 1.7326354009	 0.6532490188	 0.115441
H	 0.9166828187	 0.2099502584	 0.690089146	 0.086488
H	-0.5813968538	-0.717536738	 0.4932330584	 0.08649
H	 2.1437791837	-1.5440131861	-0.4098033452	 0.096669
H	 0.650723336	-2.4683286211	-0.6054270661	 0.096674
H	 0.9897083348	-0.6343710544	-3.8886577639	 0.144923
H	 3.1803317269	-3.9833113642	-4.7689589073	 0.133791
H	 2.8752507822	-4.0663100929	-2.0444178787	 0.105815
36.1543	69.3251	99.0969	114.863	240.8787	267.4861	268.5797	346.4386	489.6853	621.7858	623.3114	729.1465	735.9271	788.4299	820.7133	822.7285	894.6748	908.0571	997.3302	1040.5582	1048.9061	1060.4436	1096.463	1144.4667	1169.5488	1189.1782	1204.6467	1250.081	1253.4782	1268.4207	1296.1605	1373.1903	1398.5787	1417.3143	1461.6633	1483.356	1499.254	1510.191	1533.4281	1539.2063	1644.3221	2932.8442	2947.0872	2954.9718	2977.5344	3045.3677	3120.1639	3122.3444	3248.7144	3283.1477	3301.7572
CCOCC1=COC=C1	CCOCc1cocc1	
InChI=1S/C7H10O2/c1-2-8-5-7-3-4-9-6-7/h3-4,6H,2,5H2,1H3	InChI=1S/C7H10O2/c1-2-8-5-7-3-4-9-6-7/h3-4,6H,2,5H2,1H3
