23
gdb 115594	3.05495	0.98891	0.90142	2.2162	81.83	-0.2461	0.062	0.308	1429.472	0.204159	-425.418277	-425.407945	-425.407	-425.453327	38.851	
C	 0.1055329942	 1.5024989703	-0.3345421282	-0.389319
C	 0.0618391256	-0.0261913852	-0.2530292999	-0.171844
C	-1.2993047235	-0.5537561226	 0.2027181263	-0.042515
C	-2.4162854678	-0.5295234762	-0.8868193389	-0.230466
C	-2.2244928635	-2.0561516257	-1.0971989584	-0.282639
C	-1.4196740773	-2.1069792163	 0.2358376238	 0.433497
O	-0.1865236984	-2.7894271067	 0.2178082598	-0.489558
C	-2.2450996417	-2.6003344315	 1.4183544143	-0.141386
O	-2.3742560453	-4.0127927884	 1.2648862046	-0.437741
H	 1.0861708034	 1.8519724777	-0.6726208999	 0.110603
H	-0.6430155854	 1.8916603876	-1.0334670779	 0.113808
H	-0.090776862	 1.9569407436	 0.6434073226	 0.109607
H	 0.3158609203	-0.4588719609	-1.2281653516	 0.099196
H	 0.8298112816	-0.3861128867	 0.439936558	 0.107297
H	-1.569225084	-0.0696469714	 1.1503939129	 0.052883
H	-3.4001745435	-0.2717710276	-0.4864295376	 0.09574
H	-2.2246440178	 0.1076277481	-1.753825268	 0.097637
H	-3.1163317103	-2.6835027161	-1.1646368132	 0.098775
H	-1.5687498074	-2.2805466896	-1.9412790782	 0.106377
H	-0.3941256911	-3.7105892378	 0.422471435	 0.282579
H	-1.7137901089	-2.3520735636	 2.3492126665	 0.093283
H	-3.2292861436	-2.1094102733	 1.4392349888	 0.090353
H	-2.7024625437	-4.3847930577	 2.087875759	 0.293833
79.3394	105.8239	122.5611	156.1476	210.9767	245.5335	251.3436	298.5431	329.604	347.0687	421.8196	426.3437	460.3016	572.3168	681.4759	741.2955	773.7506	827.8421	895.3068	903.7216	931.6794	954.9684	972.3924	1006.0008	1038.6573	1057.6429	1087.4408	1096.8616	1147.5844	1175.5042	1205.8501	1211.9308	1229.0452	1248.3108	1263.5059	1273.9099	1296.7554	1306.5771	1334.5605	1378.6138	1405.5141	1410.6657	1444.252	1478.9981	1483.81	1497.1142	1499.7059	1506.2136	1508.3898	2981.5751	3011.2031	3022.7162	3027.7181	3038.1466	3058.5848	3068.2173	3069.8605	3095.8473	3100.144	3103.0114	3126.1346	3765.8276	3842.8874
CCC1CCC1(O)CO	CC[C@H]1CC[C@]1(O)CO	
InChI=1S/C7H14O2/c1-2-6-3-4-7(6,9)5-8/h6,8-9H,2-5H2,1H3	InChI=1S/C7H14O2/c1-2-6-3-4-7(6,9)5-8/h6,8-9H,2-5H2,1H3/t6-,7-/m0/s1
