25
gdb 121405	3.76805	0.81711	0.70973	0.8976	90.1	-0.2497	0.0891	0.3388	1694.0592	0.230644	-389.510371	-389.500726	-389.499782	-389.545062	36.58	
C	-0.0093572881	 1.4035877443	 0.0338034661	-0.224642
O	 0.0106963737	-0.001312818	 0.0045686932	-0.235033
C	-1.2811844775	-0.5731847965	-0.0100825885	-0.072618
C	-1.1568371894	-2.0932669485	 0.0148215574	 0.024055
C	-0.4504911881	-2.5867973045	 1.2887993217	-0.178818
C	-0.3372425764	-4.116977678	 1.3209725273	-0.200331
C	-1.7104495706	-4.7851148328	 1.1638548124	-0.176223
C	-2.4254830612	-4.2960841473	-0.1035865688	-0.198266
C	-2.5324574264	-2.7639927837	-0.1370866925	-0.196521
H	 1.0280288893	 1.7478462172	 0.0391521446	 0.124413
H	-0.518253608	 1.8256584631	-0.84801812	 0.100704
H	-0.5155240353	 1.7881115639	 0.9341431991	 0.101248
H	-1.8621158142	-0.2252724544	 0.8636323142	 0.078405
H	-1.8301575362	-0.2476264414	-0.9113851756	 0.078353
H	-0.5387906158	-2.3781004287	-0.8495507901	 0.075673
H	 0.5360049015	-2.1209497369	 1.3631075393	 0.106687
H	-1.0248979972	-2.2475256869	 2.1641091248	 0.082422
H	 0.3210600731	-4.4479316134	 0.5054944346	 0.091378
H	 0.1391724314	-4.4406478114	 2.2534345187	 0.087142
H	-1.6055473645	-5.8758683498	 1.1423891816	 0.086891
H	-2.3291658474	-4.5487634973	 2.0410827839	 0.089386
H	-1.8675345166	-4.6364058022	-0.9870316808	 0.091901
H	-3.4233917577	-4.7435428065	-0.1758417902	 0.087669
H	-3.1876089951	-2.4298714181	 0.6810054436	 0.089195
H	-3.0107741831	-2.4394087423	-1.069411596	 0.086929
75.229	96.9343	119.5388	185.5745	227.6455	240.7347	309.9041	323.3845	360.4908	440.8459	445.2425	479.3072	580.0352	788.8603	799.698	850.8986	864.5911	898.8635	925.4144	974.3522	979.6912	997.7383	1041.379	1070.2572	1090.8812	1106.3543	1115.2473	1161.2854	1174.4669	1189.423	1202.1744	1232.8679	1251.625	1278.9549	1289.3059	1297.8567	1321.2123	1340.7807	1368.9652	1377.9201	1380.11	1384.1164	1402.1208	1421.1534	1480.0469	1482.8943	1485.3069	1485.7201	1486.8776	1491.9328	1502.1355	1506.2218	1526.5754	2933.1802	2960.655	2966.0635	2993.7768	2997.3793	3006.5623	3006.6001	3009.0385	3011.2934	3015.3781	3049.658	3058.2471	3058.6665	3064.9397	3089.0887	3109.5169
COCC1CCCCC1	COCC1CCCCC1	
InChI=1S/C8H16O/c1-9-7-8-5-3-2-4-6-8/h8H,2-7H2,1H3	InChI=1S/C8H16O/c1-9-7-8-5-3-2-4-6-8/h8H,2-7H2,1H3
