17
gdb 33665	3.15365	1.43326	1.36458	1.2591	79.07	-0.2278	0.0347	0.2625	1013.5378	0.136755	-384.627201	-384.619984	-384.61904	-384.65866	29.163	
C	-0.023645137	-1.2143644223	-0.0312536395	-0.367934
C	-0.0220749236	-0.0104654379	-0.0009648427	 0.05107
C	-0.0026118706	 1.4027357189	 0.0387085911	 0.203423
C	-1.0127264891	 2.3566284504	 0.6867512339	-0.141611
C	-0.3044405728	 3.3097233767	 1.6498851943	-0.231267
C	 1.2106266236	 3.0844508565	 1.3708722712	-0.217346
C	 1.2069040287	 2.3803195346	 0.0221726236	 0.035032
O	 0.5253050114	 3.251347617	-0.9430361987	-0.305625
C	-0.6651658004	 2.492095535	-0.7750483659	 0.038938
H	-0.0279544487	-2.2753409974	-0.0635603316	 0.178574
H	-1.9941499043	 1.9589338666	 0.9184730182	 0.103645
H	-0.5914752871	 4.3470257652	 1.4554086534	 0.116898
H	-0.5653213057	 3.0834666301	 2.6868416695	 0.106752
H	 1.7778061474	 4.0184377604	 1.3350016927	 0.112235
H	 1.6664009952	 2.435625795	 2.1274947818	 0.108219
H	 2.1601220988	 2.0213034701	-0.3663650966	 0.093196
H	-1.365297956	 2.443523161	-1.6008164448	 0.115801
129.6221	150.0137	215.6699	361.3941	435.0402	492.625	521.1018	541.8967	563.8928	659.5814	668.2304	731.0472	758.356	827.6729	851.3024	886.9959	909.2671	923.1436	965.3742	1009.9235	1015.6543	1051.682	1056.0936	1079.3277	1143.5075	1162.8389	1192.1454	1254.7812	1262.1705	1285.6793	1296.5471	1331.5453	1347.2719	1437.727	1471.5302	1497.2009	2232.2492	3044.4097	3060.8608	3094.3914	3109.8208	3119.5763	3182.8281	3192.6979	3503.6571
C#CC12C3CCC1OC23	C#C[C@@]12[C@H]3CC[C@@H]1O[C@@H]23	
InChI=1S/C8H8O/c1-2-8-5-3-4-6(8)9-7(5)8/h1,5-7H,3-4H2	InChI=1S/C8H8O/c1-2-8-5-3-4-6(8)9-7(5)8/h1,5-7H,3-4H2/t5-,6-,7+,8+/m0/s1
