17
gdb 32812	3.33585	1.07802	0.82317	1.4014	72.1	-0.175	0.0422	0.2172	1367.9996	0.135625	-455.170267	-455.160991	-455.160047	-455.205969	32.809	
C	 0.0358130853	 1.5013362223	-0.0269353923	-0.390244
C	 0.0171468964	-0.0159682665	-0.0026818548	-0.035552
O	 0.688603213	-0.474530363	-1.1775586295	-0.306284
C	 0.7795732863	-1.8219298865	-1.3205773547	 0.247896
C	 1.4350821061	-2.4385824717	-2.3549998471	 0.269396
O	 2.1240118197	-1.9918408556	-3.4358263115	-0.444106
N	 1.2846413307	-3.7853701826	-2.1304599858	-0.298106
C	 0.5548148364	-3.9209306582	-0.9817995508	-0.007293
N	 0.237656918	-2.7477596551	-0.4746838046	-0.338533
H	 1.0629342862	 1.8779136532	-0.0328787341	 0.122803
H	-0.4747680145	 1.8821281394	-0.9163722768	 0.123612
H	-0.471736384	 1.8961613497	 0.8581975984	 0.118046
H	 0.5227384364	-0.4099082591	 0.8877180555	 0.110058
H	-1.008196853	-0.4049579773	 0.0106460522	 0.112669
H	 2.1100344561	-1.0289004758	-3.3997919675	 0.313635
H	 1.6546114836	-4.5154749258	-2.7154762111	 0.272394
H	 0.2919135072	-4.8832667074	-0.5732165955	 0.129609
18.6089	63.6027	132.2461	211.5623	245.3524	270.5251	286.7035	335.7269	347.1466	467.0823	543.7528	651.0823	653.0059	696.3109	716.1784	797.3038	811.3592	919.9785	957.5519	1072.0112	1101.7858	1125.2908	1152.8466	1184.2506	1225.5308	1288.0786	1289.7669	1351.2188	1393.1908	1413.3199	1432.0798	1484.2534	1498.3827	1503.3343	1525.924	1550.92	1692.6064	3023.4854	3043.3306	3057.5786	3118.6596	3118.9961	3265.6007	3669.6997	3825.3554
CCOC1=C(O)NC=N1	CCOc1c(O)[nH]cn1	
InChI=1S/C5H8N2O2/c1-2-9-5-4(8)6-3-7-5/h3,8H,2H2,1H3,(H,6,7)	InChI=1S/C5H8N2O2/c1-2-9-5-4(8)6-3-7-5/h3,8H,2H2,1H3,(H,6,7)
