16
gdb 47346	2.6314	1.44991	1.2684	2.5799	71.3	-0.2634	0.0144	0.2779	1046.1033	0.124359	-437.853016	-437.844896	-437.843952	-437.886037	30.302	
N	-0.0705075306	 1.2523389395	 0.1781177876	-0.511573
C	 0.1774443618	 0.0581979919	-0.1509063862	 0.412344
C	-0.6041286477	-1.1145471452	 0.3795816401	-0.331145
C	-0.9383472504	-2.1333505362	-0.727748443	-0.075798
O	-0.009575306	-2.0696821567	-1.8180832752	-0.228793
C	 1.2563505055	-1.6168852213	-1.4663011231	-0.022457
O	 1.2080292832	-0.2601894227	-0.9996610766	-0.237101
C	 1.9552354178	-2.4876981511	-0.5051238148	 0.314549
C	 2.540446019	-3.2179091117	 0.2482295827	-0.423807
H	 0.5912830685	 1.887751364	-0.2730223615	 0.222237
H	 0.0085669023	-1.5985584142	 1.1471497338	 0.146482
H	-1.5070592382	-0.7397638709	 0.8615348738	 0.142445
H	-0.960117794	-3.1506389384	-0.3196221105	 0.115789
H	-1.9117512563	-1.9188406414	-1.1752248634	 0.131213
H	 1.8304564387	-1.5680894305	-2.3952091254	 0.136267
H	 3.0621670465	-3.8591130452	 0.9161842216	 0.20935
72.7331	122.7546	144.0808	192.9084	301.5143	425.839	439.9831	476.1579	492.6705	607.5575	637.585	667.1179	679.4864	792.8275	812.2154	835.517	911.9252	919.1952	978.8784	1007.9432	1020.6877	1075.5759	1092.6529	1167.284	1244.9213	1261.3833	1306.5202	1344.7958	1369.1345	1393.484	1420.1671	1472.3929	1515.2764	1765.8671	2235.0108	3034.8219	3061.7405	3085.6403	3100.2527	3139.2607	3463.5293	3497.8934
N=C1CCOC(O1)C#C	[NH][C]1CCO[C@@H](O1)C#C	
InChI=1S/C6H7NO2/c1-2-6-8-4-3-5(7)9-6/h1,6-7H,3-4H2	InChI=1S/C6H7NO2/c1-2-6-8-4-3-5(7)9-6/h1,6-7H,3-4H2/t6-/m0/s1
