20
gdb 88480	2.21947	1.39917	1.17058	3.96	83.54	-0.2617	0.0335	0.2953	1183.6598	0.170622	-366.005251	-365.996097	-365.995153	-366.03932	34.508	
C	-0.5158854056	 1.3697024711	-0.0170197924	-0.426609
C	-0.0573555322	-0.0717301864	 0.040358923	 0.008046
C	 1.3597070118	-0.4653237316	-0.3016352595	-0.321008
C	 0.8650751988	-0.607224892	 1.1177120156	-0.090317
C	 1.4075183311	 0.2217330839	 2.2595954002	 0.204692
C	 0.6006900821	 0.2933398019	 3.5532412875	-0.287111
C	 1.8649746161	-0.5067039297	 3.5221857565	-0.300644
C	 2.1741328842	 1.3944321566	 1.9207062399	 0.23804
N	 2.7965129209	 2.3320025511	 1.6489278534	-0.372086
H	 0.2806818337	 2.0674545128	 0.2513603638	 0.147628
H	-0.8473328099	 1.6238614231	-1.029635771	 0.120276
H	-1.358784231	 1.545115934	 0.6607714804	 0.115208
H	-0.8198683054	-0.7824906944	-0.2699469623	 0.085629
H	 1.5401791313	-1.3658628153	-0.8781706271	 0.112083
H	 2.0603200564	 0.3395094074	-0.5009523867	 0.138369
H	 0.6469312562	-1.6214061699	 1.4414232129	 0.085731
H	 0.596554525	 1.2303045299	 4.0970707022	 0.139972
H	-0.3470164028	-0.2332607986	 3.5445373597	 0.130236
H	 1.7993187692	-1.5886549353	 3.4976396896	 0.130133
H	 2.73340671	-0.1164849986	 4.0389896843	 0.141731
47.64	135.3746	152.6316	208.2341	229.0574	243.0746	288.8908	349.7215	411.5782	500.9978	580.5867	598.6187	666.1255	772.1999	778.9094	840.9426	854.9126	887.2022	917.6076	943.6313	969.9481	978.4369	1049.3032	1067.7606	1083.7719	1087.4699	1093.9312	1121.9532	1148.8009	1195.6185	1200.2455	1228.0958	1265.4722	1332.7148	1391.1634	1416.9351	1427.8169	1467.994	1493.7748	1495.1285	1500.0086	1506.157	2343.7051	3033.8406	3089.3897	3118.0869	3130.8386	3133.2476	3140.8045	3142.1237	3145.7192	3217.2773	3227.3598	3241.4956
CC1CC1C1(CC1)C#N	C[C@H]1C[C@H]1C1(CC1)C#N	
InChI=1S/C8H11N/c1-6-4-7(6)8(5-9)2-3-8/h6-7H,2-4H2,1H3	InChI=1S/C8H11N/c1-6-4-7(6)8(5-9)2-3-8/h6-7H,2-4H2,1H3/t6-,7+/m0/s1
