17
gdb 25802	4.09425	1.07991	0.86364	2.799	81.26	-0.2293	-0.0459	0.1834	1324.1343	0.136034	-418.088621	-418.079674	-418.07873	-418.12314	31.605	
C	 0.0089397729	 1.473161671	 0.0129146519	-0.477907
C	-0.0098317364	-0.0369063248	-0.0190171673	 0.315359
O	 1.0004310103	-0.7195979018	-0.0679586428	-0.348502
C	-1.3238447845	-0.6912675827	 0.0113081182	 0.242916
N	-2.5239478633	-0.135551656	 0.0639766364	-0.300375
C	-3.4020453461	-1.1786440357	 0.0710773597	-0.168318
C	-2.7378077868	-2.3930348265	 0.0222607541	 0.305513
C	-3.2339218476	-3.7984545169	 0.0087959498	-0.507555
N	-1.4146028827	-2.056113388	-0.0152110781	-0.316943
H	 1.0414183994	 1.8225130905	-0.0135073927	 0.134463
H	-0.5507766233	 1.8758611411	-0.8368774669	 0.152257
H	-0.4933981235	 1.8382483305	 0.9139867869	 0.152268
H	-4.4703899807	-1.0228893498	 0.1105833766	 0.111924
H	-2.9236480864	-4.3325993248	-0.8968250249	 0.140339
H	-2.8671031974	-4.3695006447	 0.8696717325	 0.140394
H	-4.3254722994	-3.8070252591	 0.0435742638	 0.146657
H	-0.6083653046	-2.6605637023	-0.0556297873	 0.27751
49.1549	102.1034	119.926	154.8452	158.481	288.6573	304.4493	378.6191	531.6611	566.2105	611.0638	641.2382	683.2887	691.446	739.2042	851.0676	943.6232	991.6484	1014.3258	1042.179	1043.9303	1063.0733	1121.988	1192.6667	1243.9765	1311.8784	1382.8718	1405.5687	1418.0713	1456.3173	1457.693	1466.0856	1481.165	1498.3138	1504.5472	1601.7606	1753.9504	3028.5746	3050.7879	3078.2989	3113.8013	3128.3324	3159.3606	3240.6698	3645.2734
CC(=O)C1=NC=C(C)N1	CC(=O)c1ncc(C)[nH]1	
InChI=1S/C6H8N2O/c1-4-3-7-6(8-4)5(2)9/h3H,1-2H3,(H,7,8)	InChI=1S/C6H8N2O/c1-4-3-7-6(8-4)5(2)9/h3H,1-2H3,(H,7,8)
