18
gdb 78839	3.38165	1.2931	1.09847	2.8893	77.79	-0.2229	-0.0173	0.2056	1124.5509	0.147211	-401.879912	-401.872145	-401.871201	-401.912283	29.964	
C	 0.0163334208	 1.5381020867	 0.0590036483	-0.335713
N	 0.1388171745	 0.0874978828	 0.0200991407	-0.068771
C	 0.7523596807	-0.5593169174	-1.1277822787	-0.03683
C	 2.2913700326	-0.6441200632	-0.9044807981	-0.10133
C	 1.3290710844	-1.6567820594	-0.3029547059	-0.109404
C	 1.1463847839	-0.6040956289	 0.856108513	-0.041357
C	 2.5644185965	-0.0082079173	 0.4596503754	-0.121847
C	 3.6582303634	-0.7172768005	 1.200592123	 0.16414
O	 4.5135664473	-0.1696298896	 1.8521098343	-0.269108
H	 0.9327084407	 2.0842884194	-0.2111703921	 0.111412
H	-0.7739472665	 1.8406566558	-0.6355852706	 0.125496
H	-0.2871629968	 1.844621152	 1.0650882141	 0.126329
H	 0.3079911911	-0.5823323928	-2.1149995066	 0.105453
H	 2.9886384077	-0.7895495995	-1.7199623042	 0.09876
H	 1.2463293979	-2.7314794458	-0.3545930732	 0.107503
H	 0.8953772057	-0.7796304908	 1.9007153069	 0.092117
H	 2.7109672766	 1.070990139	 0.5454917712	 0.083281
H	 3.6245070395	-1.8282776404	 1.1145199824	 0.069868
95.5644	151.1104	186.141	231.3382	281.8555	336.6817	442.4106	529.2539	604.8031	674.9774	755.524	789.5907	800.0836	840.1111	846.214	890.3619	960.1194	976.8594	1010.7572	1023.8326	1047.855	1066.1742	1072.6059	1119.8235	1131.0561	1161.0853	1174.2055	1197.6929	1209.4342	1230.4379	1253.9686	1276.8981	1327.2246	1356.8482	1429.72	1446.6502	1484.101	1506.9184	1817.3828	2862.1877	2988.0094	3069.3714	3090.9714	3105.7048	3133.5123	3193.0286	3200.2705	3237.2173
CN1C2C3C2C1C3C=O	CN1[C@H]2[C@@H]3[C@H]2[C@H]1[C@H]3C=O	
InChI=1S/C7H9NO/c1-8-6-3(2-9)4-5(6)7(4)8/h2-7H,1H3	InChI=1S/C7H9NO/c1-8-6-3(2-9)4-5(6)7(4)8/h2-7H,1H3/t3-,4-,5-,6+,7-/m0/s1
