18
gdb 54193	2.74459	1.48653	1.22546	2.0167	71.35	-0.2355	-0.0239	0.2116	1071.2568	0.14554	-439.049085	-439.040296	-439.039352	-439.082698	33.153	
C	 0.0932150754	 1.376165299	 0.5491033941	-0.475054
C	 0.0584734389	 0.0752424574	-0.2190615578	 0.363228
O	 1.025195299	-0.3687054071	-0.7988584865	-0.310374
C	-1.2520494508	-0.7132243013	-0.2126043711	 0.30114
O	-2.3087415998	 0.1922581457	 0.02404522	-0.488406
C	-1.5002934117	-1.7238349932	-1.3646398353	-0.229449
N	-1.6699130485	-2.8808460712	-0.4060710574	-0.131869
C	-0.3688921488	-3.0142423093	 0.2721733978	-0.24369
C	-1.2803893756	-1.9435380473	 0.7220412449	-0.12229
H	 1.1087540027	 1.7729738857	 0.5481822133	 0.135701
H	-0.5968061217	 2.0918587019	 0.0917501712	 0.159027
H	-0.2598060985	 1.2261136027	 1.5746185449	 0.142433
H	-3.1231212309	-0.3135637483	 0.1225450998	 0.288851
H	-2.4364256059	-1.5158752093	-1.8879204089	 0.111005
H	-0.6868655915	-1.8550547013	-2.0814893071	 0.12874
H	-0.3069036262	-3.9010836089	 0.8954396972	 0.124538
H	 0.5396012826	-2.753366458	-0.2626146133	 0.14776
H	-1.7856415689	-1.9441289472	 1.6843838639	 0.09871
46.5199	147.9752	159.1797	203.9803	275.6237	313.1518	345.873	388.839	436.772	474.1056	547.1307	602.2192	621.1419	747.2769	784.9726	822.3211	904.0611	939.4085	955.4131	967.4873	1026.6897	1050.9706	1061.3652	1093.4884	1115.7346	1127.1892	1190.0095	1205.2427	1212.9858	1223.057	1275.2462	1338.1921	1378.6487	1402.0204	1455.7933	1466.3986	1480.3461	1501.0815	1801.9366	3047.7475	3065.6356	3111.0095	3119.7957	3130.183	3147.0611	3158.5191	3212.5354	3802.1952
CC(=O)C1(O)CN2CC12	CC(=O)[C@@]1(O)CN2C[C@@H]12	
InChI=1S/C6H9NO2/c1-4(8)6(9)3-7-2-5(6)7/h5,9H,2-3H2,1H3	InChI=1S/C6H9NO2/c1-4(8)6(9)3-7-2-5(6)7/h5,9H,2-3H2,1H3/t5-,6-,7?/m0/s1
