21
gdb 114071	2.87518	1.21477	0.99104	2.5711	80.23	-0.2382	0.082	0.3203	1299.1748	0.179253	-424.193298	-424.18337	-424.182426	-424.227807	36.511	
C	 0.0254089221	 1.3384490584	-0.214195878	-0.233861
O	-0.0901687655	 0.0614177531	 0.370935513	-0.243234
C	-1.3211255582	-0.5521968838	 0.1263793936	 0.102588
C	-1.622924168	-1.1731438347	-1.2911276513	-0.341194
C	-1.8310764711	-2.5197060363	-0.5778690404	 0.346079
C	-2.717720028	-3.655099521	-0.9730219779	-0.500285
O	-0.5675227286	-2.8163818284	 0.0370246429	-0.31953
C	-1.4705414407	-1.9481831281	 0.7424812718	 0.316345
C	-1.8256288466	-2.2953203427	 2.1514712871	-0.512999
H	 1.0061097772	 1.7342538251	 0.0601082664	 0.128661
H	-0.044684548	 1.2967917544	-1.311557044	 0.108704
H	-0.7521393412	 2.0271821031	 0.1538667835	 0.100932
H	-2.1522505381	 0.1022547906	 0.4378045526	 0.062596
H	-2.5152315378	-0.7575003051	-1.765758903	 0.098059
H	-0.7849832861	-1.1713206096	-1.9920180808	 0.110209
H	-2.3340197996	-4.1506272145	-1.8722149994	 0.132372
H	-2.7715334086	-4.4002026638	-0.1746331632	 0.131619
H	-3.7299506345	-3.3000543724	-1.1925344733	 0.121811
H	-0.9888602089	-2.0727590969	 2.8225272203	 0.141034
H	-2.6921254258	-1.7174070518	 2.4893620557	 0.11995
H	-2.056888804	-3.3601896057	 2.2398346445	 0.130146
90.0636	118.8886	167.8807	180.4874	191.3518	196.4484	227.9532	293.1834	328.1093	343.3581	467.1121	485.7122	559.8874	613.7003	716.5618	748.15	825.3631	855.7189	917.4101	957.9931	980.0154	1022.2041	1078.0245	1091.6124	1133.0716	1163.5981	1170.395	1184.6116	1197.0737	1213.8007	1232.6911	1253.4459	1321.1894	1382.0376	1408.5633	1412.2999	1454.9323	1474.539	1476.2238	1482.5434	1488.5428	1489.2229	1495.6799	1508.19	1525.9066	2962.5642	2972.9331	3020.0658	3032.824	3035.7138	3063.0404	3093.9727	3098.5353	3115.5726	3118.0178	3119.7559	3124.3026
COC1CC2(C)OC12C	CO[C@H]1C[C@@]2(C)O[C@@]12C	
InChI=1S/C7H12O2/c1-6-4-5(8-3)7(6,2)9-6/h5H,4H2,1-3H3	InChI=1S/C7H12O2/c1-6-4-5(8-3)7(6,2)9-6/h5H,4H2,1-3H3/t5-,6+,7-/m0/s1
