17
gdb 37833	2.94329	1.94573	1.67446	0.9702	70.76	-0.2305	0.0521	0.2826	869.5024	0.136299	-421.705238	-421.698689	-421.697745	-421.735894	27.226	
C	-0.0130306442	 1.4835551994	 0.0326850598	-0.206587
C	 1.4482827996	 2.0122952533	-0.1648559212	-0.352712
C	 2.0654388064	 0.886486696	-0.9443092703	 0.376548
O	 1.7504380902	 0.6580900534	-2.3609106513	-0.355205
C	 2.0378421639	-0.6799121176	-1.8714853448	-0.031189
C	 3.1657915361	-0.2227692271	-0.8709620372	-0.041718
O	 2.5732387253	-0.8751718729	 0.2837221126	-0.350553
C	 1.3987661727	-0.4162470768	-0.4744176742	 0.382188
C	 0.0725588094	-0.0804110395	 0.1713741855	-0.355686
H	-0.507078458	 1.9488301428	 0.8898315567	 0.105242
H	-0.5995784522	 1.7318567231	-0.8564304963	 0.125334
H	 1.4864931397	 2.986222166	-0.6578595792	 0.121291
H	 1.9633396473	 2.0913218049	 0.7985655826	 0.127513
H	 1.9886522355	-1.5190450163	-2.5667314212	 0.100638
H	 4.2520981224	-0.2041348379	-0.9638718104	 0.100834
H	 0.1195980169	-0.3863838329	 1.2207936338	 0.132587
H	-0.7869777411	-0.5795669779	-0.280929405	 0.121473
139.3389	225.2701	279.6322	432.9067	464.3665	524.9175	585.821	660.4653	698.9839	748.4076	783.5633	802.6126	821.798	833.9236	879.9363	917.9998	934.0049	947.351	967.5409	977.622	984.9967	1094.0983	1111.7127	1137.0136	1161.7921	1190.5465	1193.0252	1245.015	1260.1815	1276.1738	1309.128	1317.8213	1351.2378	1383.3282	1463.1285	1468.9714	1492.7482	3057.5469	3061.3143	3067.669	3102.0166	3109.2617	3115.1256	3123.0512	3124.8596
C1CC23OC4C2OC34C1	C1C[C@@]23O[C@H]4[C@@H]2O[C@@]34C1	
InChI=1S/C7H8O2/c1-2-6-4-5(8-6)7(6,3-1)9-4/h4-5H,1-3H2	InChI=1S/C7H8O2/c1-2-6-4-5(8-6)7(6,3-1)9-4/h4-5H,1-3H2/t4-,5-,6+,7+/m0/s1
