22
gdb 79818	2.08288	1.89172	1.60889	1.5375	84.28	-0.2301	0.0809	0.311	1023.8112	0.195645	-367.187316	-367.179167	-367.178223	-367.219236	33.233	
C	-0.2554569163	 1.5799292973	-0.0174685361	-0.429318
C	 0.041120237	 0.0833668193	 0.0200918002	-0.012157
C	 0.977449016	-0.5872011969	-0.998396648	-0.06888
C	 1.5477873668	-1.4783255009	 0.0585682084	-0.103919
N	 2.4063206651	-0.546296941	-0.6489997798	-0.09803
C	 2.8550020048	 0.5148355217	 0.2792161113	-0.166475
C	 2.0421864927	 0.3414285525	 1.5870595113	-0.259872
C	 0.8941482538	-0.5881833217	 1.1656463952	 0.296296
C	 0.1272034903	-1.2438306965	 2.2975178674	-0.492261
H	 0.6436629651	 2.1987393943	 0.0352580431	 0.117875
H	-0.7744101761	 1.8382088132	-0.9476367452	 0.116119
H	-0.9099309999	 1.8723032213	 0.8117188267	 0.113778
H	-0.9122251095	-0.4576919694	-0.0287705266	 0.072243
H	 0.7373750965	-0.8014590564	-2.0353502665	 0.083831
H	 1.754952907	-2.5424620976	 0.0793910639	 0.083146
H	 3.9276141707	 0.379124627	 0.4485000928	 0.104706
H	 2.7224077548	 1.495480706	-0.1860350779	 0.106329
H	 2.6478524908	-0.1379481327	 2.3650324113	 0.093179
H	 1.6825051442	 1.2921718446	 1.9934359267	 0.097535
H	-0.391753897	-0.498426237	 2.9109006	 0.116793
H	-0.6264038864	-1.9418556314	 1.9174274008	 0.115194
H	 0.7997661395	-1.8033676355	 2.9584408908	 0.113887
183.2002	195.502	214.0435	235.4033	257.1977	293.7113	330.1003	449.3141	540.0968	580.1896	639.1422	710.284	730.8455	789.9259	835.3421	851.7653	861.3872	908.3996	921.7265	939.1646	974.7317	1018.664	1029.762	1047.4391	1070.0465	1100.331	1120.2571	1144.4207	1178.4169	1202.907	1214.6718	1230.3715	1245.8303	1269.4586	1282.8803	1325.5334	1335.6222	1373.5224	1391.7796	1409.31	1415.0777	1483.2916	1493.2116	1493.7881	1495.8327	1504.1767	1517.1116	3020.2375	3022.5072	3031.2807	3033.4881	3053.9238	3075.2818	3084.3226	3086.8621	3091.5845	3097.1062	3120.1737	3151.8332	3174.5517
CC1C2C3N2CCC13C	C[C@H]1[C@@H]2[C@H]3N2CC[C@@]13C	
InChI=1S/C8H13N/c1-5-6-7-8(5,2)3-4-9(6)7/h5-7H,3-4H2,1-2H3	InChI=1S/C8H13N/c1-5-6-7-8(5,2)3-4-9(6)7/h5-7H,3-4H2,1-2H3/t5-,6+,7+,8-,9?/m0/s1
