20
gdb 113780	3.08543	0.96704	0.94797	0.6761	74.8	-0.251	0.0615	0.3125	1345.4903	0.169652	-440.229012	-440.219472	-440.218528	-440.264326	35.131	
C	-0.5608317163	-0.8765261743	 3.4961291259	-0.449048
C	-0.3189441992	-0.8915926804	 2.0048663841	 0.396373
C	 0.8791599549	-0.2502455618	 1.4361181287	-0.21231
O	 0.8235511913	-1.6675802311	 1.5967290493	-0.279949
C	-1.5088042064	-1.1057856698	 1.092747473	-0.109201
N	-2.8558308454	-1.1258281484	 1.6803556255	-0.353063
C	-2.5096550801	-0.0689236591	 0.7114924375	-0.030864
C	-2.5395566429	 1.3343665442	 1.2710334487	-0.070295
O	-3.8647535358	 1.7310540015	 1.5777966604	-0.420205
H	 0.389835617	-0.7706625429	 4.0243636357	 0.120818
H	-1.2247449307	-0.0594966831	 3.7889253059	 0.129654
H	-1.037897404	-1.8090275033	 3.8109638951	 0.133016
H	 0.86366069	 0.104055597	 0.4054833425	 0.109125
H	 1.5764221107	 0.2708838725	 2.0918608612	 0.111408
H	-1.2831571033	-1.8431916436	 0.3245631971	 0.101953
H	-3.4262807512	-1.8473086435	 1.2499948602	 0.239261
H	-2.9385973836	-0.1591696454	-0.2853084425	 0.092839
H	-1.8857555391	 1.4068690979	 2.1515942898	 0.091829
H	-2.1674696442	 2.0454128142	 0.5258370885	 0.10918
H	-4.2114094717	 1.0533063294	 2.1703466337	 0.289481
33.2608	66.4279	140.1403	189.4086	202.282	276.7139	328.2219	370.6405	382.6766	433.1287	448.7621	505.4202	600.0348	709.7551	806.118	833.536	871.5648	914.9893	927.4439	964.2256	991.0286	1002.9699	1034.6591	1072.7946	1100.156	1119.6823	1136.6339	1166.7839	1178.7602	1198.0905	1253.1719	1271.7036	1302.7725	1357.8768	1367.8447	1402.8164	1418.4696	1436.6368	1469.7516	1477.6555	1492.4813	1504.7544	1528.3092	3009.9338	3051.3231	3073.3745	3074.6162	3118.6863	3121.1011	3129.7489	3133.0125	3158.6796	3517.3305	3790.0888
CC1(CO1)C1NC1CO	C[C@]1(CO1)[C@H]1N[C@H]1CO	
InChI=1S/C6H11NO2/c1-6(3-9-6)5-4(2-8)7-5/h4-5,7-8H,2-3H2,1H3	InChI=1S/C6H11NO2/c1-6(3-9-6)5-4(2-8)7-5/h4-5,7-8H,2-3H2,1H3/t4-,5-,6-/m0/s1
