16
gdb 87333	1.90113	1.45342	0.96258	4.53	71.74	-0.2916	-0.0201	0.2715	1233.1693	0.121766	-437.902481	-437.893252	-437.892308	-437.937039	32.312	
C	-0.0050931155	 1.5142700141	 0.0855153962	-0.409807
C	 0.0973034576	 0.0067954566	 0.0362105806	-0.053081
C	 1.4276446287	-0.689691698	-0.0472657657	-0.337906
C	 0.6185259529	-0.7600994563	 1.2384295114	 0.241489
O	 1.0279584277	 0.0265028274	 2.3363676034	-0.2257
C	 2.1194783675	-0.4069050473	 3.0302486494	 0.163714
O	 2.5501827851	 0.1999642549	 3.9582275398	-0.250495
C	-0.0202875254	-2.0020173352	 1.603794634	 0.262681
N	-0.5270040636	-3.0017971729	 1.889123947	-0.330764
H	 0.8144550202	 1.9529986306	 0.6577747233	 0.142281
H	 0.0249209415	 1.9216780028	-0.9297015081	 0.132428
H	-0.9449843085	 1.8263375508	 0.54996749	 0.140527
H	-0.721380606	-0.4934347301	-0.4720078983	 0.125949
H	 1.5243393015	-1.5949110611	-0.634788918	 0.148826
H	 2.3193375522	-0.0734531272	 0.0039785285	 0.143215
H	 2.5317082441	-1.351833949	 2.6347391465	 0.106643
68.2979	129.8375	137.3563	149.3124	164.8481	194.454	283.1033	358.0224	408.2202	487.3408	519.5008	574.0847	601.1666	772.0753	809.6645	901.7336	928.2474	964.147	1029.2531	1040.9981	1072.8349	1088.2109	1130.1769	1142.0077	1196.7055	1249.2866	1274.5455	1402.6389	1421.2168	1423.654	1474.6454	1491.403	1501.0395	1880.579	2350.9791	2990.5412	3048.5707	3113.2489	3135.1415	3140.2224	3164.7647	3234.9802
CC1CC1(OC=O)C#N	C[C@H]1C[C@]1(OC=O)C#N	
InChI=1S/C6H7NO2/c1-5-2-6(5,3-7)9-4-8/h4-5H,2H2,1H3	InChI=1S/C6H7NO2/c1-5-2-6(5,3-7)9-4-8/h4-5H,2H2,1H3/t5-,6-/m0/s1
