17
gdb 62335	3.65379	1.11103	1.08699	2.7567	80.84	-0.2438	-0.0225	0.2213	1168.4338	0.13363	-384.64699	-384.638432	-384.637488	-384.679893	32.813	
C	-0.0064013437	 1.5320605481	 0.0074787671	-0.468654
C	 0.0598358878	 0.0104268568	-0.0585033702	 0.118744
C	-1.0984015192	-0.6334887945	 0.5162359136	 0.247128
C	-2.0755210785	-1.1432024965	 0.9973801051	-0.412763
C	 0.6932194467	-0.7639792039	-1.1839709377	-0.087275
C	 1.8864364398	-0.01229997	-1.7905953892	-0.382405
C	 2.5372546095	-0.0566978878	-0.3806070121	 0.39785
O	 3.6275294371	 0.2235677573	 0.0271272789	-0.307666
C	 1.3609033016	-0.7826632523	 0.2114173036	-0.207411
H	 0.8943987433	 2.0053361064	-0.3868542838	 0.133086
H	-0.8670043515	 1.8973835732	-0.5610695147	 0.132739
H	-0.1270567285	 1.8540989243	 1.0453891684	 0.139252
H	-2.9374821401	-1.5956798053	 1.4216686366	 0.196671
H	 0.1724968725	-1.5856166344	-1.6564791815	 0.115625
H	 2.4706459446	-0.6368192733	-2.473391244	 0.137473
H	 1.7099828905	 0.9581207759	-2.2603209847	 0.126195
H	 1.3801998881	-1.5424204739	 0.9817886146	 0.121411
106.5889	133.2755	159.88	184.8293	285.627	323.9775	409.6938	429.8565	517.4894	542.4011	563.3538	606.5107	641.3962	654.1196	663.4176	810.5863	837.4009	880.9232	932.96	983.3678	992.9603	999.6883	1024.4509	1070.8975	1102.7878	1121.2886	1176.8532	1221.9401	1256.8791	1274.271	1356.1667	1420.6198	1458.1599	1487.8813	1500.5218	1882.9926	2235.5165	3049.0401	3063.7787	3115.5192	3116.1686	3136.7063	3205.781	3215.9125	3502.4798
CC1(C#C)C2CC(=O)C12	C[C@@]1(C#C)[C@H]2CC(=O)[C@@H]12	
InChI=1S/C8H8O/c1-3-8(2)5-4-6(9)7(5)8/h1,5,7H,4H2,2H3	InChI=1S/C8H8O/c1-3-8(2)5-4-6(9)7(5)8/h1,5,7H,4H2,2H3/t5-,7-,8+/m0/s1
