12
gdb 129267	5.83952	1.09286	0.92057	1.0944	76.34	-0.2591	-0.104	0.1551	1159.9347	0.076542	-431.596494	-431.589091	-431.588147	-431.628784	27.288	
N	-0.0357016924	 1.178146107	 0.5861554037	-0.517812
C	-0.0250251512	 0.0412646834	 0.0293946062	 0.406374
O	 1.1324424878	-0.547348673	-0.4343276628	-0.271438
N	 1.1255154622	-1.7993598013	-1.0446405323	-0.112783
C	-0.0261248637	-2.3823498877	-1.153949231	 0.196156
N	-1.2701042986	-1.8914155322	-0.7246659354	-0.259273
C	-1.2445949738	-0.7398304102	-0.1662282436	-0.018093
C	-0.0308103805	-3.6634448466	-1.7785766113	 0.297706
C	-0.0617735609	-4.7448154241	-2.3017101866	-0.339315
H	 0.9029088585	 1.5786468141	 0.6387395183	 0.241661
H	-2.1688560129	-0.2922616733	 0.1931235279	 0.163479
H	-0.0848384346	-5.700937076	-2.7649171231	 0.213338
56.6313	150.5936	201.2626	317.0128	396.7342	420.0156	448.1731	531.1017	570.7465	631.8837	653.4314	681.9675	738.8921	783.9948	797.9937	882.9717	930.0004	992.7942	1000.5243	1092.5704	1277.6688	1326.8027	1360.1182	1555.6635	1671.8909	1735.8573	2245.1364	3168.4651	3477.5504	3499.5984
N=C1ON=C(N=C1)C#C	[NH]C1=C[N]C(=NO1)C#C	
InChI=1S/C5H3N3O/c1-2-5-7-3-4(6)9-8-5/h1,3,6H	InChI=1S/C5H3N3O/c1-2-5-7-3-4(6)9-8-5/h1,3,6H
