15
gdb 61100	2.40111	1.24115	1.03254	5.5734	75.44	-0.3036	-0.0118	0.2918	1184.009	0.10991	-379.658823	-379.649276	-379.648331	-379.693242	33.885	
C	-0.0168936158	 1.5638815731	-0.0457632188	-0.411943
C	 0.0019068029	 0.0135790407	-0.0394984341	-0.138998
C	 0.7758191563	-0.5336926394	 1.2106136373	-0.350804
C	 2.1427516393	-0.0303511216	 1.308973227	 0.275963
N	 3.2184421223	 0.3820015499	 1.3932352564	-0.297149
C	-1.3651079572	-0.5160410953	 0.00931959	 0.327626
C	-2.4867693046	-0.9355246938	 0.0879226847	-0.419503
C	 0.6643150549	-0.4718245248	-1.2675885155	 0.307699
N	 1.1890618259	-0.8431816179	-2.2268495702	-0.324466
H	 1.0029059162	 1.953151452	-0.0783616015	 0.166228
H	-0.5665447363	 1.9278536987	-0.915039882	 0.155566
H	-0.5130416556	 1.9229009055	 0.8592404521	 0.140328
H	 0.2186615921	-0.2388253783	 2.1050427741	 0.17167
H	 0.7911017273	-1.6264230431	 1.1782833501	 0.180712
H	-3.4804686876	-1.3091460158	 0.1389219902	 0.217072
71.8031	114.1336	128.5018	178.9835	192.1773	236.3733	270.8893	334.4666	393.8296	452.3142	492.0285	494.4111	576.9778	599.5855	663.1341	678.8792	712.7665	881.0097	925.1504	960.5482	979.2946	1089.9927	1157.8019	1188.1513	1276.9035	1335.6921	1410.7625	1459.0565	1486.3228	1495.1806	2246.5096	2364.5323	2367.035	3058.191	3066.762	3113.9846	3141.6234	3152.1799	3497.135
CC(CC#N)(C#C)C#N	C[C@@](CC#N)(C#C)C#N	
InChI=1S/C7H6N2/c1-3-7(2,6-9)4-5-8/h1H,4H2,2H3	InChI=1S/C7H6N2/c1-3-7(2,6-9)4-5-8/h1H,4H2,2H3/t7-/m0/s1
