15
gdb 130061	3.96558	0.99016	0.90695	4.7367	73.62	-0.2137	0.0045	0.2182	1275.0307	0.114581	-413.012886	-413.004702	-413.003757	-413.046697	29.742	
N	 0.0062852739	 1.3899707084	-0.0493719769	-0.58572
C	 0.0376175128	 0.0011690256	-0.0140300677	 0.394157
N	-1.0573848175	-0.713352775	-0.2543373471	-0.34311
N	-0.6645248775	-2.006848151	-0.0773042113	 0.053712
C	-1.6551115747	-3.050712006	-0.1382392643	-0.288043
C	-2.3094212036	-3.3191876818	 1.1546954951	 0.277294
N	-2.8159765157	-3.5491341439	 2.1665704833	-0.295281
C	 0.6408954253	-2.1046639168	 0.2762473966	-0.007092
C	 1.1428380117	-0.825924625	 0.3224125578	-0.300516
H	 0.8480520469	 1.8101969468	-0.4169339441	 0.249144
H	-0.8152737713	 1.7434300283	-0.5215166366	 0.254251
H	-2.4136614952	-2.7513180535	-0.8662376777	 0.181238
H	-1.1890015215	-3.9749458019	-0.4937814378	 0.165909
H	 1.1037552075	-3.0609064297	 0.4654727244	 0.137945
H	 2.150533949	-0.5261403446	 0.5593231862	 0.106113
36.9164	73.7064	231.3762	256.7477	286.9871	324.3801	365.7113	440.6562	485.6831	609.2289	652.0418	694.0945	738.5651	768.6441	776.8762	825.9569	918.2895	958.415	1003.3621	1019.6326	1074.7294	1132.352	1215.3567	1262.713	1355.722	1377.0457	1430.3437	1448.4745	1469.7701	1529.5432	1600.2511	1651.5945	2365.7897	3064.1223	3115.2169	3252.8592	3274.3068	3554.6955	3653.0631
NC1=NN(CC#N)C=C1	Nc1nn(CC#N)cc1	
InChI=1S/C5H6N4/c6-2-4-9-3-1-5(7)8-9/h1,3H,4H2,(H2,7,8)	InChI=1S/C5H6N4/c6-2-4-9-3-1-5(7)8-9/h1,3H,4H2,(H2,7,8)
