19
gdb 59138	4.20482	1.07098	0.98338	2.6695	74.9	-0.2304	0.0672	0.2976	1239.2626	0.157897	-422.923522	-422.915359	-422.914415	-422.956429	31.733	
C	 0.0597473292	 1.5582103404	-0.0768979156	-0.409793
C	 0.0729034106	 0.0376404976	 0.0874022753	 0.110171
O	 0.6471818811	-0.3454177138	 1.3361661417	-0.440313
C	-1.3259143678	-0.5568997154	 0.0738076723	-0.007262
C	-2.0545314222	-0.7395579659	-1.2786067862	-0.115414
C	-1.3033421762	-2.0745789257	-1.5944713854	 0.08518
O	-2.5167174503	-2.8386884861	-1.8586115619	-0.330438
C	-2.8581954213	-1.9652477855	-0.7424189466	 0.082155
C	-1.4715339528	-2.0907786232	-0.039472032	-0.100933
H	 1.0780481141	 1.963467212	-0.0482803318	 0.10506
H	-0.38402959	 1.8487784306	-1.0346484164	 0.120153
H	-0.5153183006	 2.0233917726	 0.7302132669	 0.125089
H	 0.6538711346	-0.4026855749	-0.7413886918	 0.05955
H	 1.51496109	 0.0654898805	 1.4038086801	 0.280189
H	-1.9298973464	-0.1008641584	 0.8671104689	 0.071753
H	-2.4031742354	 0.000169295	-1.9998112021	 0.081637
H	-0.4285348696	-2.2646247908	-2.2147379393	 0.096574
H	-3.8629375225	-2.0106501046	-0.3231802299	 0.096062
H	-1.1522560344	-2.8734126144	 0.6467136938	 0.09058
67.8805	154.9615	158.9771	243.8584	287.5969	317.049	415.7387	466.3444	502.6067	572.1677	750.2689	783.8274	797.3746	835.9192	848.3772	883.9342	895.116	914.9394	935.1255	973.5436	1001.2749	1030.0282	1082.5137	1100.0143	1113.3429	1131.9067	1135.6476	1153.5916	1169.9442	1171.3812	1182.9016	1235.2443	1262.9716	1282.6646	1335.1108	1357.8764	1370.7113	1403.4232	1445.8022	1492.4354	1500.6998	2949.7271	3026.3944	3042.0097	3092.8098	3110.8062	3111.8621	3123.1889	3127.8361	3143.7895	3815.2623
CC(O)C1C2C3OC2C13	C[C@@H](O)[C@H]1[C@H]2[C@@H]3O[C@H]2[C@H]13	
InChI=1S/C7H10O2/c1-2(8)3-4-6-5(3)7(4)9-6/h2-8H,1H3	InChI=1S/C7H10O2/c1-2(8)3-4-6-5(3)7(4)9-6/h2-8H,1H3/t2-,3-,4-,5+,6-,7+/m1/s1
