19
gdb 72887	2.93259	1.53102	1.22257	1.3393	75.86	-0.2303	0.061	0.2913	1080.8552	0.15783	-422.97201	-422.963797	-422.962852	-423.004652	31.921	
C	-0.309764172	 1.5657219828	-0.0436866118	-0.483549
C	 0.0651100326	 0.1144942831	 0.0603239702	 0.395119
C	-1.0092985495	-0.9866413383	 0.1877905852	-0.121254
O	-0.2792320636	-1.6322449774	 1.2622779145	-0.29061
C	 0.7615520759	-0.6403453286	 1.2206819966	-0.102666
C	 1.8430874028	-0.9278330196	 0.196718682	 0.451726
C	 3.3289891056	-0.8297954994	 0.3195506863	-0.342498
C	 2.6557163238	-2.153942558	-0.0211091808	-0.332209
O	 1.1216679599	-0.2692349502	-0.8577588404	-0.354402
H	 0.5701451302	 2.2023044817	 0.0827186633	 0.131606
H	-0.7380008181	 1.773302955	-1.0308505129	 0.134024
H	-1.0523712968	 1.8326741371	 0.7142089797	 0.124461
H	-1.9949732623	-0.6460592708	 0.5294465151	 0.099562
H	-1.1162691433	-1.6227411111	-0.6970648449	 0.112205
H	 1.033365195	-0.2588308273	 2.2069985062	 0.08558
H	 3.8543072305	-0.3178773369	-0.4795996318	 0.12471
H	 3.7605434807	-0.7001939415	 1.3071135574	 0.115833
H	 2.6159950907	-2.9362911618	 0.7291987422	 0.125861
H	 2.745932988	-2.505970089	-1.0430383361	 0.126499
77.3723	190.4298	193.8657	226.588	252.2155	305.9765	378.5476	426.2083	500.0585	553.9017	668.1913	754.1116	787.3057	838.8663	871.6297	882.9874	912.8572	943.348	962.8378	974.3327	993.874	1021.3607	1027.4515	1049.7522	1065.6835	1131.0767	1148.4098	1174.578	1184.2346	1198.8593	1263.9729	1273.3431	1296.3164	1359.5742	1400.2372	1415.7697	1449.7691	1479.3625	1489.5042	1499.6169	1503.4872	3016.0991	3036.3396	3080.2614	3092.0743	3104.0853	3120.6271	3127.2058	3134.5922	3212.5942	3227.4326
CC12COC1C1(CC1)O2	C[C@]12CO[C@H]1C1(CC1)O2	
InChI=1S/C7H10O2/c1-6-4-8-5(6)7(9-6)2-3-7/h5H,2-4H2,1H3	InChI=1S/C7H10O2/c1-6-4-8-5(6)7(9-6)2-3-7/h5H,2-4H2,1H3/t5-,6+/m1/s1
