17
gdb 83018	2.98319	1.33581	1.15	4.4241	80.57	-0.2431	-0.0517	0.1914	1103.2104	0.136935	-380.866318	-380.85844	-380.857495	-380.898684	29.959	
C	-0.2046488905	 1.5119219894	 0.0862234777	-0.323439
N	 0.0607420634	 0.0889491332	-0.0430635341	-0.081219
C	 0.6771739258	-0.4789156025	-1.2288401407	-0.041388
C	 1.4766088622	 0.4122772792	-2.1833840109	-0.284086
C	 2.6025227144	 0.9447027306	-1.3348440451	-0.174227
C	 2.5834190933	 0.415645312	-0.0988477453	 0.217969
C	 3.5198956877	 0.6893310155	 0.9346252702	 0.197893
N	 4.273208204	 0.8853422629	 1.7927113328	-0.335821
C	 1.3986942665	-0.4886741624	 0.0947053835	-0.149203
H	 0.5820080821	 2.1763347622	-0.2990911612	 0.109199
H	-1.1345953016	 1.7359623312	-0.4454003329	 0.128419
H	-0.3543445023	 1.7431420786	 1.1449025136	 0.13586
H	 0.1877955478	-1.3604471581	-1.6323124578	 0.10184
H	 1.8626256908	-0.1722571892	-3.0277822712	 0.132419
H	 0.8759665824	 1.2206947589	-2.6203612224	 0.13026
H	 3.3151296724	 1.6836902244	-1.6819604624	 0.127067
H	 1.4827484216	-1.346190926	 0.754590586	 0.108457
105.0585	160.1435	182.7952	226.8562	258.633	356.986	459.2109	500.7158	510.2824	563.7645	668.5183	725.2019	745.4328	827.4439	846.0263	883.5254	947.1657	958.6399	984.971	1031.0593	1080.6348	1104.1962	1155.4823	1168.1092	1174.3388	1192.2264	1266.6758	1305.5311	1318.2133	1338.2378	1378.9088	1449.2201	1459.0294	1489.2805	1505.2322	1653.9247	2337.9309	2996.7671	3027.7419	3055.223	3076.3062	3110.6966	3149.1545	3164.0028	3208.0989
CN1C2CC=C(C#N)C12	CN1[C@H]2CC=C(C#N)[C@@H]12	
InChI=1S/C7H8N2/c1-9-6-3-2-5(4-8)7(6)9/h2,6-7H,3H2,1H3	InChI=1S/C7H8N2/c1-9-6-3-2-5(4-8)7(6)9/h2,6-7H,3H2,1H3/t6-,7+,9?/m0/s1
