16
gdb 74015	2.23793	1.90935	1.10648	4.5507	73.36	-0.2172	-0.0262	0.191	1064.7385	0.124727	-437.876605	-437.868782	-437.867838	-437.908996	29.259	
C	-0.0866589542	 1.4533710543	-0.0700036159	-0.498362
C	-0.0343879505	-0.0140537827	 0.1816346831	 0.318921
C	-1.0128135759	-0.8804896812	 0.5067442237	-0.085708
C	-2.3252378929	-1.2204177852	-0.1657175455	-0.124015
O	-1.6718815656	-2.4048153991	-0.7300978112	-0.292421
C	-0.5533758685	-2.2767826675	 0.2027656535	-0.011865
C	 0.91157857	-2.0998757842	-0.2713478458	 0.385637
O	 1.7342869558	-2.9187094035	-0.5918762809	-0.347084
N	 1.1454100566	-0.7343264751	-0.0808028083	-0.365337
H	 0.5571650852	 2.003483059	 0.6274793317	 0.142951
H	 0.2540231848	 1.6921595113	-1.0845259371	 0.140904
H	-1.1061295873	 1.8234661082	 0.0577761487	 0.144496
H	-3.1504009347	-1.5182020651	 0.4927295428	 0.111262
H	-2.6947177163	-0.5377559597	-0.9381130989	 0.114579
H	-0.5935377389	-3.0664078337	 0.9621951407	 0.106309
H	 2.0559761723	-0.3284131458	-0.2307959705	 0.259734
122.3875	150.1188	167.5796	230.3367	262.1707	320.9596	434.0943	507.3555	580.6155	607.3224	621.9529	678.3712	756.2654	849.2126	895.1035	927.5612	963.5121	988.3824	1023.8247	1060.5444	1113.9481	1115.8154	1145.5723	1203.6873	1239.3607	1275.5533	1310.6388	1328.9635	1402.9038	1418.0214	1473.0258	1487.7438	1520.2821	1710.7626	1846.5617	3020.743	3025.1199	3042.5745	3075.1629	3075.5468	3129.8722	3639.3378
CC1=C2COC2C(=O)N1	C[C]1[C]2CO[C@H]2C(=O)N1	
InChI=1S/C6H7NO2/c1-3-4-2-9-5(4)6(8)7-3/h5H,2H2,1H3,(H,7,8)	InChI=1S/C6H7NO2/c1-3-4-2-9-5(4)6(8)7-3/h5H,2H2,1H3,(H,7,8)/t5-/m1/s1
