18
gdb 112466	2.44381	1.51121	1.07259	2.5751	75.36	-0.2526	-0.0018	0.2508	1156.2951	0.147609	-439.095553	-439.086844	-439.0859	-439.130198	31.559	
C	-0.352501217	 1.2162045531	 0.2636552889	-0.242894
O	-0.2280793243	-0.1950043941	 0.3669813205	-0.235006
C	 0.9337684394	-0.6189849288	 1.0174023979	 0.169905
O	 0.9187111159	-0.2351216069	 2.3998651791	-0.261336
C	 0.3269544098	-1.0192157461	 3.3502917927	 0.394197
N	 0.1877424373	-0.613238233	 4.5403542742	-0.514954
C	-0.1240108818	-2.408727703	 2.9527954711	-0.345633
C	 0.5666555264	-2.9336593373	 1.7279381431	-0.061106
C	 1.0623052453	-2.1008952866	 0.8224967469	-0.090622
H	 0.5056768445	 1.6521463842	-0.2686012021	 0.110144
H	-1.2625043861	 1.4104088046	-0.3070679081	 0.132991
H	-0.4331232577	 1.6872147091	 1.2495690869	 0.129977
H	 1.8057574249	-0.0779159229	 0.6223196511	 0.082654
H	 0.5335304105	 0.3446633684	 4.6267209203	 0.216937
H	 0.0151277989	-3.0591068219	 3.819138818	 0.144874
H	-1.2079933584	-2.3774091398	 2.7725264319	 0.153696
H	 0.6224754624	-4.0099178216	 1.5956782033	 0.107872
H	 1.5347969599	-2.4376629077	-0.0929043459	 0.108304
36.2654	65.6289	116.8264	182.8482	223.7161	342.522	419.8421	444.4556	487.2545	534.4749	572.5219	626.4518	712.728	783.8812	875.0034	907.2844	949.0488	968.9403	989.6424	1000.1508	1001.9404	1063.8543	1094.9918	1141.4078	1177.6027	1197.6273	1203.7237	1218.6	1306.1296	1339.8733	1377.7365	1418.0833	1430.1504	1454.2042	1475.038	1484.2735	1509.818	1739.0073	1749.7876	2996.584	3004.4733	3017.1396	3072.6601	3104.693	3132.2952	3173.1587	3204.0795	3464.2354
COC1OC(=N)CC=C1	CO[C@H]1O[C]([NH])CC=C1	
InChI=1S/C6H9NO2/c1-8-6-4-2-3-5(7)9-6/h2,4,6-7H,3H2,1H3	InChI=1S/C6H9NO2/c1-8-6-4-2-3-5(7)9-6/h2,4,6-7H,3H2,1H3/t6-/m0/s1
