18
gdb 95129	2.53087	1.54147	1.13767	2.4004	72.49	-0.2511	-0.037	0.2141	1092.0428	0.148635	-439.085433	-439.077296	-439.076352	-439.118139	31.047	
O	 0.2903798055	 1.4064598551	-0.0573904783	-0.437587
C	 0.1202562527	 0.0030378411	-0.0683741702	 0.070055
C	 0.7616851128	-0.7194965287	 1.1483895608	-0.252613
C	-0.0925689641	-1.977463038	 1.4082698698	-0.223655
C	-1.4738085921	-1.6062875446	 0.8955811913	-0.05445
N	-1.9385636509	-0.285352263	 1.3085836796	-0.378301
C	-1.33587413	-0.4335850776	-0.03661662	 0.218406
C	-2.2348895168	-0.3341047015	-1.2073867472	 0.05765
O	-3.4422280491	-0.3704807841	-1.122892593	-0.279544
H	-0.1941910098	 1.7338050966	 0.7105749329	 0.28896
H	 0.5750912011	-0.3357265526	-1.0074943544	 0.091777
H	 1.8167270561	-0.9458053983	 0.9812508472	 0.107505
H	 0.7034267348	-0.043506052	 2.0055970259	 0.1178
H	 0.275487704	-2.8362146862	 0.8355601688	 0.108894
H	-0.1053716519	-2.2680608153	 2.4635257092	 0.115918
H	-2.2154984213	-2.3723810288	 0.6904983879	 0.109311
H	-2.9483133443	-0.2351612118	 1.1639659905	 0.251944
H	-1.7266378166	-0.2312626102	-2.1892701905	 0.08793
104.3161	124.2615	207.5943	223.9171	245.8715	346.0636	420.2431	422.8313	491.0055	551.5515	638.2564	672.3964	754.485	827.5054	861.497	896.0591	929.4764	963.3868	988.6408	1028.9744	1052.1746	1090.3447	1098.9224	1108.9261	1142.5115	1189.0759	1243.7251	1251.2763	1287.1806	1304.4027	1342.1319	1346.3745	1355.0677	1419.9601	1428.4478	1439.9045	1480.264	1494.2122	1790.9904	2912.77	3039.4383	3044.2056	3069.3859	3086.0386	3119.5289	3163.996	3460.0767	3783.6876
OC1CCC2NC12C=O	O[C@H]1CC[C@H]2N[C@@]12C=O	
InChI=1S/C6H9NO2/c8-3-6-4(7-6)1-2-5(6)9/h3-5,7,9H,1-2H2	InChI=1S/C6H9NO2/c8-3-6-4(7-6)1-2-5(6)9/h3-5,7,9H,1-2H2/t4-,5+,6-/m1/s1
