16
gdb 67692	2.33816	1.96971	1.50219	4.1883	68.24	-0.2381	-0.0128	0.2253	931.5768	0.124677	-437.864937	-437.857587	-437.856643	-437.896662	28.161	
C	-0.1489624213	 1.4853016416	-0.0282822659	-0.517108
C	 0.1195807914	 0.0186325092	 0.0433619771	 0.343154
C	 0.8023994322	-0.8738954317	-0.8879749012	-0.111878
C	 1.6698145106	-1.852785488	-0.1090927159	-0.105842
O	 1.3551348077	-1.6187317927	 1.2683827196	-0.256999
C	 0.119601866	-0.9229179463	 1.274965417	-0.111115
C	-0.9555626969	-1.7051579888	 0.4845590058	 0.403843
O	-1.823346803	-2.4783636608	 0.7420321175	-0.308542
N	-0.6996435881	-1.026268192	-0.7757614538	-0.240688
H	 0.6780142607	 2.0480537491	 0.4181400692	 0.138662
H	-0.2625319622	 1.806107294	-1.0670969208	 0.144097
H	-1.0656815433	 1.7457608061	 0.51005842	 0.140578
H	 1.1045115514	-0.5527569187	-1.8783998398	 0.121301
H	 1.4572142694	-2.8946654198	-0.382914293	 0.126193
H	 2.7359269014	-1.6569958528	-0.2647440008	 0.123466
H	-0.0997812159	-0.5625390583	 2.278441285	 0.110878
114.0264	182.1932	226.0727	236.1169	293.8028	398.8533	487.193	569.5985	601.2619	658.7999	725.9348	735.2701	821.2494	849.6624	919.2622	950.1446	956.6747	1027.5672	1040.7359	1058.5581	1090.2079	1106.1862	1122.4855	1181.2745	1221.777	1239.9055	1273.6137	1307.6853	1367.3564	1413.7845	1460.848	1485.5441	1490.2244	1513.0462	1912.9178	3020.0767	3037.7583	3076.1268	3102.5299	3120.9855	3144.6524	3184.951
CC12C3COC1C(=O)N23	C[C@@]12[C@H]3CO[C@@H]1C(=O)N23	
InChI=1S/C6H7NO2/c1-6-3-2-9-4(6)5(8)7(3)6/h3-4H,2H2,1H3	InChI=1S/C6H7NO2/c1-6-3-2-9-4(6)5(8)7(3)6/h3-4H,2H2,1H3/t3-,4-,6-,7?/m1/s1
