16
gdb 55580	4.90907	0.7814	0.67694	1.8294	71.91	-0.2665	-0.0252	0.2413	1596.9048	0.12343	-471.25772	-471.248277	-471.247333	-471.292945	32.518	
C	-0.1802735876	 1.4913735891	-0.0793301714	-0.468601
C	 0.1512678958	 0.0255587823	 0.0257125235	 0.380177
N	 1.3479102923	-0.3851909309	 0.0634671585	-0.48351
N	-1.0154317559	-0.7820834684	 0.0734216013	-0.42953
C	-1.0527376098	-2.1430466832	 0.168426784	 0.566115
O	-0.1129099524	-2.8961952273	 0.2282072988	-0.383565
O	-2.3732816827	-2.5304208681	 0.1856225661	-0.23334
C	-2.6375877512	-3.8754414755	 0.2778396237	 0.122486
N	-3.8418278607	-4.2334536587	 0.2939209899	-0.423066
H	 0.7481894818	 2.0590407385	-0.1121312797	 0.162736
H	-0.761829013	 1.6992226753	-0.9849612597	 0.137558
H	-0.7749726159	 1.8227067446	 0.7798139607	 0.137563
H	 1.3894957272	-1.402166047	 0.1349357643	 0.250791
H	-1.9141309397	-0.3254396874	 0.0347420133	 0.270641
H	-1.73172934	-4.479463283	 0.3268296251	 0.150416
H	-3.8993440984	-5.2481534004	 0.3644830015	 0.243129
64.2356	87.9869	125.0872	135.8857	149.5863	167.0632	284.435	339.8072	403.9304	539.7975	542.4268	558.6317	592.4044	770.4283	798.9031	848.2285	911.8117	957.6928	965.659	1021.4445	1069.0153	1080.4721	1095.5766	1146.0085	1219.6845	1268.3901	1354.0667	1388.5429	1409.6072	1472.3776	1484.1168	1517.7438	1742.9854	1755.772	1839.4221	3034.4213	3089.7564	3143.8829	3170.3104	3491.6962	3512.9017	3627.1103
CC(=N)NC(=O)OC=N	CC(=N)NC(=O)O[CH][NH]	
InChI=1S/C4H7N3O2/c1-3(6)7-4(8)9-2-5/h2,5H,1H3,(H2,6,7,8)	InChI=1S/C4H7N3O2/c1-3(6)7-4(8)9-2-5/h2,5H,1H3,(H2,6,7,8)
