14
gdb 32510	2.22217	1.49	0.89692	3.0102	69.9	-0.2485	-0.0297	0.2187	1193.0585	0.101469	-436.719776	-436.711618	-436.710674	-436.75336	28.846	
O	-0.0408594859	 1.398025434	 0.0078166795	-0.417622
C	 0.0093988896	-0.0170943007	 0.0018810405	-0.204507
C	-1.3941924608	-0.5279937466	 0.0120150529	 0.148336
C	-2.5368681004	 0.200027959	 0.0237865295	-0.075528
O	-3.6324113073	-0.6186335358	 0.0305297271	-0.137022
C	-3.1880779638	-1.8859820113	 0.0230456372	-0.086324
C	-1.8204397714	-1.9089944597	 0.0110461516	 0.047118
C	-0.9900532435	-3.0556783138	 0.0003701553	 0.200485
N	-0.2855138035	-3.975092573	-0.0087240361	-0.34709
H	 0.8607784388	 1.73113522	 0.0014198108	 0.297319
H	 0.5345476046	-0.4018378349	-0.8874946545	 0.118106
H	 0.5498511279	-0.4087661368	 0.878972061	 0.118108
H	-2.7304965443	 1.2575613101	 0.0287715279	 0.169116
H	-3.9307897701	-2.6660264807	 0.0270562174	 0.169505
57.5989	110.6463	172.9009	211.7802	218.79	268.5524	409.8743	516.5598	543.1971	615.2846	616.8627	669.1503	726.4755	778.8183	804.3326	904.5235	1046.001	1074.0014	1087.3196	1160.104	1188.4533	1223.2992	1249.7849	1255.3539	1316.1915	1371.6684	1475.9402	1514.1351	1570.605	1640.173	2347.7468	2968.042	2987.031	3286.3419	3310.6597	3841.6762
OCC1=COC=C1C#N	OCc1cocc1C#N	
InChI=1S/C6H5NO2/c7-1-5-3-9-4-6(5)2-8/h3-4,8H,2H2	InChI=1S/C6H5NO2/c7-1-5-3-9-4-6(5)2-8/h3-4,8H,2H2
