15
gdb 76022	2.6646	1.23443	1.08007	4.6761	74.55	-0.2572	-0.0022	0.255	1143.1466	0.110983	-416.76022	-416.751191	-416.750247	-416.793748	33.505	
N	-0.0798052699	 1.4028035179	 0.1876222359	-0.56739
C	 0.0017161983	-0.0340089954	 0.052992543	 0.00203
C	 1.045149875	-0.6017088126	-0.7545647488	 0.278767
C	 1.9346980972	-1.0652651289	-1.4190819462	-0.412248
C	-0.4816432716	-0.7524837568	 1.307262591	 0.128379
O	-0.809650336	-0.001139799	 2.4047742334	-0.411165
C	-1.3681930697	-0.7596930254	 0.0617089693	-0.296855
C	-2.5633152101	 0.0262837241	 0.0120673923	 0.313476
N	-3.5250569579	 0.6676243055	-0.0407813289	-0.3388
H	 0.8499839529	 1.7946693735	 0.2946709512	 0.253702
H	-0.5112612858	 1.8315587255	-0.6251975184	 0.26095
H	 2.7186255095	-1.4732644731	-2.0085602911	 0.204631
H	-0.0216393456	-1.7001102704	 1.5634917241	 0.133593
H	-0.8431572332	 0.9216619764	 2.0960224588	 0.302434
H	-1.4020905631	-1.6824982614	-0.5061700256	 0.148495
99.9716	124.3624	155.9439	170.8856	234.4258	283.1646	346.4563	392.0797	455.5504	487.6443	544.3712	587.3823	601.4548	634.0488	661.6827	674.3035	718.6885	811.1068	836.4037	877.6006	994.3206	1041.8111	1093.4561	1133.964	1209.4152	1252.6222	1282.3646	1348.1868	1361.6176	1457.9539	1653.828	2229.6388	2351.4121	3180.9133	3189.3332	3498.8565	3506.2532	3588.3137	3644.2827
NC1(C#C)C(O)C1C#N	N[C@@]1(C#C)[C@@H](O)[C@H]1C#N	
InChI=1S/C6H6N2O/c1-2-6(8)4(3-7)5(6)9/h1,4-5,9H,8H2	InChI=1S/C6H6N2O/c1-2-6(8)4(3-7)5(6)9/h1,4-5,9H,8H2/t4-,5+,6-/m1/s1
