20
gdb 119743	3.49864	0.97244	0.86949	1.2716	74.57	-0.2255	0.0527	0.2782	1371.9814	0.171077	-440.226418	-440.217482	-440.216538	-440.260705	33.074	
O	 0.2387249805	 1.3996207466	-0.136814676	-0.417695
C	 0.1028575414	-0.0039634138	 0.0142309517	-0.062372
C	-1.3466921698	-0.4799485904	-0.1276963908	-0.297002
C	-1.4766392021	-1.9807068118	 0.0188066682	 0.301441
C	-1.0253886308	-2.8947525301	-1.1473895583	-0.120857
O	-2.2636023133	-3.6405842265	-1.1058790361	-0.289403
C	-2.7815528388	-2.8257637792	-0.0396201015	 0.037981
C	-2.4209110664	-3.3790218356	 1.3527042502	-0.18347
N	-1.2088591866	-2.5082700778	 1.382557323	-0.369228
H	-0.2405538324	 1.8187070339	 0.5851731425	 0.281878
H	 0.7249650764	-0.4434505785	-0.7743265034	 0.109849
H	 0.5066508182	-0.3461362751	 0.9793573935	 0.099478
H	-1.9563596236	 0.0014720886	 0.6479338073	 0.093438
H	-1.7358919091	-0.1597286897	-1.1012828272	 0.106751
H	-0.8998941772	-2.3889226597	-2.1142147225	 0.103184
H	-0.1458352811	-3.5240672848	-0.9565830802	 0.094399
H	-3.7897473105	-2.4558528966	-0.2388391598	 0.081709
H	-3.1205091432	-3.1378145325	 2.1614252399	 0.104734
H	-2.2429871521	-4.4594839963	 1.340947462	 0.108844
H	-0.3285584095	-3.0030408106	 1.4851465474	 0.216343
67.054	97.2833	125.3008	134.3129	279.3237	293.654	345.1979	360.0722	414.5341	432.9146	641.6072	720.7789	771.8529	799.1237	847.4878	915.0233	932.9664	949.1287	988.5848	999.15	1020.9464	1034.9377	1064.7191	1076.0334	1097.2709	1139.0475	1142.1439	1160.0339	1208.9408	1226.2952	1266.5407	1297.1591	1313.0454	1321.6119	1328.8056	1366.65	1380.9937	1400.801	1422.0637	1475.8446	1499.8114	1512.765	1516.6876	2989.1002	2998.0574	3020.949	3024.6659	3043.0725	3054.745	3075.4705	3078.4293	3089.9277	3516.0203	3815.2856
OCCC12COC1CN2	OCC[C@]12CO[C@H]1CN2	
InChI=1S/C6H11NO2/c8-2-1-6-4-9-5(6)3-7-6/h5,7-8H,1-4H2	InChI=1S/C6H11NO2/c8-2-1-6-4-9-5(6)3-7-6/h5,7-8H,1-4H2/t5-,6-/m0/s1
