19
gdb 22363	2.38774	1.31818	0.90868	2.6669	86.08	-0.1828	-0.0075	0.1753	1305.3081	0.158518	-419.194734	-419.18531	-419.184366	-419.228717	35.186	
C	 0.0704576067	 1.5310386117	-0.0064831868	-0.394818
C	 0.0065647746	 0.0022891924	 0.0522206747	-0.036709
N	 0.707324437	-0.6413419876	-1.0773641302	-0.363214
C	 1.8561926125	-1.2593285486	-0.6012184967	 0.366487
C	 2.8294580551	-1.8350655294	-1.5752578196	-0.493379
C	 1.9018259209	-1.2867561703	 0.7544807842	-0.335513
C	 0.7509297755	-0.5697883936	 1.2577813635	 0.399722
N	 0.3075270999	-0.3664772615	 2.4429814061	-0.27757
O	 1.1507704026	-0.9766482431	 3.4014606335	-0.402988
H	 1.1101107924	 1.8731317572	-0.0260597852	 0.122845
H	-0.4443924614	 1.9156044972	-0.8940731386	 0.107665
H	-0.4105080983	 1.9480695163	 0.8821274439	 0.143515
H	-1.0413074879	-0.3162467327	 0.0643697753	 0.105293
H	 0.791683374	-0.0982599749	-1.9260915185	 0.231247
H	 3.2350392144	-1.0564959569	-2.2339584882	 0.130017
H	 3.6635984129	-2.3107505889	-1.0570437913	 0.14219
H	 2.3436503578	-2.5783132418	-2.2174158426	 0.143718
H	 2.637379836	-1.7876278076	 1.3613979255	 0.112239
H	 0.6977259755	-0.767582198	 4.2241611612	 0.299253
99.0806	126.26	154.4072	186.6723	203.6419	249.7606	301.2845	349.0696	365.2877	426.2368	514.9742	516.6642	602.5047	609.6858	680.3119	716.5596	794.3095	846.7057	927.1492	969.2295	983.4734	1017.7327	1044.5242	1058.3464	1092.8805	1133.0793	1183.8463	1235.6017	1287.9052	1327.9756	1369.0879	1391.2855	1401.2522	1414.375	1447.5783	1476.4557	1488.3227	1490.6359	1497.1545	1651.9401	1721.3007	3026.0139	3031.0171	3044.6591	3078.2017	3103.1271	3125.0232	3138.2183	3275.3014	3577.2594	3828.2066
CC1NC(C)=CC1=NO	C[C@H]1NC(=CC1=NO)C	
InChI=1S/C6H10N2O/c1-4-3-6(8-9)5(2)7-4/h3,5,7,9H,1-2H3	InChI=1S/C6H10N2O/c1-4-3-6(8-9)5(2)7-4/h3,5,7,9H,1-2H3/t5-/m1/s1
