23
gdb 82620	2.23441	1.96164	1.4725	0.0863	87.75	-0.2493	0.0888	0.3381	1041.9056	0.20862	-351.182054	-351.174111	-351.173167	-351.213717	33.199	
C	-0.1711865478	 1.547770957	 0.0025984434	-0.426512
C	 0.0161965782	 0.0304357791	 0.0017829817	-0.011746
C	 0.9689950497	-0.5492495609	-1.0796663253	-0.053927
C	 2.365181576	-0.0989430122	-0.5860092777	-0.229721
C	 2.2243665677	-0.6156598393	 0.8418768933	-0.098988
C	 1.3527972405	-1.8612332416	 0.7667602934	-0.109135
C	 0.9796298297	-2.0494609926	-0.700388386	-0.230937
C	 0.7526725654	-0.5423415386	 1.2217055458	 0.370432
C	 0.2781853724	-0.3049678691	 2.6297406407	-0.509467
H	 0.7713141837	 2.0801068763	 0.1619133128	 0.117077
H	-0.5962160357	 1.8911447223	-0.9469024792	 0.108965
H	-0.8572759969	 1.8556895218	 0.7987543762	 0.113475
H	-0.9724994802	-0.4398751855	-0.095832433	 0.058312
H	 0.7197156638	-0.3125460208	-2.1144957261	 0.054616
H	 3.1745230177	-0.5902621409	-1.1375924131	 0.090256
H	 2.5218248774	 0.981855576	-0.6472672302	 0.092374
H	 3.0052303451	-0.5137037814	 1.5850153238	 0.072518
H	 1.4830104014	-2.689143272	 1.4524886549	 0.07308
H	 0.0019952133	-2.5243317515	-0.8370972945	 0.089222
H	 1.7242269057	-2.6233558029	-1.2629794064	 0.088723
H	 0.9244092818	-0.8092195332	 3.3558575944	 0.113276
H	 0.273085111	 0.7619859918	 2.8815579432	 0.115696
H	-0.7405087899	-0.6841240818	 2.7772117381	 0.112411
181.3146	212.3465	219.2612	229.4612	284.9612	338.3654	428.7598	461.1625	521.8763	578.8914	660.6852	701.2674	759.5527	846.7457	864.1977	867.8945	890.5945	910.9065	917.9109	950.2906	985.7906	1000.2982	1020.3823	1025.5022	1039.1744	1077.4644	1086.8663	1105.2185	1137.166	1148.7676	1150.652	1188.8948	1217.7624	1253.0598	1276.3874	1282.0468	1301.0001	1319.0541	1334.5908	1381.8531	1408.3796	1419.0608	1429.7229	1488.7005	1491.4359	1495.0372	1502.4006	1503.262	1519.0578	3002.2312	3018.1142	3032.3983	3035.8201	3044.3367	3074.2438	3077.9471	3087.9745	3090.1469	3093.4732	3108.7664	3111.9329	3185.4033	3195.578
CC1C2CC3C(C2)C13C	C[C@H]1[C@H]2C[C@@H]3[C@H](C2)[C@]13C	
InChI=1S/C9H14/c1-5-6-3-7-8(4-6)9(5,7)2/h5-8H,3-4H2,1-2H3	InChI=1S/C9H14/c1-5-6-3-7-8(4-6)9(5,7)2/h5-8H,3-4H2,1-2H3/t5-,6-,7+,8-,9+/m0/s1
