17
gdb 111386	2.21609	1.68142	1.14988	5.3649	71.82	-0.2474	0.0194	0.2668	1074.0177	0.1368	-417.965056	-417.956769	-417.955824	-417.998107	30.956	
O	 0.1242318177	 1.352439143	 0.0915503633	-0.427903
C	 0.0391095309	-0.0290877394	-0.2183744546	-0.099444
C	-1.3800600079	-0.5582671401	-0.0372427805	-0.012502
C	-1.6088580367	-2.0752281336	-0.1204573169	-0.073495
N	-0.8193046905	-2.6759408232	 0.9812001107	-0.320626
C	-2.1597626297	-2.1286677442	 1.2597578634	-0.057928
C	-1.9895584996	-0.6086647472	 1.4334102375	-0.181799
C	-1.1518809593	-0.1336292884	 2.5243184338	 0.302764
N	-0.4674708133	 0.2775887941	 3.3615479962	-0.35099
H	 0.2311467857	 1.4320853763	 1.0457242688	 0.300013
H	 0.3246903457	-0.1366879662	-1.2717236333	 0.106477
H	 0.7367959076	-0.6278096895	 0.3777634103	 0.127811
H	-2.0673664397	-0.0040171201	-0.6802576146	 0.096568
H	-1.8794844894	-2.6542761911	-0.993946799	 0.107854
H	-0.9114509592	-3.6884935679	 0.9146006062	 0.240273
H	-2.9460551663	-2.7373295084	 1.6864959369	 0.112058
H	-2.9511055958	-0.092359224	 1.4688333018	 0.13087
103.6986	112.0501	145.1283	194.5531	249.5239	369.0685	374.6701	418.2581	493.2209	584.3356	626.7703	689.5403	786.427	824.5825	849.4824	896.1604	944.53	979.628	992.2496	1025.3393	1061.6644	1076.045	1090.7203	1110.4747	1122.5232	1158.49	1206.0915	1238.4159	1279.1933	1315.9895	1333.3346	1350.0142	1381.0555	1407.1555	1412.2351	1504.3847	2347.3331	3030.5763	3072.7858	3088.8063	3100.5805	3195.3375	3208.5439	3489.1229	3808.2355
OCC1C2NC2C1C#N	OC[C@H]1[C@H]2N[C@H]2[C@H]1C#N	
InChI=1S/C6H8N2O/c7-1-3-4(2-9)6-5(3)8-6/h3-6,8-9H,2H2	InChI=1S/C6H8N2O/c7-1-3-4(2-9)6-5(3)8-6/h3-6,8-9H,2H2/t3-,4+,5-,6+/m0/s1
