16
gdb 66897	2.54245	1.96705	1.54674	4.062	72.72	-0.221	-0.0205	0.2005	910.7556	0.124636	-400.730552	-400.723441	-400.722497	-400.761819	28.291	
C	-0.0386239296	 1.5560595987	-0.0428870661	-0.507143
C	 0.0328941816	 0.0649113433	-0.069210397	 0.351135
C	 0.0444616476	-0.9085220546	-1.1819102041	-0.135318
C	 1.2737219988	-1.7510870136	-1.0087673036	-0.094188
C	 1.6960497242	-1.5888527344	 0.2462421408	-0.093767
N	 0.8006018912	-0.7085737331	 0.9877624801	-0.239759
C	-0.4446284652	-1.5158381459	 1.1801722043	 0.442575
O	-0.7482272826	-2.213069724	 2.0963530422	-0.317205
C	-1.0650210793	-1.0030946816	-0.0608540482	-0.282861
H	 0.9387942912	 1.9943885724	-0.2692499288	 0.139349
H	-0.7563374561	 1.9182336246	-0.7849788505	 0.128455
H	-0.3498741194	 1.9099412752	 0.9443997823	 0.142804
H	-0.3402739065	-0.639533202	-2.1595223634	 0.105969
H	 1.7185847911	-2.3612548038	-1.7816873554	 0.11588
H	 2.5094484545	-2.0677240156	 0.7719699138	 0.127288
H	-2.1138624015	-0.9463871956	-0.3195845763	 0.116786
126.076	199.7225	231.3173	283.0937	370.4047	440.8914	545.0881	595.1067	620.5165	706.2488	747.8794	770.2669	822.1036	829.5478	867.2115	889.4369	897.9259	913.4323	959.0361	989.966	1016.7793	1030.8298	1084.6549	1132.1467	1141.304	1166.1146	1196.1983	1285.9704	1334.0392	1404.5969	1454.3981	1476.5286	1495.0112	1633.8339	1911.6202	3038.5261	3107.1716	3117.3572	3181.0348	3211.1662	3229.5479	3254.7499
CC12C3C=CN1C(=O)C23	C[C@@]12[C@H]3C=CN1C(=O)[C@@H]23	
InChI=1S/C7H7NO/c1-7-4-2-3-8(7)6(9)5(4)7/h2-5H,1H3	InChI=1S/C7H7NO/c1-7-4-2-3-8(7)6(9)5(4)7/h2-5H,1H3/t4-,5-,7-/m0/s1
