13
gdb 130049	2.74817	1.48292	0.96397	5.7343	65.63	-0.2278	-0.0217	0.2061	1115.7228	0.089935	-486.094233	-486.086486	-486.085542	-486.126674	28.4	
N	 0.0746664546	 1.3121591292	 0.1453547366	-0.583998
C	-0.0315018971	-0.0390569634	 0.0413087995	 0.49739
N	-1.1035682921	-0.7449559881	 0.008608858	-0.297901
N	-0.6145608987	-2.0583831676	 0.0009049416	-0.118496
C	-1.4420912895	-3.1749380772	-0.0243941819	 0.171774
O	-2.6426396699	-3.1285196389	-0.0342895189	-0.283953
C	 0.7775142401	-2.0816866323	 0.0034876226	 0.486045
N	 1.5377030986	-3.0830465661	-0.017712034	-0.581441
O	 1.142666343	-0.7387965591	 0.0343651044	-0.230607
H	 0.8998866826	 1.7184455386	-0.2691398305	 0.278369
H	-0.7826420234	 1.8103800271	-0.0428348973	 0.286233
H	-0.8322844254	-4.0922910455	-0.0340465897	 0.133117
H	 2.5181537071	-2.8176670967	-0.0030671304	 0.243468
102.8048	175.3828	192.0153	226.5202	301.1148	347.1597	392.6439	443.3592	558.3151	604.0445	675.891	695.5589	724.3879	731.8757	761.7863	891.0444	985.0579	1000.5883	1029.3411	1133.292	1152.0991	1240.2953	1378.1211	1429.621	1450.6067	1619.9038	1740.2393	1804.2414	1836.1377	3025.3698	3553.2261	3582.1403	3692.7426
NC1=NN(C=O)C(=N)O1	NC1=NN(C=O)[C@@H]([NH])O1	
InChI=1S/C3H4N4O2/c4-2-6-7(1-8)3(5)9-2/h1,5H,(H2,4,6)	InChI=1S/C3H5N4O2/c4-2-6-7(1-8)3(5)9-2/h1,3,5H,(H2,4,6)/t3-/m1/s1
