18
gdb 33413	2.52681	1.25123	0.92791	2.8793	76.16	-0.2605	0.0158	0.2762	1267.3924	0.148752	-398.078029	-398.069313	-398.068369	-398.112157	31.63	
N	 0.1812678588	-1.2878194673	 0.128924896	-0.329511
C	 0.0461707758	-0.1399563303	 0.1079343805	 0.278071
C	-0.0954050494	 1.3195593416	 0.0541426534	-0.219922
C	 1.2539937722	 2.0217541854	 0.2266326815	 0.02002
C	 2.3251703213	 1.4762663297	 1.0925069024	-0.259251
N	 2.4830551245	 1.4972016856	-0.3741757267	-0.313648
C	-0.776746861	 1.7299871189	-1.2505322174	 0.038412
C	-2.2542750366	 1.7309263446	-1.3519542656	-0.24402
N	-1.5047732256	 3.0008605914	-1.3215132214	-0.320046
H	-0.749335194	 1.6169363771	 0.8869839812	 0.124859
H	 1.1552642518	 3.1017563611	 0.137818773	 0.111298
H	 2.9763628888	 2.1546248029	 1.6355343218	 0.12641
H	 2.1520161257	 0.5191872458	 1.5768215699	 0.13564
H	 2.3277844842	 0.5602647178	-0.7427560938	 0.245201
H	-0.1881289546	 1.5117223311	-2.1383015061	 0.119643
H	-2.7342491	 1.5034839322	-2.2985258398	 0.1342
H	-2.8236979236	 1.4379976868	-0.47316963	 0.119993
H	-1.5758323683	 3.4270250055	-0.3997814989	 0.232652
78.0175	79.59	139.1196	158.1151	181.0763	312.4007	355.0226	402.5046	455.2642	528.6539	638.8051	772.4736	817.6278	848.4794	883.0939	905.9717	944.4628	956.4721	973.9824	993.1862	1020.5312	1087.5052	1125.7898	1134.5697	1148.6782	1158.1286	1188.8427	1197.0987	1246.7276	1261.1895	1274.1155	1303.0508	1313.3268	1322.3129	1406.6117	1415.4354	1511.723	1514.1242	2354.1765	3007.1832	3112.8814	3115.982	3129.7848	3142.2803	3201.4646	3203.7568	3484.6831	3488.3436
N#CC(C1CN1)C1CN1	N#C[C@@H]([C@H]1CN1)[C@H]1CN1	
InChI=1S/C6H9N3/c7-1-4(5-2-8-5)6-3-9-6/h4-6,8-9H,2-3H2	InChI=1S/C6H9N3/c7-1-4(5-2-8-5)6-3-9-6/h4-6,8-9H,2-3H2/t5-,6-/m1/s1
