19
gdb 55760	3.4682	1.09307	0.96257	2.4939	76.11	-0.2385	-0.0137	0.2248	1274.2734	0.157033	-423.012577	-423.003521	-423.002576	-423.047595	33.059	
C	 0.0716112884	 0.6107864393	 1.0259136923	-0.481801
C	-0.0065438405	 0.1298303218	-0.408103652	 0.382332
O	 0.8508978054	 0.3610393602	-1.2275097554	-0.299018
C	-1.2367172059	-0.7144838596	-0.7698401146	-0.408542
C	-1.0205994338	-2.1451261298	-0.3651056615	 0.421881
C	-0.0692551135	-3.1847626566	-0.9869151326	-0.280203
C	-1.0481484029	-4.3068680546	-0.4894945614	-0.239023
C	-1.9316523174	-3.2044486906	 0.1085244891	-0.049093
O	-1.1148738153	-2.469814463	 1.0339629383	-0.288796
H	 1.0431625659	 1.0675022051	 1.217633187	 0.138385
H	-0.7195713409	 1.3487854384	 1.2068991099	 0.138493
H	-0.1105745426	-0.2213676109	 1.7135349402	 0.167094
H	-2.1285830572	-0.3346774973	-0.2608835027	 0.11527
H	-1.3789581069	-0.6544029262	-1.8523982969	 0.124809
H	-0.0187053596	-3.12301332	-2.0761030558	 0.115262
H	 0.9421583021	-3.1887130227	-0.5755792066	 0.115982
H	-1.5255521182	-4.8426741621	-1.3130465296	 0.10901
H	-0.6534905147	-5.023091118	 0.2345279548	 0.114891
H	-3.0016862824	-3.1954056334	 0.2853287575	 0.103065
34.0181	64.6192	116.2785	158.2616	224.4445	285.8564	358.8324	402.7538	480.2047	508.487	556.684	707.1758	726.3444	771.3896	793.4227	870.9388	883.2122	918.947	930.6964	951.6454	980.4908	1031.0774	1039.1624	1071.2496	1124.0279	1161.6474	1203.1679	1210.8617	1220.4445	1244.2249	1261.3818	1302.7958	1306.3672	1385.2624	1435.4841	1456.7176	1464.2662	1467.8656	1475.374	1490.7295	1816.9792	3034.9705	3049.9383	3068.5628	3076.6814	3101.0234	3111.2551	3120.6466	3137.0242	3155.6278	3179.8892
CC(=O)CC12CCC1O2	CC(=O)C[C@]12CC[C@H]1O2	
InChI=1S/C7H10O2/c1-5(8)4-7-3-2-6(7)9-7/h6H,2-4H2,1H3	InChI=1S/C7H10O2/c1-5(8)4-7-3-2-6(7)9-7/h6H,2-4H2,1H3/t6-,7-/m1/s1
