20
gdb 83890	2.42302	1.41578	1.183	4.6071	83.71	-0.2699	0.036	0.306	1149.8491	0.172664	-366.039252	-366.030523	-366.029579	-366.072733	32.768	
C	 0.0110527274	 1.6086648955	 0.1006730517	-0.430752
C	 0.112677513	 0.0993429799	 0.0653009287	-0.046395
C	 1.3071064418	-0.7197355942	-0.3437818333	-0.092883
C	 2.7058560344	-0.1207946169	-0.3739548764	-0.224385
C	 2.9497990705	 0.5198779136	 1.0170910753	-0.232711
C	 1.9201281145	-0.1138412031	 1.9879224127	-0.282534
C	 0.8333990871	-0.7494179986	 1.1137588884	 0.172052
C	 0.1373140585	-1.8849880312	 1.6481541531	 0.204538
N	-0.4240172864	-2.797697179	 2.0869189464	-0.356054
H	 0.9165398352	 2.1014911582	 0.4550779074	 0.125857
H	-0.2026490154	 1.9922667633	-0.9029160232	 0.128819
H	-0.8120337742	 1.9184563772	 0.7529609387	 0.131897
H	-0.8210257455	-0.3634923774	-0.2455665567	 0.109449
H	 1.116312823	-1.5775285129	-0.9792236489	 0.105636
H	 3.4223406687	-0.9284573975	-0.5565474801	 0.113942
H	 2.8344110449	 0.6036660203	-1.185211604	 0.108673
H	 3.972889668	 0.3490711604	 1.3617681745	 0.10961
H	 2.8223719591	 1.6035617854	 0.9717376628	 0.115441
H	 2.383102828	-0.9045369574	 2.5855430127	 0.124838
H	 1.5114452074	 0.6170910043	 2.6925201001	 0.114964
91.8754	124.6069	157.8322	166.3651	172.8889	250.9109	391.9344	457.6559	513.1069	560.5366	568.0239	665.2963	690.6208	750.5238	827.3556	842.5708	897.9136	911.7973	960.6952	1009.2553	1017.5923	1039.8293	1085.6242	1088.9267	1125.7336	1130.8157	1182.5284	1215.1561	1246.5841	1256.2453	1278.5215	1321.8217	1331.2788	1341.3328	1374.3595	1414.6423	1448.6279	1487.3351	1488.3922	1497.6331	1506.3809	1521.8242	2343.2475	3041.713	3043.8663	3052.6676	3070.9737	3075.7661	3087.259	3095.898	3111.8994	3130.5068	3150.4352	3173.6686
CC1C2CCCC12C#N	C[C@H]1[C@H]2CCC[C@@]12C#N	
InChI=1S/C8H11N/c1-6-7-3-2-4-8(6,7)5-9/h6-7H,2-4H2,1H3	InChI=1S/C8H11N/c1-6-7-3-2-4-8(6,7)5-9/h6-7H,2-4H2,1H3/t6-,7+,8+/m0/s1
