16
gdb 50463	4.41267	1.04552	0.87239	0.9607	67.43	-0.2683	-0.0476	0.2207	1253.6686	0.123751	-475.02712	-475.018857	-475.017912	-475.060853	29.517	
N	 0.182471694	 1.2586880932	-0.4357558549	-0.500831
C	 0.081742673	 0.0741592406	-0.0098717483	 0.370713
C	-1.266639711	-0.4547400768	 0.4435309062	-0.160017
O	-1.1832601925	-1.4866680837	 1.4126494125	-0.261369
C	-0.2980072975	-2.502229275	 0.9911933188	 0.002932
C	 1.1046518065	-1.9319437479	 0.8450913998	-0.081263
O	 1.1190324492	-0.811539146	-0.0497897234	-0.253879
C	-0.3609712847	-3.6242366929	 2.0159116595	 0.136409
O	 0.5009466712	-4.4525908033	 2.1446858902	-0.240598
H	 1.1329532374	 1.439241994	-0.7661950429	 0.225906
H	-1.8406574414	 0.3637633435	 0.8763900267	 0.153945
H	-1.8022534119	-0.8209669504	-0.4486630906	 0.123271
H	-0.6269396912	-2.9197534173	 0.0200849229	 0.107344
H	 1.4756345784	-1.6126330564	 1.8266535345	 0.125804
H	 1.7907059957	-2.6727466253	 0.4326761746	 0.143102
H	-1.2844724452	-3.6112563364	 2.6332577744	 0.10853
56.9319	87.7913	164.9562	185.6169	214.6653	367.4529	415.0399	459.1734	492.442	520.0097	608.1128	722.2135	791.8368	861.5962	915.5446	924.4249	1005.5614	1031.7128	1063.429	1099.7701	1123.4514	1141.2193	1168.197	1260.0497	1268.51	1293.9527	1335.9259	1352.3891	1381.5311	1407.3999	1427.4427	1477.7959	1498.6709	1761.0963	1838.0714	2916.0515	2930.2403	2970.4002	3038.7446	3132.2732	3144.6293	3464.1867
N=C1COC(CO1)C=O	[NH][C]1CO[C@@H](CO1)C=O	
InChI=1S/C5H7NO3/c6-5-3-8-4(1-7)2-9-5/h1,4,6H,2-3H2	InChI=1S/C5H7NO3/c6-5-3-8-4(1-7)2-9-5/h1,4,6H,2-3H2/t4-/m1/s1
