17
gdb 67796	3.23074	1.92485	1.53105	2.2868	76.65	-0.2355	-0.0109	0.2246	894.072	0.137841	-380.856723	-380.849823	-380.848879	-380.88751	28.018	
C	-0.0233881908	 1.5572608425	 0.0151778162	-0.48359
C	-0.116379595	 0.0686136112	-0.1516371677	 0.322036
C	 0.7136595068	-0.6675991131	-1.1209286399	-0.132001
C	 0.166605301	-1.8532818366	-1.4343931265	-0.067345
C	-1.0384867066	-2.1203066016	-0.5448602832	-0.08849
N	-0.3809959926	-2.8856197084	 0.555977736	-0.21243
C	-0.0188131199	-1.996381111	 1.4053074216	 0.05205
N	-0.4685406698	-0.6732777987	 1.2590883275	-0.208362
C	-1.3341530375	-0.7350201027	 0.0715666641	-0.094451
H	 0.9920389613	 1.859777481	 0.2908696819	 0.130414
H	-0.2791279701	 2.0596338719	-0.9248100593	 0.127438
H	-0.7042390495	 1.901386089	 0.795939254	 0.139134
H	 1.6658613462	-0.2933431081	-1.4781584702	 0.101273
H	 0.6120758568	-2.6202564299	-2.055256494	 0.117929
H	-1.8727606597	-2.664330919	-0.9862728863	 0.081236
H	 0.6218578731	-2.2251408991	 2.2521881898	 0.121316
H	-2.3333475736	-0.3156118974	 0.1521667961	 0.093845
170.0377	227.7581	290.3508	327.3456	345.1109	362.6955	559.8775	586.1773	612.7403	704.4726	782.7529	825.1908	858.1928	868.718	901.3884	922.8904	934.7414	957.8529	966.9142	997.7546	1007.6921	1040.7405	1097.2085	1106.1211	1152.2021	1240.0312	1255.6855	1265.7662	1290.2474	1319.2221	1353.3175	1401.8101	1421.3317	1483.71	1491.2331	1608.1762	1634.0793	3035.5098	3096.2886	3117.0288	3134.2312	3144.717	3183.4664	3196.7768	3225.8103
CC12C=CC3N=CN1C23	C[C@@]12C=C[C@H]3[N][CH]N1[C@@H]23	
InChI=1S/C7H8N2/c1-7-3-2-5-6(7)9(7)4-8-5/h2-6H,1H3	InChI=1S/C7H8N2/c1-7-3-2-5-6(7)9(7)4-8-5/h2-6H,1H3/t5-,6-,7+,9?/m1/s1
