23
gdb 105175	2.09629	1.02315	0.79181	0.2412	96.85	-0.222	0.063	0.2851	1607.1361	0.202995	-351.133037	-351.121742	-351.120798	-351.170506	40.151	
C	 0.2378603273	 1.5243830019	 0.3093891417	-0.375853
C	-0.1586019944	 0.0960217949	-0.0788415392	-0.252605
C	 0.6426284148	-0.4459253362	-1.2617382516	 0.148855
C	 2.0213669548	-1.0467722461	-0.9976092444	-0.319698
C	 0.8945559351	-1.9480133147	-1.419260742	-0.034263
C	 0.3129841185	-2.9902426736	-0.4898073304	-0.415821
C	 0.4752671758	 0.2973204844	-2.4869922473	 0.021939
C	 0.3153127066	 0.9238598038	-3.5049475703	 0.079708
C	 0.1290683187	 1.6758547253	-4.7383066008	-0.500973
H	 1.2906106111	 1.5729505056	 0.6074393071	 0.11323
H	 0.0978860266	 2.2095537707	-0.5316292003	 0.128649
H	-0.3675798911	 1.8836951194	 1.1473234816	 0.106334
H	-0.0232963581	-0.5635647359	 0.7839307499	 0.091871
H	-1.225931403	 0.066425737	-0.3301686021	 0.100874
H	 2.8170871022	-0.8307085962	-1.7007144418	 0.116385
H	 2.3365696482	-1.0901304076	 0.0411552744	 0.107973
H	 0.9290316697	-2.2637533789	-2.4580739784	 0.092493
H	 0.3527775297	-2.6819903941	 0.5580344833	 0.118062
H	-0.7316758109	-3.2101931113	-0.7359640838	 0.120518
H	 0.8772889344	-3.9259045497	-0.573395222	 0.118675
H	 0.4820754469	 1.1080530456	-5.606672326	 0.144882
H	-0.9280667306	 1.9099747748	-4.9079928142	 0.144754
H	 0.6782754177	 2.6242253608	-4.7200865533	 0.144011
28.2148	76.9267	99.3806	102.9091	150.5776	209.9632	215.4523	244.2161	271.4885	316.8554	333.9568	385.7624	469.0553	533.3163	559.75	597.2558	769.1969	800.5087	841.7987	895.4044	911.8552	974.1544	985.1394	1035.4551	1052.7738	1053.8734	1064.1087	1095.4436	1100.4107	1131.9466	1134.8416	1192.0929	1265.5727	1294.3699	1332.3508	1361.6354	1405.571	1408.4722	1415.9174	1427.536	1475.9865	1478.4086	1480.955	1488.2256	1494.944	1495.0632	1504.3242	1509.2999	2360.2283	3022.4083	3029.1395	3033.2719	3036.5603	3074.0881	3080.153	3082.6066	3087.8887	3103.3825	3111.8106	3116.8057	3125.6112	3149.737	3217.996
CCC1(CC1C)C#CC	CC[C@]1(C[C@H]1C)C#CC	
InChI=1S/C9H14/c1-4-6-9(5-2)7-8(9)3/h8H,5,7H2,1-3H3	InChI=1S/C9H14/c1-4-6-9(5-2)7-8(9)3/h8H,5,7H2,1-3H3/t8-,9-/m1/s1
