20
gdb 87639	2.88648	1.20119	0.99363	3.7669	81.85	-0.2254	0.0397	0.265	1270.5637	0.16957	-403.161484	-403.151994	-403.151049	-403.195845	34.763	
C	-0.0637190408	 1.4978732667	-0.0580864054	-0.40472
C	 0.03852492	-0.0091098379	 0.019046084	-0.071624
C	 1.369922771	-0.7173368092	-0.2171767443	-0.361627
C	 0.7526257798	-0.6860397399	 1.1474389673	 0.387535
C	 1.3053795937	-0.1012464145	 2.4580102145	-0.484599
C	 0.7415623941	-1.3883694213	 3.1125215616	 0.411782
O	 0.6932965569	-1.8627804663	 4.2179635862	-0.377916
N	 0.2782522906	-1.8375934686	 1.8986329947	-0.114046
C	-0.4272150237	-3.0350687048	 1.5317063166	-0.355261
H	 0.8357416841	 1.9756889456	 0.3437348127	 0.119236
H	-0.1804481038	 1.8326170638	-1.0946133475	 0.121656
H	-0.9213985519	 1.8706187215	 0.5126385837	 0.122231
H	-0.8293425938	-0.5413304516	-0.365089094	 0.088903
H	 1.3593768959	-1.6492538433	-0.7734450535	 0.114876
H	 2.2504198613	-0.1054497814	-0.3896732089	 0.117843
H	 2.3915192415	-0.0080808175	 2.5162219955	 0.131299
H	 0.833915771	 0.820139202	 2.8058208781	 0.131876
H	-0.5590100759	-3.6270575398	 2.4405612402	 0.164839
H	-1.4158839215	-2.8133526289	 1.111002239	 0.128771
H	 0.1365168514	-3.6308556847	 0.8032175995	 0.128949
82.0752	103.1705	145.6317	171.1005	198.9822	221.4806	231.7228	321.0088	414.331	465.8278	519.9646	554.8165	561.0413	725.0395	783.4568	814.9321	878.5684	899.1047	929.0318	997.9212	1014.5369	1042.2816	1066.6189	1091.7192	1120.558	1140.9815	1150.7804	1170.4751	1186.4841	1196.3481	1258.9517	1337.533	1409.7541	1415.9242	1424.2096	1446.6924	1467.4191	1482.3521	1491.5802	1494.2717	1509.0418	1518.1163	1879.1131	3012.378	3028.0764	3062.4226	3080.8544	3091.2075	3096.669	3121.6488	3128.8647	3130.5367	3137.5382	3207.3063
CC1CC11CC(=O)N1C	C[C@H]1C[C@]21CC(=O)N2C	
InChI=1S/C7H11NO/c1-5-3-7(5)4-6(9)8(7)2/h5H,3-4H2,1-2H3	InChI=1S/C7H11NO/c1-5-3-7(5)4-6(9)8(7)2/h5H,3-4H2,1-2H3/t5-,7+/m0/s1
