13
gdb 129205	3.17439	1.35724	0.95074	3.3625	71.63	-0.2393	-0.1186	0.1207	1124.9189	0.09041	-448.928173	-448.920715	-448.919771	-448.961003	26.631	
N	-0.1315388835	 1.3365790212	 0.0084615368	-0.549795
C	 0.0100557412	 0.072723987	 0.0012986919	 0.435433
N	-1.1561222364	-0.7228307998	 0.003462144	-0.219152
N	-1.2143045069	-2.0415788697	-0.0028514852	-0.1349
C	-0.0695864989	-2.6655664481	-0.0120649886	-0.064012
C	 1.1650235428	-1.9277422316	-0.0148991175	 0.207793
C	 2.4643673097	-2.7025007663	-0.025708879	 0.11073
O	 3.5515664162	-2.1953012933	-0.0285478385	-0.215232
N	 1.2160142907	-0.6329165618	-0.0086632794	-0.327134
H	 0.7869299147	 1.7762805344	 0.0058148894	 0.236607
H	-2.0434721794	-0.2380581867	 0.0106144183	 0.290786
H	-0.1017100038	-3.7480167528	-0.0173391603	 0.1369
H	 2.3308400737	-3.8067298026	-0.0309583119	 0.091978
65.705	101.4323	189.5942	195.4457	407.4264	411.3036	457.2601	577.8366	595.7099	672.5273	719.8203	757.5548	759.8653	844.3533	858.6456	957.8403	1010.6774	1024.7949	1110.9164	1169.2552	1212.5255	1306.4534	1417.2835	1426.9044	1444.8964	1564.4095	1636.9131	1727.7365	1836.5144	2893.2903	3209.6331	3519.7635	3600.9552
N=C1NN=CC(C=O)=N1	[NH]c1[nH]ncc(C=O)n1	
InChI=1S/C4H4N4O/c5-4-7-3(2-9)1-6-8-4/h1-2H,(H2,5,7,8)	InChI=1S/C4H9N4O/c5-4-7-3(2-9)1-6-8-4/h2-8H,1H2
