24
gdb 58194	2.07335	1.09933	0.99477	3.8128	89.08	-0.3066	0.038	0.3447	1421.4529	0.215378	-368.445844	-368.434535	-368.433591	-368.482665	41.149	
C	 0.2104014227	 1.6550803363	-0.5777948745	-0.402656
C	 0.3694668823	 0.1626717671	-0.2412210757	 0.037516
C	 1.3810789487	-0.4688724982	-1.2129666105	-0.40668
C	 0.7522866607	-0.051892751	 1.2489611949	 0.032357
C	-0.2651965042	 0.5811675388	 2.2097417458	-0.419949
C	 0.9913549909	-1.5565212316	 1.5881679053	-0.143901
C	 1.5521451747	-1.8002667927	 3.004539254	-0.407808
C	-0.2291319079	-2.346134106	 1.3822510641	 0.286575
N	-1.1947816194	-2.962405231	 1.2240938514	-0.343474
H	 1.1348500513	 2.2074798667	-0.3680417064	 0.110525
H	-0.0133545974	 1.781575015	-1.6415670474	 0.114832
H	-0.5985426457	 2.1288347017	-0.017164243	 0.119662
H	-0.6023110741	-0.3237605873	-0.4035274421	 0.097127
H	 2.3970922113	-0.1011482507	-1.0220881831	 0.109999
H	 1.3986601091	-1.5605114211	-1.1580476885	 0.122222
H	 1.1277992448	-0.2084652257	-2.245206328	 0.116678
H	 1.7268852277	 0.4322330542	 1.4094859431	 0.074691
H	-1.262899905	 0.1536379967	 2.0617195307	 0.137335
H	 0.0150221578	 0.42329997	 3.2542300824	 0.116572
H	-0.3338067911	 1.6597676135	 2.0585825554	 0.123098
H	 1.7318743535	-1.9425335755	 0.8807054764	 0.124992
H	 0.8258883244	-1.5518462676	 3.7807737053	 0.141573
H	 1.8281866114	-2.8503639557	 3.1298764844	 0.135137
H	 2.4468147635	-1.189179076	 3.1563045661	 0.123579
30.2539	66.7516	133.7463	181.0005	193.0632	206.5535	220.1065	244.8004	255.2332	335.9928	363.7599	380.013	401.9251	441.2834	470.1896	577.741	651.911	745.9453	814.6475	878.8907	931.7241	933.8685	969.5846	985.3122	999.3883	1044.7478	1060.132	1110.6788	1125.2809	1178.3155	1185.5898	1201.0397	1285.0593	1300.9728	1335.1893	1350.297	1372.3721	1378.588	1404.4335	1408.7426	1419.1895	1426.9661	1485.086	1490.0546	1494.079	1499.0068	1504.3172	1505.0762	1516.2101	1528.9376	2349.6602	2996.4871	3016.8728	3026.199	3033.0225	3047.766	3050.4184	3065.4807	3091.9143	3098.6079	3110.5595	3115.9471	3118.5248	3121.3449	3134.3032	3138.6861
CC(C)C(C)C(C)C#N	CC(C)[C@@H](C)[C@@H](C)C#N	
InChI=1S/C8H15N/c1-6(2)8(4)7(3)5-9/h6-8H,1-4H3	InChI=1S/C8H15N/c1-6(2)8(4)7(3)5-9/h6-8H,1-4H3/t7-,8+/m0/s1
