19
gdb 112607	4.16579	0.85419	0.82151	2.6876	73.84	-0.2582	-0.0374	0.2208	1446.0088	0.156439	-460.151191	-460.141778	-460.140834	-460.185713	34.501	
C	 0.139002869	 1.2263010806	 0.3094057387	-0.243608
O	-0.2886003065	-0.0255438837	-0.1817314908	-0.236007
C	 0.4830310763	-0.4962116638	-1.2504610864	 0.162979
C	 1.8873908015	-1.0909786781	-0.9435836111	-0.328464
C	 1.5319312285	-2.3176233924	-1.8539811351	 0.333054
O	 1.8399973299	-3.5795995899	-1.3568733399	-0.47882
C	 0.032374434	-1.8722494965	-1.7709275247	-0.327302
C	 2.0890078127	-2.1554681567	-3.2452064339	 0.112785
O	 2.71294099	-3.0324500734	-3.7939628205	-0.280801
H	 1.1631343887	 1.1842496106	 0.7092261446	 0.111011
H	 0.1050124119	 2.0016716552	-0.4720648807	 0.105745
H	-0.5415900115	 1.5075334137	 1.1160998574	 0.131825
H	 0.5312356669	 0.2617489435	-2.0485406682	 0.063469
H	 2.7791063508	-0.5069285731	-1.1837274608	 0.104657
H	 1.940221596	-1.4424159989	 0.0894957103	 0.133537
H	 2.3501257458	-4.0239982531	-2.0532571732	 0.291063
H	-0.4476416448	-2.4383615917	-0.969975103	 0.139494
H	-0.5816550078	-1.9166263498	-2.673142615	 0.108596
H	 1.8959666888	-1.1820209626	-3.7422381577	 0.096784
69.3817	97.6926	108.4101	196.5425	244.2651	274.9685	294.7503	358.7731	372.2256	433.4342	451.5404	511.6104	540.197	683.9365	810.6754	835.7514	857.3214	901.7206	942.6745	1015.9858	1025.5137	1048.592	1085.034	1118.206	1141.4282	1179.2703	1185.6415	1211.6361	1251.0805	1259.9171	1291.6462	1307.0418	1388.7321	1401.2029	1442.7706	1455.0495	1478.5168	1486.7817	1492.7747	1509.3274	1807.5435	2919.7396	2970.3489	2978.8777	3025.0564	3063.5649	3071.8197	3119.7983	3130.3619	3137.4931	3682.369
COC1CC(O)(C1)C=O	CO[C@H]1C[C@@](O)(C1)C=O	
InChI=1S/C6H10O3/c1-9-5-2-6(8,3-5)4-7/h4-5,8H,2-3H2,1H3	InChI=1S/C6H10O3/c1-9-5-2-6(8,3-5)4-7/h4-5,8H,2-3H2,1H3/t5-,6+
