21
gdb 111068	3.05228	1.03922	0.90406	1.1974	79.34	-0.2584	0.0656	0.324	1351.1953	0.182438	-424.159213	-424.149953	-424.149009	-424.193605	34.813	
O	 0.0102871669	 1.5128481691	-0.0695394728	-0.416918
C	 0.068272961	 0.1036339652	 0.1252219959	-0.121239
C	-1.3153394253	-0.5246182855	 0.0673912778	-0.027992
C	-2.0452257296	-0.7894224564	-1.2959932397	-0.075828
C	-1.110216843	-2.0120836435	-1.5199179117	-0.264103
C	-1.5342272775	-2.073185736	-0.0184276896	 0.350808
C	-1.1367721038	-3.1048580541	 0.9991997188	-0.225143
O	-1.5650549589	-4.3735130312	 0.523353559	-0.419925
C	-2.9794231361	-1.7505084517	-0.5082254056	-0.249738
H	-0.3757833466	 1.6670342583	-0.9377663887	 0.282308
H	 0.7674734199	-0.361732909	-0.5832176816	 0.088625
H	 0.4923977778	-0.0316831487	 1.1268302364	 0.107153
H	-1.9515137452	-0.0291887276	 0.8109028098	 0.068406
H	-2.3499075306	-0.0481958367	-2.0372837021	 0.064487
H	-1.5033953183	-2.8094140955	-2.1543971366	 0.101332
H	-0.059469449	-1.8218516985	-1.7446740115	 0.089026
H	-0.0440766587	-3.0806125029	 1.1456242308	 0.0869
H	-1.6025802363	-2.8604345467	 1.9684003451	 0.087304
H	-1.3110006428	-5.0380438751	 1.1703087439	 0.289127
H	-3.6523434727	-1.2938646862	 0.2234009207	 0.086144
H	-3.4770307313	-2.5323413174	-1.0859134383	 0.099267
71.395	80.763	132.0712	197.9238	238.9791	283.3441	292.9522	335.9236	354.3316	498.0685	559.9317	599.3966	660.8083	758.5796	784.7536	887.4405	906.4521	909.9109	953.0632	992.8669	1005.0894	1030.4457	1063.3218	1073.4594	1079.2224	1098.457	1135.4519	1147.4794	1151.6552	1165.7327	1199.1365	1218.9534	1225.3928	1235.0018	1260.2291	1279.4596	1325.8021	1353.7238	1408.7031	1435.6231	1466.0055	1497.6036	1511.6578	1513.3341	1548.7287	2955.7096	2983.0508	3003.6297	3033.9682	3051.4748	3062.3087	3070.7955	3092.2188	3123.027	3130.6498	3815.5704	3829.968
OCC1C2CC1(CO)C2	OC[C@H]1[C@H]2C[C@]1(CO)C2	
InChI=1S/C7H12O2/c8-3-6-5-1-7(6,2-5)4-9/h5-6,8-9H,1-4H2	InChI=1S/C7H12O2/c8-3-6-5-1-7(6,2-5)4-9/h5-6,8-9H,1-4H2/t5-,6-,7+/m0/s1
