20
gdb 61418	3.06716	0.94476	0.78894	2.0725	77.38	-0.2422	-0.0272	0.2151	1500.6926	0.167406	-440.352319	-440.341369	-440.340424	-440.389851	37.788	
C	 0.0917539887	 1.4300145988	-0.3295027202	-0.407198
C	 0.0349098207	-0.0786951775	-0.014210521	-0.051743
N	 0.7555597849	-0.4128827743	 1.1940040409	-0.318776
C	 2.1149093423	-0.494719403	 1.2188397121	 0.408859
C	 2.7136696282	-0.9966120143	 2.5230272967	-0.48142
O	 2.8039600065	-0.1872586568	 0.2590114753	-0.386099
C	-1.4044088692	-0.5771860289	 0.1323761389	 0.382332
C	-2.3262728658	-0.393235415	-1.0545148535	-0.480242
O	-1.7855195387	-1.0862303005	 1.1643432539	-0.312432
H	 1.1399518377	 1.723666556	-0.4036994464	 0.164294
H	-0.3995633425	 1.6578998587	-1.279502576	 0.11788
H	-0.3863980016	 2.0108691509	 0.4652122925	 0.122236
H	 0.4930220836	-0.6093675305	-0.8610878792	 0.11989
H	 0.1881026836	-0.7941382973	 1.9376693216	 0.255643
H	 3.1657705876	-1.9777682696	 2.3493430924	 0.150367
H	 3.514176684	-0.3180141881	 2.826161811	 0.150784
H	 1.9848064451	-1.081477713	 3.3326669139	 0.117934
H	-2.6590801789	 0.6498115673	-1.1024688966	 0.156625
H	-1.8186443275	-0.6144705555	-1.9979588821	 0.1416
H	-3.2019205588	-1.0321497175	-0.9346003942	 0.149468
32.0446	60.96	77.855	109.0152	136.3105	150.5744	225.1991	267.1014	317.2057	331.68	395.065	483.5822	535.5264	565.5256	611.9877	632.1369	662.2469	777.544	906.4799	952.2598	965.7171	990.8804	1016.1671	1052.9916	1094.3276	1113.9415	1164.8923	1209.7447	1256.8226	1316.4795	1367.5419	1387.9776	1395.0316	1398.7366	1464.7361	1468.8995	1474.0786	1480.8547	1488.7791	1510.6644	1523.4514	1764.38	1800.6832	3012.5454	3044.1251	3047.116	3050.2849	3108.6533	3119.751	3122.8119	3137.4159	3146.6109	3155.0661	3600.3384
CC(NC(C)=O)C(C)=O	C[C@@H](NC(=O)C)C(=O)C	
InChI=1S/C6H11NO2/c1-4(5(2)8)7-6(3)9/h4H,1-3H3,(H,7,9)	InChI=1S/C6H11NO2/c1-4(5(2)8)7-6(3)9/h4H,1-3H3,(H,7,9)/t4-/m1/s1
