15
gdb 24028	4.52337	1.06789	0.87815	2.3954	78.03	-0.2511	-0.0423	0.2088	1246.5602	0.113857	-379.686728	-379.679004	-379.67806	-379.720436	28.308	
C	-0.2530092364	-1.0672716735	 0.8004362944	-0.426869
C	-0.0944207893	-0.0101462901	 0.2522368207	 0.294603
C	 0.0954552367	 1.2775718103	-0.405177436	-0.46739
C	 1.470362223	 1.8950935729	-0.2138780263	 0.21468
C	 2.3303652521	 1.5598232328	 0.8295993751	-0.030301
N	 3.5211836688	 2.1397911475	 0.999937837	-0.25235
C	 3.8531785722	 3.0682476816	 0.1038603125	 0.074845
N	 3.1268241388	 3.4691082414	-0.9415322173	-0.250688
C	 1.9430080433	 2.8745570944	-1.0862238841	-0.03323
H	-0.3970085159	-2.0057388217	 1.2764087227	 0.205133
H	-0.1005542481	 1.1705041224	-1.4797336048	 0.150156
H	-0.6665911205	 1.9798804496	-0.0381920097	 0.157778
H	 2.0503782315	 0.7921135548	 1.5464666301	 0.130336
H	 4.820023975	 3.5479749707	 0.2351103614	 0.121603
H	 1.3432335286	 3.1899155468	-1.9397630056	 0.111693
17.5455	121.567	199.8945	303.8425	322.7085	415.7914	420.2824	445.4186	626.8484	638.068	648.3714	664.597	754.8257	826.3428	892.322	970.1514	975.7142	1007.3244	1024.1768	1059.7767	1140.2815	1213.1572	1222.9668	1235.4995	1252.623	1323.913	1383.3971	1452.9683	1459.7636	1468.774	1598.1131	1626.2616	2243.3648	3008.097	3041.7658	3131.1172	3165.8805	3169.45	3504.4048
C#CCC1=CN=CN=C1	C#CCc1cncnc1	
InChI=1S/C7H6N2/c1-2-3-7-4-8-6-9-5-7/h1,4-6H,3H2	InChI=1S/C7H6N2/c1-2-3-7-4-8-6-9-5-7/h1,4-6H,3H2
