21
gdb 103485	2.96092	1.21392	1.11648	2.4896	78.07	-0.2292	0.0655	0.2948	1203.9262	0.182496	-424.208002	-424.198884	-424.19794	-424.241657	34.538	
C	-0.1241060747	 1.7687529269	-0.4779128805	-0.468739
C	-0.037354629	 0.3360808237	 0.002896037	 0.252304
C	-1.2675241752	-0.0895995675	 0.799914754	-0.147695
O	-1.2208947307	-1.4168896422	 1.3026046773	-0.413236
C	 0.6520470514	-0.7409502466	-0.8310089583	-0.129678
C	 1.5929544926	-0.3242006321	-1.9619010552	-0.268481
C	 2.8667340477	 0.1005151056	-1.197183836	-0.06228
O	 2.4410345964	 0.4951921092	 0.1111531878	-0.261905
C	 1.2888318378	-0.2416580587	 0.439315251	 0.063847
H	 0.8493723112	 2.14396269	-0.7970763857	 0.134329
H	-0.8311173824	 1.874479445	-1.3089227466	 0.111216
H	-0.4690982463	 2.4193953605	 0.3343152465	 0.116603
H	-1.3555572253	 0.5590609699	 1.6800258318	 0.113947
H	-2.171970933	 0.0701140703	 0.1913069837	 0.089955
H	-1.4627290381	-2.0162240714	 0.5911242788	 0.288142
H	 0.2113901437	-1.730695946	-0.8664362949	 0.06594
H	 1.7911314398	-1.1577239444	-2.641064872	 0.103384
H	 1.1917752611	 0.498745389	-2.5616012381	 0.107122
H	 3.5709232122	-0.7421813816	-1.1230542463	 0.09469
H	 3.391034631	 0.9488852407	-1.6466814223	 0.106042
H	 1.3623536396	-0.8440777502	 1.338651988	 0.104495
95.2044	126.9323	161.1795	200.9886	212.6985	256.5349	289.689	299.7384	407.0709	464.7469	561.9135	636.5906	704.0631	739.9195	799.3138	860.0225	870.0277	939.2247	957.9453	976.97	978.5128	1018.8764	1037.7473	1075.6171	1082.4517	1107.5657	1131.0512	1138.1777	1196.8962	1230.878	1236.3353	1246.928	1277.5791	1289.2064	1315.2944	1377.0695	1390.1455	1402.0958	1413.2433	1438.6409	1487.6627	1492.7685	1501.65	1505.4337	1519.4852	2974.366	2987.0393	3027.5105	3050.6592	3051.9813	3080.301	3082.1546	3098.5014	3133.3184	3161.6596	3170.1205	3836.742
CC1(CO)C2CCOC12	C[C@@]1(CO)[C@H]2CCO[C@@H]12	
InChI=1S/C7H12O2/c1-7(4-8)5-2-3-9-6(5)7/h5-6,8H,2-4H2,1H3	InChI=1S/C7H12O2/c1-7(4-8)5-2-3-9-6(5)7/h5-6,8H,2-4H2,1H3/t5-,6+,7+/m0/s1
