12
gdb 49207	3.48528	1.30525	0.94961	7.1986	66.68	-0.2487	-0.1147	0.134	1107.9777	0.07708	-472.680683	-472.673088	-472.672144	-472.713213	26.971	
O	-0.2051923146	-0.0124923694	 0.0018292764	-0.260994
C	-0.0576019742	 1.1856088936	 0.0098198809	 0.080842
C	 1.2240260426	 1.8864521274	 0.0014315784	 0.038688
C	 1.3460309618	 3.2446508498	 0.0108648947	-0.046865
N	 2.6452338311	 3.68512127	 0.0002400022	-0.350496
C	 3.5350194693	 2.5989907582	-0.0179844304	 0.370259
O	 4.7295998422	 2.6588461003	-0.0304575315	-0.292509
C	 2.5929118239	 1.3331173586	-0.0178117277	 0.202894
O	 3.0053983952	 0.2060898137	-0.0312468249	-0.258423
H	-0.9345331843	 1.8766465993	 0.0245226102	 0.062623
H	 0.5375435331	 3.9664500566	 0.0253634754	 0.1694
H	 2.9385666137	 4.6490402118	 0.0048269563	 0.284582
84.4009	157.3571	158.3791	274.1593	310.5555	312.3613	441.0929	509.0298	549.2842	556.2164	654.2005	697.1418	796.7887	832.8612	929.8228	939.5993	1035.1135	1107.5456	1139.1338	1303.1745	1336.9109	1426.0104	1440.4431	1629.2614	1789.4718	1848.805	1879.4515	2836.8902	3210.7155	3648.2458
O=CC1=CNC(=O)C1=O	O=CC1=CNC(=O)C1=O	
InChI=1S/C5H3NO3/c7-2-3-1-6-5(9)4(3)8/h1-2H,(H,6,8,9)	InChI=1S/C5H3NO3/c7-2-3-1-6-5(9)4(3)8/h1-2H,(H,6,8,9)
