20
gdb 79025	4.7321	1.32266	1.27284	1.497	82.	-0.2278	0.0931	0.3209	1064.3998	0.173597	-365.937333	-365.930484	-365.92954	-365.968133	29.01	
C	-0.1734462956	 1.5852497713	-0.0340495106	-0.429151
C	 0.0132436473	 0.0755327674	 0.0079670311	 0.012934
C	 1.2462456591	-0.5935148197	-0.6441447214	-0.062853
C	 2.1464664436	-0.1626600201	 0.5823627315	-0.037108
C	 3.1378422045	-1.2958666218	 0.7868711171	-0.056013
C	 2.8495710232	-2.29778284	 1.8474539743	-0.246975
N	 2.3229719269	-2.4935999459	 0.4829005078	-0.118987
C	 1.0173919038	-1.8446362343	 0.2599815452	 0.019063
C	 0.7694604593	-0.5969086398	 1.1827080201	-0.090333
H	 0.744290496	 2.132367285	 0.1987600503	 0.115417
H	-0.5066824673	 1.9050885825	-1.0276768275	 0.116495
H	-0.938977611	 1.900782139	 0.6836211976	 0.115676
H	-0.9324579496	-0.423081431	-0.2390291111	 0.062873
H	 1.5379693401	-0.6007285349	-1.6960887618	 0.070673
H	 2.4977612146	 0.8627100956	 0.6822088488	 0.068777
H	 4.1247347019	-1.2340736966	 0.3361709457	 0.090602
H	 3.6220384817	-3.0075137771	 2.1301808306	 0.113852
H	 2.1595094559	-2.0414905526	 2.6454263132	 0.114491
H	 0.2038282492	-2.5391416603	 0.0483353402	 0.072527
H	 0.4786724665	-0.5898798668	 2.2344714989	 0.06804
191.056	214.4299	231.8001	338.7779	389.5792	485.6712	559.7617	662.6988	682.6578	776.6617	795.2345	809.7399	818.4076	847.1862	892.826	900.8092	937.0222	978.5227	992.0002	1017.2687	1032.2184	1052.4507	1074.4562	1084.0971	1108.6012	1114.2209	1129.3186	1135.2579	1153.2389	1164.6507	1180.7302	1215.0648	1238.7175	1251.146	1273.6379	1277.7818	1330.3022	1367.814	1412.5819	1424.7765	1495.4194	1501.6668	1503.2317	3022.3312	3032.4283	3088.9566	3089.41	3094.8851	3109.5366	3116.1537	3119.699	3134.4117	3146.8961	3202.2222
CC1C2C3C4CN4C2C13	C[C@H]1[C@H]2[C@@H]3[C@H]4CN4[C@H]2[C@H]13	
InChI=1S/C8H11N/c1-3-5-7-4-2-9(4)8(5)6(3)7/h3-8H,2H2,1H3	InChI=1S/C8H11N/c1-3-5-7-4-2-9(4)8(5)6(3)7/h3-8H,2H2,1H3/t3-,4-,5-,6+,7-,8+,9?/m1/s1
