13
gdb 5280	5.16448	1.65619	1.25507	3.9111	63.33	-0.2341	-0.0326	0.2015	890.8772	0.097747	-394.817698	-394.810904	-394.80996	-394.848945	25.153	
N	-0.148722411	 1.3345397936	-0.1235458095	-0.556567
C	 0.0546991102	-0.0282860927	-0.0215814571	 0.220735
N	 1.1720569178	-0.6532720567	 0.0136317109	-0.516813
C	-1.1732013287	-0.8301150445	-0.0043337534	 0.374057
C	-1.4273389649	-2.1647637216	 0.0092453157	-0.168509
N	-2.7971488965	-2.3734020058	 0.0316020092	-0.254916
C	-3.2999295377	-1.1818887761	 0.0309423312	 0.068709
O	-2.3872870234	-0.1844842797	 0.0098212974	-0.196822
H	 0.627042049	 1.9295443971	 0.1198170347	 0.252024
H	-1.0584931247	 1.6931505926	 0.1192792655	 0.263684
H	 1.9613057798	-0.0061415139	-0.0102488689	 0.205341
H	-0.7167541794	-2.9739822447	 0.0040403118	 0.153753
H	-4.3379785105	-0.8891195075	 0.0442501125	 0.155324
73.6194	195.7209	203.9048	395.6992	416.8406	430.2115	507.226	599.667	654.327	662.0178	745.7607	830.1593	841.8909	900.1916	939.4057	974.5746	1094.3358	1117.0921	1122.874	1142.0664	1211.5259	1249.2959	1346.1464	1411.5326	1532.9442	1625.3667	1647.9249	1706.9882	3278.7665	3289.3099	3466.5947	3587.9503	3704.0541
NC(=N)C1=CN=CO1	NC(=N)c1cnco1	
InChI=1S/C4H5N3O/c5-4(6)3-1-7-2-8-3/h1-2H,(H3,5,6)	InChI=1S/C4H5N3O/c5-4(6)3-1-7-2-8-3/h1-2H,(H3,5,6)
