18
gdb 85160	2.07458	1.6883	1.02164	1.5173	74.	-0.2523	-0.0235	0.2289	1172.8299	0.145525	-439.111375	-439.102108	-439.101164	-439.146056	33.463	
C	-0.4954726589	 1.6219164404	-0.2278393401	-0.385635
C	-0.1219183306	 0.1641143853	-0.0923680966	 0.115804
O	 1.0974846103	-0.1499867712	-0.8701425877	-0.262128
C	 1.771949582	-0.5637825165	 0.2465827085	 0.434987
N	 2.9564193927	-0.946623333	 0.405223401	-0.548725
C	 0.5872048361	-0.3727325665	 1.1799478785	-0.263357
C	 0.7753780996	 0.4753482792	 2.436316773	 0.359651
C	 1.8335207364	-0.0277287173	 3.3921513573	-0.481033
O	 0.100009276	 1.4541825744	 2.6508871843	-0.295132
H	 0.3232639972	 2.2746828614	 0.0802004189	 0.134798
H	-0.7426035778	 1.8330842044	-1.2729369081	 0.122669
H	-1.3611657357	 1.8504998139	 0.3971788487	 0.142561
H	-0.9322768983	-0.4850972469	-0.436240642	 0.099259
H	 3.4757726372	-0.9379699947	-0.4738436679	 0.23276
H	 0.1954851388	-1.345123691	 1.5003855677	 0.132612
H	 1.5228933178	-0.994857478	 3.8061602582	 0.140649
H	 2.7723355696	-0.2049855141	 2.8577268189	 0.180916
H	 1.9669834776	 0.6874094603	 4.2045227972	 0.139344
42.6267	95.4296	142.7185	174.5698	205.3566	239.5444	311.0246	363.7659	406.5787	452.6753	523.9179	604.7145	625.5648	725.8711	790.6358	852.9435	859.3028	884.9346	965.8413	1008.5707	1028.6119	1038.2952	1066.9916	1084.5957	1155.2542	1187.1192	1201.9217	1235.22	1319.0167	1342.2557	1385.5327	1390.0793	1417.7819	1464.7295	1471.3479	1474.4312	1490.5926	1804.6563	1819.5193	3035.4411	3051.4543	3052.0753	3070.3819	3100.9502	3128.3963	3146.6699	3156.5176	3481.7128
CC1OC(=N)C1C(C)=O	C[C@H]1O[C]([NH])[C@H]1C(=O)C	
InChI=1S/C6H9NO2/c1-3(8)5-4(2)9-6(5)7/h4-5,7H,1-2H3	InChI=1S/C6H9NO2/c1-3(8)5-4(2)9-6(5)7/h4-5,7H,1-2H3/t4-,5+/m1/s1
