20
gdb 102389	1.74803	1.5261	1.07646	2.5531	74.95	-0.242	0.023	0.2651	1229.9719	0.170318	-436.448885	-436.438076	-436.437132	-436.485007	38.453	
C	-0.0502929269	 1.5878152076	 0.0887334608	-0.341318
N	-0.0035403351	 0.1285219907	-0.0216317971	-0.299766
C	 0.6898432898	-0.4191809745	-1.197462009	 0.048105
C	-0.0582764052	-0.0258735952	-2.5068008958	-0.179854
N	-1.4592134216	-0.4067524259	-2.5732743793	-0.506748
C	 2.1931340789	-0.0281679748	-1.2823824818	-0.090168
O	 2.8872095259	-0.3403049628	-0.0915910482	-0.42358
C	 0.6449955382	-1.89003684	-1.0634297824	 0.26936
N	 0.6687668274	-3.0424391974	-0.9734073623	-0.346878
H	 0.9285446646	 2.0895898468	 0.0609790656	 0.116929
H	-0.6756736735	 2.014165776	-0.700604698	 0.133763
H	-0.5231092089	 1.8340165864	 1.0430491686	 0.133617
H	 0.4541145245	-0.2436827084	 0.8036883522	 0.236764
H	 0.0249086435	 1.0608761417	-2.6196084323	 0.116405
H	 0.4722760637	-0.4682259608	-3.3556636201	 0.120786
H	-1.536663752	-1.4168050182	-2.6539271388	 0.241583
H	-1.9095761346	-0.1633469815	-1.6946756222	 0.241558
H	 2.6483175033	-0.5023831319	-2.1631504959	 0.108141
H	 2.2710150371	 1.0549545174	-1.4110283935	 0.122035
H	 2.9864540308	-1.2983149752	-0.0462713706	 0.299266
43.483	104.8825	111.4109	135.98	162.3041	208.7853	252.1062	269.6588	302.7459	336.2927	383.1791	395.6189	448.6941	465.9436	572.0532	656.7684	711.7643	770.4753	842.3746	912.9233	921.4787	1000.7928	1050.2824	1069.73	1100.2444	1127.981	1141.6452	1162.5748	1197.1735	1229.905	1288.9296	1363.7482	1386.9741	1402.4296	1414.6157	1456.7587	1479.1218	1496.8276	1502.4018	1506.9901	1528.7406	1678.6109	2348.6226	2992.8177	3008.9179	3044.8383	3081.5379	3089.689	3097.1752	3118.1464	3489.2122	3532.4552	3563.1516	3798.8489
CNC(CN)(CO)C#N	CN[C@@](CN)(CO)C#N	
InChI=1S/C5H11N3O/c1-8-5(2-6,3-7)4-9/h8-9H,2,4,6H2,1H3	InChI=1S/C5H11N3O/c1-8-5(2-6,3-7)4-9/h8-9H,2,4,6H2,1H3/t5-/m1/s1
