18
gdb 69447	2.83211	1.25734	1.19364	5.1838	75.25	-0.2695	0.035	0.3045	1118.6392	0.148844	-401.962717	-401.954639	-401.953695	-401.995235	31.503	
O	-0.4463329861	 1.3528636893	-0.0683739241	-0.469677
C	-0.1823143306	-0.0080837853	 0.0637370318	 0.428792
C	-0.1690867851	-0.8844940195	-1.1654471331	-0.381272
C	-1.3012705418	-0.9883683778	-0.1590970818	-0.065788
C	-1.194895249	-2.0954493496	 0.8916967664	-0.159652
C	 0.2596929349	-1.9589235462	 1.4472016451	-0.250228
C	 0.6242111358	-0.4710980464	 1.2702912467	-0.279624
C	-2.1964042631	-1.9054197403	 1.9450185505	 0.270277
N	-2.9833466493	-1.757626734	 2.7788055066	-0.326193
H	 0.3446450634	 1.7811970373	-0.4133181988	 0.285073
H	-0.4269559285	-0.3925166304	-2.096579302	 0.122835
H	 0.5524181232	-1.6896003052	-1.2645099326	 0.112177
H	-2.2838399882	-0.644408722	-0.4567967968	 0.11681
H	-1.3554825873	-3.0917628167	 0.4646958688	 0.123885
H	 0.3341098166	-2.2955141142	 2.4824483393	 0.129472
H	 0.9203241924	-2.5950963677	 0.8525594223	 0.115587
H	 1.7038613869	-0.3248789722	 1.1564037549	 0.098464
H	 0.2968048558	 0.1183817708	 2.133482447	 0.129063
86.5274	145.6858	233.9473	275.3884	288.0547	360.3581	387.0819	442.3548	473.7987	534.1711	587.0093	692.6701	731.0178	787.9142	837.8178	872.5766	915.2969	939.3814	960.8485	1000.8254	1025.9153	1043.4955	1072.6628	1078.0186	1107.1597	1169.3909	1193.7228	1250.0454	1266.1381	1267.8989	1310.3491	1327.2935	1349.7713	1354.8778	1412.0331	1482.6122	1491.5696	1509.2462	2355.1702	3042.0198	3046.7597	3069.7838	3086.8619	3123.929	3128.9414	3196.6535	3219.7592	3800.1865
OC12CC1C(CC2)C#N	O[C@]12C[C@H]1[C@@H](CC2)C#N	
InChI=1S/C7H9NO/c8-4-5-1-2-7(9)3-6(5)7/h5-6,9H,1-3H2	InChI=1S/C7H9NO/c8-4-5-1-2-7(9)3-6(5)7/h5-6,9H,1-3H2/t5-,6-,7+/m0/s1
