21
gdb 84014	2.06647	1.738	1.42551	0.7606	78.56	-0.2228	0.0788	0.3016	1074.3197	0.181962	-424.206607	-424.197498	-424.196554	-424.240494	34.285	
C	-0.3509638044	 1.4802025538	-0.1698278352	-0.41205
C	-0.0612592149	-0.001234659	-0.0727580248	-0.102253
C	 1.3305155403	-0.5545156952	-0.3490465262	-0.001223
O	 2.3680151561	 0.3471970485	-0.6073442253	-0.251648
C	 3.244180245	 0.4407523158	 0.5088745107	-0.096983
C	 2.4933436522	 1.0072796904	 1.701379153	-0.068971
O	 1.3268002996	 0.2567876743	 2.0276875606	-0.308474
C	 0.772445885	-0.5925686162	 1.0509273027	 0.373515
C	 0.3637784161	-1.9042636941	 1.6754978964	-0.437502
H	 0.5680777765	 2.0687175907	-0.154397919	 0.127725
H	-0.866910299	 1.7075282152	-1.1081509278	 0.115767
H	-0.9872980929	 1.8153124084	 0.6554457551	 0.120274
H	-0.8712196845	-0.6438991961	-0.4094178985	 0.080469
H	 1.4269003703	-1.4881401902	-0.9034763676	 0.085271
H	 3.6702764589	-0.5458490675	 0.7458137649	 0.098224
H	 4.0582116728	 1.1124401223	 0.2220370044	 0.112619
H	 3.1321312885	 1.0099030115	 2.5925370888	 0.104971
H	 2.2109499343	 2.0470555642	 1.4832997392	 0.104221
H	-0.3700289205	-1.7351903908	 2.4706825828	 0.126478
H	-0.0855955104	-2.5687528588	 0.9320256601	 0.113467
H	 1.229913801	-2.4100130172	 2.1151896156	 0.116103
54.7138	119.8289	174.4633	199.9498	217.6369	232.6851	329.4546	349.0611	455.7197	494.5568	510.6583	583.9249	636.4915	735.8326	786.831	818.4614	879.3124	913.3223	966.6595	981.911	1018.7402	1058.3905	1088.8897	1115.1758	1124.627	1130.3528	1149.3841	1161.01	1181.0301	1241.7483	1266.1881	1278.158	1311.8212	1349.5566	1398.3673	1410.6386	1414.3532	1416.5078	1447.8518	1479.551	1491.5312	1492.3555	1497.682	1500.9641	1514.4239	2992.2578	3004.7741	3032.0184	3041.2012	3057.3631	3092.6097	3095.1566	3098.166	3098.519	3112.6757	3126.3034	3140.3038
CC1C2OCCOC12C	C[C@H]1[C@H]2OCCO[C@@]12C	
InChI=1S/C7H12O2/c1-5-6-7(5,2)9-4-3-8-6/h5-6H,3-4H2,1-2H3	InChI=1S/C7H12O2/c1-5-6-7(5,2)9-4-3-8-6/h5-6H,3-4H2,1-2H3/t5-,6+,7-/m0/s1
