19
gdb 80996	2.70666	1.49529	1.20187	2.4998	75.43	-0.2364	-0.0072	0.2292	1082.3196	0.159082	-423.037564	-423.029293	-423.028349	-423.069902	32.736	
C	-0.1588971503	 1.5248883673	 0.0215340358	-0.434997
C	 0.0146315771	 0.0119153589	 0.0258784315	-0.004938
C	 1.1469050736	-0.5875677186	-0.8961420055	-0.142652
C	 2.1435967011	-0.2777761222	 0.2714151523	-0.320474
C	 0.8942128535	-0.6091021129	 1.1485531563	 0.42079
O	 0.7197881187	-0.1291701857	 2.4429225251	-0.488358
C	 0.7215777172	-2.1198758146	 0.8791694472	-0.410884
C	 0.9135822167	-2.0705129687	-0.6572635789	 0.436954
O	 0.8786065201	-2.9775648041	-1.4429115556	-0.334446
H	 0.7863115555	 2.0696732175	 0.0809964744	 0.122049
H	-0.6723651701	 1.8452341211	-0.8905524553	 0.120153
H	-0.7690851816	 1.8302846857	 0.876988457	 0.13551
H	-0.9674753419	-0.461301819	-0.0899647416	 0.076684
H	 1.3096631825	-0.2584058742	-1.9197631352	 0.083712
H	 3.0298501439	-0.9117350511	 0.3677035724	 0.099426
H	 2.428902584	 0.7722710065	 0.3128882161	 0.117415
H	 1.2521488206	-0.6584356861	 3.0463351505	 0.281852
H	 1.4845201327	-2.7459729122	 1.3551842012	 0.114262
H	-0.2668161334	-2.5021954975	 1.1515709322	 0.127943
128.4229	188.7996	205.3078	231.1947	255.2047	321.7376	407.4213	434.0319	496.9341	513.328	565.6674	612.2579	664.1218	770.8733	784.9552	801.964	856.6048	930.8485	949.9887	1001.8502	1018.0221	1044.4384	1063.12	1086.431	1114.2971	1144.4618	1159.8861	1187.6604	1207.3359	1220.6491	1245.5379	1254.4551	1307.6549	1364.4036	1405.7346	1414.9592	1460.403	1494.6449	1497.2069	1519.0504	1870.9478	3031.7154	3043.6722	3046.0935	3064.6816	3099.311	3107.3787	3120.2909	3149.5649	3153.9045	3809.3603
CC1C2CC1(O)CC2=O	C[C@H]1[C@H]2C[C@]1(O)CC2=O	
InChI=1S/C7H10O2/c1-4-5-2-7(4,9)3-6(5)8/h4-5,9H,2-3H2,1H3	InChI=1S/C7H10O2/c1-4-5-2-7(4,9)3-6(5)8/h4-5,9H,2-3H2,1H3/t4-,5+,7-/m0/s1
