16
gdb 35528	3.19364	1.50835	1.39902	3.1501	66.92	-0.2792	0.0075	0.2867	955.5462	0.127055	-437.903818	-437.896969	-437.896024	-437.935284	26.688	
N	-0.1560047455	-1.1698042063	-0.2438061851	-0.329249
C	-0.0954490068	-0.023698133	-0.1098946472	 0.280988
C	-0.0073310601	 1.4328683464	 0.0239529256	-0.020794
O	-0.5378678434	 1.8757101909	 1.2794380334	-0.278905
C	 0.5215832517	 2.6605068934	 1.8536971251	 0.187456
C	 1.5808054326	 1.7135958819	 2.439392891	-0.237669
C	 2.2710783764	 1.2320730717	 1.1254878657	-0.243452
C	 1.4449397498	 2.0024374183	 0.0766832712	 0.024239
O	 1.1632438329	 3.2420391352	 0.7361789801	-0.240194
H	-0.5726431672	 1.8932322958	-0.7952524352	 0.135681
H	 0.0887226744	 3.4197653546	 2.5026257074	 0.107002
H	 2.2700257106	 2.2543652851	 3.091896246	 0.115896
H	 1.1171796898	 0.9061676261	 3.0075784732	 0.12879
H	 3.3145249973	 1.5479089371	 1.0770571944	 0.119414
H	 2.23106196	 0.1509409513	 0.9849851401	 0.141758
H	 1.9027053275	 2.1750325015	-0.8948638357	 0.109039
96.493	160.2969	243.4751	349.4381	404.473	504.4497	543.9318	591.0438	645.7632	782.8106	810.8854	838.0083	853.7215	880.3554	916.5111	949.9559	975.2656	1008.7934	1031.5069	1043.46	1069.6808	1094.0452	1154.6187	1225.4698	1232.4794	1263.7271	1296.7402	1300.8175	1326.7239	1340.6817	1352.2992	1362.4325	1478.9809	1502.166	2359.3241	3038.7099	3076.7536	3087.8193	3128.034	3143.6557	3149.4284	3155.368
N#CC1OC2CCC1O2	N#C[C@H]1O[C@H]2CC[C@@H]1O2	
InChI=1S/C6H7NO2/c7-3-5-4-1-2-6(8-4)9-5/h4-6H,1-2H2	InChI=1S/C6H7NO2/c7-3-5-4-1-2-6(8-4)9-5/h4-6H,1-2H2/t4-,5+,6-/m0/s1
