18
gdb 16253	3.03231	2.14139	1.57732	2.4012	67.98	-0.225	0.0681	0.293	867.9348	0.154185	-384.92495	-384.917415	-384.916471	-384.957032	29.17	
O	-0.2370644697	 1.4076724352	 0.5242432737	-0.4325
C	-0.0153964064	 0.0929662674	 0.019943184	 0.004735
C	 0.7357012606	-0.7967798965	 1.0283031056	-0.242244
C	-0.4190342187	-1.3129496555	 1.8904574157	-0.078822
O	-1.4620378594	-1.5717384159	 0.9582761987	-0.298683
C	-1.3648891596	-0.6153970297	-0.0812894208	 0.473948
C	-2.6072379009	 0.1110835884	-0.499517548	-0.314162
C	-2.017785877	-0.9770259673	-1.3801879702	-0.341965
H	 0.6184148616	 1.8455310776	 0.5828017724	 0.281748
H	 0.4903142099	 0.1390072025	-0.9533178514	 0.069214
H	 1.2184142171	-1.6304165277	 0.5075453418	 0.108225
H	 1.4962535239	-0.2437675231	 1.5862882245	 0.09124
H	-0.2024096229	-2.2437197669	 2.4206990457	 0.105615
H	-0.7253262209	-0.5496361428	 2.6212372871	 0.101067
H	-3.5122404659	-0.1291935121	 0.046697828	 0.119371
H	-2.5109741543	 1.1464343561	-0.8043256021	 0.123994
H	-1.5293734358	-0.6924669929	-2.3065705453	 0.109289
H	-2.5346674415	-1.9298621768	-1.4099626092	 0.11993
41.8293	204.5743	239.9886	282.036	320.0914	383.3216	406.6841	529.718	544.5374	647.2301	765.9622	797.3714	859.2717	875.161	902.6704	923.7811	958.8863	977.1343	994.8702	1033.7468	1046.3248	1068.5056	1087.4406	1134.5478	1188.84	1190.8483	1218.3905	1228.4909	1265.0464	1306.7087	1332.7204	1360.1607	1393.7175	1429.3018	1453.6518	1473.9779	1496.2726	1518.3268	2995.2834	3012.6033	3052.43	3095.0113	3106.652	3127.9406	3142.1555	3215.785	3236.4554	3813.0562
OC1CCOC11CC1	O[C@H]1CCOC21CC2	
InChI=1S/C6H10O2/c7-5-1-4-8-6(5)2-3-6/h5,7H,1-4H2	InChI=1S/C6H10O2/c7-5-1-4-8-6(5)2-3-6/h5,7H,1-4H2/t5-/m0/s1
