18
gdb 81307	2.24992	1.77629	1.5901	3.0149	70.78	-0.2217	-0.0101	0.2116	954.7508	0.149429	-439.082545	-439.074804	-439.073859	-439.11472	30.281	
O	-0.0522112028	 1.4814206216	 0.0491612884	-0.42251
C	-0.0042115794	 0.0820398982	-0.0345036186	 0.133502
C	-1.3667247677	-0.6432472649	-0.0732900986	-0.042573
C	-2.3970800499	 0.1567269281	-0.8764824081	-0.201999
C	-1.9217445454	 0.3322851595	-2.3425324272	-0.30652
C	-0.4067053413	 0.252937314	-2.4697290271	 0.450004
O	 0.2456032796	 0.847714162	-3.2933632033	-0.331237
C	 0.2280641549	-0.6308504632	-1.4046085912	-0.191425
N	-0.7678151886	-1.6830749055	-0.9912872214	-0.32956
H	 0.8240004969	 1.8375795559	-0.1328440758	 0.295301
H	 0.6522760916	-0.3568601693	 0.7310583598	 0.074312
H	-1.7754302846	-1.0199251807	 0.8669268321	 0.074743
H	-3.3602157448	-0.3608207756	-0.8557207469	 0.103289
H	-2.531493395	 1.1317358962	-0.3999084824	 0.125761
H	-2.3091194073	-0.4981009898	-2.9448265608	 0.141871
H	-2.2739064922	 1.2598233953	-2.797843664	 0.12057
H	 1.2265284385	-0.9622294441	-1.6934535383	 0.08179
H	-0.2737115326	-2.3678000577	-0.4216025166	 0.224684
88.8175	139.9789	237.0021	247.0678	341.9537	399.008	445.2302	487.0567	547.4605	564.2214	632.7686	724.4858	802.8709	821.8712	854.9501	882.9841	916.3601	972.3166	994.134	1025.065	1053.5415	1076.8173	1107.8898	1122.5191	1157.1356	1208.033	1217.9834	1233.3517	1246.1718	1295.7969	1305.1237	1326.5487	1355.775	1372.1492	1401.1529	1417.7946	1447.3994	1487.497	1827.755	2992.9324	3046.66	3058.6659	3086.7545	3102.2431	3108.5804	3120.6758	3475.4135	3813.7378
OC1C2CCC(=O)C1N2	O[C@H]1[C@H]2CCC(=O)[C@@H]1N2	
InChI=1S/C6H9NO2/c8-4-2-1-3-6(9)5(4)7-3/h3,5-7,9H,1-2H2	InChI=1S/C6H9NO2/c8-4-2-1-3-6(9)5(4)7-3/h3,5-7,9H,1-2H2/t3-,5+,6+/m1/s1
