15
gdb 125363	3.37987	1.63532	1.10967	4.1197	74.18	-0.2128	-0.0068	0.2059	1028.1114	0.115802	-413.000549	-412.993273	-412.992329	-413.032095	27.792	
C	-0.0188383017	 1.5569219684	-0.018109283	-0.513915
C	-0.006763833	 0.0606378186	 0.0188868222	 0.106438
C	-0.0309265411	-0.7963725453	-1.0667809891	-0.12443
N	-0.010276751	-2.1235732555	-0.6710212154	-0.394963
C	 0.0281960735	-2.129877144	 0.6991735339	 0.373691
C	 0.0311781601	-0.8156725305	 1.1456518284	 0.301363
N	 0.0697938207	-0.9739356618	 2.495143784	-0.370663
N	 0.0887940671	-2.2996806056	 2.8264053919	-0.129048
N	 0.0630675376	-3.0071863068	 1.7252502693	-0.303988
H	 0.8725451488	 1.9851432644	 0.455932915	 0.127346
H	-0.048185275	 1.9187208974	-1.0496160707	 0.127701
H	-0.890753789	 1.9721438064	 0.5015432369	 0.127399
H	-0.0620261755	-0.5449609659	-2.1164005235	 0.126378
H	-0.0210629792	-2.9215635465	-1.279907841	 0.27275
H	 0.0859792577	-0.2985861033	 3.2398890812	 0.273941
136.1157	186.4326	240.5851	262.3461	311.876	405.023	472.8512	522.9432	599.886	611.5948	683.4444	700.6927	761.2092	777.8394	825.8783	1000.8563	1008.6332	1025.3496	1066.0694	1107.311	1124.5081	1245.6901	1253.6177	1285.4301	1367.9161	1391.4314	1423.5645	1482.2	1484.8869	1509.1329	1524.2534	1572.2057	1631.9363	3021.5967	3067.6812	3108.9722	3248.4502	3681.929	3698.9309
CC1=CNC2=C1NN=N2	Cc1c[nH]c2c1[nH]nn2	
InChI=1S/C5H6N4/c1-3-2-6-5-4(3)7-9-8-5/h2H,1H3,(H2,6,7,8,9)	InChI=1S/C5H6N4/c1-3-2-6-5-4(3)7-9-8-5/h2H,1H3,(H2,6,7,8,9)
