19
gdb 31248	2.3079	1.37492	0.92592	1.0229	79.54	-0.1968	0.031	0.2278	1306.2908	0.158395	-423.050298	-423.040872	-423.039928	-423.085845	33.474	
C	 0.201926473	 1.4671853186	 0.405340813	-0.363771
C	-0.0647899599	 0.085998526	-0.2168701913	-0.303733
C	-1.4919259908	-0.3578670462	-0.0988820184	 0.124303
C	-2.4045558449	-0.4541949148	-1.1046313589	 0.346782
O	-2.3032171838	-0.1356225449	-2.402167817	-0.268337
C	-2.8456522195	-1.0853600493	-3.32381139	-0.25288
O	-3.615306148	-0.8789805178	-0.6508168287	-0.189579
C	-3.4750298904	-1.0646611179	 0.6991420754	-0.02026
C	-2.2144223281	-0.7546902948	 1.0850965234	-0.266872
H	 1.2565079168	 1.7442592305	 0.3063166156	 0.108326
H	-0.4017564009	 2.2375982537	-0.0840000047	 0.122093
H	-0.0496063415	 1.4761203066	 1.4709273831	 0.115102
H	 0.208009989	 0.1057220807	-1.2773291835	 0.108293
H	 0.5914822636	-0.6537059144	 0.2598659017	 0.101657
H	-2.3658284382	-2.063723845	-3.2016309896	 0.124247
H	-3.9261037314	-1.1919101659	-3.1900481491	 0.139916
H	-2.6356675048	-0.6940124555	-4.3201577008	 0.13605
H	-4.3504597497	-1.4256847841	 1.211517753	 0.13163
H	-1.8236585105	-0.8101523253	 2.0900173668	 0.107032
37.1958	52.0181	149.615	153.0407	178.9265	214.2255	285.796	337.1179	399.9735	532.8491	603.4521	640.4283	671.5892	705.8997	754.1577	789.0674	823.7967	904.3642	962.1188	1016.1716	1058.1298	1064.3329	1085.5545	1137.6975	1172.3381	1185.704	1204.3622	1262.8797	1278.9021	1318.9512	1365.2743	1407.0513	1428.1165	1480.9204	1483.855	1487.4347	1496.4345	1504.9639	1507.1131	1560.9893	1688.3987	3019.2382	3024.5374	3033.2793	3069.0205	3099.9329	3103.0543	3110.4658	3143.967	3244.795	3287.9691
CCC1=C(OC)OC=C1	CCc1c(OC)occ1	
InChI=1S/C7H10O2/c1-3-6-4-5-9-7(6)8-2/h4-5H,3H2,1-2H3	InChI=1S/C7H10O2/c1-3-6-4-5-9-7(6)8-2/h4-5H,3H2,1-2H3
