15
gdb 48498	3.61893	1.58596	1.38036	4.0528	69.21	-0.2476	-0.024	0.2236	921.3594	0.112919	-420.548776	-420.54238	-420.541436	-420.579784	25.331	
O	-0.0812017495	 0.0817307932	 0.265536441	-0.269691
C	 0.0684494869	 1.2486064363	-0.0119344191	 0.024184
C	 1.3521027577	 1.9467141933	 0.0298189457	 0.295868
C	 1.5196694648	 3.4194886807	 0.4768950193	-0.156426
C	 1.8773285037	 3.0329505209	-0.9196962342	-0.172831
C	 3.3037512011	 2.6683182196	-0.4049507506	-0.099434
C	 2.9863814673	 3.2909957438	 0.9935863504	 0.083282
O	 3.124510491	 2.0267717258	 1.6649278677	-0.284059
C	 2.7670285574	 1.4355226178	 0.3964691117	-0.004288
H	-0.7883773318	 1.8798956759	-0.3446601121	 0.066597
H	 0.6901573072	 4.003923409	 0.8513577399	 0.11054
H	 1.4861045669	 3.3471673381	-1.8761006302	 0.112291
H	 4.2527650305	 2.7252596977	-0.9299335174	 0.093527
H	 3.4805966091	 4.1285439638	 1.4819391378	 0.095519
H	 3.0266027077	 0.3857595242	 0.28700402	 0.104921
106.6526	160.3495	254.2519	448.4044	530.3973	566.8235	696.0493	739.217	785.2798	803.7444	825.6101	831.5905	852.141	892.4711	911.8698	925.4855	933.5334	982.5014	999.2131	1051.3368	1060.2539	1085.8415	1129.8016	1153.9282	1177.674	1193.0266	1212.3377	1251.6924	1304.746	1311.8094	1376.2618	1438.8964	1800.784	2856.2735	3143.4445	3160.7883	3169.5066	3210.9458	3230.5993
O=CC12C3C1C1C3OC21	O=C[C@]12[C@@H]3[C@H]1[C@H]1[C@@H]3O[C@@H]21	
InChI=1S/C7H6O2/c8-1-7-3-2-5(4(3)7)9-6(2)7/h1-6H	InChI=1S/C7H6O2/c8-1-7-3-2-5(4(3)7)9-6(2)7/h1-6H/t2-,3+,4+,5-,6+,7+/m0/s1
