21
gdb 93790	2.27302	1.38376	1.06402	1.6701	78.8	-0.2315	-0.0181	0.2134	1226.8272	0.18302	-424.267032	-424.257952	-424.257008	-424.300685	34.848	
C	-0.0104258924	 1.5575047531	 0.0278227553	-0.401604
C	 0.0261977104	 0.0274490264	-0.0133260476	 0.024874
C	 0.6831285565	-0.5003307093	-1.2994162767	-0.186491
C	 0.7207462737	-2.0343725387	-1.3399576664	-0.235253
C	 1.4416506732	-2.6166272854	-0.1222971292	 0.034535
O	 2.8119793353	-2.2179665234	-0.2074232895	-0.434251
C	 0.8315869117	-2.0590105121	 1.1732491729	 0.350778
O	 0.4569641312	-2.7855102408	 2.0652369913	-0.315892
C	 0.7503944005	-0.5445260985	 1.2293093709	-0.287864
H	 1.0036489887	 1.9730966649	 0.0012424677	 0.116131
H	-0.5597017025	 1.9616987655	-0.828932729	 0.113343
H	-0.4959705988	 1.919985024	 0.9398076927	 0.114811
H	-1.010742158	-0.3397438348	 0.0108664348	 0.079107
H	 0.1406282356	-0.121959655	-2.1731612386	 0.092788
H	 1.7066417984	-0.1131654489	-1.3690255682	 0.114359
H	-0.3005929732	-2.4356026821	-1.3587236261	 0.105801
H	 1.2251825516	-2.3887816661	-2.2450698463	 0.109589
H	 1.3490995074	-3.7099063126	-0.0963929677	 0.079076
H	 3.2898797066	-2.6466596962	 0.510462805	 0.293193
H	 1.7761430746	-0.1527459633	 1.2440621025	 0.121813
H	 0.2565673094	-0.2528989769	 2.1598321924	 0.111156
76.3617	107.7958	211.7348	239.3285	242.0836	291.3942	337.1075	354.0662	416.0836	427.3585	461.0999	496.8338	623.3765	674.5618	774.7011	813.5637	882.216	895.0358	937.5235	958.0149	976.8646	1020.2638	1047.1039	1095.1773	1110.6564	1126.4473	1149.5069	1219.8642	1236.8176	1259.7852	1292.9799	1296.7852	1334.4548	1350.7317	1366.2491	1378.7341	1388.3445	1408.7698	1412.2523	1457.8146	1474.1302	1491.826	1498.4938	1499.4471	1814.6794	2992.2398	3022.0035	3026.0832	3029.3291	3034.7372	3036.473	3072.8743	3082.2032	3094.7803	3100.3382	3104.1922	3812.8797
CC1CCC(O)C(=O)C1	C[C@H]1CC[C@@H](O)C(=O)C1	
InChI=1S/C7H12O2/c1-5-2-3-6(8)7(9)4-5/h5-6,8H,2-4H2,1H3	InChI=1S/C7H12O2/c1-5-2-3-6(8)7(9)4-5/h5-6,8H,2-4H2,1H3/t5-,6+/m0/s1
