16
gdb 69570	2.9307	1.48701	1.18045	4.6478	70.89	-0.2331	-0.032	0.201	1061.8193	0.122666	-437.826425	-437.818267	-437.817323	-437.859121	30.346	
C	-0.0821809171	 1.5438218702	 0.0530112334	-0.511297
C	 0.117601512	 0.0633483262	-0.0003447051	 0.201078
N	-0.7651199047	-0.9130186557	 0.7248313409	-0.359994
C	 0.6855491379	-0.9272731529	 0.9934165624	-0.258563
C	 1.2935406211	-1.7557662501	-0.118916392	 0.403135
C	 2.5957873136	-2.424081207	-0.2088608107	-0.26952
O	 1.3663149337	-3.1571818707	-0.2077833408	-0.257065
C	 0.7051161016	-0.7601768665	-1.1406866944	 0.330999
O	 0.8306546804	-0.5960420842	-2.3178079982	-0.311215
H	 0.798852064	 2.0691294343	-0.3280581031	 0.141957
H	-0.938300956	 1.8406757013	-0.5617129058	 0.149558
H	-0.2667010561	 1.8823337813	 1.0780363193	 0.124362
H	-1.2097851624	-0.3790870073	 1.4740304263	 0.236865
H	 1.0972809534	-0.7205630073	 1.9727191617	 0.116097
H	 3.1322010195	-2.4094791353	-1.1558413414	 0.139264
H	 3.2061015691	-2.5294460363	 0.6870153675	 0.124339
93.3109	167.0954	184.3682	225.1313	233.1446	283.0861	326.7758	451.8395	535.8015	558.2012	655.5131	754.1724	777.4778	795.6674	857.9392	907.2472	925.4781	956.3363	981.9099	1023.8454	1047.3378	1100.997	1107.1263	1125.5896	1155.1578	1173.0091	1277.567	1320.6673	1402.8423	1431.4031	1442.8761	1479.4143	1495.3785	1528.0256	1896.5012	3034.2484	3086.6474	3101.4816	3108.3052	3181.0196	3206.3346	3448.054
CC12NC1C1(CO1)C2=O	C[C@]12N[C@H]1[C@]1(CO1)C2=O	
InChI=1S/C6H7NO2/c1-5-3(7-5)6(2-9-6)4(5)8/h3,7H,2H2,1H3	InChI=1S/C6H7NO2/c1-5-3(7-5)6(2-9-6)4(5)8/h3,7H,2H2,1H3/t3-,5+,6-/m1/s1
