19
gdb 117299	4.50959	0.71491	0.63347	6.2912	76.38	-0.2427	0.0014	0.2441	1787.3455	0.157014	-456.416856	-456.405985	-456.405041	-456.455326	36.731	
C	-0.038179334	 1.5393291694	-0.1892977987	-0.382917
C	 0.2293993926	 0.0685525574	 0.1209426192	-0.12557
N	 0.8706714531	-0.6078212154	-0.9991711595	-0.377812
C	 0.5849969109	-1.9259231445	-1.2819192681	 0.518198
O	-0.2525910692	-2.5788499324	-0.7091094947	-0.354032
N	 1.3580291081	-2.4002401749	-2.3684398439	-0.427703
C	 1.5080114528	-3.7300360723	-2.7723680876	 0.415775
C	 2.2531404337	-3.8557723264	-4.0954860977	-0.50168
O	 1.1052224541	-4.6761428255	-2.1464534234	-0.301171
H	 0.8915196421	 2.0815568814	-0.3974865661	 0.110048
H	-0.6927203954	 1.6424094354	-1.0595589279	 0.128159
H	-0.5180541167	 2.0255865575	 0.6651917727	 0.125457
H	 0.8411685121	-0.0220333013	 1.0298082607	 0.108411
H	-0.6994192131	-0.4722409563	 0.3110599397	 0.154016
H	 1.7624716518	-0.2434514732	-1.2970956477	 0.233771
H	 1.7782918463	-1.7023771543	-2.9626490604	 0.243645
H	 3.2209399862	-3.3438717117	-4.060149234	 0.132555
H	 2.4118297287	-4.912934469	-4.3040478146	 0.156979
H	 1.669307386	-3.411588394	-4.9090192378	 0.14387
18.6914	49.0841	69.8945	87.8087	106.0349	169.1	227.8109	290.1635	321.1735	379.9057	395.4644	469.14	520.4006	571.6894	598.7908	753.9062	763.5808	807.6938	891.4621	940.3751	977.1547	1033.3841	1050.7815	1103.3827	1141.8125	1167.1216	1191.182	1254.128	1300.046	1384.2787	1389.0681	1414.5783	1466.9325	1483.7139	1491.8114	1496.2168	1505.8681	1516.5313	1527.8196	1804.2568	1863.6584	3005.7735	3033.5048	3039.4407	3095.2739	3101.6479	3119.6593	3127.7486	3166.0908	3613.3191	3622.727
CCNC(=O)NC(C)=O	CCNC(=O)NC(=O)C	
InChI=1S/C5H10N2O2/c1-3-6-5(9)7-4(2)8/h3H2,1-2H3,(H2,6,7,8,9)	InChI=1S/C5H10N2O2/c1-3-6-5(9)7-4(2)8/h3H2,1-2H3,(H2,6,7,8,9)
