19
gdb 33160	3.07358	1.05774	0.84363	3.8273	77.77	-0.2123	0.0331	0.2455	1367.2135	0.160011	-419.241406	-419.232097	-419.231153	-419.276227	33.177	
C	-0.0017669853	 1.5186538959	 0.0291887748	-0.508538
C	-0.0093992743	 0.0287353701	-0.0290658267	 0.267111
C	-0.021633371	-0.8406979245	-1.0906566663	-0.162673
N	 0.0013420829	-2.1490918812	-0.666677659	-0.276059
C	 0.0259234704	-2.0765084596	 0.6419351357	-0.006515
N	 0.0241036596	-0.784664156	 1.0944038827	-0.042471
C	-0.0062064854	-0.3721116562	 2.4839205425	-0.174641
C	-1.4310085301	-0.1953291179	 3.0135432646	-0.072484
O	-1.3105373586	 0.2028926041	 4.3660225418	-0.412811
H	 0.8866987944	 1.9124122433	 0.5385339429	 0.132587
H	-0.0005626345	 1.919001549	-0.9873434511	 0.140811
H	-0.8795659722	 1.9291454115	 0.5434858917	 0.128567
H	-0.0373424023	-0.5880823994	-2.1408628725	 0.101988
H	 0.0560775853	-2.9127380323	 1.3261375744	 0.121505
H	 0.5079948429	-1.1255770371	 3.0870903145	 0.133656
H	 0.5414573325	 0.566811853	 2.6008097111	 0.132166
H	-1.960028058	 0.5569694635	 2.4085792571	 0.100696
H	-1.9755193673	-1.1460276926	 2.9078517182	 0.102198
H	-2.192489929	 0.3059720363	 4.7343046737	 0.294908
67.1324	86.654	103.1366	151.3976	237.4693	241.5579	263.2175	321.9908	372.2767	420.6452	643.3267	668.2548	681.3132	778.4715	803.3076	805.9478	837.6017	930.1159	1004.5131	1011.9717	1064.9378	1090.527	1091.9152	1147.8582	1195.0979	1225.8809	1247.0512	1263.8226	1296.4193	1304.0753	1369.1844	1395.5525	1418.2375	1423.489	1461.7822	1480.0138	1486.396	1491.5688	1527.6833	1534.4036	1603.1403	2979.8157	3012.0629	3017.0114	3060.5799	3066.4697	3114.9408	3121.0076	3236.1857	3241.0519	3838.2316
CC1=CN=CN1CCO	Cc1cncn1CCO	
InChI=1S/C6H10N2O/c1-6-4-7-5-8(6)2-3-9/h4-5,9H,2-3H2,1H3	InChI=1S/C6H10N2O/c1-6-4-7-5-8(6)2-3-9/h4-5,9H,2-3H2,1H3
