19
gdb 56510	2.56575	1.22486	1.04953	2.2751	81.59	-0.2641	0.0202	0.2843	1218.6647	0.156591	-382.046494	-382.03599	-382.035046	-382.081306	38.749	
C	-0.0861368121	 1.5807837648	 0.0745931946	-0.43017
C	-0.0214086742	 0.038727683	 0.0201573782	 0.05152
C	 0.7414504542	-0.5016532124	 1.2512477196	-0.423697
C	-1.376654837	-0.5189812715	 0.0169757636	 0.353604
C	-2.4820720214	-0.9879149985	 0.0605543913	-0.474553
C	 0.6963020923	-0.4386540802	-1.2919627171	-0.137848
N	 0.0154133701	 0.0424878388	-2.4919833301	-0.493366
C	 2.1298025452	-0.0690636738	-1.2737338979	 0.266118
N	 3.2417183208	 0.2475905754	-1.3131130152	-0.33749
H	 0.9211224159	 2.0077732705	 0.0321350109	 0.134448
H	-0.6824623627	 1.9810006255	-0.7487211827	 0.132918
H	-0.5552386462	 1.9001148085	 1.0083511993	 0.133232
H	 0.2097313693	-0.2279224265	 2.1655573618	 0.131265
H	 0.8165325975	-1.5925817828	 1.2194822233	 0.126243
H	 1.7504640676	-0.0829324618	 1.2967361582	 0.142045
H	-3.4627690948	-1.3948215542	 0.0840999489	 0.196119
H	 0.6426839477	-1.5322925622	-1.2999179957	 0.137372
H	 0.2209226113	 1.0244799254	-2.6463245453	 0.245142
H	 0.3568232266	-0.4557240177	-3.3074983958	 0.247097
67.5624	125.9358	169.3541	182.5622	222.9794	227.3826	245.2748	276.6346	291.7601	344.4062	368.9344	412.3987	489.3517	547.4479	576.3403	616.5005	626.8152	650.1757	739.5689	839.1467	866.7222	946.8041	959.4344	974.4693	1030.0852	1108.7983	1130.5316	1210.0898	1234.3103	1243.1811	1321.3004	1394.5826	1397.4538	1420.9164	1483.3006	1489.116	1499.4375	1513.3993	1666.5966	2236.8587	2339.2765	3042.9513	3046.2066	3063.2176	3119.9586	3120.1759	3128.2365	3129.9101	3501.9441	3509.0006	3586.7337
CC(C)(C#C)C(N)C#N	CC(C)(C#C)[C@@H](N)C#N	
InChI=1S/C7H10N2/c1-4-7(2,3)6(9)5-8/h1,6H,9H2,2-3H3	InChI=1S/C7H10N2/c1-4-7(2,3)6(9)5-8/h1,6H,9H2,2-3H3/t6-/m0/s1
