14
gdb 21717	3.6352	1.24175	0.93011	2.0762	65.15	-0.2596	-0.1015	0.1581	1192.3387	0.102729	-415.8251	-415.815546	-415.814602	-415.860779	31.592	
N	-0.4207498277	-0.0751389158	-0.7922107995	-0.715754
H	 0.1535681876	-0.4585699903	-0.0450075681	 0.258627
H	 0.1782891856	-0.0206159123	-1.6115795446	 0.240542
H	-1.1215511218	-0.7805710936	-1.0029552478	 0.240503
C	-0.5641577387	 2.1721308506	 1.6655371828	-0.39962
C	 0.2284754042	 1.5083114732	 2.5049820529	 0.347796
C	 0.6578930087	 1.8865484237	 3.8756570212	 0.235346
O	 0.3807482812	 2.8738694346	 4.5179300005	-0.312467
C	 1.511767998	 0.7288981527	 4.2342220498	-0.07009
N	 1.5767482565	-0.1413910392	 3.2912952507	-0.055789
O	 0.8019727233	 0.2932087629	 2.2023783086	-0.26793
H	-0.9667939945	 3.1220128959	 1.997732444	 0.151752
H	-0.8021203141	 1.7789834765	 0.6807925078	 0.187325
H	 2.0469558519	 0.5688697711	 5.1597040817	 0.159758
37.2133	65.2021	108.8301	119.9485	158.1641	190.356	275.2314	298.6262	333.5933	493.2575	524.9363	650.9485	749.2198	753.5361	794.0301	852.6864	898.743	901.221	945.7657	999.8907	1110.2771	1116.9447	1260.475	1278.8224	1424.3536	1606.4174	1676.0503	1688.4664	1704.7143	1811.2566	3134.8635	3246.4309	3252.6103	3463.5723	3581.5743	3584.7717
[NH3+]CC1=C([O-])C=NO1	N.C=C1C(=O)C=NO1	
InChI=1S/C4H6N2O2/c5-1-4-3(7)2-6-8-4/h2,7H,1,5H2	InChI=1S/C4H3NO2.H3N/c1-3-4(6)2-5-7-3;/h2H,1H2;1H3
