17
gdb 35114	3.23781	1.43803	1.12318	4.7781	77.29	-0.2466	-0.0053	0.2413	1074.7133	0.13789	-380.860563	-380.853008	-380.852064	-380.892873	29.048	
N	-0.7317628308	-0.7263116604	-1.3619179915	-0.322164
C	-0.3989299619	 0.1728978343	-0.7180324058	 0.288931
C	 0.0003619727	 1.3135840895	 0.1261745542	-0.162772
C	-0.563931123	 1.1564270908	 1.5266007746	-0.044534
C	 0.1051035944	 1.5526778569	 2.6043802492	-0.093731
C	 1.4706240461	 2.1736529132	 2.5376979647	-0.279127
C	 2.1890722414	 1.9029095356	 1.2266934999	-0.011122
C	 2.301998608	 0.5154508676	 0.7029974666	-0.244232
N	 1.4559979534	 1.4981609078	 0.0173776712	-0.105235
H	-0.4545662933	 2.2062638934	-0.3294322905	 0.145534
H	-1.5581983825	 0.7279162841	 1.6026367018	 0.117795
H	-0.3479954162	 1.4494312098	 3.5863570928	 0.10635
H	 1.3775800521	 3.2598520097	 2.6803254237	 0.126399
H	 2.0891141589	 1.8226911192	 3.373887148	 0.123022
H	 2.9992899695	 2.5952982054	 1.0084165141	 0.100712
H	 3.1792224862	 0.200186557	 0.1463891526	 0.125661
H	 1.812691445	-0.270250414	 1.2736422445	 0.128513
64.0664	148.5884	199.8976	307.4955	353.8606	398.699	467.8967	501.9999	563.9093	617.092	693.893	741.076	809.4645	839.3904	908.4901	929.8528	951.9495	967.4995	1004.8642	1030.0289	1069.8282	1100.1601	1119.9518	1123.9967	1173.5273	1207.5232	1236.1055	1285.8563	1306.4397	1332.4425	1363.3704	1387.0927	1423.8508	1474.8657	1504.6119	1728.0966	2363.9507	2992.1266	3007.8514	3038.4819	3110.952	3126.3116	3162.8165	3187.3833	3198.9902
N#CC1C=CCC2CN12	N#C[C@H]1C=CC[C@H]2CN12	
InChI=1S/C7H8N2/c8-4-6-2-1-3-7-5-9(6)7/h1-2,6-7H,3,5H2	InChI=1S/C7H8N2/c8-4-6-2-1-3-7-5-9(6)7/h1-2,6-7H,3,5H2/t6-,7+,9?/m1/s1
