18
gdb 65440	3.16586	0.92798	0.90165	2.4769	82.	-0.2426	0.0138	0.2564	1378.8795	0.144517	-401.897152	-401.887392	-401.886448	-401.932217	35.34	
C	 0.0335457367	 1.4887893117	 0.3220831759	-0.46742
C	 0.0765049094	-0.0161506623	 0.1041006414	 0.09003
C	 1.3964100116	-0.6414883329	-0.3569738586	-0.349342
C	 0.9341165266	-0.876003651	 1.0369727305	 0.08139
O	 1.6808292564	-0.2527956831	 2.0474166489	-0.18644
C	 1.0830105535	-0.171509265	 3.2606020364	 0.127756
N	 1.6845964724	 0.3911940574	 4.2142372159	-0.436044
C	-1.1412027833	-0.6178611141	-0.3679746056	 0.276384
C	-2.1655966507	-1.1188987222	-0.7521407234	-0.453027
H	 0.9740466462	 1.8436658883	 0.7484135932	 0.142456
H	-0.1388009053	 2.0051811644	-0.6265794016	 0.131672
H	-0.7773976786	 1.7596286931	 1.0050471113	 0.128233
H	 1.36248312	-1.4661026165	-1.0581021671	 0.132679
H	 2.2277483742	 0.0435341657	-0.4803026543	 0.138681
H	 0.550120302	-1.857104581	 1.3033144041	 0.117212
H	 0.0875316443	-0.6335058212	 3.2870258425	 0.097695
H	 1.1105717737	 0.3600062013	 5.0542500457	 0.232767
H	-3.0687133491	-1.5579202226	-1.0970183853	 0.195318
66.5285	90.9945	93.6716	158.444	193.0238	238.5504	250.0479	334.0296	413.9578	459.8412	529.6357	547.8749	589.9047	617.5876	648.8237	697.3661	816.2321	828.9791	884.4348	927.8814	962.9172	1035.6996	1048.6714	1073.8843	1077.7361	1107.1336	1132.0804	1193.2266	1273.498	1281.0592	1296.3888	1396.329	1413.169	1423.1364	1476.4614	1490.2307	1501.4374	1749.238	2232.182	3036.9584	3045.3284	3110.5692	3135.4405	3143.463	3147.2776	3241.7891	3502.7738	3519.946
CC1(CC1OC=N)C#C	C[C@]1(C[C@H]1O[CH][NH])C#C	
InChI=1S/C7H9NO/c1-3-7(2)4-6(7)9-5-8/h1,5-6,8H,4H2,2H3	InChI=1S/C7H9NO/c1-3-7(2)4-6(7)9-5-8/h1,5-6,8H,4H2,2H3/t6-,7-/m1/s1
