14
gdb 127807	3.59124	1.78364	1.2008	1.254	70.27	-0.2257	-0.0292	0.1965	954.9409	0.103848	-429.031765	-429.024872	-429.023928	-429.063525	25.313	
C	 0.0716651845	 1.4242813342	-0.0210658299	-0.340047
N	 0.0238974151	-0.0192944238	 0.0501978992	-0.135461
N	-0.0930756334	-0.7826719832	-1.0692510375	-0.113991
N	-0.1123114689	-2.0297891504	-0.7544831703	-0.140487
N	-0.0058753672	-2.0857749783	 0.6011202517	 0.028737
C	 0.0489559057	-2.9801904876	 1.6544688263	-0.146139
C	 0.1675587538	-2.1601777592	 2.7579923941	-0.076155
N	 0.1897359455	-0.8095806689	 2.4454662142	-0.400763
C	 0.0824392815	-0.8335672301	 1.1381556531	 0.559452
H	 1.0131021624	 1.7929782701	 0.3949373472	 0.161905
H	-0.0032141488	 1.7020183801	-1.0719982098	 0.171084
H	-0.7609944352	 1.8587241778	 0.5386210001	 0.161908
H	-0.0007401853	-4.045762643	 1.5242012957	 0.149633
H	 0.2401401602	-2.4807500478	 3.786961396	 0.120324
72.7992	147.2165	250.4357	255.4854	354.0316	534.5815	617.7439	634.8274	649.7863	690.1142	726.9318	750.5472	871.5072	873.2264	954.9516	1024.7931	1077.3716	1157.4593	1159.6891	1167.5783	1242.026	1285.8484	1322.6483	1385.7947	1411.2063	1452.5092	1473.0502	1478.2925	1499.504	1511.0932	1651.0519	3053.6708	3120.176	3168.9341	3246.7666	3310.4966
CN1N=NN2C=CN=C12	Cn1nnn2ccnc12	
InChI=1S/C4H5N5/c1-8-4-5-2-3-9(4)7-6-8/h2-3H,1H3	InChI=1S/C4H5N5/c1-8-4-5-2-3-9(4)7-6-8/h2-3H,1H3
