17
gdb 18199	4.11593	1.66501	1.37122	4.3	71.35	-0.2872	0.0401	0.3273	915.9564	0.145026	-326.747701	-326.740861	-326.739917	-326.778723	26.648	
N	-0.5243941707	-0.9080916431	-0.9702225114	-0.330218
C	-0.2813622965	 0.1106627285	-0.4807716412	 0.269464
C	 0.0284939612	 1.3964004519	 0.144925768	-0.144994
C	-0.3394857013	 1.4394191754	 1.6581964655	-0.240422
C	 0.5963841364	 2.5113200498	 2.2575598748	-0.224918
C	 1.8501229483	 2.4684384082	 1.395180578	-0.032824
C	 2.4373912669	 1.1159865928	 1.075362478	-0.285498
C	 1.5090710085	 1.7809339093	 0.0914725295	-0.02905
H	-0.543789636	 2.1656067396	-0.3884782171	 0.123451
H	-1.3980430461	 1.6594730369	 1.8099052252	 0.118296
H	-0.1506724109	 0.4615032824	 2.1076393663	 0.129677
H	 0.1390365136	 3.5046864452	 2.1802485549	 0.106596
H	 0.7928804978	 2.3280401907	 3.3189801868	 0.108494
H	 2.5130812393	 3.3262263293	 1.4072866507	 0.090389
H	 3.486407914	 1.0834164787	 0.8039922836	 0.119741
H	 2.1005581538	 0.2399579731	 1.6200811623	 0.122183
H	 1.9047359316	 2.1185659713	-0.8588508038	 0.099631
108.5993	159.4283	257.5833	319.3346	385.2496	501.4068	544.8662	602.5806	635.3754	770.5568	822.3489	837.8625	862.0032	919.4902	950.5942	977.9495	992.8377	1023.5102	1051.6757	1064.1243	1088.6364	1108.5564	1133.4947	1189.3235	1204.4833	1226.4614	1287.211	1308.7915	1326.934	1340.8352	1364.2023	1392.9323	1487.4267	1494.3726	1511.9278	2355.1436	3032.9599	3036.9775	3070.5825	3081.365	3119.8328	3135.9384	3171.3462	3183.3743	3218.6606
N#CC1CCC2CC12	N#C[C@H]1CC[C@H]2C[C@@H]12	
InChI=1S/C7H9N/c8-4-6-2-1-5-3-7(5)6/h5-7H,1-3H2	InChI=1S/C7H9N/c8-4-6-2-1-5-3-7(5)6/h5-7H,1-3H2/t5-,6+,7+/m0/s1
