14
gdb 98916	7.12918	0.55702	0.52448	7.7413	77.49	-0.2705	-0.0434	0.2271	1941.3367	0.097701	-436.672488	-436.662779	-436.661835	-436.708876	32.347	
O	 0.2049609929	 1.3580503866	 0.0744027083	-0.390329
C	-0.0062386046	-0.0090664868	-0.1288397757	-0.171587
C	-1.454566704	-0.3538400178	 0.1964656854	 0.389035
O	-2.2983375101	 0.4635468366	 0.4289534812	-0.245874
C	-1.7323008554	-1.8777587169	 0.2157025804	-0.513068
C	-3.1339492295	-2.2170825255	 0.0912698814	 0.095353
C	-4.3022912209	-2.4980633155	-0.0194563526	 0.088385
C	-5.6216929625	-2.8251024864	-0.1466799006	 0.212777
N	-6.7424098559	-3.1100356636	-0.2563171218	-0.335201
H	 1.1069352633	 1.5677485707	-0.1851769562	 0.299399
H	 0.1670587211	-0.3218910745	-1.174732796	 0.120463
H	 0.6449875903	-0.6467452239	 0.4957675708	 0.111899
H	-1.1467808018	-2.3726254654	-0.5699942911	 0.160564
H	-1.3377427827	-2.2614465776	 1.1678171865	 0.178184
26.4232	58.9625	97.7573	146.8381	188.2654	218.3523	247.7038	348.1718	352.3127	396.8634	454.3275	571.3781	579.5973	666.809	741.4477	793.6676	865.3841	1012.411	1043.0092	1150.8818	1180.3682	1202.0794	1234.8959	1266.848	1322.3114	1435.1371	1444.7648	1492.802	1856.0805	2272.7064	2407.9928	2942.2635	2963.0694	3015.216	3052.1395	3836.7031
OCC(=O)CC#CC#N	OCC(=O)CC#CC#N	
InChI=1S/C6H5NO2/c7-4-2-1-3-6(9)5-8/h8H,3,5H2	InChI=1S/C6H5NO2/c7-4-2-1-3-6(9)5-8/h8H,3,5H2
