18
gdb 87382	2.21473	1.57562	1.07277	4.4362	73.51	-0.2429	0.0145	0.2573	1158.6853	0.145767	-439.090691	-439.081506	-439.080562	-439.124646	33.575	
C	-0.6361153162	 1.1372701406	-0.0422236487	-0.419581
C	-0.4054651731	-0.3133317409	 0.2890811817	-0.018037
O	 0.8707475047	-0.8685321034	-0.0780173522	-0.281277
C	 0.5522520462	-0.7886032621	 1.2922342545	 0.240172
C	 1.4126004289	-0.0947487486	 2.3830402881	-0.020778
C	 0.8886327976	 1.166197836	 3.0553869449	-0.401956
N	 1.2196521955	-1.3367742426	 3.1557468957	-0.366383
C	 0.470077677	-2.0119509443	 2.2183567212	 0.393399
O	-0.0274755682	-3.104017076	 2.183815509	-0.366572
H	 0.2597869874	 1.7329209192	 0.1461171213	 0.128929
H	-0.898671163	 1.2418352036	-1.0998929235	 0.135837
H	-1.4629364188	 1.54254188	 0.5501869447	 0.128679
H	-1.2399946363	-0.9835665358	 0.0762590036	 0.115127
H	 2.4497122669	 0.0367897745	 2.0528594113	 0.102593
H	-0.1701626817	 1.0636655886	 3.3110345219	 0.124976
H	 1.4440974386	 1.3681399825	 3.9775219772	 0.122032
H	 1.0097749064	 2.0358223026	 2.4033918085	 0.129611
H	 1.5204188883	-1.5971989338	 4.0823960109	 0.253229
72.2108	128.7363	146.2735	204.8398	227.8353	259.9463	285.2411	311.6822	369.3837	439.3852	508.3361	583.4438	634.5177	722.4226	738.4664	820.9069	886.7174	909.3854	949.2352	1033.6224	1049.8173	1076.9417	1111.4522	1118.2478	1136.979	1170.1815	1200.0937	1269.5237	1342.933	1372.208	1390.242	1409.376	1412.9072	1470.969	1486.3621	1492.9046	1501.0073	1525.697	1899.3446	3037.7785	3039.7883	3042.0921	3100.6649	3104.176	3106.0302	3121.5412	3134.9402	3627.5354
CC1OC11C(C)NC1=O	C[C@H]1O[C@]21[C@@H](C)NC2=O	
InChI=1S/C6H9NO2/c1-3-6(4(2)9-6)5(8)7-3/h3-4H,1-2H3,(H,7,8)	InChI=1S/C6H9NO2/c1-3-6(4(2)9-6)5(8)7-3/h3-4H,1-2H3,(H,7,8)/t3-,4-,6+/m1/s1
