19
gdb 40073	4.47224	1.17354	1.0404	2.3736	83.68	-0.2306	0.0067	0.2373	1182.7128	0.160314	-385.854061	-385.846635	-385.845691	-385.885898	29.945	
C	 0.0204963301	 1.511465126	-0.0303406615	-0.252672
O	 1.1998375669	 0.7115322826	-0.1165159923	-0.276712
C	-0.0767522191	 0.0477441921	-0.0050161179	 0.433392
C	-0.3733112422	-0.7579229314	 1.2841903092	-0.338548
C	-0.5057804273	-2.2005598571	 0.7673844742	-0.045647
C	-1.8074223413	-3.0813617878	 0.740582534	-0.240932
C	-1.6079945228	-3.2621320748	-0.8132372589	-0.317652
C	-0.7322716327	-2.0363373707	-0.7125555888	 0.303751
C	-0.5684829756	-0.7901412059	-1.1493878326	-0.325023
H	-0.1021107538	 2.0723151116	 0.8973711751	 0.105363
H	-0.2434557576	 2.0616023751	-0.9341679634	 0.107402
H	 0.4128855447	-0.6079108577	 2.0279512723	 0.113441
H	-1.3199322814	-0.4129873302	 1.7159316825	 0.106481
H	 0.3621584568	-2.8233670615	 1.0113126457	 0.085907
H	-1.8110918992	-3.9891148349	 1.348179975	 0.103186
H	-2.7007713703	-2.4901973699	 0.9575945009	 0.109775
H	-1.0492353228	-4.1773657108	-1.0349165769	 0.11711
H	-2.4843007889	-3.2145969795	-1.4632653151	 0.113451
H	-0.8142153731	-0.3787031851	-2.1206034916	 0.097928
83.646	181.7354	279.4137	296.3789	319.5912	416.5564	462.8076	517.1188	619.4381	688.9109	744.7063	792.724	803.3281	817.7111	862.1713	894.6746	907.5186	921.5652	941.4097	971.1661	1043.0428	1076.9274	1081.027	1103.2702	1127.8952	1159.4403	1177.8122	1188.0715	1223.4544	1231.1609	1236.8947	1252.1295	1256.2517	1299.6472	1339.3139	1415.2371	1469.9591	1474.8127	1485.9896	1528.8085	1723.1751	3039.688	3042.5394	3051.3285	3061.6652	3063.5253	3106.7206	3108.7163	3126.2159	3145.4638	3206.855
C1OC11CC2CCC2=C1	C1O[C@]21C[C@H]1CC[C]1[CH]2	
InChI=1S/C8H10O/c1-2-7-4-8(5-9-8)3-6(1)7/h3,7H,1-2,4-5H2	InChI=1S/C8H10O/c1-2-7-4-8(5-9-8)3-6(1)7/h3,7H,1-2,4-5H2/t7-,8+/m1/s1
