17
gdb 5331	6.24685	1.53574	1.26206	1.859	77.62	-0.1915	0.0589	0.2505	974.4328	0.143688	-326.734522	-326.727073	-326.726129	-326.767593	27.227	
C	-0.2559093895	 1.5339821988	 0.0823632974	-0.490752
C	 0.0329696486	 0.062581228	 0.0083972513	 0.299513
C	 0.0539694512	-0.6956012349	-1.1562016731	-0.253571
N	 0.3549253652	-1.970925676	-0.7635727461	 0.024839
C	 0.6172190086	-3.394700549	-1.0134704958	-0.169128
C	 0.8212671403	-3.533889566	 0.5462105567	-0.377194
C	 0.5224258361	-2.0433912583	 0.5832047932	 0.371368
C	 0.3321618889	-0.7936032043	 1.1248226371	-0.451446
H	 0.5830325187	 2.0935891519	 0.5132233502	 0.120524
H	-0.4500335812	 1.94726418	-0.9119241904	 0.114454
H	-1.133638069	 1.7470758853	 0.704320369	 0.120547
H	-0.1197235214	-0.4116071022	-2.1815591675	 0.113001
H	-0.2361007434	-3.940124931	-1.4277972518	 0.123069
H	 1.5055335075	-3.5848303546	-1.6234398296	 0.123131
H	 0.0966872816	-4.1873151327	 1.0399673131	 0.121392
H	 1.8292647043	-3.8349851971	 0.84461578	 0.121427
H	 0.3889776636	-0.4929070278	 2.1596948165	 0.088826
18.005	100.8111	204.0748	258.8849	277.8373	483.1923	566.9716	626.061	637.5752	692.4356	768.6015	811.8843	812.1805	819.9635	912.9326	983.9687	1010.6149	1055.4729	1059.4958	1082.6691	1137.8668	1138.5495	1177.0054	1204.7845	1233.5084	1274.5895	1350.8716	1407.3187	1424.6371	1436.8639	1482.3966	1489.6464	1496.4797	1502.9468	1540.965	1594.0547	3020.3629	3045.8356	3057.8997	3066.7458	3090.5957	3100.8823	3106.3401	3246.9291	3260.1619
CC1=CN2CCC2=C1	Cc1cn2CCc2c1	
InChI=1S/C7H9N/c1-6-4-7-2-3-8(7)5-6/h4-5H,2-3H2,1H3	InChI=1S/C7H9N/c1-6-4-7-2-3-8(7)5-6/h4-5H,2-3H2,1H3
