16
gdb 125742	3.30422	1.2757	0.93099	3.2952	82.98	-0.2392	-0.037	0.2022	1221.003	0.122211	-400.730215	-400.721262	-400.720318	-400.763841	32.393	
C	 0.0040392568	 1.5071545686	-0.0397594617	-0.504197
C	 0.0027262625	 0.0138896573	 0.0194542562	 0.326113
N	-0.0315867857	-0.6951566552	-1.0858330122	-0.191495
O	-0.022804527	-2.0239254764	-0.7000386157	-0.223516
C	 0.0171744942	-2.0828808596	 0.6543631347	 0.247732
C	 0.032531754	-3.3514668192	 1.2643631245	 0.237138
C	 0.0461780088	-4.4267730438	 1.8056682791	-0.398997
C	 0.0355048867	-0.8198636429	 1.1791512633	-0.02281
C	 0.0792537434	-0.4116095905	 2.6144122271	-0.520941
H	 0.9015566491	 1.9182005837	 0.4347943559	 0.138147
H	-0.0259674336	 1.8403634805	-1.0786022627	 0.154185
H	-0.8622440472	 1.9218121916	 0.4868560195	 0.138153
H	 0.0577996067	-5.3789085981	 2.2762041589	 0.203027
H	 0.9713436155	 0.1858469405	 2.8345540077	 0.137137
H	-0.7907402305	 0.1976253809	 2.8847981006	 0.137033
H	 0.0920514163	-1.2892579073	 3.2648858148	 0.143292
112.1792	122.2725	133.6749	145.7192	228.0559	256.768	308.6696	368.2844	463.3714	518.0251	566.3783	584.7034	662.3471	687.1231	689.1249	731.8271	742.4871	954.133	978.7096	1034.4303	1052.049	1077.8937	1124.6428	1186.6825	1278.9501	1408.751	1418.5463	1447.564	1474.0523	1479.5289	1487.8658	1497.6608	1528.5963	1648.3586	2235.1082	3030.5733	3039.2307	3080.4599	3093.5932	3123.8299	3141.1064	3501.1889
CC1=NOC(C#C)=C1C	Cc1noc(C#C)c1C	
InChI=1S/C7H7NO/c1-4-7-5(2)6(3)8-9-7/h1H,2-3H3	InChI=1S/C7H7NO/c1-4-7-5(2)6(3)8-9-7/h1H,2-3H3
