23
gdb 118666	2.78196	0.74349	0.61476	3.5233	84.46	-0.2437	-0.0156	0.2281	1894.7003	0.202129	-425.431321	-425.419815	-425.418871	-425.469447	39.207	
C	 0.0348297618	 1.5259500547	-0.0337943106	-0.383358
C	 0.0198010928	-0.0004050556	 0.0813577328	-0.174983
C	-1.3920644842	-0.58711413	-0.0332683242	-0.198229
C	-1.4350790783	-2.1308283438	 0.0383319184	-0.08954
C	-2.8638651078	-2.6347635161	 0.218244549	-0.079565
O	-2.8295813972	-4.0438774812	 0.249959784	-0.233756
C	-4.1050344875	-4.6277187492	 0.375912239	-0.228802
C	-0.8529223088	-2.7071629691	-1.2404708653	 0.183947
O	 0.2703065615	-3.1170628354	-1.3708108912	-0.255308
H	 1.0507829363	 1.9202112192	 0.0638400476	 0.117004
H	-0.3577203576	 1.8552936551	-1.002387264	 0.114779
H	-0.5790491014	 1.9905912526	 0.7461515559	 0.112711
H	 0.6640648196	-0.4383520157	-0.6894120396	 0.120122
H	 0.45420528	-0.3026677571	 1.0426125741	 0.101865
H	-2.0219331923	-0.1839277859	 0.770577626	 0.100392
H	-1.8555838826	-0.2542392598	-0.9732571844	 0.098865
H	-0.8174947125	-2.4812469699	 0.8718971988	 0.102504
H	-3.2980959721	-2.2296827662	 1.1472374471	 0.092691
H	-3.4993811818	-2.2830020274	-0.6151399594	 0.086724
H	-3.9682448393	-5.7113657785	 0.388464633	 0.133145
H	-4.6027906786	-4.3204735363	 1.3090719565	 0.106178
H	-4.7616935061	-4.3605735179	-0.4670708339	 0.105754
H	-1.5592664539	-2.6802976964	-2.1059089197	 0.066861
56.8875	63.8128	79.5297	93.9365	106.3252	130.9327	226.4446	238.6216	247.4984	295.6497	311.9213	337.6852	383.5879	513.4962	589.2849	740.8494	843.316	886.7856	902.2797	969.4916	985.2227	1018.5986	1043.9614	1065.7076	1112.6423	1141.6954	1163.952	1169.9529	1187.623	1226.8935	1246.4283	1253.1541	1285.229	1323.6399	1340.38	1355.756	1395.1957	1413.3214	1416.8732	1430.6237	1479.1974	1485.0109	1485.9406	1493.9576	1500.5967	1501.7772	1511.5276	1526.3239	1837.2926	2835.8255	2939.9618	2972.1397	2981.3829	3004.0661	3017.3918	3027.9298	3031.2154	3037.9905	3066.468	3071.5256	3097.0491	3105.0719	3119.6716
CCCC(COC)C=O	CCC[C@@H](COC)C=O	
InChI=1S/C7H14O2/c1-3-4-7(5-8)6-9-2/h5,7H,3-4,6H2,1-2H3	InChI=1S/C7H14O2/c1-3-4-7(5-8)6-9-2/h5,7H,3-4,6H2,1-2H3/t7-/m1/s1
