21
gdb 95509	2.19449	1.63622	1.19823	2.3369	79.6	-0.2413	0.024	0.2653	1125.972	0.182269	-424.243772	-424.234587	-424.233643	-424.276835	36.335	
C	-0.0416071397	 1.5896536554	-0.0897883518	-0.42427
C	 0.0105456972	 0.0509561131	-0.033255735	 0.35397
O	-1.3272288969	-0.4585445743	-0.0399023808	-0.495783
C	 0.6904797652	-0.5021675562	-1.2614212898	-0.068778
C	 1.9397013204	-0.9607409537	-1.2777479389	-0.065792
C	 2.8319118059	-1.0267535983	-0.0639942429	-0.264926
C	 2.2445109272	-0.2717612414	 1.1419118791	-0.245824
C	 0.7315895653	-0.4794836786	 1.2186289982	 0.08259
O	 0.1323155859	 0.1625877749	 2.3432383614	-0.459852
H	 0.9566442893	 2.0316689177	-0.14813075	 0.112033
H	-0.6025131345	 1.8935191993	-0.9776087636	 0.117049
H	-0.5431326504	 1.9860565296	 0.7970933655	 0.12411
H	-1.7058602007	-0.2070611665	 0.8112114402	 0.280174
H	 0.0824068237	-0.4977385353	-2.1621446641	 0.095729
H	 2.3585237907	-1.3383452949	-2.2079286244	 0.087445
H	 2.9937265286	-2.0834969277	 0.1959050915	 0.111736
H	 3.8276640078	-0.6354188377	-0.3067476501	 0.107446
H	 2.7141497862	-0.6177990601	 2.0709903353	 0.082569
H	 2.4566912436	 0.7998456439	 1.0642016819	 0.111892
H	 0.5186809784	-1.559241643	 1.2510764532	 0.074357
H	 0.4528046666	-0.2676287062	 3.1415432452	 0.284125
101.7952	182.8503	227.5177	240.734	262.8937	282.2327	297.3535	359.4574	394.0879	435.9969	467.5237	494.2773	517.5238	561.109	711.512	723.759	764.4774	877.6933	881.2891	940.8875	959.9952	995.1693	1008.6743	1028.6005	1084.8618	1102.4178	1106.3103	1137.9494	1149.1622	1190.5007	1229.2329	1254.1011	1272.2574	1327.8004	1360.5648	1378.4205	1387.792	1395.5519	1422.4965	1435.9217	1476.4842	1488.0375	1495.1626	1504.3507	1728.328	2982.5974	2999.4929	3028.5164	3040.9476	3046.1882	3079.0597	3121.7132	3126.1859	3145.7055	3173.1888	3790.1611	3828.0673
CC1(O)C=CCCC1O	C[C@@]1(O)C=CCC[C@H]1O	
InChI=1S/C7H12O2/c1-7(9)5-3-2-4-6(7)8/h3,5-6,8-9H,2,4H2,1H3	InChI=1S/C7H12O2/c1-7(9)5-3-2-4-6(7)8/h3,5-6,8-9H,2,4H2,1H3/t6-,7-/m1/s1
