16
gdb 47218	2.4322	1.57571	1.0876	3.9361	77.16	-0.2428	0.0025	0.2453	1105.7292	0.124843	-400.752653	-400.744391	-400.743447	-400.786274	30.71	
O	-0.0541122017	-0.0207163514	 0.3278565921	-0.369156
C	-0.0667329551	 1.1835747773	 0.1765719589	 0.398695
N	-1.2262817385	 1.8908073609	 0.0762942557	-0.323277
C	-1.4105586542	 3.3088762759	-0.1677806467	-0.199823
C	-0.1170193999	 4.0233897537	-0.3941754518	-0.058146
C	 1.0704188075	 3.4410672268	-0.2939015325	-0.057077
C	 1.2490129394	 1.9871275272	 0.0808848359	-0.32083
C	 2.0017553955	 1.8664759963	 1.3307514609	 0.349462
C	 2.6245396844	 1.8138944387	 2.3565384187	-0.481901
H	-2.051749308	 1.3128476278	 0.1466474053	 0.250746
H	-2.0624684169	 3.4470805711	-1.0437055029	 0.124689
H	-1.9420860854	 3.7741254718	 0.6776540859	 0.127094
H	-0.199092652	 5.0757889994	-0.64797449	 0.105379
H	 1.9829152804	 4.0066023632	-0.4560084656	 0.111454
H	 1.8238693404	 1.4756524479	-0.7046368691	 0.142707
H	 3.1725775842	 1.7443163135	 3.2633118954	 0.199984
37.5076	116.7525	142.4476	194.5646	364.5592	387.3226	452.5483	478.1381	531.6637	575.9098	598.175	623.2203	644.8859	685.409	727.85	815.8391	911.8921	923.6061	992.1638	1006.9864	1028.4107	1042.8422	1127.5237	1180.9878	1247.7136	1277.4642	1290.3755	1339.6334	1389.9468	1420.2746	1488.6539	1524.5053	1748.6462	1797.604	2238.5967	2977.5548	2995.1918	3005.8384	3167.3227	3188.6576	3505.4167	3605.1924
O=C1NCC=CC1C#C	O=C1NCC=C[C@H]1C#C	
InChI=1S/C7H7NO/c1-2-6-4-3-5-8-7(6)9/h1,3-4,6H,5H2,(H,8,9)	InChI=1S/C7H7NO/c1-2-6-4-3-5-8-7(6)9/h1,3-4,6H,5H2,(H,8,9)/t6-/m1/s1
