16
gdb 61742	2.1124	1.36239	0.87357	2.4774	74.17	-0.2607	-0.0727	0.188	1285.9515	0.12008	-437.855236	-437.845207	-437.844263	-437.893009	34.181	
C	-0.3622503351	 1.5780774228	 1.7116861977	-0.396541
C	-0.0892633152	 0.6357119555	 0.5459251091	 0.008647
O	 0.6082609817	-0.51117613	 1.0152503395	-0.182728
C	 1.7164997267	-0.908838538	 0.3535700868	 0.126828
N	 2.3316371761	-1.9445262073	 0.722610111	-0.440525
C	-1.3935930036	 0.2254460775	-0.1658908506	 0.196732
O	-2.2968796588	 1.0165049817	-0.3199328894	-0.28408
C	-1.4594199803	-1.1316029668	-0.6677370663	 0.298082
C	-1.5303157002	-2.2487608736	-1.1102465857	-0.406548
H	 0.577444278	 1.968917229	 2.1082559247	 0.126858
H	-0.990077371	 2.4044060717	 1.3749133611	 0.150142
H	-0.8830777886	 1.0437266802	 2.5104624718	 0.14383
H	 0.5150159667	 1.1519177765	-0.2169636029	 0.115373
H	 1.9879823885	-0.2443934484	-0.4790625443	 0.089542
H	 3.1479980219	-2.0930670573	 0.1333859648	 0.232074
H	-1.5924619868	-3.2392903935	-1.4918528973	 0.222312
8.8769	35.6235	106.9557	146.5794	202.3522	208.9849	260.9039	268.4372	340.9132	415.1758	471.5848	573.9106	623.0948	652.9998	713.7439	725.791	786.7205	815.1887	909.3154	1018.0267	1038.3709	1085.4586	1112.0868	1149.2322	1185.9742	1287.7563	1311.6189	1355.1221	1402.7658	1425.7526	1485.4943	1495.0223	1746.4957	1768.9599	2212.1474	2983.8166	3015.4855	3059.1138	3134.6321	3153.7436	3492.9826	3522.0232
CC(OC=N)C(=O)C#C	C[C@@H](O[CH][NH])C(=O)C#C	
InChI=1S/C6H7NO2/c1-3-6(8)5(2)9-4-7/h1,4-5,7H,2H3	InChI=1S/C6H7NO2/c1-3-6(8)5(2)9-4-7/h1,4-5,7H,2H3/t5-/m1/s1
