18
gdb 124853	3.58085	1.13691	1.0496	3.2568	76.8	-0.2512	-0.0093	0.2419	1198.7475	0.147981	-401.932638	-401.924541	-401.923596	-401.966035	30.638	
C	-0.1561280334	 1.475193587	 0.2855008251	-0.458824
C	 0.0054891877	-0.0170500849	 0.0350968539	 0.228376
C	 1.3698168504	-0.5130919133	-0.4030539113	-0.290571
C	 0.8716622974	-0.8055574376	 0.9905469513	-0.306295
C	-1.193803964	-0.6815255363	-0.540733823	 0.08695
C	-2.038765195	-1.5905175204	 0.0169682136	-0.013164
O	-3.0197074674	-1.9267914584	-0.834205877	-0.165506
N	-2.8475303857	-1.2181568458	-2.0192651424	-0.131764
C	-1.7750697266	-0.4920983584	-1.8326554874	-0.050379
H	 0.7655610351	 1.9048030352	 0.6900136227	 0.11558
H	-0.3957587479	 2.0099146429	-0.6402949608	 0.120449
H	-0.9637291353	 1.6687292494	 0.9994986718	 0.123557
H	 1.4104424955	-1.3361119149	-1.1075566109	 0.119099
H	 2.1579054339	 0.2224881498	-0.5243083625	 0.113979
H	 1.3208579226	-0.2702251999	 1.8201170576	 0.114356
H	 0.592790031	-1.8275637814	 1.2205866643	 0.113797
H	-2.0664275962	-2.0751688317	 0.9804398529	 0.149751
H	-1.433798912	 0.1512216986	-2.6320948279	 0.130611
35.9542	139.0746	174.1297	232.0973	295.5251	324.1665	408.2126	483.9884	525.4132	625.846	690.9404	787.3677	833.4703	848.4745	869.6116	899.9915	912.8685	936.6442	943.032	951.7043	1010.3331	1043.6395	1070.1112	1084.3042	1120.9787	1145.1315	1164.5724	1190.2225	1239.7152	1301.2284	1335.5327	1385.7183	1416.5192	1465.1761	1480.6883	1489.8444	1496.73	1509.0739	1649.632	3028.2245	3092.8972	3104.3003	3131.8393	3137.0337	3212.8849	3226.7232	3238.6675	3265.9382
CC1(CC1)C1=CON=C1	CC1(CC1)c1conc1	
InChI=1S/C7H9NO/c1-7(2-3-7)6-4-8-9-5-6/h4-5H,2-3H2,1H3	InChI=1S/C7H9NO/c1-7(2-3-7)6-4-8-9-5-6/h4-5H,2-3H2,1H3
