17
gdb 30270	4.72214	1.21515	0.99643	4.4308	74.24	-0.2137	0.0354	0.2491	1139.5361	0.139622	-418.047788	-418.040522	-418.039578	-418.079602	28.141	
O	 0.0038717947	 1.4067798953	-0.0487656527	-0.421365
C	 0.0142336702	-0.0011523497	 0.0340347979	 0.114755
C	 0.6001157625	-0.5479396642	 1.3718515561	-0.218543
N	-0.1766035068	-1.7600763142	 1.5582260291	-0.009548
C	-0.1319025207	-2.9004862755	 2.299836133	-0.01739
N	-1.1798224588	-3.6618260478	 2.059915825	-0.275056
C	-1.9374766703	-2.9818395939	 1.1283744576	-0.227911
C	-1.330904782	-1.7965090888	 0.8052768403	 0.308932
C	-1.4358774263	-0.5466329453	-0.0114898429	-0.368306
H	 0.8919796859	 1.7118040957	-0.2576291108	 0.290012
H	 0.5831454456	-0.4396134902	-0.7979005774	 0.08882
H	 1.6723230253	-0.7572855246	 1.3217994786	 0.119092
H	 0.4158936273	 0.1771910014	 2.1736283873	 0.128504
H	 0.6747053922	-3.1272818386	 2.9805523437	 0.125123
H	-2.8613575722	-3.3926974556	 0.7514231494	 0.105863
H	-2.1006017081	 0.1961006367	 0.4479172559	 0.131603
H	-1.7804405184	-0.7087791206	-1.0351726399	 0.125416
86.2189	201.272	244.1437	269.3923	302.2253	456.5042	471.7827	510.3654	647.558	675.0324	739.784	784.6618	794.0635	834.5978	856.8715	918.9536	954.5107	1025.8725	1053.7976	1114.1835	1128.0362	1156.0515	1175.4226	1205.6817	1242.9102	1252.5052	1269.7418	1294.7272	1314.929	1355.4916	1400.579	1411.068	1433.7699	1490.8335	1496.5514	1526.3095	1598.8237	3001.3923	3030.8865	3034.8159	3092.7697	3102.1994	3249.5525	3252.8903	3827.2767
OC1CN2C=NC=C2C1	O[C@H]1Cn2cncc2C1	
InChI=1S/C6H8N2O/c9-6-1-5-2-7-4-8(5)3-6/h2,4,6,9H,1,3H2	InChI=1S/C6H8N2O/c9-6-1-5-2-7-4-8(5)3-6/h2,4,6,9H,1,3H2/t6-/m1/s1
