15
gdb 42670	2.62205	1.9484	1.79907	2.1623	63.7	-0.2325	-0.0249	0.2076	833.8964	0.114649	-457.755293	-457.74902	-457.748076	-457.785913	25.25	
O	-0.0585973441	 0.0580434571	-0.1538944893	-0.336241
C	-0.0816776284	 1.2526973172	-0.0042971015	 0.467795
C	-1.2387895714	 2.1660387035	 0.1582260751	-0.297508
C	-0.6062463394	 3.4319317381	 0.7572772864	 0.051671
O	 0.7690829131	 3.2111895655	 0.9816262688	-0.25717
C	 1.1314733582	 2.2083827232	 0.0265625687	-0.116254
C	 1.2195244149	 2.8961650059	-1.3421797269	-0.069348
O	-0.0468365672	 3.4710207814	-1.6877556121	-0.269626
C	-0.9990983484	 3.4576086876	-0.6725807505	 0.08973
H	-2.2333596382	 1.7979278961	 0.3679069419	 0.117084
H	-1.0753996614	 4.0324794359	 1.5264346191	 0.123638
H	 2.0656524769	 1.7343426575	 0.3236347147	 0.116781
H	 1.9738078352	 3.6898055662	-1.2862702891	 0.123002
H	 1.4969790166	 2.1914670731	-2.1344534324	 0.127263
H	-1.8879945864	 3.9999487517	-0.972268023	 0.129184
135.6297	197.8308	353.872	454.4506	477.9975	524.2728	622.9277	661.3808	701.717	731.0383	787.9996	825.5978	867.3889	892.5497	925.141	958.6221	975.9741	1045.6998	1056.3283	1082.235	1099.5892	1119.0266	1166.539	1209.6786	1227.1104	1278.3477	1285.0197	1295.0829	1344.0198	1388.2806	1432.3249	1503.2243	1850.6206	3027.8932	3074.8559	3140.0888	3187.6054	3198.2943	3218.682
O=C1C2C3OC1COC23	O=C1[C@H]2[C@H]3O[C@@H]1CO[C@@H]23	
InChI=1S/C6H6O3/c7-4-2-1-8-5-3(4)6(5)9-2/h2-3,5-6H,1H2	InChI=1S/C6H6O3/c7-4-2-1-8-5-3(4)6(5)9-2/h2-3,5-6H,1H2/t2-,3-,5+,6-/m1/s1
