21
gdb 39158	2.95449	1.67147	1.24541	0.3119	89.01	-0.2096	0.0323	0.242	1070.5819	0.185953	-349.971915	-349.964564	-349.96362	-350.00344	30.53	
C	-0.0620321395	 1.4944745116	 0.0238434841	-0.352492
C	 1.2970468875	 0.8386341378	 0.0155241005	-0.098685
C	 1.9646722126	 0.5798252532	 1.3696542886	-0.214219
C	 0.8835264437	-0.123889934	 2.2499368647	-0.359525
C	-0.0151652858	-0.7673514125	 1.2325320006	 0.358842
C	-0.7084459707	-1.8973786469	 1.108352827	-0.264999
C	-1.2870739494	-2.0339633576	-0.2900001713	-0.248897
C	-0.5436201538	-0.9337722821	-1.116305404	-0.341533
C	 0.0425247092	-0.0138520461	-0.0492323585	 0.323003
H	-0.430944195	 1.9722657317	 0.9274702507	 0.103838
H	-0.3608940748	 1.9959381801	-0.891724776	 0.107354
H	 1.9322618746	 0.9864359312	-0.8518742522	 0.080124
H	 2.8161297517	-0.0948855999	 1.2239679387	 0.102737
H	 2.351108957	 1.4910357015	 1.8388867279	 0.096044
H	 1.314844131	-0.832020777	 2.9618858957	 0.109051
H	 0.3331848102	 0.6195974379	 2.8400233197	 0.113195
H	-0.8506347133	-2.649229085	 1.8765964358	 0.083534
H	-1.130081893	-3.0350919414	-0.707828834	 0.098922
H	-2.3742567616	-1.8718422566	-0.2920058291	 0.103099
H	 0.2537202738	-1.3928889392	-1.7116215292	 0.103024
H	-1.2090119244	-0.4141618465	-1.8107327999	 0.097583
99.9846	210.9699	247.2556	288.7455	376.3452	402.7908	519.6628	575.5106	652.2782	682.1131	714.0493	804.6257	816.4211	829.5682	845.8046	875.071	903.4405	917.6005	928.0563	962.425	990.4083	1030.3801	1048.9093	1065.1944	1075.1844	1081.6343	1107.4616	1170.8167	1179.1733	1206.3111	1233.3885	1250.2666	1263.6119	1289.0215	1305.7093	1313.6598	1337.5451	1369.8518	1392.4468	1476.447	1483.8945	1487.6723	1502.0136	1503.1283	1734.3061	3004.8449	3026.721	3035.1435	3035.7964	3053.2087	3073.2236	3091.5372	3095.1812	3111.1994	3158.9697	3191.2425	3195.7043
C1C2CCC3=CCCC123	C1[C@H]2CCC3=CCC[C@]123	
InChI=1S/C9H12/c1-2-7-3-4-8-6-9(7,8)5-1/h2,8H,1,3-6H2	InChI=1S/C9H12/c1-2-7-3-4-8-6-9(7,8)5-1/h2,8H,1,3-6H2/t8-,9-/m1/s1
