19
gdb 124580	4.15357	0.95264	0.88087	5.9236	76.42	-0.2797	-0.0123	0.2674	1370.5194	0.159619	-415.381134	-415.372185	-415.37124	-415.415971	32.041	
C	 0.0176188332	 1.3970061367	 0.386104798	-0.385075
C	-0.0360627053	-0.0818309571	-0.0140007129	 0.019757
C	-1.4820397146	-0.5816232784	-0.1287960598	-0.390645
C	 0.6953118506	-0.3458824682	-1.3431533281	-0.159061
N	 2.1214636518	-0.0507463509	-1.2958242328	 0.035421
C	 3.1512894373	-0.7724659664	-0.8191316531	 0.056404
N	 4.2639288804	-0.0838506071	-0.9528600434	-0.223533
N	 3.8937541362	 1.0914476298	-1.5265992663	-0.09644
N	 2.6198437932	 1.1257977736	-1.736773323	-0.124892
H	 1.0442746322	 1.7647622797	 0.4573392619	 0.140679
H	-0.5059341283	 2.0177512589	-0.3499035157	 0.122634
H	-0.4652406142	 1.5481286523	 1.3562552813	 0.119119
H	 0.4720960709	-0.6724899955	 0.7607751644	 0.085049
H	-2.0264773127	-0.031564149	-0.9050570937	 0.123429
H	-1.525761617	-1.6471722714	-0.3782328449	 0.115215
H	-2.015688948	-0.4359402977	 0.8146717685	 0.125633
H	 0.5836780625	-1.3937485849	-1.638209082	 0.127867
H	 0.2807473678	 0.2753934259	-2.1414141681	 0.1476
H	 3.0564788039	-1.7627257102	-0.4042721105	 0.160838
36.2399	76.1059	103.899	215.6729	239.5921	276.072	317.5397	351.2714	412.7293	427.3773	677.7684	736.7311	764.6383	822.7942	865.3176	894.1834	932.6473	954.4134	972.0019	987.7528	1042.4972	1099.5921	1128.5981	1146.9752	1194.4009	1195.5998	1217.808	1298.4566	1329.5258	1334.2557	1374.8588	1389.3328	1404.6681	1428.9904	1458.5043	1474.6388	1485.3258	1493.1216	1505.6859	1508.3695	1516.4551	3011.9703	3029.9168	3037.4422	3060.3218	3094.9258	3103.2145	3111.6142	3116.5272	3123.7065	3282.458
CC(C)CN1C=NN=N1	CC(C)Cn1cnnn1	
InChI=1S/C5H10N4/c1-5(2)3-9-4-6-7-8-9/h4-5H,3H2,1-2H3	InChI=1S/C5H10N4/c1-5(2)3-9-4-6-7-8-9/h4-5H,3H2,1-2H3
