18
gdb 64111	3.60443	1.06931	1.00899	1.1902	82.6	-0.246	-0.028	0.2179	1260.1152	0.145672	-401.939131	-401.929952	-401.929008	-401.973471	34.035	
C	 0.0653935461	 1.477697822	 0.0476798269	-0.415982
C	-0.0413438053	-0.0510649294	-0.0174151713	 0.25139
C	-1.509153178	-0.4934335312	-0.068184071	-0.416023
C	 0.7930494694	-0.6484300718	-1.1940894207	-0.145148
O	 1.7871498468	-1.4793909507	-0.5593219265	-0.259451
C	 1.5511568819	-1.3694051222	 0.7790185186	 0.256151
N	 0.5969510015	-0.6315911376	 1.1848654758	-0.337146
C	 2.4285251133	-2.1195311839	 1.6148088145	 0.257216
C	 3.1723191979	-2.7547478277	 2.3119936532	-0.353944
H	 1.1120915542	 1.7919908691	 0.0986809356	 0.119963
H	-0.3899879961	 1.9343697775	-0.8379331912	 0.112125
H	-0.4467686182	 1.8568434071	 0.9359424026	 0.130721
H	-2.0042861664	-0.0865762598	-0.9567468624	 0.112126
H	-1.5849873693	-1.5844014607	-0.0997350461	 0.119966
H	-2.0429707183	-0.1413414652	 0.8184622419	 0.13072
H	 0.2008388232	-1.2775861931	-1.8652787975	 0.115992
H	 1.3115670329	 0.1133776459	-1.7838580896	 0.115996
H	 3.8256378146	-3.3136417482	 2.9360716173	 0.205327
34.2532	118.7891	148.1386	215.4836	254.4053	289.7583	321.9376	351.7587	373.3336	502.3193	541.4082	561.0323	634.663	653.5819	669.0561	728.0271	829.7208	892.3799	927.9779	944.726	964.6509	996.6397	1022.9707	1032.1226	1189.5955	1198.4724	1211.6074	1264.1305	1291.3704	1375.6302	1396.0391	1418.0748	1475.8845	1485.0031	1494.7433	1504.6744	1521.9136	1688.9072	2252.2313	3032.3432	3035.8048	3047.1172	3092.6044	3103.7335	3107.5479	3120.2977	3124.1071	3501.578
CC1(C)COC(=N1)C#C	CC1(C)COC(=N1)C#C	
InChI=1S/C7H9NO/c1-4-6-8-7(2,3)5-9-6/h1H,5H2,2-3H3	InChI=1S/C7H9NO/c1-4-6-8-7(2,3)5-9-6/h1H,5H2,2-3H3
