19
gdb 68603	2.33114	1.86607	1.4748	1.2721	74.74	-0.2339	0.0776	0.3114	982.8282	0.159171	-422.978083	-422.970261	-422.969317	-423.009958	31.059	
C	-0.041779556	 1.5201919492	 0.051700272	-0.50943
C	-0.0121441913	 0.014267811	 0.0138933142	 0.175434
C	 0.3274057588	-0.8284512894	-1.2709510673	-0.287959
C	-0.3490312801	-1.9517800121	-0.4450148161	 0.00032
O	 0.5380519042	-2.1302586811	 0.670458568	-0.281976
C	 0.8199742313	-0.7595406858	 1.049846356	-0.103509
C	-1.2937458142	-0.8558369531	 0.0614931091	 0.489981
C	-2.5291035864	-0.8239281213	 0.8273099343	-0.309551
O	-2.4899469625	-0.4760960372	-0.5794732539	-0.301767
H	 0.9391710713	 1.9438240566	-0.1883662663	 0.122383
H	-0.7676800727	 1.9068647385	-0.6697322919	 0.136674
H	-0.3275951734	 1.8861340179	 1.0447139188	 0.118492
H	-0.2597885423	-0.5168612691	-2.1363432416	 0.120515
H	 1.3801831163	-0.9705402993	-1.5265176881	 0.099168
H	-0.6679369474	-2.9134129713	-0.840969984	 0.089193
H	 1.8967993642	-0.5629505832	 0.9779001967	 0.100249
H	 0.4932705414	-0.5810131646	 2.0817729729	 0.099387
H	-3.0521189294	-1.7501749863	 1.0588572853	 0.124204
H	-2.7375241718	 0.0087355907	 1.4975692218	 0.118191
153.2837	188.6877	189.7831	245.5893	283.7474	352.3635	408.0193	442.3873	569.8454	605.9325	626.3865	684.189	804.1055	858.841	891.9503	917.7255	926.1886	940.2002	965.8668	991.0328	1027.4041	1038.7763	1080.0108	1110.5192	1120.17	1143.559	1155.9811	1189.6131	1210.0133	1225.5474	1245.701	1261.6181	1304.2821	1379.2346	1413.1194	1450.4737	1483.2189	1489.1881	1496.2627	1524.0049	1549.7237	3014.4403	3029.4286	3054.8801	3069.1675	3086.6457	3091.3304	3109.1622	3141.4455	3153.2214	3173.7744
CC12CC(OC1)C21CO1	C[C@@]12C[C@@H](OC1)[C@]12CO1	
InChI=1S/C7H10O2/c1-6-2-5(8-3-6)7(6)4-9-7/h5H,2-4H2,1H3	InChI=1S/C7H10O2/c1-6-2-5(8-3-6)7(6)4-9-7/h5H,2-4H2,1H3/t5-,6-,7+/m1/s1
