18
gdb 28326	4.63717	1.23025	0.99571	3.0639	80.06	-0.1751	0.0454	0.2204	1180.2831	0.151942	-398.181825	-398.174162	-398.173218	-398.213821	29.744	
N	 0.0338287558	 1.3617739258	 0.1578142581	-0.596518
C	-0.0313076736	-0.03075939	 0.0454945249	 0.27954
C	-1.1457962676	-0.8472108295	 0.0217694043	-0.24968
N	-0.6228926952	-2.1274617557	-0.0597344116	 0.024818
C	-1.1140413306	-3.490834799	-0.0134516323	-0.179469
C	 0.160921437	-4.2973137978	-0.387070161	-0.213295
C	 1.3644761162	-3.3735173126	-0.040747486	-0.349057
C	 0.7247340812	-2.0201484221	-0.0509402371	 0.383613
N	 1.1318208521	-0.7680451417	 0.0031702274	-0.413021
H	 0.9430371145	 1.6956647527	-0.1355198375	 0.246622
H	-0.6958345053	 1.8426645138	-0.350935424	 0.238134
H	-2.2022843089	-0.6433063447	 0.032293597	 0.110699
H	-1.4820871559	-3.7382042214	 0.9909659525	 0.118116
H	-1.9342671738	-3.6503441976	-0.7201272956	 0.119017
H	 0.1994164672	-5.2573562628	 0.1312481908	 0.110988
H	 0.1537616665	-4.5016326333	-1.4612201851	 0.120304
H	 1.7789347129	-3.6033104211	 0.9490328112	 0.122943
H	 2.1830117474	-3.4669229031	-0.7590748758	 0.126248
116.3765	171.4027	212.8297	228.4797	297.0972	319.3854	509.7827	534.704	622.9205	648.8723	662.8856	699.4928	740.5136	770.7477	824.2068	878.8289	905.5468	918.7137	1007.3668	1015.4931	1089.6061	1092.9594	1138.5438	1180.6169	1204.1656	1228.1862	1237.9827	1304.1942	1320.1544	1335.9816	1372.1459	1433.4859	1480.0091	1495.7817	1501.8767	1536.1168	1556.7238	1605.486	1642.2704	3016.4985	3028.0348	3063.04	3075.7416	3090.5082	3119.9255	3280.5447	3541.369	3637.3845
NC1=CN2CCCC2=N1	Nc1cn2CCCc2n1	
InChI=1S/C6H9N3/c7-5-4-9-3-1-2-6(9)8-5/h4H,1-3,7H2	InChI=1S/C6H9N3/c7-5-4-9-3-1-2-6(9)8-5/h4H,1-3,7H2
