18
gdb 91221	2.489	1.57604	1.31802	4.6588	72.11	-0.2217	0.0099	0.2316	1050.3248	0.146532	-439.078281	-439.0697	-439.068756	-439.111289	31.843	
C	-0.0758298013	 1.5433544273	-0.0304763829	-0.334038
N	 0.066156728	 0.1156066748	 0.1360432181	-0.100166
C	-1.1432802239	-0.7122646417	 0.3076707031	-0.202513
C	-0.4289492904	-1.5255853571	 1.3968718425	 0.058022
O	 0.4814237175	-2.538817237	 0.8755655894	-0.270062
C	 1.5574413779	-1.6684223257	 0.8798209244	 0.470077
O	 2.6818199833	-1.9051073533	 0.5831060031	-0.333408
C	 0.7067942363	-0.4699833061	 1.3532221864	 0.12144
C	 1.2110426418	 0.4160846742	 2.4613489317	-0.509787
H	 0.9083919291	 2.0205958336	-0.0405263409	 0.132782
H	-0.5459743313	 1.7419894265	-0.9993541346	 0.132268
H	-0.6918259985	 2.0328199254	 0.7466165592	 0.093185
H	-1.9940479573	-0.1539014789	 0.729731929	 0.098606
H	-1.4713954315	-1.2546182547	-0.584734488	 0.121462
H	-0.960596924	-1.8801044679	 2.2769433954	 0.105249
H	 2.0753197187	 0.9954292179	 2.1213087031	 0.148671
H	 0.4420093545	 1.1133320538	 2.805181195	 0.129817
H	 1.534621241	-0.1886556811	 3.3136689261	 0.138394
105.0021	144.0279	191.4898	214.4124	235.2181	253.3334	304.1393	333.986	409.537	530.3351	640.2749	686.0207	704.4795	794.5334	842.699	863.9401	883.9809	962.4265	988.0302	1043.1236	1085.8136	1125.6619	1136.0454	1158.5107	1170.4176	1188.3997	1212.9211	1267.5401	1323.5607	1325.5128	1350.0163	1410.8933	1452.4011	1480.0291	1485.1906	1491.3671	1501.8696	1509.826	1940.3792	2931.3164	2979.8156	3042.1814	3062.6832	3074.337	3106.6436	3112.7735	3118.3539	3144.7449
CN1CC2OC(=O)C12C	CN1C[C@H]2OC(=O)[C@@]12C	
InChI=1S/C6H9NO2/c1-6-4(3-7(6)2)9-5(6)8/h4H,3H2,1-2H3	InChI=1S/C6H9NO2/c1-6-4(3-7(6)2)9-5(6)8/h4H,3H2,1-2H3/t4-,6+/m1/s1
