18
gdb 35920	2.77969	1.51569	1.20019	5.8511	74.97	-0.24	0.0259	0.2658	1061.1634	0.151331	-398.113609	-398.105954	-398.105009	-398.145883	29.833	
N	-0.1279505859	-1.1233861831	-0.510920798	-0.332267
C	-0.0749265834	-0.0032188818	-0.2340794933	 0.329716
C	-0.0005943668	 1.4395911391	 0.0773213281	-0.166643
N	-0.7378232773	 1.7290755431	 1.3122682512	-0.284163
C	 0.0751882713	 1.6118736674	 2.5259375872	-0.178119
C	 1.2605777578	 2.5912068216	 2.5523460939	-0.21224
C	 2.0791362514	 2.4861302127	 1.2816496765	-0.018237
N	 2.4113361904	 1.1210795243	 0.8564747308	-0.318897
C	 1.4662362845	 1.9053752425	 0.0529581247	-0.044664
H	-0.5274642891	 1.9546320377	-0.7340794492	 0.123958
H	-1.1125649	 2.6695241684	 1.2453723741	 0.221322
H	-0.5761480965	 1.7792049036	 3.3885930147	 0.106695
H	 0.4427249202	 0.5831656304	 2.5870524917	 0.146226
H	 0.8865588173	 3.6194553291	 2.6498274038	 0.092873
H	 1.8977034789	 2.3976498918	 3.4238572621	 0.108434
H	 2.8308800278	 3.2595167878	 1.1350671143	 0.088387
H	 3.3197433006	 1.0784463394	 0.4048238647	 0.239714
H	 1.8062346689	 2.270606556	-0.9129083473	 0.097905
76.9968	139.4345	226.3171	291.7864	358.4312	366.0124	450.791	465.1267	585.3858	619.8138	705.1877	744.3838	778.3264	804.6064	863.9291	883.1843	919.4785	950.4127	972.0403	1014.7841	1038.0544	1084.2541	1122.7744	1135.9777	1167.7291	1206.5064	1229.3578	1254.7122	1282.2105	1301.9255	1362.5199	1369.4228	1380.4843	1402.2546	1456.5855	1477.1023	1486.7971	1501.4184	2361.0245	3015.7294	3048.8086	3053.9793	3063.5074	3105.5753	3120.264	3136.8319	3521.5426	3522.7127
N#CC1NCCC2NC12	N#C[C@H]1NCC[C@H]2N[C@@H]12	
InChI=1S/C6H9N3/c7-3-5-6-4(9-6)1-2-8-5/h4-6,8-9H,1-2H2	InChI=1S/C6H9N3/c7-3-5-6-4(9-6)1-2-8-5/h4-6,8-9H,1-2H2/t4-,5-,6-/m1/s1
