17
gdb 19361	4.29983	1.63933	1.47067	3.4271	67.41	-0.2169	0.0578	0.2747	910.9626	0.141165	-363.759606	-363.752296	-363.751352	-363.791164	28.2	
C	 0.0431706209	 1.5009668583	 0.2531581151	-0.372699
C	 0.0127119684	 0.0118891226	-0.1219891582	-0.317673
C	-1.3739654377	-0.5547666516	-0.1415667169	 0.329639
N	-2.1541661732	-0.8869076506	 1.0738483854	-0.350258
C	-1.9017230128	-1.9262467238	 0.0407519776	-0.188348
C	-2.9230544309	-1.6928542676	-1.1292761654	 0.026665
O	-3.7424973515	-0.5663028437	-0.8208470266	-0.211351
C	-2.4228250891	-0.33156366	-1.3072976422	-0.021927
H	 1.0667595337	 1.8869091156	 0.2416660559	 0.114067
H	-0.5485039439	 2.0964178034	-0.4497028551	 0.124145
H	-0.3725043647	 1.6627913548	 1.2522471995	 0.128822
H	 0.4714504963	-0.1283913777	-1.1099937203	 0.105033
H	 0.6254451988	-0.5653268738	 0.5827930736	 0.098438
H	-1.4710534224	-1.0545645979	 1.8147911311	 0.225431
H	-1.385831166	-2.8504764065	 0.2669327715	 0.096482
H	-3.2977474261	-2.4246953861	-1.8341748725	 0.108396
H	-2.2999522799	 0.2862052646	-2.1894514726	 0.105136
89.7648	144.0138	191.7556	308.3277	342.3061	424.9985	459.1512	586.9486	680.0897	753.272	769.0201	809.8371	823.1065	852.0079	886.6845	910.3028	927.7354	956.4165	986.5108	1026.8954	1029.5454	1090.6757	1106.2962	1114.3649	1200.5613	1210.912	1255.0721	1290.5197	1333.4367	1349.0612	1374.0697	1411.6427	1440.7355	1476.7748	1497.028	1506.2098	3012.6715	3039.1529	3045.7659	3108.0967	3114.2184	3179.2081	3194.1499	3202.8946	3452.2831
CCC12NC1C1OC21	CC[C@]12N[C@H]1[C@H]1O[C@@H]21	
InChI=1S/C6H9NO/c1-2-6-4(7-6)3-5(6)8-3/h3-5,7H,2H2,1H3	InChI=1S/C6H9NO/c1-2-6-4(7-6)3-5(6)8-3/h3-5,7H,2H2,1H3/t3-,4+,5-,6+/m1/s1
