25
gdb 102689	2.09953	0.74862	0.58462	2.8801	90.89	-0.2475	-0.0186	0.2289	1966.9019	0.225957	-389.513748	-389.502021	-389.501077	-389.552427	40.946	
C	 0.0989813028	 1.583373989	-0.1137656383	-0.389462
C	 0.0412510375	 0.053118042	-0.1725124425	-0.18259
C	-1.3628205093	-0.5483571466	 0.0485554487	 0.057564
C	-2.279698833	-0.2928984085	-1.1663735883	-0.183731
C	-3.7750045221	-0.4972618829	-0.8998194378	-0.390631
C	-1.2804890097	-2.0559819974	 0.3664883367	-0.207416
C	-0.7061696925	-2.3873285044	 1.756771275	-0.281827
C	-0.8032886478	-3.8646969173	 2.0595315438	 0.159469
O	 0.1220640057	-4.5748366316	 2.3576046425	-0.23742
H	 1.1242255475	 1.9397362119	-0.2541265675	 0.114618
H	-0.5169904645	 2.0535262988	-0.8863871036	 0.119429
H	-0.2499582518	 1.9524933033	 0.8572117257	 0.11429
H	 0.4240802506	-0.2959253196	-1.1415840262	 0.095141
H	 0.7299789452	-0.3442112522	 0.581498564	 0.097007
H	-1.8117028455	-0.0466691092	 0.920354092	 0.062822
H	-2.1310541818	 0.7341046006	-1.5176613269	 0.097115
H	-1.9578541207	-0.9417880945	-1.9927744	 0.094066
H	-4.1257261583	 0.164628854	-0.1000352013	 0.115034
H	-4.3643757589	-0.2753071734	-1.7949690976	 0.114959
H	-4.0100386436	-1.524828219	-0.6048562298	 0.11744
H	-2.2815123299	-2.4983627613	 0.2973906483	 0.097979
H	-0.6746910694	-2.551432272	-0.4041872399	 0.107707
H	 0.3383213448	-2.0855675184	 1.8653887651	 0.12482
H	-1.29613623	-1.8572200969	 2.5195714338	 0.116131
H	-1.8371334552	-4.2791919644	 1.9790257144	 0.067487
44.0211	54.8556	75.8878	84.4868	97.9829	166.2221	202.8039	235.9417	256.9806	274.1501	310.2574	404.2585	444.3291	484.8455	529.506	748.572	766.1262	775.9241	826.9128	873.6517	916.0413	960.6615	1017.9713	1020.7229	1027.4289	1052.2794	1056.5433	1066.9358	1154.6224	1157.9629	1177.0888	1217.123	1259.3216	1285.079	1294.1827	1320.896	1338.7154	1347.2161	1375.3107	1391.0537	1394.7039	1414.976	1417.3275	1430.5772	1464.2058	1482.7505	1488.7537	1492.2325	1499.846	1503.9664	1506.2731	1509.0117	1835.9947	2842.9	2978.8623	3005.5204	3013.4903	3017.3434	3024.7834	3033.406	3033.4498	3056.8093	3059.3721	3063.8553	3099.1631	3099.4634	3103.4589	3106.6115	3109.8974
CCC(CC)CCC=O	CCC(CC)CCC=O	
InChI=1S/C8H16O/c1-3-8(4-2)6-5-7-9/h7-8H,3-6H2,1-2H3	InChI=1S/C8H16O/c1-3-8(4-2)6-5-7-9/h7-8H,3-6H2,1-2H3
