21
gdb 53935	1.86051	1.42885	1.34485	0.9856	78.97	-0.2428	-0.0455	0.1973	1173.4255	0.177472	-424.276291	-424.265215	-424.26427	-424.312709	39.743	
C	 0.7631714192	 0.5226279155	 0.5468410376	-0.488279
C	-0.1674381255	-0.0623680717	-0.4972250494	 0.369776
O	 0.1322598402	-0.0920257763	-1.6686835136	-0.306738
C	-1.5102481224	-0.6735545038	-0.0038137413	 0.047928
C	-2.1218636755	 0.1535654843	 1.1393693314	-0.426422
C	-2.4901997706	-0.7762262284	-1.1845850248	-0.426427
C	-1.1093942636	-2.0784239855	 0.5308020416	 0.369774
C	-0.899307299	-3.1828420437	-0.4862760514	-0.488276
O	-0.936200951	-2.2639560144	 1.7134229613	-0.306735
H	 1.7388367839	 0.7038095758	 0.094811886	 0.141643
H	 0.3617803487	 1.4702997346	 0.9216395223	 0.148411
H	 0.8564521928	-0.1466918902	 1.4071947018	 0.159662
H	-2.2840103961	 1.1885607431	 0.8224261221	 0.113044
H	-3.0919147415	-0.266474482	 1.4211777608	 0.124069
H	-1.4944992595	 0.1442079338	 2.0300257592	 0.140871
H	-2.0367762159	-1.2588131396	-2.0497211397	 0.14087
H	-3.3891037318	-1.3282546798	-0.89270523	 0.113043
H	-2.7988978495	 0.2258766202	-1.4965820136	 0.12407
H	-1.8623479217	-3.5093450871	-0.8932398905	 0.148415
H	-0.2999370966	-2.8289439116	-1.3303226763	 0.159657
H	-0.4136558447	-4.0292911233	 0.0002883067	 0.141643
38.5821	55.0383	146.0948	174.6239	177.2209	210.2071	229.0963	264.4671	275.2184	330.1802	358.3376	385.7687	440.6741	485.2755	542.6533	598.8561	620.6325	663.1538	752.8854	907.7489	953.033	959.2618	962.1918	1010.7362	1038.9076	1069.5074	1135.1313	1163.6815	1192.8971	1224.7753	1259.7574	1381.3882	1381.9954	1400.3017	1421.1328	1460.8347	1461.9369	1470.3398	1472.2167	1487.8261	1490.088	1505.1043	1509.5676	1784.7799	1805.7681	3043.3049	3044.5597	3045.6563	3049.5311	3105.9748	3109.051	3110.3949	3111.5299	3153.2633	3154.0181	3156.774	3157.3421
CC(=O)C(C)(C)C(C)=O	CC(=O)C(C)(C)C(=O)C	
InChI=1S/C7H12O2/c1-5(8)7(3,4)6(2)9/h1-4H3	InChI=1S/C7H12O2/c1-5(8)7(3,4)6(2)9/h1-4H3
