18
gdb 91294	3.10676	1.3135	1.10492	1.2263	70.77	-0.2219	-0.0259	0.196	1114.3547	0.148087	-439.080357	-439.072408	-439.071464	-439.113687	30.457	
O	 0.676835243	 0.5738840319	-1.0634668337	-0.420319
C	 0.134120696	-0.340083217	-0.1517831365	 0.128011
C	 0.193747392	-0.0340955269	 1.3628386367	-0.225279
N	-1.1872649267	-0.5583691497	 1.5141132984	-0.09233
C	-2.1441077095	 0.2944783199	 2.2005256826	-0.293164
C	-2.7203622423	 1.2650605924	 1.1516618378	 0.384206
O	-3.4228361222	 2.2142229357	 1.3734113773	-0.297175
C	-2.2489815109	 0.789986085	-0.2346756652	-0.363058
C	-1.4119599915	-0.4650504898	 0.0245837355	-0.029763
H	 0.5157787882	 1.4677477684	-0.7448303652	 0.284787
H	 0.5740301682	-1.3083725474	-0.3985340906	 0.107976
H	 0.9458849133	-0.5482742735	 1.9686285407	 0.115546
H	 0.2817057298	 1.0503608848	 1.5503364399	 0.081759
H	-2.9767811489	-0.2912315029	 2.6153869373	 0.133895
H	-1.6918262531	 0.8435506102	 3.0318983202	 0.135208
H	-3.1204829741	 0.613700047	-0.8706183624	 0.143544
H	-1.6832305493	 1.5957191963	-0.715778445	 0.123181
H	-1.8687670119	-1.3614858445	-0.4036821377	 0.082976
38.5249	86.9328	225.2401	291.4077	343.9374	415.9767	432.7873	444.1288	549.878	583.7473	636.2867	672.1958	764.017	791.0469	819.2527	860.2526	946.2057	968.2712	1014.4986	1047.6649	1088.3879	1103.2666	1125.0329	1141.0621	1151.9114	1196.9363	1233.0913	1241.9595	1266.7263	1274.5445	1287.2262	1303.8346	1326.4913	1365.1994	1434.8775	1453.8682	1459.4138	1511.9546	1850.3873	2952.9215	3012.0989	3053.6641	3058.3296	3070.9206	3088.9247	3098.6146	3101.9931	3816.9404
OC1CN2CC(=O)CC12	O[C@H]1CN2CC(=O)C[C@@H]12	
InChI=1S/C6H9NO2/c8-4-1-5-6(9)3-7(5)2-4/h5-6,9H,1-3H2	InChI=1S/C6H9NO2/c8-4-1-5-6(9)3-7(5)2-4/h5-6,9H,1-3H2/t5-,6-/m0/s1
