15
gdb 27629	2.94199	1.29989	0.90665	2.9925	78.22	-0.1972	0.0095	0.2067	1216.5408	0.112244	-416.830548	-416.821977	-416.821032	-416.863464	32.094	
C	-0.0556407968	 1.5219060402	 0.0973760025	-0.51891
C	 0.0078355051	 0.0396665934	-0.0003094254	 0.217208
C	 0.0243617947	-0.8115788662	-1.0816400515	 0.075703
N	 0.0912635555	-2.1457271978	-0.6624952262	-0.424936
C	 0.1132153399	-2.0741796067	 0.6344334662	 0.423668
O	 0.1750560069	-3.0958256603	 1.5030730569	-0.42961
N	 0.0661253282	-0.798032589	 1.1057139364	-0.346806
C	-0.0183266572	-0.4401228046	-2.4451051383	 0.244586
C	-0.0554140401	-0.1089956087	-3.6030219438	-0.43376
H	 0.820902213	 1.9407576673	 0.6073286244	 0.131382
H	-0.0924733616	 1.9431023987	-0.9093661105	 0.157714
H	-0.9465393573	 1.8629882066	 0.639405106	 0.131425
H	 0.200277633	-3.901162461	 0.9705716994	 0.31662
H	 0.0727707313	-0.5252899058	 2.0741002468	 0.272582
H	-0.0880188444	 0.1738084739	-4.6254826728	 0.183134
136.9938	141.122	151.9497	200.9171	273.0788	331.3713	413.6327	416.5972	455.9008	499.47	527.0462	549.5002	589.5253	641.0113	666.6445	708.0835	735.1104	809.4303	997.0929	1051.9877	1064.1703	1147.7685	1185.1923	1259.0323	1287.7149	1411.6428	1421.2134	1481.7386	1490.4475	1549.4451	1614.9869	1641.1893	2229.421	3017.7051	3062.8418	3131.8855	3505.7927	3668.2257	3802.5267
CC1=C(N=C(O)N1)C#C	Cc1c(nc(O)[nH]1)C#C	
InChI=1S/C6H6N2O/c1-3-5-4(2)7-6(9)8-5/h1H,2H3,(H2,7,8,9)	InChI=1S/C6H6N2O/c1-3-5-4(2)7-6(9)8-5/h1H,2H3,(H2,7,8,9)
