19
gdb 46511	3.64095	1.20491	1.0387	4.04	75.92	-0.2371	0.0328	0.2698	1174.9634	0.162292	-419.229533	-419.22156	-419.220616	-419.262213	30.991	
O	 0.0011158639	-0.0937173399	 0.0296829332	-0.378316
C	-0.0208767349	 1.1234626545	 0.0291879531	 0.395835
C	-1.329557014	 1.9086272126	 0.0467896828	-0.306014
C	-1.2033839229	 3.3436242178	-0.4824634234	-0.309791
C	-0.0304029153	 4.0234996643	 0.1903620715	 0.337867
C	-0.0252258522	 5.4844922187	 0.4235382526	-0.299662
N	-0.1920182139	 4.5523832413	 1.5578418326	-0.342448
C	 1.2796844859	 3.307760804	-0.0641503374	-0.194589
N	 1.1297723671	 1.8625922194	 0.0586931844	-0.312184
H	-2.0612759064	 1.3240846408	-0.5149777638	 0.129726
H	-1.6721765588	 1.9215924553	 1.0891560754	 0.13125
H	-1.0430457184	 3.3277716537	-1.5683671532	 0.112557
H	-2.1278514863	 3.9055963036	-0.3075644158	 0.097414
H	 0.9103700536	 6.0380951089	 0.4231764277	 0.119484
H	-0.8850763063	 6.0553997195	 0.082219025	 0.114013
H	-1.171876707	 4.5182978228	 1.8321811065	 0.229085
H	 1.642421074	 3.566483842	-1.0711630904	 0.106611
H	 2.022088616	 3.6601439485	 0.6589749099	 0.123449
H	 1.9679668158	 1.2992388122	 0.0412239396	 0.245712
73.5162	131.5484	175.0158	283.5856	357.951	371.4736	436.4568	455.3293	509.7066	553.0077	653.6545	666.8092	748.1184	775.9414	838.7662	898.3236	929.8214	951.4012	981.6027	1000.65	1016.9343	1068.2843	1075.7941	1113.5023	1144.4154	1182.4831	1220.2923	1255.2698	1265.3207	1299.0099	1330.2595	1340.4231	1377.748	1391.5238	1425.2653	1465.156	1482.1766	1493.6767	1515.8697	1523.8032	1789.0619	2980.6966	3021.6113	3038.7768	3065.8226	3069.4103	3103.7683	3111.976	3186.9112	3485.1847	3604.8146
O=C1CCC2(CN2)CN1	O=C1CC[C@]2(CN2)CN1	
InChI=1S/C6H10N2O/c9-5-1-2-6(3-7-5)4-8-6/h8H,1-4H2,(H,7,9)	InChI=1S/C6H10N2O/c9-5-1-2-6(3-7-5)4-8-6/h8H,1-4H2,(H,7,9)/t6-/m1/s1
