23
gdb 118722	2.36001	1.35047	1.03407	1.0083	86.03	-0.2367	0.0861	0.3228	1293.9174	0.204673	-388.260928	-388.251299	-388.250355	-388.295318	36.6	
C	-0.3568219989	 1.4806278206	 0.1828395702	-0.386984
C	-0.1779022459	-0.0270761757	 0.2516919268	-0.049049
O	-1.3427637153	-0.6354395329	-0.2870029537	-0.295418
C	-1.4311818984	-2.0226874446	-0.097825124	 0.459486
C	-0.4472338446	-2.8364660388	-0.9164564781	-0.466126
C	-1.8148016182	-2.5844850314	 1.2467404775	-0.131178
C	-2.7510066335	-1.6304835167	 2.0005945454	-0.235404
C	-3.7364185873	-1.6427604012	 0.7899780792	-0.229041
C	-2.8002620912	-2.6031708542	 0.0484283366	-0.127462
H	 0.5307504893	 1.9889179925	 0.5719504321	 0.112267
H	-0.5135356394	 1.8001647313	-0.851471727	 0.126478
H	-1.2238023414	 1.7942984988	 0.7714436749	 0.124572
H	 0.7146530943	-0.3271230789	-0.3182203057	 0.089011
H	-0.0267561888	-0.3564477427	 1.2909394057	 0.091542
H	 0.5878175598	-2.6490923269	-0.6127714471	 0.117698
H	-0.6370914212	-3.9068261091	-0.7964037794	 0.119106
H	-0.5417177465	-2.5867810271	-1.9781814816	 0.12344
H	-1.2660194271	-3.4059261089	 1.6950910777	 0.07659
H	-3.1851215005	-2.0927207181	 2.8898067176	 0.099175
H	-2.3300396758	-0.6608830558	 2.2813714772	 0.097414
H	-4.6950545882	-2.1014272018	 1.0411419552	 0.09678
H	-3.9133247876	-0.6851802025	 0.2954767828	 0.108066
H	-3.1187637235	-3.4386200159	-0.5658048422	 0.079038
66.0614	106.2179	149.4925	213.8522	220.8199	252.5808	259.847	280.6873	338.0853	415.8713	513.456	537.3868	675.366	767.5014	781.9891	820.7153	837.4434	845.9765	901.9015	945.4044	973.2777	978.1602	1001.636	1022.4442	1036.2486	1074.645	1087.6755	1116.392	1132.5545	1157.9704	1189.0002	1197.8826	1227.9776	1260.4492	1262.0769	1276.2903	1291.792	1295.9247	1396.9744	1409.9557	1414.0191	1434.3065	1473.0217	1482.8858	1487.6302	1495.1308	1500.5469	1506.5196	1529.2387	2979.6041	3008.8952	3036.6033	3042.8879	3056.2967	3068.8075	3100.0944	3102.4336	3114.1361	3116.6614	3119.5358	3123.8721	3158.311	3169.5412
CCOC1(C)C2CCC12	CCO[C@@]1(C)[C@H]2CC[C@@H]12	
InChI=1S/C8H14O/c1-3-9-8(2)6-4-5-7(6)8/h6-7H,3-5H2,1-2H3	InChI=1S/C8H14O/c1-3-9-8(2)6-4-5-7(6)8/h6-7H,3-5H2,1-2H3/t6-,7+,8-
