17
gdb 105431	2.35038	1.50182	1.19688	3.2015	72.51	-0.2743	-0.0034	0.271	1097.0996	0.136059	-418.037602	-418.028993	-418.028049	-418.071297	31.131	
C	 0.039777073	 1.5498436031	-0.019998734	-0.402154
C	 0.1269921164	 0.0242497255	 0.0409056955	-0.223894
C	 0.7121739541	-0.5250744868	 1.3498706008	 0.212804
C	 0.9382711318	-2.0792236944	 1.3290395221	-0.234365
N	 2.3903448723	-2.2534660811	 1.4230663408	-0.249424
C	 2.8795180456	-1.0933101849	 1.5301575166	 0.120686
O	 2.0619981821	-0.0062062005	 1.5272014708	-0.243362
C	-0.0852830094	-0.1017214255	 2.5106272807	 0.274845
N	-0.7442702173	 0.2033816311	 3.409266827	-0.337694
H	 1.0271623189	 2.0009830629	 0.1064950576	 0.139133
H	-0.3610099418	 1.868123347	-0.986084669	 0.123575
H	-0.6166302231	 1.9408482838	 0.7631801806	 0.144893
H	-0.8644808798	-0.4250272598	-0.0908732602	 0.123619
H	 0.7604493098	-0.35838061	-0.7676755916	 0.11953
H	 0.4427011657	-2.5821750102	 2.1634444301	 0.146011
H	 0.5598547952	-2.5163995473	 0.3996799942	 0.131084
H	 3.9320493864	-0.8534099329	 1.627215948	 0.154712
64.8786	105.4145	160.9171	185.4726	211.3756	261.5655	380.1927	397.9862	505.2729	515.8433	572.6961	637.8923	776.7714	786.9184	875.5058	909.0298	952.1758	961.4155	994.952	1019.3449	1032.4916	1109.0166	1132.3708	1149.854	1179.7481	1253.1678	1311.5833	1321.2448	1339.0413	1366.5697	1413.3329	1472.4728	1495.9813	1497.4788	1506.8952	1716.9275	2358.1127	3035.4839	3048.7874	3055.6253	3076.8932	3099.7495	3119.7465	3129.2469	3225.5464
CCC1(CN=CO1)C#N	CC[C@]1(CN=CO1)C#N	
InChI=1S/C6H8N2O/c1-2-6(3-7)4-8-5-9-6/h5H,2,4H2,1H3	InChI=1S/C6H8N2O/c1-2-6(3-7)4-8-5-9-6/h5H,2,4H2,1H3/t6-/m1/s1
