17
gdb 104497	2.95607	1.34516	1.08679	3.9857	70.1	-0.2548	-0.0386	0.2162	1112.8378	0.135121	-458.914785	-458.906596	-458.905652	-458.947649	30.658	
O	 0.1488622017	 1.3038323749	 0.3044062805	-0.423649
C	 0.0839947469	-0.0512202209	-0.0840067381	-0.154067
C	-1.3370929643	-0.5920570751	-0.0524179014	 0.162682
C	-2.3353065958	 0.18498829	-0.8207093249	 0.124544
O	-2.0928986638	 1.2122540421	-1.4176701477	-0.29408
C	-1.6932979213	-2.0887820252	-0.0187110913	-0.198076
C	-0.7118519599	-2.8297784813	 0.8841948626	-0.1116
O	-0.9528232269	-1.8903596512	 1.9688202848	-0.273502
C	-1.9482256617	-1.2433589285	 1.191475379	 0.077108
H	-0.3827153805	 1.7876664099	-0.3412475688	 0.296906
H	 0.4988892546	-0.2061794072	-1.0926604986	 0.094123
H	 0.7039353579	-0.605724192	 0.6238212327	 0.123699
H	-3.3673092226	-0.2341174873	-0.8217331665	 0.082021
H	-2.3681186014	-2.5403816379	-0.733387441	 0.115384
H	-1.0715216316	-3.825186937	 1.163426909	 0.12707
H	 0.3412465837	-2.8795483219	 0.5916143186	 0.125273
H	-2.8422455851	-0.8916213212	 1.6923667412	 0.126164
99.2872	122.8503	205.2408	216.8048	249.8546	298.8553	372.029	421.867	488.5954	563.9817	598.8904	738.3876	823.8797	843.7121	869.6096	927.6457	957.5281	984.507	1005.3037	1039.6241	1051.6801	1071.1552	1086.5678	1094.8865	1157.074	1163.0738	1249.4313	1251.689	1312.9877	1324.6366	1381.509	1386.4252	1442.9704	1459.3037	1491.6476	1514.8079	1787.612	2871.2307	2979.4243	3044.9568	3097.1277	3106.9479	3186.6007	3204.4969	3764.7694
OCC1(C=O)C2COC12	OC[C@@]1(C=O)[C@H]2CO[C@@H]12	
InChI=1S/C6H8O3/c7-2-6(3-8)4-1-9-5(4)6/h2,4-5,8H,1,3H2	InChI=1S/C6H8O3/c7-2-6(3-8)4-1-9-5(4)6/h2,4-5,8H,1,3H2/t4-,5+,6-/m0/s1
