16
gdb 32027	2.89617	1.36076	0.93301	6.6092	79.74	-0.1982	-0.0356	0.1626	1200.9968	0.126092	-434.120653	-434.112457	-434.111513	-434.153664	30.346	
C	 0.0155506845	 1.476384543	 0.0842975421	-0.350833
N	-0.0121259259	 0.0435851588	-0.1370007904	-0.361185
C	-1.1449260052	-0.7183076172	-0.0426695397	 0.457362
C	-1.1430351684	-2.1010427221	 0.0168678269	-0.144038
N	-2.2915254761	-2.8086243089	 0.0678721893	-0.20923
C	-3.4480657742	-2.2008845973	 0.0646916984	-0.132288
C	-3.6058529728	-0.7596594364	 0.0109832151	 0.374057
O	-4.6369354306	-0.1098401046	 0.006977562	-0.396729
N	-2.3553768018	-0.0951677187	-0.0369906187	-0.407309
H	 1.0486130444	 1.8183314981	 0.0073286252	 0.1488
H	-0.5571282889	 2.0063913171	-0.6859685026	 0.146897
H	-0.3706355861	 1.7684762848	 1.0714892681	 0.139258
H	 0.8430175854	-0.4565845183	 0.0401464296	 0.261147
H	-0.2069848161	-2.6481962372	 0.0191453395	 0.095173
H	-4.3565901529	-2.7935400144	 0.1071444015	 0.120422
H	-2.4262806251	 0.9121135032	-0.0766947164	 0.258495
78.1591	153.3483	180.0058	203.9012	221.4192	363.8552	442.3704	464.1613	490.3621	538.4047	601.5478	641.1365	706.8926	722.5775	762.0774	795.9566	891.8666	952.9631	1027.0589	1085.6674	1142.9218	1162.3767	1174.2472	1214.0903	1313.762	1345.879	1395.0451	1454.131	1469.9844	1488.9053	1514.9537	1527.8258	1585.934	1637.1419	1781.4952	2999.2212	3060.1656	3137.0203	3177.8186	3184.0546	3607.0498	3650.4327
CNC1=CN=CC(=O)N1	CNc1cncc(=O)[nH]1	
InChI=1S/C5H7N3O/c1-6-4-2-7-3-5(9)8-4/h2-3H,1H3,(H2,6,8,9)	InChI=1S/C5H7N3O/c1-6-4-2-7-3-5(9)8-4/h2-3H,1H3,(H2,6,8,9)
