13
gdb 19220	3.24384	2.07827	1.47506	2.0688	65.25	-0.245	-0.0321	0.2129	826.7906	0.094352	-361.390749	-361.383874	-361.382929	-361.421833	25.801	
O	-0.0954557874	 0.0213492041	-0.0733665236	-0.294716
C	-0.1066714172	 1.2062967058	 0.0585073734	 0.413492
C	-1.1334444779	 2.2816608588	-0.0765689473	-0.161518
C	-0.9490580797	 3.281432181	 1.0198359732	-0.236116
N	-0.0463589094	 3.3612574717	-0.1188366752	-0.111571
C	 1.0175387006	 2.30061765	 0.1304610296	-0.291547
C	 1.8414661918	 2.443351497	 1.3059146358	 0.356165
C	 2.512303601	 2.5443121148	 2.2988521901	-0.446883
H	-1.9979051413	 2.2775276036	-0.7299241077	 0.130617
H	-1.6788407235	 4.0843852429	 1.0530728167	 0.142342
H	-0.5614049808	 2.9700806331	 1.9857797614	 0.144438
H	 1.6283712234	 2.2108573484	-0.7744438085	 0.145802
H	 3.1153977703	 2.6346507387	 3.1686642121	 0.209495
123.8051	140.9069	201.3453	366.2628	385.0764	488.8305	547.9668	611.3828	625.2672	676.2377	714.7276	742.2287	812.5008	851.1389	948.0746	973.7853	1036.5708	1064.5478	1097.1871	1121.0426	1132.9987	1186.5573	1215.1073	1307.7681	1315.4264	1502.7182	1904.7067	2231.8572	3061.8097	3120.6215	3193.9311	3212.1915	3500.9785
O=C1C2CN2C1C#C	O=C1[C@H]2CN2[C@H]1C#C	
InChI=1S/C6H5NO/c1-2-4-6(8)5-3-7(4)5/h1,4-5H,3H2	InChI=1S/C6H5NO/c1-2-4-6(8)5-3-7(4)5/h1,4-5H,3H2/t4-,5+,7?/m0/s1
