16
gdb 106030	2.98841	1.62251	1.22695	2.7586	68.33	-0.2434	-0.015	0.2284	1002.9371	0.124546	-437.824675	-437.817158	-437.816214	-437.856851	28.68	
O	 0.1804505772	 1.1418643337	-0.6262224325	-0.418334
C	-0.0608750429	 0.142452448	 0.3457744579	-0.194829
C	-1.4289713762	-0.4479246393	 0.1800152617	 0.194498
C	-2.8009023923	-0.0440094495	 0.6866681007	-0.087867
C	-3.443541425	-1.010541947	-0.3870849066	-0.208649
C	-3.0853206787	-2.1314415926	 0.6009982095	-0.161263
N	-2.106975895	-1.1973118164	 1.2822326512	-0.181716
C	-2.1012805135	-0.7954476045	-1.1124082655	 0.401312
O	-1.7652479437	-0.6620460846	-2.2600366234	-0.357532
H	 0.01080115	 0.7481900674	-1.4916367442	 0.301426
H	 0.6858883077	-0.6662389527	 0.299481398	 0.105964
H	 0.034258347	 0.6118508429	 1.329464005	 0.127266
H	-3.1080216587	 0.8652018878	 1.1838502844	 0.130584
H	-4.3904578872	-0.9204857135	-0.9111001481	 0.104435
H	-3.8765562836	-2.3634038879	 1.3167378758	 0.126641
H	-2.6500862552	-3.0544857217	 0.2027414759	 0.118063
89.4951	144.0753	176.6111	248.3121	363.5483	433.4873	457.9217	489.0706	606.5845	679.5853	742.1669	780.6948	809.7718	842.0218	880.7714	902.4804	932.9754	983.2672	1013.6734	1017.7841	1056.7904	1084.6161	1137.9688	1144.472	1170.486	1191.0526	1219.11	1278.5269	1308.9675	1370.1696	1400.6503	1447.7505	1501.3168	1508.0217	1853.9128	2980.1277	3047.5758	3084.7107	3118.3822	3170.2334	3225.3768	3774.647
OCC12C3C(CN13)C2=O	OC[C@]12[C@H]3[C@H](CN13)C2=O	
InChI=1S/C6H7NO2/c8-2-6-4-3(5(6)9)1-7(4)6/h3-4,8H,1-2H2	InChI=1S/C6H7NO2/c8-2-6-4-3(5(6)9)1-7(4)6/h3-4,8H,1-2H2/t3-,4+,6+,7?/m0/s1
