20
gdb 99200	6.58617	0.5091	0.48124	3.5076	86.86	-0.2367	0.0319	0.2687	2291.4469	0.168239	-403.165712	-403.154169	-403.153224	-403.206014	37.913	
C	 0.0719452632	 1.4520673356	 0.062381445	-0.334339
N	-0.0794329139	 0.0114797767	 0.1225682876	-0.318796
C	-1.2489536981	-0.62133138	-0.1845381182	 0.424979
O	-2.2647493898	-0.0251098548	-0.499897374	-0.375016
C	-1.1810926358	-2.1464590232	-0.1265391493	-0.31074
C	-2.5646566666	-2.7624652959	 0.1479756609	-0.349409
C	-2.5519703414	-4.2193875255	 0.0889188764	 0.017805
C	-2.5176763902	-5.4219465601	 0.0342045941	 0.111529
C	-2.495204073	-6.8766508358	-0.0303689784	-0.497361
H	 0.3649846715	 1.8630499534	 1.0348380958	 0.12491
H	 0.8204228056	 1.7468923117	-0.6820223778	 0.124858
H	-0.8957035661	 1.8662918391	-0.2227003556	 0.172388
H	 0.7167493971	-0.5487909918	 0.3771718154	 0.24432
H	-0.8116553616	-2.5053096827	-1.0950376064	 0.137902
H	-0.4569588123	-2.4789222101	 0.6252491573	 0.108211
H	-2.9199089056	-2.4289683571	 1.1309385313	 0.130461
H	-3.2717287944	-2.3466669066	-0.5771280355	 0.153216
H	-2.8261800672	-7.3236681499	 0.9137982317	 0.145408
H	-3.1539432394	-7.2518871204	-0.8215900588	 0.146338
H	-1.4864982522	-7.2522201327	-0.2363298515	 0.143336
14.7499	33.2521	45.7086	72.6607	84.6188	146.6976	193.7277	217.9045	277.3812	305.8908	387.2042	407.2483	450.0152	504.3977	621.9178	688.7994	771.3851	800.5014	908.576	1011.2136	1030.7567	1054.367	1056.0168	1091.3689	1152.7192	1168.1263	1168.8124	1178.5184	1225.2092	1287.8501	1325.4356	1384.3138	1415.7219	1438.5	1463.1513	1478.7086	1479.3164	1480.1125	1493.4479	1500.5773	1560.5189	1775.8237	2373.9768	3023.9431	3026.0321	3029.8808	3039.0561	3068.1136	3077.3841	3082.8826	3083.7614	3087.1829	3154.1487	3648.6876
CNC(=O)CCC#CC	CNC(=O)CCC#CC	
InChI=1S/C7H11NO/c1-3-4-5-6-7(9)8-2/h5-6H2,1-2H3,(H,8,9)	InChI=1S/C7H11NO/c1-3-4-5-6-7(9)8-2/h5-6H2,1-2H3,(H,8,9)
