20
gdb 100433	3.466	0.87275	0.79594	1.3488	78.67	-0.2423	0.0303	0.2726	1510.2166	0.168772	-440.264684	-440.254642	-440.253697	-440.300472	35.335	
C	 0.0496029268	 1.283424458	 0.1454673092	-0.223804
O	-0.0697781788	-0.1056493001	-0.1562866971	-0.237883
C	 0.5455730654	-0.532393447	-1.2802943472	 0.417053
C	 0.34132392	-2.0177321818	-1.4672007213	-0.502165
N	 1.1892105128	 0.28510751	-2.0077415105	-0.311552
C	 1.8311642026	-0.1894540605	-3.2209272584	-0.19757
C	 0.9505399672	 0.0487586091	-4.4277595756	 0.106434
C	 1.0120297542	-0.8109912567	-5.6143384419	-0.182577
O	-0.0651431462	-0.9303603698	-4.6804645629	-0.228334
H	 1.0985184137	 1.5666456447	 0.2709519925	 0.130555
H	-0.3757795826	 1.8942580413	-0.6557038746	 0.131603
H	-0.502244111	 1.4313041713	 1.0750450681	 0.122113
H	-0.3987722642	-2.3833820794	-0.755435944	 0.139111
H	 0.0095374418	-2.2253369158	-2.4862871115	 0.169026
H	 1.2796043739	-2.5571558509	-1.2976381156	 0.139095
H	 2.7596245188	 0.3804242071	-3.3574772397	 0.105716
H	 2.1055151661	-1.2539432931	-3.1955761042	 0.093514
H	 0.607600584	 1.0765962101	-4.548358864	 0.100592
H	 0.7413898298	-0.4111496167	-6.5903678803	 0.116228
H	 1.7067433457	-1.6499496199	-5.635452861	 0.112843
55.7657	80.9115	111.7324	125.4293	175.4842	194.8824	233.3828	293.8828	331.5881	389.992	469.9297	506.3931	585.3641	646.6091	789.524	811.5002	862.989	946.3772	979.7943	987.3014	1062.2964	1078.9272	1094.0939	1114.0276	1140.7752	1157.8437	1173.2255	1180.2789	1220.568	1262.4979	1292.508	1315.1287	1346.7523	1400.2976	1441.1705	1469.8512	1474.8713	1486.0564	1486.7866	1499.448	1503.2131	1529.4473	1737.5063	2996.1141	3038.7656	3043.0163	3049.5338	3083.2924	3113.7497	3115.0894	3121.991	3145.133	3159.9577	3169.1029
COC(C)=NCC1CO1	COC(=NC[C@H]1CO1)C	
InChI=1S/C6H11NO2/c1-5(8-2)7-3-6-4-9-6/h6H,3-4H2,1-2H3	InChI=1S/C6H11NO2/c1-5(8-2)7-3-6-4-9-6/h6H,3-4H2,1-2H3/t6-/m0/s1
