12
gdb 21559	4.21403	1.91615	1.31799	4.1494	64.11	-0.2294	-0.0827	0.1467	844.6054	0.083857	-410.801075	-410.794274	-410.79333	-410.831947	25.661	
N	 0.0593029828	 1.3740744201	-0.1246482189	-0.562428
C	-0.0883368605	 0.019254935	-0.0489912833	 0.44144
C	-1.2440271977	-0.6802887705	-0.0231549711	-0.276067
C	-1.1965594976	-2.1161585659	-0.0039270897	 0.437321
N	-2.2120980037	-2.8754794261	 0.016326777	-0.541903
O	 0.0925427776	-2.6654223247	-0.0065487054	-0.282273
N	 1.2601787471	-1.8684800111	-0.015217063	 0.062033
N	 1.1600018385	-0.6397642037	-0.0386455487	-0.174416
H	 0.968655699	 1.734080202	 0.1176869485	 0.274059
H	-0.7280605875	 1.9561614749	 0.1076907982	 0.270493
H	-2.2190386214	-0.2107242902	-0.0207030822	 0.124267
H	-1.9344677366	-3.8569991097	 0.0289186987	 0.227474
124.7432	162.6226	322.3016	394.9956	414.213	432.1457	444.1338	525.2578	552.648	666.7508	744.1892	752.9599	794.1599	830.2649	868.2846	900.8053	974.4934	1072.8248	1115.4598	1276.9422	1314.1337	1394.6642	1603.2469	1633.2025	1706.1234	1754.1957	3219.9828	3494.9762	3599.1181	3718.9581
NC1=CC(=N)ON=N1	NC1=N[N]OC(=C1)[NH]	
InChI=1S/C3H4N4O/c4-2-1-3(5)8-7-6-2/h1,5H,4H2	InChI=1S/C3H4N4O/c4-2-1-3(5)8-7-6-2/h1,5H,4H2
