12
gdb 28141	5.54146	1.3801	1.10587	2.4125	63.3	-0.2042	-0.0086	0.1956	983.1775	0.080577	-468.82822	-468.82182	-468.820875	-468.858925	24.538	
N	 0.0518519652	 1.2970561284	 0.156801359	-0.584509
C	-0.0569864064	-0.0579569612	 0.0555366776	 0.442489
N	-1.1641501877	-0.7625552779	 0.0230075933	-0.429256
C	-0.6458602618	-2.0325170347	 0.0102254024	 0.321534
C	 0.6976355085	-2.0528411075	 0.0235281202	 0.286268
O	 1.1354067587	-0.7490479498	 0.0546988811	-0.229371
N	 1.2031573793	-3.3154408203	-0.0178098924	-0.347953
C	 0.1055796207	-4.0254260555	-0.0492002313	 0.02652
O	-1.0817150213	-3.3132043003	-0.0368799131	-0.196345
H	 0.902421219	 1.6950097397	-0.2118276293	 0.274509
H	-0.7903458375	 1.7939689568	-0.0903170973	 0.27984
H	 0.0099044933	-5.0973683876	-0.0800485904	 0.156273
142.5133	265.6604	308.6657	348.0138	364.6728	537.9699	561.4296	602.4229	638.9896	728.3076	736.9016	768.8242	784.4109	853.4756	919.5295	951.1537	1049.1474	1106.9406	1171.8744	1276.8213	1359.615	1442.697	1455.6315	1497.6447	1588.7851	1648.4359	1676.4065	3299.7258	3584.6166	3697.8733
NC1=NC2=C(O1)N=CO2	Nc1nc2c(o1)nco2	
InChI=1S/C4H3N3O2/c5-4-7-3-2(9-4)6-1-8-3/h1H,(H2,5,7)	InChI=1S/C4H3N3O2/c5-4-7-3-2(9-4)6-1-8-3/h1H,(H2,5,7)
