19
gdb 64880	4.21833	0.82687	0.77943	0.3037	77.77	-0.2501	-0.0451	0.205	1466.641	0.156364	-423.038066	-423.0286	-423.027656	-423.073151	33.986	
C	-0.1906022019	 1.6366434313	-0.000172163	-0.454769
C	-0.0036329008	 0.1247159168	 0.0162263033	 0.230056
C	 1.1702409945	-0.3865679603	-0.8862837747	-0.295731
C	 2.0975310416	-0.4705002767	 0.3630509015	-0.055783
C	 0.8128012273	-0.4077012073	 1.2425092726	-0.29572
C	 2.9394508392	-1.7092786737	 0.4923488412	 0.158377
O	 4.1259806185	-1.7283898461	 0.6924945334	-0.246591
C	-1.3056576188	-0.6073985071	-0.2098038527	 0.119954
O	-2.3772784249	-0.0882179791	-0.3852843387	-0.247356
H	 0.7605344992	 2.1519474393	 0.1641590973	 0.115628
H	-0.6003997485	 1.9647909731	-0.959478289	 0.133345
H	-0.8915108851	 1.9476758517	 0.7795002307	 0.133302
H	 0.965110838	-1.379613904	-1.3026624728	 0.11053
H	 1.4844599939	 0.2742535594	-1.6962459176	 0.125479
H	 2.7356154032	 0.406745999	 0.4789579359	 0.09977
H	 0.8432432576	 0.2363090932	 2.1232914019	 0.125484
H	 0.4861398045	-1.4079303689	 1.5497922245	 0.110533
H	 2.3593643062	-2.6589116137	 0.3846536624	 0.066222
H	-1.2033030038	-1.7199124366	-0.203156056	 0.067269
61.1542	62.3091	88.3928	223.1515	258.206	260.3702	293.2681	311.8745	370.2639	389.1761	407.1531	552.1377	713.7859	766.218	816.8089	878.0935	897.8041	910.509	939.3901	965.4489	1008.6368	1061.1907	1072.1677	1091.9148	1175.8054	1180.4067	1197.2999	1247.1976	1272.5532	1272.9367	1313.8726	1338.2926	1411.0907	1428.962	1432.7738	1465.8034	1484.814	1488.9662	1493.5758	1827.9324	1833.295	2830.5672	2838.2308	3039.1733	3042.3616	3044.7332	3102.0132	3115.0843	3115.9939	3120.335	3122.1677
CC1(CC(C1)C=O)C=O	C[C@]1(C[C@@H](C1)C=O)C=O	
InChI=1S/C7H10O2/c1-7(5-9)2-6(3-7)4-8/h4-6H,2-3H2,1H3	InChI=1S/C7H10O2/c1-7(5-9)2-6(3-7)4-8/h4-6H,2-3H2,1H3/t6-,7+
