18
gdb 26250	3.59236	1.0642	0.9854	2.4173	76.51	-0.2011	0.0308	0.2319	1277.8166	0.147915	-435.288336	-435.279193	-435.278249	-435.322523	33.36	
C	 0.1328811089	 0.841503782	 1.0368918176	-0.332445
N	-0.1054545773	 0.1537637707	-0.2309879439	-0.180342
C	 1.0866591565	-0.5006651685	-0.7683233464	-0.33246
C	-1.2705363563	-0.5819866968	-0.3010123016	 0.340449
C	-2.4331073804	-0.4613257245	-0.975527888	-0.159029
N	-3.3034576517	-1.5020135226	-0.6618130694	-0.345175
C	-2.624679029	-2.2170861656	 0.184774645	 0.460367
N	-3.0003725956	-3.410988686	 0.7521978779	-0.587164
O	-1.3951152639	-1.763134287	 0.4801367741	-0.228043
H	 0.9248369253	 1.5856813379	 0.9010254133	 0.118547
H	-0.7792738981	 1.3577777093	 1.3444895604	 0.129557
H	 0.439893563	 0.1595794782	 1.8469438264	 0.108221
H	 1.4744145003	-1.2968748418	-0.1121918777	 0.110315
H	 0.8506679254	-0.9372449054	-1.7413061024	 0.131481
H	 1.8775516663	 0.2447701192	-0.9036360448	 0.117813
H	-2.7057581507	 0.317315133	-1.6703398017	 0.118658
H	-3.9969925666	-3.5649222063	 0.704745162	 0.268249
H	-2.6093875259	-3.5861275257	 1.6662878193	 0.261001
50.41	126.0109	133.5087	213.5165	229.5962	271.212	308.262	348.9366	375.5986	458.8774	508.4999	598.6138	612.9759	691.5796	744.1428	775.3786	878.095	907.5739	938.92	1007.2604	1060.5792	1088.1068	1117.6924	1127.0663	1180.0751	1199.993	1229.7127	1253.0509	1349.0224	1438.0659	1443.556	1465.2383	1479.3061	1493.941	1500.6682	1516.9526	1597.4792	1669.9724	1698.8828	2970.5228	2976.2457	3064.6471	3065.5168	3121.5619	3124.1532	3262.3349	3572.7243	3681.2479
CN(C)C1=CN=C(N)O1	CN(C)c1cnc(N)o1	
InChI=1S/C5H9N3O/c1-8(2)4-3-7-5(6)9-4/h3H,1-2H3,(H2,6,7)	InChI=1S/C5H9N3O/c1-8(2)4-3-7-5(6)9-4/h3H,1-2H3,(H2,6,7)
