21
gdb 102753	2.06744	1.16559	0.82031	3.1013	80.99	-0.2448	0.0264	0.2712	1445.6194	0.182702	-420.402482	-420.392655	-420.391711	-420.438265	35.187	
C	 0.4071082798	 1.2508145644	 0.2861456771	-0.377597
C	 0.0292816545	-0.1759551929	-0.1276729306	-0.173456
N	 0.611503014	-0.5956022233	-1.3968320784	-0.040159
C	 2.035309951	-0.9051420513	-1.4830241481	-0.209497
C	 2.4340588975	-2.112408937	-0.66267875	 0.025803
C	 3.8415314901	-2.284211584	-0.2334039724	-0.245367
N	 2.7963438943	-1.9871721865	 0.763093349	-0.31709
C	-0.1583206515	-0.6966989062	-2.5203896736	 0.151728
O	 0.2330744332	-1.0181905091	-3.6231208994	-0.343864
H	 1.487117143	 1.3653075921	 0.4213012315	 0.119397
H	 0.0842036832	 1.9735879832	-0.4689882181	 0.129276
H	-0.0728737616	 1.5053243117	 1.2360983935	 0.125321
H	 0.3214709564	-0.8873074645	 0.6526508855	 0.137289
H	-1.0584944178	-0.250445743	-0.2278404365	 0.119658
H	 2.2335570393	-1.0848286514	-2.5428348666	 0.157466
H	 2.6331382236	-0.0366508663	-1.1718055445	 0.096873
H	 1.8513454557	-3.0057324306	-0.8774695253	 0.106438
H	 4.2731278131	-3.2782752136	-0.1669445632	 0.125383
H	 4.5508011025	-1.5009342027	-0.4908647256	 0.113569
H	 2.8515638716	-1.0030367218	 1.017907594	 0.225996
H	-1.2176233519	-0.4479761971	-2.3114757985	 0.072833
49.3282	68.1765	98.8159	136.6213	219.7326	227.5262	260.7081	330.3731	336.3139	415.8774	438.3868	520.8022	649.1118	787.7093	798.2562	828.4161	862.1603	934.3633	941.8847	976.6601	1006.3934	1031.5182	1058.5719	1090.6825	1122.8885	1126.956	1152.767	1179.8038	1243.5709	1258.2807	1281.0876	1298.2087	1321.5272	1361.4998	1400.0786	1413.6338	1431.1726	1438.2129	1455.74	1476.1634	1491.149	1495.7932	1508.8139	1513.9416	1791.2302	2934.8055	3006.6346	3041.0884	3044.9389	3080.9481	3105.4305	3108.489	3111.795	3119.4059	3135.6617	3194.8039	3481.8068
CCN(CC1CN1)C=O	CCN(C[C@H]1CN1)C=O	
InChI=1S/C6H12N2O/c1-2-8(5-9)4-6-3-7-6/h5-7H,2-4H2,1H3	InChI=1S/C6H12N2O/c1-2-8(5-9)4-6-3-7-6/h5-7H,2-4H2,1H3/t6-/m1/s1
