17
gdb 47524	2.61538	1.82603	1.33297	2.8211	67.56	-0.2376	-0.0316	0.206	965.0377	0.137447	-458.955484	-458.948314	-458.94737	-458.987129	28.046	
O	-0.0132359718	-0.0349484484	-0.2757340799	-0.299847
C	 0.0078274772	 1.1487509559	-0.0404794342	 0.378529
C	-1.2806786525	 1.9618541867	 0.1672515271	-0.17761
O	-1.2918769388	 3.1971797361	-0.5298831489	-0.250075
C	-0.5489864491	 4.2568992262	 0.048054123	-0.090183
C	 0.9432554748	 3.9630331889	 0.1434970984	 0.099195
C	 1.4883326418	 3.0440852647	-0.9714252393	-0.285119
C	 1.3119269352	 1.9318020252	 0.0934612446	 0.00145
O	 1.1858346679	 2.9279640784	 1.1366266415	-0.299311
H	-2.1125385838	 1.369215893	-0.2193478015	 0.133435
H	-1.4235779477	 2.1127355631	 1.2486910374	 0.123374
H	-0.7235762169	 5.123319008	-0.599197276	 0.114491
H	-0.922983312	 4.4933059105	 1.0569807513	 0.10764
H	 1.5013862703	 4.8773017454	 0.372737108	 0.087113
H	 0.906437583	 2.9682053126	-1.889419679	 0.132023
H	 2.5392341875	 3.2255095705	-1.1977459318	 0.12188
H	 2.1411387649	 1.2400828031	 0.2583396992	 0.103015
87.9327	219.9483	279.295	296.3175	348.8348	390.1457	445.8975	513.284	589.1348	651.3604	759.0226	800.9014	873.4782	896.835	926.1736	940.6322	996.3864	1003.2308	1021.2611	1068.0764	1094.3208	1099.007	1162.3802	1219.9375	1231.0105	1256.3975	1274.1541	1303.6015	1313.9341	1339.1488	1356.8604	1364.9479	1401.9561	1458.8793	1475.9675	1481.5191	1822.2655	2987.2004	2991.6745	3052.4744	3077.0892	3089.5103	3097.6891	3115.0041	3157.112
O=C1COCC2CC1O2	O=C1COC[C@@H]2C[C@H]1O2	
InChI=1S/C6H8O3/c7-5-3-8-2-4-1-6(5)9-4/h4,6H,1-3H2	InChI=1S/C6H8O3/c7-5-3-8-2-4-1-6(5)9-4/h4,6H,1-3H2/t4-,6+/m0/s1
