19
gdb 126718	4.21419	0.87466	0.78122	1.7993	79.56	-0.2318	0.0188	0.2506	1501.1433	0.160287	-419.226691	-419.21743	-419.216485	-419.262445	32.934	
C	-0.3485997785	 1.395525521	 0.1642587123	-0.372251
C	 0.1865186031	-0.0272661997	 0.0020653321	-0.141227
N	 0.8274867769	-0.5221335297	 1.2103883238	 0.064728
C	 0.3517312306	-1.4293893313	 2.0965632556	-0.118246
C	 1.2944626367	-1.5508453755	 3.1043367317	 0.127707
C	 1.2347431234	-2.4457768789	 4.3048292683	-0.171966
O	 0.7968939666	-3.7655019886	 3.9958360285	-0.414599
C	 2.3140687017	-0.6556235614	 2.7152960882	-0.084128
N	 2.0288243311	-0.031661848	 1.5742578058	-0.273863
H	 0.4640866775	 2.0732714357	 0.435453216	 0.149931
H	-0.7933970592	 1.7394850224	-0.7743813121	 0.119541
H	-1.1125328254	 1.4398025813	 0.9461185683	 0.125355
H	-0.6188029069	-0.7246429781	-0.2451432543	 0.11944
H	 0.9248519122	-0.0676803679	-0.8039791821	 0.132576
H	-0.5951701909	-1.9243038818	 1.948127958	 0.138736
H	 2.2169265613	-2.4519516779	 4.8030534049	 0.092539
H	 0.5113156182	-2.0767420799	 5.0411733226	 0.117815
H	 1.3542906854	-4.0855580574	 3.2784997435	 0.278585
H	 3.2460219261	-0.446781324	 3.2219694587	 0.109326
29.6246	44.3052	112.0123	162.3265	210.9342	257.7092	342.4097	382.1199	398.86	445.5746	625.9163	655.745	688.8276	754.0576	794.675	807.7518	880.1635	965.3897	979.6062	1011.6148	1026.9712	1059.0091	1095.8688	1116.4848	1181.5241	1194.6714	1229.0953	1274.3356	1345.5647	1361.3099	1385.815	1395.2947	1408.5027	1420.8808	1441.2928	1478.5896	1487.4216	1489.1759	1508.2204	1509.0208	1598.5097	2981.9624	3045.8118	3050.8239	3060.1763	3102.6083	3119.6292	3137.9211	3234.8733	3260.0572	3806.7472
CCN1C=C(CO)C=N1	CCn1cc(CO)cn1	
InChI=1S/C6H10N2O/c1-2-8-4-6(5-9)3-7-8/h3-4,9H,2,5H2,1H3	InChI=1S/C6H10N2O/c1-2-8-4-6(5-9)3-7-8/h3-4,9H,2,5H2,1H3
