16
gdb 71590	2.84204	1.82895	1.70206	1.8164	67.6	-0.243	0.0119	0.255	867.025	0.126574	-437.849997	-437.843366	-437.842422	-437.880686	26.961	
O	-0.0777758186	 1.3479599363	 0.005046151	-0.467809
C	 0.032095995	-0.0230210105	 0.0264628535	 0.349142
C	 0.630182115	-0.9635969043	 1.106768823	-0.299353
C	 0.0380130036	-1.9043397027	 0.0289733818	-0.124284
C	-1.1951698972	-0.9619089842	-0.0147657418	 0.102537
O	-1.9792740136	-0.95772636	-1.2032692624	-0.242971
C	-1.2348520206	-0.9503251129	-2.3312696975	 0.124096
N	 0.0314854318	-0.9628818725	-2.3745173503	-0.291799
C	 0.6518117723	-0.9707991804	-1.0680059634	-0.039834
H	 0.7770507343	 1.7262096499	-0.228104446	 0.290264
H	 1.7192081124	-0.9688859757	 1.1948034336	 0.100454
H	 0.1422363494	-0.9632794109	 2.0848059758	 0.102488
H	 0.0310874514	-2.9900563534	 0.0192122455	 0.0949
H	-1.8894749713	-0.957157602	 0.8251257359	 0.096453
H	-1.8554519421	-0.9359306328	-3.2229669776	 0.131352
H	 1.7412124282	-0.9756448839	-1.1448804011	 0.074364
188.7519	224.1068	248.3865	376.7351	422.5972	458.3766	566.1864	581.9528	616.1988	711.6287	791.9088	807.294	832.5423	902.7735	943.7677	957.592	976.1081	1001.4449	1038.9124	1068.1603	1083.9915	1105.3948	1107.4251	1129.634	1175.0171	1199.8877	1209.3165	1229.2629	1299.1223	1339.3983	1363.3189	1391.1105	1429.3492	1519.0598	1706.4901	3058.863	3087.0583	3123.9959	3126.6492	3167.65	3183.7047	3808.3436
OC12CC3C1OC=NC23	O[C@@]12C[C@H]3[C@@H]1O[CH][N][C@@H]23	
InChI=1S/C6H7NO2/c8-6-1-3-4(6)7-2-9-5(3)6/h2-5,8H,1H2	InChI=1S/C6H7NO2/c8-6-1-3-4(6)7-2-9-5(3)6/h2-5,8H,1H2/t3-,4-,5+,6-/m1/s1
