16
gdb 20599	3.33915	1.98905	1.2667	1.6995	68.	-0.1963	0.0395	0.2358	936.4765	0.132324	-376.121788	-376.113311	-376.112366	-376.154296	30.905	
C	-0.0459846994	 1.511357654	 0.1305639293	-0.510308
C	-0.0044187322	 0.0290056263	-0.0168529518	 0.380151
C	-0.0159564922	-0.7508709345	-1.1608704364	-0.002322
N	-0.1040598485	-0.2681611824	-2.4957039422	-0.622444
C	 0.0255786196	-2.0909949139	-0.6854954474	 0.313386
N	-0.0549888765	-3.2458058316	-1.471034417	-0.593129
N	 0.0651897621	-2.1469358945	 0.6391411304	-0.31432
N	 0.045739528	-0.83948339	 1.021433694	-0.280948
H	 0.9140927458	 1.9241820634	 0.4634319546	 0.12947
H	-0.2840989218	 1.9515336154	-0.8405483344	 0.155651
H	-0.8086645888	 1.827223102	 0.8510652116	 0.127231
H	 0.7934259211	-0.2801457458	-2.9715088357	 0.231921
H	-0.7386109985	-0.8409647514	-3.0434867592	 0.238823
H	 0.5726387546	-3.2186188081	-2.2655259972	 0.235044
H	 0.127973363	-4.0741709363	-0.9175914861	 0.248198
H	 0.0669677539	-0.6242977525	 2.0022503776	 0.263596
99.1215	157.4647	179.6903	241.6408	248.4173	267.3663	319.4327	327.8495	419.6845	519.4859	589.2248	659.6583	706.8205	726.1919	775.453	817.0242	839.4328	995.7342	1048.8479	1063.3728	1103.0078	1200.39	1222.301	1276.3185	1321.1549	1408.3803	1451.903	1485.2446	1490.375	1532.5403	1546.4434	1623.9833	1646.2827	1675.3018	3025.1902	3076.3718	3128.1283	3483.6564	3523.7702	3554.193	3618.3999	3688.4665
CC1=C(N)C(N)=NN1	Cc1c(N)c(N)n[nH]1	
InChI=1S/C4H8N4/c1-2-3(5)4(6)8-7-2/h5H2,1H3,(H3,6,7,8)	InChI=1S/C4H8N4/c1-2-3(5)4(6)8-7-2/h5H2,1H3,(H3,6,7,8)
