18
gdb 53839	3.91493	0.84769	0.74414	1.2395	73.02	-0.2386	-0.0611	0.1774	1523.6755	0.146224	-439.123914	-439.114414	-439.11347	-439.159582	34.137	
N	-0.0139097181	 1.2680312816	-0.176432517	-0.517873
C	 0.0604522284	-0.0669864354	 0.0141618939	 0.329504
O	 1.0787228506	-0.7143698614	 0.1690123734	-0.351218
C	-1.338685725	-0.7338312212	 0.0189512824	 0.29313
O	-2.3287188031	-0.0622009911	-0.1668704126	-0.310031
C	-1.3490757619	-2.2203816712	 0.2874719635	-0.324662
C	-2.6992150591	-2.8624333435	 0.0860926458	 0.036769
C	-3.0665493066	-3.4526512731	-1.2518042074	-0.252604
C	-2.8054852989	-4.3569471989	-0.0720415545	-0.284596
H	 0.8255519388	 1.8203219941	-0.2144735906	 0.268761
H	-0.9200181409	 1.6876974839	-0.3087359386	 0.278804
H	-0.5704077543	-2.683570103	-0.329734497	 0.142344
H	-0.9839305967	-2.3521193891	 1.3177090576	 0.14221
H	-3.50562544	-2.3734831775	 0.622980512	 0.09735
H	-4.0862172228	-3.3380957642	-1.6013562714	 0.115915
H	-2.3219911715	-3.4247593108	-2.0410269415	 0.110455
H	-1.8871711722	-4.9353859734	-0.0704877257	 0.112318
H	-3.6472688968	-4.8633379856	 0.3869745877	 0.113422
41.1227	57.4743	87.3745	127.9971	248.3993	309.9443	317.6396	363.198	388.7827	416.3351	523.3913	608.22	634.3372	717.0067	774.5233	790.6322	817.3379	853.2318	898.6103	963.3271	998.9503	1059.7039	1061.5437	1081.4091	1099.4837	1132.586	1150.9455	1197.3743	1225.57	1243.1363	1319.8103	1375.4847	1421.3668	1434.8563	1472.1252	1509.2503	1586.4877	1796.0473	1808.6851	3009.6273	3068.7611	3129.5446	3134.6188	3162.6801	3208.115	3223.5771	3596.07	3738.0604
NC(=O)C(=O)CC1CC1	NC(=O)C(=O)CC1CC1	
InChI=1S/C6H9NO2/c7-6(9)5(8)3-4-1-2-4/h4H,1-3H2,(H2,7,9)	InChI=1S/C6H9NO2/c7-6(9)5(8)3-4-1-2-4/h4H,1-3H2,(H2,7,9)
