20
gdb 8176	2.66006	2.49861	1.70986	1.2304	74.31	-0.2577	0.0793	0.337	856.7096	0.178461	-349.001871	-348.994377	-348.993433	-349.032915	30.394	
C	-0.0599309861	 1.5105203397	 0.0433388415	-0.506725
C	 0.0172095482	 0.0017927769	 0.0433804181	 0.353607
C	 0.9621577761	-0.8035954279	-0.9024612929	-0.267887
C	 0.7197573519	-1.9392534306	 0.1319382904	-0.017753
C	 0.672364192	-0.8150967432	 1.2035486961	-0.255453
C	-0.7749713467	-2.2359038053	-0.0880510468	-0.254658
C	-1.3063037694	-0.765164813	-0.1477345874	 0.10808
O	-2.2000751067	-0.4201784654	 0.9007757578	-0.446514
H	 0.9207874737	 1.9604024293	 0.2295121552	 0.106961
H	-0.4229975689	 1.8870749604	-0.920778957	 0.108577
H	-0.750611176	 1.859389344	 0.8170466611	 0.133046
H	 0.6449559638	-0.9677655293	-1.9383266299	 0.081773
H	 1.9843205216	-0.4171634316	-0.881692199	 0.093651
H	 1.3939110465	-2.7917308336	 0.219716167	 0.055882
H	 1.6649787464	-0.4350734246	 1.4584170319	 0.08825
H	 0.0792222938	-0.9780087823	 2.1062598266	 0.100153
H	-0.9644879401	-2.7962336378	-1.009077761	 0.089365
H	-1.2291322247	-2.7763605824	 0.7484859138	 0.092373
H	-1.7595103137	-0.5287225732	-1.1221439566	 0.056079
H	-3.0050076018	-0.9349142103	 0.790460571	 0.281193
166.9616	213.6917	239.7013	261.5934	308.3889	368.2733	442.6949	479.1797	539.7989	600.6384	685.2598	816.8229	828.993	858.4725	874.392	902.2578	939.1687	948.7611	978.7804	1014.1022	1025.0908	1061.5488	1077.2807	1094.3638	1135.302	1161.5093	1187.5713	1204.9965	1233.5073	1262.407	1267.5199	1272.4939	1292.9832	1317.8465	1358.2343	1409.1795	1426.2755	1483.8511	1486.2169	1490.2658	1497.4197	1523.9057	2981.0155	3025.2545	3037.8146	3044.2255	3061.7013	3087.0802	3091.2104	3103.7603	3107.9354	3109.2806	3122.7077	3825.6265
CC12CC(C1)CC2O	C[C@@]12C[C@@H](C1)C[C@H]2O	
InChI=1S/C7H12O/c1-7-3-5(4-7)2-6(7)8/h5-6,8H,2-4H2,1H3	InChI=1S/C7H12O/c1-7-3-5(4-7)2-6(7)8/h5-6,8H,2-4H2,1H3/t5-,6-,7+/m1/s1
