25
gdb 57485	2.75374	1.12194	1.0036	1.5514	87.52	-0.2451	0.0686	0.3137	1353.0656	0.228919	-389.504683	-389.494587	-389.493643	-389.53975	38.702	
C	 0.0243865582	 1.5954076584	 0.1007476615	-0.413725
C	 0.0006914572	 0.0562864777	 0.02374769	 0.232611
C	 0.8027727537	-0.5138396599	 1.2112158085	-0.405898
C	-1.4585678763	-0.4254444749	 0.1407965158	-0.402856
C	 0.6055804658	-0.4943303527	-1.2973806485	 0.03885
C	-0.0455565294	-0.0097622692	-2.6277715286	-0.268823
C	 1.1592847597	 0.3976193982	-3.5026294737	-0.076526
O	 2.2897587393	-0.2501226345	-2.9399286789	-0.242789
C	 2.1055593104	-0.2001064621	-1.535613391	-0.119974
H	 1.0411672148	 1.9971873839	 0.0595356356	 0.113831
H	-0.551928833	 2.0577418271	-0.7065313167	 0.111954
H	-0.4184460016	 1.928361882	 1.0456262245	 0.11165
H	 0.3585760743	-0.2038040311	 2.163379093	 0.108144
H	 0.8156383914	-1.6093206325	 1.1910129177	 0.10884
H	 1.8408492126	-0.16572582	 1.2044006574	 0.114402
H	-2.0784982995	-0.0370413663	-0.6735843553	 0.112069
H	-1.5165147753	-1.519314085	 0.1130511583	 0.10784
H	-1.9035435107	-0.0915794018	 1.0846275152	 0.107278
H	 0.4977592313	-1.5843183262	-1.2521631169	 0.07314
H	-0.6163077504	-0.8164138853	-3.0937183775	 0.105909
H	-0.7312944781	 0.8285026735	-2.4839846255	 0.101087
H	 1.0768390677	 0.0833342964	-4.5462997581	 0.105335
H	 1.2972321757	 1.4914596548	-3.4838807184	 0.084883
H	 2.3842735651	 0.7937517441	-1.1481794816	 0.08559
H	 2.7725862873	-0.9396914146	-1.0864822167	 0.107178
36.1733	91.126	201.9093	211.8843	245.3198	258.344	278.1885	301.9625	322.2241	351.0404	380.8275	447.3011	503.387	587.4506	668.5341	756.9662	830.5409	875.0549	932.8007	934.3536	948.3979	958.7186	970.6777	979.1048	1014.0233	1023.1759	1047.8224	1094.4748	1100.5447	1134.4971	1203.5156	1235.2985	1238.2481	1245.1041	1273.8504	1279.9875	1310.8937	1329.0116	1348.7511	1374.0109	1399.3175	1402.2502	1408.2037	1434.0134	1480.4113	1484.4028	1486.6052	1497.05	1505.9465	1508.888	1515.2778	1517.7393	1524.7392	2962.4676	2970.6515	3022.9048	3024.7873	3027.9888	3036.9312	3066.7898	3088.1026	3088.9092	3092.4244	3094.8583	3097.2782	3098.7445	3101.0566	3107.0289	3112.3773
CC(C)(C)C1CCOC1	CC(C)(C)[C@H]1CCOC1	
InChI=1S/C8H16O/c1-8(2,3)7-4-5-9-6-7/h7H,4-6H2,1-3H3	InChI=1S/C8H16O/c1-8(2,3)7-4-5-9-6-7/h7H,4-6H2,1-3H3/t7-/m0/s1
