17
gdb 18739	3.11776	2.2064	1.57442	2.6913	68.82	-0.2578	0.0248	0.2826	849.9466	0.143016	-363.851244	-363.844092	-363.843147	-363.882647	27.43	
C	-0.5055518855	 1.4747089892	 0.0554259201	-0.403205
C	 0.0168753428	 0.0477972008	-0.0027288386	 0.022233
C	 1.3257148933	-0.2492677442	-0.8108886756	-0.263696
C	 1.9482586267	-0.8912982134	 0.4437466027	 0.107807
O	 2.7099343111	 0.0786653827	 1.2312227115	-0.270503
C	 1.6060775619	 0.3611392648	 2.0206819391	 0.439628
N	 1.4895021144	 1.1319926534	 3.0033598587	-0.550397
C	 0.6793120281	-0.5722158301	 1.2789238045	-0.184167
H	 0.2647424577	 2.1702744436	 0.4015233266	 0.131888
H	-0.8385375337	 1.8020782678	-0.9354928695	 0.114549
H	-1.3550800399	 1.5568927949	 0.7411572852	 0.126039
H	-0.78078758	-0.6230415445	-0.3348029352	 0.084666
H	 1.1861183519	-0.9378880457	-1.6474906593	 0.108718
H	 1.8785728279	 0.6260867946	-1.1600580528	 0.117036
H	 2.4600769094	-1.8513915199	 0.3925616975	 0.093932
H	 2.3720318432	 1.603250899	 3.2111674644	 0.226484
H	 0.1047662306	-1.2817749229	 1.8706464807	 0.098987
92.8281	143.8361	213.054	312.9886	371.7946	407.8947	452.6493	603.5819	687.425	748.4195	808.5014	847.5872	866.9551	872.9738	908.2772	933.7547	967.6002	982.8019	1012.0946	1074.4434	1097.5922	1123.0734	1158.4386	1193.7098	1201.1637	1233.9425	1252.2391	1272.8286	1314.863	1336.4382	1365.4082	1417.5529	1469.5635	1492.2249	1493.8447	1815.8195	3034.0373	3056.6028	3067.1921	3100.3977	3111.5362	3119.5685	3126.958	3141.0008	3471.1899
CC1CC2OC(=N)C12	C[C@H]1C[C@H]2O[C]([NH])[C@@H]12	
InChI=1S/C6H9NO/c1-3-2-4-5(3)6(7)8-4/h3-5,7H,2H2,1H3	InChI=1S/C6H9NO/c1-3-2-4-5(3)6(7)8-4/h3-5,7H,2H2,1H3/t3-,4+,5-/m0/s1
