18
gdb 35237	3.27597	1.16713	0.99903	2.9632	76.49	-0.2642	0.0226	0.2868	1199.8935	0.149046	-401.954473	-401.946355	-401.94541	-401.988029	30.281	
N	-0.0522275426	-1.1344134248	-0.0875235931	-0.344226
C	-0.0339146238	 0.0218349027	-0.0362883543	 0.292414
C	 0.0187577009	 1.4542035204	 0.0178820724	-0.224094
C	 0.5338273324	 2.1487884515	 1.2727893769	-0.336898
C	 1.3671942378	 2.1711703658	 0.0335992933	 0.310921
C	 2.692287119	 1.4184310324	-0.0815643319	-0.313734
C	 3.3384344699	 2.1098349527	-1.2901426691	-0.082838
O	 2.9069913321	 3.4631672086	-1.2048681359	-0.243718
C	 1.5442978206	 3.4401824743	-0.819639193	-0.142171
H	-0.7866681356	 1.9473436717	-0.5183747662	 0.131238
H	 0.0122619046	 3.0519472342	 1.5725522327	 0.129425
H	 0.851879041	 1.5140067559	 2.0927263448	 0.140789
H	 3.2987096594	 1.5835715052	 0.8144827545	 0.117564
H	 2.5638594334	 0.3419763833	-0.2169693573	 0.135479
H	 4.4303486967	 2.1045507205	-1.2743785878	 0.117275
H	 2.9983351196	 1.6500394723	-2.2320953586	 0.099155
H	 0.8877082752	 3.406340396	-1.7043835321	 0.097806
H	 1.3332418895	 4.3623286374	-0.2688519354	 0.115614
37.9461	131.1754	136.9805	249.3597	306.8456	323.4751	391.8366	472.2103	548.0614	588.3008	668.8654	760.1244	795.6178	858.6287	875.2589	925.6738	952.378	964.6309	987.7188	1041.4462	1059.5921	1086.6922	1108.4321	1120.4075	1132.8427	1202.0867	1223.2148	1251.5507	1271.7988	1295.5056	1325.3137	1358.6427	1395.4181	1415.9724	1485.7688	1487.8971	1510.6598	1523.3755	2349.1117	2967.4136	2979.324	3055.786	3070.2572	3106.6627	3114.9708	3131.369	3154.3833	3222.5316
N#CC1CC11CCOC1	N#C[C@H]1C[C@]21CCOC2	
InChI=1S/C7H9NO/c8-4-6-3-7(6)1-2-9-5-7/h6H,1-3,5H2	InChI=1S/C7H9NO/c8-4-6-3-7(6)1-2-9-5-7/h6H,1-3,5H2/t6-,7-/m1/s1
