21
gdb 117559	2.82996	0.91409	0.76153	3.2011	82.96	-0.2554	0.0251	0.2806	1572.3795	0.182423	-383.265016	-383.255015	-383.254071	-383.300713	35.75	
C	-0.0540910425	 1.60697868	-0.1184914553	-0.383346
C	-0.0357868801	 0.0777617232	-0.0478782897	-0.187485
C	 0.6911620188	-0.5559318975	-1.2374518139	-0.167436
C	 0.7604112623	-2.1022802063	-1.1867296745	-0.176129
C	-0.5853014512	-2.6848289477	-1.2066436996	 0.279219
N	-1.6470867577	-3.1401496415	-1.2567579959	-0.343127
C	 1.6207734405	-2.6638341153	-2.3202411469	 0.012669
C	 1.4622811072	-4.0415785331	-2.8408185386	-0.258004
N	 1.0887657987	-2.8781628912	-3.669431976	-0.316846
H	 0.9617692785	 2.0171998921	-0.130845176	 0.116261
H	-0.5629926097	 1.9550939602	-1.0238117934	 0.121323
H	-0.5761235126	 2.0352443946	 0.7421275866	 0.119689
H	 0.4490770806	-0.2422393633	 0.8841096417	 0.09845
H	-1.0635459436	-0.3017677993	-0.0045435444	 0.124165
H	 0.2141388448	-0.2536910437	-2.177208631	 0.119345
H	 1.7235579875	-0.1881369637	-1.2801361917	 0.107022
H	 1.2242713457	-2.3938500847	-0.2337758989	 0.130372
H	 2.618473007	-2.2284464959	-2.3148599827	 0.102098
H	 2.3331628695	-4.5911441066	-3.1856734081	 0.122851
H	 0.6659304616	-4.654899432	-2.4286913078	 0.135569
H	 0.0747524448	-2.7791420283	-3.6679873637	 0.243342
63.8657	85.8605	96.0323	132.3551	156.4434	220.6516	251.0926	288.7288	325.9235	404.6798	433.1432	590.112	638.3454	746.3668	776.4237	827.4819	854.8264	902.7119	918.1327	955.8493	979.6745	1021.1162	1045.5489	1067.8207	1115.2618	1124.5025	1146.9595	1154.4271	1192.9433	1244.837	1263.9292	1278.9423	1312.1272	1327.953	1334.5544	1352.3639	1392.8921	1412.9222	1415.9903	1483.2302	1493.7454	1501.0085	1510.6237	1513.7231	2350.4716	3014.1779	3019.0603	3030.874	3034.5077	3055.9668	3079.3257	3101.2404	3108.6866	3115.5249	3122.7506	3203.4092	3482.2185
CCCC(C#N)C1CN1	CCC[C@@H](C#N)[C@H]1CN1	
InChI=1S/C7H12N2/c1-2-3-6(4-8)7-5-9-7/h6-7,9H,2-3,5H2,1H3	InChI=1S/C7H12N2/c1-2-3-6(4-8)7-5-9-7/h6-7,9H,2-3,5H2,1H3/t6-,7+/m0/s1
