16
gdb 9063	5.65214	0.86679	0.78632	2.9593	66.59	-0.2584	-0.0403	0.2181	1370.0051	0.128441	-379.927626	-379.918501	-379.917556	-379.96254	30.786	
C	 0.1946046136	 1.3973747786	 0.1250102229	-0.3996
C	 0.0035344154	-0.1189185025	 0.0274866132	-0.047861
N	-1.3732989135	-0.613369032	 0.0628377519	-0.307929
C	-2.0238867229	-0.5185619581	 1.3653826016	-0.268684
C	-3.3669562847	-1.1050376373	 1.3183327786	 0.261739
N	-4.4338876771	-1.5449967363	 1.2777191677	-0.291878
C	 0.6662661915	-0.7040310234	-1.221087668	 0.150292
O	 1.4630279227	-0.1194616314	-1.905833425	-0.235207
H	 1.2529693011	 1.6508157838	 0.0312993332	 0.147212
H	-0.3370916824	 1.9043063451	-0.6868837509	 0.126963
H	-0.1733955707	 1.7870240965	 1.0780835612	 0.11735
H	 0.5261075316	-0.6069119178	 0.8672155792	 0.113039
H	-1.9364945838	-0.1373331611	-0.6354477459	 0.236425
H	-1.4284646608	-1.0819473898	 2.0943590175	 0.159703
H	-2.12021977	 0.5061552101	 1.7624175559	 0.141211
H	 0.33977917	-1.7432626244	-1.4425361131	 0.097224
54.8371	65.3207	93.2783	139.1779	202.2907	262.4837	282.1005	381.9225	384.0196	415.6903	539.3433	648.179	760.7631	824.1235	914.5095	944.1199	950.4815	999.2932	1087.8673	1124.8094	1151.9823	1174.694	1248.1647	1312.1482	1324.8754	1382.7564	1401.0029	1412.2928	1485.9548	1487.1665	1493.2046	1508.6851	1837.0961	2369.5533	2907.3797	2964.3503	2982.5709	3044.8036	3052.766	3113.7135	3133.1602	3516.3357
CC(NCC#N)C=O	C[C@@H](NCC#N)C=O	
InChI=1S/C5H8N2O/c1-5(4-8)7-3-2-6/h4-5,7H,3H2,1H3	InChI=1S/C5H8N2O/c1-5(4-8)7-3-2-6/h4-5,7H,3H2,1H3/t5-/m1/s1
