17
gdb 131613	4.12663	0.97629	0.86375	4.8427	70.21	-0.2425	0.0083	0.2508	1316.2558	0.137703	-455.157296	-455.148844	-455.1479	-455.191165	31.312	
O	 0.0374217548	 1.418239213	 0.0442003483	-0.4245
C	-0.047185621	 0.0437012321	 0.3412525444	-0.053344
C	-1.4151877237	-0.5151442652	-0.0928205687	-0.006859
O	-1.6302175039	-0.1567911524	-1.4531974856	-0.447549
C	-1.4983664289	-2.0011768295	 0.1080325072	 0.347398
N	-1.3336460616	-2.7999003378	-0.9442314182	-0.315886
N	-1.4125497247	-4.0475188343	-0.4457751277	-0.186128
C	-1.6212939598	-4.0651603332	 0.8916366724	-0.007699
C	-1.6820183963	-2.7482699438	 1.2942317652	-0.303111
H	-0.2972224195	 1.4977472656	-0.8591110733	 0.288056
H	 0.741463003	-0.5373505986	-0.1663392821	 0.081565
H	 0.0909170996	-0.0729309523	 1.4218723047	 0.101483
H	-2.1916093797	-0.009989257	 0.4955697488	 0.094414
H	-1.4074687817	-0.935425437	-1.9813765205	 0.298216
H	-1.333677777	-4.8312498712	-1.071098486	 0.27947
H	-1.7132332609	-4.9902950763	 1.4383936315	 0.142135
H	-1.8423957988	-2.379885592	 2.2942907197	 0.112341
41.9047	116.6122	125.9441	242.476	293.7013	352.1715	367.1416	433.1818	502.5798	526.9906	534.584	658.1051	720.9715	773.9566	803.3288	848.857	886.8601	949.0581	1004.9172	1072.6682	1076.5437	1081.5301	1098.3788	1117.5659	1213.1095	1218.9007	1241.8228	1310.2494	1320.0517	1382.8861	1409.0359	1427.5167	1438.764	1485.3213	1500.1592	1500.8332	1571.2862	2962.8782	3032.3131	3070.303	3258.7329	3277.2894	3677.6686	3751.6353	3763.7804
OCC(O)C1=NNC=C1	OC[C@@H](O)c1n[nH]cc1	
InChI=1S/C5H8N2O2/c8-3-5(9)4-1-2-6-7-4/h1-2,5,8-9H,3H2,(H,6,7)	InChI=1S/C5H8N2O2/c8-3-5(9)4-1-2-6-7-4/h1-2,5,8-9H,3H2,(H,6,7)/t5-/m1/s1
