15
gdb 42317	3.68161	1.17033	1.08854	1.5721	68.74	-0.2485	-0.0703	0.1781	1127.0378	0.111246	-457.726452	-457.71794	-457.716995	-457.760916	29.623	
O	-0.203170069	 0.9651701672	-1.6110845699	-0.296867
C	-0.0566023655	 1.6148714964	-0.599333341	 0.234126
C	 1.2394696745	 2.0185521058	-0.0959919264	 0.264639
C	 2.2921344154	 2.3623123903	 0.3768228635	-0.404679
C	-1.272815308	 2.1524439746	 0.2013475484	 0.085828
O	-1.6179489221	 3.4020300002	-0.3565402743	-0.253385
C	-2.4871484317	 3.1008825751	-1.4522299022	-0.11567
C	-3.1388493841	 1.7579338773	-1.0537026509	-0.094407
O	-2.3795707203	 1.3164557709	 0.0770420706	-0.241271
H	 3.2320017822	 2.6605794136	 0.7747040906	 0.220028
H	-1.0235949591	 2.2931410949	 1.2579028706	 0.11056
H	-3.1994309105	 3.9236141103	-1.5422714889	 0.123345
H	-1.9192072952	 3.0074702345	-2.3846111127	 0.124379
H	-4.1799477937	 1.8711365666	-0.7360882381	 0.114345
H	-3.079531633	 1.0214406624	-1.8592208494	 0.12903
32.5399	92.6271	130.547	150.3279	221.5587	275.9476	320.11	444.001	611.1989	650.7785	707.5505	714.9724	754.6279	770.8437	852.3024	910.3143	952.9876	963.8985	987.9427	1059.698	1076.0096	1156.8844	1184.5554	1229.5242	1242.6172	1312.3196	1365.7746	1375.616	1394.7996	1512.9956	1526.4785	1771.1014	2208.5612	3042.2183	3050.8836	3070.6444	3096.2607	3116.4789	3492.6912
O=C(C#C)C1OCCO1	O=C(C#C)C1OCCO1	
InChI=1S/C6H6O3/c1-2-5(7)6-8-3-4-9-6/h1,6H,3-4H2	InChI=1S/C6H6O3/c1-2-5(7)6-8-3-4-9-6/h1,6H,3-4H2
