20
gdb 93969	2.90558	1.18776	0.88125	5.4578	87.02	-0.2098	-0.0278	0.1819	1326.5476	0.171211	-403.193638	-403.184367	-403.183423	-403.22744	34.973	
C	-0.1048136915	 1.5655595867	 0.0003200992	-0.419374
C	 0.0386517439	 0.0401636928	 0.0274876175	-0.043046
C	 0.79865604	-0.5479578799	-1.1841420176	-0.22472
C	 1.4742114105	-1.8335161953	-0.660688713	-0.308797
C	 1.6230987358	-1.559166831	 0.8202470374	 0.140002
C	 2.4848250119	-2.3318847441	 1.6769681041	 0.04765
O	 3.1672721775	-3.2760908728	 1.3185367156	-0.303346
C	 0.8215306145	-0.522392339	 1.2038270097	 0.278316
N	 0.5870797584	-0.0406044276	 2.4570323972	-0.592226
H	 0.874822463	 2.0553711672	 0.0186024792	 0.124314
H	-0.6180864938	 1.8795829887	-0.9136226353	 0.128852
H	-0.6970523074	 1.9466837196	 0.8406894922	 0.109605
H	-0.9712546281	-0.3961516834	 0.0764952094	 0.098783
H	 0.142255536	-0.7174763988	-2.0418161842	 0.098039
H	 1.5672731971	 0.1687814967	-1.4967143472	 0.10222
H	 0.8464848438	-2.717692443	-0.8370508974	 0.105691
H	 2.4343166042	-2.0382813134	-1.1422987107	 0.116916
H	 2.5164691165	-2.0048171944	 2.7465630762	 0.018916
H	 1.1874940972	-0.3311935998	 3.2117839822	 0.26363
H	 0.2233867006	 0.8939182409	 2.5432680555	 0.258576
78.7803	137.2204	180.0834	189.7448	229.543	284.9737	327.3274	350.7022	371.3487	408.2626	476.4627	525.6371	576.3762	648.2103	682.6346	766.4237	825.9354	897.6824	918.7129	965.5679	996.448	1014.7725	1058.2665	1103.6127	1111.9407	1166.6914	1198.6082	1229.619	1261.9282	1303.3715	1311.8871	1327.0891	1353.238	1404.1943	1419.1744	1456.5861	1489.4925	1496.0927	1504.1877	1507.1826	1629.2557	1683.309	1753.0155	2797.0633	2984.565	3012.9706	3025.2251	3038.1149	3083.6095	3088.1328	3096.4526	3106.9533	3595.1977	3702.9406
CC1CCC(C=O)=C1N	C[C@H]1CCC(=C1N)C=O	
InChI=1S/C7H11NO/c1-5-2-3-6(4-9)7(5)8/h4-5H,2-3,8H2,1H3	InChI=1S/C7H11NO/c1-5-2-3-6(4-9)7(5)8/h4-5H,2-3,8H2,1H3/t5-/m0/s1
