18
gdb 53032	5.36346	0.90306	0.85423	1.6221	87.7	-0.2277	0.0316	0.2593	1413.1339	0.147925	-364.734051	-364.725779	-364.724835	-364.768463	30.622	
C	-0.0201121275	 1.4233671931	-0.0466069236	-0.51263
C	-0.0088895575	-0.0301052518	 0.0082486942	 0.309697
C	-0.0030559515	-1.2350266535	 0.0455440528	-0.251832
C	 0.0276126675	-2.6562315227	 0.1185050949	 0.214259
C	 1.1899711051	-3.5402280038	 0.5583338928	-0.300368
C	 0.4428867873	-4.6493638485	-0.1989985952	-0.021455
C	-0.8623875122	-4.9031911435	 0.5803449054	-0.239253
C	-1.2174807097	-3.505131613	 0.1136933618	-0.077375
N	-0.2924241787	-3.5690755189	-1.0635607699	-0.192382
H	 0.9081231981	 1.8413364369	 0.3585368587	 0.15027
H	-0.1188944805	 1.778190499	-1.0786116569	 0.153481
H	-0.8526959366	 1.841415908	 0.5301908395	 0.148553
H	 2.1061225463	-3.2437929763	 0.0427395163	 0.119081
H	 1.3855863995	-3.6720908055	 1.6275503746	 0.098487
H	 0.9771470994	-5.4535020596	-0.6996536975	 0.088603
H	-1.4888645349	-5.6462402274	 0.0801816255	 0.115089
H	-0.8016566391	-5.1235282505	 1.6511405337	 0.09943
H	-2.1956681049	-3.0450625521	 0.0321233528	 0.098347
20.4547	92.9409	99.7329	272.6088	300.5233	397.3812	405.1262	445.0691	509.1693	548.7469	726.3528	746.4799	797.0096	839.5127	870.7731	921.2813	941.2438	997.9994	1001.8324	1014.4953	1035.7199	1051.9451	1054.0523	1077.0343	1126.5759	1146.666	1185.2438	1210.8111	1241.3608	1270.774	1302.6088	1308.8318	1401.8514	1417.8701	1475.4469	1477.8146	1487.9321	1504.219	2364.5508	3025.8358	3043.0823	3047.7596	3086.1691	3088.2757	3105.928	3113.9724	3145.6292	3184.8701
CC#CC12CC3CC1N23	CC#C[C@@]12C[C@H]3C[C@@H]1N23	
InChI=1S/C8H9N/c1-2-3-8-5-6-4-7(8)9(6)8/h6-7H,4-5H2,1H3	InChI=1S/C8H9N/c1-2-3-8-5-6-4-7(8)9(6)8/h6-7H,4-5H2,1H3/t6-,7+,8-,9?/m1/s1
