21
gdb 103374	3.04172	1.39491	1.26347	1.5174	77.24	-0.2406	0.0789	0.3195	1106.8352	0.183558	-424.20787	-424.199663	-424.198719	-424.240331	33.2	
C	-0.4358155617	 1.540405588	-0.0529361163	-0.384292
C	-0.0361316846	 0.0621339153	 0.0172218755	-0.247366
C	 0.6072391346	-0.447112454	-1.2686028752	 0.475953
O	 1.8264280866	 0.2362166574	-1.4163609737	-0.501576
C	 0.6105498069	-2.0247291846	-1.4686334993	-0.13727
C	-0.8372571284	-1.8686351096	-2.0273886327	-0.253098
C	-0.2424023811	-0.5584949565	-2.5730473476	 0.024864
O	 0.7594099908	-1.0099179355	-3.5162398216	-0.30562
C	 1.3802596306	-2.1122218424	-2.7856451522	-0.106733
H	 0.4222184594	 2.1529298488	-0.339450881	 0.136007
H	-1.2316590193	 1.7069429828	-0.7871172022	 0.10974
H	-0.801542829	 1.8915960513	 0.9165816132	 0.109496
H	 0.7063437174	-0.0761332612	 0.81268358	 0.109888
H	-0.8988251298	-0.5500912485	 0.2925508233	 0.096786
H	 2.02027266	 0.2353763599	-2.3635677747	 0.291041
H	 0.8735067996	-2.720586453	-0.6728750711	 0.072914
H	-1.1657688056	-2.592986476	-2.7752376898	 0.104896
H	-1.6030815845	-1.7318727048	-1.2664008864	 0.11081
H	-0.8125424231	 0.2555236556	-3.0182570484	 0.081153
H	 2.453324121	-1.9263794568	-2.6782878195	 0.106599
H	 1.2257656601	-3.0503405765	-3.3288031202	 0.105811
84.7189	157.0717	208.6241	285.9705	316.9953	353.0534	390.0831	459.025	489.4337	560.4858	573.7966	662.523	720.602	785.8868	825.3233	842.9331	898.3368	910.6129	934.8456	952.9335	973.9886	997.1652	1026.6014	1029.923	1071.8391	1087.3598	1098.4313	1126.7181	1147.0024	1197.7368	1209.2489	1228.217	1254.6222	1260.9553	1288.1521	1317.5659	1361.2598	1369.1482	1405.2172	1417.368	1472.6255	1494.4183	1500.3155	1511.8863	1526.9378	3036.9714	3040.0326	3040.1601	3082.9174	3085.6113	3091.5173	3102.5729	3128.3041	3130.1989	3136.9554	3159.5864	3749.6576
CCC1(O)C2CC1OC2	CC[C@@]1(O)[C@H]2C[C@@H]1OC2	
InChI=1S/C7H12O2/c1-2-7(8)5-3-6(7)9-4-5/h5-6,8H,2-4H2,1H3	InChI=1S/C7H12O2/c1-2-7(8)5-3-6(7)9-4-5/h5-6,8H,2-4H2,1H3/t5-,6-,7+/m0/s1
