16
gdb 66693	2.59707	2.02555	1.65849	0.8253	67.26	-0.2144	0.0652	0.2796	865.0903	0.124658	-437.776068	-437.769154	-437.76821	-437.806835	28.482	
O	-0.1078971482	 1.3093181215	 0.1578469258	-0.45093
C	 0.0464488486	-0.0509706304	 0.0713692239	 0.317859
C	-0.5763998432	-1.0866538539	-0.8418092944	-0.221778
N	 0.4721203986	-2.0705196024	-0.3513131881	-0.169438
C	 1.2648182572	-0.944098861	 0.3494360653	-0.070445
C	 1.0663552111	-1.6371361668	 1.7113492579	-0.257532
C	-0.2085085867	-2.1738655497	 1.0322701772	-0.070444
C	-1.066949594	-0.9803149867	 0.587361393	 0.31786
O	-2.2058801706	-0.4418563417	 1.1301198378	-0.45093
H	 0.3142342802	 1.7140261338	-0.6079122456	 0.291935
H	-1.0395886342	-1.0752500013	-1.820724412	 0.101216
H	 2.246589655	-0.6765700711	-0.0451290995	 0.072996
H	 1.8017976686	-2.4296204695	 1.8709290097	 0.112796
H	 0.9638727218	-1.0179759007	 2.6053161468	 0.111905
H	-0.6789337199	-3.1184695325	 1.3107501765	 0.072995
H	-2.9502054044	-1.0107087679	 0.9048258758	 0.291936
220.9446	232.3122	274.8957	331.2111	333.7103	427.4341	485.258	549.8816	659.5054	661.1867	722.2895	798.0205	802.4734	815.4781	896.4028	910.0486	915.0583	943.9207	986.9616	1008.6864	1040.882	1047.3102	1080.9426	1124.1786	1156.7927	1205.0115	1216.9791	1219.1176	1250.9664	1273.0674	1294.2751	1302.5732	1396.7197	1476.2223	1484.1911	3065.4859	3097.8331	3101.1652	3128.1891	3187.5121	3796.6829	3796.7484
OC12C3N4C1CC4C23O	O[C@@]12[C@H]3N4[C@@H]1C[C@H]4[C@@]23O	
InChI=1S/C6H7NO2/c8-5-2-1-3-6(5,9)4(5)7(2)3/h2-4,8-9H,1H2	InChI=1S/C6H7NO2/c8-5-2-1-3-6(5,9)4(5)7(2)3/h2-4,8-9H,1H2/t2-,3+,4-,5-,6+
