18
gdb 91252	3.8192	1.22849	1.02209	3.9769	82.51	-0.2369	-0.0301	0.2068	1184.0763	0.148829	-401.947181	-401.939496	-401.938552	-401.979297	30.129	
C	 0.0778788441	 1.5277138268	 0.194815962	-0.408122
C	 0.0273504168	 0.0221376226	-0.0039236592	-0.054494
C	 0.8234879483	-0.6411148265	-1.2041351879	-0.279673
C	 1.1710333149	-1.8385780836	-0.2464798554	 0.070576
O	 2.4722582558	-2.3503178067	-0.0171848881	-0.263594
C	 2.9343013081	-1.8243993048	 1.1892574705	 0.406009
N	 4.0459441426	-2.1188397207	 1.7152459012	-0.5457
C	 1.9564426083	-0.8221543669	 1.6682710665	-0.294855
C	 0.901100605	-0.8709452107	 0.8523597395	 0.206404
H	 1.1127449836	 1.8832026451	 0.2144272018	 0.126548
H	-0.4469635257	 2.0444618556	-0.6150799533	 0.124121
H	-0.3974351684	 1.8158662567	 1.1379884514	 0.12813
H	-1.0102965113	-0.3297112738	-0.0274467074	 0.096537
H	 0.2603877126	-0.8784049938	-2.1093351418	 0.111513
H	 1.7150903106	-0.0592160996	-1.4461521216	 0.127017
H	 0.4723909025	-2.6712533681	-0.3756321586	 0.102771
H	 4.5544273197	-2.7849129798	 1.1324431386	 0.223073
H	 2.2063904824	-0.1155736318	 2.4457941616	 0.123739
112.89	149.1097	210.2574	233.5821	334.2838	381.2395	434.7698	501.9151	598.9597	671.2829	687.2314	710.3135	796.6212	851.2439	863.9832	882.1851	890.8197	917.4797	922.7196	1005.1557	1035.3896	1049.5806	1084.0246	1110.3594	1131.67	1153.8598	1203.5242	1220.4448	1250.1624	1276.6855	1303.8205	1358.0194	1383.2591	1410.0338	1469.6062	1493.1569	1497.4302	1690.994	1755.4227	3035.64	3042.0439	3058.8073	3068.1815	3104.9713	3111.2868	3140.4008	3249.3934	3484.153
CC1CC2OC(=N)C=C12	C[C@H]1C[C@H]2OC(=C[C]12)[NH]	
InChI=1S/C7H9NO/c1-4-2-6-5(4)3-7(8)9-6/h3-4,6,8H,2H2,1H3	InChI=1S/C7H9NO/c1-4-2-6-5(4)3-7(8)9-6/h3-4,6,8H,2H2,1H3/t4-,6+/m0/s1
