16
gdb 45846	2.28559	1.69677	1.06669	4.3916	72.77	-0.2353	-0.029	0.2063	1084.9671	0.125338	-437.94822	-437.940445	-437.939501	-437.980988	29.469	
O	 0.1079940795	 0.2720741265	-0.9846667919	-0.288279
C	 0.0403240151	 1.1404169716	-0.1550656058	 0.391567
C	-1.1857186734	 1.3316155588	 0.7395244187	-0.37155
C	-1.5309845827	 2.758357566	 1.0618499633	-0.101421
C	-0.7349244097	 3.5794517301	 1.7534128968	-0.004091
N	 0.556564198	 3.2515169436	 2.1779478423	-0.307465
C	 1.5126709874	 2.5049703863	 1.5106397685	 0.353028
O	 2.5701576523	 2.2328318807	 2.0393357373	-0.348193
C	 1.1919509016	 2.1254891908	 0.0713081479	-0.397
H	-2.0214299205	 0.7938874238	 0.2895885945	 0.134092
H	-0.9272848127	 0.8079725834	 1.6751613359	 0.150563
H	-2.4867167184	 3.1406192107	 0.7222179955	 0.110766
H	-1.0611754326	 4.5775486696	 2.0305707769	 0.116063
H	 0.8869843524	 3.6225655469	 3.0584973319	 0.258323
H	 2.0953009157	 1.7161794938	-0.3784857419	 0.15397
H	 0.9076998481	 3.0406834875	-0.4663517499	 0.149628
60.509	119.7666	190.1608	311.0624	336.497	425.8568	477.338	499.5253	520.2741	560.8165	603.4323	660.6016	732.1662	797.2275	804.4973	881.393	934.75	953.9345	959.1086	1000.9348	1099.5312	1142.8332	1162.0068	1236.2218	1243.824	1279.4277	1308.8523	1337.0668	1426.1887	1437.2708	1448.9801	1471.1313	1713.183	1791.8414	1831.7704	2983.1939	3031.471	3123.1085	3154.5814	3168.9017	3201.6821	3594.0295
O=C1CC=CNC(=O)C1	O=C1CC=CNC(=O)C1	
InChI=1S/C6H7NO2/c8-5-2-1-3-7-6(9)4-5/h1,3H,2,4H2,(H,7,9)	InChI=1S/C6H7NO2/c8-5-2-1-3-7-6(9)4-5/h1,3H,2,4H2,(H,7,9)
