13
gdb 133387	3.32371	1.38209	0.97645	1.6038	66.42	-0.2311	-0.0421	0.189	1080.9628	0.089132	-494.016525	-494.009021	-494.008077	-494.048504	28.502	
N	 0.0540990121	 1.3121107481	 0.0936066219	-0.543769
C	-0.0012298006	-0.0346976545	 0.0313630245	 0.420898
N	-1.169436678	-0.610675233	 0.0092184777	-0.216008
O	-1.1661469959	-2.0303431309	-0.0081097467	-0.241401
C	-0.0243193793	-2.68530987	-0.0087154149	 0.435592
F	-0.2467604361	-3.9796455636	-0.0182184957	-0.03468
C	 1.2126669966	-2.1531409288	-0.0041739328	-0.451728
C	 1.3231336577	-0.7219371447	 0.003110331	 0.294855
N	 2.3650169731	 0.0303477395	-0.018936928	-0.563014
H	 0.969553725	 1.7137990214	-0.0458053106	 0.284315
H	-0.7802302289	 1.85535708	-0.0427202111	 0.269071
H	 2.0792957668	-2.7995743675	-0.0123896683	 0.125122
H	 3.2226918075	-0.5215730358	-0.0451858369	 0.220746
105.3972	182.5347	247.212	320.2276	346.1545	370.3923	459.3704	461.0857	514.842	564.6857	596.6443	670.1563	716.8788	768.4684	803.1706	813.0977	880.2329	926.1144	1030.0486	1116.0312	1157.6858	1254.5111	1322.0537	1405.6453	1487.7851	1585.5988	1633.5158	1676.5315	1700.0379	3228.7364	3473.5232	3577.0157	3729.253
NC1=NOC(F)=CC1=N	NC1=NO[C](F)C=C1[NH]	
InChI=1S/C4H4FN3O/c5-3-1-2(6)4(7)8-9-3/h1,6H,(H2,7,8)	InChI=1S/C4H4FN3O/c5-3-1-2(6)4(7)8-9-3/h1,6H,(H2,7,8)
