19
gdb 119394	4.18038	1.04674	0.9848	1.1414	76.15	-0.233	0.0043	0.2372	1274.317	0.158495	-422.961311	-422.952978	-422.952034	-422.994901	31.464	
C	-0.3794825724	 1.4227653435	 0.3912972371	-0.218847
O	-0.5324389093	 0.0388114737	 0.6023670874	-0.242348
C	-0.873885855	-0.6616183325	-0.5732281603	-0.206022
C	-1.0015527142	-2.1185280692	-0.2166330027	 0.379317
C	-2.2130667174	-2.7586986572	 0.5351260216	-0.248424
C	-1.6335649513	-3.9533598411	-0.2778424581	 0.008152
O	-1.3257872509	-2.995668525	-1.3483558736	-0.328683
C	-0.2519693489	-4.1344910855	 0.3827834487	-0.085916
C	 0.1811278578	-2.8743221797	 0.4291955008	-0.108823
H	-0.1164949242	 1.8723029132	 1.3517209287	 0.128841
H	 0.4197507388	 1.6386746547	-0.3351199657	 0.106691
H	-1.3095119543	 1.8844808823	 0.0242277277	 0.106823
H	-1.8205677945	-0.2915047404	-0.998052941	 0.097059
H	-0.0968857823	-0.5437731149	-1.3476455045	 0.100988
H	-2.191584022	-2.8016710016	 1.624994123	 0.103497
H	-3.1748183948	-2.4095254384	 0.150060666	 0.102031
H	-2.2128656492	-4.8182654353	-0.5967854793	 0.080627
H	 0.2002257953	-5.0562765803	 0.7175130077	 0.109035
H	 1.089326539	-2.4363438063	 0.8139958263	 0.116001
59.884	84.6155	128.0772	226.7441	302.6481	341.794	369.2684	481.1524	539.9399	611.5573	693.9269	711.8419	758.1628	837.1408	859.2015	873.2863	904.4996	910.0984	948.1555	978.3109	1015.4221	1045.6278	1053.4384	1090.5336	1145.1616	1164.4388	1187.0783	1201.7233	1227.2726	1231.6037	1251.1991	1263.0234	1296.2545	1339.5271	1426.9682	1481.8097	1485.8832	1488.0247	1503.9534	1525.9641	1618.2949	2959.6377	2974.6625	2996.7227	3017.7648	3063.2963	3116.5461	3138.5775	3140.2729	3235.3596	3264.7285
COCC12CC(O1)C=C2	COC[C@@]12C[C@@H](O1)C=C2	
InChI=1S/C7H10O2/c1-8-5-7-3-2-6(4-7)9-7/h2-3,6H,4-5H2,1H3	InChI=1S/C7H10O2/c1-8-5-7-3-2-6(4-7)9-7/h2-3,6H,4-5H2,1H3/t6-,7+/m0/s1
