18
gdb 124846	3.47266	1.31783	1.21474	5.4541	78.26	-0.2491	0.0106	0.2597	1093.6407	0.148609	-398.100012	-398.091977	-398.091033	-398.132446	30.498	
C	-0.1663739525	 1.5688130715	 0.0122012754	-0.437056
C	-0.0550762097	 0.0447757592	-0.0029806644	 0.123354
C	-1.3964517264	-0.634046006	 0.2712878896	-0.437054
C	 0.719051657	-0.5364380233	-1.2693282684	-0.213283
N	 1.7344703349	-0.9893217413	-0.2988100313	 0.085237
N	 2.8999065959	-1.6112316747	-0.0579033841	-0.182748
N	 3.039217681	-1.5361009071	 1.2472559338	-0.180667
C	 1.9835679381	-0.8780346647	 1.8252833793	-0.234466
C	 1.1312652783	-0.5229998965	 0.8017154778	 0.311704
H	 0.7971299357	 2.0427364318	-0.1957363374	 0.130503
H	-0.8890719162	 1.910750987	-0.7364864091	 0.122232
H	-0.5084583604	 1.9177576957	 0.9917080462	 0.12999
H	-2.1414339926	-0.3319821244	-0.4726928634	 0.122229
H	-1.3060708636	-1.7237400975	 0.247223201	 0.130501
H	-1.7745183584	-0.3495793213	 1.2583855891	 0.12999
H	 0.2239001334	-1.3556008537	-1.794957941	 0.13888
H	 1.0949244526	 0.2041734302	-1.9783440711	 0.138888
H	 1.938298733	-0.7272433449	 2.890313078	 0.121766
101.98	137.0367	225.867	236.7915	292.544	303.7626	328.8743	437.2562	492.284	603.703	697.4484	714.3229	729.7811	829.2021	846.5627	919.3142	950.7124	961.2922	1006.4672	1034.9457	1057.977	1105.4612	1137.3826	1172.158	1213.2395	1219.197	1249.4264	1270.3256	1283.4562	1350.4817	1405.4572	1423.834	1475.7843	1481.0142	1487.0384	1501.751	1503.869	1517.5603	1531.8277	3032.3603	3036.514	3072.3243	3101.4095	3106.1217	3112.5906	3114.7716	3135.0322	3283.3222
CC1(C)CN2N=NC=C12	CC1(C)Cn2nncc12	
InChI=1S/C6H9N3/c1-6(2)4-9-5(6)3-7-8-9/h3H,4H2,1-2H3	InChI=1S/C6H9N3/c1-6(2)4-9-5(6)3-7-8-9/h3H,4H2,1-2H3
