18
gdb 85992	2.27665	1.3297	1.19289	3.2242	75.27	-0.2468	-0.0348	0.212	1164.7059	0.145367	-439.121267	-439.111489	-439.110545	-439.156267	33.812	
C	-0.3498103767	 1.411374432	 0.0592870805	-0.345717
N	-0.0986063977	-0.006642216	 0.0392617968	-0.074715
C	-0.9942062986	-1.1683325337	 0.0952060733	-0.220509
C	 0.2665479798	-2.0742491971	 0.0386140731	 0.044776
C	 0.5839643468	-2.9547172906	 1.2457668645	-0.464425
C	 0.4432333986	-2.8197009214	-1.2650093802	 0.128293
O	-0.3212140722	-2.7786500287	-2.1955200077	-0.252158
C	 1.0658570809	-0.7157225671	 0.016447631	 0.37724
O	 2.2269082456	-0.4029373455	 0.0046473268	-0.372512
H	 0.614683748	 1.9217350813	 0.0085999595	 0.164279
H	-0.9601443788	 1.7188561286	-0.7978832504	 0.137127
H	-0.8632405851	 1.7151400161	 0.9797216696	 0.130776
H	-1.5649448752	-1.2395836956	 1.0277550931	 0.108501
H	-1.6562995662	-1.2650259891	-0.7688611908	 0.138264
H	-0.1104603696	-3.7981022918	 1.3187682774	 0.130718
H	 1.6004524743	-3.353179621	 1.1688997984	 0.144377
H	 0.5226401204	-2.3788657749	 2.1734613267	 0.133962
H	 1.3783282858	-3.4201207255	-1.3137772318	 0.091722
69.5106	104.8235	128.6286	152.1513	180.8543	213.3061	233.7231	247.242	284.6267	349.6372	494.7711	557.6759	678.4988	716.2057	763.7238	822.0511	928.4829	949.5913	979.5238	1019.917	1045.3295	1130.637	1137.8707	1172.5705	1198.2247	1239.1974	1265.3455	1322.4835	1402.3831	1415.894	1430.4016	1449.4175	1482.2971	1490.109	1495.7516	1508.2379	1531.1522	1816.6753	1879.2705	2892.6918	3018.7226	3035.6832	3039.7689	3072.1814	3106.2845	3107.1495	3114.7573	3133.3619
CN1CC(C)(C=O)C1=O	CN1C[C@@](C)(C=O)C1=O	
InChI=1S/C6H9NO2/c1-6(4-8)3-7(2)5(6)9/h4H,3H2,1-2H3	InChI=1S/C6H9NO2/c1-6(4-8)3-7(2)5(6)9/h4H,3H2,1-2H3/t6-/m0/s1
