16
gdb 47248	2.52784	1.76805	1.14576	3.5358	76.16	-0.2207	-0.0331	0.1875	1039.9772	0.127062	-434.077709	-434.070007	-434.069063	-434.110418	29.291	
N	-0.132647376	 0.8008227801	 1.0971273477	-0.505371
C	-0.0218401506	-0.0725536592	 0.1754171116	 0.272453
N	-1.1537184358	-0.3306984213	-0.5936306269	-0.319843
C	-1.4322990975	-1.3237589568	-1.5137690543	 0.037924
C	-0.7879002681	-2.4913468165	-1.6055672323	-0.125631
C	 0.2845093083	-2.8314397201	-0.6248406566	-0.170222
O	 1.4195107931	-1.9373249383	-0.7038692927	-0.241549
C	 1.3194391192	-0.694525797	-0.1857354372	 0.335825
N	 2.3454520456	 0.0216753592	 0.0219987577	-0.502506
H	 0.7864069065	 0.9708449913	 1.5036945971	 0.245584
H	-1.8906413017	 0.3262943165	-0.3783840867	 0.26229
H	-2.2503387663	-1.0721185208	-2.1813868854	 0.119806
H	-1.0326057766	-3.1806901168	-2.4025396803	 0.104323
H	-0.0992016472	-2.8099576032	 0.4049044602	 0.128878
H	 0.7054673419	-3.8204312499	-0.8078554373	 0.129303
H	 3.1891449351	-0.4986228471	-0.2256055348	 0.228738
58.0708	97.0055	235.3938	304.3743	365.7074	409.7063	431.8383	502.7617	563.3835	624.8314	643.7893	685.1883	749.3749	780.3504	822.5172	885.1619	904.4794	936.0498	955.1616	981.5573	1060.0516	1074.3537	1133.6994	1186.0247	1270.6145	1290.7285	1306.0533	1403.6954	1422.3949	1451.1026	1492.9422	1502.143	1687.9122	1711.7015	1721.5818	3009.3013	3126.7408	3181.3218	3222.3539	3474.6265	3507.1537	3600.5102
N=C1NC=CCOC1=N	[NH][C]1NC=CCO[C]1[NH]	
InChI=1S/C5H7N3O/c6-4-5(7)9-3-1-2-8-4/h1-2,7H,3H2,(H2,6,8)	InChI=1S/C5H7N3O/c6-4-5(7)9-3-1-2-8-4/h1-2,7H,3H2,(H2,6,8)
