13
gdb 29107	3.11995	1.49207	1.01485	5.3747	64.58	-0.2434	-0.0615	0.1819	1071.1211	0.088948	-489.905277	-489.89733	-489.896385	-489.939009	28.508	
N	-0.0931868733	 1.4459927978	 0.1179388828	-0.571124
C	-0.119149866	 0.0509751188	 0.0511160924	 0.215558
C	-1.2255121996	-0.6546283564	-0.1514433176	-0.006714
O	-1.2430191461	-2.0273558319	-0.2161056444	-0.20493
C	-0.0927155439	-2.746092771	-0.0707660758	 0.387524
O	-0.1225256363	-3.9357948501	-0.1289921049	-0.274472
C	 1.1838489718	-1.95406794	 0.1621558621	 0.24049
N	 2.2722957034	-2.5741143269	 0.30251995	-0.456792
O	 1.1057998307	-0.5857301484	 0.2115600446	-0.236483
H	 0.2527159765	 1.7718286988	 1.0161004466	 0.2545
H	 0.5014194283	 1.8448164225	-0.6031005945	 0.254514
H	-2.1975807963	-0.2068243616	-0.2812825026	 0.160861
H	 3.0410798009	-1.9168220116	 0.4508868314	 0.237067
30.2541	101.2081	126.7991	318.548	360.4136	372.1169	441.63	465.731	498.3965	560.0729	596.5737	672.2202	793.5656	802.1385	817.5306	832.0118	917.8028	958.3293	1054.0272	1144.0747	1158.672	1224.8451	1273.3952	1325.1809	1341.5817	1650.6873	1736.2787	1797.8312	1875.7832	3273.6349	3473.3581	3491.3167	3557.5136
NC1=COC(=O)C(=N)O1	NC1=COC(=O)[C]([NH])O1	
InChI=1S/C4H4N2O3/c5-2-1-8-4(7)3(6)9-2/h1,6H,5H2	InChI=1S/C4H4N2O3/c5-2-1-8-4(7)3(6)9-2/h1,6H,5H2
