15
gdb 45961	3.12041	1.55408	1.18805	2.03	68.05	-0.2559	-0.0462	0.2097	1003.5188	0.113299	-453.933411	-453.926037	-453.925093	-453.965825	27.656	
N	-0.1695359328	 1.3349978852	-0.0990505447	-0.483567
C	-0.0974677313	 0.0781435587	-0.0643840973	 0.397384
O	 1.1009319339	-0.5931637547	 0.0450865323	-0.256119
C	 1.3091310935	-1.7506320943	-0.7655704233	-0.189755
C	 0.0877317435	-2.6396259485	-0.9532198669	 0.361499
O	 0.1679977416	-3.6809432502	-1.5607809679	-0.306994
C	-1.1973292704	-2.1138858515	-0.4210150971	-0.123563
C	-1.2992080117	-1.7318090592	 1.0201579621	-0.246439
N	-1.2922599546	-0.6914686097	-0.0112057109	-0.125758
H	 0.7724085617	 1.7288911305	-0.1128691555	 0.232424
H	 1.6560086516	-1.4522644695	-1.764990683	 0.151211
H	 2.1104240087	-2.3263642173	-0.295462198	 0.157135
H	-2.0812776169	-2.5011433894	-0.9182610641	 0.135419
H	-2.2513776383	-1.8705509044	 1.5211494707	 0.149706
H	-0.4154697287	-1.8367103958	 1.6421523936	 0.147416
57.6297	127.5555	200.1417	305.1794	404.665	406.3888	482.8951	512.4127	599.7212	675.2003	723.0235	746.1995	813.6515	855.0309	916.0291	926.1304	977.538	1010.3123	1012.9476	1084.4284	1101.9077	1128.0747	1162.8981	1241.4045	1253.0054	1269.0177	1324.7535	1356.4009	1394.2587	1468.5523	1492.9954	1760.7883	1815.0267	3017.3467	3105.6758	3126.072	3167.7669	3222.2303	3487.3429
N=C1OCC(=O)C2CN12	[NH][C]1OCC(=O)[C@H]2CN12	
InChI=1S/C5H6N2O2/c6-5-7-1-3(7)4(8)2-9-5/h3,6H,1-2H2	InChI=1S/C5H6N2O2/c6-5-7-1-3(7)4(8)2-9-5/h3,6H,1-2H2/t3-,7?/m1/s1
