17
gdb 5576	3.33201	1.8526	1.21113	3.0144	72.59	-0.171	0.039	0.21	994.5385	0.143466	-360.07981	-360.071391	-360.070446	-360.11304	30.003	
C	 0.0066650647	 1.4797135589	 0.0969314494	-0.309125
N	-0.1316955525	 0.0300808075	 0.0645353864	-0.389802
C	 0.5664434151	-0.7021484469	 1.0292575209	 0.267765
C	 0.6994547862	-2.0737954976	 1.1067771008	 0.212539
C	 0.2061259106	-3.178964658	 0.2381655325	-0.516579
N	 1.4419701469	-2.2741163936	 2.2637768631	-0.295546
C	 1.6941943578	-1.060040094	 2.8130880536	-0.001427
N	 1.1839992846	-0.0849951659	 2.090406164	-0.319801
H	 1.0417555101	 1.8308217217	-0.0296880453	 0.109236
H	-0.6131236733	 1.9063092444	-0.69657863	 0.10613
H	-0.3487221646	 1.8573911859	 1.057916704	 0.143519
H	-0.0060964185	-0.344405019	-0.8651010605	 0.226984
H	 0.9852525165	-3.6115050953	-0.4049765277	 0.123688
H	-0.2234852657	-4.0008408794	 0.8244295483	 0.123382
H	-0.5881412377	-2.8049882812	-0.4147255878	 0.137369
H	 1.7254764869	-3.1665668969	 2.6313568669	 0.258452
H	 2.2491014931	-0.9411324404	 3.7313939116	 0.123217
57.3976	105.5272	166.8599	193.2629	220.772	285.679	317.7932	473.8098	481.8686	581.2139	646.584	657.2187	736.7856	772.6983	787.8412	952.0137	981.4201	1060.8575	1072.3446	1108.4967	1136.3412	1154.9818	1208.5615	1252.9821	1329.891	1384.287	1422.4152	1449.0721	1462.9133	1480.976	1484.7366	1493.4532	1501.3914	1516.587	1532.4249	1649.7039	2990.9171	3001.7645	3049.4501	3082.4947	3101.89	3128.8065	3251.1962	3581.3428	3665.1674
CNC1=C(C)NC=N1	CNc1c(C)[nH]cn1	
InChI=1S/C5H9N3/c1-4-5(6-2)8-3-7-4/h3,6H,1-2H3,(H,7,8)	InChI=1S/C5H9N3/c1-4-5(6-2)8-3-7-4/h3,6H,1-2H3,(H,7,8)
