18
gdb 90857	3.93461	1.49145	1.3846	1.4482	74.83	-0.2159	0.0042	0.2201	967.7246	0.150038	-401.893311	-401.886564	-401.88562	-401.924071	28.33	
O	-0.085380182	 1.40045467	-0.0420933841	-0.441832
C	-0.0330419501	-0.0187096419	 0.0024528496	 0.090224
C	 0.4516893519	-0.6065907838	 1.3674278328	-0.21073
N	-0.7418025828	-1.3037569076	 1.8936543031	-0.118871
C	-1.2956796932	-2.0167703849	 0.6399821194	-0.069278
C	-2.7020654071	-2.3805605971	 1.0896082402	-0.084567
C	-3.1055286951	-1.2625067936	 1.6937835016	-0.08061
C	-1.9000023704	-0.3492495153	 1.5371290675	-0.048753
C	-1.4452836051	-0.5721035221	 0.0505256309	-0.01439
H	 0.8169352363	 1.7340496486	-0.0280592542	 0.283002
H	 0.5383110627	-0.410234538	-0.851869979	 0.063062
H	 1.2781642738	-1.3174015496	 1.2669619987	 0.099267
H	 0.7553752942	 0.1920015527	 2.0515715388	 0.102133
H	-0.6580001656	-2.774561412	 0.1805533721	 0.064534
H	-3.1932587596	-3.3331965535	 0.9591381624	 0.108537
H	-4.0280531009	-1.0271819602	 2.2033353046	 0.108698
H	-1.8913401794	 0.6377346411	 1.9977540527	 0.078147
H	-2.1078441077	-0.3600944427	-0.7905237871	 0.071427
150.4855	254.8366	276.2051	359.4713	438.0779	467.2238	526.4238	628.9618	669.9526	723.4622	737.508	804.708	840.3615	883.7583	907.5004	929.432	934.8574	938.5328	973.109	989.7954	1012.747	1037.5215	1040.5141	1116.5278	1123.9282	1143.4364	1164.9194	1201.6358	1215.0774	1232.8539	1258.8406	1267.4176	1300.7642	1320.5572	1327.6426	1332.9533	1427.2084	1484.4627	1633.8299	2990.3046	3044.8774	3095.1412	3099.1124	3106.4205	3133.8063	3232.0857	3258.9163	3820.7243
OC1CN2C3C=CC2C13	O[C@H]1CN2[C@H]3C=C[C@@H]2[C@@H]13	
InChI=1S/C7H9NO/c9-6-3-8-4-1-2-5(8)7(4)6/h1-2,4-7,9H,3H2	InChI=1S/C7H9NO/c9-6-3-8-4-1-2-5(8)7(4)6/h1-2,4-7,9H,3H2/t4-,5+,6-,7-/m0/s1
