22
gdb 11465	5.0829	1.1418	1.00699	1.5609	78.66	-0.237	0.0847	0.3217	1257.7169	0.20045	-350.226909	-350.217872	-350.216928	-350.260974	33.237	
C	-0.0949650066	 1.5691451107	-0.001781352	-0.381552
C	-0.0329603253	 0.0396929292	 0.0019345013	-0.181196
C	 0.6930774388	-0.5328984076	-1.2122084781	 0.159607
C	 0.7707408385	-2.0643854735	-1.2633895621	-0.252142
C	 0.7823967012	-2.3559437164	-2.7720200541	 0.016327
C	 0.3721767342	-3.7707558395	-3.1713833727	-0.411794
C	-0.1592291396	-1.254216929	-3.2794909012	-0.066841
O	 0.0124968709	-0.1373583828	-2.4155223837	-0.280611
H	 0.9101707122	 2.0053337515	 0.0213182583	 0.109226
H	-0.594497111	 1.9277205411	-0.9054746287	 0.135633
H	-0.6420561018	 1.9460795142	 0.8677490902	 0.106133
H	 0.4766076378	-0.3156604506	 0.9073798926	 0.0896
H	-1.0480077185	-0.376796911	 0.0245034227	 0.09401
H	 1.7112235804	-0.1096167988	-1.2474434813	 0.061792
H	 1.6445650805	-2.4580895503	-0.7373566589	 0.099266
H	-0.1243289561	-2.5041311349	-0.8038336718	 0.095031
H	 1.7900416602	-2.1511355591	-3.1570916972	 0.077393
H	-0.6277010949	-4.0105300342	-2.7916694552	 0.115802
H	 0.3531019198	-3.8886590737	-4.2602417357	 0.116131
H	 1.0689010285	-4.5142862757	-2.7712803013	 0.116861
H	 0.058619262	-0.9432135003	-4.3078880586	 0.098583
H	-1.2057211813	-1.6006519694	-3.2487361326	 0.082743
44.1752	98.8314	129.7854	203.0881	229.7885	248.5623	287.1235	393.0393	429.7413	447.642	553.8287	653.375	769.6644	842.2588	866.8994	902.1452	938.8986	945.6806	960.5452	1006.1229	1037.6119	1064.4474	1085.5293	1128.634	1142.4217	1167.9068	1184.9598	1200.5386	1260.7621	1274.025	1297.1252	1334.3528	1341.6898	1357.0046	1371.655	1403.1218	1409.3114	1412.3936	1415.5928	1473.6203	1490.4344	1496.8019	1496.9224	1500.6422	1509.717	1528.727	2952.0779	2963.2415	3013.1847	3016.7413	3025.4895	3029.7305	3034.3697	3050.3806	3055.6764	3092.1	3096.2952	3098.6395	3099.7891	3122.5127
CCC1CC(C)CO1	CC[C@H]1C[C@@H](C)CO1	
InChI=1S/C7H14O/c1-3-7-4-6(2)5-8-7/h6-7H,3-5H2,1-2H3	InChI=1S/C7H14O/c1-3-7-4-6(2)5-8-7/h6-7H,3-5H2,1-2H3/t6-,7+/m1/s1
