16
gdb 16675	3.45855	1.94218	1.70162	2.5706	71.02	-0.2346	0.0065	0.2411	836.0759	0.130923	-346.600778	-346.593907	-346.592963	-346.631685	26.649	
C	 0.0242915105	 1.4342160538	 0.0541876147	-0.516491
C	-0.0705578302	-0.0524685556	 0.0322763086	 0.332668
C	-0.078277183	-0.9202512295	-1.0004588677	-0.186926
C	-0.0208786333	-2.2959355925	-0.3548503482	-0.177068
C	-0.9942150122	-2.1017180206	 0.8495568661	-0.219774
C	-0.0172914466	-0.9563339973	 1.2614397969	-0.228456
C	 1.0984736699	-1.9355545084	 0.7039965572	 0.424577
O	 2.2066357787	-2.2582187368	 0.9741416342	-0.306315
H	 0.9428276466	 1.7636956531	 0.5563492258	 0.13731
H	 0.0289988844	 1.8436978549	-0.9599895666	 0.129025
H	-0.8119730404	 1.8854978894	 0.6020637303	 0.129806
H	 0.0012627273	-0.7116222482	-2.0581893529	 0.104652
H	-0.0015809702	-3.1889660043	-0.9743561983	 0.082939
H	-2.0059318441	-1.7831126272	 0.586430326	 0.105088
H	-1.0029260514	-2.9432286544	 1.5495968734	 0.108449
H	 0.0088992142	-0.5146861963	 2.2551738403	 0.080516
117.5045	173.5903	236.8553	299.1265	403.3607	475.552	576.4523	578.1599	627.8187	750.3511	794.2479	816.6297	833.7282	886.9954	946.7377	951.4824	997.6363	1003.0837	1029.7503	1060.7922	1074.775	1120.9601	1163.3217	1179.036	1227.2611	1240.3919	1255.0141	1316.3803	1414.7372	1477.0583	1482.0179	1487.2263	1654.1952	1914.2115	3018.6551	3049.9531	3066.3032	3108.9296	3123.3848	3149.0047	3156.6113	3229.1068
CC1=CC2CC1C2=O	CC1=C[C@@H]2C[C@H]1C2=O	
InChI=1S/C7H8O/c1-4-2-5-3-6(4)7(5)8/h2,5-6H,3H2,1H3	InChI=1S/C7H8O/c1-4-2-5-3-6(4)7(5)8/h2,5-6H,3H2,1H3/t5-,6-/m1/s1
