16
gdb 101513	4.48963	0.58817	0.54159	5.6765	80.23	-0.2719	-0.0369	0.235	1923.4322	0.122307	-437.862649	-437.852725	-437.851781	-437.898476	34.486	
O	 0.2927488156	 0.5319763578	 0.9438693703	-0.405601
C	-0.1099699828	 0.266614886	-0.3882260933	-0.103612
C	-1.4856462787	-0.4120904292	-0.4736629124	 0.102988
O	-1.8762061609	-0.59840994	-1.8180285012	-0.415109
C	-1.492614862	-1.7262067995	 0.3416642034	-0.398009
C	-2.8030851798	-2.3402069285	 0.432156514	 0.074403
C	-3.9007996042	-2.8393970116	 0.5079500782	 0.077313
C	-5.1397128898	-3.4051966872	 0.5948041101	 0.204782
N	-6.193961236	-3.8878081429	 0.6706490105	-0.339756
H	-0.2166613246	 1.2811742012	 1.2692162152	 0.294015
H	-0.1312860277	 1.1725638653	-1.0085032138	 0.112525
H	 0.6530836246	-0.4019201072	-0.8084709779	 0.105985
H	-2.2403781356	 0.2613038658	-0.0492605227	 0.104401
H	-1.2534566144	-1.2022023875	-2.2392531803	 0.286417
H	-0.7859094163	-2.4341060697	-0.1156514413	 0.13472
H	-1.1043602373	-1.5077637327	 1.3434330011	 0.164538
45.9267	69.1612	135.2867	154.9278	200.182	212.8078	292.7818	317.106	364.9256	372.7656	420.6679	470.373	522.4712	578.5308	581.1747	741.6916	833.4474	902.1703	1018.6611	1070.1161	1095.1613	1108.2326	1171.4504	1176.5694	1189.2507	1302.8916	1318.1687	1369.0007	1382.4162	1410.6853	1421.4571	1460.6035	1499.6632	2266.5245	2401.9638	3008.2997	3011.371	3040.1344	3062.9802	3072.2304	3792.3884	3820.0707
OCC(O)CC#CC#N	OC[C@@H](O)CC#CC#N	
InChI=1S/C6H7NO2/c7-4-2-1-3-6(9)5-8/h6,8-9H,3,5H2	InChI=1S/C6H7NO2/c7-4-2-1-3-6(9)5-8/h6,8-9H,3,5H2/t6-/m0/s1
