18
gdb 98573	4.17852	0.9918	0.81614	3.1291	79.91	-0.2003	-0.0123	0.188	1390.9436	0.148627	-439.131437	-439.122515	-439.121571	-439.165663	31.777	
C	 0.0103645807	 1.3542329011	-0.0704427528	-0.23534
O	 0.0263870322	-0.0703930625	 0.0201420253	-0.247093
C	 0.6840748811	-0.5689085573	 1.1046999129	 0.359361
O	 1.2169578321	 0.1432382693	 1.9312685922	-0.406055
C	 0.6584059458	-2.0197072075	 1.1084841559	 0.129266
C	 1.1949645704	-2.7748973815	 2.0910453968	-0.058162
N	 0.9698191977	-4.1184988224	 1.9209936291	-0.290419
C	 0.4982396434	-4.3366047499	 0.5388377131	-0.166781
C	-0.0300262553	-2.9396369281	 0.1141531841	-0.322718
H	 1.0265263647	 1.7532302513	-0.1357788896	 0.133694
H	-0.5488711536	 1.590330091	-0.9767626246	 0.12267
H	-0.4769428284	 1.7959515653	 0.8032326606	 0.134425
H	 1.7157880288	-2.4123373381	 2.9675135524	 0.14239
H	 1.6240687662	-4.7763390845	 2.3165172671	 0.246319
H	 1.3324491695	-4.6505559688	-0.1041677867	 0.107404
H	-0.2674095721	-5.1157521907	 0.5063181645	 0.115514
H	-1.1214103822	-2.8834828876	 0.2148952746	 0.115912
H	 0.204242949	-2.7096250494	-0.9277750248	 0.119613
78.8129	106.5265	127.1842	144.0253	166.8052	261.7535	319.3769	386.431	471.2201	491.9856	523.7835	722.6293	765.2092	797.2567	854.6753	887.3924	943.5699	956.8498	1002.2122	1013.1228	1075.4545	1132.9254	1150.4336	1179.7811	1193.6753	1211.2587	1230.9072	1280.7316	1313.2949	1340.4093	1363.5807	1467.5105	1473.6114	1480.0446	1496.8094	1500.2543	1523.2147	1666.5233	1773.6181	3001.9502	3023.0643	3044.6321	3086.3009	3095.9639	3114.9882	3147.3162	3234.1006	3616.3172
COC(=O)C1=CNCC1	COC(=O)C1=CNCC1	
InChI=1S/C6H9NO2/c1-9-6(8)5-2-3-7-4-5/h4,7H,2-3H2,1H3	InChI=1S/C6H9NO2/c1-9-6(8)5-2-3-7-4-5/h4,7H,2-3H2,1H3
