15
gdb 117003	4.61286	0.56859	0.51895	3.5508	76.49	-0.2775	-0.0874	0.1901	2020.7878	0.107961	-457.727195	-457.716976	-457.716032	-457.764708	32.615	
C	-0.1103289059	 1.3976147409	 0.320015056	-0.230352
O	 0.0267300017	 0.0196474622	 0.0453414826	-0.213449
C	 0.5908826721	-0.6889285691	 1.0987063275	-0.160885
C	 0.6960437097	-2.1625523749	 0.7350131967	 0.214376
O	 0.3188673123	-2.6402020755	-0.3058342265	-0.246571
C	 1.3034958516	-2.9851680472	 1.7747662147	 0.066828
C	 1.7956786539	-3.6850661074	 2.6302870717	 0.033345
C	 2.4127772744	-4.5245366684	 3.6317739038	 0.024002
O	 1.8422993892	-4.926562241	 4.6170064665	-0.212283
H	 0.863654273	 1.8726355563	 0.5137395873	 0.11084
H	-0.5602484329	 1.8555887553	-0.562889228	 0.141223
H	-0.7623666216	 1.5764096065	 1.1886562594	 0.11221
H	 1.6048699581	-0.3290042122	 1.3574564149	 0.119349
H	-0.0041081804	-0.6133019425	 2.028489671	 0.124804
H	 3.4714730549	-4.773613913	 3.4204306525	 0.116564
40.0965	59.3388	75.2496	82.4662	119.4673	189.1517	227.4988	271.068	281.4754	369.9669	384.8794	573.4716	581.2976	681.5983	833.0639	963.4248	1012.6922	1017.7547	1030.8018	1152.0021	1174.2387	1182.1829	1243.2987	1249.1788	1406.5902	1417.5768	1464.2239	1486.8052	1489.7587	1513.4831	1772.6527	1792.1324	2298.3788	2931.8509	2935.3572	2951.5071	2978.4311	3026.3676	3128.7241
COCC(=O)C#CC=O	COCC(=O)C#CC=O	
InChI=1S/C6H6O3/c1-9-5-6(8)3-2-4-7/h4H,5H2,1H3	InChI=1S/C6H6O3/c1-9-5-6(8)3-2-4-7/h4H,5H2,1H3
