20
gdb 93009	3.09419	1.33458	1.04713	2.139	81.5	-0.2303	0.0276	0.2579	1196.3419	0.172031	-403.161928	-403.153716	-403.152772	-403.194517	32.324	
C	 0.0095417833	 1.5359255503	 0.0744773448	-0.405985
C	 0.0104471216	 0.0219898249	-0.0427186784	 0.14294
C	 0.770705964	-0.5186300044	-1.2532738911	-0.300731
C	 0.8213252081	-2.0319325499	-1.1678921515	 0.376085
C	-0.1219241766	-2.8778265181	-1.9988569071	-0.30491
C	 1.3467452239	-2.8320846455	-2.3332357543	-0.315077
N	 1.1387542456	-2.5534749341	 0.1325006839	-0.310409
C	 1.036599155	-1.775256574	 1.1264444955	 0.104206
O	 0.6050826961	-0.4913350233	 1.169778257	-0.243139
H	 1.0335639885	 1.9206892435	 0.1023150874	 0.12669
H	-0.5061153839	 1.9800128022	-0.7823380687	 0.119006
H	-0.5013955112	 1.8500903863	 0.9885480458	 0.128764
H	-1.022886166	-0.3512432848	-0.0748497871	 0.090086
H	 0.2892589208	-0.1825557296	-2.1772862511	 0.10062
H	 1.7883476432	-0.1064472182	-1.2430772157	 0.108122
H	-0.5081105622	-3.7782504617	-1.5368097358	 0.123071
H	-0.8186458405	-2.3624617992	-2.652349637	 0.107102
H	 1.6582644381	-2.2917345044	-3.2210573498	 0.108172
H	 1.946130493	-3.7006654438	-2.0880354818	 0.124074
H	 1.3178257892	-2.1079681163	 2.1235571251	 0.121313
103.5614	125.9519	227.9545	247.0904	303.2813	350.9938	361.7734	443.0297	458.929	503.5079	600.5301	721.4774	777.6729	802.662	844.2561	891.3028	921.3704	928.3805	945.6567	946.5898	973.9259	990.6275	1050.1573	1074.5197	1082.8336	1142.4422	1147.5654	1161.1487	1192.9769	1224.8251	1293.7095	1304.2714	1361.0899	1378.6654	1396.6039	1409.9556	1418.171	1454.6793	1476.9714	1485.5244	1494.0262	1498.4442	1717.8496	3005.5175	3024.7531	3042.9847	3079.6634	3117.9617	3122.399	3130.9274	3135.8567	3161.2492	3220.4463	3234.1174
CC1CC2(CC2)N=CO1	C[C@H]1CC2(CC2)N=CO1	
InChI=1S/C7H11NO/c1-6-4-7(2-3-7)8-5-9-6/h5-6H,2-4H2,1H3	InChI=1S/C7H11NO/c1-6-4-7(2-3-7)8-5-9-6/h5-6H,2-4H2,1H3/t6-/m0/s1
