16
gdb 90761	2.65059	1.71729	1.39938	5.3714	64.13	-0.253	0.0329	0.2858	950.5157	0.126112	-475.039477	-475.032047	-475.031103	-475.07183	27.853	
O	-0.2313365927	 1.3245287488	 0.8133548997	-0.418778
C	-0.0058048823	 0.1250558027	 0.1129750487	 0.088236
C	 0.4322480451	-1.0777989463	 1.0054768309	-0.214765
N	-0.9668499424	-1.5930220023	 0.9776607355	-0.163034
C	-1.3517345243	-0.6344440516	-0.0796052012	-0.019784
C	-2.6743581172	-0.0398378015	 0.4290248138	-0.10274
O	-2.8353196454	-0.5811160711	 1.7480313315	-0.238648
C	-1.7556292387	-1.336328748	 2.1072626932	 0.454338
O	-1.5502005477	-1.7063744015	 3.2270586291	-0.375619
H	 0.6092287915	 1.6524409015	 1.1493710112	 0.295993
H	 0.586112237	 0.2870436377	-0.7971525737	 0.077614
H	 1.126567591	-1.7694549669	 0.5212503067	 0.119639
H	 0.7856762381	-0.8354463899	 2.0109861043	 0.136577
H	-1.4437186215	-1.0969393397	-1.0654133572	 0.097141
H	-2.648542201	 1.050032242	 0.4934107909	 0.142927
H	-3.5253817795	-0.354202994	-0.1804913836	 0.120902
60.9558	151.811	242.1466	250.3904	273.8457	401.5572	452.7135	555.0057	662.9302	710.3551	737.4651	794.0643	804.1586	838.8748	908.0271	1000.5704	1013.8051	1032.2229	1049.0168	1086.1766	1100.4504	1151.9524	1177.9876	1192.9912	1226.7353	1243.117	1278.2798	1303.8547	1313.3072	1365.4259	1396.3038	1415.4699	1493.5126	1515.5835	1879.4204	3017.3523	3059.5649	3063.281	3078.1938	3119.2647	3120.6966	3817.9642
OC1CN2C1COC2=O	O[C@H]1CN2[C@H]1COC2=O	
InChI=1S/C5H7NO3/c7-4-1-6-3(4)2-9-5(6)8/h3-4,7H,1-2H2	InChI=1S/C5H7NO3/c7-4-1-6-3(4)2-9-5(6)8/h3-4,7H,1-2H2/t3-,4-/m0/s1
