21
gdb 78271	2.27731	1.62778	1.21954	1.5115	83.54	-0.2008	0.0676	0.2684	1131.2462	0.180844	-387.003453	-386.994151	-386.993207	-387.037133	35.783	
C	-0.1444004099	 1.608778806	-0.0031006168	-0.456018
C	 0.1121225315	 0.114331467	 0.0177711977	-0.052002
C	 1.2757361227	-0.7683435795	-0.3987225664	-0.144427
C	 2.7145720012	-0.5130636133	 0.1245482486	-0.134447
C	 2.9919309588	 0.6388244169	 1.0320942389	 0.091279
O	 2.624067797	 1.982440109	 0.9039358015	-0.408406
C	 2.1651367916	-0.4757464594	 1.5791778784	-0.162372
C	 0.735007475	-0.8048502578	 1.0313118157	 0.314509
C	-0.0158308894	-1.9069507688	 1.7262951142	-0.480759
H	-0.2118411626	 1.9642542364	-1.0386696967	 0.102523
H	-1.1131948067	 1.8081823284	 0.4699465888	 0.104604
H	 0.6180597734	 2.1810579881	 0.5149877742	 0.158522
H	-0.7770891251	-0.4019065645	-0.3548808014	 0.084312
H	 1.1313921376	-1.5233167072	-1.1636596273	 0.082807
H	 3.5290755938	-1.1197055383	-0.2561935703	 0.085596
H	 4.0060602829	 0.542934715	 1.4324802891	 0.094157
H	 2.9939080691	 2.3081060286	 0.0761874719	 0.285271
H	 2.5253907007	-1.0360378839	 2.4351741098	 0.087117
H	-0.4115175041	-1.5703505821	 2.6933942871	 0.119154
H	-0.8618806032	-2.2494188238	 1.1222017868	 0.115166
H	 0.6304027757	-2.7719243468	 1.9210382362	 0.113412
71.9049	136.122	189.2839	202.3444	224.1481	236.7938	293.0743	317.6109	393.2747	514.011	549.1661	579.5749	637.5706	671.9766	685.4039	738.0742	839.3232	880.3793	913.0806	929.1104	955.7856	993.0886	998.9238	1025.6112	1072.8308	1084.1349	1099.4521	1117.4215	1129.3942	1173.9188	1213.4949	1243.9413	1278.3241	1302.0776	1306.8527	1358.6927	1372.7349	1410.6109	1413.8927	1453.6328	1477.5546	1482.4853	1497.9474	1507.4163	1518.6168	3011.1811	3024.9252	3051.505	3064.2124	3064.6193	3074.6973	3096.589	3157.1652	3164.5341	3172.9712	3202.0747	3805.8228
CC1C2C3C(O)C3C12C	C[C@H]1[C@H]2[C@H]3[C@@H](O)[C@H]3[C@@]12C	
InChI=1S/C8H12O/c1-3-5-4-6(7(4)9)8(3,5)2/h3-7,9H,1-2H3	InChI=1S/C8H12O/c1-3-5-4-6(7(4)9)8(3,5)2/h3-7,9H,1-2H3/t3-,4+,5-,6-,7+,8-/m0/s1
