16
gdb 14360	4.31364	2.24308	1.9532	2.0412	69.2	-0.2315	0.0041	0.2356	729.6934	0.131966	-346.507534	-346.501817	-346.500873	-346.536887	24.281	
C	-0.047320692	 1.5827486071	 0.0555162238	-0.253572
C	 1.438872872	 1.2348128202	 0.079978371	-0.00429
O	 1.1115435513	 0.0503757896	 0.9568764574	-0.37821
C	 0.1275012124	 0.0497393823	-0.1572434545	 0.434255
C	-0.8959118017	-0.8602121101	-0.7958342564	-0.41019
C	-0.6766567738	-0.3785721988	-2.2454203609	-0.035675
C	 0.4592783721	 0.3175493745	-2.4360506555	-0.155323
C	 1.2592849158	 0.283355731	-1.157241083	-0.029932
H	-0.469566015	 1.8617817529	 1.0211644279	 0.10332
H	-0.4297864349	 2.1771266351	-0.7754835649	 0.102804
H	 2.3015515513	 1.8228033925	 0.3951064299	 0.091913
H	-0.6525300589	-1.9256352562	-0.6915111529	 0.127472
H	-1.9223619907	-0.7107115251	-0.4468158882	 0.115564
H	-1.3959024876	-0.6081921708	-3.0248588487	 0.100978
H	 0.7851299393	 0.7082085466	-3.3935172452	 0.098094
H	 2.0256127905	-0.4987811908	-1.1568784797	 0.09279
268.3044	290.2507	407.604	446.8292	545.9911	577.3213	673.2777	696.9278	738.5465	792.3476	838.5922	882.4257	902.7397	913.3806	957.5531	970.0974	979.1912	1011.2905	1054.6102	1073.6245	1081.7433	1121.9205	1137.8275	1171.3478	1194.6337	1202.6138	1248.2076	1270.3181	1293.0793	1349.9736	1361.3563	1473.5726	1491.3207	1613.8551	3028.5898	3055.0899	3077.5871	3081.2457	3112.9186	3156.0073	3179.2664	3202.819
C1C2OC11CC=CC21	C1[C@H]2O[C@]31CC=C[C@@H]23	
InChI=1S/C7H8O/c1-2-5-6-4-7(5,3-1)8-6/h1-2,5-6H,3-4H2	InChI=1S/C7H8O/c1-2-5-6-4-7(5,3-1)8-6/h1-2,5-6H,3-4H2/t5-,6+,7-/m0/s1
