16
gdb 74161	2.55661	1.43051	0.99904	3.6446	80.97	-0.2484	-0.0297	0.2187	1174.7187	0.123165	-400.741815	-400.733311	-400.732366	-400.775033	31.629	
C	-0.0240735996	 1.4694171268	 0.0574719338	-0.497426
C	-0.001313944	-0.0157218121	-0.0491775699	 0.320831
C	-0.0435256604	-0.8077526593	-1.1217984355	-0.282755
C	 0.0059847939	-2.2126252456	-0.7100536742	 0.410819
N	-0.0193965216	-3.2329092934	-1.4569487815	-0.548879
O	 0.0770261274	-2.249129192	 0.6679289528	-0.246936
C	 0.0785799443	-0.9084009508	 1.1829958461	-0.157055
C	 1.2627314934	-0.6619702869	 2.00271484	 0.339511
C	 2.2295819336	-0.4293664721	 2.676279152	-0.462344
H	 0.8651139609	 1.8316038373	 0.5858051068	 0.152321
H	-0.0615044255	 1.937740044	-0.9282816603	 0.139793
H	-0.8938729528	 1.8092758457	 0.6334580745	 0.139214
H	-0.1072348829	-0.5142046569	-2.1595067754	 0.130089
H	 0.0287153126	-4.0874906811	-0.9003477991	 0.224748
H	-0.8204407926	-0.7874723685	 1.8062362587	 0.128436
H	 3.0871320632	-0.2377976451	 3.2735260012	 0.209635
88.7385	134.2744	148.9544	187.9695	257.5784	279.7366	396.0107	430.5614	516.9545	577.2764	587.1791	631.9326	681.2629	692.3869	723.2266	856.2261	870.1304	909.874	919.6826	990.4891	1011.1521	1050.6286	1063.4813	1087.0563	1178.4327	1241.6922	1313.2975	1325.3503	1357.4067	1414.5987	1476.3496	1484.3574	1712.7342	1765.0538	2240.5481	2992.2842	3028.4762	3080.9492	3129.4544	3247.7568	3482.3122	3499.5169
CC1=CC(=N)OC1C#C	C[C]1C=C([NH])O[C@H]1C#C	
InChI=1S/C7H7NO/c1-3-6-5(2)4-7(8)9-6/h1,4,6,8H,2H3	InChI=1S/C7H7NO/c1-3-6-5(2)4-7(8)9-6/h1,4,6,8H,2H3/t6-/m0/s1
