19
gdb 46408	3.90568	0.8002	0.70111	2.9102	82.51	-0.2433	-0.0239	0.2194	1598.4364	0.157036	-385.869454	-385.859999	-385.859055	-385.904623	34.441	
O	 0.0939624035	 0.0274090229	-0.0953963964	-0.29639
C	-0.0037481813	 1.2180305457	 0.0000521902	 0.394304
C	-1.1708102736	 2.1755885161	 0.2849808786	-0.332345
C	-0.1085435006	 3.2638044195	 0.6288736221	-0.265247
C	 1.0275434065	 2.363510498	 0.0423092445	-0.089245
C	 2.3108187911	 2.1413808892	 0.8377350269	-0.206733
C	 3.2429575835	 1.1090173173	 0.1664082346	-0.360495
C	 4.467782853	 0.884469352	 0.9233168712	 0.292169
C	 5.4685579255	 0.7194923682	 1.5685253324	-0.436836
H	-1.7430498006	 2.3942762885	-0.6226126633	 0.134058
H	-1.8680533982	 1.8635761201	 1.06621541	 0.131878
H	-0.2421595673	 4.2363681255	 0.1542748631	 0.110938
H	 0.0016472073	 3.408784844	 1.7063201783	 0.116229
H	 1.2669415879	 2.665555572	-0.9865833497	 0.101165
H	 2.8419515894	 3.0927575052	 0.9552846442	 0.113784
H	 2.0634541578	 1.7941958844	 1.8475626877	 0.113295
H	 2.6978438692	 0.1664366234	 0.0425664632	 0.162232
H	 3.4965520487	 1.4521271719	-0.8456627204	 0.124822
H	 6.3562517083	 0.5605310563	 2.1286017228	 0.192416
58.6872	72.4744	103.1169	129.8365	188.2788	268.7335	339.1625	354.8602	430.6918	514.7571	543.2261	614.263	638.4001	686.1102	735.2966	758.7181	785.4062	908.0476	932.0057	941.848	966.9152	1019.0626	1038.7401	1075.9603	1095.7968	1129.6566	1184.5211	1198.0688	1229.1922	1248.231	1258.0578	1297.2462	1313.7054	1346.4665	1379.9681	1440.475	1480.1119	1493.069	1497.3177	1878.7741	2239.0784	3018.9431	3019.6688	3037.4557	3058.3955	3063.9881	3076.0132	3084.7119	3113.9122	3135.6597	3507.6986
O=C1CCC1CCC#C	O=C1CC[C@H]1CCC#C	
InChI=1S/C8H10O/c1-2-3-4-7-5-6-8(7)9/h1,7H,3-6H2	InChI=1S/C8H10O/c1-2-3-4-7-5-6-8(7)9/h1,7H,3-6H2/t7-/m1/s1
