19
gdb 76132	2.27056	1.30614	1.1221	2.1278	73.65	-0.2329	-0.0279	0.205	1199.5608	0.15529	-460.170578	-460.160532	-460.159588	-460.205199	37.063	
C	-0.0871668008	 1.4933035484	 0.1271026997	-0.480523
C	 0.0243087668	 0.0062195169	-0.1293154642	 0.414809
O	 1.0901500203	-0.4934307075	-0.4746461721	-0.369343
C	-1.2076164478	-0.7920999721	 0.0207920043	-0.251154
C	-1.3179504754	-2.1192502026	-0.7802984262	 0.062991
O	-0.2994997819	-2.5092252754	-1.6247620015	-0.42228
C	-1.21785652	-2.1753089712	 0.7066293428	 0.313451
C	-0.0055403009	-2.7292735152	 1.4128253298	-0.459652
O	-2.4299550544	-2.3457135444	 1.3996005551	-0.452998
H	 0.8830441218	 1.9702124896	-0.0152741952	 0.143712
H	-0.821183075	 1.937886341	-0.5545784221	 0.147406
H	-0.4489476663	 1.6752477424	 1.1452065546	 0.147413
H	-2.1269583561	-0.2377064142	 0.1686330405	 0.105292
H	-2.3009128579	-2.3106788319	-1.2022603015	 0.112991
H	 0.4870625526	-1.9819517254	-1.390365911	 0.310701
H	 0.9173687704	-2.5018164491	 0.8802422668	 0.149639
H	 0.059868941	-2.3193722178	 2.4249967168	 0.126089
H	-0.0930865004	-3.8194378029	 1.4910555088	 0.114998
H	-2.6455816559	-3.2855795486	 1.3800600345	 0.286455
74.9263	129.6132	158.0167	169.6124	188.1974	238.1037	248.5738	297.0651	339.2898	384.8145	433.7026	462.5431	530.1704	590.4421	615.8264	657.7278	683.8429	815.9815	866.8302	935.8948	968.2911	981.4385	1003.9346	1048.4782	1081.0211	1092.4346	1147.7563	1190.3664	1220.4416	1302.8972	1320.6093	1367.1731	1385.2143	1401.7052	1415.8552	1462.0929	1467.3711	1474.3054	1491.4469	1504.3125	1732.7032	3036.2737	3037.1829	3098.1885	3099.6837	3150.9457	3154.4506	3158.9609	3183.2977	3576.7165	3787.8689
CC(=O)C1C(O)C1(C)O	CC(=O)[C@H]1[C@@H](O)[C@]1(C)O	
InChI=1S/C6H10O3/c1-3(7)4-5(8)6(4,2)9/h4-5,8-9H,1-2H3	InChI=1S/C6H10O3/c1-3(7)4-5(8)6(4,2)9/h4-5,8-9H,1-2H3/t4-,5+,6+/m0/s1
