18
gdb 37465	2.74086	2.17167	1.83715	2.005	72.25	-0.2225	0.0588	0.2813	836.6657	0.151381	-401.903666	-401.897609	-401.896665	-401.933715	26.128	
C	-0.018034474	 1.5723497757	 0.057206307	-0.207698
C	 1.4600789121	 1.9978568891	-0.1516496922	-0.151702
N	 2.1501254207	 0.8561741209	-0.8003733478	-0.10895
C	 2.4262851955	-0.4010864782	-0.0724147552	-0.059009
C	 1.9618967007	-0.7042247951	 1.3425418663	 0.03707
O	 1.3966542924	 0.3637972888	 2.1142306643	-0.25018
C	 0.5102632187	-0.518382238	 1.4013542616	 0.01444
C	 0.0360736907	 0.0246988452	 0.0390806443	-0.085076
C	 1.2116630928	-0.2524323974	-0.9333576595	-0.071299
H	-0.439960784	 1.964366739	 0.985554247	 0.110689
H	-0.635802721	 1.9284353961	-0.7732619673	 0.097746
H	 1.5349384512	 2.8438669694	-0.8425283383	 0.098725
H	 1.9487278875	 2.2728958097	 0.781707605	 0.129693
H	 3.3346713257	-0.8963136936	-0.4037009675	 0.090216
H	 2.5064545447	-1.4523030004	 1.9132146796	 0.097604
H	-0.1566299348	-1.1021195952	 2.0310442404	 0.097559
H	-0.9051682079	-0.436994328	-0.2652571584	 0.073793
H	 1.061558909	-0.7063944678	-1.9094728194	 0.086381
211.1541	289.0947	295.2111	474.8221	567.0569	592.1382	664.4458	715.1802	731.2404	785.345	812.4865	843.8308	860.1809	868.5299	891.6969	916.6209	937.4385	974.7501	998.1116	1018.0639	1041.2583	1049.3764	1091.733	1094.8244	1118.667	1192.7269	1210.6154	1249.6128	1260.0823	1270.7863	1283.2795	1307.1929	1323.4254	1337.5058	1345.1677	1379.2104	1431.515	1484.8007	1506.6957	3045.204	3057.9207	3095.9189	3107.3895	3133.7754	3138.9414	3142.483	3144.358	3156.5436
C1CN2C3C4OC4C1C23	C1CN2[C@H]3[C@H]4O[C@H]4[C@@H]1[C@@H]23	
InChI=1S/C7H9NO/c1-2-8-4-3(1)6-7(9-6)5(4)8/h3-7H,1-2H2	InChI=1S/C7H9NO/c1-2-8-4-3(1)6-7(9-6)5(4)8/h3-7H,1-2H2/t3-,4+,5+,6-,7+,8?/m0/s1
