16
gdb 66698	3.24561	1.71343	1.43094	3.1284	71.44	-0.2336	-0.0252	0.2084	929.5704	0.124942	-400.709416	-400.702603	-400.701659	-400.740402	27.429	
C	-0.1393603265	 1.5242566281	-0.0462576799	-0.508508
C	 0.1166541634	 0.0537840165	 0.034788791	 0.346566
C	 0.7744995981	-0.8225902512	-1.0687216725	-0.169307
C	-0.2957860296	-1.8264020923	-0.812697003	-0.016081
C	 1.1098316917	-2.1326691645	-0.3549532758	-0.22016
C	 1.1669982416	-1.8662938459	 1.1197314893	 0.482738
O	 1.8533256953	-2.3770764768	 1.9645800652	-0.333907
C	 0.1370836311	-0.7812777103	 1.2727142394	-0.246624
N	-0.9547175956	-0.9557016157	 0.2581690564	-0.19204
H	 0.7881112623	 2.09149912	 0.0882537062	 0.130553
H	-0.5631789523	 1.7895854274	-1.0210333196	 0.131298
H	-0.8487115708	 1.8302109834	 0.7275822912	 0.138637
H	 1.2485104423	-0.4961690913	-1.9831786498	 0.108938
H	-0.9009421662	-2.4467473541	-1.4587381844	 0.114644
H	 1.7097360089	-2.893768827	-0.8320742291	 0.117463
H	-0.1585588038	-0.4073939564	 2.2438903653	 0.115789
142.8423	198.8608	252.8607	284.7437	443.9698	528.3213	561.9875	607.2264	697.0981	749.3292	758.5558	782.92	825.1859	840.6431	872.1844	901.4474	914.4281	969.4737	991.7881	1016.7308	1041.1846	1051.4069	1066.4608	1097.9682	1159.2052	1179.3002	1232.4097	1269.3113	1279.2156	1343.8309	1395.5541	1427.4572	1479.4945	1490.8218	1859.8569	3031.9581	3095.685	3118.3743	3210.4154	3213.9773	3222.0495	3236.7104
CC12C3C4C3C(=O)C1N24	C[C@@]12[C@@H]3[C@H]4[C@@H]3C(=O)[C@@H]1N24	
InChI=1S/C7H7NO/c1-7-3-2-4(3)8(7)6(7)5(2)9/h2-4,6H,1H3	InChI=1S/C7H7NO/c1-7-3-2-4(3)8(7)6(7)5(2)9/h2-4,6H,1H3/t2-,3+,4-,6+,7-,8?/m1/s1
