18
gdb 77045	3.03125	1.00991	0.84523	3.4531	76.59	-0.2528	-0.0327	0.2202	1356.9974	0.146172	-401.977259	-401.968037	-401.967093	-402.012044	33.089	
C	-0.5201460508	 1.4382724462	 0.1192661076	-0.418278
C	 0.0181500694	 0.0160541766	 0.046424686	-0.110251
C	 0.6073547218	-0.611625035	-1.2707730213	-0.030223
C	 1.0645936856	 0.4197397328	-2.3151747306	-0.360048
C	 1.7506953821	-0.2122537986	-3.4409268175	 0.266974
N	 2.290647276	-0.7316037462	-4.3206939182	-0.300732
C	 1.7831694768	-1.2273489516	-0.4485390548	-0.351954
C	 1.365040973	-0.3130042443	 0.7151772407	 0.389745
O	 1.9116936119	 0.0889927553	 1.6999753802	-0.289742
H	 0.1967372954	 2.1692899141	-0.2659744975	 0.125159
H	-1.4533210311	 1.5438348594	-0.4429609927	 0.125019
H	-0.7222313243	 1.7019934056	 1.1612165578	 0.143373
H	-0.726893783	-0.6819896591	 0.4506823644	 0.114308
H	-0.0462328845	-1.3417811764	-1.7499356198	 0.099273
H	 0.2078274647	 0.9834282689	-2.7008437484	 0.156879
H	 1.7461965734	 1.1519313143	-1.8651954903	 0.156566
H	 1.6357203788	-2.2845820485	-0.2085909567	 0.140719
H	 2.7979203049	-1.0990044137	-0.8341184688	 0.143212
54.2253	79.839	124.9267	177.4042	193.6152	223.2013	345.5615	399.37	405.3087	473.0637	521.1279	545.9322	695.8393	729.8884	825.307	835.3263	884.5642	937.658	961.7212	1009.3913	1021.7071	1070.1625	1105.3426	1138.9797	1160.8291	1194.4596	1222.3523	1244.8899	1278.1439	1317.2626	1340.6287	1383.1256	1408.8246	1442.3472	1466.9833	1494.1174	1498.462	1893.0508	2362.6808	3027.4469	3036.8663	3041.8334	3064.1823	3077.371	3101.8128	3109.0537	3116.2757	3119.7457
CC1C(CC#N)CC1=O	C[C@H]1[C@@H](CC#N)CC1=O	
InChI=1S/C7H9NO/c1-5-6(2-3-8)4-7(5)9/h5-6H,2,4H2,1H3	InChI=1S/C7H9NO/c1-5-6(2-3-8)4-7(5)9/h5-6H,2,4H2,1H3/t5-,6-/m0/s1
