16
gdb 125263	7.05332	0.82924	0.7484	4.9546	76.15	-0.23	0.0066	0.2366	1474.6368	0.124834	-434.090407	-434.081619	-434.080675	-434.125231	30.64	
C	-0.0882663532	 1.4727377978	 0.0809739212	-0.501575
C	 0.0237857162	-0.0079250637	-0.0780179949	 0.413603
C	-0.0330076403	-0.8145773969	-1.1983040254	-0.44138
C	 0.1490188403	-2.1193305144	-0.6958975966	 0.477299
O	 0.1785929769	-3.2303620692	-1.4795360009	-0.220787
C	-0.0074327922	-4.4466131223	-0.89321444	 0.113729
N	 0.1570259362	-5.4809277952	-1.5933211413	-0.434916
N	 0.3132079569	-2.1514239631	 0.616752376	-0.321155
N	 0.2220288853	-0.8446866855	 0.9715281222	-0.268126
H	 0.8453130773	 1.9128235524	 0.4496585282	 0.142197
H	-0.3182135839	 1.9357295909	-0.8803334634	 0.148915
H	-0.8834844101	 1.745364041	 0.7836695903	 0.139083
H	-0.1864342512	-0.5162241829	-2.2214065548	 0.117409
H	-0.2988158645	-4.3769799835	 0.1567400762	 0.130754
H	-0.0426649972	-6.3071056284	-1.0323862317	 0.232384
H	 0.3281539935	-0.6018091571	 1.9413946049	 0.272565
48.381	55.1018	88.9084	164.6295	216.4132	306.6816	369.4544	434.1603	450.4755	510.4826	661.9677	677.9135	717.5661	794.0502	819.3332	840.5341	985.5202	1004.7194	1040.9239	1056.0094	1062.0697	1066.2806	1174.7866	1209.4225	1276.8026	1306.9178	1405.1203	1413.361	1436.407	1477.1457	1483.0541	1515.8088	1524.9184	1615.6451	1744.6559	3033.6052	3085.2006	3114.6231	3134.9078	3280.2193	3513.7544	3677.8487
CC1=CC(OC=N)=NN1	Cc1cc(O[CH][NH])n[nH]1	
InChI=1S/C5H7N3O/c1-4-2-5(8-7-4)9-3-6/h2-3,6H,1H3,(H,7,8)	InChI=1S/C5H7N3O/c1-4-2-5(8-7-4)9-3-6/h2-3,6H,1H3,(H,7,8)
