21
gdb 63999	3.12253	1.03895	0.94577	3.4095	87.13	-0.2467	-0.0526	0.1941	1346.7	0.181384	-387.131639	-387.122405	-387.121461	-387.165466	35.196	
C	-0.5265320848	 1.588784808	-0.1287627686	-0.440244
C	 0.0768447657	 0.1862831307	 0.0003417367	 0.310574
C	-1.0443659988	-0.8662342405	 0.0423251078	-0.42056
C	 1.0497263824	-0.1484361134	-1.1779759575	-0.294903
C	 2.1605454803	-0.9217536621	-0.5273815216	-0.147977
C	 2.1228340987	-0.8233460866	 0.8099608577	 0.250143
C	 0.9723671313	 0.0381489255	 1.2718323973	-0.352703
C	 3.0946621276	-1.4463223497	 1.7093883169	 0.06467
O	 3.0763654344	-1.339099372	 2.9165306919	-0.273109
H	 0.2544357298	 2.3561353431	-0.1621982386	 0.111183
H	-1.1252802759	 1.6797688242	-1.0421323038	 0.11181
H	-1.1814878037	 1.8154654866	 0.7196206066	 0.116414
H	-1.6494563579	-0.8339562117	-0.8705514017	 0.109984
H	-0.6334762471	-1.8769343426	 0.1387120161	 0.116269
H	-1.7115371615	-0.6930826157	 0.8933934993	 0.115437
H	 0.556673119	-0.7060090444	-1.9835291348	 0.109347
H	 1.4521058426	 0.763623038	-1.6430655211	 0.113623
H	 2.9156098254	-1.4688261561	-1.0840682693	 0.107177
H	 1.3450100957	 1.0096255427	 1.6218015154	 0.1112
H	 0.4346900617	-0.4041824501	 2.1164335547	 0.117763
H	 3.8791738651	-2.0483031039	 1.1969605764	 0.063902
71.4434	118.1491	163.4528	243.8426	271.427	285.7433	319.7418	328.8971	399.7476	408.7876	443.2443	479.9805	597.3632	724.0512	771.0326	831.3754	879.6255	905.5253	921.8177	947.9985	953.5757	986.0465	997.7334	1034.6461	1047.7153	1119.3379	1155.8938	1200.4107	1213.0935	1240.5014	1276.1653	1291.6315	1334.757	1367.6026	1400.9554	1418.8461	1422.5061	1470.758	1482.1221	1484.9425	1495.9318	1505.0284	1507.081	1681.6742	1783.0931	2871.4934	3001.0058	3021.9825	3024.5956	3029.3992	3048.1604	3075.3346	3090.2894	3094.0874	3095.7799	3099.3183	3181.4731
CC1(C)CC=C(C1)C=O	CC1(C)CC=C(C1)C=O	
InChI=1S/C8H12O/c1-8(2)4-3-7(5-8)6-9/h3,6H,4-5H2,1-2H3	InChI=1S/C8H12O/c1-8(2)4-3-7(5-8)6-9/h3,6H,4-5H2,1-2H3
