17
gdb 65370	3.35725	0.95109	0.92737	2.2268	75.1	-0.2492	0.0091	0.2584	1318.2213	0.135505	-417.966766	-417.957986	-417.957042	-418.000671	32.407	
O	-0.1274958469	 1.3502392684	-0.3717891448	-0.440938
C	-0.0187687279	 0.0074660832	-0.0098574347	 0.236057
C	-0.179176335	-0.3785086804	 1.450922645	-0.354397
C	-1.2970320243	-0.6555253199	 0.4744924992	-0.071716
C	-2.5684846933	 0.1283138467	 0.513327082	 0.023076
C	-3.7250653031	-0.2964548622	-0.3131912074	-0.245178
N	-3.7622342816	-0.4542928221	 1.1521186774	-0.325462
C	 0.8879595301	-0.7700672311	-0.8286863137	 0.247459
N	 1.6260882679	-1.3801876056	-1.4776658056	-0.340739
H	 0.6996840346	 1.7933880985	-0.1496050609	 0.30028
H	 0.4045413642	-1.2064300048	 1.8356545001	 0.14027
H	-0.3105219083	 0.4576364478	 2.1295436612	 0.137185
H	-1.4137499354	-1.6918303685	 0.168350998	 0.112657
H	-2.4400246599	 1.1869556656	 0.7146384302	 0.108371
H	-4.4091107131	 0.4464051569	-0.7125296	 0.126822
H	-3.6085214136	-1.1822631356	-0.9328061969	 0.115706
H	-3.5858685144	-1.4257545469	 1.3995729307	 0.230548
64.23	105.3608	132.2627	205.2261	263.4674	309.6771	344.0671	370.2215	437.7356	472.7273	580.9455	616.4205	704.0135	783.3837	849.0878	883.1478	889.3042	924.46	951.4226	962.7334	1039.2285	1063.0139	1078.645	1099.8725	1136.5428	1161.3125	1222.6604	1248.7697	1251.571	1266.9077	1299.4416	1327.1046	1368.6511	1450.6949	1480.9565	1514.261	2346.6334	3109.2345	3138.7337	3145.7159	3165.0721	3196.1208	3235.2614	3489.408	3794.0067
OC1(CC1C1CN1)C#N	O[C@]1(C[C@H]1[C@H]1CN1)C#N	
InChI=1S/C6H8N2O/c7-3-6(9)1-4(6)5-2-8-5/h4-5,8-9H,1-2H2	InChI=1S/C6H8N2O/c7-3-6(9)1-4(6)5-2-8-5/h4-5,8-9H,1-2H2/t4-,5+,6+/m0/s1
