12
gdb 43506	3.81778	1.1099	0.86451	1.2017	71.38	-0.2589	-0.1319	0.1269	1196.9271	0.077291	-435.53535	-435.527856	-435.526911	-435.567934	26.733	
O	-0.0204767863	 0.0187254967	 0.0028062295	-0.257851
C	-0.0408715255	 1.2155678938	 0.011682702	 0.309955
C	-1.2698032885	 2.1256419791	 0.0324992027	-0.42919
C	-0.6596841282	 3.5145113691	 0.032714686	 0.167018
C	 0.690020833	 3.5197107033	 0.0146152364	-0.268347
C	 1.2138158757	 2.1396138751	 0.0000358961	 0.312698
O	 2.3578272675	 1.765080746	-0.0187389369	-0.281905
C	-1.4766992503	 4.6773832436	 0.0497317454	 0.246493
N	-2.1692819724	 5.6055510718	 0.0636078754	-0.302797
H	-1.9076455257	 1.9503373243	-0.8408761986	 0.17275
H	-1.8851967511	 1.9401844134	 0.9197734686	 0.172657
H	 1.3188833018	 4.3996939041	 0.0108706735	 0.158517
85.4184	125.3946	145.9171	311.7395	319.4804	397.9584	464.4946	483.2365	577.3042	592.6522	651.12	712.6361	722.8329	873.9003	915.6169	965.5768	1055.6229	1125.0328	1153.5608	1195.2744	1255.0269	1318.0971	1438.0928	1628.8532	1823.2113	1870.9845	2338.1457	3052.7921	3090.4013	3236.3083
O=C1CC(=CC1=O)C#N	O=C1CC(=CC1=O)C#N	
InChI=1S/C6H3NO2/c7-3-4-1-5(8)6(9)2-4/h1H,2H2	InChI=1S/C6H3NO2/c7-3-4-1-5(8)6(9)2-4/h1H,2H2
