16
gdb 44705	3.19456	1.35616	1.15272	4.2983	69.23	-0.2516	-0.0358	0.2157	1060.4327	0.125457	-437.941389	-437.933983	-437.933039	-437.973868	28.349	
O	-0.0053317138	-0.018184703	-0.3872211073	-0.282222
C	-0.0512269006	 1.1438551799	-0.1144971988	 0.396465
C	-1.185958495	 2.1241929002	 0.2333340546	-0.354051
C	-0.0902840267	 3.1315110113	 0.7041190348	-0.023455
N	 0.2074017165	 3.1025062411	 2.114093851	-0.297109
C	 1.3774349299	 2.4860402068	 2.4939444044	 0.401007
O	 1.7853983176	 2.390630928	 3.6273709843	-0.364185
C	 2.0547381153	 1.9571868885	 1.2194846439	-0.355774
C	 1.0385725404	 2.2180769713	 0.1077226643	-0.141177
H	-1.7178549402	 2.4554081059	-0.6652983978	 0.135867
H	-1.9141679521	 1.788430365	 0.9752687798	 0.135549
H	-0.18292971	 4.1481128722	 0.3142537186	 0.090489
H	-0.3797762603	 3.528075696	 2.8143828322	 0.253801
H	 2.996943032	 2.4925741026	 1.0714311914	 0.137584
H	 2.2948074722	 0.8981136592	 1.3406922315	 0.154984
H	 1.470653665	 2.565388055	-0.8328842469	 0.112228
63.8667	99.577	203.7399	360.7458	422.8051	472.05	479.3046	530.3741	595.3222	608.9606	650.4396	737.3053	758.7336	844.8581	862.2519	913.5007	935.713	989.5867	1037.2619	1060.3741	1070.9329	1123.4176	1155.8975	1181.4451	1221.9657	1242.1312	1259.0403	1282.9409	1304.2632	1372.859	1418.3661	1436.447	1468.4079	1835.9494	1898.4714	3054.3864	3069.2022	3073.4783	3098.1474	3116.8564	3120.8234	3637.1276
O=C1CC2NC(=O)CC12	O=C1C[C@H]2NC(=O)C[C@@H]12	
InChI=1S/C6H7NO2/c8-5-2-4-3(5)1-6(9)7-4/h3-4H,1-2H2,(H,7,9)	InChI=1S/C6H7NO2/c8-5-2-4-3(5)1-6(9)7-4/h3-4H,1-2H2,(H,7,9)/t3-,4-/m1/s1
