19
gdb 39271	2.47243	2.22322	1.54924	2.0453	73.97	-0.2334	0.072	0.3054	914.63	0.162159	-423.000621	-422.993879	-422.992935	-423.031405	28.335	
C	 0.0084177063	 1.4453324962	-0.0825299468	-0.424193
C	 1.3532862378	 0.7493819058	 0.0105140849	 0.051177
O	 2.1139313355	 0.4704110147	-1.1225992536	-0.240511
C	 2.2886471401	-0.9449925267	-1.260364608	-0.087702
C	 0.9545519471	-1.7126797425	-0.9783010136	 0.060496
C	 0.7529418175	-2.2139048909	 0.49035879	-0.232789
C	-0.1002741683	-1.0769482584	 1.1463616447	-0.298457
C	 0.0677963384	-0.0389827876	 0.062507	 0.398222
O	-0.091012373	-0.7536016737	-1.1476824395	-0.266858
H	-0.2822149582	 2.0538664036	 0.7669959511	 0.119884
H	-0.315797599	 1.8102816481	-1.0504292415	 0.137158
H	 1.9243106193	 0.8896284875	 0.9296183523	 0.079268
H	 2.6064242079	-1.0995970454	-2.2950050312	 0.112624
H	 3.0926630694	-1.3003270305	-0.5972931852	 0.08838
H	 0.8202335727	-2.5105988428	-1.7115403801	 0.082915
H	 0.227732712	-3.1716540626	 0.50542579	 0.108026
H	 1.7088602014	-2.3524351864	 1.0029741783	 0.103006
H	-1.1434449687	-1.3813196773	 1.2710184872	 0.107225
H	 0.2881379518	-0.7555069412	 2.1153709211	 0.102129
142.0358	243.9635	326.4241	353.2562	403.5786	487.1277	542.7926	570.24	650.1837	738.7176	778.0786	825.4952	845.7486	860.9572	864.8263	920.2447	930.6831	953.1996	1014.5794	1025.3277	1038.0263	1054.1592	1075.5021	1091.3562	1104.9135	1148.9459	1182.6329	1205.0371	1227.2051	1252.6185	1272.8955	1302.2923	1330.7424	1334.4078	1351.5957	1383.5361	1414.6826	1475.1492	1482.4742	1499.7634	1510.2065	2983.8375	3057.0942	3064.8589	3082.2024	3086.0032	3095.2563	3105.0424	3118.8543	3138.3977	3232.4238
C1C2OCC3CCC12O3	C1[C@@H]2OC[C@H]3CC[C@@]12O3	
InChI=1S/C7H10O2/c1-2-7-3-6(7)8-4-5(1)9-7/h5-6H,1-4H2	InChI=1S/C7H10O2/c1-2-7-3-6(7)8-4-5(1)9-7/h5-6H,1-4H2/t5-,6+,7-/m1/s1
