23
gdb 87518	3.15882	1.329	1.24082	0.1384	89.66	-0.2601	0.0907	0.3508	1161.4977	0.207966	-351.136692	-351.12858	-351.127636	-351.168869	33.33	
C	-0.0544873203	 1.51697939	-0.0417900891	-0.405136
C	 0.0324310325	 0.0073432499	 0.0269058806	-0.110636
C	 1.3660947253	-0.6926600165	-0.2122158522	-0.401959
C	 0.7344406873	-0.6953913523	 1.1431451731	 0.469875
C	 1.2074284914	-0.1259337518	 2.495699489	-0.103786
C	-0.0897442069	-0.7658023854	 3.0767813202	-0.221291
C	 0.2053396113	-1.8575187838	 2.0041321996	-0.103518
C	 1.5190776836	-2.4757085256	 2.5293168003	-0.207998
C	 2.2817894666	-1.1578353591	 2.9034902632	-0.206711
H	 0.8526468457	 1.9835603521	 0.3556478142	 0.113752
H	-0.175952145	 1.8586387712	-1.0758476461	 0.114666
H	-0.9036864147	 1.8988141238	 0.5365448288	 0.11419
H	-0.8364942524	-0.5072925526	-0.3800898209	 0.078657
H	 1.3714803008	-1.6117709125	-0.7909818462	 0.104706
H	 2.2364178435	-0.0621998942	-0.3750569765	 0.104374
H	 1.4427249209	 0.9296899395	 2.6346737608	 0.056706
H	-0.0846385593	-1.0671085496	 4.1292123232	 0.081251
H	-0.9847208363	-0.1839490475	 2.8485501547	 0.097072
H	-0.5675137541	-2.5370171637	 1.6418180842	 0.054507
H	 1.3555387052	-3.1292393156	 3.391378372	 0.091052
H	 2.0391158627	-3.0539081907	 1.7605273998	 0.094614
H	 3.2071529392	-1.0361952666	 2.333727292	 0.094635
H	 2.5292391028	-1.0997032293	 3.9675840155	 0.09098
138.5867	145.3414	201.8942	230.0584	287.9427	362.7335	406.9888	434.6364	561.4884	588.912	664.9965	805.1994	820.0758	838.317	844.7809	867.6363	894.7069	903.7225	930.0877	942.1019	965.3478	1001.3187	1004.2888	1008.7177	1034.6017	1050.7809	1092.1058	1111.1918	1129.0158	1137.8442	1148.2452	1177.9633	1200.6315	1219.4612	1231.9424	1251.5355	1257.9711	1263.9896	1309.2289	1318.7347	1355.5481	1411.4222	1433.813	1488.5947	1491.1914	1493.4325	1496.6761	1507.8272	1521.0386	3024.7979	3047.7464	3048.5961	3057.4971	3084.271	3085.9687	3093.4336	3103.0982	3104.6187	3108.4449	3110.5032	3119.2201	3121.8287	3192.0042
CC1CC11C2CC1CC2	C[C@H]1C[C@]21[C@H]1C[C@@H]2CC1	
InChI=1S/C9H14/c1-6-5-9(6)7-2-3-8(9)4-7/h6-8H,2-5H2,1H3	InChI=1S/C9H14/c1-6-5-9(6)7-2-3-8(9)4-7/h6-8H,2-5H2,1H3/t6-,7-,8+,9+/m0/s1
