20
gdb 104149	2.68842	1.22313	1.06558	2.1921	76.42	-0.2449	0.019	0.2639	1236.8208	0.170255	-440.315511	-440.306031	-440.305087	-440.349911	34.977	
C	-0.0750824516	 1.4433373065	-0.076767427	-0.475186
C	-0.1018603111	-0.046883344	-0.0784751978	 0.405157
N	-1.0977557495	-0.7884531631	 0.1942770699	-0.352911
C	-0.6528316658	-2.1944946266	 0.0553014938	 0.243496
C	-0.8455141296	-2.9398590567	 1.3790070708	-0.42267
C	-1.5091005108	-2.8260391922	-1.0607519171	-0.075818
O	-2.8863890189	-2.7251046816	-0.7781669042	-0.42376
C	 0.8391189591	-2.0622422779	-0.3580996078	-0.161125
O	 1.0777693682	-0.6386414963	-0.4073228454	-0.253027
H	 0.6728374864	 1.8060062003	 0.6351882785	 0.148225
H	 0.2092831264	 1.8174354077	-1.0651207835	 0.14783
H	-1.0567186083	 1.8297715772	 0.1943445343	 0.151455
H	-1.9089262055	-3.0090984999	 1.6160787465	 0.138674
H	-0.441440594	-3.9560386605	 1.3090686654	 0.110517
H	-0.3356769984	-2.4194588058	 2.1949151552	 0.113696
H	-1.2559477903	-2.3361995139	-2.0163710752	 0.078945
H	-1.2767108265	-3.8929500139	-1.1614009301	 0.101857
H	-3.0265232416	-1.8055547488	-0.514691498	 0.293295
H	 1.5272887839	-2.5013402733	 0.3697754304	 0.116196
H	 1.0544209379	-2.4798080371	-1.347510689	 0.115153
58.1856	129.484	140.6889	167.0786	226.6488	244.5235	297.213	330.6094	358.6657	433.9754	487.6594	506.5996	619.538	649.1428	709.8698	831.7805	895.1361	920.6092	941.8201	970.2718	984.5562	1020.4281	1058.0685	1066.8998	1089.6189	1155.9891	1185.3771	1199.7993	1250.0516	1278.672	1291.0053	1377.508	1385.7081	1404.7156	1414.2991	1441.3691	1474.8626	1476.1696	1483.526	1497.6115	1505.5519	1520.5015	1735.1275	2958.0202	3035.7233	3042.2317	3052.4634	3056.4765	3090.5362	3105.1713	3110.3922	3138.0065	3167.3704	3759.8784
CC1=NC(C)(CO)CO1	CC1=N[C@@](C)(CO)CO1	
InChI=1S/C6H11NO2/c1-5-7-6(2,3-8)4-9-5/h8H,3-4H2,1-2H3	InChI=1S/C6H11NO2/c1-5-7-6(2,3-8)4-9-5/h8H,3-4H2,1-2H3/t6-/m0/s1
