20
gdb 77992	2.22059	1.45742	1.04917	1.5817	87.93	-0.2379	0.0331	0.2711	1230.3326	0.16885	-365.935697	-365.926425	-365.925481	-365.969252	35.605	
C	-0.0676233777	 1.5682499478	-0.0096257052	-0.410712
C	-0.0060554182	 0.0451974341	-0.013475329	 0.008598
C	 1.079430244	-0.5570586025	-0.9604062179	-0.322377
C	 1.8316865448	-1.1201616823	 0.270627883	 0.155801
C	 3.2518891403	-1.1791079913	 0.3968072041	 0.216395
C	 4.4532073902	-1.208936587	 0.457906902	-0.38991
C	 0.7564904439	-0.546303237	 1.1924144	-0.110805
N	 0.9901763254	-1.9632268167	 1.1056026656	-0.122142
C	 0.0288906367	-2.9068446486	 0.5557607841	-0.323669
H	 0.9269314825	 2.002729152	 0.1411430433	 0.12237
H	-0.46081813	 1.948947542	-0.9579373451	 0.118203
H	-0.7164400093	 1.9336670439	 0.7939775696	 0.116982
H	-1.0128572635	-0.3650587419	-0.1478154894	 0.073736
H	 0.7603170939	-1.2922711853	-1.7047351405	 0.100757
H	 1.6585768263	 0.220602981	-1.4624008587	 0.116551
H	 5.5120285338	-1.2431624452	 0.5269565479	 0.185531
H	 0.8780973064	-0.0606735621	 2.1565015112	 0.099439
H	-0.5256154539	-2.5561130994	-0.324910238	 0.107728
H	 0.5601095609	-3.8232168081	 0.2826925935	 0.130916
H	-0.6955598064	-3.1550306734	 1.3375372697	 0.126608
100.3626	138.9623	160.3804	191.5505	238.0373	259.591	296.2255	354.9143	432.4726	494.3261	515.367	570.2913	581.3548	596.9435	649.6522	735.6011	746.2631	859.0291	903.6388	917.9012	958.4349	986.052	1034.7427	1073.7514	1084.873	1110.8323	1149.6999	1174.8225	1189.7012	1213.1652	1234.3103	1259.857	1273.3928	1362.4588	1399.7689	1412.4025	1448.3223	1478.9453	1492.5048	1497.1517	1499.224	1503.2048	2235.3313	3010.9834	3027.1918	3040.4691	3059.0111	3080.3946	3095.0271	3099.9135	3110.5327	3118.5958	3154.7666	3503.665
CC1CC2(C#C)C1N2C	C[C@H]1C[C@@]2(C#C)[C@@H]1N2C	
InChI=1S/C8H11N/c1-4-8-5-6(2)7(8)9(8)3/h1,6-7H,5H2,2-3H3	InChI=1S/C8H11N/c1-4-8-5-6(2)7(8)9(8)3/h1,6-7H,5H2,2-3H3/t6-,7+,8-,9?/m0/s1
