20
gdb 63825	3.16178	1.48019	1.32427	2.2525	77.75	-0.2125	0.0667	0.2792	1043.3631	0.170719	-403.069912	-403.061861	-403.060917	-403.101791	32.822	
C	-0.3443929873	 1.6051428349	-0.1140548403	-0.464467
C	-0.0228984045	 0.1194708454	-0.0720163143	 0.378507
O	-1.2241583357	-0.6423575704	-0.1112714114	-0.474894
C	 1.0738289282	-0.4653862013	-1.0292714403	-0.24365
N	 1.7332523596	-1.1750662218	 0.117718836	-0.123946
C	 2.9085676522	-0.5364384167	 0.7544925873	-0.005958
C	 2.9001680538	 0.9616217029	 0.7678048624	-0.300571
C	 2.0205308692	 0.2235306558	 1.7482581644	-0.100559
C	 0.826235845	-0.4783639931	 1.0883724126	 0.00784
H	-0.8056286881	 1.8680347576	-1.0747968928	 0.106657
H	-1.0576594693	 1.8485207826	 0.6793053428	 0.128585
H	 0.5382648723	 2.2338616966	 0.0142686403	 0.125622
H	-1.6856276028	-0.4255154014	-0.9290369616	 0.274632
H	 0.675968773	-1.1662233699	-1.7690874633	 0.098773
H	 1.7045543979	 0.2719606685	-1.5370129112	 0.097031
H	 3.812668607	-1.1136759084	 0.9140663408	 0.094368
H	 3.7822891925	 1.3990099433	 1.2264447677	 0.115102
H	 2.509110079	 1.5504870147	-0.0537540786	 0.109014
H	 2.1390903805	 0.3488464766	 2.8173326985	 0.090837
H	 0.2560534875	-1.123587796	 1.7619453609	 0.087077
168.728	183.4984	200.3332	263.4057	308.4643	351.892	381.1665	391.9515	501.3247	546.4854	622.8728	715.8158	746.6021	765.7611	843.6555	875.024	897.8212	933.728	948.4182	959.5533	981.4485	1011.104	1028.2548	1032.0771	1064.5436	1078.4539	1105.9304	1117.6069	1171.5409	1181.5755	1195.4558	1214.5723	1229.825	1278.5955	1289.2498	1313.4853	1343.48	1376.1362	1409.468	1474.7617	1487.6339	1492.7971	1505.0596	3026.2549	3037.2469	3073.5899	3089.8488	3095.6554	3129.7508	3137.722	3164.975	3186.837	3207.7457	3797.5894
CC1(O)CN2C3CC3C12	C[C@@]1(O)CN2[C@H]3C[C@H]3[C@@H]12	
InChI=1S/C7H11NO/c1-7(9)3-8-5-2-4(5)6(7)8/h4-6,9H,2-3H2,1H3	InChI=1S/C7H11NO/c1-7(9)3-8-5-2-4(5)6(7)8/h4-6,9H,2-3H2,1H3/t4-,5+,6+,7-/m1/s1
