14
gdb 16803	3.91294	2.0135	1.44	6.7651	66.11	-0.2272	-0.0217	0.2055	827.4754	0.109	-378.737214	-378.730596	-378.729652	-378.767679	25.865	
N	 0.073140966	 1.3421214685	 0.111439526	-0.594555
C	-0.0181529465	-0.011116034	 0.0245055359	 0.391555
C	-1.1134934941	-0.8123413147	 0.024500181	-0.343412
C	-0.6971987464	-2.2119392719	-0.0119286415	 0.380035
O	-1.3588804648	-3.2138691059	-0.1010748991	-0.344771
N	 0.7758880629	-2.2512891414	 0.0608948142	-0.128777
C	 1.4033322311	-1.7604657	-1.1739173042	-0.239807
C	 1.2115133854	-0.8577362214	 0.0035470167	-0.127549
H	 0.9291463131	 1.78826667	-0.1742236268	 0.264699
H	-0.7611432137	 1.8941103669	-0.003604883	 0.26787
H	-2.1495617755	-0.5083752572	-0.0186986706	 0.1029
H	 2.391447306	-2.160884367	-1.3850096732	 0.129312
H	 0.7657379777	-1.6001696557	-2.0399360864	 0.131213
H	 2.0582112289	-0.5709812864	 0.6218134908	 0.111286
160.4004	230.3354	300.8056	349.1773	360.244	470.7102	496.2163	604.7681	640.6058	677.6314	766.9124	771.995	823.9919	846.8647	890.5325	946.304	1029.2718	1070.8505	1081.8071	1105.4455	1143.2456	1155.2331	1251.1025	1274.2179	1326.2136	1432.3926	1495.5533	1633.3461	1683.7089	1837.4169	3104.2051	3146.0684	3197.5869	3234.6061	3596.7221	3708.9968
NC1=CC(=O)N2CC12	NC1=CC(=O)N2C[C@@H]12	
InChI=1S/C5H6N2O/c6-3-1-5(8)7-2-4(3)7/h1,4H,2,6H2	InChI=1S/C5H6N2O/c6-3-1-5(8)7-2-4(3)7/h1,4H,2,6H2/t4-,7?/m0/s1
