20
gdb 6276	3.67639	1.0194	0.95988	3.0265	76.11	-0.2684	0.0279	0.2964	1306.8557	0.176317	-345.203826	-345.193999	-345.193055	-345.238784	35.224	
C	-0.0471314811	 1.5599401526	-0.0625474632	-0.391271
C	 0.0229611636	 0.0270058431	-0.0331325728	 0.04143
C	 0.74879041	-0.5075285662	-1.2752942499	-0.395564
C	 0.710455536	-0.5035406583	 1.2377769124	-0.167736
C	-0.0334099988	-0.1846235151	 2.5509892672	-0.145688
N	-1.385413027	-0.7495395465	 2.5382010301	-0.491683
C	 0.7696467295	-0.6421663708	 3.7073452718	 0.256415
N	 1.3642422951	-1.0283232679	 4.6211425524	-0.324252
H	 0.9545145519	 2.0027976251	 0.0004339185	 0.112503
H	-0.503478894	 1.9067248448	-0.995128444	 0.116027
H	-0.6474130998	 1.9630841555	 0.7587414084	 0.117065
H	-1.0026978091	-0.3589103328	-0.0381002071	 0.097015
H	 1.7849585743	-0.1499832986	-1.3130669452	 0.11379
H	 0.7746947871	-1.6023373494	-1.2850260624	 0.111381
H	 0.2513143204	-0.1760623266	-2.1923373703	 0.113822
H	 0.8205131019	-1.5934690234	 1.1677046396	 0.104648
H	 1.7267758499	-0.0972734981	 1.3099570113	 0.114485
H	-0.1345297384	 0.9021488344	 2.647966821	 0.132639
H	-1.3318194305	-1.7647044234	 2.5206304051	 0.240273
H	-1.877146441	-0.5023816886	 3.3916498172	 0.2447
38.4143	98.3015	125.3621	205.7328	223.5198	241.9419	260.5007	292.4982	337.7109	371.4497	420.7744	449.3259	567.1382	587.3045	812.836	838.1978	879.3124	926.1232	942.635	957.9503	970.3242	983.8971	1079.4727	1125.6735	1160.2015	1191.155	1215.4768	1287.4089	1307.1672	1338.4881	1377.5502	1386.1513	1395.3816	1401.6667	1422.2055	1477.6738	1488.6312	1495.0507	1504.5143	1512.0282	1662.2035	2342.649	3021.3496	3023.3499	3028.2966	3043.0795	3052.9296	3070.3575	3088.7824	3096.7705	3100.7742	3103.6121	3491.1872	3571.6015
CC(C)CC(N)C#N	CC(C)C[C@@H](N)C#N	
InChI=1S/C6H12N2/c1-5(2)3-6(8)4-7/h5-6H,3,8H2,1-2H3	InChI=1S/C6H12N2/c1-5(2)3-6(8)4-7/h5-6H,3,8H2,1-2H3/t6-/m1/s1
