18
gdb 62749	2.48974	1.56006	1.26309	2.9507	74.07	-0.246	0.0197	0.2657	1065.0803	0.145125	-439.05879	-439.049634	-439.04869	-439.092026	34.537	
C	-0.0046274575	 1.5603428818	 0.0410013258	-0.466129
C	 0.0692301168	 0.0529030622	 0.0620359228	 0.314592
O	-1.0777584248	-0.5962419451	-0.419824831	-0.456217
C	 1.3263324868	-0.7343309039	-0.1626971969	-0.038188
O	 2.467119944	-0.014225315	 0.36798462	-0.27443
C	 1.9252733489	-0.1060754244	 1.6531292614	 0.387209
N	 2.4094062128	 0.2237526734	 2.7605468895	-0.557558
C	 0.667032922	-0.7844028704	 1.2112825243	 0.141469
C	-0.0857180534	-1.824944632	 1.9849526928	-0.500675
H	 0.920377708	 2.0140409705	 0.399532703	 0.148951
H	-0.1756554826	 1.9158166126	-0.9829917227	 0.109997
H	-0.8343487976	 1.9060761105	 0.6642607018	 0.134996
H	-1.2190225397	-0.3074027674	-1.3284219951	 0.290241
H	 1.5037292759	-1.4908983304	-0.9158233969	 0.12285
H	 3.3400198014	 0.6307826958	 2.6530378547	 0.229797
H	-0.4887474621	-1.3900549541	 2.9052203665	 0.139713
H	-0.9168358807	-2.2140184584	 1.395061318	 0.144932
H	 0.5696015919	-2.6540081957	 2.2687654622	 0.128448
129.6044	153.7649	177.0214	195.3256	246.8299	251.3197	276.3094	299.0143	399.0622	408.5974	519.3521	542.4678	621.9847	676.4883	731.6859	761.0218	863.9539	874.9032	905.9889	941.6984	976.7886	991.3105	1008.3688	1079.2765	1110.4757	1155.5467	1166.5124	1217.2735	1268.0868	1290.497	1330.0073	1411.6542	1415.2646	1457.293	1486.5647	1491.623	1493.0663	1499.4997	1826.3749	3029.2809	3045.1113	3098.3124	3103.6794	3144.7896	3145.2201	3206.8502	3478.6728	3798.8611
CC1(O)C2OC(=N)C12C	C[C@@]1(O)[C@H]2O[C]([NH])[C@@]12C	
InChI=1S/C6H9NO2/c1-5-3(6(5,2)8)9-4(5)7/h3,7-8H,1-2H3	InChI=1S/C6H9NO2/c1-5-3(6(5,2)8)9-4(5)7/h3,7-8H,1-2H3/t3-,5-,6+/m0/s1
