21
gdb 109396	2.93184	1.1017	0.86371	1.2461	81.03	-0.236	0.0132	0.2492	1373.891	0.18369	-424.221102	-424.212178	-424.211234	-424.255016	33.911	
O	 0.1966299582	 1.3550808206	 0.3446658064	-0.405711
C	 0.0355358642	-0.0418462881	 0.2178398983	-0.144751
C	-1.3887639929	-0.5162295141	 0.0135287629	 0.247783
C	-2.4224327345	 0.3259496534	 0.0478551606	-0.151587
C	-3.8783863753	-0.0309716945	-0.1391065994	-0.259889
C	-4.1952103212	-0.9127837205	-1.3582305752	-0.189765
C	-3.6258435166	-2.3308040382	-1.2885951744	-0.064064
O	-2.2157202541	-2.3993033437	-1.3789214054	-0.232523
C	-1.5231780891	-2.0133848614	-0.2062511233	-0.181133
H	-0.0934100507	 1.7535530378	-0.4829835973	 0.283529
H	 0.6600963106	-0.4441373314	-0.5993248509	 0.099196
H	 0.441261759	-0.4725527957	 1.1440377597	 0.122191
H	-2.2052832513	 1.3699193098	 0.2595536618	 0.086769
H	-4.2508149073	-0.5353737029	 0.7665806961	 0.107955
H	-4.4596815145	 0.893872772	-0.2167136637	 0.101245
H	-5.2849934683	-0.9980702794	-1.4600402501	 0.091797
H	-3.8233078851	-0.4310103806	-2.2697710454	 0.104808
H	-3.9675055716	-2.825110004	-0.361832142	 0.080859
H	-4.0015692556	-2.9195015955	-2.1322437348	 0.103332
H	-0.5262277781	-2.4599586349	-0.2975219912	 0.102989
H	-1.9998930557	-2.4737477288	 0.6771858372	 0.096974
52.8075	128.3724	168.5204	229.3564	257.7126	312.4775	343.2255	358.1718	388.6562	471.3837	503.505	534.488	668.2327	783.4094	828.0186	838.2612	905.8219	913.0619	971.3557	979.94	1002.4837	1040.1247	1080.2365	1102.9734	1114.9497	1134.1207	1184.331	1213.5927	1217.6282	1271.369	1290.2647	1337.714	1344.0904	1370.0718	1382.227	1393.7114	1408.2699	1416.5156	1426.4381	1470.9098	1479.6742	1480.3886	1490.7984	1497.1773	1740.8943	2946.4162	2949.3909	2952.7328	2986.4601	3021.8582	3024.4311	3053.5257	3062.4769	3067.3431	3073.9062	3156.9904	3807.5366
OCC1=CCCCOC1	OCC1=CCCCOC1	
InChI=1S/C7H12O2/c8-5-7-3-1-2-4-9-6-7/h3,8H,1-2,4-6H2	InChI=1S/C7H12O2/c8-5-7-3-1-2-4-9-6-7/h3,8H,1-2,4-6H2
