19
gdb 89545	4.56774	0.99846	0.95662	1.2467	75.66	-0.23	0.0727	0.3027	1266.7072	0.159102	-422.95777	-422.949768	-422.948823	-422.990475	31.322	
O	 0.714405735	 0.6185406407	-0.750828534	-0.431743
C	 0.0032606721	-0.2394300826	 0.1010080328	 0.176526
C	 0.0920219451	-0.046960588	 1.6442617094	-0.349189
C	-1.4112690543	-0.344226402	 1.6997296745	 0.359374
C	-1.549878401	-0.1289291799	 0.185480662	-0.367013
C	-2.1281130367	-1.4664402053	 2.4191367069	-0.213116
C	-1.6446756672	-1.5237285562	 3.8639656329	-0.088857
O	-1.8797791941	-0.1001432499	 4.0470363942	-0.287201
C	-2.4307978074	-0.0115420058	 2.7287050343	 0.007941
H	 0.5015335023	 1.5257112476	-0.5066455768	 0.276891
H	 0.3041420772	-1.2509036471	-0.1847342892	 0.097166
H	 0.773330041	-0.700960685	 2.1935430767	 0.105178
H	 0.313884544	 0.9927878054	 1.9115885763	 0.099924
H	-1.8916524113	 0.8836587843	-0.0617431898	 0.095235
H	-2.1389414591	-0.8470354963	-0.3908688548	 0.106164
H	-2.7126448291	-2.2200136527	 1.9070558531	 0.097949
H	-2.298299998	-2.1057195515	 4.5233182923	 0.110423
H	-0.5984166872	-1.7995364202	 4.0433561647	 0.105179
H	-3.3054036713	 0.6138223744	 2.5822782444	 0.099171
67.0652	150.6245	196.2651	273.2028	311.8296	369.791	391.6704	447.2098	466.5428	594.0924	704.8565	760.8815	810.6308	830.737	887.1912	916.6801	942.1599	959.8183	986.7901	1003.8604	1009.7309	1047.834	1061.5832	1072.1885	1089.3839	1115.1483	1154.537	1166.7373	1191.2368	1214.6128	1230.6285	1239.3067	1272.3021	1284.6294	1332.8524	1334.7014	1426.4553	1445.2493	1467.3705	1490.6042	1513.6967	3022.3349	3030.897	3041.7279	3070.5548	3074.4108	3097.1884	3105.2523	3164.2199	3193.7324	3804.5744
OC1CC2(C1)C1COC21	O[C@H]1C[C@@]2(C1)[C@H]1CO[C@@H]21	
InChI=1S/C7H10O2/c8-4-1-7(2-4)5-3-9-6(5)7/h4-6,8H,1-3H2	InChI=1S/C7H10O2/c8-4-1-7(2-4)5-3-9-6(5)7/h4-6,8H,1-3H2/t4-,5-,6+,7+/m0/s1
