17
gdb 13567	3.66965	1.42074	1.22702	4.7265	66.17	-0.234	0.0309	0.2649	1016.9236	0.141097	-400.995181	-400.986559	-400.985615	-401.02843	30.826	
C	-0.4554770778	 1.1889075905	 0.0516335789	-0.348768
N	 0.1192196684	-0.1489219951	 0.1152796491	-0.033035
C	 0.7344696985	-0.5700998755	 1.2607871917	 0.154507
O	 0.7925552465	 0.0542811432	 2.2995144986	-0.344198
C	 0.2142632403	-0.8910795623	-1.1012941746	-0.015228
C	-0.0960591438	-2.3745756929	-1.1141134028	-0.351585
C	-1.042670568	-1.4012825966	-1.766496254	 0.096682
O	-2.2500484707	-1.0989674556	-1.140154481	-0.410082
H	 0.1156942526	 1.825680238	-0.6359825325	 0.116006
H	-1.49128127	 1.1337572704	-0.2902190825	 0.149011
H	-0.4103379782	 1.6157596694	 1.0533952353	 0.16296
H	 1.1796915084	-1.5746072122	 1.138049952	 0.074397
H	 0.9933103978	-0.5531332715	-1.7851977967	 0.101608
H	 0.5142061298	-3.02544345	-1.729534572	 0.124428
H	-0.4359218372	-2.8066935289	-0.1800219122	 0.13332
H	-1.0633097203	-1.3611967723	-2.8550910445	 0.094697
H	-2.8151855761	-1.8773158785	-1.1757037928	 0.29528
66.8633	137.18	158.9779	187.0061	252.9778	268.1529	325.3074	348.9092	385.046	464.9719	576.178	687.9527	792.4732	834.2948	857.8744	943.9121	1028.7489	1036.5353	1052.461	1077.3574	1126.133	1142.922	1163.9441	1166.4826	1225.4299	1288.8305	1305.3014	1383.4779	1398.6741	1420.8947	1440.8566	1445.0102	1483.7658	1500.8319	1516.4749	1794.2363	2962.3159	3023.5959	3089.9666	3107.728	3108.4594	3143.1779	3164.1683	3235.0608	3813.3688
CN(C=O)C1CC1O	CN(C=O)[C@H]1C[C@H]1O	
InChI=1S/C5H9NO2/c1-6(3-7)4-2-5(4)8/h3-5,8H,2H2,1H3	InChI=1S/C5H9NO2/c1-6(3-7)4-2-5(4)8/h3-5,8H,2H2,1H3/t4-,5+/m0/s1
