16
gdb 16977	4.02346	2.31959	2.17189	1.8087	68.79	-0.2289	0.0035	0.2324	706.2449	0.131774	-346.467209	-346.461531	-346.460587	-346.496446	24.505	
C	-0.0028539211	 1.602743578	-0.2172984437	-0.163877
O	 1.4488254494	 1.4856890901	 0.1007767998	-0.357905
C	 1.0792306126	 0.305041014	 0.8699054384	 0.374111
C	 1.2125231495	-1.2712239396	 1.0019610334	-0.302987
C	-0.3900980581	-1.0455706912	 1.1492638925	-0.135981
C	-0.4421425334	-0.2314569794	 2.4409678697	-0.064105
C	 0.5432646539	 0.6492166138	 2.2706577486	-0.159842
C	-0.1426382239	 0.0708070278	 0.0395277433	-0.020082
H	-0.4963132001	 2.2634701001	 0.5007967905	 0.118642
H	-0.153522593	 1.9457683816	-1.2431570759	 0.115109
H	 1.4978591432	-1.7889121004	 0.0833289673	 0.111199
H	 1.7244346075	-1.6803102144	 1.8765543275	 0.104727
H	-1.0813236325	-1.8747952018	 1.0033800664	 0.076485
H	-1.1142715265	-0.390548663	 3.2721712777	 0.105814
H	 0.9225171423	 1.4407208511	 2.9006774623	 0.106828
H	 0.1225932301	-0.4267192166	-0.8967458379	 0.091864
287.0647	325.5175	426.679	474.4675	527.0672	582.5241	673.7441	690.9412	718.661	761.0556	814.7078	839.8129	882.0471	913.9417	923.618	974.9549	987.5772	1009.3041	1040.4496	1046.567	1067.2939	1105.0002	1135.4503	1153.5425	1177.235	1186.858	1200.1061	1249.5138	1289.2606	1317.0417	1398.5284	1490.3503	1492.6672	1631.2733	3055.5743	3058.33	3071.7221	3124.9193	3126.5982	3138.0172	3221.6268	3250.5793
C1OC23CC(C=C2)C13	C1O[C@@]23C[C@@H](C=C2)[C@@H]13	
InChI=1S/C7H8O/c1-2-7-3-5(1)6(7)4-8-7/h1-2,5-6H,3-4H2	InChI=1S/C7H8O/c1-2-7-3-5(1)6(7)4-8-7/h1-2,5-6H,3-4H2/t5-,6-,7-/m1/s1
