16
gdb 35875	2.21012	1.7429	1.19476	3.1115	67.83	-0.2791	0.009	0.2881	1041.2797	0.124567	-437.872872	-437.864975	-437.864031	-437.906168	28.995	
N	-0.0787785325	-1.1818839112	 0.2963102962	-0.328412
C	-0.0307327047	-0.0355921522	 0.1576903632	 0.276261
C	 0.0475978107	 1.4327015217	-0.0134084566	-0.128431
O	-0.6196708065	 2.1074728253	 1.0314775943	-0.235144
C	 0.324387994	 2.2638585205	 2.098759109	-0.097191
C	 1.6591531393	 2.5896066942	 1.4108995413	-0.322418
C	 1.5070677041	 1.9330803827	 0.0394265234	 0.416431
C	 2.5822571669	 1.3653009824	-0.7745253756	-0.241259
O	 1.9844884704	 2.6277736295	-1.1031330634	-0.265244
H	-0.419470619	 1.7057596333	-0.9634893938	 0.150534
H	-0.0491988146	 3.0595274978	 2.7447801663	 0.129516
H	 0.3904890863	 1.3350632214	 2.6825933338	 0.11993
H	 1.7784439071	 3.6665069043	 1.2653162918	 0.138875
H	 2.5229715943	 2.2166238531	 1.9649362599	 0.124572
H	 3.6076126184	 1.4129389239	-0.4117796929	 0.126482
H	 2.3704210058	 0.5512727734	-1.466252717	 0.135498
39.0438	135.9744	143.6469	274.5772	311.3402	353.998	392.3876	481.1882	535.7538	589.8251	664.2343	807.4101	857.9268	860.9492	920.392	947.4653	952.9402	972.18	988.6232	1092.3638	1107.1273	1129.6979	1166.8307	1203.4881	1225.701	1240.3258	1263.2966	1300.3502	1343.0278	1384.8406	1424.5073	1481.7477	1515.7995	1534.2592	2352.4868	3011.7647	3071.2801	3087.703	3088.3258	3118.1226	3128.5542	3177.0488
N#CC1OCCC11CO1	N#C[C@H]1OCC[C@]21CO2	
InChI=1S/C6H7NO2/c7-3-5-6(4-9-6)1-2-8-5/h5H,1-2,4H2	InChI=1S/C6H7NO2/c7-3-5-6(4-9-6)1-2-8-5/h5H,1-2,4H2/t5-,6-/m1/s1
