16
gdb 54347	2.00284	1.83142	1.18048	3.0132	69.39	-0.2532	-0.0097	0.2435	1058.1182	0.125156	-434.087824	-434.07911	-434.078166	-434.12159	31.804	
N	 0.3677703965	 0.7462205086	-0.7953342884	-0.535374
C	-0.2391145832	 0.4222948161	 0.3719579255	 0.369959
O	 0.1515046944	 0.7733848839	 1.467196651	-0.361963
C	-1.4663401326	-0.523712401	 0.2568243488	 0.07871
C	-1.0445443138	-2.0243918597	 0.4541221875	-0.276615
C	-1.579010819	-1.8671016406	 1.8963699369	-0.154043
N	-2.2493162071	-0.5980985934	 1.501584119	-0.329821
C	-2.2472081661	-0.2331783573	-0.9491905127	 0.254588
N	-2.8083339907	-0.0086836341	-1.935348835	-0.349568
H	 1.1439764406	 1.387788916	-0.7600956711	 0.272179
H	-0.0814185306	 0.5838869899	-1.6818630152	 0.283365
H	-1.6314071479	-2.7002176552	-0.1677059001	 0.138427
H	 0.0172873916	-2.2339995277	 0.3274292153	 0.131636
H	-2.270747299	-2.6373501579	 2.2476735119	 0.115222
H	-0.779126474	-1.731948448	 2.6307433718	 0.123814
H	-2.0312752491	 0.1826813104	 2.1147495848	 0.239484
53.5201	118.1797	153.833	182.0796	226.4581	306.0005	372.7282	415.2606	498.7474	526.5778	563.3284	589.053	626.0252	726.212	765.4706	782.197	886.6768	920.4885	969.0744	1026.2766	1066.4352	1098.3458	1115.5157	1160.7194	1209.8406	1218.9718	1262.8006	1331.7589	1351.0964	1421.7506	1484.6288	1517.1485	1623.4747	1802.1269	2343.5833	3048.2575	3094.193	3098.0787	3157.8658	3515.3978	3589.2008	3717.6329
NC(=O)C1(CCN1)C#N	NC(=O)[C@]1(CCN1)C#N	
InChI=1S/C5H7N3O/c6-3-5(4(7)9)1-2-8-5/h8H,1-2H2,(H2,7,9)	InChI=1S/C5H7N3O/c6-3-5(4(7)9)1-2-8-5/h8H,1-2H2,(H2,7,9)/t5-/m0/s1
