17
gdb 68372	2.9064	1.69129	1.29107	5.6358	68.22	-0.2811	0.0405	0.3216	993.3101	0.136483	-459.004239	-458.996942	-458.995998	-459.035717	29.103	
C	-0.1219719191	 1.5118140692	 0.0003230066	-0.472117
C	 0.0966626706	 0.022686027	-0.0388662546	 0.414875
C	 1.2353854466	-0.6387901146	-0.8614364222	-0.288372
C	 1.0633557407	-1.8137344246	 0.1277905809	 0.109396
C	 0.6038139203	-0.7854332838	 1.1861271457	-0.288372
O	-0.0690336257	-2.6031396679	-0.2780342021	-0.264143
C	-1.2099300174	-1.933078769	-0.5819639314	 0.464274
O	-2.2014417851	-2.497384441	-0.9282029085	-0.365776
O	-1.1522878803	-0.5829397776	-0.4674797428	-0.29745
H	 0.7931130877	 2.0183948796	 0.3191370561	 0.121246
H	-0.402841277	 1.8840377054	-0.9892269647	 0.13941
H	-0.9243944472	 1.7629955057	 0.7000881707	 0.139417
H	 1.0559160905	-0.8313100825	-1.9208713308	 0.125691
H	 2.1873991939	-0.1240687852	-0.7178616741	 0.117485
H	 1.8688829368	-2.5182718154	 0.3257995546	 0.101261
H	 1.4510165416	-0.295048095	 1.6695024213	 0.117484
H	-0.1308877169	-1.1068757602	 1.9267777354	 0.125691
132.4675	216.5721	236.5178	276.9728	389.443	433.7253	449.4966	489.3087	519.1516	635.5831	671.6987	774.6057	826.0041	831.8665	869.279	905.6777	929.9392	971.7087	980.344	1006.1513	1049.929	1060.7308	1142.1087	1143.2274	1180.51	1206.401	1234.345	1257.7303	1267.7049	1330.899	1386.0175	1418.4224	1459.9557	1480.4747	1490.2451	1493.6197	1895.9698	3045.0273	3073.4639	3079.758	3119.7921	3124.0471	3137.4427	3140.5626	3144.0846
CC12CC(C1)OC(=O)O2	C[C@@]12C[C@@H](C1)OC(=O)O2	
InChI=1S/C6H8O3/c1-6-2-4(3-6)8-5(7)9-6/h4H,2-3H2,1H3	InChI=1S/C6H8O3/c1-6-2-4(3-6)8-5(7)9-6/h4H,2-3H2,1H3/t4-,6+
