20
gdb 60650	3.39743	1.03847	0.91051	2.6741	76.3	-0.2385	0.0275	0.266	1336.7064	0.169756	-440.286748	-440.276931	-440.275987	-440.322622	34.413	
C	-0.2173516965	 1.4761599527	-0.0664009001	-0.361048
N	-0.0568746405	 0.0263350777	-0.0456272088	-0.086841
C	 0.0240225166	-0.6529776399	 1.2319999027	-0.023316
C	 1.0071927489	-0.070982631	 2.2778668697	-0.097748
O	-0.0813500918	 0.3730650089	 3.1162963645	-0.274649
C	-1.0535495236	-0.2993350241	 2.2869719675	-0.097738
C	 0.0213491968	-0.726817894	-1.1988232581	 0.40022
C	-0.0693935822	 0.0395519877	-2.5089712263	-0.500716
O	 0.1555985683	-1.9387696865	-1.1803173908	-0.370169
H	 0.6178313609	 1.9757283011	-0.5694803253	 0.131261
H	-1.1456804568	 1.7806351223	-0.5620650743	 0.131261
H	-0.2537507301	 1.844249136	 0.960121511	 0.160756
H	 0.140216021	-1.7105442665	 1.0104378354	 0.135152
H	 1.6321300228	-0.820940775	 2.7788410017	 0.109886
H	 1.6418736532	 0.7583770894	 1.9450836276	 0.105138
H	-1.857293602	 0.3706256298	 1.9605596548	 0.105137
H	-1.4947236322	-1.1674407093	 2.7926583996	 0.109887
H	 0.7356635375	 0.7752942327	-2.6039129687	 0.137185
H	 0.0073872029	-0.6830003737	-3.3202247257	 0.149132
H	-1.0171373731	 0.5804814916	-2.5963516264	 0.13721
42.6052	86.4066	87.6214	102.8752	160.1894	246.6439	254.6227	317.4734	366.8435	410.6589	508.1018	589.12	600.5778	713.516	832.3965	858.1848	887.1585	973.9539	1016.1855	1025.64	1040.1023	1049.4881	1074.0306	1089.3352	1145.1478	1156.2573	1160.4868	1175.8877	1269.9217	1294.0686	1302.6469	1344.3094	1367.1191	1395.7007	1429.4195	1465.892	1480.0014	1484.6267	1499.4011	1517.0189	1522.564	1533.1908	1763.0009	3012.1081	3021.8929	3026.0342	3044.657	3064.0643	3064.4837	3076.6508	3105.3067	3134.9053	3159.3278	3164.4867
CN(C1COC1)C(C)=O	CN(C1COC1)C(=O)C	
InChI=1S/C6H11NO2/c1-5(8)7(2)6-3-9-4-6/h6H,3-4H2,1-2H3	InChI=1S/C6H11NO2/c1-5(8)7(2)6-3-9-4-6/h6H,3-4H2,1-2H3
