20
gdb 80095	2.19884	1.81545	1.40947	2.1871	78.99	-0.2297	0.0227	0.2524	1035.8279	0.172024	-403.154681	-403.146226	-403.145282	-403.187453	32.529	
C	-0.3629592577	 1.4799072151	-0.0706264892	-0.417621
C	-0.0447864204	 0.0028447419	 0.0207954043	-0.029568
C	 1.3122878022	-0.5866488457	-0.3475941068	-0.023018
N	 2.403719774	 0.2790704337	-0.6708025771	-0.250368
C	 2.8498217944	 1.0403707956	 0.236042852	 0.107636
O	 2.4425522954	 1.1715003348	 1.5212891148	-0.245414
C	 1.636945334	 0.1174038512	 2.104088869	 0.115144
C	 0.8230339775	 0.7540422007	 3.2224449526	-0.397314
C	 0.81947213	-0.6451620397	 1.0798345916	-0.097174
H	 0.4688955154	 2.1133221327	 0.2390386047	 0.139312
H	-0.6250582156	 1.7496579391	-1.099091886	 0.122892
H	-1.2216086757	 1.7261094595	 0.5638520398	 0.115896
H	-0.8757083309	-0.6270799717	-0.2899502783	 0.088937
H	 1.3046312207	-1.4910183171	-0.9469227517	 0.092894
H	 3.6585141578	 1.7384477524	 0.0283148367	 0.122088
H	 2.3484466138	-0.5967842839	 2.5431090568	 0.09237
H	 0.106276175	 1.4747510164	 2.8217651265	 0.130962
H	 0.2698951778	-0.0188506426	 3.7650027629	 0.118298
H	 1.4809097249	 1.2699155521	 3.9273781633	 0.126068
H	 0.4822439876	-1.6063792645	 1.4593786942	 0.087977
102.4958	153.8752	167.3958	214.9346	235.5016	286.6576	391.5702	412.7801	446.7864	568.2917	603.7077	691.	726.2041	757.0355	817.327	863.3127	894.2334	945.3768	956.5264	972.4766	1027.517	1054.6075	1083.0475	1097.6402	1132.7531	1134.872	1148.9422	1175.3138	1189.393	1247.8463	1355.3074	1362.5925	1371.858	1391.6474	1405.4333	1416.0209	1422.0125	1439.3242	1483.2019	1495.1837	1497.6292	1504.4218	1720.0594	2996.5412	3037.5489	3046.7195	3090.7775	3118.3577	3120.6248	3132.9074	3136.6044	3147.1113	3157.2946	3161.1378
CC1C2N=COC(C)C12	C[C@H]1[C@H]2N=CO[C@@H](C)[C@@H]12	
InChI=1S/C7H11NO/c1-4-6-5(2)9-3-8-7(4)6/h3-7H,1-2H3	InChI=1S/C7H11NO/c1-4-6-5(2)9-3-8-7(4)6/h3-7H,1-2H3/t4-,5+,6-,7-/m1/s1
