13
gdb 11151	5.98426	1.28658	1.07288	2.7311	66.79	-0.2654	-0.0571	0.2083	1006.4012	0.095624	-361.512854	-361.505918	-361.504973	-361.5445	25.119	
O	 0.0197874849	 0.0345511896	 0.0044573444	-0.287298
C	-0.0087784067	 1.2337435648	 0.0107121623	 0.39307
C	-1.2759679067	 2.1082910778	 0.0323383517	-0.368593
C	-0.740261029	 3.5074546242	 0.0315277251	-0.152469
C	 0.6023179736	 3.5424042792	 0.0133187177	 0.188954
C	 1.2187318055	 2.1618506467	-0.0015512124	-0.424279
C	 1.3898368782	 4.725745077	 0.0080631207	 0.211284
N	 2.0592308377	 5.6710649935	 0.0033145229	-0.325806
H	-1.9074391507	 1.8837286102	-0.83680104	 0.156156
H	-1.8831304756	 1.8755003577	 0.9165121626	 0.15616
H	-1.3705141864	 4.38792926	 0.0442545104	 0.133154
H	 1.8563790844	 1.9631701935	 0.8675756308	 0.159834
H	 1.8326296108	 1.9714371458	-0.8894193762	 0.159834
67.4782	154.3618	170.3047	371.1098	440.4585	462.2625	492.4286	564.2206	583.7928	657.4713	784.3428	799.7706	876.178	881.833	998.0123	1003.2178	1114.1536	1127.974	1172.6064	1180.3044	1272.105	1286.2075	1330.8794	1431.0571	1442.0586	1667.1529	1864.095	2340.4247	3032.5049	3046.3149	3061.0614	3080.2361	3217.8132
O=C1CC=C(C1)C#N	O=C1CC=C(C1)C#N	
InChI=1S/C6H5NO/c7-4-5-1-2-6(8)3-5/h1H,2-3H2	InChI=1S/C6H5NO/c7-4-5-1-2-6(8)3-5/h1H,2-3H2
