19
gdb 64103	3.26995	1.22327	1.09757	4.9331	71.57	-0.2556	0.0168	0.2724	1163.0768	0.158623	-460.211432	-460.202526	-460.201582	-460.244894	33.783	
C	-0.1473266027	 1.5566384559	 0.0459870375	-0.434686
C	-0.0078797692	 0.0328990121	-0.0056656201	 0.311202
O	-1.2931807915	-0.5880002476	-0.0510362839	-0.460178
C	 0.721595774	-0.4423891685	-1.2639147814	-0.227869
C	 0.8322644386	-1.9680925292	-1.249185421	-0.341433
C	 1.2713007761	-2.5788798042	 0.0718750127	 0.412655
O	 1.7110191913	-3.6919462781	 0.1620847296	-0.325642
O	 1.0887670208	-1.8582557691	 1.2107442503	-0.232431
C	 0.78684003	-0.460338066	 1.2073010148	-0.077804
H	 0.8249811085	 2.056209127	-0.0059921757	 0.122033
H	-0.7584210342	 1.8957227345	-0.7945877236	 0.133697
H	-0.6391966214	 1.8744970905	 0.9730560777	 0.110647
H	-1.7632114004	-0.377490288	 0.7629069562	 0.28263
H	 0.1813689721	-0.1096248335	-2.1554836581	 0.111944
H	 1.7144268449	 0.0205814169	-1.2920335606	 0.105724
H	-0.1517226391	-2.4028343643	-1.4544348814	 0.158979
H	 1.511896358	-2.3426954251	-2.01744262	 0.131477
H	 1.7286553996	 0.0985036439	 1.2843126318	 0.111512
H	 0.2224515647	-0.2830389072	 2.1301746152	 0.107542
64.8258	134.1511	209.4934	224.3162	260.5499	285.7659	329.3377	384.8924	401.928	473.1438	497.59	530.6122	585.0531	697.723	758.9043	780.6027	873.2162	921.5704	932.0732	989.4624	1014.7472	1038.147	1093.9792	1136.321	1142.0101	1162.3647	1198.8335	1239.9983	1277.7434	1306.4299	1354.8048	1361.1971	1396.2865	1405.4829	1432.3799	1455.6203	1484.1463	1491.7894	1495.2954	1505.4848	1845.6966	3017.2705	3030.1949	3043.6483	3063.007	3063.7002	3088.7864	3097.9495	3117.6119	3122.7301	3808.7125
CC1(O)CCC(=O)OC1	C[C@@]1(O)CCC(=O)OC1	
InChI=1S/C6H10O3/c1-6(8)3-2-5(7)9-4-6/h8H,2-4H2,1H3	InChI=1S/C6H10O3/c1-6(8)3-2-5(7)9-4-6/h8H,2-4H2,1H3/t6-/m1/s1
