17
gdb 29813	2.54496	1.32947	0.87905	4.9363	84.05	-0.1937	-0.0379	0.1558	1273.2579	0.136393	-418.050906	-418.041872	-418.040928	-418.084947	32.573	
C	-0.0218273667	 1.4319551727	 0.0279003405	-0.34381
N	-0.0173307594	-0.0196015067	 0.0224685241	-0.05948
C	-0.0466880161	-0.7842278867	-1.1097357655	-0.149741
C	-0.0282781986	-2.1300277787	-0.7507448949	 0.250073
N	-0.1217722203	-3.2240362512	-1.6252425686	-0.607448
C	 0.0130602146	-2.1698519366	 0.6542265905	-0.292198
C	 0.0196328754	-0.8559069319	 1.121679423	 0.219577
C	 0.0625821571	-0.3844445639	 2.4877449384	 0.063757
O	 0.0999073023	-1.107418283	 3.4654396676	-0.295691
H	 0.8789954313	 1.8314283002	 0.5032691861	 0.148771
H	-0.0508620682	 1.7820484463	-1.0051321201	 0.142544
H	-0.8988859151	 1.8250100028	 0.5506347145	 0.150107
H	-0.0838804247	-0.3242383843	-2.0852644193	 0.118439
H	 0.2956242964	-3.048627277	-2.52976716	 0.241126
H	 0.2779767748	-4.0662225552	-1.2331723672	 0.246596
H	 0.0337528801	-3.041518962	 1.2900564827	 0.118934
H	 0.0593430171	 0.7230113754	 2.6059809581	 0.048446
65.8632	141.5794	172.637	178.8166	187.566	216.4379	286.0839	361.2765	406.5422	538.3172	618.0574	626.8761	636.5843	670.8044	710.754	751.3382	830.8299	868.9859	1014.7413	1018.7739	1075.2684	1101.4733	1146.3438	1180.9919	1192.8308	1257.4714	1392.9026	1411.5609	1437.5049	1475.7164	1483.3935	1488.4517	1514.9058	1534.7721	1621.6143	1658.718	1763.5108	2865.6736	3041.8684	3102.4642	3139.2795	3248.7455	3256.8229	3542.5994	3631.93
CN1C=C(N)C=C1C=O	Cn1cc(N)cc1C=O	
InChI=1S/C6H8N2O/c1-8-3-5(7)2-6(8)4-9/h2-4H,7H2,1H3	InChI=1S/C6H8N2O/c1-8-3-5(7)2-6(8)4-9/h2-4H,7H2,1H3
