16
gdb 47070	3.3135	1.55317	1.10999	1.7462	73.81	-0.2509	-0.039	0.2119	1044.5836	0.126626	-437.892591	-437.885577	-437.884633	-437.924209	26.959	
N	-0.0794552848	 1.2954773243	-0.0981995499	-0.544902
C	-0.0528835122	 0.0332432089	-0.0647254605	 0.344302
O	 1.0875511188	-0.7305034067	 0.0976917191	-0.261326
C	 0.7597709981	-2.1371105763	 0.2442718717	-0.120304
C	-0.6005547351	-2.2689824342	-0.4603070885	 0.051928
O	-1.5408483786	-3.1887901477	 0.0590314101	-0.281463
C	-2.7860955405	-2.4931985023	 0.2397560724	-0.115754
C	-2.4241749868	-1.0237402096	 0.2437645033	-0.246936
C	-1.167172567	-0.9107974252	-0.1683639124	 0.230994
H	 0.8592300686	 1.6757212232	 0.0370647418	 0.227263
H	 1.575615225	-2.7061709288	-0.203605305	 0.123716
H	 0.6636931266	-2.3916830956	 1.3059850496	 0.122684
H	-0.4461834263	-2.4422975384	-1.5382101849	 0.094019
H	-3.4927420696	-2.7554103152	-0.5650323234	 0.115715
H	-3.234708547	-2.8129595344	 1.1884864716	 0.125321
H	-3.0744640192	-0.239299512	 0.606870095	 0.134742
117.5846	178.5937	186.5221	299.111	331.9593	458.9219	588.6768	629.7204	632.4705	714.9116	768.0729	840.6363	852.7445	889.5796	928.624	958.6623	977.3798	1008.1063	1028.3961	1046.9757	1091.3646	1120.5362	1158.5665	1198.139	1208.453	1257.0906	1281.6943	1311.3285	1361.8894	1362.6941	1398.845	1510.7389	1512.6977	1728.1383	1785.8998	2963.5318	2970.7654	3043.7699	3045.5267	3127.0008	3232.8858	3473.0626
N=C1OCC2OCC=C12	[NH][C]1OC[C@H]2OC[CH][C]12	
InChI=1S/C6H7NO2/c7-6-4-1-2-8-5(4)3-9-6/h1,5,7H,2-3H2	InChI=1S/C6H7NO2/c7-6-4-1-2-8-5(4)3-9-6/h1,5,7H,2-3H2/t5-/m1/s1
