17
gdb 46711	3.24912	1.7435	1.31577	3.5374	74.6	-0.2428	0.01	0.2528	960.756	0.139472	-417.946068	-417.939519	-417.938575	-417.977055	26.388	
N	-0.0885133204	 1.2796742302	-0.2722060774	-0.523908
C	-0.0085109562	 0.0561268522	 0.044856464	 0.398894
O	 1.1667717585	-0.542412412	 0.3699782636	-0.256174
C	 1.1121723985	-1.8983542869	 0.8277586734	-0.115684
C	-0.2395225517	-2.5409975706	 0.6486697846	 0.016385
C	-1.1020041891	-2.2358838077	-0.5989041059	-0.090065
C	-2.2911096348	-2.5779739178	 0.3145064058	-0.171306
N	-1.410177731	-1.74247552	 1.2586291588	-0.166141
C	-1.2186179472	-0.8188527093	 0.0222094869	-0.045685
H	 0.8348307373	 1.7170883864	-0.2277903174	 0.220161
H	 1.8758943499	-2.4564413985	 0.2743190832	 0.12159
H	 1.3838169111	-1.9090837752	 1.8907147628	 0.12915
H	-0.212860353	-3.5793652225	 0.9950457175	 0.083849
H	-0.9238200728	-2.5049689859	-1.6450953502	 0.079189
H	-3.2547556684	-2.1102762643	 0.0981448275	 0.111937
H	-2.4096077148	-3.6149627067	 0.6407145534	 0.105306
H	-2.0997109958	-0.2234708016	-0.2144476404	 0.102501
116.3094	180.1454	314.4523	373.0364	482.0893	490.0227	580.7229	651.4386	729.6455	770.3895	792.3844	854.4811	860.2983	910.5298	916.8033	927.2464	983.0353	1008.0886	1032.2876	1068.8535	1089.8563	1117.4011	1142.322	1151.0193	1188.0704	1189.1844	1224.7069	1240.7301	1247.702	1295.7221	1331.4502	1343.2169	1404.3169	1443.4262	1503.5186	1529.3651	1753.4931	3027.6806	3047.3446	3057.1823	3066.5395	3070.8027	3123.0123	3131.0762	3459.6021
N=C1OCC2C3CN2C13	[NH][C]1OC[C@@H]2[C@H]3CN2[C@@H]13	
InChI=1S/C6H8N2O/c7-6-5-3-1-8(5)4(3)2-9-6/h3-5,7H,1-2H2	InChI=1S/C6H8N2O/c7-6-5-3-1-8(5)4(3)2-9-6/h3-5,7H,1-2H2/t3-,4-,5-/m1/s1
