17
gdb 88939	3.00606	0.90428	0.86269	2.4866	69.77	-0.2446	-0.0894	0.1552	1398.4093	0.132594	-458.958246	-458.948743	-458.947798	-458.994274	33.289	
O	-0.8674390311	 1.3981651753	-0.1420854223	-0.420241
C	-0.326864301	 0.1158669449	 0.0009151023	 0.114045
C	-0.2119982087	-0.4869646807	 1.3795171574	-0.35543
C	-1.2805489839	-0.9669613522	 0.4170923148	-0.010724
C	-2.7285373643	-0.6280099242	 0.6702694904	-0.33092
C	-3.6087545346	-0.8534065494	-0.536974416	 0.294217
O	-3.2576458223	-1.368048401	-1.5734118531	-0.278995
C	-5.0740162748	-0.4066099126	-0.4215005387	 0.094059
O	-5.5440520174	 0.0958620012	 0.5648151011	-0.219461
H	-0.2187083602	 2.0339305261	 0.1765322041	 0.291229
H	 0.4328222637	-0.1424440311	-0.7356049801	 0.092271
H	 0.6244742371	-1.1399187742	 1.6037226333	 0.115
H	-0.5389081711	 0.1348556846	 2.2071054755	 0.115117
H	-1.1213262239	-1.9335641089	-0.0488187603	 0.104819
H	-3.1497051332	-1.222074682	 1.4941276858	 0.136387
H	-2.8455906963	 0.4154369892	 0.9807787125	 0.15275
H	-5.6542504079	-0.6023046751	-1.3484615066	 0.105877
33.261	43.1775	124.6978	129.3824	214.0034	258.0319	297.4257	315.5318	436.4888	447.3538	505.4054	550.055	632.3739	790.6335	808.9756	826.1628	854.1825	888.1717	993.177	1022.0309	1033.1549	1067.4178	1129.9116	1138.4054	1168.0523	1172.4872	1232.9464	1238.233	1296.0197	1338.0915	1363.9687	1406.2782	1430.8788	1433.2414	1491.1436	1804.0668	1825.0013	2919.6401	3021.2476	3086.5896	3109.0561	3128.2855	3169.1907	3217.3702	3810.8176
OC1CC1CC(=O)C=O	O[C@H]1C[C@H]1CC(=O)C=O	
InChI=1S/C6H8O3/c7-3-5(8)1-4-2-6(4)9/h3-4,6,9H,1-2H2	InChI=1S/C6H8O3/c7-3-5(8)1-4-2-6(4)9/h3-4,6,9H,1-2H2/t4-,6+/m1/s1
