14
gdb 130246	5.96811	0.99484	0.90441	2.0435	65.51	-0.2421	-0.0266	0.2154	1233.219	0.101866	-469.981486	-469.97392	-469.972975	-470.01417	27.663	
N	-0.0142201575	 1.3610420579	-0.1291660057	-0.587431
C	-0.0008729112	 0.0018610831	 0.0308281209	 0.407524
N	-1.050974749	-0.6974724114	 0.4018865042	-0.204852
O	-0.5287193295	-2.0075331713	 0.4982417044	-0.207296
C	 0.7563797996	-1.9277691484	 0.1602856925	 0.45655
N	 1.1560778783	-0.728664756	-0.1420019336	-0.369013
C	 1.5844681566	-3.1475157402	 0.1754308413	-0.051381
C	 1.297168377	-4.2612468813	 1.0985920644	-0.168656
O	 0.9681058982	-4.3521772231	-0.2817744806	-0.214907
H	 0.6913401881	 1.7101926242	-0.7591278902	 0.269731
H	-0.9275992473	 1.76879767	-0.2592356557	 0.269452
H	 2.6024471444	-2.97692148	-0.1650853324	 0.128362
H	 2.1223197979	-4.8885837152	 1.4315199936	 0.129662
H	 0.4503675444	-4.1794857782	 1.7762683469	 0.142254
52.735	153.7751	165.5074	293.0723	326.1427	372.7602	427.0037	492.1229	560.0187	657.8951	731.0849	763.65	794.6612	864.1457	900.3091	930.2603	1000.0752	1030.6992	1054.1635	1098.4452	1128.5086	1160.067	1170.1918	1265.8505	1353.1224	1388.9614	1452.1072	1516.951	1583.6497	1638.8572	1660.2812	3094.1783	3157.2176	3191.9529	3586.8622	3696.9112
NC1=NOC(=N1)C1CO1	Nc1noc(n1)[C@H]1CO1	
InChI=1S/C4H5N3O2/c5-4-6-3(9-7-4)2-1-8-2/h2H,1H2,(H2,5,7)	InChI=1S/C4H5N3O2/c5-4-6-3(9-7-4)2-1-8-2/h2H,1H2,(H2,5,7)/t2-/m1/s1
