20
gdb 59598	2.56775	1.40306	0.99991	2.1626	74.99	-0.2456	0.0226	0.2682	1213.7677	0.170442	-440.302879	-440.293519	-440.292574	-440.337092	34.759	
C	 0.0596814787	 1.6058311155	-0.0503308318	-0.413329
C	 0.0626701504	 0.1109285039	 0.2574560049	 0.108439
O	 0.4037160029	-0.1479362617	 1.6174394348	-0.428007
C	-1.2807274585	-0.553860014	-0.0572826098	 0.07869
O	-1.6532859811	-0.2733932605	-1.434695707	-0.238361
C	-2.1352506453	-1.4458136948	-1.9189071708	 0.111349
N	-2.0820477033	-2.4931257002	-1.2124867809	-0.266378
C	-1.3802950775	-2.11222494	 0.0360531166	 0.007159
C	-0.0633295362	-2.8858520997	 0.1404039574	-0.395334
H	 1.0283238648	 2.0423678551	 0.2075863796	 0.124995
H	-0.1442621483	 1.7858873103	-1.1082941714	 0.140248
H	-0.7162887024	 2.1198967806	 0.5319605574	 0.105875
H	 0.8464177838	-0.3774540322	-0.3302317608	 0.100925
H	-0.168188026	 0.3934966231	 2.173194542	 0.28136
H	-2.0500981661	-0.0885838834	 0.5764559462	 0.075799
H	-2.5398308064	-1.3796374949	-2.9232780978	 0.137507
H	-2.0107144551	-2.3878870861	 0.8867788664	 0.089478
H	 0.5803016296	-2.6908845514	-0.7231801491	 0.116382
H	 0.4746585598	-2.613102675	 1.0505411966	 0.13895
H	-0.2778339637	-3.9573839747	 0.1550730874	 0.124254
64.2834	91.9395	170.9464	229.7275	257.5887	262.6757	285.2117	313.2841	340.8606	422.2514	460.9281	504.2912	575.8935	733.7755	806.3697	854.2746	880.9915	922.3223	960.9402	969.9243	992.4574	1045.3392	1078.6596	1083.1759	1108.2927	1129.7917	1159.7087	1181.4492	1264.0523	1293.6912	1315.3503	1327.311	1348.4181	1370.3069	1399.5502	1401.3839	1410.2623	1416.43	1491.1626	1494.0506	1495.3291	1501.5521	1710.7272	2989.4832	3024.0596	3045.3649	3056.5468	3069.1294	3102.9756	3116.688	3135.6343	3141.1342	3210.0243	3797.4149
CC(O)C1OC=NC1C	C[C@@H](O)[C@H]1O[CH][N][C@H]1C	
InChI=1S/C6H11NO2/c1-4-6(5(2)8)9-3-7-4/h3-6,8H,1-2H3	InChI=1S/C6H11NO2/c1-4-6(5(2)8)9-3-7-4/h3-6,8H,1-2H3/t4-,5+,6-/m0/s1
