20
gdb 80758	3.19624	0.97872	0.89937	2.183	79.57	-0.233	-0.0258	0.2072	1361.8792	0.169949	-403.106132	-403.097063	-403.096119	-403.141002	33.202	
C	-0.1693936475	 1.5948821521	 0.1242195345	-0.431097
C	 0.0894777498	 0.1080959472	 0.0327795264	 0.036478
C	 0.6030570642	-0.683985088	-1.1080625822	-0.096462
C	 1.7115103879	-0.0265959816	-1.929740374	 0.008091
C	 1.383149441	 1.0752951241	-2.9463376624	-0.310485
C	 2.62401341	 1.5477427503	-3.6704893886	 0.161973
O	 3.0089323836	 2.6874692468	-3.7114882882	-0.236443
C	 2.4151425964	 0.2678575229	-0.5763075938	-0.195469
N	 1.4042131805	-0.5464494622	 0.1925991198	-0.148213
H	-1.1657970295	 1.822318619	-0.2690877601	 0.126146
H	-0.1466241431	 1.910731121	 1.1729658775	 0.1292
H	 0.5483494513	 2.2076539675	-0.4205846804	 0.129395
H	-0.6413198053	-0.4592177643	 0.6094428855	 0.098619
H	 0.1394939071	-1.6275508829	-1.3849222009	 0.092132
H	 2.269843333	-0.8137434695	-2.4482574688	 0.091286
H	 0.7023421376	 0.6543832578	-3.7012860495	 0.120984
H	 0.8937519175	 1.9402627128	-2.4956720602	 0.124465
H	 3.1925873466	 0.7332591504	-4.1805237612	 0.071164
H	 3.4021378808	-0.1875317752	-0.4807947435	 0.115497
H	 2.4855729381	 1.3145613816	-0.2666281598	 0.112738
45.7528	62.915	118.855	183.2179	228.5624	278.4627	319.8741	378.2643	433.7876	507.598	593.795	694.3277	716.2621	767.4816	805.622	884.663	897.441	925.1666	958.9544	999.9077	1023.4436	1059.0792	1081.9897	1104.7479	1115.5794	1129.332	1166.1274	1192.5919	1225.5741	1245.4978	1264.7394	1292.3316	1302.0505	1370.2257	1393.8691	1412.4873	1429.5697	1447.962	1460.1636	1493.3702	1501.4159	1517.0197	1835.5067	2845.2093	3010.9714	3040.9509	3042.8082	3062.4422	3096.5617	3104.558	3116.7472	3123.6854	3139.4372	3149.8253
CC1C2C(CC=O)CN12	C[C@H]1[C@H]2[C@@H](CC=O)CN12	
InChI=1S/C7H11NO/c1-5-7-6(2-3-9)4-8(5)7/h3,5-7H,2,4H2,1H3	InChI=1S/C7H11NO/c1-5-7-6(2-3-9)4-8(5)7/h3,5-7H,2,4H2,1H3/t5-,6-,7-,8?/m0/s1
