16
gdb 127008	5.39299	0.95586	0.82027	4.257	74.62	-0.2378	-0.0565	0.1813	1362.2618	0.125264	-434.08466	-434.076682	-434.075738	-434.11795	28.614	
C	 0.0233885083	 1.5235974918	-0.0634562816	-0.392805
C	-0.0116594678	 0.0110909754	 0.0262564284	-0.049583
O	 0.6570254238	-0.5032622936	-1.1468568835	-0.264328
C	 0.7454741231	-1.8227564536	-1.2789618244	 0.439432
C	 1.3982107772	-2.3324734648	-2.424707562	-0.05309
N	 1.5215887764	-3.6279189405	-2.6193802928	-0.165912
N	 1.0145797522	-4.4764566039	-1.7072958589	-0.205937
C	 0.4132377121	-3.946110806	-0.6541928595	 0.106691
N	 0.2433568349	-2.6430737854	-0.3763096291	-0.341018
H	 1.0533017115	 1.8898765217	-0.0886163921	 0.134758
H	-0.4903030672	 1.8736431502	-0.9629662092	 0.134768
H	-0.4754637309	 1.9548848674	 0.8092074323	 0.128588
H	 0.5020204433	-0.3619730837	 0.9176820042	 0.128837
H	-1.034350948	-0.3778428301	 0.0489477517	 0.128832
H	 1.8149026195	-1.6673892901	-3.1740742491	 0.134949
H	 0.0135603714	-4.6534240749	 0.0675223455	 0.135818
58.3522	111.862	158.0164	205.7033	262.312	341.5119	395.2662	434.6419	571.2548	643.537	694.0497	809.7427	816.7841	860.8797	935.2933	948.825	998.464	1012.801	1051.2612	1060.7628	1127.9782	1179.7986	1213.7337	1288.9612	1291.1	1333.0631	1371.9377	1409.5738	1425.892	1480.1706	1485.7366	1495.7328	1516.2512	1577.2252	1599.6064	3049.2975	3052.8602	3093.1043	3124.9707	3130.3066	3177.2847	3188.659
CCOC1=CN=NC=N1	CCOc1cnncn1	
InChI=1S/C5H7N3O/c1-2-9-5-3-7-8-4-6-5/h3-4H,2H2,1H3	InChI=1S/C5H7N3O/c1-2-9-5-3-7-8-4-6-5/h3-4H,2H2,1H3
