13
gdb 132248	3.52219	1.18866	0.88873	1.6337	77.96	-0.2498	-0.0532	0.1966	1180.966	0.089364	-423.598075	-423.590949	-423.590005	-423.629772	27.226	
F	 0.0143016088	 0.0199594424	 0.0030690659	-0.070906
C	-0.0142392783	 1.3529979921	 0.0104850687	 0.268435
C	-1.2271459469	 2.0158859446	 0.0305669292	-0.317704
C	-1.2051554324	 3.4167744054	 0.0376487306	 0.11611
C	 0.049649771	 4.0516372315	 0.0238359992	-0.064911
N	 1.2080627829	 3.3981469434	 0.0045423286	-0.251996
C	 1.1802075629	 2.0646149842	-0.0021064921	-0.098401
C	-2.4071341837	 4.1774103728	 0.0580929858	 0.228733
C	-3.4190854234	 4.8292790196	 0.0753403494	-0.396478
H	-2.1587528989	 1.463546623	 0.0403996212	 0.132278
H	 0.0982159483	 5.1363668066	 0.0288852516	 0.123404
H	 2.1278672123	 1.5335159881	-0.0178735334	 0.128852
H	-4.3122738425	 5.4039314764	 0.0905080154	 0.202584
139.3063	141.28	241.132	370.9523	381.6769	472.0669	491.0572	536.2461	552.5756	598.2922	632.5661	656.1732	712.6376	727.4741	918.6233	932.8162	966.5018	981.1726	1035.4342	1158.621	1191.7624	1276.6465	1310.6655	1332.4325	1456.6159	1479.2878	1600.0312	1635.6584	2229.9984	3172.4263	3178.9488	3214.8832	3500.294
FC1=CC(=CN=C1)C#C	Fc1cc(cnc1)C#C	
InChI=1S/C7H4FN/c1-2-6-3-7(8)5-9-4-6/h1,3-5H	InChI=1S/C7H4FN/c1-2-6-3-7(8)5-9-4-6/h1,3-5H
