18
gdb 78400	3.28965	1.34419	1.21378	2.8112	76.42	-0.2557	0.0236	0.2793	1093.1557	0.148403	-401.906196	-401.898691	-401.897747	-401.938017	29.813	
C	-0.085906905	 1.4099844105	-0.0090518028	-0.431141
C	 0.0298488425	-0.0980479173	 0.0688277482	-0.017386
C	 1.383827012	-0.6940987734	-0.2166495551	-0.077895
C	 0.8099978101	-0.6708733057	 1.2143932884	-0.071497
C	 0.7870710769	-2.2256667285	 1.2408834118	-0.170883
C	 1.351313738	-2.2318254295	-0.1874870105	 0.086192
O	 0.1241931527	-2.8762647885	-0.6774585549	-0.276589
C	-0.4039972685	-2.9241083773	 0.6096768461	 0.422366
N	-1.4817115375	-3.4146988925	 1.0211253675	-0.55448
H	 0.8245383938	 1.900083019	 0.35198298	 0.116405
H	-0.2552742497	 1.7373962419	-1.0399830607	 0.124768
H	-0.9222811118	 1.7681491359	 0.5998299772	 0.127104
H	-0.8497001024	-0.631079375	-0.2817560393	 0.108893
H	 2.1843654354	-0.1070448208	-0.6503750529	 0.088836
H	 1.1132343717	-0.0660825256	 2.0596785243	 0.096647
H	 1.2795650356	-2.7073445471	 2.0820875438	 0.103681
H	 2.2430701195	-2.7739508355	-0.4974320959	 0.097874
H	-2.0194834332	-3.8238283406	 0.2542847749	 0.227105
116.595	191.098	220.0539	252.6511	294.7342	378.0859	434.6342	547.949	650.867	724.8986	762.8928	781.4161	818.5026	847.1243	870.72	888.0846	902.449	945.1896	976.5012	1004.9353	1007.7105	1020.3065	1035.6143	1071.9625	1104.2644	1143.149	1179.9813	1189.5451	1202.3119	1233.8685	1250.8485	1282.1538	1320.8092	1327.0954	1417.0594	1427.2606	1495.1142	1502.8218	1816.9799	3032.1808	3098.6346	3100.8578	3131.0059	3146.2034	3150.5983	3181.702	3194.23	3467.5331
CC1C2C1C1C2OC1=N	C[C@H]1[C@H]2[C@@H]1[C@@H]1[C@H]2O[C]1[NH]	
InChI=1S/C7H9NO/c1-2-3-4(2)6-5(3)7(8)9-6/h2-6,8H,1H3	InChI=1S/C7H9NO/c1-2-3-4(2)6-5(3)7(8)9-6/h2-6,8H,1H3/t2-,3-,4+,5-,6+/m1/s1
