15
gdb 49452	3.50159	1.39076	1.2878	2.8397	73.09	-0.2423	-0.0127	0.2295	996.7348	0.113277	-416.77142	-416.76425	-416.763306	-416.803171	27.575	
N	-0.1964098796	 1.2155210666	-0.5062504053	-0.44435
C	-0.0697133418	 0.0057290392	-0.1343587856	 0.067041
N	-1.1053390505	-0.6840790037	 0.4703757782	-0.03819
C	-2.534224434	-0.3190551677	 0.2896292469	-0.169326
C	-2.8593995929	-0.8212331961	-1.1087541499	-0.065459
C	-2.1769128012	-1.9799788747	-1.1998691601	-0.088928
C	-1.4878753463	-2.0901247164	 0.1508755856	-0.201154
C	-2.7715942292	-1.7153561814	 1.0277420912	 0.442022
O	-3.5077299201	-2.2151979649	 1.8017076176	-0.290852
H	 0.6945873614	 1.5804983567	-0.8388394169	 0.225462
H	 0.8510137438	-0.5896125536	-0.1805618499	 0.096731
H	-2.8765097183	 0.64742369	 0.6430277788	 0.117902
H	-3.5699630916	-0.382556254	-1.7932255926	 0.124658
H	-2.1868321955	-2.7289343404	-1.978031384	 0.122155
H	-0.7931660344	-2.8935711396	 0.3813692061	 0.102287
96.442	172.3042	185.3475	262.6489	381.434	482.6138	551.2189	602.2963	639.2694	704.7181	737.3613	798.8435	825.081	848.9533	870.7183	895.6358	914.8829	934.9373	1004.1152	1038.414	1058.2189	1100.9013	1118.6564	1139.1176	1173.6173	1232.0223	1260.2883	1313.5318	1343.6209	1414.9697	1571.6162	1708.5678	1946.0986	3041.2515	3164.9976	3194.6583	3235.6793	3259.7635	3498.1645
N=CN1C2C=CC1C2=O	[NH][CH]N1[C@H]2C=C[C@@H]1C2=O	
InChI=1S/C6H6N2O/c7-3-8-4-1-2-5(8)6(4)9/h1-5,7H	InChI=1S/C6H6N2O/c7-3-8-4-1-2-5(8)6(4)9/h1-5,7H/t4-,5+
