16
gdb 28497	3.14925	1.4232	0.98688	2.7341	78.55	-0.206	-0.0238	0.1822	1152.0221	0.125619	-434.142828	-434.134623	-434.133679	-434.17542	31.35	
C	-0.0161286078	 1.5361930707	-0.0341563107	-0.476708
C	-0.0109939785	 0.0343678461	-0.0259837822	 0.227051
N	-0.0993367873	-0.6345744625	-1.1747411843	-0.277348
C	-0.0959860603	-1.9646550328	-1.1522413541	-0.099587
C	 0.0021588568	-2.6764468562	 0.0516950594	 0.352806
N	-0.0471389709	-4.0543724057	 0.1048029912	-0.570326
N	 0.1008598912	-2.0239089209	 1.2179238482	-0.408619
C	 0.0888394865	-0.7015707546	 1.1689407228	 0.368322
O	 0.1845524992	-0.0308688588	 2.3366270779	-0.412438
H	 0.8989046642	 1.9430499439	 0.4110459995	 0.130731
H	-0.0983369178	 1.8899009392	-1.0631519827	 0.133667
H	-0.8529228924	 1.9372717831	 0.5488510118	 0.131482
H	-0.1743027699	-2.4835527427	-2.1039669978	 0.094751
H	 0.2367561979	-4.5475998017	-0.7269298151	 0.255571
H	 0.3068495248	-4.4508846526	 0.9623099376	 0.255048
H	 0.2395340442	-0.7017315144	 3.0312780985	 0.295597
99.3223	119.8052	241.0918	277.0661	320.3652	334.249	377.9594	477.2293	501.911	519.3055	525.5675	553.3455	594.266	706.5809	745.6351	780.7946	798.3315	873.2288	976.1279	1028.8858	1059.4203	1099.3996	1187.0039	1252.5876	1298.666	1319.5235	1380.5234	1406.7571	1461.1939	1478.3628	1485.3276	1530.855	1598.6479	1632.2013	1649.0721	3032.4413	3081.6159	3140.3424	3155.5181	3580.7099	3693.6278	3765.5773
CC1=NC=C(N)N=C1O	Cc1ncc(N)nc1O	
InChI=1S/C5H7N3O/c1-3-5(9)8-4(6)2-7-3/h2H,1H3,(H3,6,8,9)	InChI=1S/C5H7N3O/c1-3-5(9)8-4(6)2-7-3/h2H,1H3,(H3,6,8,9)
