19
gdb 70583	2.59333	1.84381	1.326	2.5417	74.57	-0.2502	0.0848	0.335	1009.3939	0.159728	-422.999374	-422.991708	-422.990764	-423.031034	30.83	
C	-0.1119019728	 1.4907255474	 0.0511295652	-0.477573
C	 0.0412580147	-0.0100545	-0.004850524	 0.397891
O	-0.1754970145	-0.6915824985	 1.2437676852	-0.28932
C	 1.1426055059	-0.6958405133	 0.6873739909	-0.020353
C	 1.6297594679	-2.0270672133	 0.1490962269	-0.118299
O	 0.5889730314	-2.7870939241	-0.4381495719	-0.248691
C	-0.1304724226	-2.1377007449	-1.4456947778	 0.089455
C	-1.556002446	-1.7797316446	-1.1366680046	-0.315755
C	-0.5060880173	-0.6928586749	-1.2331315755	-0.120464
H	 0.3920793716	 1.9672860474	-0.7965957142	 0.120864
H	-1.1706621516	 1.769121423	 0.0120936811	 0.13086
H	 0.3134412394	 1.8844206173	 0.9776066013	 0.127516
H	 1.8841271075	-0.1136915723	 1.2370310047	 0.086083
H	 2.4527389197	-1.8391315209	-0.5619098094	 0.092243
H	 2.0236567238	-2.648726958	 0.959517717	 0.120222
H	 0.1286307492	-2.4677922369	-2.4504201705	 0.087589
H	-2.296521512	-1.8491694026	-1.925352909	 0.109688
H	-1.8960722016	-2.034547628	-0.1401266772	 0.142445
H	-0.5315081326	-0.057869153	-2.1133627282	 0.0856
157.9088	199.8568	224.6347	255.1837	302.9417	377.2971	406.8642	461.7734	529.0649	598.3573	679.6051	752.4391	782.6793	809.5505	825.4574	881.9261	925.9029	980.8926	997.3643	1002.7293	1038.0509	1065.4534	1071.8755	1106.7157	1117.1856	1124.2955	1146.673	1179.9351	1219.7327	1237.3476	1290.1644	1309.0901	1366.3026	1399.345	1407.3904	1417.9009	1460.4655	1475.1263	1486.9459	1492.7014	1504.6051	2962.6755	3034.2391	3075.5277	3097.9936	3099.5809	3111.1243	3123.2227	3142.4359	3154.6278	3241.2117
CC12OC1COC1CC21	C[C@]12O[C@H]1CO[C@H]1C[C@@H]21	
InChI=1S/C7H10O2/c1-7-4-2-5(4)8-3-6(7)9-7/h4-6H,2-3H2,1H3	InChI=1S/C7H10O2/c1-7-4-2-5(4)8-3-6(7)9-7/h4-6H,2-3H2,1H3/t4-,5+,6+,7-/m1/s1
