18
gdb 16910	3.85532	1.88223	1.44328	0.5169	67.53	-0.2264	0.0832	0.3096	901.0459	0.154315	-384.915946	-384.908641	-384.907696	-384.947237	28.442	
C	 0.0022024772	 1.5175440017	 0.0584915706	-0.403437
C	 0.0352605032	 0.0006188265	-0.0227397385	 0.119665
C	 0.6855497827	-0.5061002073	-1.305928043	-0.082332
O	 0.6820330234	-1.9255550326	-1.3788721712	-0.262067
C	 0.9602733314	-2.5891584164	-0.1809707307	 0.100118
C	 2.2488943297	-2.4145217246	 0.5899853048	-0.347424
C	 0.9440233199	-1.8555548824	 1.1295928376	 0.058184
O	 0.7895566829	-0.4641472471	 1.0996415269	-0.271423
H	 1.0122528261	 1.9302221665	-0.0263820045	 0.125574
H	-0.615658182	 1.934524086	-0.7423399124	 0.117683
H	-0.4137141796	 1.8319947114	 1.0190199081	 0.130442
H	-0.987789524	-0.4053500191	 0.030905486	 0.07549
H	 0.1350047808	-0.1606221344	-2.186144754	 0.110062
H	 1.712609484	-0.1120300092	-1.3650947508	 0.095758
H	 0.5319220713	-3.5855306125	-0.2140594919	 0.105095
H	 2.68789096	-3.2893856858	 1.0572141328	 0.112131
H	 2.9601502079	-1.6737700799	 0.2426478072	 0.123952
H	 0.4826997351	-2.3175603506	 2.0002084829	 0.092528
115.2421	193.2863	208.0914	289.5224	332.8554	414.6628	468.9659	495.6039	512.2348	706.1538	749.6363	803.5567	829.6339	889.7429	917.9372	951.6192	1000.6047	1017.477	1048.9509	1072.8788	1119.8087	1124.067	1152.5919	1163.8266	1175.7749	1192.1878	1257.7652	1284.1027	1334.1379	1353.8632	1389.1812	1399.0846	1410.5613	1427.1661	1474.3592	1483.2855	1499.1641	1501.5028	2972.7867	2987.3151	3044.15	3083.3315	3115.9985	3117.4932	3124.8583	3137.0732	3162.3916	3229.7884
CC1COC2CC2O1	C[C@H]1CO[C@H]2C[C@H]2O1	
InChI=1S/C6H10O2/c1-4-3-7-5-2-6(5)8-4/h4-6H,2-3H2,1H3	InChI=1S/C6H10O2/c1-4-3-7-5-2-6(5)8-4/h4-6H,2-3H2,1H3/t4-,5-,6+/m0/s1
