17
gdb 109462	2.60675	1.33423	0.97143	2.5872	68.81	-0.2561	-0.0413	0.2147	1189.6245	0.133937	-458.936838	-458.928293	-458.927349	-458.970427	31.678	
O	 0.044898984	 1.420538563	-0.2543147443	-0.418146
C	 0.1510206201	 0.042178206	 0.0283176584	-0.079122
C	-1.2374983717	-0.601747755	 0.0929713675	-0.222761
C	-1.9832713908	-0.5861639177	-1.2490882405	 0.403472
O	-2.0798930832	 0.253347706	-2.1030903766	-0.314629
C	-2.3667880636	-2.0710671463	-1.1492454891	-0.438002
C	-1.4265003704	-2.1322534059	 0.0706273813	 0.417254
C	-0.4960554485	-3.1906192615	 0.4645826331	-0.258964
O	-1.6860928196	-2.9092433142	 1.218468398	-0.265456
H	-0.4770775399	 1.5041224922	-1.0636617856	 0.299179
H	 0.7632524434	-0.484534125	-0.7221148979	 0.088334
H	 0.6640554998	-0.0491434349	 0.991382155	 0.117433
H	-1.829554125	-0.1340089141	 0.8886329844	 0.128196
H	-3.4174592286	-2.2117974321	-0.8718711037	 0.152959
H	-2.1418885044	-2.6930542188	-2.0192966965	 0.141057
H	-0.4975926652	-4.1375795308	-0.0732415325	 0.123224
H	 0.4395672535	-2.939071941	 0.9617098491	 0.125972
67.3131	120.6056	137.8033	204.8418	274.6522	322.6216	385.2688	418.8098	471.9526	493.9173	524.5971	595.6349	746.7133	807.4847	822.9844	887.7687	901.4729	952.5937	1024.111	1053.6807	1074.3828	1087.9864	1112.7915	1127.4655	1157.5991	1180.227	1196.5744	1209.6657	1235.1554	1310.4025	1380.6021	1417.3169	1439.8767	1446.3501	1513.3671	1537.5274	1872.6192	2968.044	3050.8678	3055.5648	3071.5195	3085.2691	3114.7643	3173.0965	3757.863
OCC1C(=O)CC11CO1	OC[C@H]1C(=O)C[C@]21CO2	
InChI=1S/C6H8O3/c7-2-4-5(8)1-6(4)3-9-6/h4,7H,1-3H2	InChI=1S/C6H8O3/c7-2-4-5(8)1-6(4)3-9-6/h4,7H,1-3H2/t4-,6+/m0/s1
