13
gdb 133090	4.10786	1.21113	0.94091	3.2132	62.2	-0.2866	-0.0507	0.2359	1137.266	0.090483	-494.09256	-494.085339	-494.084395	-494.124714	25.661	
C	-0.0082250332	 1.3840523402	 0.0072101261	-0.233943
O	-0.0528752192	-0.049810714	 0.0039825746	-0.229733
C	-1.2417876256	-0.6287759829	 0.011407637	 0.489946
N	-2.3477964356	 0.1234747683	 0.0215779655	-0.343293
C	-3.4781604383	-0.5790229897	 0.028179554	 0.081837
N	-3.5856612115	-1.90590505	 0.0255275891	-0.311605
C	-2.4043132697	-2.5111328	 0.0150803296	 0.361041
F	-2.4370738024	-3.8230190937	 0.0120814601	-0.039303
N	-1.2091962802	-1.9666548313	 0.0076447202	-0.355285
H	 1.0524243046	 1.6337934826	-0.0004580634	 0.144145
H	-0.5048492795	 1.7891349277	-0.8772494031	 0.147158
H	-0.4909111539	 1.7846758824	 0.9013715045	 0.147143
H	-4.4066187054	-0.0131359394	 0.0365796857	 0.14189
110.5868	153.8458	202.2783	240.3103	243.5995	410.3372	476.4062	549.8338	588.4144	652.8172	774.3764	830.0732	851.7175	979.2807	999.6246	1024.7086	1122.359	1178.4059	1197.0743	1266.5162	1329.0881	1355.8059	1434.2281	1480.8349	1483.2178	1492.9862	1540.7593	1588.6118	1628.3254	3056.9825	3135.9804	3165.1555	3172.7073
COC1=NC=NC(F)=N1	COc1ncnc(F)n1	
InChI=1S/C4H4FN3O/c1-9-4-7-2-6-3(5)8-4/h2H,1H3	InChI=1S/C4H4FN3O/c1-9-4-7-2-6-3(5)8-4/h2H,1H3
