16
gdb 16456	3.29277	2.88126	1.8593	1.741	67.97	-0.231	-0.0058	0.2252	735.9232	0.130477	-346.528561	-346.522341	-346.521397	-346.558337	25.798	
C	 0.0028705246	 1.5425925714	 0.0001291848	-0.519421
C	 0.04826242	 0.0363406844	-0.0507125185	 0.309555
C	 0.4679805198	-0.715655679	-1.3046275721	-0.172464
C	 0.3878792296	-2.0089844649	-0.9798372987	-0.109428
C	-0.0781904284	-2.0058362726	 0.462011761	-0.099909
C	 0.6067461912	-0.7919035228	 1.1740054035	 0.035863
O	-0.5944954963	-0.5150446579	 1.9708226511	-0.325419
C	-1.0919587238	-0.8245571836	 0.6249848629	 0.035866
H	 0.9886514926	 1.976085676	-0.2007977995	 0.118379
H	-0.6934882621	 1.9437373424	-0.7443306601	 0.11838
H	-0.3235704862	 1.8703690656	 0.9908858154	 0.13802
H	 0.7621306127	-0.2621803245	-2.2417202943	 0.105247
H	 0.5994630765	-2.8810284299	-1.5826059458	 0.10948
H	-0.2410315544	-2.9254747045	 1.0205508337	 0.079381
H	 1.5775365917	-0.7295680934	 1.6738982766	 0.088235
H	-2.1731698874	-0.8016676564	 0.46167093	 0.088235
231.5553	269.2037	275.6753	380.7922	502.8593	503.665	650.6384	662.1779	694.8628	754.8437	757.6979	808.8775	871.7543	879.5007	917.7942	918.8759	934.6164	975.0243	1035.765	1068.571	1100.4656	1132.3518	1146.1023	1166.2245	1186.6345	1205.182	1243.7765	1291.8993	1312.7622	1359.1954	1406.918	1492.0693	1498.217	1634.5768	3032.1529	3077.0604	3083.8819	3092.0062	3117.595	3146.283	3212.6762	3240.1302
CC12C=CC3C1OC23	C[C@@]12C=C[C@H]3[C@@H]1O[C@@H]23	
InChI=1S/C7H8O/c1-7-3-2-4-5(7)8-6(4)7/h2-6H,1H3	InChI=1S/C7H8O/c1-7-3-2-4-5(7)8-6(4)7/h2-6H,1H3/t4-,5-,6+,7+
