19
gdb 26168	2.586	1.35424	1.08828	1.0805	78.66	-0.221	0.0092	0.2303	1198.8414	0.15878	-419.233074	-419.223753	-419.222809	-419.267804	33.412	
C	 0.2842626667	 1.0502370628	-0.535765726	-0.32597
N	 0.0339322628	-0.1074123668	 0.3237395234	-0.179232
C	 0.3968963026	 0.1541102686	 1.7170671348	-0.325887
C	-1.2672171497	-0.6262088413	 0.1823774422	 0.192709
C	-1.6107893337	-1.8518320889	-0.2926136121	 0.277023
C	-0.8353125637	-3.0086418661	-0.797138562	-0.496861
O	-2.9802672776	-1.9351764578	-0.2559124198	-0.183206
C	-3.3837126656	-0.741623936	 0.2446157428	 0.06192
N	-2.4298501558	 0.0773408784	 0.524836237	-0.291908
H	 1.3452220601	 1.3151663418	-0.4802536712	 0.113554
H	 0.0472588744	 0.7935461751	-1.5716182681	 0.119734
H	-0.310648592	 1.9333283493	-0.2518544512	 0.116639
H	-0.1896329436	 0.9706153805	 2.1682941771	 0.116749
H	 0.2413471023	-0.7507019386	 2.3105129335	 0.119759
H	 1.4575955932	 0.4211527906	 1.7670534668	 0.113524
H	-1.0116308739	-3.9083883339	-0.1970622415	 0.137897
H	-1.0926860413	-3.2486804379	-1.8348723301	 0.137874
H	 0.2260644294	-2.7566406031	-0.7482235355	 0.150865
H	-4.4481007046	-0.6022098466	 0.3554111298	 0.144817
31.0314	155.2274	155.7102	171.2596	225.9229	235.0882	237.2614	283.529	371.1747	451.566	508.9084	613.6257	651.8302	709.9524	776.5796	832.1842	939.3119	951.9914	979.2952	1059.8684	1071.2308	1092.772	1116.242	1144.7368	1182.2932	1190.721	1225.7982	1255.0334	1337.4671	1367.322	1415.946	1437.3755	1468.2065	1477.3726	1479.5105	1486.7156	1494.5699	1500.8085	1516.3172	1571.8396	1687.3065	2975.7195	2981.1684	3031.7665	3066.7615	3067.9606	3083.1019	3111.3988	3114.2209	3136.6532	3266.7461
CN(C)C1=C(C)OC=N1	CN(C)c1c(C)ocn1	
InChI=1S/C6H10N2O/c1-5-6(8(2)3)7-4-9-5/h4H,1-3H3	InChI=1S/C6H10N2O/c1-5-6(8(2)3)7-4-9-5/h4H,1-3H3
