21
gdb 76717	2.70883	1.02114	0.96694	2.8224	80.13	-0.2184	0.0283	0.2467	1353.0895	0.181425	-420.398535	-420.388263	-420.387319	-420.434517	36.591	
C	-0.0869959712	 1.5541740769	 0.5274618664	-0.418941
C	 0.1726300099	 0.0815545172	 0.2825796785	-0.002802
C	 0.3279568702	-0.517540258	-1.083068392	-0.024799
C	 0.1998524779	 0.3122926706	-2.3465166899	-0.19817
N	 1.0471615355	-0.1712588505	-3.4302346895	-0.267302
C	 2.0315800164	 0.5795587655	-3.9895914879	 0.161733
O	 2.3042667408	 1.722518763	-3.6827790556	-0.328218
N	 1.4616023638	-0.4467695339	-0.161959076	-0.098094
C	 2.5891713382	 0.4446907094	-0.4126728226	-0.327242
H	 0.3636461239	 2.2077781908	-0.221057849	 0.131847
H	-1.1646249769	 1.75006426	 0.5401655204	 0.122382
H	 0.3098570981	 1.8494321701	 1.5049234734	 0.125827
H	-0.2973325318	-0.5529428119	 1.0353528187	 0.086153
H	-0.034750141	-1.5385851998	-1.2228571889	 0.077647
H	-0.8499444984	 0.2921155964	-2.6678464277	 0.113872
H	 0.4742086949	 1.3561316463	-2.2026587189	 0.147857
H	 0.9390819374	-1.1226290364	-3.745120929	 0.24755
H	 2.5718613663	 0.0243658207	-4.7813978662	 0.078792
H	 2.3762419795	 1.3425075798	-1.00567362	 0.131199
H	 3.0051441313	 0.755963162	 0.5508903024	 0.118704
H	 3.3639457952	-0.1194373482	-0.9415453365	 0.122003
43.8142	64.8099	118.7531	164.5933	181.0958	217.0069	231.0245	280.8336	302.0254	348.7156	466.4581	515.5387	533.2641	549.7149	723.6318	769.5799	776.9444	839.1651	966.6833	989.0776	1025.1293	1033.9961	1055.5412	1090.8013	1138.3195	1153.0979	1167.5544	1179.3039	1198.4032	1209.013	1266.6462	1352.7569	1359.6311	1397.15	1414.4458	1429.1458	1436.4408	1462.5739	1477.5943	1490.4668	1501.036	1505.0735	1512.7976	1533.9635	1797.5542	2941.1249	3018.174	3020.8714	3039.207	3065.4292	3081.8417	3086.7802	3092.5422	3100.1868	3135.4517	3152.5881	3630.9421
CC1C(CNC=O)N1C	C[C@H]1[C@@H](CNC=O)N1C	
InChI=1S/C6H12N2O/c1-5-6(8(5)2)3-7-4-9/h4-6H,3H2,1-2H3,(H,7,9)	InChI=1S/C6H12N2O/c1-5-6(8(5)2)3-7-4-9/h4-6H,3H2,1-2H3,(H,7,9)/t5-,6+,8?/m0/s1
