17
gdb 39181	2.84881	1.77976	1.14787	1.1408	77.58	-0.2145	0.0084	0.223	1036.1995	0.137632	-421.795943	-421.788774	-421.78783	-421.827529	28.139	
C	 0.559160823	 1.7996098254	 1.087509331	-0.278526
C	 1.2757734032	 1.3973984622	-0.2437136538	-0.005202
O	 0.9097150966	 2.1558449221	-1.3687390414	-0.244258
C	 1.516469059	 1.6655327262	-2.5460920032	-0.148447
C	 1.2915342076	 0.2129917149	-2.8924714273	-0.132945
C	 0.898522399	-0.8573122986	-2.1980493013	 0.039291
O	 0.5060858653	-0.9957144614	-0.8927346231	-0.236474
C	 0.5465385838	 0.0864633051	-0.0876358688	 0.425674
C	-0.0195627297	 0.3872130799	 1.0853877309	-0.267034
H	 1.2255432217	 2.0696038461	 1.9136680523	 0.102266
H	-0.1687611189	 2.6002571298	 0.9308583121	 0.12126
H	 2.3726619502	 1.3336596757	-0.1590010785	 0.076239
H	 1.1296486353	 2.2873437296	-3.3611142519	 0.121308
H	 2.6082316028	 1.8454258343	-2.5055104282	 0.100942
H	 1.549108103	-0.0161584855	-3.9242956503	 0.101253
H	 0.8409554861	-1.827352792	-2.6777539895	 0.116493
H	-0.650824288	-0.1481775838	 1.7804431209	 0.108159
114.5844	160.5884	266.5642	318.3233	369.7501	393.5137	440.9264	526.9714	648.7431	717.7923	745.3545	798.8091	830.565	872.6192	900.1876	936.8054	942.7277	959.9513	1009.0048	1031.2814	1061.2653	1098.6108	1137.8609	1166.9501	1199.2967	1227.5643	1255.8663	1283.587	1314.8916	1339.297	1389.2072	1410.6356	1439.1013	1485.9049	1489.5401	1719.8695	1729.7381	2917.5261	2973.2204	3042.5705	3058.7459	3097.2305	3152.2942	3208.0464	3229.5993
C1C2OCC3C4OC23C14	C1[C@@H]2OCC=COC2=C1	
InChI=1S/C7H8O2/c1-3-6-4-2-8-5(1)7(3,4)9-6/h3-6H,1-2H2	InChI=1S/C7H8O2/c1-4-8-6-2-3-7(6)9-5-1/h1-2,4,7H,3,5H2/t7-/m0/s1
