18
gdb 45884	2.45346	1.74825	1.19702	3.1176	79.06	-0.2177	-0.0044	0.2133	1051.2957	0.150881	-401.980418	-401.972857	-401.971913	-402.012549	29.747	
O	 0.0077154523	-0.112393283	-0.0697705423	-0.37115
C	 0.0059505263	 1.1000782347	 0.0508240736	 0.383966
N	-1.2137191674	 1.7587528781	 0.1034633721	-0.342893
C	-1.5730151108	 3.1068995984	 0.1052747252	 0.011672
C	-0.8511614746	 4.1765173114	-0.2368707822	-0.106286
C	 0.5459875959	 4.2080475465	-0.7957048499	-0.289004
C	 1.5673781141	 3.2925422901	-0.1411835915	-0.028016
C	 1.4894623245	 2.8973649845	 1.2989159996	-0.304583
C	 1.2877858708	 1.8448865635	 0.211468606	-0.099323
H	-1.9731618103	 1.0924181695	 0.1015315898	 0.251856
H	-2.5992124893	 3.2474276494	 0.431824271	 0.108103
H	-1.3517633759	 5.1331020493	-0.1322431205	 0.093572
H	 0.5164109507	 3.9766078707	-1.8717852737	 0.119358
H	 0.9226253449	 5.2354152901	-0.728009913	 0.109801
H	 2.5701960765	 3.4409281482	-0.5342965392	 0.094999
H	 2.3979839344	 2.8309203567	 1.8862266204	 0.121352
H	 0.6112978633	 3.2049412323	 1.854583048	 0.133498
H	 2.1100806548	 1.1554045596	 0.0632500067	 0.113079
88.9042	127.7169	231.626	287.5597	364.4092	428.6231	468.3622	500.2001	603.6223	653.6446	697.1197	731.1715	741.1805	792.8381	845.6642	873.8367	914.7169	932.3543	962.8907	994.7052	1021.4318	1042.6989	1071.2852	1140.669	1147.1133	1154.3265	1223.7268	1259.9217	1282.8405	1344.3152	1372.2604	1392.9541	1414.0281	1454.4267	1481.0984	1488.9132	1499.1836	1740.0381	1766.4142	2987.7274	3047.5817	3134.4738	3144.1935	3165.4447	3186.8641	3189.0335	3232.4413	3602.3461
O=C1NC=CCC2CC12	O=C1NC=CC[C@H]2C[C@@H]12	
InChI=1S/C7H9NO/c9-7-6-4-5(6)2-1-3-8-7/h1,3,5-6H,2,4H2,(H,8,9)	InChI=1S/C7H9NO/c9-7-6-4-5(6)2-1-3-8-7/h1,3,5-6H,2,4H2,(H,8,9)/t5-,6+/m0/s1
