14
gdb 127355	3.39331	1.74484	1.16077	4.0637	69.42	-0.2307	-0.011	0.2197	977.5138	0.103468	-432.859821	-432.85285	-432.851906	-432.891695	25.61	
C	 0.0045236068	 1.4664888723	 0.0402815591	-0.348352
N	-0.011630256	 0.016701484	 0.0254201353	-0.169023
C	-0.107138349	-0.8276860362	-1.0878700404	-0.017315
N	-0.0982790246	-2.1063053296	-0.8037808781	-0.348744
C	 0.00886452	-2.1284857216	 0.5738652513	 0.140491
C	 0.0606020917	-0.8525536169	 1.0679037519	 0.482549
O	 0.163954664	-0.7833539801	 2.3868969122	-0.258015
N	 0.1844133886	-2.1582730663	 2.8331479326	-0.15288
C	 0.0927759262	-2.9099329062	 1.7564330403	-0.080451
H	 0.9351784761	 1.8400788964	 0.476905863	 0.15831
H	-0.0719755578	 1.8261868163	-0.9870773138	 0.152462
H	-0.8392239332	 1.8584029001	 0.6154476733	 0.158315
H	-0.1799280864	-0.401999451	-2.0787531902	 0.138003
H	 0.0924338438	-3.9821333411	 1.8950315735	 0.14465
72.2866	147.2004	241.5617	245.0875	354.8085	527.6442	602.352	622.8096	632.7053	701.6502	755.1099	780.4899	808.5133	818.3494	906.986	955.3021	1049.3089	1126.5714	1153.9901	1194.7065	1251.1525	1275.6909	1351.5377	1437.0629	1447.3803	1475.7008	1481.4604	1496.3454	1513.9759	1580.7641	1620.175	3046.7958	3111.7307	3144.4768	3242.4264	3242.9087
CN1C=NC2=C1ON=C2	Cn1cnc2c1onc2	
InChI=1S/C5H5N3O/c1-8-3-6-4-2-7-9-5(4)8/h2-3H,1H3	InChI=1S/C5H5N3O/c1-8-3-6-4-2-7-9-5(4)8/h2-3H,1H3
