17
gdb 16598	3.62192	1.73452	1.46775	1.9135	64.15	-0.2269	0.053	0.2799	898.3881	0.141629	-400.933187	-400.925353	-400.924408	-400.964967	29.786	
C	-0.1172571073	 1.4942479127	-0.044399138	-0.315969
N	 0.1256998997	 0.0626092349	 0.0767483637	-0.079408
C	 1.4109836942	-0.5553457043	-0.1318250547	-0.057878
C	 0.7420160488	-0.5584330153	 1.2256944483	-0.103227
C	 1.8864917647	 0.292295671	 1.8291809912	 0.097301
O	 2.6518222933	-0.3573581663	 2.8075018223	-0.437893
C	 2.5803942383	 0.2857589604	 0.4054444721	 0.041404
O	 3.7537023438	-0.5102121764	 0.4055656465	-0.432441
H	 0.6812685383	 2.1496497424	 0.3303623523	 0.109022
H	-0.2786192227	 1.7295782875	-1.1008165719	 0.126864
H	-1.0351780039	 1.7368736348	 0.4992755549	 0.128726
H	 1.5183580441	-1.3392620325	-0.8745942355	 0.10023
H	 0.2173765894	-1.351621527	 1.7492527341	 0.097633
H	 1.5964586021	 1.2640611688	 2.2395384783	 0.080231
H	 3.1810268539	-1.0148598826	 2.332389356	 0.281142
H	 2.7654683117	 1.2530842679	-0.0783745879	 0.069331
H	 4.4786465516	 0.031107764	 0.7367918184	 0.294934
126.6795	173.9797	208.6513	225.7317	300.2034	309.1664	361.7339	450.4779	559.5185	560.812	605.0545	728.9669	803.7121	864.2764	910.4795	917.8956	955.9404	1003.926	1061.58	1076.0317	1107.7488	1129.5525	1165.0525	1181.3561	1192.8326	1222.9831	1237.8016	1265.2656	1297.9223	1315.4878	1381.8031	1422.6347	1449.6952	1459.6999	1498.3267	1501.5806	3001.9217	3018.7699	3065.5238	3076.2757	3108.7166	3158.8735	3170.8816	3723.6099	3808.9606
CN1C2C1C(O)C2O	CN1[C@@H]2[C@H]1[C@@H](O)[C@H]2O	
InChI=1S/C5H9NO2/c1-6-2-3(6)5(8)4(2)7/h2-5,7-8H,1H3	InChI=1S/C5H9NO2/c1-6-2-3(6)5(8)4(2)7/h2-5,7-8H,1H3/t2-,3+,4+,5-,6?
