20
gdb 68318	2.93894	1.20846	1.00989	1.6116	84.92	-0.2298	0.0505	0.2803	1243.4744	0.170089	-365.902324	-365.893494	-365.89255	-365.936045	34.095	
C	 0.1890044927	 1.3574229248	 0.1559121736	-0.517939
C	 0.1174619154	-0.1473678239	 0.0930672602	 0.300567
C	 0.5473259331	-1.1076721339	-1.0452755995	-0.203831
N	 0.0178630581	-2.0979207573	 0.0078693956	-0.167524
C	 0.7913749706	-1.2078552398	 0.999141914	-0.21754
C	-1.129558158	-1.0770285485	 0.1561463425	 0.048231
C	-2.0420507056	-1.2050870356	 1.3790454036	-0.410854
C	-3.0240860093	-0.1271011724	 1.4225374183	 0.307186
C	-3.820613396	 0.7731678522	 1.432798973	-0.454667
H	 1.225106371	 1.7051964325	 0.0805339332	 0.117751
H	-0.3802647389	 1.8099509961	-0.6629753807	 0.123972
H	-0.2280367628	 1.7318373695	 1.0963726565	 0.129434
H	-0.0326272824	-1.1037193292	-1.9731353133	 0.098393
H	 1.6167115835	-1.2212842657	-1.2432067673	 0.097609
H	 1.8761708592	-1.3235055911	 0.9202153399	 0.098873
H	 0.4780469919	-1.305402241	 2.0397318145	 0.098391
H	-1.7595120832	-1.0588321675	-0.7400681386	 0.078833
H	-2.5548797055	-2.1738452582	 1.3173985062	 0.144627
H	-1.4783987485	-1.2193147282	 2.3168766394	 0.131783
H	-4.5314122853	 1.5616331371	 1.4536956188	 0.196705
49.894	103.6822	187.5366	210.6902	295.1911	330.376	343.8768	361.9101	443.6999	593.3211	607.1553	621.1385	635.7028	645.4251	756.2492	782.0657	851.2689	904.8661	908.7379	927.1854	967.3902	977.8747	1016.9166	1036.8183	1077.3119	1128.9543	1137.9336	1172.315	1193.1694	1197.9945	1210.7287	1235.359	1262.1979	1312.8194	1341.2653	1410.1335	1436.3635	1468.6822	1488.1654	1488.405	1516.3845	1557.4496	2238.1944	3029.0771	3029.9461	3040.4187	3046.0533	3061.3903	3077.582	3098.31	3103.1848	3112.073	3123.498	3505.9811
CC12CN(C1)C2CC#C	C[C@@]12CN(C1)[C@H]2CC#C	
InChI=1S/C8H11N/c1-3-4-7-8(2)5-9(7)6-8/h1,7H,4-6H2,2H3	InChI=1S/C8H11N/c1-3-4-7-8(2)5-9(7)6-8/h1,7H,4-6H2,2H3/t7-/m0/s1
