21
gdb 83117	2.11436	1.62977	1.39554	1.2034	83.07	-0.2354	0.0314	0.2669	1085.6104	0.18308	-387.093516	-387.084794	-387.08385	-387.126258	34.452	
C	 0.1500519712	 1.6388491218	 0.1095648066	-0.424755
C	 0.0985990357	 0.1257442395	 0.1076486928	-0.07401
C	 1.2678379535	-0.7656851696	-0.3030434834	-0.097517
C	 2.6311000634	-0.2009388943	-0.6682507873	-0.278848
C	 3.3607163581	 0.4609725225	 0.4682405577	-0.058236
C	 2.941475807	 0.4704262864	 1.7314682695	-0.040706
C	 1.6776399126	-0.1864278354	 2.2161955672	-0.347766
C	 0.7893784228	-0.7594923361	 1.1213729173	 0.381012
O	 0.0987203543	-1.9273926532	 1.5031156496	-0.471034
H	 1.1175115325	 2.0221470484	 0.4399991126	 0.130856
H	-0.0389469814	 2.0347612776	-0.8949237582	 0.115436
H	-0.6184477138	 2.0550523156	 0.7712460174	 0.11071
H	-0.86264942	-0.2792957988	-0.2005587908	 0.081653
H	 0.9779221212	-1.6472964185	-0.8656431899	 0.091696
H	 3.2586134545	-1.0169592393	-1.0537692222	 0.114007
H	 2.5411333224	 0.5056263266	-1.5067416163	 0.10646
H	 4.2982455058	 0.9497086514	 0.2130148396	 0.083424
H	 3.5406954446	 0.9660926324	 2.491740928	 0.083659
H	 1.9427291766	-1.0234063644	 2.8762098557	 0.121198
H	 1.1127307242	 0.5177186597	 2.8465184469	 0.097482
H	-0.5977416751	-1.6681584022	 2.1169932669	 0.275278
123.6421	161.6639	177.0497	216.6334	246.8922	316.6108	387.6821	389.2223	451.5091	467.9824	496.7481	567.1469	671.5626	682.2464	775.2305	819.7375	862.061	917.963	932.3145	961.3306	991.1638	1011.9716	1016.4929	1027.8393	1076.492	1113.1715	1123.4428	1141.0437	1193.8703	1201.4556	1240.3007	1246.4655	1275.835	1338.5643	1356.9389	1366.643	1374.615	1414.6141	1419.2818	1459.3006	1475.5571	1483.2789	1502.6156	1508.387	1734.5216	2986.9758	2996.1529	3016.7794	3028.384	3028.7598	3078.756	3119.4267	3136.4745	3140.3837	3159.2759	3164.2483	3788.3146
CC1C2CC=CCC12O	C[C@H]1[C@H]2CC=CC[C@@]12O	
InChI=1S/C8H12O/c1-6-7-4-2-3-5-8(6,7)9/h2-3,6-7,9H,4-5H2,1H3	InChI=1S/C8H12O/c1-6-7-4-2-3-5-8(6,7)9/h2-3,6-7,9H,4-5H2,1H3/t6-,7+,8+/m0/s1
