15
gdb 45639	5.83905	0.8858	0.77645	2.7471	72.59	-0.2487	-0.0136	0.2351	1377.5706	0.111873	-416.824206	-416.815836	-416.814892	-416.857905	30.529	
O	 0.1077827289	-0.056469602	 0.001108716	-0.355778
C	 0.002328679	 1.1434253966	 0.0091870586	 0.401376
C	-1.2412720415	 2.0418552282	 0.0317137045	-0.300667
N	-0.7642311119	 3.425437278	 0.0322573304	-0.281138
C	 0.5103252062	 3.3643013258	 0.0136204079	 0.414218
C	 1.4646985357	 4.5303345969	 0.0062435157	-0.501672
C	 0.8271549181	 5.837585267	 0.0210654785	 0.351623
C	 0.3387771409	 6.9332474288	 0.0327847537	-0.435371
N	 1.0418279452	 2.071103761	-0.0009012658	-0.381617
H	-1.873803337	 1.8441266518	-0.8406508618	 0.153348
H	-1.8486277988	 1.8347691145	 0.9196583034	 0.153331
H	 2.1359269136	 4.4290365658	 0.8714602805	 0.156087
H	 2.1123539824	 4.4373535606	-0.8776644775	 0.156028
H	-0.1111807841	 7.895003463	 0.0431967824	 0.203679
H	 2.0164027534	 1.8164980039	-0.0164153164	 0.266554
40.1069	114.5679	141.2257	243.484	278.8973	325.9416	409.1144	447.4628	498.4912	548.3891	626.1173	639.1087	658.2201	680.5894	731.9654	887.2048	951.2124	951.3019	979.9997	998.3102	1055.1263	1144.7033	1178.3527	1221.8992	1233.8468	1284.5446	1346.5078	1436.6732	1440.1826	1454.6208	1711.2837	1859.0099	2256.8493	3004.7725	3028.9879	3053.3005	3087.8986	3506.4221	3649.6718
O=C1CN=C(CC#C)N1	O=C1CN=C(CC#C)N1	
InChI=1S/C6H6N2O/c1-2-3-5-7-4-6(9)8-5/h1H,3-4H2,(H,7,8,9)	InChI=1S/C6H6N2O/c1-2-3-5-7-4-6(9)8-5/h1H,3-4H2,(H,7,8,9)
