17
gdb 74155	2.79756	1.55164	1.08571	5.9664	80.9	-0.2087	-0.0042	0.2045	1102.2856	0.136943	-418.019963	-418.01202	-418.011076	-418.052093	31.587	
N	 0.0513642003	 1.3627031773	-0.132570829	-0.602144
C	-0.0234168178	-0.003667529	-0.0387335833	 0.293174
C	-1.0944312113	-0.8245260802	-0.0329580198	-0.364135
C	-0.6264460752	-2.2068333605	 0.0011192803	 0.379579
N	-1.2111978122	-3.3331539995	 0.0204353359	-0.545039
O	 0.7558861804	-2.1846190893	 0.0226890343	-0.263265
C	 1.194392077	-0.8516267631	-0.0174978206	 0.403477
C	 2.4489210029	-0.5460711793	-0.7929536348	-0.320153
C	 2.4647971385	-0.5123746212	 0.7186569041	-0.336263
H	 0.8691288579	 1.8023973574	 0.2619341741	 0.257939
H	-0.7979435767	 1.8708860501	 0.0616384884	 0.262873
H	-2.1383178337	-0.5473888141	-0.048991611	 0.097933
H	-2.2199153353	-3.1957627147	 0.0014819673	 0.212267
H	 2.9205725733	-1.3903058263	-1.2817422441	 0.144221
H	 2.4901289694	 0.3888914729	-1.341347934	 0.124032
H	 2.5380982596	 0.4435973393	 1.2285204243	 0.11005
H	 2.9403790929	-1.3369365397	 1.236573478	 0.145453
110.9937	176.5138	231.4196	240.8236	324.7998	360.4325	438.8082	512.7854	529.5897	547.6245	620.0694	663.1413	705.1944	744.7861	768.8038	777.7717	826.3007	895.9919	898.0824	935.4619	960.0414	1015.9187	1051.5732	1068.4258	1069.1794	1095.2176	1192.3017	1220.9051	1261.9185	1316.8037	1350.8536	1452.9566	1455.2265	1491.2576	1643.3605	1695.3497	1739.7694	3126.8126	3138.2609	3219.762	3236.3853	3236.9105	3508.733	3576.4803	3677.3718
NC1=CC(=N)OC11CC1	N[C]1C=C([NH])OC21CC2	
InChI=1S/C6H8N2O/c7-4-3-5(8)9-6(4)1-2-6/h3,8H,1-2,7H2	InChI=1S/C6H8N2O/c7-4-3-5(8)9-6(4)1-2-6/h3,8H,1-2,7H2
