19
gdb 92129	2.53572	1.7888	1.27684	3.0855	74.74	-0.2229	0.0521	0.275	1021.0949	0.161193	-419.124451	-419.116965	-419.116021	-419.156266	30.296	
O	 0.0691825277	 0.9065608251	-1.0409297952	-0.44262
C	-0.013350682	-0.1603259626	-0.1467108345	 0.148281
C	 0.1114152238	 0.0731917233	 1.3916320158	-0.226121
N	-1.0816189276	-0.8088286823	 1.6570987696	-0.131445
C	-2.3144689103	-0.0022193441	 1.9286477006	-0.256311
C	-2.5343221217	 0.1992524765	 0.4263681862	 0.325201
C	-3.7441403553	 0.5203499628	-0.3520429958	-0.317071
N	-2.6319440798	 1.4935585083	-0.272378933	-0.369015
C	-1.3923342278	-0.7873652618	 0.1613718868	-0.1105
H	-0.7696118797	 1.3940320506	-0.9833429039	 0.298884
H	 0.6971019821	-0.9228567997	-0.4814356732	 0.091976
H	 1.0231224808	-0.2915407882	 1.8717629692	 0.106708
H	-0.0429454281	 1.1216916298	 1.6750397683	 0.093808
H	-3.084245296	-0.6122080007	 2.4138673247	 0.114221
H	-2.14742522	 0.8994329938	 2.5300999089	 0.10496
H	-3.8938134628	 0.0786890216	-1.3332694784	 0.132069
H	-4.6586624951	 0.7476844219	 0.1896275786	 0.121797
H	-2.8584477214	 2.2308526003	 0.3910584786	 0.237862
H	-1.6698634368	-1.7288765044	-0.3204192133	 0.077316
90.6161	188.5701	256.2467	326.7858	336.6806	408.0074	418.6693	510.5322	593.9248	632.3405	669.7639	768.4614	817.8264	847.677	851.6026	904.425	945.66	966.2879	967.6592	993.1233	998.8523	1045.561	1052.8681	1093.9806	1134.0828	1158.9981	1167.7364	1192.2571	1204.8958	1239.2298	1263.1817	1270.8191	1292.2756	1296.5249	1317.8136	1357.5776	1418.6395	1480.0578	1485.4829	1500.769	1511.1218	3021.489	3027.1001	3053.3158	3071.742	3073.3645	3094.4775	3109.9062	3196.8647	3494.3371	3635.2108
OC1CN2CC3(CN3)C12	O[C@H]1CN2C[C@]3(CN3)[C@@H]12	
InChI=1S/C6H10N2O/c9-4-1-8-3-6(2-7-6)5(4)8/h4-5,7,9H,1-3H2	InChI=1S/C6H10N2O/c9-4-1-8-3-6(2-7-6)5(4)8/h4-5,7,9H,1-3H2/t4-,5+,6+/m0/s1
