18
gdb 105915	2.18108	1.84698	1.23943	1.1183	71.85	-0.242	0.0592	0.3011	1039.5851	0.147494	-438.972378	-438.964311	-438.963367	-439.005018	31.106	
O	-0.0427607176	 1.3336322887	 0.0209299497	-0.418736
C	-0.0190245685	-0.080588427	-0.0767090747	-0.20164
C	-1.4186383918	-0.618318904	-0.129552092	 0.302912
C	-2.5464428896	-0.2873502216	-1.1233866527	 0.077619
O	-2.5443219915	-0.9280524451	-2.3720097713	-0.443836
C	-3.213497802	-1.0765749385	-0.0056737067	-0.031252
C	-1.9994871143	-2.0330986033	 0.2086551713	-0.122263
C	-2.0054457533	-1.6610592772	 1.6869512419	-0.194841
N	-2.3827084868	-0.3170951303	 1.0665909469	-0.216778
H	-0.6857043966	 1.5438462449	 0.710139754	 0.294863
H	 0.5189988292	-0.329482397	-0.9989044859	 0.111525
H	 0.5373297243	-0.5384353624	 0.7576064144	 0.093151
H	-2.8211867292	 0.7734407505	-1.1815320066	 0.084259
H	-2.0327746769	-0.3920614406	-2.9858363453	 0.291558
H	-4.2687429578	-1.2915794349	 0.1688135579	 0.086072
H	-1.7937232171	-2.9822660355	-0.290856302	 0.079983
H	-2.7958870364	-2.0779308134	 2.319599634	 0.10442
H	-1.055601374	-1.6463137134	 2.2306140571	 0.102985
78.194	165.1887	204.2719	221.7629	271.9233	314.3317	422.7888	448.9991	512.4671	564.6182	679.5502	720.6525	793.9659	826.5792	864.6522	893.3733	923.6505	952.5194	991.1942	1021.4025	1051.4977	1077.6107	1094.2917	1109.0227	1135.0851	1150.7073	1167.075	1191.6396	1224.8487	1231.3895	1261.5875	1280.5217	1299.2148	1331.2573	1368.6083	1433.6507	1446.6941	1498.0417	1525.2175	2970.2993	3032.4384	3040.5002	3058.5772	3084.2804	3096.6184	3110.2282	3774.839	3824.5551
OCC12C(O)C3C1CN23	OC[C@@]12[C@@H](O)[C@H]3[C@@H]1CN23	
InChI=1S/C6H9NO2/c8-2-6-3-1-7(6)4(3)5(6)9/h3-5,8-9H,1-2H2	InChI=1S/C6H9NO2/c8-2-6-3-1-7(6)4(3)5(6)9/h3-5,8-9H,1-2H2/t3-,4+,5-,6-/m0/s1
