20
gdb 89432	2.81169	1.65534	1.3973	3.093	77.38	-0.2225	0.0666	0.2892	1012.2333	0.172326	-403.11015	-403.102364	-403.10142	-403.141793	31.807	
C	 0.0475092367	 1.5283646041	-0.000069942	-0.49409
C	 0.0165866017	 0.0142701771	 0.0022558255	 0.297436
C	-1.2969284666	-0.6960651928	 0.4332822467	-0.187843
N	-0.5622776639	-1.611299247	 1.3725101094	-0.147202
C	 0.6234449049	-2.1585519346	 0.6525374448	-0.020696
C	 0.6726846224	-0.7782647019	 1.1733984771	-0.096662
C	 0.6572986166	-2.1764051309	-0.8686855619	 0.078443
O	-0.4136296984	-2.9812293193	-1.353159654	-0.42744
C	 0.5612634554	-0.6742544202	-1.2580985622	-0.278751
H	 1.0649094169	 1.9059805041	-0.1558430341	 0.113956
H	-0.5812730463	 1.93234274	-0.8017929096	 0.117522
H	-0.3205082421	 1.9349317717	 0.9479404841	 0.118811
H	-1.9488184005	-0.053161415	 1.031421189	 0.09937
H	-1.8783896557	-1.2079925256	-0.3376482692	 0.112183
H	 1.0762034816	-2.9805356606	 1.1961981758	 0.096122
H	 1.2788559039	-0.4067158785	 1.9925213161	 0.086745
H	 1.6167165903	-2.6005304455	-1.1991357297	 0.067163
H	-0.3253028862	-3.0457777614	-2.3092925435	 0.28281
H	-0.0847718297	-0.5278797572	-2.1316149028	 0.08915
H	 1.5560460993	-0.2819029267	-1.5023974297	 0.092972
151.1997	219.8882	231.3791	278.5221	306.7036	334.1252	408.8111	436.1285	517.1329	602.0845	640.622	699.289	785.8044	797.3344	846.6275	877.7148	891.8641	932.9048	943.6604	988.9516	991.9938	1022.1676	1049.268	1060.7778	1072.06	1155.8613	1168.3436	1191.5845	1218.4721	1230.9517	1245.8638	1256.2521	1274.2502	1294.5055	1339.6234	1365.8915	1391.2108	1414.8921	1427.7972	1472.7481	1494.1715	1495.0719	1504.8781	2985.8923	3021.1018	3026.2623	3052.6417	3071.9574	3086.2382	3093.7992	3113.6603	3165.1222	3177.5895	3818.506
CC12CN3C(C13)C(O)C2	C[C@]12CN3[C@H]([C@@H]13)[C@@H](O)C2	
InChI=1S/C7H11NO/c1-7-2-4(9)5-6(7)8(5)3-7/h4-6,9H,2-3H2,1H3	InChI=1S/C7H11NO/c1-7-2-4(9)5-6(7)8(5)3-7/h4-6,9H,2-3H2,1H3/t4-,5-,6-,7-,8?/m0/s1
