19
gdb 94353	2.69867	1.10569	1.0173	3.6444	78.02	-0.2362	-0.0204	0.2158	1270.846	0.157111	-423.004986	-422.995933	-422.994989	-423.039376	33.116	
C	-0.3063876898	 1.4507509736	 0.0569449774	-0.408168
C	 0.0554867979	-0.0218474933	-0.0766670919	-0.129149
C	 1.386492482	-0.3589336488	-0.7918536623	-0.086717
O	 1.9337435107	-0.9557674275	 0.4111245167	-0.30259
C	 0.7366937186	-0.6922963369	 1.1221356953	 0.456809
C	 0.7368022081	-0.3627989528	 2.5597593804	-0.375147
C	 0.2028695694	-1.7313797917	 2.1026735138	-0.189671
C	-1.2477094873	-1.989741269	 2.1630202055	 0.164729
O	-1.7566064673	-3.0770004742	 2.2895979302	-0.269242
H	 0.5360887708	 2.0304308696	 0.4479668891	 0.127365
H	-0.5858732203	 1.8705086526	-0.9149155243	 0.124479
H	-1.1556434985	 1.5919262066	 0.7337698838	 0.123747
H	-0.7913964077	-0.5926082387	-0.4654651487	 0.097118
H	 1.32427878	-1.0844668845	-1.609537652	 0.113809
H	 1.9767911373	 0.5068445242	-1.1132925698	 0.108626
H	 1.6872602557	-0.36725542	 3.0811185285	 0.139675
H	 0.009623128	 0.3545259586	 2.9300025629	 0.126136
H	 0.8408768038	-2.5945873325	 2.2585295329	 0.119881
H	-1.8772747413	-1.0705950254	 2.0749605426	 0.058311
57.2682	85.2664	139.2667	184.0556	242.6513	246.9227	334.6801	375.7586	396.6611	449.2903	565.0925	569.6687	769.6265	846.445	863.6166	880.2392	894.5704	923.8284	963.733	1009.7719	1042.9337	1046.8751	1065.2605	1084.2831	1119.6936	1150.0945	1166.301	1180.8225	1202.6729	1264.35	1292.1064	1341.9422	1369.3281	1393.467	1413.0949	1442.6224	1471.0669	1496.4374	1498.9756	1526.4914	1813.4169	2827.7222	3028.9083	3033.4224	3069.3413	3084.0536	3100.99	3109.5287	3124.7615	3182.5934	3221.7768
CC1COC11CC1C=O	C[C@H]1CO[C@]21C[C@H]2C=O	
InChI=1S/C7H10O2/c1-5-4-9-7(5)2-6(7)3-8/h3,5-6H,2,4H2,1H3	InChI=1S/C7H10O2/c1-5-4-9-7(5)2-6(7)3-8/h3,5-6H,2,4H2,1H3/t5-,6-,7-/m0/s1
