15
gdb 29034	2.70376	1.70211	1.0876	1.5743	80.18	-0.2501	-0.0912	0.1589	1056.9507	0.113126	-416.835115	-416.827307	-416.826363	-416.867648	28.51	
C	-0.2284741285	 1.5108629179	 0.0294842926	-0.469043
C	-0.0774673283	 0.0160730709	-0.0155549299	 0.149839
C	-0.116305348	-0.6553205757	-1.2062213176	-0.041548
N	 0.2093718009	-1.9433275145	-1.5154221495	-0.237225
C	 0.2617441699	-2.9304223865	-0.6819347712	 0.088373
N	-0.2056535229	-3.0341557745	 0.6013861183	-0.207894
C	-0.3278445229	-2.0541382055	 1.4211578177	-0.034364
C	 0.1006411524	-0.6273577693	 1.2934835823	 0.258733
O	 0.3955583024	-0.0071135156	 2.3031468922	-0.335908
H	 0.6963340098	 1.9709619815	 0.3939575826	 0.156583
H	-0.4658416428	 1.9211991877	-0.9542927703	 0.125033
H	-1.0090627805	 1.8007689091	 0.7407799321	 0.14712
H	-0.3279410415	-0.0582337781	-2.0926269349	 0.117705
H	 0.6417518071	-3.8722054763	-1.0756043898	 0.135168
H	-0.7741475873	-2.271048631	 2.3949760854	 0.147428
83.8427	137.9182	178.5837	283.3118	300.4384	331.067	354.6615	460.3119	504.5204	619.4452	649.4768	721.6129	750.4323	837.9061	946.7554	960.6584	996.5517	1006.9144	1054.6623	1065.3546	1123.672	1169.8372	1292.4468	1389.2204	1409.3337	1426.6563	1445.5591	1464.3164	1479.5579	1539.3395	1617.8807	1675.4199	1727.0664	3039.2451	3093.4061	3107.1783	3129.8553	3136.0452	3145.9796
CC1=CN=CN=CC1=O	Cc1cncncc1=O	
InChI=1S/C6H6N2O/c1-5-2-7-4-8-3-6(5)9/h2-4H,1H3	InChI=1S/C6H6N2O/c1-5-2-7-4-8-3-6(5)9/h2-4H,1H3
