15
gdb 69218	2.73016	1.679	1.1972	3.609	67.84	-0.267	-0.0303	0.2366	1014.2321	0.113118	-453.971363	-453.963723	-453.962779	-454.003452	28.816	
C	-0.0280175623	 1.5359468606	 0.0155932184	-0.495359
C	 0.1135561009	 0.0418807919	 0.0333080993	 0.156894
N	-0.7660251814	-0.8381825527	 0.8466565296	-0.354676
C	 0.6958133649	-0.8044100886	 1.1063245041	-0.202969
C	 1.3737279267	-1.9407387102	 0.4269995689	 0.476332
N	 2.1235344311	-2.8002186784	 0.950787525	-0.53065
O	 1.0710278703	-1.8770730301	-0.9309146041	-0.233204
C	 0.4391426412	-0.684265948	-1.2487727228	 0.459862
O	 0.2486931851	-0.3464815227	-2.3746247171	-0.322242
H	 0.8797023952	 2.0109725444	-0.3676064127	 0.147321
H	-0.8581604941	 1.8302731356	-0.6328280694	 0.156943
H	-0.2172396756	 1.9185047899	 1.0229861521	 0.125095
H	-1.2224627938	-0.2547233579	 1.5477372657	 0.24568
H	 1.0861140059	-0.4256323366	 2.041339789	 0.129825
H	 2.4762250357	-3.4577251373	 0.2530515041	 0.241147
133.8912	148.1985	181.2889	250.2171	302.6721	352.3869	401.3304	529.2873	555.8402	633.7717	689.002	735.3228	785.0043	830.6034	872.259	893.4767	919.2485	972.1801	1010.4659	1031.5857	1054.4302	1100.0459	1126.7862	1158.6136	1285.2248	1332.9037	1365.2544	1413.8236	1439.9085	1478.6488	1497.5954	1801.4505	1916.4344	3043.7803	3116.9987	3119.8429	3218.2549	3474.7541	3480.144
CC12NC1C(=N)OC2=O	C[C@]12N[C@H]1[C]([NH])OC2=O	
InChI=1S/C5H6N2O2/c1-5-2(7-5)3(6)9-4(5)8/h2,6-7H,1H3	InChI=1S/C5H6N2O2/c1-5-2(7-5)3(6)9-4(5)8/h2,6-7H,1H3/t2-,5-/m0/s1
