22
gdb 121643	4.86034	0.63798	0.58406	2.8971	84.9	-0.2444	0.0091	0.2535	1966.1409	0.192496	-404.358382	-404.347918	-404.346973	-404.395716	36.626	
C	 0.0296022947	 1.4972635264	 0.245914812	-0.37987
C	-0.0341611836	-0.0105199304	-0.0118546993	-0.171143
C	-1.4606093066	-0.5658119952	 0.0493377416	-0.148759
C	-1.5236746799	-2.07095874	-0.2087002782	-0.309899
C	-2.9338637205	-2.6363865549	-0.1307597413	 0.363711
O	-3.9098646483	-1.9802482335	 0.1574438373	-0.331823
N	-3.0307273199	-3.9805644804	-0.5088736438	-0.076432
C	-2.4711073482	-5.0943490082	 0.2379384168	-0.234164
C	-3.9532268548	-4.8928598579	 0.1222411927	-0.216231
H	 1.0579722732	 1.8686365416	 0.1964720816	 0.109827
H	-0.5606927263	 2.0494873836	-0.4935676019	 0.116309
H	-0.3680678469	 1.7461006684	 1.2359976907	 0.115391
H	 0.402711844	-0.232987702	-0.9948039325	 0.093071
H	 0.5935178661	-0.534778214	 0.7217496886	 0.090562
H	-1.9051458258	-0.3501946243	 1.0276700998	 0.108694
H	-2.0942831327	-0.0498542915	-0.6813249982	 0.109921
H	-1.1117574834	-2.3239884022	-1.1937921351	 0.127622
H	-0.8959970106	-2.6127869325	 0.5128948358	 0.114781
H	-1.9718096027	-5.8617119053	-0.3474862766	 0.127042
H	-2.0122835321	-4.8823067226	 1.2012570621	 0.12734
H	-4.4885273341	-4.525267478	 0.9935136395	 0.137387
H	-4.5323034015	-5.5225468771	-0.5469120016	 0.126665
24.0778	66.3942	92.0711	115.0622	124.0871	205.4383	225.9389	244.2209	303.8366	343.8486	479.409	583.1685	608.6764	733.5684	778.605	803.5305	819.6127	911.5518	926.637	937.1279	974.8369	1029.2447	1045.5822	1073.1358	1107.8129	1118.789	1129.0626	1134.1783	1147.6441	1173.2827	1177.5493	1234.5338	1281.5859	1309.3564	1325.1275	1354.6326	1391.6806	1406.7269	1415.8702	1457.5513	1483.8047	1495.1534	1497.422	1499.0682	1511.5322	1524.2332	1789.5444	3008.6838	3017.7761	3030.0766	3035.0988	3042.0833	3051.563	3081.9763	3098.0947	3102.0113	3102.555	3116.4751	3186.8884	3206.7463
CCCCC(=O)N1CC1	CCCCC(=O)N1CC1	
InChI=1S/C7H13NO/c1-2-3-4-7(9)8-5-6-8/h2-6H2,1H3	InChI=1S/C7H13NO/c1-2-3-4-7(9)8-5-6-8/h2-6H2,1H3
