21
gdb 81494	3.48008	1.23797	1.0355	0.7491	90.16	-0.2495	0.0508	0.3002	1229.0796	0.181137	-349.869778	-349.860701	-349.859757	-349.902841	35.878	
C	-0.1857811826	 1.6269487944	 0.1533127865	-0.449153
C	 0.0156334341	 0.1176831626	 0.1175094379	 0.044788
C	 1.1753939012	-0.5409551474	-0.7010601061	-0.08614
C	 2.1541635309	-0.0485231228	 0.4048201273	-0.251862
C	 0.9190643507	-0.6193293853	 1.1612276002	-0.085977
C	 0.9726207654	-1.8503482502	 0.1663937185	 0.188671
C	-0.2584873057	-2.7463075669	-0.040735221	-0.487755
C	 2.1337846021	-2.727291927	 0.2896358201	 0.250925
C	 3.0368917135	-3.5176131519	 0.3810310364	-0.449668
H	 0.7312796069	 2.2007228579	 0.3016725186	 0.119425
H	-0.6392855036	 1.9674284336	-0.7844175209	 0.117715
H	-0.8761402306	 1.8944961495	 0.9612538509	 0.117735
H	-0.9600676331	-0.3445172543	-0.0360899791	 0.062502
H	 1.3272702874	-0.5131305334	-1.782218738	 0.069888
H	 3.0889352073	-0.5976480418	 0.5103471307	 0.115763
H	 2.3227290645	 1.0246112069	 0.4732205747	 0.090591
H	 0.7733847736	-0.6825326867	 2.2417546116	 0.069869
H	-1.1926904484	-2.1952361959	-0.1502991333	 0.121021
H	-0.1213579656	-3.3605848549	-0.9358224793	 0.128706
H	-0.3657018658	-3.4283944936	 0.8081762351	 0.12866
H	 3.8457892377	-4.2004272427	 0.4639266089	 0.184293
122.5518	161.3002	165.1305	168.5586	249.9893	285.7454	302.4009	404.5297	480.7847	513.4357	525.2417	595.6987	614.5251	632.8556	662.9089	738.252	797.8692	811.9052	863.0527	897.8268	923.5878	1014.4951	1017.5282	1018.3469	1048.5825	1082.6286	1089.7756	1126.7709	1129.7341	1159.0175	1170.3898	1201.8138	1223.9311	1232.4302	1251.4758	1266.183	1399.7371	1415.2378	1433.2874	1489.6156	1494.6261	1496.9536	1503.9105	1529.3293	2221.0667	3034.1012	3047.7335	3084.3247	3087.1228	3087.5418	3090.7192	3106.0203	3107.2062	3124.8326	3142.2805	3160.5422	3502.6857
CC1C2CC1C2(C)C#C	C[C@H]1[C@H]2C[C@@H]1[C@]2(C)C#C	
InChI=1S/C9H12/c1-4-9(3)7-5-8(9)6(7)2/h1,6-8H,5H2,2-3H3	InChI=1S/C9H12/c1-4-9(3)7-5-8(9)6(7)2/h1,6-8H,5H2,2-3H3/t6-,7+,8-,9+
