17
gdb 51323	5.42745	0.99962	0.94688	3.0507	74.23	-0.2446	0.018	0.2626	1242.4263	0.136775	-417.922497	-417.915018	-417.914074	-417.955329	28.106	
N	-0.0489771425	 1.2101241427	-0.0709717646	-0.439844
C	-0.0353756755	-0.0509747277	-0.0950773471	 0.124098
O	-1.1559950222	-0.7429613369	 0.1955522158	-0.204081
C	-1.0951379269	-2.1528208323	 0.0199876727	 0.135997
C	-2.3906346256	-2.7546043943	 0.5486261952	-0.070156
C	-3.0323088245	-2.6632639066	-0.7847073608	-0.029762
C	-1.5709041481	-2.6182788771	-1.3832633332	-0.130581
C	-1.5892417959	-4.1426220525	-1.2120558258	-0.156239
N	-2.7124678688	-4.0027333029	-0.2202379811	-0.151573
H	 0.8777595813	 1.5712039455	-0.2875409245	 0.229986
H	 0.828755177	-0.6910054258	-0.3228772191	 0.08459
H	-0.1331986469	-2.5371389364	 0.3844616985	 0.081078
H	-2.8164925178	-2.6566986571	 1.5376316418	 0.111831
H	-4.0112186557	-2.3488331262	-1.1174577073	 0.109216
H	-1.2189583546	-2.1093236937	-2.2784058775	 0.087026
H	-1.9660633589	-4.681465053	-2.0844229186	 0.118008
H	-0.6862934344	-4.6366033558	-0.8324385244	 0.100406
59.7051	96.4708	137.9951	279.6231	380.5192	411.5714	443.6625	679.4595	746.1117	777.8866	802.5549	823.1144	830.1904	885.1232	932.0542	946.7954	964.5089	991.4819	1001.6291	1039.149	1045.0128	1056.017	1079.9691	1136.0536	1161.2375	1163.0871	1187.6668	1203.2984	1227.6184	1277.4737	1294.0022	1301.4998	1337.5238	1383.3256	1426.7002	1511.3884	1747.7234	3008.9957	3022.7492	3031.8258	3106.3896	3140.1262	3213.1589	3226.8764	3518.0113
N=COC1C2C3C1CN23	[NH][CH]O[C@H]1[C@H]2[C@H]3[C@@H]1CN23	
InChI=1S/C6H8N2O/c7-2-9-6-3-1-8-4(3)5(6)8/h2-7H,1H2	InChI=1S/C6H8N2O/c7-2-9-6-3-1-8-4(3)5(6)8/h2-7H,1H2/t3-,4+,5+,6+,8?/m0/s1
