20
gdb 109738	1.77186	1.5687	1.10513	6.3124	75.49	-0.2459	0.0262	0.2721	1212.5836	0.171712	-440.312396	-440.303105	-440.302161	-440.346715	34.686	
C	 0.1236099709	 1.3672571357	 0.3126558128	-0.377833
C	 0.0183850598	-0.0360657438	-0.2978900611	-0.221436
C	-1.3727911256	-0.6194949515	-0.1310915072	-0.005179
C	-1.6806724755	-2.0887083882	-0.1409796553	-0.076509
N	-0.579859217	-3.0307626268	-0.2305005929	-0.53305
H	 0.1861445506	-2.5573327756	 1.2789010106	 0.317229
H	-0.9060442284	-3.9787234144	-0.0709774353	 0.254373
H	-0.1445275491	-3.0048403884	-1.1469470157	 0.251575
C	-1.838445018	-1.3014980392	 1.155437922	-0.182255
C	-0.9250325456	-1.4371885684	 2.3477505026	 0.412875
O	 0.2094226451	-2.1336319858	 2.1750829759	-0.385965
O	-1.2008159549	-0.9272496976	 3.4040152448	-0.350885
H	 1.1245152994	 1.7836319443	 0.1661592594	 0.115013
H	-0.5959565393	 2.0543312895	-0.1460996825	 0.112646
H	-0.0787900705	 1.3399276855	 1.3875452416	 0.146941
H	 0.2541956439	 0.0095792023	-1.3695991972	 0.093113
H	 0.768378437	-0.6855445678	 0.1599219115	 0.117124
H	-2.1445658947	-0.0053014885	-0.5895665316	 0.099959
H	-2.6094258661	-2.3871051489	-0.6250329607	 0.096578
H	-2.8495808818	-1.0745547222	 1.4704879585	 0.115687
65.7985	91.8543	148.7213	187.9322	236.6692	277.6255	290.732	353.2267	399.1319	442.3522	502.713	560.4113	692.068	728.7172	786.7663	803.9509	826.9345	839.3004	916.9189	962.7711	985.8647	998.2121	1023.0936	1053.5495	1071.2737	1114.087	1151.8919	1182.5605	1245.8454	1251.5519	1286.1616	1305.1989	1339.8225	1361.7241	1401.5079	1415.4681	1448.5228	1489.4406	1496.0755	1498.9341	1510.5716	1652.1945	1842.2862	3019.4236	3035.6943	3090.2176	3103.358	3109.321	3117.2124	3134.9495	3190.1791	3252.0311	3501.7934	3578.3215
CCC1C([NH3+])C1C([O-])=O	CC[C@H]1[C@@H](N)[C@H]1C(=O)O	
InChI=1S/C6H11NO2/c1-2-3-4(5(3)7)6(8)9/h3-5H,2,7H2,1H3,(H,8,9)	InChI=1S/C6H11NO2/c1-2-3-4(5(3)7)6(8)9/h3-5H,2,7H2,1H3,(H,8,9)/t3-,4+,5-/m1/s1
