18
gdb 111836	2.5762	1.57927	1.45796	1.663	72.54	-0.2239	0.0259	0.2498	1005.4843	0.148911	-439.063112	-439.054996	-439.054052	-439.096194	29.872	
C	-0.5335145686	 0.9233343591	-0.0328961581	-0.23942
O	 0.4665530426	-0.069656067	 0.1449190744	-0.23277
C	 0.928900301	-0.590021113	-1.051122992	 0.103894
C	 1.4487462698	-1.9955895284	-1.0129746894	-0.166032
C	 1.3417206519	-2.8030181479	 0.2633713287	-0.07772
O	 0.0012408794	-3.0499821279	 0.7246683396	-0.227235
C	-1.0477882826	-2.733325293	-0.0568050289	 0.139459
N	-1.0851652794	-2.1438031768	-1.1783916593	-0.266687
C	 0.1497587138	-1.7069671515	-1.7416693742	-0.052892
H	-0.1460534309	 1.7765274473	-0.6091760841	 0.105473
H	-1.4104871021	 0.5121773294	-0.5461475866	 0.135954
H	-0.8182875838	 1.2685100055	 0.9633927978	 0.127394
H	 1.434054494	 0.1294356655	-1.6988954607	 0.087068
H	 2.3343613028	-2.218003491	-1.599747403	 0.097866
H	 1.8025323163	-3.78382697	 0.1037807995	 0.118161
H	 1.8552853112	-2.3136282414	 1.0967052768	 0.128529
H	-1.9669968313	-3.0753329063	 0.4144525886	 0.123075
H	 0.1525896657	-1.7028813226	-2.8267801691	 0.095883
78.5848	118.0703	134.3679	190.3515	239.6149	304.0845	460.5387	504.413	523.0202	644.9309	692.6708	751.7379	797.8314	842.2568	923.0057	943.3321	955.9554	994.255	1024.8126	1067.4613	1080.2191	1112.9926	1124.4988	1149.554	1184.1535	1202.0602	1219.4591	1261.487	1283.2897	1356.0084	1360.274	1398.8867	1421.0287	1442.2634	1485.4525	1487.4645	1506.6511	1510.1262	1721.1856	2993.9583	3040.5711	3067.7062	3078.8955	3080.3948	3126.6315	3152.5802	3161.0968	3164.3271
COC1C2COC=NC12	CO[C@H]1[C@H]2COC=N[C@@H]12	
InChI=1S/C6H9NO2/c1-8-6-4-2-9-3-7-5(4)6/h3-6H,2H2,1H3	InChI=1S/C6H9NO2/c1-8-6-4-2-9-3-7-5(4)6/h3-6H,2H2,1H3/t4-,5+,6-/m0/s1
