12
gdb 133143	2.09013	0.93992	0.67442	2.2185	59.07	-0.2513	-0.0847	0.1666	1517.0342	0.068805	-513.950752	-513.939191	-513.938247	-513.994068	33.55	
C	-0.073660972	 1.6759815481	 0.0225360654	-0.491198
C	-0.2769552757	 0.1941408797	-0.2097701291	 0.309517
C	-1.5071115704	-0.3701628527	 0.3419423268	-0.132558
F	-2.3914790452	 0.3976392781	 1.0145258054	-0.081936
C	-1.7775943019	-1.6707076201	 0.183461432	 0.456346
O	-2.0042643291	-2.7936824293	 0.0402805561	-0.172746
N	 1.4287177699	-3.4172949707	-0.1446522508	-0.002216
N	 2.3906973732	-3.4258233246	-0.6751141877	-0.002452
O	 0.5114022804	-0.5118366476	-0.8139384045	-0.334766
H	-0.0579834748	 1.8981807384	 1.0947276366	 0.151539
H	 0.8692766174	 1.9761027198	-0.4349346772	 0.149109
H	-0.9000047117	 2.2502133609	-0.4093438529	 0.151361
6.8586	17.5295	35.4467	46.4016	77.3062	89.5856	105.2534	134.6719	233.2059	281.2361	412.9568	474.8359	504.6975	599.4664	645.2586	721.3493	946.1131	1038.2442	1105.1645	1330.751	1361.3364	1394.1505	1460.1675	1468.3126	1742.6705	2227.29	2432.5465	3043.3352	3106.4285	3159.3522	6.858	17.5283	35.4464	46.4015	77.306	89.5851	105.2528	134.6719	233.2059	281.236	412.9567	474.8358	504.6977	599.4663	645.2585	721.3492	946.1131	1038.2442	1105.1645	1330.7509	1361.3363	1394.1504	1460.1676	1468.3127	1742.6702	2227.2894	2432.5465	3043.3352	3106.4285	3159.3522
CC1=C(F)C(=O)N=NO1	CC(=O)[C](F)[C][O].N#N	
InChI=1S/C4H3FN2O2/c1-2-3(5)4(8)6-7-9-2/h1H3	InChI=1S/C4H3FO2.N2/c1-3(7)4(5)2-6;1-2/h1H3;
