18
gdb 94928	3.96108	1.08022	0.95401	3.3752	74.52	-0.2526	-0.0033	0.2494	1249.3274	0.147428	-439.084953	-439.07664	-439.075695	-439.118112	30.684	
C	 0.4504049697	 1.4479165148	-0.0756016945	-0.405618
C	-0.2056050661	 0.075643827	 0.0756113987	 0.114472
O	 0.0533566177	-0.7693005633	-1.0524682549	-0.268638
C	 1.1563753062	-1.6339576578	-0.7914221569	-0.106507
C	 1.2144592206	-1.780678457	 0.7135153595	-0.04664
C	 0.3448372866	-0.6897036433	 1.2666650971	-0.076363
N	-0.0704076426	-2.0855711632	 1.3092562996	-0.075433
C	-0.212989753	-2.8291664334	 2.4689381252	 0.138644
O	 0.4125637806	-3.8269321603	 2.7311667676	-0.289206
H	 1.5422833197	 1.367202654	-0.09018364	 0.119844
H	 0.1282167154	 1.9100984261	-1.0117751505	 0.1347
H	 0.1673960748	 2.1085633639	 0.751030577	 0.116908
H	-1.2951016262	 0.1825033425	 0.1291308769	 0.098006
H	 0.9692303058	-2.5756680028	-1.3159990424	 0.127157
H	 2.1046713094	-1.2102742627	-1.1567244624	 0.099408
H	 2.1095291396	-2.1295197606	 1.2168553385	 0.122191
H	 0.5806303941	-0.1801936829	 2.1959921799	 0.111423
H	-1.0276036023	-2.4364807311	 3.1075119318	 0.085651
89.8551	123.9297	172.1075	213.5734	239.8005	271.5442	320.7622	402.4331	454.9999	674.2374	714.3749	737.9004	809.3263	838.9625	864.8223	909.6088	976.483	1013.8117	1022.8815	1036.7062	1049.5311	1082.948	1105.9669	1127.9549	1135.8534	1174.7385	1231.414	1266.9749	1304.3609	1340.7754	1368.8274	1383.573	1404.3256	1416.1001	1444.9938	1488.5931	1495.3099	1512.7832	1798.7234	2951.9585	2988.0574	3036.8894	3046.4739	3082.9134	3105.6345	3126.3837	3166.445	3186.8174
CC1OCC2C1N2C=O	C[C@H]1OC[C@H]2[C@@H]1N2C=O	
InChI=1S/C6H9NO2/c1-4-6-5(2-9-4)7(6)3-8/h3-6H,2H2,1H3	InChI=1S/C6H9NO2/c1-4-6-5(2-9-4)7(6)3-8/h3-6H,2H2,1H3/t4-,5+,6-,7?/m1/s1
