21
gdb 113444	4.85844	0.80408	0.76261	2.3648	80.9	-0.2184	0.0682	0.2865	1556.8816	0.182259	-420.344108	-420.33471	-420.333765	-420.37865	34.947	
C	-0.1094300455	 1.6052075388	 0.3791513523	-0.318119
N	-0.0583284982	 0.1767040173	 0.1653375859	-0.070047
C	-1.2694849437	-0.6209818729	 0.4640071152	-0.236818
C	-0.3547946005	-1.6842407195	 1.0764318117	 0.332936
C	 0.7636944133	-0.6395192193	 1.0837599578	-0.252177
N	-0.7214204217	-2.6212443996	 2.127789518	-0.397546
C	-0.2409803215	-3.1332728489	 0.8163965625	-0.116416
C	-1.2810027567	-3.924418931	 0.0600343325	-0.059426
O	-1.5495085185	-5.1600338653	 0.7001823367	-0.421309
H	 0.8764800437	 2.0443704126	 0.1930562725	 0.121223
H	-0.815529788	 2.0596833403	-0.3237497623	 0.123093
H	-0.4208922622	 1.8835324483	 1.4047270565	 0.090034
H	-1.9249765849	-0.1676792525	 1.22562176	 0.092748
H	-1.8699371359	-0.884918078	-0.4130088298	 0.108104
H	 1.747314006	-0.9266390677	 0.6940948106	 0.106437
H	 0.8932000928	-0.1828180101	 2.0811412678	 0.084883
H	 0.0161752026	-2.6747809827	 2.8265703445	 0.2324
H	 0.7648030191	-3.5504143108	 0.789979085	 0.091305
H	-2.1959873614	-3.3217375471	-0.043687564	 0.089654
H	-0.9231082208	-4.165401563	-0.9464392142	 0.109546
H	-1.795015018	-4.9355298889	 1.6058684807	 0.289494
60.3519	86.2679	136.5114	191.617	231.011	265.9509	300.1647	354.4651	415.4001	438.2499	460.0352	489.4087	576.0848	738.8977	835.9381	855.8054	938.7771	955.4273	960.943	989.0556	1015.1896	1024.3241	1068.0604	1087.2928	1097.9985	1123.7063	1144.0654	1178.315	1191.004	1214.638	1222.6571	1261.2333	1272.6028	1304.839	1325.2919	1353.5633	1388.1074	1429.4433	1451.42	1484.5393	1495.5285	1497.3714	1497.9348	1503.6209	1524.4519	2918.7751	2944.482	2972.4063	2992.3732	3045.6749	3056.3579	3059.1536	3075.5126	3098.8294	3121.4557	3491.9004	3787.7904
CN1CC2(C1)NC2CO	CN1CC2(C1)N[C@H]2CO	
InChI=1S/C6H12N2O/c1-8-3-6(4-8)5(2-9)7-6/h5,7,9H,2-4H2,1H3	InChI=1S/C6H12N2O/c1-8-3-6(4-8)5(2-9)7-6/h5,7,9H,2-4H2,1H3/t5-/m0/s1
