12
gdb 48059	2.17813	1.39093	1.01548	3.1575	66.	-0.278	-0.1253	0.1527	1139.0752	0.073367	-435.46056	-435.451456	-435.450511	-435.495574	30.595	
O	-0.7906844577	 1.3624580782	-0.0780069402	-0.204622
C	 0.2902504154	 0.9450723975	-0.3939897298	 0.095403
C	 1.5704024741	 1.7798747657	-0.246251782	 0.3032
O	 2.6464502638	 1.270233366	-0.3720698503	-0.23306
C	 1.3388175237	 3.2802408345	 0.1128795557	-0.451304
C	 2.5335491543	 3.9182999369	 0.6449374637	 0.332901
C	 3.5196774314	 4.4285227695	 1.0971447958	-0.373119
C	 0.8329566568	 3.9522988139	-1.0942218123	 0.296354
N	 0.438850268	 4.4511955803	-2.0583306074	-0.306764
H	 0.4762790087	-0.0775446064	-0.7767638989	 0.13511
H	 0.5219475057	 3.2938849786	 0.8475275776	 0.188906
H	 4.3928951958	 4.8859470252	 1.4939461681	 0.216994
36.7113	115.0771	126.9806	128.4973	151.4191	228.5324	352.0971	383.8194	415.4853	527.928	567.743	580.5524	622.7611	658.5412	679.7098	808.9462	942.4888	1001.7561	1056.7084	1130.1146	1249.7506	1300.0518	1360.7475	1821.1555	1842.3835	2258.1994	2363.8609	2959.1265	3032.2478	3500.8016
O=CC(=O)C(C#C)C#N	O=CC(=O)[C@@H](C#C)C#N	
InChI=1S/C6H3NO2/c1-2-5(3-7)6(9)4-8/h1,4-5H	InChI=1S/C6H3NO2/c1-2-5(3-7)6(9)4-8/h1,4-5H/t5-/m0/s1
