25
gdb 110295	2.1874	1.2445	1.13803	0.199	92.76	-0.2445	0.0784	0.3229	1317.3796	0.228524	-352.330859	-352.320672	-352.319728	-352.36564	38.778	
C	-0.5201377581	 0.5641031444	 0.1816445964	-0.385222
C	-0.5814760151	-0.9213107208	-0.1942937911	-0.19598
C	-0.0992448027	-1.1978840317	-1.6207176369	 0.019324
C	 0.1598085984	-2.6352571096	-2.1029505904	-0.119132
C	-1.0632040617	-3.4751773735	-2.3536393149	 0.022008
C	-2.3048959881	-3.6400781563	-1.4981697538	-0.42515
C	-0.7213338702	-2.397777693	-3.3475290495	-0.099049
C	-1.0048351481	-0.9542524604	-2.8974725463	 0.009044
C	-2.4404144464	-0.4412996573	-2.8041921291	-0.417613
H	 0.5021380727	 0.9501446076	 0.0967827534	 0.111648
H	-1.1551114125	 1.1706181997	-0.4725715986	 0.118795
H	-0.8535619623	 0.7287694204	 1.2112152793	 0.109276
H	 0.0499865078	-1.4953914343	 0.4969871802	 0.093887
H	-1.6001972806	-1.2898734334	-0.0401625093	 0.095142
H	 0.8265853799	-0.6273300616	-1.76108947	 0.067976
H	 1.1411869625	-3.0966294616	-2.0623051457	 0.075399
H	-0.7523616356	-4.4389855705	-2.7601197566	 0.083266
H	-2.6429191831	-2.7151169275	-1.0342637352	 0.124142
H	-3.13423862	-4.0303000206	-2.099497287	 0.111596
H	-2.115665498	-4.3588057611	-0.6924066591	 0.111559
H	-0.4987512377	-2.6574730831	-4.3773106732	 0.075316
H	-0.4604234319	-0.2788865543	-3.5659136477	 0.072967
H	-3.057823156	-1.0055912238	-2.1027874491	 0.115797
H	-2.4639602998	 0.6099641866	-2.4962682933	 0.1123
H	-2.9252046235	-0.5045049443	-3.7853365625	 0.112706
75.9841	103.6972	156.9515	174.1631	198.9503	227.568	245.0762	261.7264	295.3844	349.74	443.5711	523.818	625.1344	676.5442	699.5085	721.2633	785.2627	810.1023	870.946	916.2706	923.2646	977.4248	999.3978	1022.7029	1040.9149	1050.996	1066.4886	1069.6756	1090.0702	1099.0905	1148.6223	1171.8073	1176.5254	1230.4942	1234.5305	1284.778	1296.6988	1305.3074	1334.3516	1364.2613	1381.9625	1395.9048	1408.2559	1410.1883	1415.6567	1460.073	1479.6235	1489.2589	1493.1504	1499.1582	1503.5407	1503.8573	1509.5177	3017.4837	3021.7675	3029.4893	3030.7237	3032.4035	3044.2958	3071.2951	3081.2953	3086.6643	3091.5218	3098.874	3102.4031	3125.7305	3151.4373	3161.1599	3164.4851
CCC1C2C(C)C2C1C	CC[C@H]1[C@H]2[C@@H](C)[C@H]2[C@H]1C	
InChI=1S/C9H16/c1-4-7-5(2)8-6(3)9(7)8/h5-9H,4H2,1-3H3	InChI=1S/C9H16/c1-4-7-5(2)8-6(3)9(7)8/h5-9H,4H2,1-3H3/t5-,6-,7+,8+,9+/m0/s1
