20
gdb 26653	2.18673	1.58518	0.93964	0.6734	84.36	-0.1946	0.0336	0.2283	1280.5539	0.169205	-403.198986	-403.188603	-403.187659	-403.234222	37.017	
C	 0.1721913414	 1.4306672545	 0.1407037569	-0.491674
C	-0.0507804045	-0.0390287042	 0.0831733019	 0.264433
C	-1.1613891752	-0.8198667741	-0.0395613077	 0.075606
C	-2.5884801388	-0.3835301019	-0.1613881575	-0.508859
C	-0.6967204912	-2.1890698116	-0.0303932605	 0.196094
C	-1.528958286	-3.4263400304	-0.1384992199	-0.509311
C	 0.6549757311	-2.1316256764	 0.0966969893	 0.153309
N	 1.6136871992	-3.1490159532	 0.160464316	-0.595268
O	 1.0678068276	-0.8200876874	 0.1677052135	-0.21224
H	 0.8172022078	 1.77262235	-0.6774618212	 0.13255
H	-0.7781355899	 1.9635366784	 0.0658121385	 0.130623
H	 0.6540409759	 1.7285598425	 1.0795588644	 0.132555
H	-3.0400290891	-0.7366407678	-1.0965888338	 0.125421
H	-3.2031843421	-0.7812326764	 0.6554035854	 0.125421
H	-2.6824689147	 0.7055055491	-0.1424241416	 0.120249
H	-2.0966366969	-3.4530093968	-1.0767355551	 0.11953
H	-0.8917278432	-4.3129409189	-0.1005061935	 0.138464
H	-2.2606848508	-3.4957571915	 0.675751848	 0.119525
H	 2.1369153241	-3.1237926888	 1.0309958977	 0.241783
H	 2.2868149652	-3.0847538851	-0.5978343308	 0.241789
79.4316	105.1991	134.9941	143.5338	179.0381	195.6458	233.0637	271.1022	288.3242	310.1054	348.925	520.6217	573.5475	611.7488	639.0203	673.604	717.7241	804.7384	841.8524	956.8031	995.3625	1052.758	1061.1499	1075.954	1094.318	1135.8213	1168.6088	1215.1015	1269.8491	1299.2972	1401.773	1412.3507	1424.8932	1437.3288	1472.6455	1480.8893	1487.6685	1491.0182	1491.4543	1499.8352	1639.3215	1662.4801	1717.6473	3019.6019	3021.4889	3025.0447	3064.1284	3065.601	3071.136	3108.6502	3122.8232	3126.654	3484.3418	3546.2745
CC1=C(C)C(C)=C(N)O1	Cc1c(C)c(C)c(N)o1	
InChI=1S/C7H11NO/c1-4-5(2)7(8)9-6(4)3/h8H2,1-3H3	InChI=1S/C7H11NO/c1-4-5(2)7(8)9-6(4)3/h8H2,1-3H3
