18
gdb 70177	3.54958	1.31543	1.09016	4.726	79.2	-0.2364	-0.0513	0.185	1128.6771	0.148443	-401.963963	-401.956023	-401.955079	-401.996356	30.997	
C	 0.1709286345	 1.5501980371	-0.0741018901	-0.488816
C	 0.0158976744	 0.0479658701	 0.0175253077	 0.276997
N	-0.859358394	-0.5167279303	 1.0884888795	-0.356673
C	 0.5956306716	-0.6991753823	 1.1728573659	-0.08687
C	 1.1142591052	-2.1059395001	 0.988647882	-0.33136
C	 0.607198492	-2.8284695958	-0.2609086826	 0.371574
O	 0.6356655709	-4.0402793756	-0.3352211394	-0.334184
C	 0.1625577107	-1.9913714037	-1.3943615856	-0.173855
C	-0.0811441991	-0.6808643715	-1.2744724779	-0.054521
H	 1.0577792788	 1.8232802376	-0.6559896772	 0.132365
H	-0.6994002354	 2.0041471275	-0.5622027041	 0.129516
H	 0.272920592	 1.996189062	 0.9201044951	 0.118842
H	-1.1490700041	 0.2354312327	 1.7113433161	 0.229555
H	 1.1311238704	-0.1037629129	 1.9106267794	 0.087299
H	 2.2095623933	-2.0800887277	 0.9047109923	 0.12928
H	 0.8838957995	-2.7306939848	 1.8568884899	 0.136813
H	 0.0314455826	-2.5136670088	-2.3365692188	 0.110325
H	-0.3906531233	-0.1021382435	-2.1424953124	 0.103715
69.0797	191.2663	233.6968	249.6121	318.7471	365.3758	404.2774	456.1732	477.5756	587.9121	621.7474	683.4109	721.0018	753.5628	826.5647	844.9431	923.8368	947.6321	954.427	1005.8096	1022.9717	1050.8905	1099.5152	1124.3752	1156.3702	1174.5704	1215.1923	1246.4068	1292.6761	1339.852	1345.2817	1417.306	1421.4953	1443.7377	1451.9874	1486.4285	1501.9985	1686.2017	1775.1792	3026.1841	3027.1392	3088.9376	3090.9516	3104.2664	3115.9152	3146.8159	3191.5603	3478.2724
CC12NC1CC(=O)C=C2	C[C@]12N[C@H]1CC(=O)C=C2	
InChI=1S/C7H9NO/c1-7-3-2-5(9)4-6(7)8-7/h2-3,6,8H,4H2,1H3	InChI=1S/C7H9NO/c1-7-3-2-5(9)4-6(7)8-7/h2-3,6,8H,4H2,1H3/t6-,7+/m0/s1
