19
gdb 38194	3.2117	1.84936	1.81869	1.6585	78.82	-0.2333	0.0945	0.3277	870.6002	0.16222	-385.786007	-385.779915	-385.778971	-385.815882	27.333	
C	 9.9*^-7	 1.5482151736	 0.0208835911	 0.076891
C	-0.4725244082	 1.8489518364	 1.4969770934	-0.373401
C	 0.454115324	 0.8093984438	 2.149223066	 0.294238
C	 1.899484738	 0.9269225751	 2.7252936602	-0.271094
C	 1.8468180031	-0.4810771528	 2.0341410064	-0.186768
C	 0.4291699192	-0.6496928077	 2.7065478724	-0.298813
C	 1.0942367958	 0.2188815012	 0.8850807356	 0.42508
C	-0.0631587132	 0.0000495217	-0.1000122321	-0.314058
O	 1.4614322214	 1.4203987199	 0.1348076688	-0.340443
H	-0.3117075189	 2.2145393451	-0.7838266327	 0.081553
H	-0.2509075563	 2.8760656676	 1.7954361667	 0.114086
H	-1.5422404397	 1.6678429627	 1.6336724683	 0.106844
H	 2.5435197033	 1.6737546064	 2.2640063342	 0.118293
H	 1.9968642069	 0.9117394005	 3.8140519435	 0.086754
H	 2.6400659802	-1.2290570937	 1.9914977639	 0.074849
H	 0.4441452638	-0.7633032244	 3.7932371568	 0.097824
H	-0.2576754549	-1.3619371459	 2.2448776964	 0.098187
H	-0.9618228724	-0.5269715494	 0.2281773404	 0.09853
H	 0.2620228578	-0.33230491	-1.0863640992	 0.111448
279.2193	310.4698	401.089	462.1825	493.6982	530.4944	590.9447	615.8373	721.1549	770.4271	794.9024	811.4438	844.8884	885.7996	893.3945	914.6332	942.6772	959.745	976.1989	993.6856	1026.4766	1056.7436	1070.8895	1087.2593	1107.372	1117.6312	1156.5942	1159.0745	1188.8545	1202.1609	1203.5598	1221.2713	1248.3728	1262.5214	1270.1546	1297.2742	1320.7089	1471.4248	1486.6116	1494.391	1529.7897	3060.6167	3064.9589	3065.9461	3073.5662	3100.7408	3117.3072	3123.7888	3126.6399	3144.623	3156.2112
C12CC34CC(C3)C4(C1)O2	[C@@H]12C[C@@]34C[C@@H](C3)[C@]4(C1)O2	
InChI=1S/C8H10O/c1-5-2-7(1)3-6-4-8(5,7)9-6/h5-6H,1-4H2	InChI=1S/C8H10O/c1-5-2-7(1)3-6-4-8(5,7)9-6/h5-6H,1-4H2/t5-,6-,7+,8+/m1/s1
