22
gdb 118865	3.52669	0.95469	0.88691	2.6789	81.94	-0.2287	0.0783	0.307	1403.7473	0.19325	-404.297371	-404.287845	-404.286901	-404.331611	36.244	
C	-0.0094031708	 1.7030882935	 0.0744637847	-0.450547
C	 0.0298688309	 0.1820673947	-0.0135951024	 0.329097
C	-1.3694089908	-0.4167240138	-0.1841803377	-0.203808
C	-2.1105984747	 0.0179930215	-1.444200092	-0.092542
O	-3.2760942329	-0.7881006917	-1.5480456036	-0.417862
C	 1.0819946109	-0.4744874777	-0.9670148265	-0.310991
C	 1.653907672	-1.1532123172	 0.2722112769	-0.006772
C	 2.0636588728	-0.1627465333	 1.2812245407	-0.248875
N	 0.6340953806	-0.5177557208	 1.2019389844	-0.157073
H	 0.977135779	 2.1363645833	 0.2565593611	 0.113539
H	-0.3817364454	 2.1365913975	-0.8594034685	 0.120107
H	-0.6740011844	 2.020716608	 0.8852279884	 0.125395
H	-1.285253791	-1.5088887453	-0.1997188015	 0.109864
H	-1.9706255639	-0.1657365902	 0.6969637914	 0.10926
H	-2.3762608115	 1.0844233861	-1.387243246	 0.086588
H	-1.4629746577	-0.1081809365	-2.3283063332	 0.083302
H	-3.7829360096	-0.4856477653	-2.3071413875	 0.284304
H	 0.6325575916	-1.1633885567	-1.6846442626	 0.109316
H	 1.7648813651	 0.1929156126	-1.5022046615	 0.097177
H	 1.9088305363	-2.2053260161	 0.3501692201	 0.09194
H	 2.5242617635	-0.5296454714	 2.1935999047	 0.120439
H	 2.4086471402	 0.8204809587	 0.9726499005	 0.108144
78.233	107.218	148.5026	183.445	231.5445	271.1769	288.7215	330.8349	365.8094	411.4611	433.9807	527.2739	673.2738	756.6196	768.1499	801.2271	828.9445	855.6903	918.197	970.7832	979.398	1004.1945	1016.2434	1036.9404	1062.8289	1069.1583	1106.3051	1119.3033	1140.0864	1150.3791	1195.725	1225.7862	1250.8171	1258.8742	1276.6242	1288.8401	1324.6994	1344.402	1367.4624	1409.8739	1462.3659	1477.2821	1486.1753	1488.6721	1503.7482	1509.2886	1529.5528	2957.9585	2995.4225	3035.9379	3042.9109	3048.6445	3085.2305	3102.1865	3108.686	3110.7716	3117.3831	3159.4813	3197.4393	3828.7342
CC1(CCO)CC2CN12	C[C@@]1(CCO)C[C@H]2CN12	
InChI=1S/C7H13NO/c1-7(2-3-9)4-6-5-8(6)7/h6,9H,2-5H2,1H3	InChI=1S/C7H13NO/c1-7(2-3-9)4-6-5-8(6)7/h6,9H,2-5H2,1H3/t6-,7+,8?/m0/s1
