19
gdb 36816	11.0622	0.4552	0.44202	0.5291	85.26	-0.2626	0.0477	0.3103	2363.4584	0.155221	-385.814285	-385.803605	-385.802661	-385.851355	37.138	
C	-0.101122757	-1.166671157	-0.0034187473	-0.447368
C	-0.0557784849	 0.0341673433	 0.0026703309	 0.286874
C	 0.035233462	 1.4876260566	 0.0096368848	-0.350786
C	 1.4874332708	 1.9769562318	-0.0017834546	-0.050702
O	 1.4608134012	 3.3866804362	 0.0060650898	-0.242814
C	 2.7440087894	 3.9709899273	-0.003120438	-0.050701
C	 2.558796534	 5.4921947529	 0.0070389638	-0.350785
C	 3.8306864142	 6.2014889095	-0.001303618	 0.286842
C	 4.8944598336	 6.7604460531	-0.0087068666	-0.447336
H	-0.1558001817	-2.2269771865	-0.0086270231	 0.19724
H	-0.4820671249	 1.9063584673	-0.8617000063	 0.140568
H	-0.465059307	 1.8968724395	 0.8952930089	 0.140566
H	 2.0237347011	 1.5889445091	 0.8784810951	 0.102508
H	 2.0065524621	 1.598496748	-0.8963908019	 0.102508
H	 3.3260140493	 3.6554229997	 0.8770646494	 0.102508
H	 3.3088672169	 3.6651879764	-0.8978042929	 0.102508
H	 1.9573005886	 5.7773794055	-0.8641890406	 0.140571
H	 1.9742760187	 5.7677173049	 0.8928047615	 0.140561
H	 5.8274875238	 7.2670778824	-0.0156490848	 0.197238
40.381	62.0091	66.6682	123.429	144.9922	146.4349	211.7887	350.5796	354.4692	355.0966	401.6269	537.8386	539.8202	624.2127	624.3845	650.477	650.8708	794.3888	800.7593	956.7295	972.0239	1035.7365	1042.3108	1082.5843	1097.5992	1098.1811	1162.9355	1219.4566	1241.7019	1299.0274	1299.6383	1302.2795	1315.0808	1395.0321	1445.5937	1476.3333	1477.8294	1515.0127	1537.0712	2242.5335	2242.637	2969.8672	2980.771	3005.7018	3007.9422	3035.4574	3035.7952	3073.133	3073.1861	3507.255	3507.443
C#CCCOCCC#C	C#CCCOCCC#C	
InChI=1S/C8H10O/c1-3-5-7-9-8-6-4-2/h1-2H,5-8H2	InChI=1S/C8H10O/c1-3-5-7-9-8-6-4-2/h1-2H,5-8H2
