20
gdb 102824	2.60794	0.98674	0.76925	2.4458	76.92	-0.2538	-0.0284	0.2254	1483.4234	0.168166	-440.245834	-440.235671	-440.234726	-440.282244	35.237	
C	 0.4353019888	-0.293844496	 1.1706912976	-0.253512
O	-0.1709386461	-0.6984962173	-0.038400313	-0.241965
C	 0.5881997686	-0.4700786145	-1.2093077446	 0.073093
C	 1.7396359102	-1.4872780971	-1.3797323015	-0.28111
C	 2.9648050296	-1.2184134632	-0.536616408	 0.149649
O	 3.5615526064	-2.0438598271	 0.1051255396	-0.242171
C	-0.3783633945	-0.5537793576	-2.3713225523	 0.028174
C	-1.1337750304	 0.6433337819	-2.7984034478	-0.246522
N	-0.0542763649	 0.0999361043	-3.6483887385	-0.326103
H	 1.3081107569	-0.9069016972	 1.4328533657	 0.135081
H	 0.746219989	 0.7618511526	 1.1334601275	 0.104741
H	-0.315244786	-0.4106102348	 1.9560003604	 0.135067
H	 1.0150114416	 0.5511554509	-1.1865689663	 0.057018
H	 1.382778369	-2.5044615502	-1.1967754116	 0.134118
H	 2.0751814811	-1.426923512	-2.4259605502	 0.136594
H	 3.3161537146	-0.1583849289	-0.5718155902	 0.06913
H	-0.8434718021	-1.5308023732	-2.4850115702	 0.103266
H	-2.1342335949	 0.5395993323	-3.207128788	 0.125652
H	-0.9571122982	 1.5719326394	-2.2615312929	 0.113299
H	 0.7796298013	 0.6752441178	-3.5436150357	 0.226498
53.3231	77.0339	87.586	93.4224	164.8583	190.5646	217.3511	310.8676	323.7949	409.9904	453.1667	471.179	569.5892	742.1261	822.7434	880.445	921.5416	945.2457	964.4817	1015.9142	1032.5645	1074.1119	1095.9578	1129.441	1142.676	1164.8536	1179.1038	1198.3865	1206.2565	1245.2265	1253.7251	1274.5294	1299.6649	1342.9266	1369.8257	1429.3925	1438.0565	1443.2157	1479.64	1497.0224	1510.2215	1516.1838	1831.5598	2835.7571	2918.9774	2982.7758	3013.1976	3046.9908	3107.5249	3113.1171	3117.5576	3133.1552	3199.4613	3478.2283
COC(CC=O)C1CN1	CO[C@@H](CC=O)[C@H]1CN1	
InChI=1S/C6H11NO2/c1-9-6(2-3-8)5-4-7-5/h3,5-7H,2,4H2,1H3	InChI=1S/C6H11NO2/c1-9-6(2-3-8)5-4-7-5/h3,5-7H,2,4H2,1H3/t5-,6+/m1/s1
