16
gdb 34073	3.94598	1.4387	1.42653	4.8574	71.16	-0.2579	0.014	0.2718	941.3198	0.127048	-400.758229	-400.751799	-400.750855	-400.788878	26.469	
N	 0.008961176	-1.0824338087	-0.0352249504	-0.334216
C	-0.0008589999	 0.072192876	-0.0224108896	 0.206419
C	 0.0194822323	 1.521599256	 0.0476887968	 0.251323
C	-0.669331931	 2.1936584672	 1.2688562849	-0.253758
C	-0.4762217425	 3.6157180027	 0.7628441787	-0.123739
C	 0.8360631981	 3.6357787845	-0.0284132601	-0.123727
C	 1.4054926413	 2.2253768088	 0.0178336661	-0.253786
C	-0.4858454157	 3.4789711262	-0.7406707687	 0.093909
O	-0.6640910686	 2.1110147894	-1.0710305116	-0.283345
H	-1.7183632216	 1.8994672222	 1.3465148845	 0.127638
H	-0.1517276664	 1.9747915022	 2.2054211195	 0.121537
H	-0.8653594875	 4.4827998213	 1.2777548663	 0.10304
H	 1.4534683039	 4.5182404489	-0.1204056191	 0.103039
H	 1.9970829639	 2.0076638087	 0.9097900755	 0.121541
H	 1.9701590709	 1.9559002665	-0.8774837994	 0.127636
H	-0.9225506832	 4.168692958	-1.4474620336	 0.116488
158.2678	166.5057	404.6675	432.6297	513.8851	520.1243	549.4424	578.4911	671.7317	708.663	795.6046	810.1636	810.3305	905.4261	916.5937	971.1993	973.5949	989.1209	1004.4223	1045.9692	1049.0077	1084.7373	1092.6485	1100.7866	1168.8299	1169.4815	1198.689	1261.2799	1280.2998	1294.7802	1327.076	1385.1134	1478.0646	1496.7266	2373.0871	3072.0104	3077.3328	3128.2295	3132.6058	3213.3689	3219.0037	3237.8323
N#CC12CC3C(C1)C3O2	N#C[C@@]12C[C@H]3[C@@H](C1)[C@H]3O2	
InChI=1S/C7H7NO/c8-3-7-1-4-5(2-7)6(4)9-7/h4-6H,1-2H2	InChI=1S/C7H7NO/c8-3-7-1-4-5(2-7)6(4)9-7/h4-6H,1-2H2/t4-,5+,6-,7+
