19
gdb 90964	2.78551	1.65055	1.38783	1.5561	74.5	-0.2306	0.0773	0.3079	1011.4314	0.158505	-422.972651	-422.964761	-422.963817	-423.004653	31.257	
C	-0.3189219277	 1.5829728115	 0.5573439369	-0.404993
C	-0.0967628537	 0.0808961649	 0.4738812305	 0.110764
O	 0.4420778573	-0.2863192208	-0.8280423362	-0.292583
C	 1.5950206705	-1.0155758918	-0.5001932417	 0.05196
C	 1.3857297486	-1.8778642127	 0.7763042581	 0.018131
O	 2.7811114901	-1.6869983091	 1.1678414005	-0.349613
C	 2.3637870386	-0.3570966844	 0.6910322606	 0.405035
C	 3.3655172822	 0.7530917758	 0.7205857953	-0.532885
C	 0.9643568367	-0.5132170815	 1.3925602171	-0.134928
H	 0.6225835406	 2.1324558953	 0.4721727652	 0.121835
H	-0.9795248614	 1.9100873425	-0.2505779485	 0.131051
H	-0.7885548918	 1.8466978426	 1.5108090379	 0.117099
H	-1.0580356362	-0.4370487219	 0.5997705495	 0.083258
H	 2.1151092542	-1.3979970504	-1.3763862287	 0.097153
H	 0.9422533562	-2.8643551723	 0.9062030848	 0.091683
H	 4.2760317949	 0.4475251389	 0.195565576	 0.137035
H	 2.9659122434	 1.6420389515	 0.2239637849	 0.135653
H	 3.6325421404	 1.017872325	 1.7482874234	 0.132488
H	 0.8825210571	-0.4055034932	 2.4731589745	 0.081855
146.2901	162.8705	202.7051	226.953	278.4348	320.8793	461.7549	483.7759	504.8804	632.6155	687.8468	712.8841	773.766	808.8521	833.5437	882.6669	907.81	923.138	944.1267	1006.1207	1026.058	1040.8753	1081.486	1096.2323	1114.2492	1135.9315	1147.7894	1184.5705	1213.4986	1235.3173	1265.2938	1281.6772	1327.4734	1388.1281	1391.4112	1409.5967	1420.5505	1474.5968	1484.6363	1491.1788	1495.6897	3002.9808	3039.3364	3042.306	3110.2308	3112.0516	3117.2379	3124.7293	3124.7756	3140.1834	3153.8368
CC1OC2C3OC2(C)C13	C[C@H]1O[C@@H]2[C@H]3O[C@]2(C)[C@@H]13	
InChI=1S/C7H10O2/c1-3-4-5-6(8-3)7(4,2)9-5/h3-6H,1-2H3	InChI=1S/C7H10O2/c1-3-4-5-6(8-3)7(4,2)9-5/h3-6H,1-2H3/t3-,4+,5+,6-,7-/m1/s1
