19
gdb 15886	2.58829	1.86684	1.19538	3.667	72.28	-0.241	0.0384	0.2794	1049.8974	0.165038	-365.098119	-365.089301	-365.088357	-365.13156	32.098	
C	 0.081774935	 1.6534729121	-0.0037750125	-0.388051
C	-0.093338456	 0.1298362408	 0.0071721007	-0.194296
C	 0.655265735	-0.5137517001	 1.1722900439	-0.158415
C	 0.7395706539	-2.078740646	 1.2979716056	 0.04086
C	 0.0777134497	-2.9445530119	 0.2355862344	-0.397303
N	 2.1966845503	-1.9278255942	 1.1691199684	-0.335624
C	 2.2003283096	-0.5600695709	 1.0576549396	 0.439921
O	 3.0832291208	 0.246659834	 0.9174348797	-0.372788
H	 1.1419072502	 1.9177609065	-0.0446117795	 0.153127
H	-0.4221442223	 2.1001255629	-0.8661043936	 0.109139
H	-0.3402802539	 2.1041692371	 0.9013503345	 0.112242
H	-1.1587149885	-0.125791713	 0.0722772563	 0.096707
H	 0.2679045248	-0.283876043	-0.9413786834	 0.103922
H	 0.3481937619	-0.0496999821	 2.1157157895	 0.09596
H	 0.4454697823	-2.4286742911	 2.295437448	 0.082698
H	 0.3671176918	-2.6353767468	-0.7721264979	 0.126129
H	 0.3642448375	-3.9941375336	 0.3622357032	 0.11678
H	-1.012620779	-2.8880159099	 0.318175097	 0.124289
H	 2.953113547	-2.5944796406	 1.2251458261	 0.244704
71.5242	109.0497	153.4446	193.5973	235.9137	261.7719	311.7389	375.1805	409.1509	492.8573	518.9917	694.0289	734.8787	777.4605	816.511	875.9773	901.4004	977.3832	1029.8805	1055.0903	1076.4648	1099.9118	1142.6836	1170.4361	1188.473	1207.064	1274.8586	1299.097	1337.0312	1381.5977	1384.95	1395.3169	1412.6475	1416.4617	1484.6091	1493.8337	1499.2486	1502.0939	1512.9399	1880.3578	3019.7367	3022.2092	3036.2526	3036.9613	3052.3988	3067.7853	3099.9341	3102.5084	3123.2226	3124.9873	3601.2526
CCC1C(C)NC1=O	CC[C@H]1[C@@H](C)NC1=O	
InChI=1S/C6H11NO/c1-3-5-4(2)7-6(5)8/h4-5H,3H2,1-2H3,(H,7,8)	InChI=1S/C6H11NO/c1-3-5-4(2)7-6(5)8/h4-5H,3H2,1-2H3,(H,7,8)/t4-,5+/m1/s1
