19
gdb 91301	2.36621	1.64946	1.16168	2.5829	78.62	-0.2319	0.0193	0.2512	1095.0202	0.160815	-382.03812	-382.029902	-382.028958	-382.071411	31.102	
C	 0.0986255483	 1.4645481085	-0.5183410383	-0.422154
C	-0.0434291927	 0.0603455903	 0.050472876	 0.017889
C	 0.3622249914	-1.1580760206	-0.8274819211	-0.198943
N	 1.1560902465	-1.7580932731	 0.2937709804	-0.11515
C	 2.6104456522	-1.4471893018	 0.2029522711	-0.19174
C	 2.4560305719	-0.2253545476	 1.1676056251	-0.166825
C	 3.0065975956	 1.0534009519	 0.7574858408	 0.279741
N	 3.4736471337	 2.0591055808	 0.4276712996	-0.338086
C	 0.9185121523	-0.5164386345	 1.1268737803	-0.017677
H	 1.0824243528	 1.638061272	-0.9596184356	 0.14249
H	-0.6522118453	 1.6239510316	-1.2999663361	 0.117206
H	-0.0584735593	 2.2265192804	 0.2519197322	 0.125883
H	-1.0648380123	-0.0671845603	 0.4231303968	 0.089732
H	-0.4555585097	-1.8044348509	-1.1582518203	 0.11023
H	 0.974066071	-0.901495848	-1.7013219585	 0.103011
H	 3.2465672194	-2.2444384129	 0.5960439182	 0.121059
H	 2.9495966639	-1.188996465	-0.8050585403	 0.121219
H	 2.8492540277	-0.4502996452	 2.1625901074	 0.134124
H	 0.4854898827	-0.6502185556	 2.1219542022	 0.08799
43.715	131.3959	189.9807	227.6279	261.0452	330.6133	415.2124	430.092	518.7308	593.2945	637.3331	700.2945	758.2042	853.9262	859.5639	904.7253	933.6642	962.3305	997.9938	1019.7503	1039.7924	1068.6207	1118.968	1137.8221	1175.0503	1180.6201	1204.4376	1218.5356	1221.1239	1284.6243	1295.3342	1315.6563	1331.6946	1359.9948	1378.1907	1420.8306	1494.077	1496.2575	1501.6208	1517.995	2347.6172	3024.2857	3037.9945	3045.2456	3047.699	3062.534	3076.6391	3085.4187	3098.6806	3102.0663	3130.6068
CC1CN2CC(C#N)C12	C[C@H]1CN2C[C@@H](C#N)[C@@H]12	
InChI=1S/C7H10N2/c1-5-3-9-4-6(2-8)7(5)9/h5-7H,3-4H2,1H3	InChI=1S/C7H10N2/c1-5-3-9-4-6(2-8)7(5)9/h5-7H,3-4H2,1H3/t5-,6+,7+/m0/s1
