12
gdb 132458	3.24529	1.43689	0.99617	4.6116	62.47	-0.2308	-0.0507	0.1802	1053.3166	0.077367	-513.970506	-513.963098	-513.962154	-514.002438	27.488	
N	 0.0487757697	 1.3206681486	 0.106012497	-0.554912
C	-0.0636284385	-0.0242050744	 0.0363712731	 0.518765
N	-1.2190426081	-0.6148844672	 0.0204320852	-0.357977
C	-1.1799042713	-1.9813264911	-0.0033343367	-0.106129
C	-0.0313996412	-2.6991623251	-0.0171732592	 0.080616
F	-0.0273556916	-4.0308040076	-0.042048613	-0.059279
C	 1.2564515281	-2.0520623302	-0.0113780683	 0.343037
O	 2.3549830934	-2.5207293958	-0.0290763134	-0.324838
O	 1.1343923947	-0.6333874261	 0.0174038567	-0.242986
H	 0.9408800299	 1.7446785446	-0.0809325687	 0.282186
H	-0.7888925476	 1.8586465404	-0.035070652	 0.284126
H	-2.1360264773	-2.4962061761	-0.0134559707	 0.137391
118.7623	161.4784	283.885	298.9951	337.7137	379.7711	403.4159	472.5894	497.245	529.3924	596.9487	748.6483	749.6372	769.9809	807.5314	963.0709	970.0114	1033.2688	1072.4708	1275.1635	1312.7436	1376.1145	1448.6442	1591.5433	1649.3181	1677.9332	1879.1739	3181.4801	3621.0182	3752.191
NC1=NC=C(F)C(=O)O1	Nc1ncc(F)c(=O)o1	
InChI=1S/C4H3FN2O2/c5-2-1-7-4(6)9-3(2)8/h1H,(H2,6,7)	InChI=1S/C4H3FN2O2/c5-2-1-7-4(6)9-3(2)8/h1H,(H2,6,7)
