19
gdb 104903	2.12447	1.50659	1.02314	5.0563	76.99	-0.2513	0.012	0.2633	1221.1103	0.156814	-419.200596	-419.190329	-419.189385	-419.235607	37.015	
C	-0.0042422612	 1.5108112754	-0.0586744163	-0.46098
C	-0.0405350239	 0.0039398888	 0.0969014809	 0.33384
C	-1.147753979	-0.6726379193	-0.6838570438	-0.466279
O	 1.2320219242	-0.662616137	 0.0424908253	-0.309011
C	 0.5361459071	-0.666995859	 1.2997671892	 0.176137
C	 1.2319365528	 0.0490771929	 2.4458934834	-0.246202
N	 2.3834765665	-0.7462818618	 2.8618814597	-0.499087
C	-0.0047732188	-1.9652267133	 1.6865326858	 0.299114
N	-0.4732525282	-2.9713002964	 2.0090725246	-0.349461
H	 0.8937165263	 1.9506501287	 0.3743552906	 0.135052
H	-0.0219513148	 1.764479544	-1.1237808175	 0.1338
H	-0.8839278246	 1.9678093498	 0.4058343716	 0.132807
H	-1.0186364743	-0.4670849844	-1.7514185225	 0.130667
H	-1.1461238638	-1.7528390945	-0.5349573848	 0.157669
H	-2.1237880894	-0.2797811063	-0.3811876847	 0.130119
H	 1.4723764089	 1.0737618491	 2.13358883	 0.097305
H	 0.5335675262	 0.1173505826	 3.2879087154	 0.12543
H	 3.0826638281	-0.743825231	 2.1256209216	 0.242647
H	 2.8132071078	-0.3425598984	 3.6867462516	 0.236434
73.9041	117.5037	138.1415	150.4384	176.6375	209.2294	242.1543	288.2732	342.1561	379.7875	399.0764	416.5769	498.1582	576.0715	602.5558	679.5226	731.2938	838.8147	897.8633	922.4967	949.4758	972.8348	1001.1178	1070.1757	1117.6985	1145.1542	1174.5557	1218.6065	1253.8877	1323.732	1408.0735	1409.7919	1421.0388	1431.8353	1472.7627	1483.3945	1494.3569	1499.5616	1512.6167	1655.9788	2355.959	3012.9113	3042.3219	3047.714	3067.5294	3102.9445	3109.0695	3149.8554	3153.0943	3505.2013	3589.5648
CC1(C)OC1(CN)C#N	CC1(C)O[C@]1(CN)C#N	
InChI=1S/C6H10N2O/c1-5(2)6(3-7,4-8)9-5/h3,7H2,1-2H3	InChI=1S/C6H10N2O/c1-5(2)6(3-7,4-8)9-5/h3,7H2,1-2H3/t6-/m1/s1
