17
gdb 12576	3.08718	2.01446	1.24719	4.161	72.41	-0.237	-0.0128	0.2242	964.6027	0.141633	-363.931514	-363.922795	-363.921851	-363.965647	30.398	
C	 0.0911044851	 1.4968602014	-0.1833512267	-0.494648
C	-0.0088355004	 0.0106408046	-0.068984956	 0.194119
C	-1.0931066012	-0.7689065509	 0.0603899103	 0.101103
C	-2.5439912382	-0.4282991612	 0.1334493979	-0.493706
C	-0.6637578197	-2.2022198953	 0.1353081863	 0.376394
O	-1.3692059498	-3.1842720128	 0.2541450188	-0.388267
N	 0.7084986014	-2.1823795675	 0.0413016814	-0.347656
C	 1.2387414007	-0.8484742084	-0.0907425831	-0.241923
H	 0.6968867347	 1.9168676926	 0.629442487	 0.133081
H	 0.5789943464	 1.7900560576	-1.1214406251	 0.133087
H	-0.8907011593	 1.9738667799	-0.1517884303	 0.135128
H	-2.7243437091	 0.6471253408	 0.0680257271	 0.116306
H	-3.0941414906	-0.9243030612	-0.6736421492	 0.144094
H	-2.9768319683	-0.7985985027	 1.0691904397	 0.144109
H	 1.2596131866	-3.0225264611	 0.0655803516	 0.251498
H	 1.8007176747	-0.7115401539	-1.027120927	 0.118639
H	 1.9190741869	-0.5843377017	 0.7331225773	 0.118641
34.6448	80.7986	129.2731	166.3371	260.2281	268.7881	297.6559	403.1469	497.9216	524.2388	560.3487	676.896	758.786	768.6249	881.3951	956.7176	966.6582	1059.7421	1076.8949	1079.7262	1122.2172	1166.8211	1191.6737	1191.9014	1332.147	1350.3686	1414.9511	1417.3939	1427.4817	1471.7893	1480.5367	1482.7968	1487.349	1503.5888	1733.0986	1814.2991	2986.7254	3006.7801	3021.4893	3037.5809	3066.2006	3089.1383	3121.3709	3125.8985	3677.1305
CC1=C(C)C(=O)NC1	CC1=C(C)C(=O)NC1	
InChI=1S/C6H9NO/c1-4-3-7-6(8)5(4)2/h3H2,1-2H3,(H,7,8)	InChI=1S/C6H9NO/c1-4-3-7-6(8)5(4)2/h3H2,1-2H3,(H,7,8)
