20
gdb 85558	2.73761	1.34347	1.05204	3.5731	83.18	-0.245	0.012	0.2569	1214.7095	0.170698	-403.181278	-403.172104	-403.17116	-403.215572	34.241	
C	 0.4765070598	 1.3844142863	-0.3171593039	-0.394202
C	-0.0621931433	 0.0317222187	 0.1637219713	 0.042667
O	-0.0859238105	-0.8878075086	-0.9465864952	-0.262495
C	 0.9117720882	-1.7832211181	-1.1728914248	 0.38819
N	 0.8884316491	-2.5547170864	-2.1779818585	-0.518686
C	 2.0516407539	-1.8463194804	-0.1806457336	-0.346443
C	 1.6628066196	-1.3737070018	 1.1903409554	-0.173999
C	 0.6783144687	-0.4967756446	 1.3692477779	 0.301228
C	 0.2505743658	 0.0272153883	 2.7109341925	-0.485577
H	 1.5333582172	 1.3047364433	-0.5886668378	 0.127038
H	-0.086278977	 1.7221354011	-1.19144657	 0.130265
H	 0.3814971226	 2.1397520048	 0.4688694456	 0.122066
H	-1.1222419066	 0.1508508528	 0.4192333896	 0.095293
H	 0.0568209531	-2.3664492858	-2.7418193363	 0.21395
H	 2.4189757031	-2.8748217564	-0.1730421262	 0.143659
H	 2.8827720303	-1.240074566	-0.5715525101	 0.137654
H	 2.2206030018	-1.7612984987	 2.0385644697	 0.09241
H	 0.867381652	-0.3892563746	 3.5112645364	 0.128286
H	 0.325298168	 1.1206346915	 2.7632656502	 0.128147
H	-0.7968349659	-0.2248987852	 2.9197999878	 0.130549
52.4819	72.4152	170.1572	222.3201	235.7645	266.2772	307.1336	383.0656	432.0746	446.7952	526.1526	579.544	594.8661	728.8825	749.5652	816.0296	865.0881	902.2663	921.6368	976.5854	985.4924	1046.0293	1055.4999	1078.4563	1108.8326	1114.0137	1148.6262	1184.456	1207.7451	1301.6747	1331.1165	1346.0307	1376.7536	1402.8923	1417.628	1419.7826	1464.134	1478.7893	1488.4448	1491.5536	1493.6036	1742.1707	1754.7363	2999.0638	3018.3391	3031.5627	3041.4587	3065.6462	3103.2743	3115.2524	3117.3078	3123.7357	3163.41	3461.1478
CC1OC(=N)CC=C1C	C[C@H]1O[C]([NH])CC=C1C	
InChI=1S/C7H11NO/c1-5-3-4-7(8)9-6(5)2/h3,6,8H,4H2,1-2H3	InChI=1S/C7H11NO/c1-5-3-4-7(8)9-6(5)2/h3,6,8H,4H2,1-2H3/t6-/m1/s1
