20
gdb 96280	2.01343	1.68523	1.00729	4.2604	75.49	-0.2266	0.0148	0.2414	1207.5906	0.172118	-440.313676	-440.30489	-440.303945	-440.347344	33.288	
C	-0.3609066487	 1.3595208368	 0.1149688305	-0.393451
C	-0.1038185912	-0.1227271236	-0.1306314997	 0.150009
C	 0.8457718349	-0.3743350197	-1.3019356279	-0.227239
C	 0.6877752126	-1.7888556455	-1.8980258005	-0.181144
N	 0.4661794804	-2.8476456883	-0.9211524086	-0.274071
C	 1.3212265476	-2.8088818582	 0.2444515485	-0.301756
C	 1.1020144904	-1.7572258792	 1.3518167009	 0.371343
O	 1.5431152337	-1.9510464066	 2.4536353785	-0.318236
O	 0.4100264705	-0.6148544348	 1.1308542434	-0.239673
H	 0.5826738065	 1.8914516412	 0.2702092587	 0.130468
H	-0.8743361608	 1.8016256124	-0.7440543589	 0.116222
H	-0.9816103097	 1.4966009886	 1.0035425118	 0.134145
H	-1.0636017438	-0.6245704277	-0.3165364521	 0.079709
H	 0.6636319344	 0.3712915611	-2.0840674248	 0.107701
H	 1.8708253379	-0.2035365472	-0.9515052038	 0.115989
H	-0.1606555296	-1.8036778567	-2.5903694857	 0.107904
H	 1.5781249371	-2.0332710093	-2.4919984404	 0.111114
H	-0.5085489835	-2.9070225748	-0.6557137676	 0.226108
H	 1.2749499042	-3.7654289738	 0.7733316614	 0.144911
H	 2.3632328569	-2.7027955047	-0.0837890436	 0.139946
72.4755	89.4518	186.7215	239.863	267.2301	298.2009	347.257	361.5049	446.398	514.453	539.522	561.7331	684.8608	695.8851	762.461	823.6733	849.2428	944.7509	965.9371	983.7928	1008.2832	1060.3356	1094.7528	1151.2397	1153.9711	1179.4464	1229.6159	1245.0038	1264.0733	1318.7463	1345.7943	1355.7347	1373.7852	1390.9684	1406.6134	1412.6231	1453.7955	1477.3823	1486.1331	1491.9452	1499.5402	1505.1604	1821.633	3003.5399	3019.928	3035.3556	3038.7228	3045.3534	3064.0586	3083.632	3091.4477	3118.6712	3129.366	3559.1097
CC1CCNCC(=O)O1	C[C@H]1CCNCC(=O)O1	
InChI=1S/C6H11NO2/c1-5-2-3-7-4-6(8)9-5/h5,7H,2-4H2,1H3	InChI=1S/C6H11NO2/c1-5-2-3-7-4-6(8)9-5/h5,7H,2-4H2,1H3/t5-/m0/s1
