15
gdb 10664	2.75796	2.10224	1.33225	2.2976	68.49	-0.2533	-0.0308	0.2225	913.1403	0.116439	-362.622505	-362.614223	-362.613278	-362.655191	30.161	
C	 0.7607700854	 1.1203423975	 0.2702861889	-0.501526
C	-0.2794429806	 0.0942188352	-0.1015456194	 0.345967
O	-1.2934890909	-0.0792243955	 0.5403978107	-0.320606
C	-0.0305335064	-0.7561468089	-1.3357065787	 0.0259
C	-0.2548309944	-2.2356133062	-1.1027991669	-0.244121
N	-1.2218629353	-1.4666936237	-1.8580865897	-0.330124
C	 0.9471268345	-0.317025393	-2.2935367499	 0.237636
C	 1.780233598	 0.0554936686	-3.0762091844	-0.393227
H	 1.7509992687	 0.6577372904	 0.3341292156	 0.150871
H	 0.8259199238	 1.880498899	-0.5153998687	 0.160513
H	 0.4941363116	 1.5854215589	 1.2193890221	 0.14385
H	 0.3471480909	-2.9309668003	-1.6795554339	 0.138207
H	-0.4953614111	-2.5326944333	-0.0856873715	 0.136129
H	-1.9879745881	-1.2112217229	-1.2314293003	 0.253432
H	 2.5069423541	 0.3816346541	-3.7787008739	 0.1971
70.2891	144.6383	153.3273	209.0697	269.8537	284.9293	379.2211	505.127	526.5919	544.8258	604.9333	619.5899	646.3186	664.8615	838.6065	867.7542	949.5467	979.9506	1015.1123	1040.0586	1098.6197	1127.2025	1187.9824	1274.6704	1328.3862	1357.543	1387.2621	1455.7981	1468.1501	1491.5122	1789.589	2239.4218	3046.0789	3107.4939	3114.3433	3160.5022	3213.5321	3447.0535	3501.26
CC(=O)C1(CN1)C#C	CC(=O)[C@]1(CN1)C#C	
InChI=1S/C6H7NO/c1-3-6(4-7-6)5(2)8/h1,7H,4H2,2H3	InChI=1S/C6H7NO/c1-3-6(4-7-6)5(2)8/h1,7H,4H2,2H3/t6-/m1/s1
