14
gdb 131901	4.52207	1.08412	0.87536	5.4951	75.12	-0.2111	-0.0722	0.1389	1222.655	0.10212	-469.958494	-469.950719	-469.949775	-469.990932	28.964	
N	-0.0433648563	 1.4137143026	 0.1533663488	-0.606926
C	 0.0296020587	 0.0199799289	 0.0456457346	 0.279092
C	-1.0487726423	-0.8645505481	 0.0231525572	-0.126915
N	-0.556528109	-2.1375835632	-0.0061159732	-0.308641
C	 0.8024323472	-2.0794562946	-0.004643166	 0.463496
C	 1.2105316773	-0.7577331222	 0.0281087792	-0.299206
N	 1.556214717	-3.2772669348	-0.0398208123	 0.337157
O	 0.9208095549	-4.3387747675	-0.0691468156	-0.410605
O	 2.7807163494	-3.1852892171	-0.0396849881	-0.377203
H	 0.7600312273	 1.883124974	-0.2418251139	 0.251321
H	-0.890176717	 1.8050931891	-0.2365178332	 0.246974
H	-2.1094616708	-0.6722658713	 0.0327103101	 0.132232
H	-1.0609893634	-3.0084398902	-0.0327673201	 0.287751
H	 2.2328054371	-0.4177744655	 0.0409754626	 0.131472
105.365	157.7291	187.6766	193.1011	324.7302	375.8078	428.6555	526.798	558.1763	623.633	629.6693	678.2228	711.6339	741.502	778.6513	824.9887	838.4807	988.1983	1000.8682	1091.6422	1120.8667	1159.0508	1280.2838	1337.669	1417.6876	1426.5805	1497.7508	1532.7841	1600.8096	1621.3406	1660.4697	3265.8982	3277.0201	3549.8326	3640.3335	3671.7924
NC1=CNC(=C1)N(=O)=O	Nc1c[nH]c(c1)N(=O)=O	
InChI=1S/C4H5N3O2/c5-3-1-4(6-2-3)7(8)9/h1-2,6H,5H2	InChI=1S/C4H5N3O2/c5-3-1-4(6-2-3)7(8)9/h1-2,6H,5H2
