21
gdb 109617	2.5237	1.06191	0.9745	5.184	84.84	-0.2416	0.0296	0.2712	1366.5382	0.180158	-383.260146	-383.249551	-383.248607	-383.295811	37.935	
C	-1.6333072258	 0.1644969533	-3.5672185307	-0.380988
C	-0.8552186521	-0.3098591502	-2.3319875741	-0.215743
C	-1.7834789721	-0.7360653924	-1.2109153012	-0.020805
N	-2.3593515881	-2.0684431152	-1.0692067954	-0.115887
C	-2.0592330168	-3.1444553253	-2.0027998513	-0.324441
C	-1.3513152298	-1.6455934373	-0.0828900223	 0.104155
C	 0.0456872025	-2.2439745057	-0.0068313585	-0.464581
C	-1.9162162879	-1.3885339259	 1.2325818889	 0.27422
N	-2.3358003374	-1.169544758	 2.2876181405	-0.346716
H	-0.9507712777	 0.5138009748	-4.3473208432	 0.119721
H	-2.2424917645	-0.6412486591	-3.988690636	 0.125707
H	-2.305927645	 0.9907896589	-3.3148661833	 0.12649
H	-0.171528679	-1.1139495621	-2.6157802544	 0.102562
H	-0.2275579094	 0.5089844144	-1.9586570799	 0.114635
H	-2.4938343623	 0.0456463602	-0.9391628596	 0.106554
H	-1.0510780737	-3.1377157962	-2.4379717449	 0.106115
H	-2.2015053561	-4.1001176662	-1.4897921116	 0.136785
H	-2.7821971943	-3.0945965786	-2.822660637	 0.135912
H	 0.4942789048	-2.3774794663	-0.9906804086	 0.128292
H	 0.6985704279	-1.5885156641	 0.5766670773	 0.145384
H	 0.0172269867	-3.2166026891	 0.4935876555	 0.142628
54.7888	121.8711	130.3257	148.5548	170.693	193.6254	218.6402	252.9578	291.2708	309.7527	411.163	424.4752	509.8764	574.9613	600.4084	680.4883	752.124	770.4368	848.3918	916.6242	979.4299	1037.0194	1058.3975	1094.6967	1123.6864	1133.688	1147.2063	1168.2087	1188.2918	1254.5302	1286.5156	1338.2397	1359.0636	1411.5128	1415.3383	1430.6935	1455.8528	1473.302	1484.1443	1493.195	1500.1956	1501.4871	1504.6309	1510.3103	2352.0886	3006.0439	3035.3504	3038.5709	3052.5257	3078.2368	3084.5675	3098.799	3109.6088	3113.1011	3113.7665	3114.17	3152.2822
CCC1N(C)C1(C)C#N	CC[C@H]1N(C)[C@]1(C)C#N	
InChI=1S/C7H12N2/c1-4-6-7(2,5-8)9(6)3/h6H,4H2,1-3H3	InChI=1S/C7H12N2/c1-4-6-7(2,5-8)9(6)3/h6H,4H2,1-3H3/t6-,7-,9?/m1/s1
