12
gdb 25097	3.09526	1.58487	1.21351	2.8657	65.21	-0.2895	-0.0925	0.1971	960.0123	0.078464	-468.830586	-468.823574	-468.82263	-468.862696	25.326	
N	-0.291593376	 1.3669645539	-0.1205345101	-0.474206
C	-0.0354252521	 0.1430396056	 0.10833192	 0.304217
C	-1.1570139914	-0.8343260638	-0.029833394	 0.00891
N	-1.3845859911	-1.8155259674	 0.7468273937	-0.229898
C	-0.6396892941	-2.0523555544	 1.8943237098	 0.457739
O	-1.0863603942	-2.2109481699	 2.9825622836	-0.272182
O	 0.7421961546	-2.2808356439	 1.695932835	-0.204701
C	 1.5158132927	-1.4395384565	 0.9784954705	 0.146735
N	 1.2447224266	-0.3667227909	 0.358764738	-0.303747
H	 0.5555149168	 1.9292261773	-0.0007337026	 0.241138
H	-1.830992924	-0.6792279483	-0.8726310961	 0.164845
H	 2.5453374922	-1.7883727618	 1.0201695722	 0.16115
69.2642	111.0985	258.368	320.828	370.8888	422.6682	503.7763	566.4749	645.6628	691.7839	765.391	800.5325	852.5978	882.2458	933.339	979.3373	991.4402	1057.5143	1067.5009	1185.1582	1350.3131	1377.7798	1436.2236	1694.0975	1704.9377	1745.1866	1893.9075	3140.0705	3173.2931	3449.9458
N=C1C=NC(=O)OC=N1	[NH][C]1C=NC(=O)OC=N1	
InChI=1S/C4H3N3O2/c5-3-1-6-4(8)9-2-7-3/h1-2,5H	InChI=1S/C4H3N3O2/c5-3-1-6-4(8)9-2-7-3/h1-2,5H
