19
gdb 39607	2.10233	1.86008	1.14074	0.2553	92.67	-0.2091	-0.0368	0.1722	1113.1132	0.161094	-348.748209	-348.740149	-348.739204	-348.781197	31.25	
C	 0.2586016428	 1.5526866978	-0.3496060605	-0.313139
C	 1.6453574606	 1.6798240809	 0.2312245156	-0.029438
C	 1.9482488908	 2.3287455793	 1.3553185527	-0.098983
C	 0.9497918748	 2.9394591621	 2.2474022193	-0.107931
C	 0.0392580507	 2.27006493	 2.9654252823	-0.104884
C	-0.0624260189	 0.8187166023	 3.1862236666	-0.090701
C	-0.2889158129	-0.2519784993	 2.4054202323	-0.071957
C	-0.6268837661	-0.4662467541	 0.9951125823	-0.062983
C	-0.4287729262	 0.2224338099	-0.1371431707	-0.075979
H	-0.376903022	 2.3471129455	 0.0548793009	 0.12642
H	 0.322972255	 1.7299275674	-1.4295814234	 0.101735
H	 2.4481973156	 1.2375714178	-0.3545598913	 0.090163
H	 2.9944939426	 2.4469338506	 1.6360569604	 0.092997
H	 0.9805033353	 4.0244376225	 2.3507027882	 0.094431
H	-0.6085449561	 2.8589521472	 3.6163114164	 0.09534
H	 0.0375995229	 0.5810171393	 4.2478976419	 0.095795
H	-0.3135085335	-1.1909435359	 2.9581182908	 0.085256
H	-1.1403582128	-1.4176231569	 0.8575470319	 0.085692
H	-0.8315819427	-0.2309991463	-1.0403663056	 0.088166
42.6624	175.0021	176.8092	232.9132	293.0152	369.2983	410.109	526.291	559.6086	600.7808	667.3508	723.566	768.3989	783.6458	798.6369	854.7711	872.67	908.6669	959.2587	989.2856	1003.8879	1007.5289	1013.3629	1020.1138	1054.3755	1062.194	1212.2118	1243.2206	1269.331	1305.3702	1326.341	1351.2734	1389.9846	1436.1411	1442.8542	1469.9213	1477.1363	1688.1351	1700.4191	1709.8057	1720.4071	3032.2747	3073.1657	3085.3985	3105.1539	3111.182	3121.102	3128.0751	3131.1239	3150.1613	3157.5108
C1C=CC=CC=CC=C1	C1C=CC=CC=CC=C1	
InChI=1S/C9H10/c1-2-4-6-8-9-7-5-3-1/h1-8H,9H2/b3-1-,4-2-,7-5-,8-6-	InChI=1S/C9H10/c1-2-4-6-8-9-7-5-3-1/h1-8H,9H2/b3-1-,4-2-,7-5-,8-6-
