22
gdb 14802	12.07992	0.47933	0.46907	0.0001	76.04	-0.2617	0.0805	0.3422	2286.101	0.198546	-387.334843	-387.324158	-387.323214	-387.371478	36.59	
O	-0.0487016845	 1.4625534789	 0.010169722	-0.421966
C	 0.0376059262	 0.0447981377	 0.0017935711	-0.073705
C	-1.3783988709	-0.5146655452	 0.0123317168	-0.165711
C	-1.4180336014	-2.0453565158	 0.0046062428	-0.182441
C	-2.8424668749	-2.6111884431	 0.0151335335	-0.182441
C	-2.8821019451	-4.1418794445	 0.0073987217	-0.165711
C	-4.2981066439	-4.7013430045	 0.0179425317	-0.073705
O	-4.2117989283	-6.1190984058	 0.0095884545	-0.421966
H	 0.8446917933	 1.8178879989	 0.0032806355	 0.284224
H	 0.5732575203	-0.3162272874	-0.8919816155	 0.082358
H	 0.5901718412	-0.3256677392	 0.8812975203	 0.082357
H	-1.8973245986	-0.1276150545	 0.8981080504	 0.10313
H	-1.9140911237	-0.118307306	-0.8592319796	 0.103127
H	-0.8864130479	-2.4230950498	-0.8798060373	 0.094312
H	-0.8697625403	-2.4323831233	 0.8747206934	 0.094314
H	-3.3740837017	-2.2334568585	 0.8995508653	 0.094313
H	-3.3907416406	-2.2241550519	-0.8549757211	 0.094314
H	-2.3631792094	-4.5289240828	-0.878381746	 0.103129
H	-2.3464067	-4.5382434064	 0.8789581161	 0.103127
H	-4.83375929	-4.3403039751	 0.9117119174	 0.082358
H	-4.8506716125	-4.3308904774	-0.861567368	 0.082357
H	-5.1051929573	-6.4744326343	 0.0164200948	 0.284224
52.1387	79.5425	80.6862	116.2019	143.0728	166.9152	205.1067	266.1422	266.8716	271.1798	367.7969	481.5187	508.3723	739.2757	761.5387	812.0831	898.8879	992.5435	993.7621	1005.9873	1049.5306	1053.0801	1070.8911	1076.4036	1099.181	1187.8084	1206.7587	1209.0973	1251.2492	1257.2751	1289.6927	1304.0884	1313.3672	1325.724	1327.1195	1337.3155	1379.4582	1405.1073	1464.5038	1464.5696	1486.9633	1489.212	1498.9938	1511.3035	1529.4607	1530.7431	2956.2825	2956.3136	2980.6836	2980.8407	3003.3433	3009.3431	3025.9369	3028.1094	3030.8319	3043.9477	3070.8925	3077.7635	3829.3431	3829.3595
OCCCCCCO	OCCCCCCO	
InChI=1S/C6H14O2/c7-5-3-1-2-4-6-8/h7-8H,1-6H2	InChI=1S/C6H14O2/c7-5-3-1-2-4-6-8/h7-8H,1-6H2
