14
gdb 49881	3.72586	1.27688	0.9567	4.1723	67.24	-0.2711	-0.0238	0.2472	1140.0021	0.101895	-470.057152	-470.049304	-470.04836	-470.090299	27.784	
N	 0.0630377919	 1.2714140721	 0.0068655438	-0.405702
C	-0.0283857091	 0.0105226188	 0.0038411755	 0.088004
N	-1.2411150365	-0.6811146527	 0.0117450524	-0.165753
C	-1.2940666408	-2.1347616369	 0.008031599	-0.272495
C	-2.782419158	-2.3947382927	 0.0192206703	 0.40515
N	-3.3297487663	-3.5234236026	 0.0203365729	-0.518667
O	-3.4269610896	-1.1818024864	 0.0278744601	-0.229342
C	-2.5148171866	-0.1222608475	 0.0236686816	 0.510914
O	-2.8593472733	 1.0127439216	 0.0295394737	-0.324796
H	 1.0431766108	 1.5483810474	-0.0002268422	 0.238422
H	 0.8109057796	-0.6956448158	-0.0049946808	 0.106351
H	-0.83148625	-2.5677608222	-0.885154237	 0.16175
H	-0.8172397398	-2.5728198516	 0.8912030005	 0.161747
H	-4.3472736123	-3.4444335116	 0.0287137302	 0.244417
65.4022	120.271	160.7139	194.2406	212.3797	366.0054	460.1213	540.4662	553.1316	637.2083	739.2882	755.777	811.1062	818.3982	902.6695	908.9325	1029.2888	1036.0418	1064.8568	1091.4371	1157.7722	1202.6699	1261.1896	1297.3269	1335.1158	1417.7417	1435.0278	1505.438	1732.6547	1806.5229	1937.3218	3039.4295	3048.0075	3082.8491	3492.8228	3507.1006
N=CN1CC(=N)OC1=O	[NH][CH]N1C[C]([NH])OC1=O	
InChI=1S/C4H5N3O2/c5-2-7-1-3(6)9-4(7)8/h2,5-6H,1H2	InChI=1S/C4H5N3O2/c5-2-7-1-3(6)9-4(7)8/h2,5-6H,1H2
