13
gdb 130173	3.64438	1.60498	1.11586	2.4731	65.68	-0.2184	-0.0102	0.2083	981.4421	0.092467	-448.904052	-448.897216	-448.896272	-448.93509	26.318	
N	-0.0501818705	 1.3867961774	 0.166640444	-0.585708
C	 0.0501833221	 0.0097411997	 0.0440727592	 0.212443
N	-1.0336484072	-0.7554104105	 0.0171302036	-0.294571
N	-0.5802449953	-2.0693507972	-0.0191421456	-0.373194
C	 0.7568354703	-2.0804431845	-0.0298602016	 0.548601
C	 1.2358769297	-0.7871479319	 0.010876825	 0.095019
C	 2.6404390084	-1.0003487248	 0.0071984425	-0.137284
N	 2.9561268041	-2.2729005779	-0.0346302994	-0.14464
O	 1.7095303686	-3.0033399012	-0.0590466174	-0.256077
H	 0.6299526214	 1.9002776912	-0.3761889206	 0.252761
H	-0.9899060881	 1.7174162235	-0.0107269767	 0.257946
H	-1.2438729469	-2.822148362	-0.0260930047	 0.284905
H	 3.4551211033	-0.2894782418	 0.0349190517	 0.139799
197.8953	227.071	252.6019	273.3529	317.1039	446.3004	534.6715	602.2211	640.0103	647.0974	685.9519	717.4618	776.8867	788.232	852.6699	906.244	963.9192	1025.2437	1152.1742	1160.6051	1206.6696	1307.5788	1369.7791	1467.8412	1489.0056	1549.4914	1602.4785	1633.5216	1652.84	3237.0423	3549.7674	3649.4621	3705.1232
NC1=NNC2=C1C=NO2	Nc1n[nH]c2c1cno2	
InChI=1S/C4H4N4O/c5-3-2-1-6-9-4(2)8-7-3/h1H,(H3,5,7,8)	InChI=1S/C4H4N4O/c5-3-2-1-6-9-4(2)8-7-3/h1H,(H3,5,7,8)
