18
gdb 27534	4.0157	1.11358	0.94058	3.0389	80.68	-0.2047	0.0345	0.2392	1272.6324	0.148947	-398.144602	-398.136173	-398.135228	-398.178574	31.096	
C	-0.1415053085	 1.4852466385	 0.074733444	-0.498337
C	-0.0530717183	-0.0033564338	 0.0098694557	 0.347114
N	-0.2820162855	-0.7469708452	-1.051991627	-0.347975
C	-0.0836124067	-2.0526866748	-0.6532542702	 0.323034
C	 0.2702089522	-2.0995497201	 0.6673011962	-0.195682
N	 0.2858978477	-0.7805803908	 1.0800291498	-0.28048
N	-0.2285362914	-3.172410691	-1.4988822154	-0.199841
C	-1.2758171784	-3.0850965898	-2.5299180802	-0.22091
C	 0.1538736044	-2.9844252297	-2.9081312885	-0.220924
H	 0.8166774489	 1.9403646454	 0.3513813194	 0.131133
H	-0.4288014409	 1.86062036	-0.9080717507	 0.15636
H	-0.8889705338	 1.8193274602	 0.8037511184	 0.131136
H	 0.5025830297	-2.9200639179	 1.3235293567	 0.129236
H	 0.508055957	-0.45415692	 2.0052209895	 0.261198
H	-1.8275740263	-4.0057118569	-2.6979966726	 0.109972
H	-1.857905034	-2.1689723953	-2.5631048755	 0.132517
H	 0.5184359266	-2.0016290352	-3.1917255497	 0.132472
H	 0.6666192072	-3.8300609435	-3.3578063099	 0.109979
49.871	65.5163	158.9092	171.4735	264.8549	338.2975	443.9563	467.4913	510.6738	581.6235	669.6365	712.4521	718.0095	762.0575	825.328	851.2279	909.0392	969.2563	1012.6853	1043.1011	1046.4548	1060.5323	1105.6951	1111.8495	1131.8852	1166.9971	1184.6048	1223.7691	1249.2667	1345.5449	1365.1615	1411.642	1444.6407	1477.319	1483.2969	1501.8223	1505.5945	1576.328	1616.974	3028.961	3077.8069	3110.6421	3113.4459	3148.635	3199.2655	3213.4741	3287.0933	3666.0832
CC1=NC(=CN1)N1CC1	Cc1nc(c[nH]1)N1CC1	
InChI=1S/C6H9N3/c1-5-7-4-6(8-5)9-2-3-9/h4H,2-3H2,1H3,(H,7,8)	InChI=1S/C6H9N3/c1-5-7-4-6(8-5)9-2-3-9/h4H,2-3H2,1H3,(H,7,8)
