18
gdb 79484	2.31222	1.92235	1.25273	1.1991	83.79	-0.2157	0.0253	0.2409	1037.1487	0.146545	-364.677673	-364.669799	-364.668854	-364.709664	31.392	
C	 0.0720658935	 1.5164188837	-0.1648623289	-0.333747
N	 0.0326441886	 0.0629907026	-0.0339795287	-0.158749
C	-1.1013427428	-0.498318215	 0.7579625061	-0.037709
C	-0.2699160316	-1.749188902	 1.1731932733	-0.10253
C	-0.6388234348	-1.602859944	 2.6603243735	-0.281504
C	-0.5249249246	-0.1445514079	 2.1789788237	-0.120177
C	 0.6800893342	-0.4976233483	 1.2027694085	 0.32354
C	 2.082896924	-0.4391351625	 1.4748214128	 0.095818
C	 3.2611453253	-0.3761455417	 1.7107218129	-0.379575
H	 1.0776119437	 1.8182731133	-0.4733166131	 0.128838
H	-0.6267945477	 1.8203855822	-0.9508928563	 0.119159
H	-0.1845940473	 2.0662957959	 0.7557829868	 0.096103
H	-2.1381941645	-0.4640422255	 0.4226517874	 0.083407
H	-0.1030577538	-2.6372371744	 0.5650856985	 0.090311
H	-1.6373891594	-1.9424903984	 2.9493658252	 0.098499
H	 0.1076416302	-1.9382754779	 3.3850381073	 0.108499
H	-0.6535288786	 0.7723507462	 2.7528491673	 0.086893
H	 4.3022644156	-0.3260690962	 1.9142192736	 0.182924
119.9483	161.1939	216.677	247.5622	279.823	378.4461	477.881	532.8512	564.9815	570.4057	611.6137	671.0155	727.4866	748.1783	826.1039	863.2609	889.7532	909.8219	919.7167	938.8589	1024.9306	1040.5544	1064.1028	1105.8314	1122.6727	1150.1088	1165.136	1170.9357	1179.3265	1198.9865	1240.8428	1248.6277	1269.176	1331.8662	1444.2394	1491.5818	1497.7493	1512.1541	2230.0265	2968.6386	3053.4964	3068.0068	3105.9542	3111.4251	3113.5076	3125.4763	3134.2026	3500.5029
CN1C2C3CC2C13C#C	CN1[C@H]2[C@@H]3C[C@H]2[C@]13C#C	
InChI=1S/C8H9N/c1-3-8-5-4-6(8)7(5)9(8)2/h1,5-7H,4H2,2H3	InChI=1S/C8H9N/c1-3-8-5-4-6(8)7(5)9(8)2/h1,5-7H,4H2,2H3/t5-,6+,7-,8+
