17
gdb 96220	2.94663	1.36691	0.98041	3.2629	73.46	-0.2575	-0.0695	0.188	1158.9074	0.136335	-458.976962	-458.968975	-458.968031	-459.009566	30.231	
O	-0.0508258426	 1.4088450829	 0.0999954242	-0.439272
C	 0.0107135842	-0.0007268313	 0.0289482227	 0.007328
C	-1.4311053423	-0.5160571326	-0.0003103548	-0.101718
O	-1.4678881825	-1.9065566165	-0.2772404137	-0.246513
C	-1.0098941336	-2.2231750346	-1.571358096	-0.122491
C	 0.2417681817	-1.4959692706	-1.9536875476	-0.155177
C	 0.7279368189	-0.4844911367	-1.2210302681	 0.196791
C	 1.9737767466	 0.1734959565	-1.6322188654	 0.098006
O	 2.4882228343	 1.1039584876	-1.0414442878	-0.299087
H	 0.8591880926	 1.7247352322	 0.0039962776	 0.301242
H	 0.52176153	-0.4187925811	 0.912078216	 0.087397
H	-1.9136339515	-0.3752230322	 0.9687681694	 0.122798
H	-1.989251861	 0.0598733365	-0.7544230131	 0.103009
H	-0.8396827027	-3.3066674364	-1.5895207179	 0.133397
H	-1.7867586469	-2.0150396525	-2.3321339905	 0.116266
H	 0.7449194363	-1.8126717154	-2.8662899089	 0.11238
H	 2.4441324086	-0.2441286859	-2.548801706	 0.085644
89.7112	145.1569	235.9161	268.994	310.7488	319.4507	364.5074	400.5919	502.9605	552.5471	602.4166	619.1124	759.8225	796.9868	834.9042	922.9008	1002.5476	1020.5633	1033.6295	1048.649	1085.5981	1118.8703	1162.2985	1214.3348	1235.253	1279.033	1305.9067	1336.3404	1349.0746	1383.8778	1406.7929	1427.6692	1451.0548	1470.0434	1501.3846	1699.4	1763.1508	2897.7288	2928.0122	2961.4936	2997.3711	3049.9115	3114.2379	3143.9188	3729.0987
OC1COCC=C1C=O	O[C@H]1COCC=C1C=O	
InChI=1S/C6H8O3/c7-3-5-1-2-9-4-6(5)8/h1,3,6,8H,2,4H2	InChI=1S/C6H8O3/c7-3-5-1-2-9-4-6(5)8/h1,3,6,8H,2,4H2/t6-/m0/s1
