20
gdb 110275	2.89149	1.20038	1.0541	2.2922	80.16	-0.2259	-0.0207	0.2052	1249.0429	0.169567	-403.119765	-403.110558	-403.109614	-403.153807	34.068	
C	-0.1234398641	 1.5759549657	-0.0376370526	-0.38797
C	 0.054489659	 0.0557833428	 0.0292548211	-0.197129
C	 0.7617700068	-0.511920845	-1.2073140276	-0.143158
C	 0.8387062202	-2.0522524773	-1.2886618422	-0.051435
C	-0.0689796687	-2.1089445905	-2.5227364524	-0.177255
N	 1.3262271845	-2.5330158987	-2.5470000465	-0.083838
C	 2.3450321077	-1.85344134	-3.3422458101	-0.321498
C	-0.190453829	-0.6008280927	-2.4360374957	 0.406832
O	-0.9178402278	 0.1969878306	-2.9594517827	-0.319661
H	 0.8466515478	 2.0826907045	-0.0891699504	 0.11232
H	-0.698082755	 1.8583749558	-0.9233420785	 0.149982
H	-0.6472442854	 1.9474390967	 0.8482444832	 0.111913
H	 0.6370479232	-0.2170010517	 0.9185686004	 0.100039
H	-0.9238781744	-0.4285539017	 0.1436496271	 0.104085
H	 1.7132371941	 0.0070888203	-1.3640952275	 0.091903
H	 0.8152116074	-2.7261825263	-0.4385117706	 0.108455
H	-0.8378466011	-2.8129453661	-2.8228280874	 0.11055
H	 2.2865867579	-0.7576856455	-3.3521876892	 0.120569
H	 3.3283855328	-2.1442046637	-2.9605022901	 0.13005
H	 2.2624885741	-2.2078571372	-4.3732676584	 0.135244
82.519	117.7635	147.755	153.9682	185.2398	264.4962	310.6261	342.3264	387.9981	448.3511	536.2209	653.0715	719.3999	749.9963	766.0847	861.5672	890.6769	912.9913	931.5962	965.9749	997.2418	1048.3153	1068.2432	1096.3908	1105.7893	1129.3218	1159.3677	1179.0918	1208.8129	1233.3617	1254.8867	1283.7326	1328.8111	1361.7241	1371.2125	1412.9155	1452.756	1491.0332	1493.6125	1498.1955	1499.5623	1513.3275	1865.9382	3015.3673	3017.5267	3036.9442	3043.1238	3058.2006	3087.0338	3102.3085	3116.5334	3128.2725	3166.686	3177.1581
CCC1C2C(N2C)C1=O	CC[C@H]1[C@H]2[C@H](N2C)C1=O	
InChI=1S/C7H11NO/c1-3-4-5-6(7(4)9)8(5)2/h4-6H,3H2,1-2H3	InChI=1S/C7H11NO/c1-3-4-5-6(7(4)9)8(5)2/h4-6H,3H2,1-2H3/t4-,5-,6-,8?/m0/s1
