18
gdb 24149	5.14336	0.88689	0.78677	1.5105	77.67	-0.2228	0.0192	0.242	1421.6219	0.149473	-401.943803	-401.93586	-401.934916	-401.977606	29.671	
C	 0.0393837993	 1.373815016	 0.465199029	-0.361942
C	-0.0708191164	-0.0884464243	 0.076576791	 0.046506
C	-1.3871565978	-0.6885925534	-0.2425193445	-0.251589
N	-0.3897999318	-0.4728475925	-1.310351812	-0.314785
C	 1.391456392	 1.965325771	 0.1825038345	 0.252701
C	 2.1638188823	 2.6896308216	 1.0365764132	-0.103724
O	 3.3251228477	 3.0737616695	 0.442049837	-0.142484
C	 3.2970297286	 2.5786277062	-0.8229326284	 0.006493
C	 2.1462061378	 1.8944804526	-1.0426050329	-0.280761
H	-0.7421902629	 1.932963042	-0.0705742171	 0.101218
H	-0.1853110434	 1.4855912617	 1.5332339529	 0.109938
H	 0.6853994441	-0.7287014612	 0.5267800434	 0.097423
H	-1.5879715456	-1.7296181644	-0.0066671234	 0.119169
H	-2.2613073004	-0.0423434997	-0.2107278666	 0.10887
H	-0.6473720903	 0.3574947983	-1.8402837644	 0.225524
H	 2.0325019067	 3.0066321034	 2.0584885945	 0.13206
H	 4.1614178342	 2.7947657783	-1.4288639631	 0.135405
H	 1.8670424258	 1.3802786149	-1.9489066832	 0.119977
37.9119	81.379	119.5672	281.2007	306.4191	349.2683	443.3633	622.992	635.0053	714.7937	737.5548	783.868	792.3047	826.8468	840.1133	892.7618	924.2789	938.6365	973.9004	995.3207	1049.1058	1059.9447	1102.6341	1124.9855	1141.4998	1172.861	1204.2561	1254.1899	1255.6696	1272.0004	1284.2154	1310.4222	1329.7351	1410.4319	1424.1999	1470.7568	1512.4621	1537.6342	1635.0221	2994.2301	3048.3726	3106.3403	3127.8297	3191.3375	3256.099	3270.6344	3284.8514	3481.8778
C(C1CN1)C1=COC=C1	C([C@H]1CN1)c1cocc1	
InChI=1S/C7H9NO/c1-2-9-5-6(1)3-7-4-8-7/h1-2,5,7-8H,3-4H2	InChI=1S/C7H9NO/c1-2-9-5-6(1)3-7-4-8-7/h1-2,5,7-8H,3-4H2/t7-/m0/s1
