16
gdb 127641	2.8486	1.55307	1.01602	2.8576	73.76	-0.2514	-0.0288	0.2226	1111.2172	0.12606	-434.125785	-434.117343	-434.116399	-434.159306	30.707	
C	-0.0114376559	 1.4401115248	 0.0266854479	-0.307978
N	-0.0057169528	-0.0148799312	 0.0726976503	-0.036835
N	-0.0901985418	-0.6979847345	-1.076385615	-0.248078
C	-0.0701146559	-1.9866603621	-0.7282163666	 0.003358
C	 0.0330132395	-2.138917827	 0.6595562735	-0.335604
C	 0.0747104243	-0.8411630743	 1.156769151	 0.315048
C	 0.1709165381	-0.3204555791	 2.5377638057	 0.317368
N	 0.4261180412	-1.2685610115	 3.4935929683	-0.534318
O	 0.007869212	 0.8564760029	 2.8174482003	-0.378919
H	 0.8802519364	 1.8420588298	 0.5099314116	 0.151041
H	-0.0322829306	 1.7131638001	-1.027553302	 0.147632
H	-0.8845464305	 1.8357350313	 0.5467402556	 0.157573
H	-0.1328798244	-2.7477874004	-1.491380463	 0.118207
H	 0.0438825761	-3.0575781574	 1.2242609267	 0.106222
H	 0.8236600613	-2.1576517071	 3.2434396606	 0.261848
H	 0.6132284131	-0.9203029144	 4.4204951452	 0.263434
54.0456	111.6347	176.6197	209.0845	231.6854	333.6495	346.6441	421.4724	505.2503	528.9967	644.4548	670.7439	678.731	731.0521	770.948	811.6899	886.8079	944.3086	1034.8556	1072.3629	1089.4815	1153.2504	1158.3675	1219.9665	1307.5561	1347.9068	1376.4976	1419.9977	1456.9682	1476.7359	1493.3638	1497.9666	1553.1911	1617.5937	1768.8397	3073.1532	3146.2502	3175.5519	3246.3155	3264.0106	3597.7851	3728.1703
CN1N=CC=C1C(N)=O	Cn1nccc1C(=O)N	
InChI=1S/C5H7N3O/c1-8-4(5(6)9)2-3-7-8/h2-3H,1H3,(H2,6,9)	InChI=1S/C5H7N3O/c1-8-4(5(6)9)2-3-7-8/h2-3H,1H3,(H2,6,9)
