20
gdb 60483	5.8527	0.509	0.48519	4.0342	77.85	-0.2746	0.0119	0.2865	2204.9485	0.168013	-440.284391	-440.273606	-440.272662	-440.321686	37.111	
C	-0.0610123791	 1.5446579163	 0.0735739273	-0.405351
C	-0.0311323696	 0.0177969617	 0.0319768466	 0.132994
O	 0.7148333433	-0.5183334034	 1.1250372624	-0.429309
C	-1.4396149916	-0.5870309409	-0.0335082377	-0.2138
C	-1.4165520615	-2.1054069198	-0.1205296033	-0.053071
O	-2.7599959372	-2.5690178927	-0.1400909683	-0.240783
C	-2.8400329954	-3.9682808979	-0.2015572271	-0.184597
C	-4.2494551183	-4.3735210159	-0.2030735561	 0.263684
N	-5.3497671994	-4.722744315	-0.2057040358	-0.29337
H	 0.9558098929	 1.9408849001	 0.1372638959	 0.127621
H	-0.5415614966	 1.9575777146	-0.8189265722	 0.121501
H	-0.6234235117	 1.8981032243	 0.9470062888	 0.110437
H	 0.5315369277	-0.3018631955	-0.8548100658	 0.091714
H	 0.3258910791	-0.1774172304	 1.9387029136	 0.278515
H	-2.0094452103	-0.2907395528	 0.8572635626	 0.10232
H	-1.9767076627	-0.1842262798	-0.8997582228	 0.112247
H	-0.891364906	-2.4332463914	-1.0336014115	 0.092581
H	-0.8752275412	-2.5271351048	 0.7384365247	 0.109077
H	-2.3610093708	-4.3657119918	-1.1121454016	 0.138499
H	-2.3395196014	-4.4444237549	 0.6581393102	 0.139091
36.5157	73.3203	80.5628	112.4708	143.6413	175.6439	240.16	283.8537	307.7644	326.9752	386.731	425.1999	475.5002	496.716	584.6721	801.6848	853.7393	934.5026	952.9992	976.2941	1023.6894	1035.5252	1057.028	1093.2758	1129.287	1155.16	1170.7616	1219.242	1254.0391	1290.6679	1296.7467	1335.4261	1373.622	1391.9843	1404.819	1420.954	1445.6044	1481.6056	1493.0942	1495.2667	1496.6012	1529.7381	2373.9065	2961.8046	2969.3824	2989.3668	3020.0755	3022.6864	3024.3574	3035.2328	3076.8909	3097.4233	3121.6943	3793.3362
CC(O)CCOCC#N	C[C@@H](O)CCOCC#N	
InChI=1S/C6H11NO2/c1-6(8)2-4-9-5-3-7/h6,8H,2,4-5H2,1H3	InChI=1S/C6H11NO2/c1-6(8)2-4-9-5-3-7/h6,8H,2,4-5H2,1H3/t6-/m1/s1
