23
gdb 106504	3.0852	1.33618	1.16733	0.1724	90.19	-0.2291	0.0237	0.2528	1189.6975	0.207767	-351.162672	-351.154405	-351.153461	-351.195005	33.927	
C	 0.1009717599	 1.5496321333	 0.1816693292	-0.382967
C	-0.0984713367	 0.0495966328	-0.0671769441	-0.291617
C	 0.6764725175	-0.4845565316	-1.2640845599	 0.329509
C	 2.2420580004	-0.4318199176	-1.2556186108	-0.248002
C	 2.192663789	-1.7124189912	-2.1373710871	-0.032075
C	 0.8381663915	-2.0308660702	-1.4415181822	-0.262176
C	 1.961235811	-1.3359347819	-3.611160535	-0.250353
C	 0.8269904164	-0.3428104896	-3.7178268845	-0.084383
C	 0.2154479537	 0.0644801566	-2.6057156067	-0.083831
H	 1.155148539	 1.7802560812	 0.3685973959	 0.118804
H	-0.2187926162	 2.1489833201	-0.6770088116	 0.11727
H	-0.4731107718	 1.8841259184	 1.05118076	 0.110728
H	 0.208472185	-0.5077923466	 0.8268740784	 0.087236
H	-1.167642598	-0.1625539061	-0.207196339	 0.091966
H	 2.7241724795	 0.4608177787	-1.6629751679	 0.090075
H	 2.6441269936	-0.6490123507	-0.2607762472	 0.088081
H	 3.0040538779	-2.4367149819	-2.0329529064	 0.056761
H	 0.993121964	-2.5294751643	-0.4794295215	 0.087524
H	 0.0693609639	-2.5582390681	-2.0128525019	 0.08896
H	 2.879947742	-0.91703059	-4.046522638	 0.101814
H	 1.7346742772	-2.2352893853	-4.2017827569	 0.10198
H	 0.5300410842	 0.0117227341	-4.7008380559	 0.083443
H	-0.612772543	 0.7674540601	-2.6319867967	 0.081251
106.8787	158.0961	201.9371	271.3987	316.8751	350.3803	396.7301	440.6591	481.5568	509.8054	633.7999	690.5635	716.2082	785.2475	826.7391	862.7258	880.1909	906.3178	937.9477	944.518	949.0215	976.0764	978.5227	1028.4217	1036.3681	1063.1816	1087.814	1102.9461	1115.9368	1167.8564	1176.8343	1217.3116	1224.7732	1245.368	1277.9708	1282.9895	1321.2103	1328.376	1365.7816	1367.8905	1406.6771	1411.5062	1473.1103	1474.7128	1484.3346	1499.2686	1505.3929	1508.1933	1700.0656	2999.2613	3009.4045	3022.9071	3034.6836	3038.2323	3043.0476	3045.6373	3074.2298	3099.4501	3101.4609	3102.4573	3104.5912	3151.3815	3176.0739
CCC12CC(C1)CC=C2	CC[C@@]12C[C@@H](C1)CC=C2	
InChI=1S/C9H14/c1-2-9-5-3-4-8(6-9)7-9/h3,5,8H,2,4,6-7H2,1H3	InChI=1S/C9H14/c1-2-9-5-3-4-8(6-9)7-9/h3,5,8H,2,4,6-7H2,1H3/t8-,9+
