17
gdb 73662	2.50577	1.66555	1.43754	2.8743	69.62	-0.2408	0.023	0.2638	975.4311	0.136826	-455.134541	-455.126411	-455.125466	-455.167081	30.788	
O	 0.0502617396	 1.4517592499	 0.0799778932	-0.480429
C	-0.0261238468	 0.0631758606	-0.0173208073	 0.314539
C	 0.7139018812	-0.4784573595	-1.2516101258	-0.136185
O	 0.0755379056	-1.696599444	-1.602821583	-0.249291
C	-1.3171731409	-1.509520986	-1.378312307	-0.105684
C	-1.417479889	-0.6902042479	-0.0969777095	-0.047647
N	-1.0202581561	-1.3707490086	 1.1454497676	-0.339405
C	 0.2087667018	-0.7453535283	 1.258372033	 0.313149
N	 1.1797049783	-0.712107388	 2.0693027421	-0.560834
H	 0.387406451	 1.6595793386	 0.9588121986	 0.301106
H	 0.6277110809	 0.2756015433	-2.0504451129	 0.101988
H	 1.7690919478	-0.6868930821	-1.0639197926	 0.131132
H	-1.7820887233	-0.9494956009	-2.2066983843	 0.099535
H	-1.7850191105	-2.4968561585	-1.3213293428	 0.108158
H	-2.3219781178	-0.0860062681	-0.0043392942	 0.093839
H	-1.2892280583	-2.2877195732	 1.4716172166	 0.242763
H	 1.0557857066	-1.3533814073	 2.8541339781	 0.213267
101.9384	139.1986	194.4076	238.2922	288.7898	302.9571	369.2068	385.3267	512.8557	565.8168	665.9371	717.8354	740.8749	800.4147	841.0261	876.4493	906.9738	950.5191	1002.1533	1052.7261	1073.5961	1094.7213	1109.8169	1140.5295	1174.0915	1207.2538	1249.0935	1275.811	1298.0309	1341.2448	1353.4865	1368.0822	1394.3338	1403.3492	1493.9421	1508.2811	1797.179	2972.3335	2984.2978	3084.2676	3095.6806	3114.5552	3466.3293	3601.2183	3804.3029
OC12COCC1NC2=N	O[C@]12COC[C@H]1N[C]2[NH]	
InChI=1S/C5H8N2O2/c6-4-5(8)2-9-1-3(5)7-4/h3,8H,1-2H2,(H2,6,7)	InChI=1S/C5H8N2O2/c6-4-5(8)2-9-1-3(5)7-4/h3,8H,1-2H2,(H2,6,7)/t3-,5-/m1/s1
