23
gdb 91348	1.85467	1.57894	1.44763	1.2676	84.74	-0.2408	0.0708	0.3115	1144.7969	0.204725	-388.268702	-388.259044	-388.2581	-388.302909	37.294	
C	 0.0438494674	 1.571376489	-0.1856520546	-0.427694
C	 0.008763765	 0.0591224023	-0.0029367712	-0.006672
C	 0.7357877457	-0.8847274597	-1.0075653086	-0.263764
C	 1.1712290854	-1.8076115586	 0.1699239626	-0.048363
C	 2.6345430189	-1.6151214825	 0.6271634135	-0.25266
C	 2.1884227802	-0.4600959467	 1.5833831267	-0.02524
C	 2.881624649	 0.8896652757	 1.4402913704	-0.41726
C	 0.6889115244	-0.7069236545	 1.1702285547	 0.364275
O	-0.1526862397	-1.0676832163	 2.2392131871	-0.481539
H	 1.053608006	 1.9514067837	-0.3562863874	 0.116568
H	-0.5657527562	 1.8645979885	-1.0479879398	 0.113743
H	-0.3650876056	 2.0897251666	 0.6899410073	 0.105541
H	-1.0387557852	-0.2594395315	 0.056293664	 0.081919
H	 0.0972881858	-1.341443908	-1.7670460008	 0.099258
H	 1.5848549025	-0.416171894	-1.5159403581	 0.091917
H	 0.7481637216	-2.8118591309	 0.1831075879	 0.069172
H	 3.0620362103	-2.4736865344	 1.1508307397	 0.099067
H	 3.3280286863	-1.3197289837	-0.1668059583	 0.090976
H	 2.2667329358	-0.7901921476	 2.6242340555	 0.076871
H	 2.9448265882	 1.2129507281	 0.3973304879	 0.119035
H	 2.3721845578	 1.6773460176	 2.0065127799	 0.108381
H	 3.9082117856	 0.8247166987	 1.8189280802	 0.113552
H	-0.2606561094	-0.2980603518	 2.8095713513	 0.272915
46.1055	159.5928	174.281	204.0632	223.9247	251.2952	281.9095	325.5108	350.1592	408.524	443.919	548.4411	566.6861	614.8638	705.3799	810.1624	825.8274	872.6792	876.2417	934.9347	940.8727	960.6782	1000.0722	1017.6731	1056.8378	1102.4165	1118.8115	1131.8543	1143.5691	1165.6037	1186.3071	1199.4768	1221.8891	1253.9089	1261.5819	1268.377	1291.3954	1311.3755	1350.2337	1361.2642	1394.6035	1405.7089	1412.841	1481.2301	1485.8092	1490.9234	1496.0257	1501.5245	1511.8881	3024.578	3026.9313	3032.7065	3043.7458	3045.2379	3048.0393	3080.5732	3085.375	3095.7371	3098.6673	3104.8088	3115.9146	3123.0189	3789.0912
CC1CC2CC(C)C12O	C[C@H]1C[C@H]2C[C@@H](C)[C@@]12O	
InChI=1S/C8H14O/c1-5-3-7-4-6(2)8(5,7)9/h5-7,9H,3-4H2,1-2H3	InChI=1S/C8H14O/c1-5-3-7-4-6(2)8(5,7)9/h5-7,9H,3-4H2,1-2H3/t5-,6+,7-,8-
