19
gdb 67659	2.9707	1.87778	1.6465	1.4712	77.47	-0.2218	0.0859	0.3077	914.0446	0.161259	-385.847907	-385.841189	-385.840245	-385.87854	28.449	
C	-0.0447356907	 1.5231156113	-0.0156208188	-0.50795
C	 0.0048222637	 0.0233598955	 0.0209417739	 0.289104
C	-0.1271317946	-0.8420682041	-1.2176871278	 0.049449
O	 0.7079853935	-1.9580642122	-1.4039658155	-0.25794
C	 0.8922158683	-2.5234995625	-0.1149766305	 0.079223
C	 1.8900083722	-1.663580692	 0.7069636849	-0.253707
C	 0.6785496891	-0.8113065425	 1.1439047466	-0.091462
C	-0.3022846446	-1.9661731891	 0.7808648321	-0.072756
C	-1.1235127527	-1.0331248318	-0.1223789017	-0.177031
H	 0.9546862211	 1.9468944264	-0.1740583011	 0.122917
H	-0.6881818745	 1.8816622541	-0.826350083	 0.1178
H	-0.4346400017	 1.9335015685	 0.9233438518	 0.117397
H	-0.3932553291	-0.3617323237	-2.1518798918	 0.099449
H	 1.0684720672	-3.5949493557	-0.2233605305	 0.074148
H	 2.3035180441	-2.2227348252	 1.5524428477	 0.095637
H	 2.6998670348	-1.197143646	 0.1401573207	 0.098984
H	 0.6579324443	-0.3281663914	 2.1227783353	 0.061946
H	-0.7647949695	-2.616611244	 1.5180814955	 0.069254
H	-2.1988739911	-0.9448885755	-0.2115855679	 0.085539
196.4402	207.648	268.3192	335.4344	420.9632	521.1264	596.8	649.6144	695.2868	703.2088	783.2661	814.3367	845.7311	869.8147	889.2299	895.4259	924.7447	943.8543	958.1547	1003.3497	1017.0445	1029.7357	1075.0547	1087.8155	1107.5333	1121.6666	1142.4866	1186.0683	1206.4526	1215.8713	1228.8523	1253.7504	1266.4233	1286.7509	1309.9414	1356.4344	1413.9615	1440.9571	1473.8093	1485.0818	1497.5491	3016.7479	3047.5754	3075.5437	3086.6464	3090.4649	3097.0259	3108.4884	3153.794	3185.948	3196.1855
CC12C3OC4CC1C4C23	C[C@@]12[C@H]3O[C@H]4C[C@@H]1[C@H]4[C@@H]23	
InChI=1S/C8H10O/c1-8-3-2-4-5(3)6(8)7(8)9-4/h3-7H,2H2,1H3	InChI=1S/C8H10O/c1-8-3-2-4-5(3)6(8)7(8)9-4/h3-7H,2H2,1H3/t3-,4+,5-,6-,7+,8-/m1/s1
