18
gdb 60882	2.4059	1.45617	1.05675	1.6342	72.65	-0.2468	-0.0428	0.204	1148.6055	0.145246	-439.077418	-439.068046	-439.067101	-439.111848	33.612	
C	-0.1920142186	 1.5538391179	-0.2631680588	-0.412956
C	 0.1702420413	 0.0646353551	-0.0149224955	-0.182891
C	-1.0581931663	-0.5664564869	 0.6025487276	 0.146104
O	-1.8491469111	-1.2887960798	 0.0439931128	-0.259951
C	 0.7245648748	-0.6043420186	-1.2655494181	 0.209989
C	 0.5617402839	-2.0707668142	-1.5571050473	-0.278133
N	-0.1299315422	-1.0842980883	-2.3791900158	-0.347328
C	 2.0207334269	-0.0444113996	-1.7602040439	 0.153381
O	 2.7278542621	 0.710161243	-1.1383382373	-0.280601
H	 0.7043890245	 2.1064178923	-0.5456914284	 0.162671
H	-0.9354163964	 1.6420474868	-1.060938753	 0.135356
H	-0.6054335263	 2.011511632	 0.6412623347	 0.123872
H	 0.9596766431	 0.0539910306	 0.7476963617	 0.117368
H	-1.2328266373	-0.2540612088	 1.6567586598	 0.097839
H	 1.3687132583	-2.6062164648	-2.050858623	 0.124006
H	-0.0153926735	-2.653523808	-0.8483420874	 0.141502
H	-1.0979646711	-1.046424116	-2.0645396808	 0.255222
H	 2.292876758	-0.4124009628	-2.7735030872	 0.094551
62.4493	95.9761	147.476	197.1761	220.8415	244.4258	258.1285	334.6032	358.6806	365.2235	488.1311	537.8731	680.6256	753.6109	818.8979	888.4732	911.6301	923.8673	956.8024	987.2528	1029.0315	1043.5916	1081.8116	1122.7899	1130.8083	1162.5569	1273.2165	1287.4278	1306.8874	1330.4402	1398.0497	1407.0082	1414.8202	1437.9117	1494.0161	1500.6191	1508.9039	1810.9208	1817.843	2882.6763	2904.1018	3034.6069	3044.8554	3111.721	3118.2096	3152.7985	3217.5969	3498.4278
CC(C=O)C1(CN1)C=O	C[C@@H](C=O)[C@]1(CN1)C=O	
InChI=1S/C6H9NO2/c1-5(2-8)6(4-9)3-7-6/h2,4-5,7H,3H2,1H3	InChI=1S/C6H9NO2/c1-5(2-8)6(4-9)3-7-6/h2,4-5,7H,3H2,1H3/t5-,6-/m0/s1
