19
gdb 63281	2.09012	1.68809	1.29218	4.4453	75.68	-0.2646	0.0134	0.278	1087.1626	0.157447	-423.057007	-423.048021	-423.047077	-423.090263	34.026	
C	-0.2596502816	 1.5453552563	 0.138271909	-0.429571
C	-0.0128637894	 0.0494076887	 0.0629992757	 0.348265
C	-1.181169725	-0.7339240828	-0.5078633463	-0.429573
O	 1.213996632	-0.2187007022	-0.7409829936	-0.311856
C	 1.8629844626	-0.7843456021	 0.3288466163	 0.439043
O	 2.9636962618	-1.2395091478	 0.3645925314	-0.351757
C	 0.7106202472	-0.5828265981	 1.2614088651	 0.074676
C	 0.7855320444	-0.1860468554	 2.7099047482	-0.321654
C	 0.240955771	-1.5330282663	 2.3280475633	-0.321653
H	 0.621328158	 2.0662719404	 0.5213593935	 0.13192
H	-0.495360603	 1.9440995434	-0.8530562731	 0.132721
H	-1.1051875786	 1.760644526	 0.8000515703	 0.120585
H	-1.4314567163	-0.3712383137	-1.5094142425	 0.132722
H	-0.9409894947	-1.7979556751	-0.5740743551	 0.13192
H	-2.0663895613	-0.6167773048	 0.1260913656	 0.120585
H	 1.7740008603	-0.1335491977	 3.1530776364	 0.141524
H	 0.0873391809	 0.5687607525	 3.0559296696	 0.12529
H	-0.8281923431	-1.6957601219	 2.4139617104	 0.12529
H	 0.8538301049	-2.4095474195	 2.5078461058	 0.141524
97.9293	179.0903	192.1424	198.2903	208.0482	237.5508	313.1018	335.9727	353.8759	491.8532	559.2012	614.8405	638.9791	737.2154	776.8134	815.7258	836.1935	929.9466	946.4524	959.1551	972.5843	1008.1113	1013.1742	1049.9777	1079.2434	1084.6281	1181.9359	1194.0496	1234.276	1251.8937	1295.1341	1393.4545	1405.8192	1420.3078	1458.4266	1475.0057	1480.4997	1493.8397	1497.1234	1506.1243	1926.5362	3038.0903	3043.2371	3106.8051	3112.9008	3124.7923	3126.4874	3133.2141	3135.0288	3216.0584	3230.0514
CC1(C)OC(=O)C11CC1	CC1(C)OC(=O)C21CC2	
InChI=1S/C7H10O2/c1-6(2)7(3-4-7)5(8)9-6/h3-4H2,1-2H3	InChI=1S/C7H10O2/c1-6(2)7(3-4-7)5(8)9-6/h3-4H2,1-2H3
