15
gdb 81759	3.43718	1.25522	1.09077	2.4234	66.99	-0.2674	-0.012	0.2554	1087.461	0.112534	-453.902015	-453.893921	-453.892977	-453.934634	30.392	
N	 0.0568942519	 1.450902233	 0.0681764117	-0.521172
C	 0.0891230495	 0.0084408929	 0.0298154223	-0.149286
C	 0.2591748233	-0.6305312293	 1.4716189572	 0.145549
O	 0.5111122246	 0.2651977233	 2.4992524736	-0.431539
C	-1.1529127635	-1.2287946456	 1.3386120434	-0.08507
O	-2.0644531756	-0.178436679	 1.0044241377	-0.273085
C	-1.2715655187	-0.7295317677	-0.0560717701	 0.32684
C	-1.9255029604	-1.2783112198	-1.2013749491	 0.183818
N	-2.3982338128	-1.7108951642	-2.164420433	-0.334144
H	 0.3099202322	 1.8734797871	-0.8159926253	 0.251745
H	-0.8651189968	 1.7777715304	 0.3403080029	 0.259819
H	 0.8346485786	-0.3469524246	-0.6814538427	 0.106177
H	 1.0029209689	-1.438242803	 1.4563464277	 0.091603
H	 0.5797955309	 1.1351342619	 2.0702982599	 0.293734
H	-1.5786070522	-2.1219692453	 1.7803564938	 0.13501
99.3402	138.9091	195.3199	247.4799	265.2589	293.8369	423.0732	468.1848	521.9987	560.0568	601.1115	630.2213	707.5493	761.8947	807.5873	867.8176	878.6461	939.3659	964.7947	1014.4659	1108.2918	1117.867	1146.327	1177.5308	1206.3592	1263.6873	1274.1795	1361.6038	1390.5307	1421.1616	1430.134	1641.2541	2353.4939	3021.8241	3121.6877	3201.0514	3514.21	3610.6731	3647.9954
NC1C(O)C2OC12C#N	N[C@H]1[C@@H](O)[C@H]2O[C@@]12C#N	
InChI=1S/C5H6N2O2/c6-1-5-3(7)2(8)4(5)9-5/h2-4,8H,7H2	InChI=1S/C5H6N2O2/c6-1-5-3(7)2(8)4(5)9-5/h2-4,8H,7H2/t2-,3+,4-,5+/m1/s1
