17
gdb 97821	5.19718	0.68004	0.65154	2.7981	78.27	-0.2439	0.0299	0.2738	1705.2631	0.134596	-421.742815	-421.733884	-421.73294	-421.779201	31.663	
O	 0.2283702142	 1.2766463451	 0.57583181	-0.40298
C	 0.0906644054	 0.0352552672	-0.1040441899	-0.19347
C	-1.2772032667	-0.4805468091	-0.1098778383	 0.060902
C	-2.4193557447	-0.8657950579	-0.125699962	 0.076844
C	-3.783762251	-1.3519169495	-0.1371354182	-0.209164
C	-4.5462201396	-1.51144683	-1.5181371168	-0.265809
C	-4.7506353624	-2.9913851797	-1.1758817052	 0.034203
O	-3.4487646273	-3.5663843095	-1.0138207778	-0.232996
C	-4.013889019	-2.8673132305	 0.0905568402	 0.026107
H	-0.433549648	 1.8751862176	 0.2144604914	 0.285798
H	 0.4576169476	 0.104441403	-1.1408512924	 0.117553
H	 0.7543647818	-0.6636068619	 0.41733334	 0.140911
H	-4.4019769871	-0.7718941011	 0.5561604673	 0.108832
H	-5.4673444805	-0.9259819045	-1.5474306334	 0.111498
H	-3.9532174533	-1.3253503512	-2.4148275143	 0.122218
H	-5.5558937957	-3.657085724	-1.4619711645	 0.109996
H	-4.0951044237	-3.395117244	 1.033611524	 0.109557
8.7323	72.0486	106.2066	141.5791	254.7335	288.7035	327.3475	425.9213	469.1934	525.0604	594.4729	720.1566	770.7406	843.1293	854.0729	903.6494	912.5081	944.4414	989.1911	1002.4856	1021.7214	1046.848	1062.1619	1134.2303	1182.2936	1191.6298	1214.0818	1233.3607	1238.0947	1267.2125	1338.4186	1357.0312	1391.3538	1418.0614	1471.3122	1492.2034	2356.9146	2974.094	3053.73	3061.098	3078.4634	3141.0326	3183.9283	3200.2263	3816.9095
OCC#CC1CC2OC12	OCC#C[C@H]1C[C@H]2O[C@@H]12	
InChI=1S/C7H8O2/c8-3-1-2-5-4-6-7(5)9-6/h5-8H,3-4H2	InChI=1S/C7H8O2/c8-3-1-2-5-4-6-7(5)9-6/h5-8H,3-4H2/t5-,6+,7-/m0/s1
