21
gdb 28423	2.9475	1.28324	0.90907	0.3279	95.15	-0.222	0.0105	0.2325	1337.9447	0.182515	-350.044901	-350.035433	-350.034489	-350.079764	35.205	
C	-0.03645816	 1.5383451987	 0.0094082116	-0.492218
C	-0.0250359763	 0.0291849697	-0.0109660266	 0.31517
C	-0.0403542921	-0.6808769334	-1.2097618475	-0.212326
C	-0.0050833071	-2.0728503403	-1.2074127955	-0.176919
C	 0.0439963895	-2.800686831	-0.0193929633	 0.215143
C	 0.0781670448	-4.3086494945	-0.0475584543	-0.494749
C	 0.0562513748	-2.0962728712	 1.2003346415	 0.253556
C	 0.1033854431	-2.8329604986	 2.5164280751	-0.495191
C	 0.0207173855	-0.7027754341	 1.1792813095	-0.278946
H	 0.9686327555	 1.9438966788	 0.1799194389	 0.130394
H	-0.3962886636	 1.9469193307	-0.939107053	 0.121309
H	-0.6771640621	 1.9241007802	 0.8089023364	 0.12439
H	-0.0813016553	-0.1450078855	-2.1536377015	 0.084586
H	-0.0196132257	-2.6081125448	-2.1528476706	 0.08389
H	 0.9769036119	-4.7054681748	 0.4401711305	 0.12603
H	-0.7799055246	-4.746276026	 0.477194985	 0.126132
H	 0.0651183921	-4.6818636841	-1.0747631026	 0.119321
H	 1.0004716804	-3.4585170402	 2.5993973432	 0.126952
H	 0.1039307423	-2.1362425287	 3.3584880462	 0.119232
H	-0.7559288308	-3.5036207833	 2.6376496098	 0.126852
H	 0.0272784376	-0.1670243875	 2.1257789871	 0.077392
26.6281	130.7669	140.73	170.3071	212.3299	280.5175	302.1847	321.7388	440.9945	451.6429	475.5645	557.6111	560.2495	723.8056	730.7057	757.2831	826.111	896.627	936.0998	937.0766	1000.7651	1017.0096	1038.0123	1042.9998	1061.1951	1072.1176	1144.7124	1180.0273	1233.1426	1270.8015	1313.7717	1331.9133	1409.5654	1411.8322	1421.5618	1433.6599	1476.7836	1485.685	1487.8388	1492.8255	1495.3179	1501.7417	1535.7779	1614.8494	1656.2037	3021.4527	3022.9479	3025.5509	3067.3661	3070.2672	3081.2921	3110.488	3111.8342	3114.0428	3149.726	3155.8139	3175.0128
CC1=CC=C(C)C(C)=C1	Cc1ccc(C)c(C)c1	
InChI=1S/C9H12/c1-7-4-5-8(2)9(3)6-7/h4-6H,1-3H3	InChI=1S/C9H12/c1-7-4-5-8(2)9(3)6-7/h4-6H,1-3H3
