22
gdb 101333	3.21941	0.77884	0.73093	3.2327	79.12	-0.2478	0.0659	0.3136	1663.3442	0.192757	-441.451843	-441.441119	-441.440175	-441.488784	38.52	
C	-0.2572561177	 1.5010661307	-0.0127649357	-0.385418
C	-0.1453426061	-0.0166407938	-0.1699078822	-0.192537
C	 0.9560951511	-0.4426266824	-1.1481532986	 0.143052
O	 2.2404167499	 0.0394247853	-0.7545203931	-0.433673
C	 0.9741022215	-1.9483622265	-1.3331802848	-0.058862
N	 0.1061264576	-2.5086148279	-2.3843913789	-0.352352
C	 1.575201869	-2.644694521	-2.4993794963	-0.038205
C	 2.193028494	-1.957545868	-3.6942540926	-0.065836
O	 1.8597522471	-2.638651346	-4.8938862713	-0.424187
H	 0.7012382972	 1.9278922153	 0.2940679306	 0.126931
H	-0.5426938452	 1.9729220632	-0.9592871307	 0.117615
H	-1.0105763205	 1.7682347073	 0.7342569011	 0.109204
H	 0.055960101	-0.4814396832	 0.8075319916	 0.079575
H	-1.0954058801	-0.437980219	-0.5202944508	 0.109924
H	 0.7642268616	 0.0273408667	-2.1174503606	 0.095364
H	 2.4507680224	-0.3488441075	 0.1022616236	 0.276357
H	 1.0174047778	-2.4979819295	-0.3901414527	 0.07427
H	-0.3118091286	-3.3816469984	-2.0756656425	 0.234371
H	 1.9854020914	-3.6350112969	-2.306203998	 0.088113
H	 1.8855659254	-0.9046602623	-3.7366080745	 0.09569
H	 3.2847063978	-1.9797877493	-3.6173898109	 0.113108
H	 0.8961308835	-2.6596477868	-4.9269810028	 0.287496
32.0902	63.012	97.7922	120.0538	182.3548	229.0567	244.2796	272.2761	288.2419	368.1735	414.4693	423.9677	493.3194	527.5036	593.726	779.5583	813.8367	855.1008	898.9775	943.2046	959.6616	986.795	995.6545	1034.8596	1061.5808	1069.6617	1104.0501	1118.5809	1150.5928	1176.6984	1214.1106	1259.0725	1270.2971	1271.9229	1297.4758	1333.4881	1363.4015	1383.378	1401.8619	1405.5055	1416.1134	1441.1353	1481.3571	1484.3479	1494.6821	1497.558	1509.1543	2994.2253	3020.4212	3038.6282	3055.146	3069.4412	3081.7335	3083.8084	3103.676	3119.5139	3122.0018	3509.0812	3792.505	3796.3429
CCC(O)C1NC1CO	CC[C@@H](O)[C@H]1N[C@H]1CO	
InChI=1S/C6H13NO2/c1-2-5(9)6-4(3-8)7-6/h4-9H,2-3H2,1H3	InChI=1S/C6H13NO2/c1-2-5(9)6-4(3-8)7-6/h4-9H,2-3H2,1H3/t4-,5+,6-/m0/s1
