14
gdb 61152	2.77906	1.04167	0.79297	1.2686	70.49	-0.2751	-0.1095	0.1656	1345.2752	0.097123	-436.660646	-436.651148	-436.650204	-436.695863	32.919	
O	 0.0835652706	 1.508045641	-0.0879406025	-0.420174
C	 0.0494256028	 0.1170628896	-0.0257147084	 0.034806
C	 0.6886311406	-0.5232417487	-1.2901979432	-0.387257
C	-0.0478325863	-0.1822132783	-2.4971661491	 0.308178
C	-0.6694644759	 0.0910093392	-3.4875015259	-0.421019
C	 0.7567914492	-0.3606410397	 1.2344338351	 0.268823
O	 1.2908914905	 0.4058823128	 1.9998959372	-0.284386
C	 0.7498033441	-1.8077701341	 1.4891083099	 0.257383
N	 0.7303934664	-2.949829352	 1.669263152	-0.296714
H	 0.5846562501	 1.8142289938	 0.683117572	 0.30325
H	-0.9913768737	-0.2430892885	 0.0391482236	 0.12822
H	 1.7240018577	-0.1693782284	-1.3637526524	 0.148604
H	 0.7216289212	-1.613220276	-1.1699402437	 0.155285
H	-1.2119458173	 0.3361067994	-4.3669424147	 0.204998
53.7653	66.1259	116.7466	147.5264	216.812	301.8903	324.73	336.7132	345.9982	402.1771	475.8029	518.0089	619.7352	628.1443	655.2409	692.4403	858.3278	890.7137	982.9353	1026.8933	1087.0537	1160.825	1238.2556	1255.4729	1328.4226	1355.3388	1426.0759	1458.4736	1780.4912	2247.1115	2339.963	2971.8922	3028.8003	3071.4094	3505.9511	3715.9088
OC(CC#C)C(=O)C#N	O[C@@H](CC#C)C(=O)C#N	
InChI=1S/C6H5NO2/c1-2-3-5(8)6(9)4-7/h1,5,8H,3H2	InChI=1S/C6H5NO2/c1-2-3-5(8)6(9)4-7/h1,5,8H,3H2/t5-/m0/s1
