12
gdb 23660	3.80728	1.97592	1.30171	2.9481	60.84	-0.228	-0.0396	0.1884	837.2537	0.085551	-418.864251	-418.858015	-418.857071	-418.894508	23.964	
N	 0.0183440176	 1.3631548559	 0.1525543235	-0.566289
C	-0.0009124569	-0.0042431951	 0.056909536	 0.372589
C	-1.2045763188	-0.7393519342	 0.03075396	-0.069563
N	-1.2085851361	-2.06310193	-0.0143963059	-0.20905
C	-0.0308397654	-2.6923159486	-0.0317745663	-0.161259
C	 1.1404710132	-1.943799376	-0.008237304	 0.301849
F	 2.3116450544	-2.5693196768	-0.0329759669	-0.066848
N	 1.1821613661	-0.6320590585	 0.0310533513	-0.357189
H	 0.8997551279	 1.8008143467	-0.0661327963	 0.265563
H	-0.803023129	 1.8687376142	-0.1354242554	 0.2617
H	-2.1658840784	-0.2322793511	 0.0485686568	 0.104756
H	-0.0127976545	-3.7753136665	-0.0672897028	 0.12374
195.5822	243.6202	325.0222	395.4653	453.9066	483.8107	508.4463	560.183	588.3179	692.527	746.0085	774.6644	864.2146	909.2392	1010.816	1013.8352	1126.1306	1195.217	1277.188	1298.9987	1385.6731	1471.5895	1511.9449	1592.9395	1620.6848	1648.401	3156.198	3196.8286	3593.1705	3712.06
NC1=CN=CC(F)=N1	Nc1cncc(F)n1	
InChI=1S/C4H4FN3/c5-3-1-7-2-4(6)8-3/h1-2H,(H2,6,8)	InChI=1S/C4H4FN3/c5-3-1-7-2-4(6)8-3/h1-2H,(H2,6,8)
