16
gdb 71527	2.57473	1.56876	1.44458	3.0252	74.5	-0.2487	-0.0054	0.2433	981.7165	0.124944	-396.831263	-396.823698	-396.822753	-396.863204	29.143	
C	 0.012754969	 1.4680063475	-0.0432684904	-0.530725
C	 0.0397888905	-0.0257901606	-0.0562053291	 0.318747
N	 0.6691377582	-0.8696081731	-1.1207357719	-0.367506
C	 0.0986283828	-1.8764409094	-0.1819362122	-0.083931
C	 0.484367834	-1.0212928584	 1.0630129553	-0.063131
N	-0.8729978876	-1.0221661731	 1.7005763553	-0.375768
C	-1.1656936906	-1.0241822539	 0.2335433254	 0.219866
C	-2.4818934962	-1.0315776082	-0.3419559936	 0.139763
N	-3.5221072649	-1.0391406323	-0.8489317855	-0.342945
H	 1.030278409	 1.8651792991	-0.1066522924	 0.141951
H	-0.5631725151	 1.8593765407	-0.8880430468	 0.137406
H	-0.4491086568	 1.8199711697	 0.8835958674	 0.152838
H	 0.1270152613	-0.8283327707	-1.9876936578	 0.221464
H	 0.1595890508	-2.9553954325	-0.3300917281	 0.101675
H	 1.4170685208	-1.0229709398	 1.6231514949	 0.106377
H	-1.080192905	-1.9404162752	 2.1020371694	 0.223919
117.8758	142.2966	214.8057	247.8797	302.6474	417.5989	483.6278	528.3393	536.4067	614.0163	677.3052	739.6829	787.6724	831.9604	860.2796	889.2745	943.3914	953.453	1001.7898	1042.1976	1084.2354	1097.023	1132.0869	1178.9238	1186.2092	1224.9299	1259.167	1280.8742	1294.5328	1313.5454	1368.0421	1415.0673	1481.8218	1486.9826	2341.4702	3040.7591	3110.7944	3115.3317	3124.3876	3150.7218	3411.7463	3412.7786
CC12NC3C1NC23C#N	C[C@@]12N[C@H]3[C@@H]1N[C@@]23C#N	
InChI=1S/C6H7N3/c1-5-3-4(8-5)6(5,2-7)9-3/h3-4,8-9H,1H3	InChI=1S/C6H7N3/c1-5-3-4(8-5)6(5,2-7)9-3/h3-4,8-9H,1H3/t3-,4-,5+,6+/m0/s1
