17
gdb 73899	2.84479	1.22828	0.87166	2.5613	85.63	-0.2316	-0.0279	0.2036	1282.8229	0.133546	-384.706526	-384.697606	-384.696662	-384.740327	33.146	
C	-0.0017338328	 1.5111194364	 0.0956874446	-0.511002
C	 0.0121267582	 0.0204515845	 0.0245919272	 0.213021
C	-0.0023664898	-0.7331664063	-1.0960657702	 0.094771
C	 0.0190228482	-2.2168946981	-0.7961848954	-0.437501
C	 0.049705551	-2.2726859484	 0.7361475698	 0.393633
O	 0.0746621232	-3.2707038892	 1.4052857347	-0.301322
C	 0.0456298227	-0.8316399149	 1.264962439	-0.409267
C	-0.0336122632	-0.2478836255	-2.4255243084	 0.195495
C	-0.0604671183	 0.1199513201	-3.5734774886	-0.408719
H	 0.8840533475	 1.8856672735	 0.624543357	 0.132026
H	-0.0262330635	 1.957837726	-0.900510134	 0.142679
H	-0.8731529636	 1.8676576565	 0.6596912467	 0.132017
H	-0.8607650928	-2.7487994972	-1.1786131601	 0.145357
H	 0.8938675056	-2.7305760666	-1.2132803075	 0.145414
H	 0.9324910687	-0.6548558131	 1.8890461311	 0.140248
H	-0.8191423257	-0.6728231993	 1.9239110006	 0.14019
H	-0.0850781453	 0.4526226915	-4.5815010966	 0.192959
62.3688	139.2519	143.5088	167.7836	238.1304	285.8507	398.8966	441.5245	477.1114	502.7235	538.2943	572.7779	602.318	608.3789	646.5622	754.1846	801.8587	825.1431	948.614	953.591	1052.9853	1057.8578	1133.4446	1166.4679	1178.8816	1182.3819	1221.3901	1285.581	1346.3918	1414.7458	1436.8451	1445.8526	1479.3895	1480.9091	1680.1231	1856.4668	2217.5875	3015.2665	3020.1195	3035.6383	3042.2517	3064.1492	3066.1954	3127.7087	3502.5237
CC1=C(CC(=O)C1)C#C	CC1=C(CC(=O)C1)C#C	
InChI=1S/C8H8O/c1-3-7-5-8(9)4-6(7)2/h1H,4-5H2,2H3	InChI=1S/C8H8O/c1-3-7-5-8(9)4-6(7)2/h1H,4-5H2,2H3
