16
gdb 67358	3.00281	1.96444	1.38493	2.0035	69.77	-0.2595	0.0129	0.2724	908.2297	0.126087	-437.854428	-437.847744	-437.846799	-437.885163	27.521	
O	 0.0504254323	 1.3998144898	-0.0140650304	-0.49172
C	 0.0053320213	 0.0292240615	-0.0046303434	 0.349683
C	 0.1010641424	-0.8333681866	 1.3174781272	-0.130073
C	-1.3944837522	-0.5395688999	 1.5942712535	-0.276525
C	-1.3428173822	-0.7946270048	 0.0672276885	-0.130106
C	-0.3291009224	-1.9387118627	 0.3205218725	 0.100525
O	 0.6182222139	-2.0089510791	-0.7757114344	-0.25477
C	 0.8554936231	-0.6887248167	-1.0088230341	 0.375997
N	 1.604304155	-0.1323709767	-1.8565551531	-0.592081
H	 0.6688067001	 1.6394650265	-0.7216595544	 0.302369
H	 0.9362286716	-0.8655086329	 2.017131721	 0.089961
H	-1.93731506	-1.2718149744	 2.1984810129	 0.097419
H	-1.6306596138	 0.4800626702	 1.8986243284	 0.129394
H	-2.1550111258	-0.7825479748	-0.6595754882	 0.089958
H	-0.6285314934	-2.9335818268	 0.6355105291	 0.106863
H	 2.0982800201	-0.8002676526	-2.4479042852	 0.233104
153.6926	270.2024	326.6233	330.6649	409.0887	426.1022	537.4529	608.8122	654.2773	700.397	717.2231	824.9867	847.3153	879.6681	911.5084	912.1751	926.2156	962.0375	994.2214	1028.5867	1044.4794	1072.1375	1104.6431	1109.331	1138.1059	1176.8668	1208.9425	1234.3835	1237.2519	1273.2182	1334.3313	1400.569	1427.2041	1520.1009	1806.8359	3062.8636	3119.6725	3122.2753	3140.9568	3181.9024	3496.9434	3711.3439
OC12C3CC1C3OC2=N	O[C@@]12[C@H]3C[C@@H]1[C@H]3O[C]2[NH]	
InChI=1S/C6H7NO2/c7-5-6(8)2-1-3(6)4(2)9-5/h2-4,7-8H,1H2	InChI=1S/C6H7NO2/c7-5-6(8)2-1-3(6)4(2)9-5/h2-4,7-8H,1H2/t2-,3+,4-,6-
