20
gdb 96706	2.53251	1.03281	0.82431	0.4274	86.88	-0.2465	-0.0216	0.2248	1486.4295	0.166754	-403.12579	-403.114955	-403.114011	-403.161833	38.592	
C	 0.0566961968	 1.4965305509	 0.1317994098	-0.333332
N	 0.0602305062	 0.0501488929	 0.1004974889	-0.313225
C	-1.0239338863	-0.6025206692	 0.0061620422	 0.272038
O	-1.0640646727	-1.9506578253	-0.0465566476	-0.26914
C	 0.1926458603	-2.6726491854	-0.0076859714	 0.156466
C	 0.663855247	-2.8217480805	 1.4358305798	-0.395422
C	-0.0800285703	-4.0050613114	-0.6917277273	-0.393654
C	-2.3553769737	-0.0541081246	-0.0654284864	 0.285966
C	-3.4524667128	 0.4349669535	-0.1204166483	-0.430848
H	 0.6672353291	 1.8750314836	-0.6964786855	 0.12775
H	-0.9402352848	 1.9507427821	 0.066978471	 0.117704
H	 0.5364926317	 1.8375118965	 1.0568209569	 0.127167
H	 0.9269950582	-2.0914501132	-0.5727726605	 0.106284
H	 1.597364988	-3.3926731994	 1.4675247215	 0.114384
H	 0.8450203587	-1.8424916976	 1.8825938916	 0.137296
H	-0.085601158	-3.3535191567	 2.0307650351	 0.118825
H	-0.4286849276	-3.8510578669	-1.7163398488	 0.12338
H	 0.8341952588	-4.6052886223	-0.7225913235	 0.116693
H	-0.8448322189	-4.5694944364	-0.1491386907	 0.124547
H	-4.4261931598	 0.8572651594	-0.1696225467	 0.207122
66.0836	81.6571	118.0231	132.1501	179.6746	211.8199	243.4345	251.5523	286.9008	317.9093	355.3955	412.9056	459.3961	532.9488	640.2713	649.8341	658.6231	724.8246	792.0601	850.6501	932.0417	948.2085	951.3126	1101.7416	1135.0706	1144.3068	1157.4312	1164.84	1205.4621	1285.948	1359.68	1384.5761	1399.5143	1416.4051	1444.0437	1480.3115	1485.9301	1489.2435	1495.1533	1498.9913	1511.8855	1711.4948	2229.9758	3006.7949	3040.2236	3044.4171	3071.2255	3071.8467	3075.1293	3108.5805	3119.5402	3122.0315	3138.4506	3498.4559
CN=C(OC(C)C)C#C	CN=C(OC(C)C)C#C	
InChI=1S/C7H11NO/c1-5-7(8-4)9-6(2)3/h1,6H,2-4H3	InChI=1S/C7H11NO/c1-5-7(8-4)9-6(2)3/h1,6H,2-4H3
