15
gdb 24634	4.51517	1.31948	1.10431	3.6501	73.22	-0.2259	0.0227	0.2485	1052.32	0.114793	-416.776311	-416.769555	-416.76861	-416.807721	25.847	
C	 0.1352584609	 1.5463280748	-0.0322769531	-0.25362
O	 1.2642608876	 0.6543021206	-0.0504900648	-0.252775
C	-0.0254534738	 0.0936247288	 0.0096107581	 0.247339
C	-0.5130039651	-0.8335359029	 1.1694250697	-0.2529
N	-1.0546345292	-1.6932090346	 0.0886031562	-0.026921
C	-1.7466837593	-2.7356769937	-0.4335420045	-0.021083
N	-1.7535954911	-2.6446394641	-1.7551761209	-0.261849
C	-1.0605910628	-1.5043080933	-2.0988539235	-0.232242
C	-0.6202816021	-0.9032342938	-0.9441204321	 0.258299
H	 0.0184355997	 2.1322333706	 0.878314874	 0.123711
H	-0.052460783	 2.0798379646	-0.9621987953	 0.130887
H	 0.2899663372	-1.3010830333	 1.743432149	 0.147741
H	-1.277449723	-0.4235632171	 1.8334856911	 0.139215
H	-2.2086622987	-3.5166812628	 0.1491125516	 0.137547
H	-0.9288141675	-1.2172838439	-3.1295169955	 0.116651
105.5068	148.4279	246.1867	308.4343	446.224	513.7343	525.2878	659.7989	695.5098	742.6148	795.9603	838.6874	842.7648	855.539	911.5739	970.2513	1036.3961	1062.8884	1115.6991	1121.1416	1139.6891	1143.272	1165.9725	1212.5194	1245.6711	1282.2217	1346.9221	1393.6581	1452.5586	1456.03	1505.1415	1528.7398	1578.8414	3068.3741	3086.731	3130.6667	3177.8435	3263.7724	3267.1048
C1OC11CN2C=NC=C12	C1O[C@]21Cn1cncc21	
InChI=1S/C6H6N2O/c1-5-6(3-9-6)2-8(5)4-7-1/h1,4H,2-3H2	InChI=1S/C6H6N2O/c1-5-6(3-9-6)2-8(5)4-7-1/h1,4H,2-3H2/t6-/m0/s1
