19
gdb 35239	3.4027	1.12386	0.96797	5.0717	80.23	-0.2664	0.0157	0.2821	1251.2232	0.161347	-382.077162	-382.068959	-382.068015	-382.110634	31.222	
N	-0.1992105278	-1.1335046969	 0.1340424618	-0.345063
C	-0.112184999	 0.0196815127	 0.1289300527	 0.341012
C	 0.009170324	 1.4557987513	 0.0701344351	-0.265538
N	 0.678666646	 2.1181542178	 1.2104498544	-0.353154
C	 1.3415173903	 2.1270413091	-0.0944558416	 0.35033
C	 2.6638689081	 1.3587545547	-0.2091765735	-0.272164
C	 3.4420684179	 2.0859798853	-1.3230487975	-0.206777
C	 2.9639449367	 3.5447767993	-1.2102654761	-0.206729
C	 1.4538940989	 3.4005191491	-0.9455939885	-0.28796
H	-0.8493498046	 1.9472600042	-0.3816643882	 0.124502
H	 0.2145724365	 3.0056828439	 1.3931338413	 0.237975
H	 3.1890611705	 1.4390604411	 0.748064168	 0.121289
H	 2.514965838	 0.2945833403	-0.4075939915	 0.127849
H	 4.5246806707	 1.9784047261	-1.2203759829	 0.104421
H	 3.1658296433	 1.6816722933	-2.3042302286	 0.105576
H	 3.449715242	 4.0311102167	-0.3559275014	 0.106391
H	 3.1824688549	 4.1445331149	-2.0974907342	 0.102394
H	 0.9221080593	 3.2629935748	-1.894403074	 0.115529
H	 1.0111321044	 4.2705310122	-0.4495310852	 0.100118
42.8222	121.45	143.0651	250.6128	307.8724	372.6849	395.6058	455.9711	547.4009	576.9868	615.7532	716.2345	791.5833	841.9451	868.3951	904.6225	913.5034	919.2374	958.5741	963.6948	1013.5052	1037.2236	1051.1373	1078.5128	1169.6539	1186.8517	1203.7078	1234.1355	1244.0532	1275.1847	1302.2801	1319.8966	1339.5628	1345.9548	1368.4824	1437.003	1481.3441	1487.3213	1493.9566	1510.9118	2356.2812	3033.5087	3035.6028	3041.8428	3057.029	3077.2022	3097.2391	3101.1993	3110.0121	3136.5118	3488.0617
N#CC1NC11CCCC1	N#C[C@H]1NC21CCCC2	
InChI=1S/C7H10N2/c8-5-6-7(9-6)3-1-2-4-7/h6,9H,1-4H2	InChI=1S/C7H10N2/c8-5-6-7(9-6)3-1-2-4-7/h6,9H,1-4H2/t6-/m1/s1
