16
gdb 29673	2.35739	1.98589	1.08515	4.9907	75.05	-0.227	-0.0299	0.1971	1050.4318	0.126819	-434.136462	-434.128502	-434.127557	-434.16894	30.063	
C	-0.0495705577	 1.4107760384	 0.2219203385	-0.333184
N	-0.0091252344	-0.0383893597	 0.0298148301	-0.199273
C	-1.2363761616	-0.6883983489	-0.0331403956	 0.484603
N	-2.3241737418	-0.0246622178	 0.074655199	-0.572185
N	-1.1488598226	-2.0705052921	-0.2170918591	-0.395019
C	 0.0340556898	-2.7492357653	-0.3289414633	 0.036001
C	 1.2129028046	-2.1095387867	-0.2666890241	-0.258125
C	 1.253841361	-0.6651769202	-0.0768461423	 0.444313
O	 2.2831458367	-0.0192032829	-0.0109661667	-0.387597
H	 0.9802399842	 1.7583026362	 0.249918365	 0.162683
H	-0.5984772056	 1.8806581766	-0.5972966255	 0.142865
H	-0.5682469445	 1.6492808361	 1.153170052	 0.142941
H	-3.140631338	-0.6284889605	 0.0102530061	 0.205308
H	-2.019965216	-2.5707723405	-0.2669026639	 0.262541
H	-0.0562065905	-3.8202647672	-0.468608019	 0.13895
H	 2.1562671562	-2.6270532254	-0.3527545813	 0.125177
101.876	146.511	157.0679	225.9594	364.9089	385.8288	407.5874	487.1296	506.72	537.771	577.1036	701.4859	712.3527	741.3003	753.9548	817.2417	863.342	962.9164	980.0303	1074.0769	1095.0843	1161.2745	1175.0733	1200.0649	1243.0401	1306.5008	1406.5865	1415.417	1466.8802	1490.6644	1493.8532	1508.0978	1688.7861	1720.3191	1777.3735	3064.093	3124.8466	3190.6063	3202.9928	3255.482	3509.3945	3665.3676
CN1C(=N)NC=CC1=O	CN1[C]([NH])NC=CC1=O	
InChI=1S/C5H7N3O/c1-8-4(9)2-3-7-5(8)6/h2-3H,1H3,(H2,6,7)	InChI=1S/C5H7N3O/c1-8-4(9)2-3-7-5(8)6/h2-3H,1H3,(H2,6,7)
