19
gdb 122361	2.66204	1.22416	1.02213	2.413	68.12	-0.2331	0.0477	0.2808	1218.4157	0.158076	-497.251396	-497.242177	-497.241233	-497.285742	34.475	
O	-1.2490574277	 1.6107443188	-0.0499248804	-0.429971
C	-0.5172229977	 0.4158919134	-0.1490939048	-0.063232
C	-1.3735316527	-0.8450187079	-0.0772388861	-0.077902
O	-2.1389309464	-1.0749114551	-1.2687518494	-0.279051
C	-3.4679451056	-0.6705337585	-1.2509826284	 0.026015
C	-3.8733488704	 0.6795551676	-1.8323724979	 0.039646
O	-2.8924945076	 1.5482799087	-2.3115447426	-0.417801
C	-4.0714376675	-0.5932919785	-2.6327873642	 0.00775
O	-3.1717680035	-0.7294717105	-3.6994514809	-0.432494
H	-1.7284735466	 1.735860929	-0.8854578215	 0.306913
H	 0.0900641554	 0.3728127669	-1.0684207443	 0.084003
H	 0.1800155747	 0.3903285229	 0.6988125449	 0.101351
H	-0.7251531854	-1.7223624151	 0.0352482665	 0.102577
H	-2.0434522831	-0.789963489	 0.7896205694	 0.107223
H	-4.0691117843	-1.0776944249	-0.4383214508	 0.099548
H	-4.7266491873	 1.1948257601	-1.4028535837	 0.112666
H	-2.5764467037	 1.1486154657	-3.1392947205	 0.29706
H	-5.0620042615	-0.9875250937	-2.8380671769	 0.108287
H	-2.414967219	-1.2264073801	-3.3566266085	 0.307414
52.7456	109.5778	151.0037	169.0648	247.2826	292.1641	310.5505	356.0875	375.9206	484.001	571.0264	610.1673	636.5002	695.5892	721.6761	752.7324	789.1308	850.6731	912.2741	947.1	1033.6439	1060.7384	1083.7253	1093.2209	1112.2948	1133.5182	1153.1968	1165.5802	1230.058	1253.8597	1312.131	1323.0966	1337.8655	1370.1964	1391.0509	1411.3787	1413.0173	1452.0181	1467.4557	1480.9468	1487.894	2970.8129	3019.1804	3046.4343	3076.3685	3105.3397	3150.7817	3164.59	3643.6615	3671.5614	3736.3637
OCCOC1C(O)C1O	OCCO[C@H]1[C@@H](O)[C@H]1O	
InChI=1S/C5H10O4/c6-1-2-9-5-3(7)4(5)8/h3-8H,1-2H2	InChI=1S/C5H10O4/c6-1-2-9-5-3(7)4(5)8/h3-8H,1-2H2/t3-,4+,5-
