14
gdb 25519	5.32511	1.00762	0.85235	4.7478	73.31	-0.2607	-0.0421	0.2185	1258.162	0.10249	-436.770857	-436.763615	-436.762671	-436.80336	26.242	
O	 0.0309511746	-0.0437927219	 0.1147620072	-0.258334
C	-0.0011391041	 1.1335043528	-0.0632987212	 0.165624
O	 1.0737947721	 1.919546625	 0.2614077836	-0.234114
C	 0.9785815182	 3.2871239408	 0.1518685608	 0.468601
N	-0.2126588744	 3.8551455292	 0.2203336406	-0.33764
C	-0.2599204035	 5.1911221436	 0.1341257662	 0.002588
C	 0.866986235	 5.9891674838	-0.0014309404	-0.129899
C	 2.1134144186	 5.3636733093	-0.0608329675	-0.063576
C	 2.1812520305	 3.9814119447	 0.0113322983	-0.219831
H	-0.8318607622	 1.7070615076	-0.492968272	 0.127989
H	-1.2512012591	 5.6329432867	 0.1879103118	 0.122119
H	 0.7730126598	 7.0670270598	-0.0548101456	 0.110766
H	 3.0211586524	 5.9481658534	-0.1658770088	 0.120208
H	 3.1159779421	 3.437520725	-0.0357473129	 0.125498
70.1744	106.7904	177.7251	261.6046	405.8253	425.6102	504.0601	541.9316	628.0081	697.972	766.2506	809.0345	904.2967	912.1918	984.0528	1006.9957	1008.2356	1042.8034	1063.1313	1095.6938	1126.9532	1170.0043	1280.308	1316.9928	1327.9224	1403.0551	1465.8958	1503.1335	1620.3727	1634.6761	1868.3015	3074.3613	3166.0384	3188.1797	3210.1948	3219.2925
O=COC1=NC=CC=C1	O=COc1ncccc1	
InChI=1S/C6H5NO2/c8-5-9-6-3-1-2-4-7-6/h1-5H	InChI=1S/C6H5NO2/c8-5-9-6-3-1-2-4-7-6/h1-5H
