16
gdb 123371	3.61772	1.03578	0.91962	2.5159	75.9	-0.1953	0.0254	0.2207	1267.3192	0.12561	-396.893846	-396.885453	-396.884509	-396.928012	31.018	
C	 0.1032340065	-0.0576022727	-1.2471583776	-0.459879
C	 0.0369986858	 0.5890032279	-0.2358468944	 0.315609
C	-0.0008614169	 1.369853949	 1.0074479119	-0.330776
N	 1.2023793521	 2.1397871948	 1.3065342642	-0.387513
C	 1.5287714208	 3.2019450736	 0.4474876483	 0.24421
C	 2.7226451879	 3.9010526819	 0.4069395775	-0.142749
N	 2.5525168815	 4.8823490345	-0.521074197	-0.173911
N	 1.3400202147	 4.8769549629	-1.0852023069	-0.22868
C	 0.7089838942	 3.8551640482	-0.5057902536	-0.060986
H	 0.1551938138	-0.6209582133	-2.145901758	 0.20067
H	-0.8516814345	 2.0607398761	 0.9848040891	 0.148138
H	-0.1816715515	 0.6962902184	 1.8525880662	 0.1368
H	 1.9924678639	 1.531767583	 1.4780740474	 0.235395
H	 3.6437603297	 3.7799734329	 0.9536614758	 0.122371
H	 3.2227301762	 5.5740190731	-0.8085900311	 0.272932
H	-0.3013426844	 3.6168229698	-0.7997913719	 0.108367
32.9833	63.9968	183.6272	219.4944	308.1743	349.2859	399.7178	472.1917	581.2315	606.8949	624.6141	652.9769	661.7362	690.9965	708.1276	747.0218	844.6853	922.5765	946.7742	980.2509	1026.8189	1069.0043	1114.2488	1172.4256	1244.2834	1288.3692	1324.6927	1368.5626	1395.4241	1409.2926	1467.9136	1497.4529	1518.8755	1630.6903	2230.3903	3037.3879	3070.4982	3256.7044	3263.5582	3504.8823	3565.4079	3682.1437
C#CCNC1=CNN=C1	C#CCNc1c[nH]nc1	
InChI=1S/C6H7N3/c1-2-3-7-6-4-8-9-5-6/h1,4-5,7H,3H2,(H,8,9)	InChI=1S/C6H7N3/c1-2-3-7-6-4-8-9-5-6/h1,4-5,7H,3H2,(H,8,9)
