13
gdb 130994	7.5009	0.77729	0.70743	0.4855	60.85	-0.2775	-0.0542	0.2232	1454.6475	0.087918	-489.873426	-489.865468	-489.864524	-489.907867	26.494	
O	-0.1727998856	 0.2043321434	 0.5317698278	-0.223041
C	 0.0638385811	 1.1334793866	-0.1892692288	 0.139953
C	 1.3885994508	 1.8782456574	-0.1460385214	-0.171234
O	 1.3183113946	 2.9153648164	-1.1337235411	-0.2568
C	 2.3659334838	 3.700613749	-1.2793174146	 0.547652
N	 2.4648155209	 4.6830562772	-2.1244348221	-0.363591
C	 3.7284623965	 5.1320762161	-1.8440568864	 0.061499
N	 4.37860064	 4.4969401328	-0.9071701152	-0.126973
O	 3.4419102383	 3.5048511249	-0.5115051785	-0.215809
H	-0.6565990198	 1.5224387181	-0.9396235936	 0.116587
H	 1.5486541076	 2.3010376294	 0.8519402883	 0.168396
H	 2.2129983083	 1.1897902183	-0.3622095203	 0.168397
H	 4.1836024236	 5.9664362004	-2.3587605841	 0.154966
44.5797	59.8883	110.8734	120.2502	301.4596	309.5464	411.4005	581.9019	639.7095	729.1374	767.0448	767.6455	886.3079	942.6557	972.2212	1007.9528	1048.6641	1087.2456	1105.1357	1216.8477	1238.5138	1282.1154	1343.6083	1359.0795	1408.5381	1466.5319	1555.2346	1657.4701	1851.5158	2921.062	3045.5631	3095.1525	3256.8561
O=CCOC1=NC=NO1	O=CCOc1ncno1	
InChI=1S/C4H4N2O3/c7-1-2-8-4-5-3-6-9-4/h1,3H,2H2	InChI=1S/C4H4N2O3/c7-1-2-8-4-5-3-6-9-4/h1,3H,2H2
