21
gdb 110866	2.16316	1.40364	1.20461	1.2038	79.03	-0.2356	0.0796	0.3152	1190.9339	0.180481	-424.183028	-424.173257	-424.172312	-424.21727	36.339	
C	-0.0125087066	 1.1689649159	-0.4896752364	-0.237083
O	-0.097554214	 0.10063718	 0.4340217772	-0.238167
C	-1.2971333546	-0.6050860395	 0.3277975068	 0.050206
C	-1.5546508828	-1.6519172992	-0.7270849245	-0.174965
C	-0.262145138	-2.4267906545	-1.0154833932	-0.253664
C	-0.2059398994	-2.8934133816	 0.4789425193	-0.015797
C	 1.069049537	-2.7184207643	 1.2957540766	-0.425134
C	-1.4346438384	-2.0204422571	 0.7715723094	 0.314164
O	-2.4464937246	-2.4151509487	 1.634602945	-0.464065
H	 0.9591240395	 1.6463846215	-0.3436502505	 0.126722
H	-0.0909219974	 0.8149260988	-1.5271650471	 0.114045
H	-0.8047419659	 1.9135189047	-0.3179774863	 0.106162
H	-2.1818951409	-0.006182306	 0.5595999141	 0.084547
H	-2.4317975527	-1.6186288559	-1.3622094315	 0.090571
H	-0.3921530028	-3.2502298064	-1.7199112542	 0.101177
H	 0.5813293724	-1.811439433	-1.3406191505	 0.101319
H	-0.5388957148	-3.9357314806	 0.5273959487	 0.081104
H	 1.4258675306	-1.6875413424	 1.2486863095	 0.138299
H	 0.8957591277	-2.9735221127	 2.347877389	 0.10591
H	 1.8618210372	-3.3791315845	 0.927076234	 0.107654
H	-2.3150818314	-1.9715802845	 2.4795479346	 0.286993
93.7513	133.6474	161.3237	176.3831	212.2615	217.3566	248.5256	275.1005	311.5295	392.7216	412.8082	559.5492	577.8316	645.6565	739.445	799.7227	854.442	871.7911	904.9122	962.2768	988.382	1028.1892	1043.9048	1087.0551	1114.3962	1128.7404	1147.8985	1181.5073	1182.934	1210.2051	1230.4787	1238.7149	1249.9252	1295.4975	1326.3275	1334.4173	1377.3352	1403.4811	1450.0562	1481.8302	1485.5744	1492.9789	1502.3261	1506.5053	1511.2534	2983.6846	3028.2802	3036.9672	3048.2787	3062.4696	3074.059	3083.9251	3116.4023	3119.1836	3134.3269	3183.6408	3799.6533
COC1C2CC(C)C12O	CO[C@H]1[C@H]2C[C@@H](C)[C@@]12O	
InChI=1S/C7H12O2/c1-4-3-5-6(9-2)7(4,5)8/h4-6,8H,3H2,1-2H3	InChI=1S/C7H12O2/c1-4-3-5-6(9-2)7(4,5)8/h4-6,8H,3H2,1-2H3/t4-,5-,6+,7+/m1/s1
