20
gdb 59623	2.98533	1.12332	0.93751	4.3609	76.27	-0.2534	0.0328	0.2862	1302.1195	0.17118	-440.308394	-440.299266	-440.298322	-440.342678	34.201	
C	 0.1789863229	 1.3826772781	-0.1709499013	-0.411078
C	-0.1122391925	-0.1169508344	-0.1018497102	 0.131751
O	 0.7352178584	-0.7452529037	 0.8551732768	-0.425487
C	-1.5994648086	-0.4266481028	 0.1814378313	-0.047903
C	-2.5170420393	-0.1082494953	-1.0152109126	-0.098834
O	-2.57803012	-1.310229246	-1.7960034408	-0.238753
C	-2.2528754625	-2.3979330709	-1.0279711758	 0.417446
N	-2.2833597307	-3.5922918082	-1.4335378601	-0.542299
C	-1.8580230285	-1.9335686302	 0.3563394326	-0.32224
H	 1.2431617765	 1.5467766307	-0.3581632936	 0.132567
H	-0.3877138103	 1.8803844532	-0.9631610435	 0.121115
H	-0.0806341446	 1.868556453	 0.7785469929	 0.10795
H	 0.163293189	-0.585000702	-1.0554378848	 0.104503
H	 0.5986260293	-0.3074890332	 1.7032580584	 0.277322
H	-1.9096328081	 0.1439939236	 1.0645033903	 0.068251
H	-3.5292915863	 0.1580959738	-0.6858859161	 0.109903
H	-2.1472928007	 0.6872834149	-1.6664665731	 0.116522
H	-2.6036948507	-3.6322141619	-2.4028006113	 0.219718
H	-0.9883903666	-2.4744598817	 0.7275308032	 0.155244
H	-2.6903090267	-2.1192330571	 1.0439417077	 0.124304
64.8902	73.8115	141.4593	235.2453	238.3916	298.5156	320.0628	358.2735	427.2605	465.8857	485.8329	530.4604	681.8049	746.766	805.3785	859.8188	893.6633	910.4373	915.9926	961.9749	986.0634	1009.0546	1060.3521	1077.1793	1108.9479	1119.676	1138.5674	1195.785	1235.6011	1250.7947	1279.0825	1291.2731	1327.2041	1328.3148	1396.8556	1400.8316	1412.4343	1421.6428	1474.1942	1491.4082	1497.4236	1522.5581	1780.2547	3021.6954	3024.4969	3032.9189	3047.0522	3059.5574	3094.6042	3104.0225	3124.4967	3146.4708	3470.1729	3792.3974
CC(O)C1COC(=N)C1	C[C@@H](O)[C@H]1CO[C]([NH])C1	
InChI=1S/C6H11NO2/c1-4(8)5-2-6(7)9-3-5/h4-5,7-8H,2-3H2,1H3	InChI=1S/C6H11NO2/c1-4(8)5-2-6(7)9-3-5/h4-5,7-8H,2-3H2,1H3/t4-,5-/m1/s1
