22
gdb 111683	2.35486	1.36319	1.18011	2.0994	81.17	-0.2178	0.065	0.2828	1200.2069	0.195116	-404.325687	-404.316537	-404.315592	-404.359673	34.895	
C	-0.6015639654	 1.5572190852	-0.3493436014	-0.380073
C	-0.178209182	 0.1363288675	 0.0484355315	-0.208205
C	 0.5269712262	-0.5793747989	-1.0863862455	 0.030517
C	 0.6968719146	-2.0483059742	-1.2504111518	-0.071115
C	-0.1517841362	-3.0125977356	-0.4385349392	 0.111666
O	 0.1724179621	-2.8961963023	 0.9432921914	-0.431187
C	-1.6221414697	-2.6451490227	-0.7802711663	-0.277169
C	-1.5393292185	-1.6810026968	-1.989319371	-0.158858
N	-0.1311326043	-1.2845478673	-2.206811682	-0.125424
H	 0.2618498792	 2.1495030023	-0.6717313112	 0.116094
H	-1.3169729267	 1.5451149514	-1.1782127721	 0.121529
H	-1.0687764889	 2.079222037	 0.491471642	 0.109899
H	 0.5183822479	 0.1834087654	 0.8941115536	 0.110815
H	-1.0413394895	-0.4225200894	 0.4122112873	 0.103012
H	 1.3653711279	 0.0104376228	-1.4610167507	 0.084824
H	 1.6428078298	-2.4304138007	-1.6259103646	 0.083763
H	 0.0686033529	-4.0345115734	-0.7802758336	 0.070533
H	-0.2945779894	-3.591507549	 1.4173361609	 0.282963
H	-2.2145627587	-3.533509043	-1.0179376779	 0.09756
H	-2.0806503085	-2.1783597386	 0.0953022409	 0.112946
H	-1.8699502084	-2.1796399062	-2.9060236693	 0.107402
H	-2.1700374045	-0.7952059836	-1.8628680111	 0.108508
76.1035	90.989	148.0404	193.3124	242.9562	258.134	294.9817	365.2496	435.2373	492.2064	556.6398	687.3292	697.5554	719.5936	751.2152	803.5195	854.6297	865.9637	916.8525	959.9119	980.9519	1028.6241	1048.5263	1052.4175	1068.6585	1116.3374	1130.6079	1156.2745	1179.7102	1211.2901	1235.2776	1250.3935	1276.2449	1287.0434	1310.4928	1336.5437	1339.7623	1354.2689	1393.0521	1410.1694	1434.5371	1451.6448	1474.9297	1492.4848	1496.9313	1506.4573	1512.694	2985.5787	3032.374	3042.2379	3043.2848	3058.2958	3075.1932	3081.4846	3093.1227	3103.5813	3105.7092	3127.7151	3134.7312	3815.7786
CCC1C2C(O)CCN12	CC[C@H]1[C@H]2[C@@H](O)CCN12	
InChI=1S/C7H13NO/c1-2-5-7-6(9)3-4-8(5)7/h5-7,9H,2-4H2,1H3	InChI=1S/C7H13NO/c1-2-5-7-6(9)3-4-8(5)7/h5-7,9H,2-4H2,1H3/t5-,6-,7-,8?/m0/s1
