20
gdb 115548	2.36436	1.20776	1.06142	4.4888	80.24	-0.2647	0.0331	0.2978	1264.0373	0.169675	-403.149408	-403.139689	-403.138745	-403.184057	35.311	
C	-0.3909269287	 1.550687422	-0.0225449708	-0.244082
O	-0.395787558	 0.273690349	 0.5827421992	-0.239097
C	-1.2934795188	-0.6177389396	-0.0033640323	 0.13925
C	-0.91932015	-1.3262004257	-1.3354203169	-0.275356
C	-1.4544367592	-2.6505623572	-0.729415939	-0.257947
C	-1.3529907987	-2.0149558775	 0.7019887298	 0.101698
C	-0.0542184065	-2.3824396605	 1.4337687482	-0.432812
C	-2.509264903	-2.2207977271	 1.5670318432	 0.233502
N	-3.4386139373	-2.3821742761	 2.2363749595	-0.349183
H	 0.3200942209	 2.1668716343	 0.5317117263	 0.134814
H	-0.0763112227	 1.5047602397	-1.075279057	 0.11285
H	-1.3846958838	 2.0210701813	 0.0236450335	 0.114673
H	-2.2992601175	-0.1762992065	-0.0648053762	 0.08581
H	-1.3935670574	-0.965368636	-2.2493121264	 0.108981
H	 0.1642401977	-1.3426501945	-1.4767218882	 0.117826
H	-2.4880956071	-2.8553273369	-1.0128362175	 0.126984
H	-0.8588586875	-3.5523202043	-0.8813552448	 0.117574
H	 0.805742015	-2.2503373004	 0.7732666763	 0.126674
H	 0.09124012	-1.7454912393	 2.3082894838	 0.147521
H	-0.0895670775	-3.4261055848	 1.7580780594	 0.130323
69.3	108.7749	157.8674	168.0656	193.9815	215.5403	239.0921	309.9364	344.0661	400.7853	476.9504	538.2427	589.1277	599.9572	737.7697	800.3607	897.0879	923.6523	935.6994	967.3402	982.3429	1039.6895	1106.3523	1145.4711	1158.3328	1182.7283	1185.7204	1209.1049	1230.6213	1245.918	1263.0995	1264.2911	1318.1278	1392.2002	1414.4429	1477.806	1482.0854	1487.5658	1489.3979	1496.4243	1498.4504	1509.2612	2348.3691	2983.0554	2994.9404	3034.956	3053.3543	3072.4628	3080.3517	3123.7681	3124.3459	3128.1766	3139.3339	3142.4478
COC1CCC1(C)C#N	CO[C@H]1CC[C@]1(C)C#N	
InChI=1S/C7H11NO/c1-7(5-8)4-3-6(7)9-2/h6H,3-4H2,1-2H3	InChI=1S/C7H11NO/c1-7(5-8)4-3-6(7)9-2/h6H,3-4H2,1-2H3/t6-,7+/m0/s1
