19
gdb 56235	3.75277	0.85007	0.73629	5.6154	73.43	-0.2281	0.0133	0.2414	1532.0746	0.158581	-456.420987	-456.410625	-456.409681	-456.458317	36.163	
C	-0.5628346568	 1.1180636951	-0.3419988758	-0.478432
C	-0.4859266696	-0.3644962709	-0.6566864107	 0.411058
O	-1.448111264	-0.9702660075	-1.1159884757	-0.380296
N	 0.6992133626	-0.9706582585	-0.3967300729	-0.29556
C	 0.9155425753	-2.3929707049	-0.6384521839	-0.189219
C	 1.1729371553	-2.767373662	-2.1243762289	-0.289028
C	 0.2099059683	-3.8099675513	-2.7104048352	 0.359926
N	-1.1055418238	-3.5243809558	-2.5305087313	-0.515757
O	 0.6143552112	-4.7972486556	-3.2974092613	-0.367192
H	-0.7728434464	 1.6642660298	-1.2656154261	 0.158115
H	-1.4038019975	 1.2878124042	 0.3349515701	 0.159525
H	 0.3471958687	 1.519325346	 0.110678494	 0.116215
H	 1.4674589392	-0.414008122	-0.0625551767	 0.252493
H	 1.7660206911	-2.6956237193	-0.0236895733	 0.118706
H	 0.0384455191	-2.9266924513	-0.2646089395	 0.145412
H	 1.1007251483	-1.8607424113	-2.7347324594	 0.125578
H	 2.1769381903	-3.1721100162	-2.2594362737	 0.125918
H	-1.4107146018	-2.6668617013	-2.0807098382	 0.29146
H	-1.7797324395	-4.1570360373	-2.9281468417	 0.251078
27.9859	53.4696	58.9052	103.9547	131.8564	217.007	298.1401	337.2589	426.7739	428.5125	445.1713	458.3802	550.412	618.0574	646.9441	654.089	742.7138	775.8545	879.9874	933.9168	998.5206	1011.3536	1052.4102	1055.5855	1104.5909	1145.9667	1214.1996	1272.0862	1306.5606	1331.4546	1364.2724	1398.9867	1405.8866	1468.9448	1470.449	1483.8319	1486.6541	1546.9738	1645.1093	1748.1316	1797.1135	3052.7562	3056.8361	3072.7233	3113.8836	3128.9692	3130.2149	3134.5225	3474.4517	3657.463	3688.545
CC(=O)NCCC(N)=O	CC(=O)NCCC(=O)N	
InChI=1S/C5H10N2O2/c1-4(8)7-3-2-5(6)9/h2-3H2,1H3,(H2,6,9)(H,7,8)	InChI=1S/C5H10N2O2/c1-4(8)7-3-2-5(6)9/h2-3H2,1H3,(H2,6,9)(H,7,8)
