17
gdb 36186	4.20938	1.21104	1.07569	1.3485	76.34	-0.2315	0.0462	0.2777	1128.5599	0.134986	-384.586219	-384.578571	-384.577626	-384.618608	30.041	
C	-0.8199340951	-0.1705966034	-1.1244903714	-0.445861
C	-0.1435225931	 0.2749259529	-0.2370542389	 0.297696
C	 0.6814752746	 0.8298383475	 0.8293379078	-0.485891
C	 1.7276579033	 1.7800708319	 0.3193532088	 0.493407
O	 2.5267831745	 2.4690991255	 1.2832521019	-0.334695
C	 2.9605851074	 3.3234452103	 0.1836920226	 0.061925
C	 3.8617790742	 2.3892983784	-0.6637992546	-0.237059
C	 2.5660626531	 1.6353383093	-0.9648120576	-0.151568
C	 1.7214689183	 2.881955418	-0.6820605613	-0.188974
H	-1.4228605015	-0.5711806263	-1.9013832268	 0.199741
H	 0.0497570767	 1.3578609799	 1.5551529678	 0.145498
H	 1.1771602963	 0.0195582297	 1.3809680408	 0.14559
H	 3.2516037983	 4.3225122295	 0.5003189021	 0.087608
H	 4.2441393758	 2.8940393001	-1.5547992407	 0.104742
H	 4.6703886028	 1.879728287	-0.1303172715	 0.100765
H	 2.3753561629	 0.8593973296	-1.6939655285	 0.103183
H	 0.9477670414	 3.3936980102	-1.2363953004	 0.103892
65.5935	110.1574	237.694	294.2377	343.2355	427.2137	470.3063	555.73	623.6831	641.6143	663.0936	757.8184	784.3561	791.2425	837.3594	881.3229	910.3785	928.4783	954.6494	966.77	999.7266	1013.8745	1033.8134	1076.2098	1095.1473	1118.9216	1156.5944	1170.4236	1220.8599	1246.2429	1273.5405	1287.2149	1358.6128	1442.0806	1476.0474	1487.2632	2243.4916	3016.5789	3048.3095	3048.6888	3111.8721	3147.492	3209.032	3219.3507	3505.6194
C#CCC12OC3CC1C23	C#CC[C@@]12O[C@H]3C[C@@H]1[C@@H]23	
InChI=1S/C8H8O/c1-2-3-8-5-4-6(9-8)7(5)8/h1,5-7H,3-4H2	InChI=1S/C8H8O/c1-2-3-8-5-4-6(9-8)7(5)8/h1,5-7H,3-4H2/t5-,6+,7-,8-/m1/s1
