20
gdb 120693	2.37902	1.28942	0.90648	5.0291	77.91	-0.2406	0.0008	0.2414	1319.6466	0.169395	-440.289516	-440.279716	-440.278772	-440.324986	35.09	
C	 0.1295625682	 1.0176836307	-0.4523435738	-0.470306
C	-0.0207934987	-0.4792739908	-0.2761486954	 0.386471
O	 0.8476090726	-1.267697282	-0.6129441574	-0.35944
N	-1.1678691878	-0.8724118563	 0.3626719725	-0.064821
C	-2.5516501615	-0.5148689284	 0.2007309744	-0.272035
C	-2.0975121028	-1.9574092659	 0.1709524671	-0.000512
C	-2.1825433661	-2.7789089387	-1.1010402632	-0.241491
C	-1.2578484325	-4.0114111447	-1.1389340345	-0.044642
O	 0.0503166601	-3.7477321057	-1.5663376888	-0.429927
H	 1.1850277248	 1.2554619161	-0.58441932	 0.154554
H	-0.411246451	 1.3357781763	-1.3511352291	 0.146041
H	-0.2819232562	 1.5671986722	 0.3974967489	 0.140648
H	-3.0590516805	-0.1162605127	 1.0762862617	 0.127945
H	-2.8554652699	-0.0742166829	-0.747185491	 0.129263
H	-2.2723490176	-2.5349558771	 1.0793869645	 0.109162
H	-3.2233386765	-3.1212768439	-1.1784497527	 0.106348
H	-1.9796994972	-2.156251825	-1.9800405966	 0.107176
H	-1.2853494814	-4.5019389721	-0.1476387225	 0.072303
H	-1.6738056954	-4.7323598237	-1.8524933497	 0.097917
H	 0.4066645496	-2.9852922152	-1.0772782145	 0.305346
55.1579	85.8056	95.5125	135.572	189.3452	195.1789	255.5522	355.3109	373.6224	449.2744	496.5975	581.9202	614.0992	651.4422	684.5646	772.4426	888.3273	936.7861	954.4691	993.8386	1023.4757	1049.6887	1080.5616	1087.6392	1120.4568	1131.4218	1149.8662	1174.4969	1213.3739	1237.9949	1267.5382	1341.4939	1384.3098	1406.1054	1408.1882	1456.5416	1461.5406	1469.9442	1477.2325	1486.0611	1512.949	1520.473	1752.1218	2926.06	3017.6348	3046.0316	3051.088	3071.7009	3093.1353	3105.184	3115.492	3162.7914	3180.4291	3607.9675
CC(=O)N1CC1CCO	CC(=O)N1C[C@H]1CCO	
InChI=1S/C6H11NO2/c1-5(9)7-4-6(7)2-3-8/h6,8H,2-4H2,1H3	InChI=1S/C6H11NO2/c1-5(9)7-4-6(7)2-3-8/h6,8H,2-4H2,1H3/t6-,7?/m1/s1
