18
gdb 106942	3.96259	1.10045	0.98361	4.075	72.44	-0.2364	0.0301	0.2665	1207.4415	0.1489	-439.112277	-439.103868	-439.102924	-439.145455	31.659	
O	-0.0789301722	 1.3701980805	 0.3942866272	-0.421443
C	-0.0043819274	 0.0084619722	-0.0103229195	-0.186485
C	-1.401871355	-0.5383586872	-0.0373050678	 0.367926
C	-2.019319198	-1.1216105241	 1.1995227968	-0.316633
C	-1.704129211	-2.0218817363	 0.0200148863	-0.234845
C	-2.8599114744	-2.2688906554	-0.9168364512	 0.428981
O	-3.3450855128	-3.3340690163	-1.2291764711	-0.387481
N	-3.2742476278	-1.0324946928	-1.3541176051	-0.328686
C	-2.3856186773	 0.0732720909	-1.0385237341	-0.227985
H	 0.7961496315	 1.7595416124	 0.305018216	 0.29031
H	 0.4482338224	-0.0792677938	-1.0113704711	 0.091414
H	 0.6107289421	-0.5861061511	 0.6834985777	 0.08995
H	-1.3784144093	-1.2201731273	 2.069060585	 0.121571
H	-3.0601185488	-0.9113398922	 1.4235534227	 0.12572
H	-0.9499993973	-2.7930116176	 0.1076339614	 0.107186
H	-4.0344491643	-0.9601881453	-2.0105762589	 0.25056
H	-2.927516797	 0.9248816004	-0.6126313971	 0.12368
H	-1.8494161134	 0.4302993328	-1.9294363772	 0.106261
80.4346	115.3843	156.0038	235.6641	268.537	349.6804	372.3398	380.4799	469.4345	503.769	621.9402	684.3336	735.6563	774.2839	829.1022	908.1223	947.8442	957.2085	980.2968	1032.7658	1046.327	1069.4427	1076.5514	1085.1799	1103.502	1208.7715	1214.7967	1229.5845	1251.2042	1259.1594	1333.8167	1349.725	1397.5489	1445.9531	1470.5347	1492.9449	1516.3212	1528.3439	1829.5823	2964.3967	2994.7681	3001.4494	3056.5824	3129.6971	3204.2087	3218.908	3650.4598	3826.5197
OCC12CC1C(=O)NC2	OC[C@]12C[C@H]1C(=O)NC2	
InChI=1S/C6H9NO2/c8-3-6-1-4(6)5(9)7-2-6/h4,8H,1-3H2,(H,7,9)	InChI=1S/C6H9NO2/c8-3-6-1-4(6)5(9)7-2-6/h4,8H,1-3H2,(H,7,9)/t4-,6+/m0/s1
