14
gdb 24183	4.10303	1.7457	1.22465	4.2324	78.79	-0.2106	-0.0564	0.1542	927.3887	0.105774	-395.797619	-395.791789	-395.790845	-395.827692	23.636	
C	-0.0147722107	 1.3517095739	 0.0097389653	-0.008655
N	 1.2136949697	 1.8341434611	 0.0008372368	-0.259571
C	 2.0619585553	 0.7690001797	-0.0132693692	-0.171062
C	 1.3500410004	-0.4177996434	-0.0133331331	 0.364404
N	 1.7019767139	-1.7193926827	-0.0241231494	-0.312982
C	 0.7397536951	-2.6055035592	-0.020066279	-0.02856
C	-0.6510260941	-2.2658884718	-0.0049229787	-0.168245
C	-1.0078299279	-0.9559363392	 0.0059627535	 0.022934
N	-0.0150702262	-0.0132349051	 0.0019396283	-0.077832
H	-0.9277960494	 1.9275159494	 0.0216886812	 0.135208
H	 3.1339142582	 0.8847782554	-0.0227595763	 0.124958
H	 1.0329188432	-3.6525179639	-0.0288393882	 0.117082
H	-1.4078149953	-3.039128666	-0.0021706425	 0.118647
H	-2.0285100821	-0.5930772582	 0.0177218512	 0.143673
206.2383	237.6566	430.2915	432.9289	571.7214	581.2985	640.9092	674.0597	744.609	763.2416	769.7427	796.0025	844.5697	897.5739	929.6642	943.1341	958.2175	1029.9465	1150.6193	1154.0256	1227.506	1251.897	1278.511	1326.4573	1352.4628	1408.4491	1467.3165	1477.727	1529.6574	1578.8985	1663.7127	3158.586	3206.8781	3228.3327	3250.785	3265.7629
C1=NC=C2N=CC=CN12	c1ncc2ncccn12	
InChI=1S/C6H5N3/c1-2-8-6-4-7-5-9(6)3-1/h1-5H	InChI=1S/C6H5N3/c1-2-8-6-4-7-5-9(6)3-1/h1-5H
