22
gdb 82824	2.26944	1.95231	1.46155	1.5091	84.79	-0.1991	0.0844	0.2835	1029.8543	0.195296	-367.160726	-367.152622	-367.151678	-367.192636	33.07	
C	-0.3026761345	 1.5307735594	 0.0502944683	-0.425687
C	 0.0588424122	 0.0569678678	 0.0180028365	 0.032867
N	 1.028020725	-0.4331467239	-1.0330330542	-0.168035
C	 2.3142864892	 0.3472964574	-1.0288270543	-0.175788
C	 2.8343721713	-0.384208202	 0.2203954693	-0.044234
C	 2.1644324937	 0.1222028704	 1.5228264817	-0.287989
C	 0.8482237268	-0.6306487573	 1.165298904	 0.31789
C	 0.0780837078	-1.2893313296	 2.2875248049	-0.502525
C	 1.6323082053	-1.3606258813	 0.0202882817	-0.041238
H	 0.5410625767	 2.1732565612	 0.3154121159	 0.117585
H	-0.67493835	 1.8500181053	-0.9293576252	 0.126834
H	-1.0958604196	 1.7082340021	 0.7844430041	 0.117671
H	-0.8626087473	-0.5177362808	-0.1482326689	 0.073576
H	 2.8796755394	 0.0893500439	-1.9307246678	 0.103614
H	 2.21392073	 1.4369088207	-0.9893744741	 0.095344
H	 3.8852136695	-0.6739128139	 0.2633915593	 0.063692
H	 2.6271792112	-0.339658995	 2.401025468	 0.098111
H	 2.1203318284	 1.2037143097	 1.6895410024	 0.090063
H	-0.3682745045	-0.5380667427	 2.9512342885	 0.1167
H	-0.7344317153	-1.9155866584	 1.9019257029	 0.115147
H	 0.7273799237	-1.9228828882	 2.9023531776	 0.112871
H	 1.6692421209	-2.4340565149	-0.1674545103	 0.06353
174.7883	183.1825	206.8457	232.7825	270.0672	303.3398	400.8632	427.8596	548.7873	560.1154	609.8054	698.474	774.5862	808.1538	837.1421	872.0693	883.8752	910.5236	930.7505	943.7496	969.2432	1006.6849	1030.7898	1050.3784	1103.268	1126.504	1146.0509	1156.3061	1168.8665	1187.9107	1204.7868	1219.7923	1228.4355	1260.4498	1270.8253	1305.9796	1321.1927	1344.441	1392.476	1405.2007	1411.7716	1479.5001	1486.5672	1491.7639	1493.334	1503.5361	1513.9854	2999.7358	3016.2747	3033.3604	3036.0979	3038.9438	3078.0528	3080.7058	3082.8491	3088.2686	3092.0109	3099.0184	3108.0748	3113.7096
CC1N2CC3CC1(C)C23	C[C@H]1N2C[C@H]3C[C@]1(C)[C@@H]23	
InChI=1S/C8H13N/c1-5-8(2)3-6-4-9(5)7(6)8/h5-7H,3-4H2,1-2H3	InChI=1S/C8H13N/c1-5-8(2)3-6-4-9(5)7(6)8/h5-7H,3-4H2,1-2H3/t5-,6-,7+,8+/m1/s1
