21
gdb 78511	2.34493	1.74314	1.16065	1.6872	83.25	-0.248	0.0649	0.3129	1127.0184	0.180986	-387.025974	-387.016989	-387.016045	-387.058944	35.122	
C	-0.0217778067	 1.484565983	-0.0859328366	-0.525036
C	-0.0048238337	-0.0228743844	-0.047864089	 0.337023
C	 0.546061963	-0.9442549003	-1.1548740235	-0.350418
C	 0.0525887074	-1.924544174	-0.0751419337	 0.35854
C	 0.0977114429	-3.4289910294	-0.0960896569	-0.520074
C	 0.5288089152	-0.9785087955	 1.0921191355	-0.184258
C	-0.8515490327	-1.0832226659	 1.77434991	 0.144045
O	-1.3048260249	-0.103919297	 2.6743522995	-0.450054
C	-1.1901579279	-1.018621422	 0.2700429228	-0.184283
H	 0.9957274838	 1.8800451621	-0.1827800677	 0.125924
H	-0.5993051557	 1.8428403049	-0.9457005488	 0.12592
H	-0.4607286218	 1.939008831	 0.809646063	 0.105115
H	 0.0041253576	-0.9462760763	-2.1082231833	 0.084275
H	 1.627721484	-0.9083963364	-1.3317841317	 0.084275
H	 1.1293983185	-3.7873834788	-0.1854226431	 0.119822
H	-0.3280745903	-3.8615116397	 0.8152858974	 0.123552
H	-0.4660053978	-3.8246092512	-0.9484467764	 0.11982
H	 1.5279872641	-0.9601940644	 1.5338269061	 0.063459
H	-1.0614088344	-2.0412204364	 2.2599373261	 0.079516
H	-1.1431734404	 0.7637651884	 2.2929505121	 0.279379
H	-2.1610269002	-1.0462789777	-0.2304063816	 0.063458
121.3362	188.0235	193.6271	206.4291	223.7043	240.1186	306.1701	355.0497	379.1636	470.808	539.4911	576.6814	662.3881	696.3862	789.0495	843.8684	858.8862	884.3629	911.5234	926.797	1006.6519	1015.4797	1045.1273	1059.6028	1061.6869	1085.4405	1122.9978	1143.5412	1156.305	1161.5927	1190.2403	1232.4761	1239.5726	1266.6267	1285.9902	1307.5232	1368.063	1411.0777	1415.7674	1454.9411	1476.9602	1486.1694	1494.5439	1495.2786	1516.7999	3016.8337	3021.2899	3026.1513	3064.6233	3071.8636	3080.4156	3083.9652	3088.812	3089.4062	3091.6073	3097.8007	3836.7373
CC12CC3(C)C1C(O)C23	C[C@@]12C[C@@]3(C)[C@@H]1[C@@H](O)[C@@H]23	
InChI=1S/C8H12O/c1-7-3-8(2)5(7)4(9)6(7)8/h4-6,9H,3H2,1-2H3	InChI=1S/C8H12O/c1-7-3-8(2)5(7)4(9)6(7)8/h4-6,9H,3H2,1-2H3/t4-,5-,6+,7-,8+
