19
gdb 59511	2.4421	1.15975	0.87021	5.3223	73.05	-0.2691	0.0108	0.2799	1349.0184	0.156443	-460.165512	-460.155643	-460.154699	-460.200896	35.271	
C	 0.2185580597	 1.2328814974	-0.1431957271	-0.40325
C	 0.0234001256	-0.2576647434	 0.1321749849	 0.11224
O	 0.6168607096	-0.6408870798	 1.3738300659	-0.429943
C	-1.4382672192	-0.6605234176	 0.0849696541	-0.051349
C	-2.0715600745	-1.1170578647	-1.2142778743	-0.327105
C	-1.8244312895	-2.1028231093	-0.1180615454	 0.097066
O	-0.8179100482	-3.0604531732	-0.3752438543	-0.194667
C	-0.2131531532	-3.6032867016	 0.7118537245	 0.187121
O	 0.612177284	-4.4585697534	 0.6125088194	-0.274253
H	 1.2791731031	 1.4913306353	-0.0878506408	 0.130215
H	-0.1590493844	 1.5029000892	-1.1340739392	 0.124414
H	-0.3217627443	 1.8386510229	 0.5954012582	 0.106192
H	 0.5710156441	-0.8384404144	-0.616689898	 0.108
H	 0.225750281	-0.0994541462	 2.068691284	 0.277141
H	-2.0780009461	-0.0973081843	 0.7628267178	 0.083916
H	-3.0929415387	-0.8334983919	-1.4396400931	 0.122927
H	-1.4204307263	-1.1964592935	-2.0785177443	 0.136938
H	-2.6731103526	-2.5034619161	 0.4293741423	 0.108913
H	-0.5709491701	-3.1716565853	 1.6618075253	 0.085484
60.0774	74.7024	117.4886	163.1754	184.409	242.5985	275.6706	287.361	337.002	377.462	448.2669	508.7291	575.4007	662.7317	780.6139	823.2077	877.1437	908.3203	988.3693	1009.9963	1029.3997	1043.9568	1068.5977	1082.8909	1107.9691	1128.4908	1153.2431	1171.2114	1190.8906	1234.3549	1285.9108	1322.4152	1381.5903	1404.5029	1415.8583	1427.4494	1431.7734	1485.3798	1491.7011	1495.7548	1870.7309	3000.6718	3025.7439	3067.9226	3098.4629	3118.4206	3124.298	3138.4733	3144.5698	3227.6897	3797.4336
CC(O)C1CC1OC=O	C[C@@H](O)[C@H]1C[C@H]1OC=O	
InChI=1S/C6H10O3/c1-4(8)5-2-6(5)9-3-7/h3-6,8H,2H2,1H3	InChI=1S/C6H10O3/c1-4(8)5-2-6(5)9-3-7/h3-6,8H,2H2,1H3/t4-,5-,6-/m1/s1
