18
gdb 14440	4.21159	2.01331	1.74489	1.7531	70.62	-0.2351	0.0941	0.3291	816.0808	0.15555	-347.781856	-347.77525	-347.774306	-347.812151	26.785	
C	-0.0459026942	 1.5123314867	 0.0215095004	-0.503269
C	 0.0329482876	 0.0134949628	-0.0143660689	 0.338696
C	 0.8536608101	-0.8066984538	-1.0187225621	-0.303345
C	-0.1178480069	-2.0023331854	-0.7576703263	 0.091849
O	 0.3889454517	-2.8906408217	 0.2275511841	-0.264541
C	 0.5432816336	-2.1226475827	 1.4270935184	-0.10554
C	-0.2708528239	-0.8533479565	 1.2025298976	-0.116598
C	-1.0854622789	-1.0255237328	-0.0475954882	-0.132231
H	 0.899097973	 1.9521141786	 0.3627152962	 0.120702
H	-0.2602071772	 1.9209323812	-0.972886098	 0.117432
H	-0.8337702845	 1.8552495001	 0.7006654345	 0.116919
H	 0.7415844078	-0.4086941918	-2.0323701545	 0.096022
H	 1.9154786051	-0.9884417135	-0.8180487009	 0.092779
H	-0.452893134	-2.5878004552	-1.6124494116	 0.081405
H	 0.1596633679	-2.7094034242	 2.2702145759	 0.103214
H	 1.6067992745	-1.916282284	 1.6116873834	 0.095454
H	-0.7111255273	-0.3494415084	 2.0554567699	 0.086667
H	-2.1602021545	-0.9338132595	-0.1319892199	 0.084387
208.084	209.2546	249.2944	289.8722	425.2566	442.0474	576.1905	696.3722	710.2318	754.7967	831.046	855.8898	880.7303	901.5813	933.1171	951.0427	987.8679	998.1011	1027.7195	1038.1387	1047.4472	1098.3398	1134.3557	1160.4011	1202.1151	1205.1243	1221.0589	1236.0346	1271.9932	1300.4916	1330.3569	1375.7741	1413.7074	1434.2332	1486.2715	1492.8661	1500.373	1524.8019	3001.8867	3019.4992	3034.3009	3048.0764	3078.3143	3086.8282	3092.6644	3131.7375	3181.2944	3201.6124
CC12CC3OCC1C23	C[C@@]12C[C@H]3OC[C@@H]1[C@@H]23	
InChI=1S/C7H10O/c1-7-2-5-6(7)4(7)3-8-5/h4-6H,2-3H2,1H3	InChI=1S/C7H10O/c1-7-2-5-6(7)4(7)3-8-5/h4-6H,2-3H2,1H3/t4-,5-,6-,7-/m1/s1
