17
gdb 89921	4.59916	0.87591	0.83412	1.9302	68.98	-0.2537	-0.0331	0.2207	1368.1712	0.133559	-458.928483	-458.919825	-458.918881	-458.962921	31.494	
O	 0.0861862787	 1.4053152275	-0.1013008755	-0.431035
C	 0.0449222457	 0.0087320489	-0.0962312749	 0.146472
C	 0.4870873602	-0.7576513955	 1.2139536917	-0.343779
C	-0.9358277599	-1.3259690249	 1.2952307132	 0.404623
C	-1.4165332301	-2.5963710194	 1.9306506593	-0.395087
C	-1.4018035697	-2.5164553728	 3.4500202499	 0.15944
O	-0.916837086	-3.3506182949	 4.1677566458	-0.232176
O	-1.8175701996	-0.1811748863	 1.3444797199	-0.303743
C	-1.3462764051	-0.6320863346	 0.0607609619	-0.095803
H	-0.5076864686	 1.6934220577	 0.6040946645	 0.289718
H	 0.5861557757	-0.3380928424	-0.9793046665	 0.099722
H	 1.2522924258	-1.5134010742	 1.0206329307	 0.116662
H	 0.792546646	-0.1283394607	 2.0532901536	 0.113325
H	-2.4560500268	-2.7691981309	 1.621354045	 0.13679
H	-0.8099574791	-3.4516231062	 1.619490157	 0.130082
H	-1.8955401029	-1.6091281453	 3.8628452279	 0.097595
H	-2.0988180142	-0.873050956	-0.6823076636	 0.107193
51.4245	63.0971	109.8468	188.733	262.8512	350.7466	392.0382	435.7428	472.3635	488.3276	624.9947	674.7628	713.1954	806.8862	828.7989	877.4811	922.3731	936.8866	978.2696	1010.575	1043.3049	1053.4384	1121.0347	1136.5203	1169.6065	1195.8166	1231.4811	1249.2517	1285.9327	1300.1656	1326.2498	1422.1353	1426.1505	1438.5974	1449.7008	1480.3626	1837.5463	2894.4602	3029.1498	3066.649	3094.7204	3104.2633	3127.4794	3180.2537	3771.7959
OC1CC2(CC=O)OC12	O[C@H]1C[C@@]2(CC=O)O[C@@H]12	
InChI=1S/C6H8O3/c7-2-1-6-3-4(8)5(6)9-6/h2,4-5,8H,1,3H2	InChI=1S/C6H8O3/c7-2-1-6-3-4(8)5(6)9-6/h2,4-5,8H,1,3H2/t4-,5-,6+/m0/s1
