19
gdb 36151	3.78498	1.08702	0.97592	3.6171	78.72	-0.2469	0.0334	0.2803	1242.8757	0.161305	-382.076716	-382.068632	-382.067688	-382.109737	31.016	
N	-0.1463090304	-1.1268463924	 0.4138458344	-0.312009
C	-0.0923416757	 0.0088760889	 0.2079934066	 0.265773
C	 0.0001129003	 1.4453963937	-0.0573323037	-0.42887
C	 1.4397357185	 1.9296293961	-0.1379897327	 0.343931
C	 2.1416385802	 2.4078893271	 1.0809387612	-0.286941
N	 1.6505319949	 3.3718237487	 0.0805397176	-0.13784
C	 2.6845603164	 3.8068609013	-0.8800483462	-0.152524
C	 3.3837480215	 2.5426354565	-1.4347440754	-0.244486
C	 2.3067612494	 1.4462494401	-1.2951968223	-0.274907
H	-0.5219772404	 1.6609048526	-0.99770054	 0.150239
H	-0.5277344347	 1.9897111382	 0.7317317957	 0.160758
H	 1.6160222927	 2.4376253095	 2.0311906491	 0.12033
H	 3.2110618887	 2.2337015335	 1.167536807	 0.116932
H	 2.17090116	 4.35014319	-1.6805058162	 0.111283
H	 3.3752902023	 4.5048938996	-0.3977967513	 0.111901
H	 3.7177793115	 2.6733619331	-2.4664872577	 0.109239
H	 4.2699213654	 2.2920786374	-0.8449626131	 0.113824
H	 2.7271321805	 0.4514666409	-1.1252503355	 0.126292
H	 1.690770389	 1.3872810753	-2.2008021876	 0.107077
59.2873	109.5821	209.0231	244.3217	319.1856	384.6327	393.7944	432.2732	461.0773	631.3276	654.4393	708.2835	814.9478	843.7761	885.6673	896.6287	928.595	929.6033	945.4858	961.8366	1006.8102	1044.0342	1081.4416	1113.0946	1166.3923	1184.9308	1194.954	1211.3956	1258.1648	1275.5775	1322.7677	1324.6813	1347.1063	1350.4653	1397.5771	1459.0659	1491.1841	1493.0155	1501.5766	1524.6902	2362.5623	3036.198	3040.8193	3045.5787	3063.1637	3090.3382	3092.2198	3095.4943	3109.2975	3113.9152	3192.3743
N#CCC12CN1CCC2	N#CC[C@]12CN1CCC2	
InChI=1S/C7H10N2/c8-4-3-7-2-1-5-9(7)6-7/h1-3,5-6H2	InChI=1S/C7H10N2/c8-4-3-7-2-1-5-9(7)6-7/h1-3,5-6H2/t7-,9?/m1/s1
