16
gdb 36678	2.85462	1.00718	0.81195	4.1974	76.45	-0.2652	0.0174	0.2826	1384.7927	0.121935	-400.694724	-400.685625	-400.684681	-400.729548	32.499	
C	 0.1297412751	-1.1250632181	 0.1006136899	-0.412148
C	 0.2820442366	 0.0421741257	-0.1341115851	 0.286014
C	 0.4428141383	 1.4529241626	-0.4470927009	-0.220677
O	 1.3068803147	 2.0600912106	 0.518399329	-0.238065
C	 1.4028223117	 3.4287236975	 0.3752188763	 0.147943
C	 2.6404591409	 4.0599670022	 0.8961528137	-0.318549
C	 2.415461096	 4.0225789982	-0.6157419438	-0.219948
C	 3.2093741045	 3.1464929739	-1.4257088419	 0.297671
N	 3.8376295072	 2.4446317339	-2.098073568	-0.339202
H	 0.0034449301	-2.1586404843	 0.3102417956	 0.206126
H	 0.8645101235	 1.5730207741	-1.4546660591	 0.149565
H	-0.5380785061	 1.9540935545	-0.4350836605	 0.123797
H	 0.4606111267	 3.9730691613	 0.4561050065	 0.105028
H	 2.5790050227	 5.02528497	 1.3837743205	 0.135774
H	 3.3927248602	 3.3846235131	 1.2853485651	 0.159809
H	 2.1401658579	 4.9533672047	-1.1002409975	 0.136863
40.9974	97.2928	120.7573	160.745	208.8622	267.9073	327.9432	378.0683	431.3948	524.6803	561.7811	614.2786	671.1122	685.5839	773.8295	782.598	856.4104	967.7094	974.8033	1029.4624	1030.6462	1067.0285	1080.0697	1119.6788	1124.6929	1182.1977	1243.1774	1262.6055	1363.2884	1379.8848	1434.1103	1480.4535	1496.5347	2251.7321	2351.8106	2980.8438	3028.5472	3092.3498	3152.8623	3170.049	3249.0145	3505.289
C#CCOC1CC1C#N	C#CCO[C@H]1C[C@H]1C#N	
InChI=1S/C7H7NO/c1-2-3-9-7-4-6(7)5-8/h1,6-7H,3-4H2	InChI=1S/C7H7NO/c1-2-3-9-7-4-6(7)5-8/h1,6-7H,3-4H2/t6-,7-/m0/s1
