20
gdb 86915	4.77503	0.76437	0.71574	0.5989	75.93	-0.2284	0.0743	0.3027	1580.3912	0.170225	-440.222247	-440.21326	-440.212316	-440.256891	33.08	
O	-0.1079459382	 1.1960764859	-0.4506425603	-0.435917
C	 0.0190646266	-0.1508328232	-0.0657344558	 0.146932
C	 0.1819063207	-0.3909419272	 1.4589921526	-0.203065
N	-1.2739705781	-0.6363919244	 1.5303845675	-0.092636
C	-1.7740666609	-1.616573804	 2.4695172504	-0.18736
C	-3.2858597923	-1.6446456032	 2.474392714	 0.096487
C	-4.0525181087	-2.6477073151	 1.7227760185	-0.170639
O	-3.8899385557	-2.7535995638	 3.1378104673	-0.235124
C	-1.317043113	-0.9259405423	 0.0798396723	-0.204014
H	-0.7735903176	 1.5969343379	 0.1203528313	 0.287692
H	 0.7754528335	-0.5878122513	-0.7179632298	 0.094199
H	 0.7887312316	-1.2850270083	 1.6776712206	 0.088325
H	 0.5472435656	 0.4494547323	 2.0595280708	 0.103952
H	-1.3968726062	-2.6376099984	 2.2648925063	 0.083236
H	-1.4228367765	-1.3392104765	 3.4716599876	 0.112962
H	-3.7587271685	-0.6820904454	 2.6730515279	 0.096957
H	-5.0612510921	-2.4174075156	 1.3831068093	 0.116768
H	-3.5240484953	-3.3987279603	 1.1363164919	 0.112608
H	-2.1828058187	-0.5268278936	-0.4590719488	 0.103708
H	-1.2062875762	-1.9983355635	-0.1536336036	 0.084927
67.778	75.0631	85.7412	163.931	281.7447	320.1092	377.326	383.6446	414.639	434.9374	454.7397	738.1623	827.2006	854.2159	859.1978	876.6944	901.3123	936.7453	991.7969	1009.2714	1019.7031	1062.2499	1121.1312	1124.7532	1132.4323	1147.3208	1157.483	1177.2364	1186.3009	1229.3455	1240.8948	1264.5556	1281.0279	1285.0338	1320.7514	1331.7992	1377.3602	1441.5878	1446.5236	1487.1393	1492.4323	1519.2828	1529.449	2916.6147	2960.923	2972.1079	3042.9058	3061.2522	3065.8208	3081.184	3107.5025	3116.5449	3168.4297	3796.8347
OC1CN(CC2CO2)C1	O[C@H]1CN(C[C@H]2CO2)C1	
InChI=1S/C6H11NO2/c8-5-1-7(2-5)3-6-4-9-6/h5-6,8H,1-4H2	InChI=1S/C6H11NO2/c8-5-1-7(2-5)3-6-4-9-6/h5-6,8H,1-4H2/t6-/m0/s1
