15
gdb 34070	4.12836	1.47732	1.46826	1.7902	69.01	-0.2467	0.0242	0.2709	917.9231	0.113046	-420.570696	-420.564192	-420.563248	-420.601354	26.958	
C	 0.0503051093	-1.1179800891	-0.0577046075	-0.281857
C	 0.0322239164	 0.0809454688	-0.0328933096	 0.100793
C	-0.0145982327	 1.52114859	 0.04348585	 0.361218
C	-0.6877046429	 2.2064563177	 1.2659713429	-0.263824
C	-0.4180610794	 3.6143234291	 0.7658142684	-0.201684
C	 0.8772794819	 3.4780952135	-0.0274968456	 0.038707
O	 1.2849926028	 2.1253912949	 0.0205403158	-0.284695
C	-0.4440987001	 3.4735832524	-0.7525164517	 0.038706
O	-0.6965358482	 2.1186247068	-1.0667070026	-0.28468
H	 0.0730557759	-2.1795780239	-0.0918586837	 0.191987
H	-1.7470600208	 1.9536346464	 1.3313789533	 0.122948
H	-0.1724567674	 1.9589948342	 2.1953341372	 0.122945
H	-0.708906741	 4.5130472608	 1.2903021576	 0.105004
H	 1.6767330567	 4.1986356834	-0.1118626458	 0.117216
H	-0.8061935905	 4.190159115	-1.4742001989	 0.117214
153.6767	159.3367	404.9047	465.2626	517.558	553.8891	567.1036	614.419	654.8175	695.6471	718.3801	741.2855	796.7279	798.7461	826.5993	857.6164	968.1714	998.2714	1007.3638	1018.2524	1035.8362	1040.3274	1047.5654	1075.5398	1093.4258	1166.339	1197.8176	1268.5391	1286.4947	1333.1613	1381.8627	1476.92	2266.0173	3085.5909	3146.7253	3221.9177	3234.2195	3243.8296	3501.4919
C#CC12CC3C(O1)C3O2	C#C[C@@]12C[C@H]3[C@@H](O1)[C@H]3O2	
InChI=1S/C7H6O2/c1-2-7-3-4-5(8-7)6(4)9-7/h1,4-6H,3H2	InChI=1S/C7H6O2/c1-2-7-3-4-5(8-7)6(4)9-7/h1,4-6H,3H2/t4-,5+,6-,7+
