21
gdb 93065	2.21143	1.50143	0.98979	2.8449	84.4	-0.2272	-0.0115	0.2157	1246.51	0.183277	-387.126336	-387.117499	-387.116555	-387.159892	33.902	
C	 0.0431484068	 1.577839888	 0.0670429197	-0.396715
C	-0.0084074777	 0.0459156431	-0.0104750822	 0.02672
C	 0.5494314757	-0.4484886954	-1.3658491304	-0.248104
C	 0.2126770754	-1.8827881355	-1.6996461632	-0.05514
C	 0.5984810529	-2.9444016937	-0.9929019339	-0.062976
C	 1.4401351691	-2.8760787049	 0.2649506628	-0.343523
C	 0.7172642273	-2.0689213228	 1.3459045811	 0.377656
O	 0.1652934643	-2.6137969753	 2.2732835857	-0.302028
C	 0.7368398216	-0.551563198	 1.207810727	-0.285129
H	 1.0742103883	 1.9412993611	-0.018892543	 0.114508
H	-0.5387205871	 2.0321242511	-0.7414445778	 0.11421
H	-0.3600353206	 1.9410342127	 1.017561418	 0.11771
H	-1.0587229504	-0.2661202902	 0.0524778407	 0.090171
H	 0.1607993812	 0.2013543811	-2.1564310128	 0.100214
H	 1.6410146148	-0.303143223	-1.3678262835	 0.103823
H	-0.4040923028	-2.0456359266	-2.5799010415	 0.091895
H	 0.2780531286	-3.9348043461	-1.3023396495	 0.10001
H	 1.6240028231	-3.8752073132	 0.6628818234	 0.121644
H	 2.4085141276	-2.4055966793	 0.0474998261	 0.11421
H	 1.7884299082	-0.2321879788	 1.1545492753	 0.104574
H	 0.3117635637	-0.1463680843	 2.1303629079	 0.116269
88.6976	91.2383	159.4174	229.0465	291.8484	296.1095	327.2627	411.3998	429.5578	461.7798	522.797	607.8938	691.6403	710.5849	838.9657	862.9177	878.5949	904.558	936.8827	969.2237	970.4782	992.1222	1026.2654	1060.6346	1092.4092	1148.2268	1151.1428	1186.6017	1249.1582	1260.624	1288.2021	1292.0098	1314.5247	1322.4283	1363.6392	1378.787	1409.4536	1412.6354	1465.1179	1471.9726	1487.9469	1497.1511	1499.1485	1716.1846	1810.5164	2988.1227	3002.2768	3017.9197	3024.9153	3030.7412	3067.0505	3091.144	3096.1859	3104.8621	3118.7653	3151.3758	3177.9612
CC1CC=CCC(=O)C1	C[C@H]1CC=CCC(=O)C1	
InChI=1S/C8H12O/c1-7-4-2-3-5-8(9)6-7/h2-3,7H,4-6H2,1H3	InChI=1S/C8H12O/c1-7-4-2-3-5-8(9)6-7/h2-3,7H,4-6H2,1H3/t7-/m0/s1
