19
gdb 98562	4.08812	0.92807	0.77078	1.1091	80.37	-0.2432	-0.0542	0.189	1477.7837	0.157849	-423.051755	-423.042393	-423.041448	-423.087035	32.841	
C	-0.0688255057	 1.5317043284	 0.0611158068	-0.381987
C	 0.0407408034	 0.0130490285	-0.0362612351	-0.290891
C	 0.7391734379	-0.4667061402	-1.3001157931	 0.282121
O	 1.1592303503	 0.3077250726	-2.1366843924	-0.317745
C	 0.8857851995	-1.9378076383	-1.4674575	 0.21705
C	 1.4702150888	-2.5279588931	-2.5130113188	-0.170686
C	 1.4400469699	-4.0134425087	-2.3503063428	-0.107946
O	 0.7812566009	-4.2443179932	-1.1083778405	-0.268626
C	 0.4114568561	-3.0060387843	-0.5078857384	-0.171966
H	 0.9210290834	 1.9945711923	 0.045685807	 0.133166
H	-0.6278013817	 1.9362352703	-0.7863454147	 0.133167
H	-0.5759225707	 1.8246713431	 0.9844749472	 0.109554
H	 0.5823517609	-0.403638667	 0.8253106966	 0.124204
H	-0.9508028517	-0.4611976464	-0.0005238488	 0.12426
H	 1.9043138359	-2.0098652775	-3.3580906345	 0.133934
H	 0.8935875044	-4.5109578127	-3.1678556113	 0.116264
H	 2.4514301989	-4.4507833698	-2.3304191098	 0.116243
H	 0.880369086	-2.9217406616	 0.4850615981	 0.109935
H	-0.6784717865	-2.9815185123	-0.3518488856	 0.109951
56.2321	70.7312	102.8689	142.1504	167.9346	203.8588	280.3599	356.4523	409.1798	467.0374	573.0846	696.8746	776.5813	797.9795	859.159	868.2738	919.4831	961.5495	985.2689	1028.5701	1034.6454	1059.1099	1089.6937	1090.7482	1116.4343	1176.2016	1224.624	1227.7037	1280.2063	1280.7911	1360.232	1381.3593	1395.8635	1412.4204	1450.2535	1489.9963	1496.4356	1509.7128	1526.9731	1681.1887	1774.5718	2969.0979	2976.969	2985.7484	2991.0508	3009.7858	3035.529	3052.1785	3123.6998	3128.2348	3232.7339
CCC(=O)C1=CCOC1	CCC(=O)C1=CCOC1	
InChI=1S/C7H10O2/c1-2-7(8)6-3-4-9-5-6/h3H,2,4-5H2,1H3	InChI=1S/C7H10O2/c1-2-7(8)6-3-4-9-5-6/h3H,2,4-5H2,1H3
