14
gdb 61365	3.78307	0.84288	0.76391	1.8725	65.19	-0.2843	-0.0819	0.2024	1427.0069	0.097283	-473.859499	-473.850086	-473.849141	-473.895244	31.285	
C	-0.0268842645	 1.4304497439	-0.1136348272	-0.409622
C	 0.0584343249	-0.0851453775	-0.033070197	 0.016517
O	 0.7937498961	-0.5152417803	 1.1444487719	-0.24202
C	 2.1152006297	-0.6494160926	 1.0077161073	 0.373668
O	 2.7642441011	-0.4571680558	 0.0172444733	-0.325479
C	 2.7050310161	-1.086155091	 2.2781471984	 0.255614
N	 3.2190785157	-1.4290236733	 3.253540201	-0.297998
C	-1.3006687831	-0.7694045411	 0.0679913021	 0.150565
O	-2.2846413129	-0.3528250625	-0.4791163973	-0.230668
H	 0.955699733	 1.8613516918	-0.3146074215	 0.146703
H	-0.7102721952	 1.6966234291	-0.9229739813	 0.159246
H	-0.4202569885	 1.8422785757	 0.8193252514	 0.143309
H	 0.5735484733	-0.4888998297	-0.9136808725	 0.152341
H	-1.2986435156	-1.7007860867	 0.6732949112	 0.107824
44.1426	73.036	77.9408	137.0321	215.0779	236.0552	255.0833	308.0578	381.1492	426.8822	494.2657	602.419	645.8992	774.9531	837.1553	884.8587	918.0293	963.4914	1082.7681	1128.9532	1154.7535	1257.6575	1322.2101	1350.1846	1395.6453	1413.3511	1486.2443	1495.5929	1819.2385	1845.6426	2363.0428	2916.0098	3047.2507	3059.637	3139.8017	3148.8584
CC(OC(=O)C#N)C=O	C[C@@H](OC(=O)C#N)C=O	
InChI=1S/C5H5NO3/c1-4(3-7)9-5(8)2-6/h3-4H,1H3	InChI=1S/C5H5NO3/c1-4(3-7)9-5(8)2-6/h3-4H,1H3/t4-/m1/s1
