19
gdb 108150	3.44265	1.3121	1.25365	2.1488	74.05	-0.2287	0.0659	0.2945	1083.4976	0.160654	-422.99196	-422.984235	-422.983291	-423.024435	30.328	
O	-0.0113820963	 1.4089856886	-0.2698023306	-0.414054
C	-0.0420411056	 0.0474663524	 0.1318977908	-0.187236
C	-1.4143071261	-0.5310966457	 0.0215650397	 0.467258
O	-2.406322964	 0.0189852295	 0.9047138243	-0.36104
C	-3.1501955817	-1.2470818212	 0.8202831584	 0.094501
C	-4.284173243	-1.0488160359	-0.1779376769	-0.207326
C	-3.5311176319	-0.6524991004	-1.4808675818	-0.229122
C	-2.0860435603	-1.0826578864	-1.2222254505	-0.115956
C	-1.9888355193	-1.9125103343	 0.0490319079	-0.236178
H	-0.6641355853	 1.8710030287	 0.2680433014	 0.294764
H	 0.6428195711	-0.4934430748	-0.5292248384	 0.111905
H	 0.3206606879	-0.0703197477	 1.1650274068	 0.095314
H	-3.4178385338	-1.6173341537	 1.8111935601	 0.080151
H	-4.8376478582	-1.9867528736	-0.3041885391	 0.099045
H	-4.9868259765	-0.2813104988	 0.1581513448	 0.107885
H	-3.9406571356	-1.162030291	-2.3574899972	 0.099964
H	-3.597776181	 0.4231678512	-1.6661430069	 0.113277
H	-1.430667304	-1.3255605861	-2.0515652682	 0.090154
H	-1.5517900266	-2.8930661708	 0.1771226951	 0.096694
69.0422	120.544	214.9678	267.8905	346.9066	393.2752	414.6341	487.5858	639.2281	727.9227	736.9729	769.6017	821.8256	857.6665	878.4344	888.4019	906.9287	931.3321	977.7793	998.6931	1008.3578	1027.9427	1040.3356	1060.7644	1076.9821	1133.3672	1164.0486	1205.4184	1216.9553	1239.0436	1268.783	1282.848	1305.599	1326.9108	1339.6701	1378.0734	1409.9289	1470.7945	1474.693	1489.1467	1498.6427	2984.2316	3039.55	3058.8284	3079.3251	3089.4806	3103.4111	3106.4697	3176.8046	3206.3603	3806.39
OCC12OC3CCC1C23	OC[C@@]12O[C@H]3CC[C@@H]1[C@@H]23	
InChI=1S/C7H10O2/c8-3-7-4-1-2-5(9-7)6(4)7/h4-6,8H,1-3H2	InChI=1S/C7H10O2/c8-3-7-4-1-2-5(9-7)6(4)7/h4-6,8H,1-3H2/t4-,5+,6-,7-/m1/s1
