20
gdb 65265	3.352	1.16926	1.1501	0.8223	74.36	-0.2448	0.0754	0.3202	1173.0575	0.17173	-440.256753	-440.248065	-440.247121	-440.290646	32.317	
C	-0.1184216146	 1.4528503734	-0.4953770148	-0.477594
C	-0.0149251936	-0.0193076786	-0.1594970267	 0.315423
C	 1.2467037702	-0.7408333611	-0.4613534239	-0.284802
N	 0.8677894259	-0.4605966893	 0.9382590611	-0.35746
C	-1.3164992894	-0.8049428883	-0.1776988103	 0.086443
C	-2.3707297509	-0.3138890443	 0.8423150505	-0.140638
O	-3.2576778139	 0.4721735343	 0.05634773	-0.234091
C	-3.2864971438	-0.1865276475	-1.1817364233	 0.022386
O	-1.9719268267	-0.6364504949	-1.4408930081	-0.273036
H	 0.8651596247	 1.9307546697	-0.4462680319	 0.10619
H	-0.5140876809	 1.5850050689	-1.505845229	 0.139699
H	-0.7894571195	 1.9774600859	 0.1929937218	 0.129967
H	 1.2252072615	-1.7913364384	-0.7392050286	 0.118306
H	 2.0621724363	-0.1741366056	-0.9030810801	 0.11105
H	 1.4042847784	 0.3296818166	 1.2875658622	 0.228518
H	-1.0878164285	-1.8641844027	-0.0136706067	 0.082365
H	-2.9010231775	-1.1635473177	 1.2961100544	 0.100259
H	-1.9542018795	 0.3092054735	 1.6350407514	 0.125454
H	-3.9823317048	-1.0457534586	-1.1526479314	 0.083492
H	-3.5930389535	 0.5207295348	-1.9580046066	 0.118068
63.8972	66.7307	187.5418	211.4975	251.5223	290.3697	317.9246	356.5411	436.2887	503.8414	704.2111	744.7313	774.9172	844.9533	862.7244	935.5966	959.1708	971.5019	981.2351	994.7766	1023.8915	1044.7624	1059.4133	1087.8239	1115.1156	1120.2917	1157.5339	1182.0813	1208.0524	1262.3121	1267.8195	1300.7602	1321.2935	1352.5862	1364.7799	1408.1329	1427.972	1433.616	1481.8482	1501.6333	1514.1462	1517.6938	1542.7563	2928.9753	2999.7633	3035.9824	3040.9886	3084.1574	3101.3751	3105.4809	3117.8376	3121.8762	3189.6973	3498.1638
CC1(CN1)C1COCO1	C[C@]1(CN1)[C@H]1COCO1	
InChI=1S/C6H11NO2/c1-6(3-7-6)5-2-8-4-9-5/h5,7H,2-4H2,1H3	InChI=1S/C6H11NO2/c1-6(3-7-6)5-2-8-4-9-5/h5,7H,2-4H2,1H3/t5-,6+/m1/s1
