21
gdb 122365	5.50561	0.69687	0.68783	2.0211	80.15	-0.2362	0.0781	0.3143	1730.7055	0.18118	-424.148163	-424.139015	-424.138071	-424.183317	33.524	
C	 0.1658065492	 1.4706619361	 0.1893783191	-0.383389
C	-0.1734977452	 0.0199432414	-0.1606962425	-0.183641
C	 0.7581696414	-0.5554374409	-1.21740416	-0.043787
O	 0.3780853472	-1.8991495404	-1.4755509146	-0.262673
C	 1.1167656409	-2.5081754112	-2.4827485576	 0.165005
C	 2.4701823733	-3.2402638999	-2.1838797143	 0.006879
C	 1.6994628629	-4.3043627895	-1.3684034525	-0.224094
C	 0.9303174868	-4.0284577308	-2.6829276313	-0.000494
O	 2.2193290719	-4.0246158532	-3.412306951	-0.309427
H	 1.1855459277	 1.5599212124	 0.5799334197	 0.117272
H	 0.0890798049	 2.1226404925	-0.6877904087	 0.118004
H	-0.5155790449	 1.8594404406	 0.9513133007	 0.119459
H	-0.1157626903	-0.6107724695	 0.733875882	 0.107408
H	-1.2033097455	-0.0534833187	-0.5283415067	 0.10897
H	 0.7008807836	 0.0356027654	-2.1466208471	 0.091093
H	 1.8040207902	-0.5139830994	-0.8716267828	 0.089796
H	 1.1337868478	-1.9309066639	-3.4157411355	 0.080576
H	 3.4756022371	-2.8431137752	-2.0423434062	 0.090578
H	 2.1819910727	-5.2807454405	-1.3131422693	 0.105434
H	 1.2309890558	-3.9898441404	-0.4353035852	 0.112186
H	 0.0968143426	-4.5680820648	-3.1325353263	 0.094845
51.0225	59.0765	107.5104	134.7657	229.7723	267.1279	312.0146	357.7	450.9505	558.5447	636.4547	745.6695	764.3965	830.0038	870.9917	890.9207	899.5658	904.686	929.3885	952.2473	1015.3891	1031.2327	1061.1143	1072.3389	1104.9764	1128.1058	1153.9766	1174.7518	1183.2284	1193.081	1204.6608	1230.1157	1262.4195	1268.2124	1291.7585	1314.8919	1330.453	1366.6325	1414.2336	1438.7932	1477.6606	1492.3486	1500.5757	1507.3706	1526.3943	2960.6075	2989.9733	3032.7112	3039.342	3039.8676	3072.6136	3082.1937	3100.7374	3109.955	3115.8469	3124.4566	3162.8543
CCCOC1C2CC1O2	CCCO[C@H]1[C@H]2C[C@@H]1O2	
InChI=1S/C7H12O2/c1-2-3-8-7-5-4-6(7)9-5/h5-7H,2-4H2,1H3	InChI=1S/C7H12O2/c1-2-3-8-7-5-4-6(7)9-5/h5-7H,2-4H2,1H3/t5-,6+,7+
