20
gdb 80829	2.50962	1.68306	1.30297	2.9845	80.08	-0.251	0.035	0.286	1061.3041	0.171645	-403.153132	-403.144802	-403.143858	-403.185478	32.918	
C	-0.191522724	 1.521310458	-0.0274228156	-0.44302
C	 0.012525776	 0.0138740527	 0.0012214207	-0.004317
C	 1.1780598423	-0.6084363601	-0.8097174284	 0.078469
C	 2.1399337557	-0.2286358159	 0.3322843529	-0.289226
C	 0.8719717113	-0.5972494443	 1.1938225597	 0.204832
C	 0.6926313329	-0.2435279181	 2.6459749397	-0.497547
C	 0.7609976263	-2.0514225535	 0.7940502002	 0.421392
N	 0.5234047546	-3.0556711671	 1.5158545656	-0.586129
O	 0.9736497146	-2.034556689	-0.5696240724	-0.264047
H	 0.7275857718	 2.0895863696	 0.1369024274	 0.121432
H	-0.6033938898	 1.8307620605	-0.9941278095	 0.12442
H	-0.9078687164	 1.8218456683	 0.7441747984	 0.129638
H	-0.9433899118	-0.4925963464	-0.1684704743	 0.087036
H	 1.3622176741	-0.4429225287	-1.8693350774	 0.088169
H	 3.0342357786	-0.8444798878	 0.4504628152	 0.113825
H	 2.3943690852	 0.8297383069	 0.3749427458	 0.11063
H	 0.7575093922	 0.8373106714	 2.8041940033	 0.111393
H	-0.2787721705	-0.5919699806	 3.0096166164	 0.135736
H	 1.4603577941	-0.7282558617	 3.2566175677	 0.13541
H	 0.502277273	-3.9094641541	 0.9549301147	 0.221904
147.7183	179.5554	187.7333	205.648	256.1863	312.5868	338.0844	466.1379	482.5265	524.7271	617.8393	656.4737	693.2303	797.1573	808.5199	845.6886	882.9766	892.6551	933.0392	945.8254	991.3942	1011.0731	1043.5086	1060.3828	1094.9679	1110.6004	1128.7909	1191.609	1210.2404	1231.7489	1246.525	1253.2659	1307.3394	1371.2694	1389.7278	1415.309	1419.9567	1484.883	1488.3074	1493.4733	1496.772	1511.2617	1803.4284	3037.5276	3040.5914	3054.4229	3080.5031	3097.1316	3110.9484	3112.6525	3116.322	3144.2273	3151.1458	3467.8678
CC1C2CC1(C)C(=N)O2	C[C@H]1[C@H]2C[C@]1(C)[C]([NH])O2	
InChI=1S/C7H11NO/c1-4-5-3-7(4,2)6(8)9-5/h4-5,8H,3H2,1-2H3	InChI=1S/C7H11NO/c1-4-5-3-7(4,2)6(8)9-5/h4-5,8H,3H2,1-2H3/t4-,5+,7-/m0/s1
