22
gdb 19302	6.1018	0.80504	0.8011	0.1708	82.53	-0.2631	0.0955	0.3586	1528.7728	0.200638	-313.046695	-313.03796	-313.037015	-313.080771	32.742	
C	-0.0506867828	 1.5267555659	 0.1964334714	-0.197287
C	 0.0372136031	-0.0068025855	 0.1880765805	-0.197317
C	-1.317650751	-0.6824355737	 0.1988982926	 0.037097
C	-2.0635123131	-0.917072768	-1.0919351961	-0.254379
C	-1.4831552683	-2.0841438954	-0.3288551885	-0.277492
C	 1.3041902372	 2.2024137993	 0.1895669447	 0.037094
C	 2.0265807753	 2.4502359225	-1.112105952	-0.254387
C	 1.4601481357	 3.6094222081	-0.3268646284	-0.277487
H	-0.6277337679	 1.8607848313	-0.6760777094	 0.092572
H	-0.6198883651	 1.8515965778	 1.0787752491	 0.091558
H	 0.5984512232	-0.3321703909	-0.6979162451	 0.092572
H	 0.6221445627	-0.3402911617	 1.0567993335	 0.091559
H	-1.9359060973	-0.4274236986	 1.0570761893	 0.077407
H	-3.1407709468	-0.792879389	-1.103238406	 0.107882
H	-1.5748187212	-0.6265110539	-2.016757123	 0.106682
H	-0.6080250173	-2.5743665294	-0.7433121767	 0.108053
H	-2.1647898202	-2.7545487857	 0.1831235451	 0.107927
H	 1.9378590206	 1.9388221817	 1.0337971662	 0.077405
H	 3.1034563068	 2.3263419259	-1.1441555915	 0.107882
H	 1.52122977	 2.1689719961	-2.0308303688	 0.106682
H	 0.5776730557	 4.1036783406	-0.720432774	 0.108052
H	 2.1509501506	 4.2747161027	 0.1794624472	 0.107926
61.2033	71.2845	115.8637	143.3597	255.4373	312.4839	343.2311	435.8109	447.3859	757.2194	771.9635	779.0883	802.3713	824.2764	830.6402	854.8425	899.9771	927.3335	965.3474	974.6658	1015.5612	1045.4763	1057.9701	1060.5242	1076.9227	1077.1525	1118.0962	1140.0512	1145.1835	1197.1025	1198.8951	1199.1369	1226.3891	1228.3228	1258.6669	1282.8359	1326.6648	1368.6462	1414.126	1420.0997	1467.8949	1468.8414	1478.9971	1495.3533	1506.9196	1507.9993	3002.8083	3008.9932	3031.8224	3053.5479	3125.8541	3125.929	3126.4999	3126.6825	3132.02	3132.3025	3203.685	3203.7303	3219.0877	3219.2358
C(CC1CC1)C1CC1	C(CC1CC1)C1CC1	
InChI=1S/C8H14/c1-2-7(1)5-6-8-3-4-8/h7-8H,1-6H2	InChI=1S/C8H14/c1-2-7(1)5-6-8-3-4-8/h7-8H,1-6H2
