13
gdb 20588	3.4599	1.86085	1.21922	3.3262	63.02	-0.2636	-0.0573	0.2063	914.241	0.094908	-398.614975	-398.607759	-398.606815	-398.646965	25.074	
C	 0.0496940272	 1.4991868203	 0.057917957	-0.49391
C	-0.0656419072	 0.0172732048	 0.077154704	 0.377822
C	-1.1221278107	-0.85383529	-0.0337046337	-0.031284
C	-2.5400596703	-0.5690173725	-0.2153482272	 0.066604
O	-3.3966056016	-1.4208220492	-0.3019359809	-0.27323
C	-0.5020205858	-2.1370557945	 0.0719279433	-0.02265
N	 0.787513876	-2.0539736624	 0.229399742	-0.127291
O	 1.0674266353	-0.6718413841	 0.2327431597	-0.2102
H	 0.7031413825	 1.8220760569	-0.7587574853	 0.165028
H	-0.9293436507	 1.9622378141	-0.0731721605	 0.151571
H	 0.4872280971	 1.8616160874	 0.9935544412	 0.165028
H	-2.8002473061	 0.5107568825	-0.2719008283	 0.069521
H	-0.9806084356	-3.1049106134	 0.0346679587	 0.162992
82.3271	144.0235	176.2443	225.5275	300.2062	316.4177	529.8309	639.421	641.1419	676.2752	795.3624	868.6715	936.1936	956.0978	1008.8261	1030.085	1062.804	1158.7447	1200.2272	1286.9395	1408.6925	1428.3116	1434.6875	1470.7742	1477.5455	1534.3716	1639.7366	1788.2552	2884.9872	3047.4351	3106.5925	3145.7768	3257.3927
CC1=C(C=O)C=NO1	Cc1c(C=O)cno1	
InChI=1S/C5H5NO2/c1-4-5(3-7)2-6-8-4/h2-3H,1H3	InChI=1S/C5H5NO2/c1-4-5(3-7)2-6-8-4/h2-3H,1H3
