16
gdb 44520	4.45247	1.35307	1.22076	3.9524	78.41	-0.2386	-0.0365	0.2021	1019.4418	0.126387	-400.708753	-400.702159	-400.701215	-400.739679	26.757	
N	-0.0979181691	 1.2102049627	 0.2697384195	-0.542995
C	-0.0324761934	-0.0313728556	 0.0393819526	 0.406587
O	 1.1547795872	-0.7254022059	-0.2052793551	-0.269834
C	 0.7843633951	-2.0445491126	-0.5917668701	 0.079606
C	 1.0705181674	-3.3928971534	 0.1119059557	-0.106151
C	 0.3623745691	-3.5610917922	 1.4219922477	-0.268577
C	-0.4695799781	-3.6273827774	 0.1552392861	-0.153738
C	-0.6548197185	-2.187743355	-0.245786185	 0.232921
C	-1.1605729566	-0.9987834309	 0.0834241195	-0.311796
H	 0.8330406936	 1.6286773165	 0.2532468408	 0.224173
H	 0.9951643627	-2.1717321543	-1.6617176795	 0.108399
H	 1.8417620345	-4.0815320747	-0.2096842719	 0.09976
H	 0.5393586047	-4.5159626134	 1.9080976042	 0.124697
H	 0.2324039752	-2.7266244662	 2.1031549697	 0.135006
H	-1.0419412996	-4.4985940142	-0.1310057192	 0.113562
H	-2.1300083442	-0.7155667436	 0.4659611748	 0.128381
120.121	206.562	271.314	359.4485	499.197	533.8006	606.1798	668.4607	705.2989	732.3799	771.5993	845.7935	853.2396	863.0875	892.4244	900.6891	914.7524	980.6406	993.1782	1025.6301	1030.1646	1062.7926	1090.6303	1097.4529	1109.7498	1174.1855	1204.2909	1246.8793	1269.3996	1295.5821	1342.9276	1371.4485	1485.0105	1697.7648	1752.6388	3023.4728	3126.4854	3192.8126	3209.3941	3217.6726	3249.1879	3483.7374
N=C1OC2C3CC3C2=C1	[NH]C1=C[C]2[C@@H](O1)[C@H]1C[C@@H]21	
InChI=1S/C7H7NO/c8-6-2-5-3-1-4(3)7(5)9-6/h2-4,7-8H,1H2	InChI=1S/C7H7NO/c8-6-2-5-3-1-4(3)7(5)9-6/h2-4,7-8H,1H2/t3-,4+,7+/m1/s1
