12
gdb 25144	3.75424	1.23396	0.92871	4.6854	70.89	-0.2709	-0.0925	0.1784	1127.8807	0.080364	-431.745095	-431.738228	-431.737283	-431.77674	25.261	
O	-0.0562553304	-0.0834604303	 0.0040378788	-0.364581
C	 0.0121550149	 1.1263811568	 0.009242837	 0.44371
N	-1.1617230558	 1.9205677471	 0.0291462285	-0.337238
C	-1.1615237908	 3.2742702248	 0.0358875473	 0.109601
N	-0.0937017178	 4.00749441	 0.0249956262	-0.323961
C	 1.0969097976	 3.3124940911	 0.005286356	 0.223018
C	 1.2054754834	 1.952543676	-0.0029710085	-0.281525
C	 2.2859880066	 4.1244665717	-0.0069052784	 0.255973
N	 3.253068928	 4.7580293393	-0.0169607631	-0.312278
H	-2.0337652728	 1.4062814574	 0.0384499804	 0.279387
H	-2.1370956306	 3.7532989333	 0.0515630963	 0.156055
H	 2.1648284078	 1.4529803729	-0.0185712006	 0.151839
130.9354	157.3832	172.7171	364.3414	440.7925	458.3212	476.289	547.9627	595.9737	686.5214	761.1222	768.4779	771.6272	909.3261	909.6403	972.611	984.6739	1146.7561	1167.4626	1217.0951	1348.1636	1425.994	1466.4679	1580.7216	1646.2	1813.184	2357.1281	3175.5446	3233.1283	3589.2145
O=C1NC=NC(=C1)C#N	O=c1[nH]cnc(c1)C#N	
InChI=1S/C5H3N3O/c6-2-4-1-5(9)8-3-7-4/h1,3H,(H,7,8,9)	InChI=1S/C5H3N3O/c6-2-4-1-5(9)8-3-7-4/h1,3H,(H,7,8,9)
