14
gdb 19763	3.35901	3.10402	2.57235	1.4576	59.56	-0.2333	0.0046	0.238	620.3831	0.110043	-382.525263	-382.520224	-382.51928	-382.554028	21.627	
O	 0.0105806604	 1.4442606716	 0.005404255	-0.254394
C	 1.3642836717	 1.7897134744	 0.029454632	 0.040492
C	 2.0821350298	 0.6222717544	 0.6019825002	 0.040491
O	 1.1073538762	-0.339421038	 0.8801471388	-0.254394
C	 0.0378696062	 0.0059145697	-0.0182345044	 0.111614
C	 0.403319439	-0.4471988632	-1.4003853841	-0.079317
C	 1.5666763218	 0.0542590169	-1.8365130466	-0.054307
C	 2.2683433978	 0.9433387688	-0.9033616082	-0.186567
H	 1.547636203	 2.8377747949	 0.2170174544	 0.120161
H	 2.9062418213	 0.628277183	 1.3005829023	 0.120161
H	-0.9004300717	-0.374719292	 0.3820794331	 0.098311
H	-0.2351298456	-1.1156876448	-1.9629906287	 0.100052
H	 1.9885052282	-0.1645101855	-2.8115058766	 0.10352
H	 3.2154117218	 1.3864810197	-1.1872133072	 0.094176
363.0324	405.5545	479.3678	614.44	649.0121	687.1906	725.0314	753.9989	776.6547	783.0905	855.5731	867.5495	932.5709	938.9692	964.9672	985.5821	989.7213	1052.2499	1067.371	1100.0618	1114.0066	1140.2096	1168.4528	1249.7528	1304.852	1344.0828	1350.5013	1381.3267	1414.6513	1665.6216	3138.9397	3177.4165	3190.0093	3219.3676	3221.402	3230.7933
O1C2C3OC1C=CC23	O1[C@H]2[C@H]3O[C@@H]1C=C[C@@H]23	
InChI=1S/C6H6O2/c1-2-4-7-5-3(1)6(5)8-4/h1-6H	InChI=1S/C6H6O2/c1-2-4-7-5-3(1)6(5)8-4/h1-6H/t3-,4+,5+,6-
