19
gdb 63810	3.39847	1.46563	1.4047	1.7335	73.75	-0.234	0.0645	0.2985	1008.5411	0.158283	-422.966494	-422.958791	-422.957847	-422.998174	31.167	
C	-0.0459998418	 1.5371496517	-0.0465946752	-0.419118
C	-0.0219517811	 0.0121401765	 0.0375804773	 0.35149
C	-1.4189003953	-0.5859374432	-0.1178222911	-0.419121
O	 0.8279503888	-0.5012546857	-1.0416994894	-0.31058
C	 1.8424104372	-1.1800978698	-0.3598450596	 0.081452
C	 1.2908438148	-1.9372276265	 0.8869014233	 0.019262
O	 2.5370663694	-1.6955853134	 1.6171619046	-0.319894
C	 2.267661493	-0.4266079734	 0.9375638652	 0.019263
C	 0.7417320956	-0.5223597857	 1.2502938172	-0.097036
H	 0.9621351265	 1.9510623579	 0.0420582222	 0.119372
H	-0.4603996937	 1.8552984889	-1.0077529185	 0.126847
H	-0.6647439877	 1.9609292191	 0.7511912115	 0.115658
H	-1.8495079759	-0.2932538388	-1.0799468537	 0.126853
H	-1.3847476997	-1.6781282351	-0.0794443252	 0.119368
H	-2.0836799029	-0.2330180011	 0.6774204678	 0.115657
H	 2.574827383	-1.6313607957	-1.0260273539	 0.099707
H	 0.821506183	-2.916131955	 0.9795996963	 0.094183
H	 2.9640443097	 0.3972360534	 1.090718795	 0.094183
H	 0.3790102374	-0.3215753541	 2.2570329762	 0.082455
141.0149	200.6186	231.1388	232.6652	322.7112	343.4558	476.6773	495.3898	501.9562	592.6899	689.8397	783.6811	794.7494	820.9526	881.6858	891.1957	892.224	915.6109	936.0998	964.6909	980.4069	1007.6411	1017.31	1093.5686	1133.2987	1144.8679	1150.3369	1171.5314	1182.4365	1201.4737	1232.7957	1236.9261	1276.24	1326.2385	1359.4654	1399.1575	1416.5496	1474.33	1483.2377	1497.0093	1503.8538	3036.3463	3041.4662	3107.48	3113.4138	3115.9577	3118.8729	3121.8647	3123.5064	3143.6149	3158.1194
CC1(C)OC2C3OC2C13	CC1(C)O[C@@H]2[C@H]3O[C@@H]2[C@@H]13	
InChI=1S/C7H10O2/c1-7(2)3-4-6(9-7)5(3)8-4/h3-6H,1-2H3	InChI=1S/C7H10O2/c1-7(2)3-4-6(9-7)5(3)8-4/h3-6H,1-2H3/t3-,4-,5+,6+
