21
gdb 121417	4.23512	0.8021	0.70879	1.207	75.06	-0.2536	0.078	0.3317	1591.3053	0.18347	-461.361567	-461.352462	-461.351518	-461.395959	33.791	
O	 0.1323248958	 1.4141441135	 0.0983698365	-0.419022
C	 0.0801464388	-0.0033248476	 0.0320349891	-0.069433
C	-1.3550987792	-0.5362305993	 0.032560701	-0.220883
C	-1.4339376142	-2.0569426395	 0.0179080049	 0.121792
C	-2.8640538545	-2.6037713217	 0.1143571145	-0.213207
C	-2.8431438639	-4.1180755315	-0.1112029201	-0.094782
O	-2.1614125639	-4.4323294755	-1.3186228311	-0.231651
C	-0.8618767818	-3.9085046257	-1.3090428731	 0.018203
O	-0.8371032791	-2.5098798667	-1.2016491414	-0.254543
H	-0.2215280142	 1.7585222548	-0.7276661608	 0.28102
H	 0.6195319492	-0.3895995785	-0.8429473006	 0.108585
H	 0.6089674222	-0.3596737132	 0.9236490096	 0.106142
H	-1.875778179	-0.1572512525	 0.9194856785	 0.104976
H	-1.8899328565	-0.1528034471	-0.8466778229	 0.096685
H	-0.8457391459	-2.4616969726	 0.8630426748	 0.063584
H	-3.2983353739	-2.3690526872	 1.0926866524	 0.099143
H	-3.4811341696	-2.1293952207	-0.6568295092	 0.111413
H	-2.3472582208	-4.6195477863	 0.737945797	 0.088501
H	-3.8512316315	-4.5296402267	-0.2049652535	 0.113436
H	-0.2841428158	-4.3561607404	-0.4762248691	 0.07277
H	-0.4042148321	-4.1648801553	-2.2666239966	 0.117274
78.1863	88.1418	110.9183	194.8839	257.959	290.4118	318.7231	353.9174	383.225	488.5904	495.2047	546.7043	681.7968	775.3485	840.2315	886.576	924.0445	974.2364	992.2742	1024.3094	1061.1546	1072.8317	1076.5221	1104.4073	1125.1089	1142.0979	1183.9644	1224.8387	1234.4888	1263.3736	1294.1188	1312.0689	1332.3965	1347.882	1380.1486	1390.58	1402.2125	1412.6964	1421.2958	1449.0107	1465.8746	1476.178	1497.5052	1509.8157	1515.0075	2908.5407	2927.0158	2961.616	3016.4599	3023.7014	3039.2772	3059.3813	3082.0783	3089.1183	3095.9908	3112.0295	3817.3925
OCCC1CCOCO1	OCC[C@H]1CCOCO1	
InChI=1S/C6H12O3/c7-3-1-6-2-4-8-5-9-6/h6-7H,1-5H2	InChI=1S/C6H12O3/c7-3-1-6-2-4-8-5-9-6/h6-7H,1-5H2/t6-/m0/s1
