20
gdb 94156	2.0423	1.55708	1.31573	3.307	74.9	-0.2259	-0.0282	0.1978	1113.7697	0.168559	-440.28204	-440.272129	-440.271184	-440.317465	36.282	
C	-0.0263051337	 1.4413942425	-0.1384477942	-0.465911
C	 0.0221036885	-0.0491409905	 0.0982893409	 0.387822
O	 1.0676989963	-0.6268928379	 0.3356941804	-0.338654
C	-1.3005537557	-0.8227722919	 0.0404213602	 0.13139
C	-1.9426195384	-0.7965460599	 1.4253668749	-0.469987
N	-2.1347465789	-0.3166535823	-1.0967198295	-0.360891
C	-1.725643373	-1.4963531286	-1.9290130027	-0.21046
C	-1.1871169547	-2.2177649436	-0.6665275234	 0.118016
O	 0.0081082439	-2.9281585185	-0.6991539894	-0.444154
H	 0.9375685126	 1.8848207214	 0.1136104756	 0.137737
H	-0.2678144101	 1.6261754576	-1.189273144	 0.167849
H	-0.8287068073	 1.9074475699	 0.441772205	 0.137577
H	-2.157308373	 0.225302408	 1.7565773639	 0.127506
H	-2.8840441003	-1.3558899142	 1.4110152713	 0.121859
H	-1.2793249735	-1.262273536	 2.1604947388	 0.147745
H	-3.119555776	-0.3817823161	-0.8553812118	 0.219729
H	-2.5336116008	-1.9802550183	-2.4833206646	 0.105291
H	-0.9281486356	-1.2204941517	-2.6280043395	 0.111842
H	-1.9717092076	-2.8731956803	-0.2629514873	 0.07403
H	 0.7002247975	-2.3350804896	-0.3657792948	 0.301662
30.7791	83.5459	104.7562	200.3071	224.7256	247.6598	264.0916	309.5454	371.9323	434.1581	467.4522	495.2426	558.6171	624.9342	640.0188	690.1705	814.2163	859.1551	899.6212	952.013	969.8666	977.337	1018.6164	1044.5425	1114.0012	1141.9806	1157.4948	1192.5511	1208.1955	1244.7015	1284.9829	1293.7438	1380.42	1382.5086	1389.958	1401.8324	1449.353	1458.2897	1464.2547	1489.1311	1493.6928	1504.1222	1770.8518	2999.785	3029.4878	3039.7389	3052.7132	3097.6249	3102.8385	3113.796	3116.8643	3158.6583	3505.5138	3666.6624
CC(=O)C1(C)NCC1O	CC(=O)[C@@]1(C)NC[C@H]1O	
InChI=1S/C6H11NO2/c1-4(8)6(2)5(9)3-7-6/h5,7,9H,3H2,1-2H3	InChI=1S/C6H11NO2/c1-4(8)6(2)5(9)3-7-6/h5,7,9H,3H2,1-2H3/t5-,6-/m1/s1
