15
gdb 45475	3.52739	1.48093	1.18439	3.0543	66.9	-0.2688	-0.06	0.2088	1000.3141	0.114272	-457.778445	-457.771518	-457.770574	-457.810239	26.206	
O	-0.0701361471	-0.0111798318	 0.0939171231	-0.327431
C	-0.0691729122	 1.1766704563	-0.0917003967	 0.415916
O	-1.184051424	 1.7662004314	-0.6096384782	-0.25015
C	-1.2860169946	 3.1751478357	-0.7130606572	 0.072424
C	-1.7087044772	 3.9790040655	 0.532550979	-0.108342
O	-0.6351167313	 4.9244630391	 0.3055786872	-0.28612
C	-0.0157751911	 4.0481164404	-0.6744215861	 0.023357
C	 1.163311307	 3.3340853678	-0.0996244933	-0.06927
C	 1.1080888037	 2.03279176	 0.1863494234	-0.188635
H	-1.918782543	 3.3649739041	-1.58028773	 0.118085
H	-2.689692232	 4.4622754035	 0.5142749535	 0.122168
H	-1.585946465	 3.4225593687	 1.4701007601	 0.119638
H	 0.2408187601	 4.6008445215	-1.5850116473	 0.09915
H	 2.0552258896	 3.9201427976	 0.1057841383	 0.126619
H	 1.942401477	 1.4949739002	 0.6216608142	 0.13259
93.5689	113.4147	234.8913	381.9908	407.5666	459.7389	481.9533	567.0481	692.5496	729.0258	802.5057	840.1847	870.5978	881.9164	942.026	999.0774	1006.1592	1022.9892	1055.1737	1077.9341	1138.2619	1152.6911	1181.2874	1243.858	1273.5134	1280.7736	1335.9588	1373.631	1402.2154	1415.028	1514.2081	1701.4569	1829.6925	3027.9569	3045.3137	3091.0447	3114.7541	3168.8383	3208.835
O=C1OC2COC2C=C1	O=C1O[C@H]2CO[C@H]2C=C1	
InChI=1S/C6H6O3/c7-6-2-1-4-5(9-6)3-8-4/h1-2,4-5H,3H2	InChI=1S/C6H6O3/c7-6-2-1-4-5(9-6)3-8-4/h1-2,4-5H,3H2/t4-,5-/m0/s1
