16
gdb 123761	4.79885	1.03957	0.93331	3.5676	69.98	-0.2534	-0.0121	0.2413	1228.1483	0.125729	-437.853226	-437.84582	-437.844875	-437.886426	26.807	
C	 0.0770913702	 1.3937651888	-0.2830025773	-0.062711
C	 1.5138604113	 1.5074330808	 0.2594787624	-0.28681
C	 1.2893518215	 0.0443091735	 0.7359076774	 0.008525
O	 0.0139613526	-0.0107046402	 0.0561098799	-0.288061
C	 2.2180147084	-1.0184123616	 0.2631625253	 0.142657
C	 2.0650320826	-1.8392924535	-0.810171887	 0.003454
O	 3.1114719804	-2.6700927072	-0.9253986048	-0.164232
N	 4.0118634877	-2.408405552	 0.1005580628	-0.130715
C	 3.4717458932	-1.4383666245	 0.7954637291	-0.061734
H	-0.6724171808	 1.975671118	 0.2674605922	 0.107277
H	-0.0612776149	 1.5598976706	-1.3566021696	 0.111894
H	 2.2817229496	 1.6014436977	-0.5092257524	 0.12035
H	 1.6852427203	 2.2464054299	 1.0429393221	 0.115513
H	 1.1549941862	-0.0261808114	 1.8250552211	 0.087929
H	 1.2788243788	-1.9474259231	-1.5390510686	 0.164818
H	 3.9977834428	-1.061936966	 1.6620775775	 0.131846
48.3274	86.673	143.5564	199.4929	373.7561	424.0087	620.5106	646.8669	687.0203	784.2788	844.7761	859.1301	902.3444	909.4462	921.6209	941.0965	955.8378	1013.8989	1029.9645	1062.0465	1094.039	1145.7293	1168.6469	1200.5917	1214.2412	1255.0773	1266.7153	1284.5351	1333.4735	1355.3656	1423.381	1477.4112	1488.9817	1532.7283	1650.7861	2992.8152	3023.492	3069.5544	3086.796	3145.8953	3238.6284	3285.3127
C1CC(O1)C1=CON=C1	C1C[C@@H](O1)c1conc1	
InChI=1S/C6H7NO2/c1-2-8-6(1)5-3-7-9-4-5/h3-4,6H,1-2H2	InChI=1S/C6H7NO2/c1-2-8-6(1)5-3-7-9-4-5/h3-4,6H,1-2H2/t6-/m1/s1
