23
gdb 112970	5.14155	0.76098	0.73292	1.6552	86.13	-0.2625	0.0855	0.3479	1649.1498	0.205493	-388.263416	-388.253928	-388.252984	-388.298288	35.439	
C	-0.2819468746	 1.6227833839	 0.1322564488	-0.381571
C	-0.034155118	 0.111527262	 0.1440714723	-0.176042
C	-1.3165962812	-0.7142631605	 0.0332288204	 0.032545
C	-1.9532033639	-0.7476743599	-1.3894482167	-0.249456
C	-1.3400511917	-2.1640825903	-1.6057040861	 0.008607
C	-1.0828579283	-2.2496946026	-0.0757915769	-0.26921
C	-2.2155705624	-3.1991888407	-2.2571452945	 0.066632
C	-2.290130348	-4.5923770945	-1.8007496372	-0.182703
O	-3.3402895422	-3.6676194178	-1.5044717876	-0.234172
H	 0.6562963058	 2.1816850282	 0.2052154609	 0.110649
H	-0.7852316075	 1.9391248507	-0.7877421818	 0.116712
H	-0.9157598439	 1.9235227474	 0.9739544286	 0.114379
H	 0.6471913325	-0.1567403049	-0.6753622349	 0.090071
H	 0.484778905	-0.1663217741	 1.0711617896	 0.092836
H	-2.00470628	-0.4152301183	 0.8307351277	 0.064677
H	-3.0451181064	-0.7882724005	-1.3540484076	 0.111226
H	-1.6537011925	 0.0372048063	-2.0896932576	 0.092551
H	-0.4022177598	-2.1031096299	-2.1688387813	 0.073261
H	-0.1069735881	-2.623630587	 0.2473050291	 0.088626
H	-1.8706863555	-2.8201051498	 0.4223277898	 0.11505
H	-2.4497225048	-3.0056867527	-3.3067501354	 0.08767
H	-2.5479719389	-5.383102934	-2.5039295243	 0.113481
H	-1.6955586257	-4.908085331	-0.9446706456	 0.11418
57.9302	90.2313	110.8624	160.2705	201.7525	237.7227	249.8288	368.3608	414.963	447.7933	566.8125	642.3127	761.6431	807.3711	815.881	820.4985	876.8081	908.3857	937.0168	952.877	967.3705	992.8554	1014.6666	1045.9654	1071.6166	1089.0489	1122.8075	1140.4413	1156.1264	1162.957	1174.7201	1228.6477	1236.7326	1262.2755	1270.1601	1279.7267	1294.5391	1304.7283	1343.4496	1369.8629	1394.5024	1411.7333	1429.2917	1468.3718	1485.1198	1493.1897	1499.6047	1506.8055	1528.2639	3007.0517	3030.2254	3032.7117	3043.784	3048.7217	3051.1195	3057.8761	3079.8106	3085.5847	3096.7768	3101.2571	3108.4617	3113.119	3169.7103
CCC1CC(C1)C1CO1	CC[C@H]1C[C@@H](C1)[C@H]1CO1	
InChI=1S/C8H14O/c1-2-6-3-7(4-6)8-5-9-8/h6-8H,2-5H2,1H3	InChI=1S/C8H14O/c1-2-6-3-7(4-6)8-5-9-8/h6-8H,2-5H2,1H3/t6-,7-,8-/m1/s1
