20
gdb 40812	3.98675	1.09346	0.9059	1.0882	82.05	-0.2348	0.019	0.2537	1303.7681	0.172235	-403.112935	-403.10484	-403.103896	-403.145856	31.261	
C	-0.1813873104	 1.3553308221	-0.1543326974	-0.223634
C	 1.2485246571	 0.9879794385	 0.0309243826	-0.222377
N	 0.2080187321	-0.0356658697	 0.0637699442	-0.072549
C	-0.1076670537	-0.5954286442	 1.3787870293	-0.012708
C	-1.5351687317	-1.1578539641	 1.3621483942	-0.096938
O	-1.7977286009	-1.8988321332	 2.5393817758	-0.249977
C	-1.0066934842	-3.0672254922	 2.6400994144	-0.115584
C	 0.4332858082	-2.8444031236	 2.2703274535	-0.084663
C	 0.8498908063	-1.7132102953	 1.709156119	-0.053317
H	-0.6663437473	 1.8846946083	 0.6648277392	 0.111697
H	-0.5703574013	 1.5888333658	-1.1409445814	 0.118006
H	 1.9247277032	 0.9484598599	-0.8180692673	 0.117498
H	 1.7143133818	 1.2748601196	 0.9727484855	 0.111787
H	-0.0457928726	 0.1850869521	 2.1627227713	 0.067401
H	-2.2771631479	-0.3551572962	 1.3304802779	 0.103477
H	-1.6562662138	-1.777319697	 0.4600160483	 0.100785
H	-1.0897054974	-3.4023246419	 3.6811234681	 0.116533
H	-1.4276947904	-3.8752765496	 2.0127930748	 0.099473
H	 1.1207655809	-3.6608530768	 2.4760727625	 0.093466
H	 1.8947713121	-1.5628882826	 1.4516050757	 0.091625
87.8597	97.7287	181.6151	253.324	301.6644	335.8855	418.8528	465.9006	494.7021	555.1525	679.4674	766.9683	808.546	879.1658	898.7831	903.3815	928.5647	988.0285	993.794	1023.6453	1031.9069	1044.0466	1089.6519	1109.6052	1111.4712	1118.415	1148.1119	1177.2469	1187.6009	1215.7253	1243.7257	1302.1504	1314.7744	1326.3958	1347.2148	1370.6046	1406.3515	1424.1866	1486.4041	1491.2213	1501.7824	1518.3288	1726.4654	2897.0362	2932.6608	2992.5002	3046.9113	3088.6022	3092.8214	3097.4008	3153.2384	3175.8114	3177.3658	3191.57
C1CN1C1COCC=C1	C1CN1[C@H]1COCC=C1	
InChI=1S/C7H11NO/c1-2-7(6-9-5-1)8-3-4-8/h1-2,7H,3-6H2	InChI=1S/C7H11NO/c1-2-7(6-9-5-1)8-3-4-8/h1-2,7H,3-6H2/t7-/m1/s1
