16
gdb 56389	3.28978	0.72913	0.61652	3.4495	81.6	-0.2549	-0.0214	0.2335	1746.9348	0.120959	-400.716908	-400.706315	-400.705371	-400.754875	36.119	
C	-0.2643411379	 1.627373609	-0.2495584295	-0.379683
C	-0.031536145	 0.1039588394	-0.076898305	-0.333099
C	-1.2942647143	-0.6076756664	 0.1499787301	 0.340555
C	-2.3392979407	-1.1653782362	 0.3472690711	-0.461527
C	 0.7015940407	-0.4489156684	-1.2198411125	 0.093127
C	 1.3199033063	-0.876009513	-2.1613628671	 0.032893
C	 2.1138082983	-1.3520481442	-3.2867410019	 0.26363
N	 1.5487909627	-2.4029097533	-3.9485746043	-0.51988
O	 3.1762413603	-0.8524028535	-3.6023377456	-0.334319
H	 0.6931352391	 2.1374488956	-0.3769766856	 0.137953
H	-0.8851994576	 1.8185516048	-1.1272107877	 0.141904
H	-0.7710587884	 2.0247356107	 0.6329157397	 0.132462
H	 0.5987064258	-0.0358402099	 0.8136110253	 0.147843
H	-3.2593657286	-1.6663562235	 0.5216517795	 0.202978
H	 0.6816079965	-2.8115743356	-3.6476427014	 0.268831
H	 2.0474714326	-2.8020972056	-4.7266423451	 0.266332
12.7851	61.4559	93.4299	102.4662	148.9423	203.7409	235.2586	246.0902	347.6406	391.0336	474.3065	550.3619	571.3886	573.7056	603.7597	635.6901	651.5442	720.0492	773.4237	838.4021	978.6217	1049.7835	1071.1365	1089.5347	1148.7887	1291.7943	1320.7117	1348.8043	1404.7492	1489.4509	1496.8009	1607.5857	1774.9802	2243.0656	2352.4271	3001.8376	3055.3549	3138.4547	3142.4722	3503.8904	3603.2192	3745.9622
CC(C#C)C#CC(N)=O	C[C@@H](C#C)C#CC(=O)N	
InChI=1S/C7H7NO/c1-3-6(2)4-5-7(8)9/h1,6H,2H3,(H2,8,9)	InChI=1S/C7H7NO/c1-3-6(2)4-5-7(8)9/h1,6H,2H3,(H2,8,9)/t6-/m0/s1
