19
gdb 76672	3.03249	1.07876	0.92577	7.6459	72.03	-0.2346	0.0401	0.2747	1289.1814	0.161033	-456.355853	-456.346939	-456.345995	-456.38946	33.935	
N	-0.3003868077	 1.4272277372	 0.0519304366	-0.532244
C	-0.1009295559	-0.0121465512	 0.1413755044	-0.006328
C	-0.4372999664	-0.7312253838	 1.4356239473	-0.07009
N	-0.9080383683	 0.108857797	 2.5091278655	-0.515357
H	-0.6329238304	 1.7583546469	 0.9573662895	 0.253367
H	-1.6479155886	-0.3458099908	 3.034437272	 0.244586
H	-0.156670057	 0.3083719207	 3.1614898406	 0.238819
C	-1.3284324618	-0.8852702129	 0.2098013905	-0.033635
C	-2.7248692418	-0.2862923802	 0.1430636145	-0.367381
C	-3.1140548269	 0.1783808861	-1.2669233898	 0.395168
O	-4.0558923846	-0.2736946047	-1.8657562609	-0.333296
O	-2.3394049313	 1.1363895253	-1.7919260322	-0.382918
H	 0.5786703548	 1.8942168731	-0.1417228503	 0.245375
H	-1.6102338396	 1.3918099563	-1.1675235182	 0.324511
H	 0.7378243643	-0.3681639627	-0.4462429261	 0.102051
H	 0.1698347564	-1.59902535	 1.6946510022	 0.083219
H	-1.2417788697	-1.8440993446	-0.2933247703	 0.104101
H	-3.4694123208	-1.0235247792	 0.4509174879	 0.124835
H	-2.8019086744	 0.5677859377	 0.8231510667	 0.125215
87.1618	117.4789	168.3018	230.7513	250.1514	287.4766	289.2808	370.2539	443.3377	486.4002	564.0231	609.0235	629.2846	721.3791	765.8389	804.7893	862.8227	893.2983	903.5128	929.7437	957.1115	1019.3319	1024.8502	1076.5329	1094.0487	1127.5728	1141.5047	1196.0208	1246.9889	1252.4413	1271.8622	1298.4347	1307.1439	1379.735	1391.3069	1468.6018	1474.335	1486.551	1637.563	1658.515	1852.8276	3062.4414	3085.3218	3114.4779	3149.1968	3172.9601	3219.1153	3457.1748	3501.0888	3570.3164	3575.5069
NC1C([NH3+])C1CC([O-])=O	N[C@H]1[C@@H](N)[C@H]1CC(=O)O	
InChI=1S/C5H10N2O2/c6-4-2(5(4)7)1-3(8)9/h2,4-5H,1,6-7H2,(H,8,9)	InChI=1S/C5H10N2O2/c6-4-2(5(4)7)1-3(8)9/h2,4-5H,1,6-7H2,(H,8,9)/t2-,4+,5-
