15
gdb 124094	3.7033	1.59117	1.14808	2.7863	66.5	-0.2165	0.015	0.2315	989.6951	0.116798	-453.949648	-453.943064	-453.94212	-453.98066	25.64	
C	 0.0207475264	 1.4040901998	 0.0178144721	-0.001792
O	 1.3115542732	 1.9497024642	-0.0116607853	-0.234942
C	 2.0804362379	 1.6405856567	 1.1534109778	-0.197052
C	 1.8447047089	 0.1999423011	 1.4720700565	 0.225529
C	 0.8676692789	-0.5383499512	 0.8425551886	 0.251815
O	 0.0119333509	-0.0154417081	-0.0798714854	-0.268971
C	 0.9776590294	-1.8459936808	 1.3548005407	-0.125223
N	 1.9618665332	-1.913408534	 2.2516353449	-0.21901
N	 2.4727906917	-0.6670726868	 2.3091477705	-0.295356
H	-0.4992194706	 1.6937089567	 0.9462208983	 0.094597
H	-0.5035417866	 1.7788602867	-0.86118526	 0.129988
H	 3.1219083192	 1.8507881336	 0.8877780816	 0.134084
H	 1.805091035	 2.3085046611	 1.9861701065	 0.113104
H	 0.3975200175	-2.7223929003	 1.1117960703	 0.119799
H	 3.2356800751	-0.4875596388	 2.9388785029	 0.27343
124.8825	218.0607	314.9763	389.3172	402.2594	443.6679	475.711	585.8698	670.7399	697.4143	724.2986	786.8231	864.6875	945.8401	961.7183	1007.4203	1031.7095	1086.7273	1123.8514	1140.1474	1214.3917	1240.3752	1252.7437	1295.1461	1320.1955	1379.1992	1401.5602	1444.4828	1451.8292	1494.3312	1505.9691	1559.5505	1638.308	2963.0412	2969.2946	3065.2951	3138.735	3260.6924	3677.0418
C1OCC2=C(O1)C=NN2	C1OCc2c(O1)cn[nH]2	
InChI=1S/C5H6N2O2/c1-5-4(7-6-1)2-8-3-9-5/h1H,2-3H2,(H,6,7)	InChI=1S/C5H6N2O2/c1-5-4(7-6-1)2-8-3-9-5/h1H,2-3H2,(H,6,7)
