19
gdb 32115	3.62737	1.10363	0.85706	3.4093	89.1	-0.2001	-0.0105	0.1897	1367.9417	0.160659	-382.131765	-382.122751	-382.121806	-382.166289	32.972	
C	 0.007690706	 1.4457052836	-0.0758116915	-0.323761
N	-0.1566236969	 0.0209419985	 0.1316253791	-0.374022
C	 0.5656621852	-0.665766517	 1.0933182161	 0.320398
C	 1.2550211418	-0.0137405297	 2.1322263705	-0.076803
N	 1.9186303936	-0.6579698514	 3.0898615148	-0.265561
C	 1.9381859508	-1.9897186174	 3.0626334928	-0.087696
C	 1.3000573427	-2.7528850226	 2.0794565305	 0.285221
C	 1.3600489833	-4.2592099333	 2.097990019	-0.496354
C	 0.6093377936	-2.0663488143	 1.0879899281	-0.253951
H	 1.0511903527	 1.7430692194	-0.262858111	 0.120305
H	-0.5965706829	 1.7465010621	-0.9343673056	 0.125236
H	-0.3516110208	 2.0080290427	 0.7929798891	 0.139047
H	-0.344978849	-0.5095299857	-0.7040853103	 0.236552
H	 1.2662357906	 1.0705660372	 2.1885009115	 0.094018
H	 2.4915960942	-2.4830212513	 3.8588807633	 0.09116
H	 0.3606783388	-4.6984474832	 2.1939142431	 0.131511
H	 1.7982039778	-4.6544592393	 1.1747136728	 0.129475
H	 1.9640507761	-4.6185361067	 2.9353306921	 0.127407
H	 0.0936570525	-2.6147970716	 0.3021811456	 0.077818
31.9813	91.37	177.815	211.7073	222.4464	253.072	309.0603	402.7999	465.7492	470.1467	541.0569	585.2467	609.3301	735.6073	739.8662	881.642	909.9779	930.564	940.4787	1013.4208	1033.4512	1063.7884	1095.4651	1152.9887	1167.9299	1201.9902	1225.5876	1294.8211	1338.8626	1360.9149	1413.4881	1436.0964	1463.6216	1479.9936	1485.2189	1486.7305	1504.2641	1521.6046	1546.6562	1607.1252	1642.1815	2984.0744	3030.7703	3062.3579	3084.0231	3114.7518	3121.4426	3143.2865	3146.4034	3167.9584	3620.0468
CNC1=CN=CC(C)=C1	CNc1cncc(C)c1	
InChI=1S/C7H10N2/c1-6-3-7(8-2)5-9-4-6/h3-5,8H,1-2H3	InChI=1S/C7H10N2/c1-6-3-7(8-2)5-9-4-6/h3-5,8H,1-2H3
