17
gdb 30293	2.99404	1.56531	1.12174	1.0935	74.19	-0.2187	0.0155	0.2342	1064.3254	0.138447	-421.856345	-421.848963	-421.848019	-421.888402	28.715	
O	-0.2153303618	 1.5122384718	-0.1540607768	-0.426792
C	 0.0752303114	 0.1259039928	 0.019575646	-0.013249
C	-1.2096642977	-0.7756255132	 0.147732067	-0.233214
C	-1.3781491171	-1.6044612497	-1.171365836	-0.361945
C	-0.0381111612	-1.3819421741	-1.7801204073	 0.32589
C	 0.7694652982	-0.4900569094	-1.1586983507	 0.209774
C	 1.9715654291	-0.42932616	-1.9401762304	-0.367293
C	 1.7751828076	-1.3046362418	-2.9646347214	-0.012854
O	 0.5390145037	-1.9012417677	-2.884869518	-0.200896
H	-0.5311342695	 1.6266053591	-1.0572863182	 0.273622
H	 0.6565998445	 0.0927070693	 0.9460521503	 0.08987
H	-1.087374393	-1.4611308737	 0.9909181972	 0.112067
H	-2.0750007741	-0.1447574936	 0.3629524632	 0.112453
H	-1.5958741427	-2.6575835355	-0.9648501773	 0.120974
H	-2.1931736647	-1.2334552043	-1.8054639199	 0.11756
H	 2.8566909395	 0.1651260746	-1.7755659122	 0.119135
H	 2.3817741178	-1.6159879946	-3.7990557555	 0.134897
79.9473	152.3578	215.8573	312.6516	335.7873	432.1463	466.8699	607.2409	619.8071	674.1086	712.3098	738.5953	768.088	814.2429	830.4911	904.247	921.0083	972.8203	1007.8502	1038.3246	1062.6462	1090.9198	1152.2145	1158.4007	1211.9952	1242.5842	1262.5733	1267.0386	1293.5892	1330.1538	1367.3226	1432.3177	1463.531	1478.6023	1503.9776	1525.1513	1649.4375	3026.7364	3055.8381	3063.6081	3073.0454	3117.6127	3253.9529	3283.394	3799.9186
OC1CCC2=C1C=CO2	O[C@H]1CCc2c1cco2	
InChI=1S/C7H8O2/c8-6-1-2-7-5(6)3-4-9-7/h3-4,6,8H,1-2H2	InChI=1S/C7H8O2/c8-6-1-2-7-5(6)3-4-9-7/h3-4,6,8H,1-2H2/t6-/m0/s1
