17
gdb 18910	4.06098	2.35312	2.06661	1.7467	70.03	-0.2185	0.0847	0.3033	737.2183	0.144058	-326.677823	-326.671707	-326.670763	-326.707573	25.337	
C	-0.1273637436	 1.5122591133	-0.0315555654	-0.50986
C	 0.1271446989	 0.0397927317	 0.0325631164	 0.359027
C	 0.7695266629	-0.8207380039	-1.0757688286	-0.170347
C	 1.0731779731	-2.1376463371	-0.3736090098	-0.077235
C	 1.1598800335	-1.9351061387	 1.1253788524	-0.243048
C	 0.1454803807	-0.8204161558	 1.2451653857	-0.094576
N	-0.9671047005	-0.9693163323	 0.2445359561	-0.20141
C	-0.3265280479	-1.8198823354	-0.8293332086	-0.013788
H	 0.8088957595	 2.0766005018	 0.0525475619	 0.11855
H	-0.6049229112	 1.7888943515	-0.9780033553	 0.124787
H	-0.7889183608	 1.8221258989	 0.7826504925	 0.128949
H	 1.2304654655	-0.478747423	-1.9918467599	 0.089689
H	 1.644968353	-2.8941800163	-0.8963137726	 0.089932
H	 0.8677452842	-2.8292091193	 1.6866980761	 0.108011
H	 2.1541815911	-1.6198555641	 1.4605505518	 0.105353
H	-0.1675075192	-0.4323128841	 2.2083934029	 0.091387
H	-0.9414991893	-2.4147872974	-1.4907530557	 0.094579
192.8999	234.4153	289.9122	398.6665	554.3662	585.6555	692.6706	724.0995	764.944	778.0402	819.1223	850.8596	872.5861	909.4579	949.188	959.7564	973.1284	1012.9713	1024.2748	1036.8318	1053.2729	1063.9213	1097.4674	1102.5614	1180.103	1194.0414	1231.9122	1269.8758	1286.4957	1302.0454	1376.0304	1407.0365	1440.4742	1481.7824	1487.6282	1493.916	3026.1825	3042.2269	3085.051	3087.0212	3110.5121	3177.1273	3196.773	3200.8986	3215.894
CC12C3C4CC1N2C34	C[C@@]12[C@H]3[C@H]4C[C@@H]1N2[C@@H]34	
InChI=1S/C7H9N/c1-7-4-2-3-5(7)6(3)8(4)7/h3-6H,2H2,1H3	InChI=1S/C7H9N/c1-7-4-2-3-5(7)6(3)8(4)7/h3-6H,2H2,1H3/t3-,4+,5+,6-,7+,8?/m1/s1
