20
gdb 88755	3.33304	1.2165	1.1494	1.7352	79.07	-0.2158	0.0778	0.2936	1167.1779	0.170314	-403.070566	-403.062154	-403.06121	-403.103949	32.307	
C	 1.2639312246	 1.1774308678	-0.5167577111	-0.417419
C	 0.1516079622	 0.2205809419	-0.1461391108	 0.027767
C	 0.4372012372	-1.0838254646	 0.5204451104	-0.256446
N	-0.2687148727	-0.0236791415	 1.2340838513	-0.09948
C	 0.3364482626	 0.6550972475	 2.3549167066	 0.03591
C	-0.0219275758	 0.0878553839	 3.7790068773	-0.269854
C	 1.4742704002	 0.0825181755	 4.1022029782	 0.023282
O	 2.1001887289	-0.8001344572	 3.1654446994	-0.238911
C	 1.8362765936	 0.5470955838	 2.7522904922	-0.013393
H	 2.1578455922	 1.0300813829	 0.0934743151	 0.123829
H	 1.5494186194	 1.0274704746	-1.5634964509	 0.123096
H	 0.9450002448	 2.2208620371	-0.4121463132	 0.119465
H	-0.6949382682	 0.2559561471	-0.8319070855	 0.087212
H	-0.1520046587	-1.968248125	 0.2897713606	 0.10945
H	 1.4686314083	-1.2864898241	 0.7948753332	 0.132232
H	 0.057248481	 1.7131108181	 2.3036056557	 0.085356
H	-0.6178203301	 0.7824011602	 4.374666718	 0.106245
H	-0.4866477371	-0.899857124	 3.7818319413	 0.117749
H	 1.9783988119	 0.2381731026	 5.0483709463	 0.105411
H	 2.6861753459	 1.1322514633	 2.4174498558	 0.0985
48.2398	148.291	155.0021	210.5435	276.1234	289.038	383.4377	429.2925	492.98	606.8145	711.0374	753.4586	787.4903	833.5902	851.5215	882.3305	904.141	917.0329	951.3026	970.993	993.6152	1026.1505	1045.1748	1065.2863	1102.3383	1116.5289	1144.3269	1156.9616	1169.1772	1195.1142	1212.8691	1235.5392	1241.0088	1275.6165	1346.5262	1371.2142	1383.013	1402.9131	1420.7033	1469.6411	1490.4182	1500.4412	1519.3783	3033.4287	3050.462	3075.6749	3089.4606	3096.5577	3105.8864	3128.018	3135.8693	3168.0883	3193.6068	3195.6172
CC1CN1C1CC2OC12	C[C@H]1CN1[C@H]1C[C@H]2O[C@@H]12	
InChI=1S/C7H11NO/c1-4-3-8(4)5-2-6-7(5)9-6/h4-7H,2-3H2,1H3	InChI=1S/C7H11NO/c1-4-3-8(4)5-2-6-7(5)9-6/h4-7H,2-3H2,1H3/t4-,5-,6+,7-,8?/m0/s1
