19
gdb 64967	2.58985	1.22424	1.02705	2.4339	81.76	-0.242	-0.021	0.221	1241.5979	0.156268	-385.866208	-385.856534	-385.855589	-385.901254	35.923	
C	 0.2314003612	 0.8942249641	-0.9876356046	-0.501333
C	-0.1793797264	-0.2786432144	-0.1177020823	 0.247762
C	 0.7647911191	-1.4794737473	-0.025700809	-0.270613
C	 0.6340809436	-0.5623219723	 1.1409327433	-0.279672
C	-1.6282481562	-0.648720885	-0.0049035642	 0.326753
O	-2.0192053436	-1.4883071525	 0.77526078	-0.317825
C	-2.6479399888	 0.0652089494	-0.9212548836	-0.435519
C	-2.5147700184	-0.3417234692	-2.3140459757	 0.304761
C	-2.3962783435	-0.7051505909	-3.4537933528	-0.458253
H	 1.320502227	 0.9966048824	-0.9885850814	 0.117822
H	-0.0919261322	 0.7663393399	-2.0244357588	 0.142383
H	-0.1800478141	 1.8395491693	-0.6153474053	 0.11894
H	 0.2964237597	-2.453751907	 0.0468581975	 0.137559
H	 1.6609933629	-1.4346376576	-0.6346365835	 0.117109
H	 1.4423122389	 0.1277873517	 1.3564208207	 0.114359
H	 0.0768896194	-0.9208606309	 1.9979613161	 0.138692
H	-3.6399769642	-0.1945406821	-0.541052286	 0.152895
H	-2.5256348181	 1.1520894277	-0.8363375338	 0.141414
H	-2.3026704664	-1.0209281153	-4.4632610767	 0.202766
34.0834	73.7557	133.4247	224.8836	246.9864	280.2794	323.8808	339.1337	349.6916	380.711	448.0425	554.5415	621.1852	627.0392	642.1975	745.1556	795.1722	825.349	855.8325	925.7745	960.8394	961.7604	979.6304	1051.159	1078.9235	1087.7097	1102.9997	1119.5742	1204.3152	1211.9483	1290.7909	1315.6892	1338.7236	1421.8605	1451.1566	1454.7434	1483.1672	1496.1396	1508.4858	1786.8311	2235.084	3030.6388	3034.7097	3093.5456	3095.2317	3115.183	3138.6835	3140.835	3228.3115	3242.0821	3505.6474
CC1(CC1)C(=O)CC#C	CC1(CC1)C(=O)CC#C	
InChI=1S/C8H10O/c1-3-4-7(9)8(2)5-6-8/h1H,4-6H2,2H3	InChI=1S/C8H10O/c1-3-4-7(9)8(2)5-6-8/h1H,4-6H2,2H3
