16
gdb 23907	4.2244	1.03846	1.02095	2.7148	54.73	-0.2367	0.0714	0.3081	1184.6442	0.126529	-511.426036	-511.41736	-511.416415	-511.460379	30.328	
C	-0.1996917479	 1.4663722089	-0.1035815086	-0.389738
C	-0.4030299032	-0.0250508524	-0.3455904208	-0.114255
N	-1.1605428012	-0.6270299346	 0.7522251273	-0.284989
C	-1.3756332583	-2.05585573	 0.6451336596	-0.298433
C	-2.6728077885	-2.381349383	-0.085898307	 0.299854
F	-2.6930192453	-1.8776150634	-1.3326949193	-0.083651
F	-2.8187865651	-3.7140992165	-0.1914798107	-0.082656
F	-3.7436327446	-1.9054349708	 0.5554743293	-0.07112
H	 0.3497992356	 1.9205492302	-0.9330448069	 0.11949
H	-1.1619674915	 1.9755599976	-0.000852172	 0.132494
H	 0.3768980659	 1.6440339767	 0.8121084069	 0.110701
H	-0.9689518987	-0.1777986721	-1.268980608	 0.12274
H	 0.576353103	-0.5187286695	-0.4916119683	 0.078846
H	-0.7124127157	-0.4129828067	 1.6344159533	 0.223318
H	-0.5681639138	-2.5953291004	 0.1221323957	 0.10928
H	-1.4741300705	-2.4951404839	 1.6417226496	 0.12812
51.2799	65.4187	115.8957	224.3458	254.2497	262.3545	321.1003	375.5912	490.9353	533.7024	560.7044	633.8538	736.0764	816.0384	836.1321	886.1123	973.3215	1040.4993	1110.2678	1151.8777	1166.9375	1190.039	1219.5075	1286.4397	1302.2721	1335.5471	1388.6889	1414.1648	1418.4268	1470.0838	1487.1825	1498.9862	1512.4687	1527.8845	2924.0316	2970.7534	3032.5347	3080.8356	3097.0031	3104.1399	3122.9498	3549.3941
CCNCC(F)(F)F	CCNCC(F)(F)F	
InChI=1S/C4H8F3N/c1-2-8-3-4(5,6)7/h8H,2-3H2,1H3	InChI=1S/C4H8F3N/c1-2-8-3-4(5,6)7/h8H,2-3H2,1H3
