22
gdb 118188	2.4472	0.87893	0.72549	2.3296	79.61	-0.2638	0.0595	0.3233	1665.6612	0.192279	-441.549783	-441.538776	-441.537832	-441.586753	39.332	
C	 0.0256741671	 1.5783895586	 0.0596795529	-0.380899
C	-0.0060067639	 0.0487293447	 0.0085312432	-0.170945
C	 0.7291885602	-0.5204289178	-1.209317022	-0.175833
C	 0.7191799	-2.0448333792	-1.2857318527	 0.138797
C	 1.3748245208	-2.5930944276	-2.5486240454	-0.411164
O	 1.4411860934	-2.5193545059	-0.1201400863	-0.274579
C	 1.1021927535	-3.7467697078	 0.341412306	 0.495762
N	 1.8256297686	-4.0324978521	 1.4674465548	-0.562015
O	 0.2631424356	-4.470710094	-0.1441674903	-0.403304
H	 1.0549630664	 1.9519075206	 0.104002667	 0.112984
H	-0.4450074736	 2.0165324611	-0.8277753801	 0.112286
H	-0.503848372	 1.9591412318	 0.9385192505	 0.112268
H	 0.4420933727	-0.3631296785	 0.9192554405	 0.10839
H	-1.0478258462	-0.2975968755	-0.0046826809	 0.09661
H	 0.2720480504	-0.1365818626	-2.1303989049	 0.095987
H	 1.7713388268	-0.1738126478	-1.2123320136	 0.097356
H	-0.3042295763	-2.4253462404	-1.2123249841	 0.107679
H	 0.8427404531	-2.2361350353	-3.4360455253	 0.116265
H	 2.4175003902	-2.2660818107	-2.6174218287	 0.115672
H	 1.3428677167	-3.6848252231	-2.5470912302	 0.140146
H	 2.6460428636	-3.4849416158	 1.6644430912	 0.261761
H	 1.817585703	-4.9929149129	 1.7647043883	 0.266776
49.3591	68.6187	78.3009	123.2835	175.9532	206.1568	244.7579	248.6727	302.3089	341.4296	354.6944	455.8041	478.801	492.2176	524.3291	665.3078	743.8945	785.4265	824.349	878.2839	892.8997	944.5782	998.7182	1032.4729	1051.3902	1076.3995	1111.847	1145.751	1152.9645	1196.6065	1270.779	1296.6305	1330.3872	1343.2406	1369.981	1400.2619	1406.1643	1411.0731	1414.5409	1474.352	1488.4004	1494.1927	1500.3542	1503.8049	1510.7226	1610.4577	1824.9467	3016.1392	3025.4449	3029.031	3040.7865	3049.7598	3068.3072	3075.8464	3097.1372	3101.6745	3111.8328	3132.4904	3613.3384	3743.0228
CCCC(C)OC(N)=O	CCC[C@@H](C)OC(=O)N	
InChI=1S/C6H13NO2/c1-3-4-5(2)9-6(7)8/h5H,3-4H2,1-2H3,(H2,7,8)	InChI=1S/C6H13NO2/c1-3-4-5(2)9-6(7)8/h5H,3-4H2,1-2H3,(H2,7,8)/t5-/m1/s1
