17
gdb 44372	3.32077	1.64005	1.38203	4.5386	70.79	-0.2569	0.0153	0.2721	948.1798	0.138518	-421.839039	-421.832407	-421.831462	-421.870109	26.931	
O	 0.017208288	 0.0276449412	-0.6446755008	-0.325002
C	-0.0398963464	 1.1023848777	-0.1152659311	 0.403563
C	-1.3444051457	 1.8591245988	 0.1081192328	-0.350589
C	-1.2516881536	 2.910588504	 1.2080261588	-0.045542
C	-0.608515228	 2.4414174689	 2.5594958782	-0.255079
C	 0.6250658191	 3.2916189818	 2.2556370899	-0.090474
C	 1.1374268556	 2.9858378843	 0.8811839494	 0.12122
O	 1.1118555504	 1.6843674234	 0.3177299163	-0.229578
C	-0.0610528967	 3.8558149734	 0.9874175639	-0.122804
H	-1.6146326696	 2.3297961434	-0.8459783636	 0.136387
H	-2.1086165897	 1.1031873504	 0.3094323251	 0.138254
H	-2.2062704803	 3.4181920259	 1.3525082623	 0.085705
H	-1.166464759	 2.8139042715	 3.4203609973	 0.113112
H	-0.443293892	 1.3662301534	 2.6859892327	 0.11441
H	 1.2431734908	 3.7983389643	 2.9870565817	 0.094922
H	 2.0710908456	 3.464839809	 0.6093916832	 0.116726
H	-0.1014732185	 4.8617226384	 0.5872134638	 0.09477
94.9697	204.7171	319.2396	422.3977	448.0363	499.043	542.7653	604.3682	708.758	737.8717	782.5356	803.3075	831.6661	853.078	898.6069	968.1136	989.7556	1014.3039	1022.5303	1040.5917	1056.7833	1072.4967	1101.041	1149.1757	1174.6859	1190.8072	1219.1085	1255.2911	1265.8605	1298.8457	1317.2408	1356.7803	1370.5868	1434.4098	1458.032	1496.798	1850.2869	3037.4171	3050.0501	3092.8915	3098.4547	3117.3171	3178.429	3179.1726	3193.7899
O=C1CC2CC3C(O1)C23	O=C1C[C@H]2C[C@H]3[C@@H](O1)[C@@H]23	
InChI=1S/C7H8O2/c8-5-2-3-1-4-6(3)7(4)9-5/h3-4,6-7H,1-2H2	InChI=1S/C7H8O2/c8-5-2-3-1-4-6(3)7(4)9-5/h3-4,6-7H,1-2H2/t3-,4-,6+,7-/m1/s1
