17
gdb 44663	2.92005	1.78584	1.56892	3.067	75.54	-0.2345	-0.0162	0.2184	905.002	0.138698	-384.713381	-384.706969	-384.706025	-384.744063	26.772	
O	 0.0025807496	 0.013635016	-0.3130997533	-0.323726
C	-0.0124268777	 1.1860309723	-0.0350799175	 0.401847
C	-1.2706985453	 2.0453093803	 0.1692126139	-0.307815
C	-0.7591577331	 3.3143853776	 0.8978760126	-0.115949
C	-0.5696392851	 2.9571643589	 2.3630101169	-0.080419
C	 0.6906851534	 2.5935402422	 2.6066955141	-0.080635
C	 1.5427785735	 2.8011410069	 1.3994423949	-0.071821
C	 0.6972131026	 3.487407741	 0.3711883775	-0.09073
C	 1.1840526002	 2.0923297834	 0.065059208	-0.164284
H	-1.6531326185	 2.3022065379	-0.8279031446	 0.12552
H	-2.0517661058	 1.491364555	 0.6951430942	 0.122537
H	-1.3995283493	 4.1810473769	 0.7232631325	 0.081087
H	-1.4032918539	 2.8620783426	 3.0491873938	 0.102137
H	 1.0738880727	 2.1933015218	 3.5372761686	 0.102667
H	 2.5970520649	 3.0300935605	 1.5096661719	 0.097366
H	 1.0078801064	 4.3625663551	-0.1855198996	 0.094522
H	 2.0155185153	 1.8852001116	-0.5984796038	 0.107697
109.1022	240.5329	354.8005	446.2588	471.4487	595.7695	616.8511	631.9699	734.9125	747.5218	761.9	799.5763	816.5586	859.5137	884.5187	912.9955	945.7761	966.7132	984.6118	987.2219	1024.8967	1033.5656	1091.6671	1107.0086	1132.044	1150.3991	1185.8956	1203.3463	1282.9499	1287.0391	1302.9855	1325.2195	1368.8632	1382.4063	1451.7708	1663.1171	1834.4895	3028.0961	3089.0855	3109.203	3169.4313	3182.3538	3192.5642	3194.0986	3220.1735
O=C1CC2C=CC3C2C13	O=C1C[C@H]2C=C[C@@H]3[C@H]2[C@H]13	
InChI=1S/C8H8O/c9-6-3-4-1-2-5-7(4)8(5)6/h1-2,4-5,7-8H,3H2	InChI=1S/C8H8O/c9-6-3-4-1-2-5-7(4)8(5)6/h1-2,4-5,7-8H,3H2/t4-,5-,7+,8+/m1/s1
