19
gdb 53041	3.42848	0.90678	0.80861	1.7163	87.71	-0.2209	0.0391	0.26	1502.7603	0.157332	-385.827705	-385.818113	-385.817168	-385.8639	34.223	
C	-0.007762213	 1.5009225591	 0.0245344326	-0.509216
C	 0.0028194437	 0.0459347168	 0.0034546145	 0.250255
C	 0.0076573707	-1.1603192474	-0.0137105484	-0.202084
C	 0.0372069625	-2.5800197304	-0.043247391	 0.098653
C	 0.683902164	-3.4367923096	-1.1381303226	-0.142051
O	-0.3681246885	-4.4319727434	-1.0520395424	-0.282624
C	-1.071619589	-3.6411449925	-0.0973798624	 0.035592
C	-0.2885456372	-3.4722815108	 1.162574118	-0.081751
C	 0.6360724226	-4.5285767092	 1.7227964065	-0.424171
H	 0.6927837661	 1.9099794563	-0.7121790544	 0.149446
H	-1.0014858977	 1.8988041012	-0.211084002	 0.147619
H	 0.2820388335	 1.8912513185	 1.0067137486	 0.14716
H	 0.6678920307	-2.9465510182	-2.1165541979	 0.117853
H	 1.677892551	-3.8542151091	-0.9417353603	 0.106756
H	-2.1472735603	-3.5558874244	-0.2053159373	 0.110844
H	-0.8356684509	-2.8953363412	 1.9052916611	 0.098403
H	 1.0046751848	-5.1864368009	 0.9325570547	 0.137547
H	 1.4935389719	-4.0786736195	 2.2334787549	 0.120887
H	 0.1028449452	-5.1525920654	 2.4478074878	 0.120881
14.2056	86.6365	98.7359	169.8506	225.9699	258.0613	275.2736	301.8583	394.1137	443.6826	503.7726	534.1781	607.2272	748.9465	773.9127	867.7147	929.9048	966.3281	985.2282	1004.4167	1026.7856	1051.4972	1053.4273	1068.8277	1084.4902	1122.6686	1125.4506	1159.0214	1221.7485	1285.3573	1317.7479	1353.3813	1408.7801	1414.5253	1463.0072	1476.0952	1479.2957	1492.3508	1501.6837	1518.9868	2359.8663	3022.7449	3031.4604	3038.3105	3081.1092	3084.4641	3087.0396	3096.754	3123.6011	3142.4956	3177.7408
CC#CC12COC1C2C	CC#C[C@]12CO[C@H]1[C@H]2C	
InChI=1S/C8H10O/c1-3-4-8-5-9-7(8)6(8)2/h6-7H,5H2,1-2H3	InChI=1S/C8H10O/c1-3-4-8-5-9-7(8)6(8)2/h6-7H,5H2,1-2H3/t6-,7+,8-/m1/s1
