20
gdb 70297	3.51129	1.29688	1.17434	2.7631	78.42	-0.2397	0.0827	0.3224	1129.9075	0.171712	-403.12603	-403.117978	-403.117034	-403.158226	32.141	
C	-0.006537175	 1.5070308379	-0.0167611504	-0.470324
C	-0.0457882614	 0.0025633148	 0.0620063836	 0.338341
C	-1.3306755033	-0.7271232929	-0.3230848898	-0.346959
C	-1.1394098	-2.1349095252	 0.2301523372	 0.3909
C	-2.055210196	-3.2494295042	-0.0133686503	-0.251963
O	-0.8248445488	-3.1565591295	-0.7369099067	-0.274286
C	-0.1993877827	-2.0386782949	 1.4290185211	-0.30422
C	 0.6372664501	-0.8082599996	 1.117418094	-0.058472
N	 1.2132611185	-0.7026915999	-0.2322120743	-0.38058
H	 0.9617332226	 1.8813568018	 0.3240711386	 0.129557
H	-0.1528558028	 1.8490506961	-1.0478374734	 0.119325
H	-0.793607565	 1.9557596846	 0.5999057706	 0.110313
H	-2.1907103208	-0.2359390497	 0.1508719928	 0.104362
H	-1.5133172015	-0.7523119633	-1.4024145616	 0.114675
H	-2.1152432649	-4.0675760125	 0.7039477265	 0.112506
H	-2.9574765098	-3.0894965727	-0.6031344816	 0.112506
H	-0.7631854559	-1.8834382507	 2.3579648481	 0.107015
H	 0.3852344047	-2.9574248646	 1.5390796378	 0.117551
H	 1.2260326979	-0.3540785134	 1.909548529	 0.084911
H	 1.0539898841	-1.554177402	-0.7671533612	 0.244842
104.8833	186.7398	207.9363	259.5387	317.5356	382.282	384.8231	417.8257	443.2291	531.876	609.5682	712.6537	773.0296	817.202	846.2993	874.4322	897.4457	932.5194	959.2827	969.0737	992.8839	1038.7416	1080.22	1084.3172	1125.6869	1130.6532	1154.9543	1180.5402	1184.4014	1233.8881	1245.9749	1266.087	1287.9678	1328.7428	1332.6364	1407.21	1430.4675	1444.2908	1469.8558	1481.2923	1487.966	1497.5539	1533.2353	3022.407	3027.702	3030.0653	3076.1504	3078.9379	3084.1461	3087.2905	3121.538	3146.7587	3159.5055	3490.6772
CC12CC3(CO3)CC1N2	C[C@]12C[C@]3(CO3)C[C@H]1N2	
InChI=1S/C7H11NO/c1-6-3-7(4-9-7)2-5(6)8-6/h5,8H,2-4H2,1H3	InChI=1S/C7H11NO/c1-6-3-7(4-9-7)2-5(6)8-6/h5,8H,2-4H2,1H3/t5-,6+,7+/m1/s1
