17
gdb 98123	4.74784	0.75923	0.66928	2.2061	72.72	-0.2373	-0.0716	0.1657	1624.7379	0.132764	-455.170475	-455.160023	-455.159079	-455.208325	34.674	
C	 0.0372018933	 1.4349183471	 0.0052174444	-0.310088
N	-0.0847009901	-0.004605294	 0.0179935947	-0.289569
C	-1.2853711505	-0.6272887929	 0.0363500404	 0.267883
N	-2.3946802011	 0.0219895942	 0.0335475646	-0.537177
C	-1.1386920731	-2.1472678788	 0.0574341975	 0.345894
O	-0.0392687869	-2.6573550219	 0.0544930338	-0.314616
C	-2.4075374746	-2.9856257765	 0.084038095	-0.421531
C	-2.1169478703	-4.4770176635	 0.0628913031	 0.173344
O	-2.645565068	-5.2639216672	 0.8017287993	-0.233212
H	 1.0952738639	 1.7024114217	 0.0114624532	 0.124815
H	-0.4370409051	 1.8628208613	-0.8854063163	 0.141074
H	-0.4523026867	 1.8776171066	 0.8800324582	 0.142683
H	 0.7274162346	-0.5990490943	 0.024194014	 0.264219
H	-3.1926542639	-0.6069060639	 0.0562150313	 0.21947
H	-3.0150699072	-2.7467779463	 0.9629050925	 0.163866
H	-3.0118508696	-2.7364140365	-0.8005499587	 0.160125
H	-1.3870595347	-4.7969800351	-0.707681937	 0.102821
28.3522	49.4086	55.0475	94.3387	118.2996	157.3721	256.5813	306.4267	354.0526	396.4188	432.9101	474.066	526.0299	667.3857	706.6017	787.5301	814.9085	855.8808	967.6891	1031.1217	1057.9163	1125.7443	1161.3724	1181.8444	1187.125	1195.3634	1291.5557	1346.0037	1423.7428	1429.1431	1456.9741	1472.3562	1513.0274	1558.9342	1697.4719	1781.0518	1841.3675	2933.3127	3021.3249	3028.6322	3078.0391	3092.3532	3135.5462	3530.3346	3655.6814
CNC(=N)C(=O)CC=O	CNC(=N)C(=O)CC=O	
InChI=1S/C5H8N2O2/c1-7-5(6)4(9)2-3-8/h3H,2H2,1H3,(H2,6,7)	InChI=1S/C5H8N2O2/c1-7-5(6)4(9)2-3-8/h3H,2H2,1H3,(H2,6,7)
