18
gdb 43722	4.41325	1.12016	1.08038	2.9708	78.33	-0.2526	0.0148	0.2674	1164.886	0.148626	-401.966842	-401.95925	-401.958306	-401.999219	29.828	
N	 0.4978545235	 1.0591163894	 0.6685645818	-0.545072
C	 0.1649246269	-0.0009757837	 0.0863932559	 0.430886
C	-1.1448342098	-0.7109113278	-0.1683246177	-0.437732
C	-0.2695514761	-1.7571914491	-0.89263219	 0.423633
C	-0.1346914545	-3.1767237439	-0.3111066825	-0.316327
C	 0.2631904784	-4.0082739771	-1.5059408742	-0.062062
C	 0.1212301229	-3.3367652004	-2.6475026724	-0.062062
C	-0.3965290203	-1.9381820656	-2.416624012	-0.316326
O	 0.9282644246	-0.9445139242	-0.5635436393	-0.282466
H	 1.5089579348	 1.1996379117	 0.6254840926	 0.225206
H	-1.6578243763	-1.0597314764	 0.7299438477	 0.133817
H	-1.8477618413	-0.1613607626	-0.7972974627	 0.133817
H	 0.5979909229	-3.1879091389	 0.5026871042	 0.125309
H	-1.0887963253	-3.519137764	 0.1136512154	 0.1135
H	 0.5960703735	-5.0357567817	-1.4166623167	 0.098535
H	 0.3198276601	-3.7290607953	-3.6380398183	 0.098535
H	-1.4433488904	-1.8420374136	-2.7374155457	 0.113501
H	 0.1696428366	-1.1617422269	-2.9417900164	 0.125309
80.0242	86.4055	268.1907	328.0131	370.2694	418.5631	435.9458	500.8001	504.7652	683.1428	749.2048	784.84	805.9262	845.2564	866.2736	884.3341	940.1497	958.0881	969.3818	977.7305	982.8658	1021.2935	1062.9991	1082.7412	1122.2629	1153.2169	1160.5862	1211.5843	1234.083	1243.9356	1294.9124	1312.0383	1355.3924	1368.1862	1463.1781	1465.0241	1471.7456	1686.7611	1824.1414	3012.3394	3013.8677	3072.6592	3073.0837	3081.031	3134.3827	3190.8059	3215.342	3471.6959
N=C1CC2(CC=CC2)O1	[NH][C]1C[C@]2(CC=CC2)O1	
InChI=1S/C7H9NO/c8-6-5-7(9-6)3-1-2-4-7/h1-2,8H,3-5H2	InChI=1S/C7H9NO/c8-6-5-7(9-6)3-1-2-4-7/h1-2,8H,3-5H2
