18
gdb 35241	3.59458	1.11799	0.96335	4.2148	76.56	-0.2869	-0.0011	0.2858	1237.1798	0.148401	-401.960159	-401.952005	-401.95106	-401.99377	30.6	
N	-0.2075370925	-1.1206890295	 0.2479225477	-0.337678
C	-0.1086521879	 0.029570255	 0.1875799841	 0.315199
C	 0.012617652	 1.4671052104	 0.0740442849	-0.20638
O	 0.71441943	 2.1398170777	 1.1207254923	-0.266645
C	 1.3278793085	 2.1017013651	-0.1725057293	 0.446602
C	 2.6441269088	 1.3306050834	-0.2998391754	-0.297766
C	 3.467311091	 2.1369357922	-1.3246370408	-0.209226
C	 2.9694045541	 3.5839367681	-1.1444094525	-0.212534
C	 1.4517982041	 3.4133415768	-0.9491313793	-0.288153
H	-0.8923350304	 1.9641394501	-0.2732338743	 0.132282
H	 3.1284019774	 1.3366165097	 0.6824556929	 0.129316
H	 2.4960249305	 0.2852722387	-0.5811038445	 0.129824
H	 4.5442489495	 2.0303275507	-1.1744813577	 0.107639
H	 3.24443398	 1.7929161795	-2.3415256499	 0.106903
H	 3.4149926358	 4.0224069576	-0.2438088382	 0.110959
H	 3.2197852898	 4.2345815328	-1.9858090454	 0.104322
H	 0.9583923059	 3.3109172812	-1.9230626456	 0.114155
H	 0.9682956633	 4.2334854804	-0.4132482193	 0.121181
35.5478	119.5075	144.9321	249.2185	306.7005	379.6448	399.4534	446.145	551.1334	580.7117	616.9123	716.7852	789.2497	837.1525	867.6949	906.7195	924.2998	950.7542	971.674	996.0693	1033.9003	1052.6297	1065.9204	1169.4033	1188.1781	1200.3155	1241.0297	1262.7301	1295.4985	1314.1184	1338.0528	1342.7863	1359.5539	1443.3485	1476.4878	1480.6335	1494.037	1509.4378	2357.8697	3037.4708	3039.3736	3046.0319	3056.173	3099.5662	3101.9208	3108.7653	3112.3055	3122.7848
N#CC1OC11CCCC1	N#C[C@H]1OC21CCCC2	
InChI=1S/C7H9NO/c8-5-6-7(9-6)3-1-2-4-7/h6H,1-4H2	InChI=1S/C7H9NO/c8-5-6-7(9-6)3-1-2-4-7/h6H,1-4H2/t6-/m1/s1
