17
gdb 97954	5.53171	0.50724	0.48324	2.9772	76.27	-0.2579	0.013	0.2709	2215.9889	0.132043	-458.956043	-458.945224	-458.944279	-458.99517	35.188	
C	-0.3618761451	 1.4050604561	-0.1602990387	-0.477038
C	-0.0409857537	-0.0564162813	 0.0358195068	 0.441865
O	 0.1645597118	-0.5998257809	 1.0916246137	-0.346556
O	-0.0113916563	-0.7006157747	-1.1518803077	-0.235943
C	 0.2837228258	-2.1122048749	-1.0652199104	-0.232947
C	 0.2750138702	-2.6819149473	-2.3992533234	 0.005675
C	 0.2692931348	-3.1883857626	-3.4901771172	 0.176901
C	 0.2882497286	-3.7899991076	-4.8162990396	-0.217181
O	-0.9851160186	-4.3493327168	-5.1096268103	-0.407497
H	 0.38854086	 1.8701332759	-0.8057127134	 0.152084
H	-1.3296635041	 1.512158231	-0.6580480495	 0.153614
H	-0.3823371998	 1.903842415	 0.8077600987	 0.149127
H	 1.2564916928	-2.2448940266	-0.5791728081	 0.149867
H	-0.460386996	-2.5951468145	-0.422603492	 0.154161
H	 0.5663008812	-3.0165868719	-5.5508893762	 0.122052
H	 1.0798741249	-4.5564944157	-4.8477874343	 0.120408
H	-0.9340146266	-4.7331788833	-5.9910347184	 0.291407
22.847	28.9995	59.7782	77.7901	125.1804	178.	212.0897	232.4605	284.5348	337.4949	386.0016	505.7549	561.4505	607.949	631.7645	784.756	938.9243	976.2296	1006.5887	1023.7255	1045.6284	1056.3476	1065.5615	1164.8688	1244.2539	1253.8837	1256.3711	1265.734	1385.3999	1407.3059	1460.0465	1469.1522	1475.5629	1484.7446	1498.7974	1823.275	2378.4606	2964.7504	2983.5553	3044.6448	3058.5205	3078.3362	3123.8525	3170.2524	3818.3903
CC(=O)OCC#CCO	CC(=O)OCC#CCO	
InChI=1S/C6H8O3/c1-6(8)9-5-3-2-4-7/h7H,4-5H2,1H3	InChI=1S/C6H8O3/c1-6(8)9-5-3-2-4-7/h7H,4-5H2,1H3
