14
gdb 45385	2.26677	1.83878	1.26336	4.3859	68.09	-0.2645	-0.0243	0.2402	983.1702	0.101886	-432.832658	-432.825262	-432.824318	-432.8647	27.63	
N	-0.047838004	 1.2343166384	-0.5158466203	-0.532538
C	 0.0060813409	 0.0729617096	-0.0682869348	 0.448348
O	 1.0218545545	-0.633177407	 0.5623162318	-0.271056
C	 0.2527589916	-1.8659054205	 0.5869598012	 0.050574
C	-0.569602269	-2.0650133561	 1.8694945297	-0.191999
N	-1.620532886	-1.1425002392	 1.3488720291	-0.350984
C	-0.9737151444	-1.097401266	 0.0029311735	 0.094656
C	-1.7600191497	-1.479490368	-1.1435259025	 0.201824
N	-2.4060769535	-1.8127139899	-2.0422374913	-0.326918
H	 0.818869308	 1.7516584331	-0.3623788975	 0.243382
H	 0.7842492584	-2.6900037483	 0.1168944429	 0.127533
H	-0.8982836879	-3.1045356433	 1.9817184802	 0.124531
H	-0.0983944467	-1.7263625729	 2.7958009743	 0.134685
H	-2.5548559122	-1.53325124	 1.3282613039	 0.247961
124.0017	127.0292	179.8117	252.3926	338.9	398.3378	510.3112	543.8795	612.9956	624.5391	661.3017	749.4463	839.6388	864.7368	899.0052	960.1422	982.2877	998.5384	1007.4294	1048.2857	1117.3323	1148.5465	1191.7436	1199.3961	1249.7759	1317.9463	1342.0048	1394.1464	1495.1604	1841.903	2358.4269	3038.7846	3103.4356	3151.0092	3488.5948	3561.3932
N=C1OC2CNC12C#N	[NH][C]1O[C@H]2CN[C@@]12C#N	
InChI=1S/C5H5N3O/c6-2-5-3(1-8-5)9-4(5)7/h3,7-8H,1H2	InChI=1S/C5H5N3O/c6-2-5-3(1-8-5)9-4(5)7/h3,7-8H,1H2/t3-,5+/m0/s1
