17
gdb 36112	3.38552	1.24653	1.07909	2.6677	75.45	-0.222	0.0252	0.2472	1131.3213	0.136385	-380.796015	-380.78833	-380.787386	-380.828616	29.843	
N	-0.2207544863	-1.1657262705	 0.2868019727	-0.307079
C	-0.1219316587	-0.0237758411	 0.14324108	 0.267706
C	 0.0167261541	 1.4242003778	-0.0341249787	-0.468315
C	 1.4534066761	 1.8735089442	-0.0190737881	 0.35025
N	 1.8695413748	 3.1669847311	-0.6076538521	-0.386489
C	 2.4952658379	 1.8899548726	-1.0612656303	-0.112166
C	 3.5768652875	 1.4639356726	-0.027654108	-0.050106
C	 3.6640148318	 2.4112083895	 1.1387347965	-0.295398
C	 2.506625583	 1.4524036394	 1.0566088339	-0.10546
H	-0.4557305528	 1.7041969881	-0.983523273	 0.149342
H	-0.5505459479	 1.925226441	 0.7617694406	 0.16262
H	 1.1787233684	 3.423650192	-1.3132962543	 0.227351
H	 2.4538316097	 1.5910541718	-2.1007324974	 0.102967
H	 4.3207664391	 0.7074417126	-0.2369613771	 0.099017
H	 4.4117151452	 2.1398178979	 1.8775551052	 0.112839
H	 3.5131605827	 3.4738843859	 1.0015314837	 0.144417
H	 2.3099077053	 0.684377215	 1.7927712066	 0.108504
63.6056	101.1833	228.6253	290.8624	387.3678	405.2789	423.8694	486.1574	593.2096	637.9697	722.1984	754.5374	819.6752	833.74	871.4222	915.0872	920.4161	940.8011	945.7453	986.1214	1012.9838	1026.3333	1056.9546	1057.7909	1102.6008	1134.5415	1178.7386	1188.1574	1242.062	1292.8633	1311.1168	1318.9417	1350.2306	1441.4717	1456.0763	1465.6497	2365.0944	3021.8996	3063.4551	3141.4744	3196.1529	3201.645	3210.5936	3236.1201	3465.3772
N#CCC12NC1C1CC21	N#CC[C@]12N[C@H]1[C@H]1C[C@@H]21	
InChI=1S/C7H8N2/c8-2-1-7-5-3-4(5)6(7)9-7/h4-6,9H,1,3H2	InChI=1S/C7H8N2/c8-2-1-7-5-3-4(5)6(7)9-7/h4-6,9H,1,3H2/t4-,5+,6-,7+/m0/s1
