12
gdb 20683	2.45069	1.26053	0.85584	1.2133	58.41	-0.2639	-0.0386	0.2253	1243.0596	0.076899	-410.910517	-410.899729	-410.898785	-410.951042	31.43	
C	-0.1138893126	 1.7188838878	-0.0440396676	-0.465369
C	-0.046699584	 0.2141197781	-0.0054914342	 0.362289
N	-1.3153666122	-0.38337143	-0.2453011806	-0.345054
C	-1.4970648109	-1.5404095659	-0.6148371748	 0.517392
N	-1.8013107624	-2.6003687413	-1.1173677764	-0.522035
N	 0.7060508231	-3.5427217601	 1.1340873595	-0.011576
N	 1.7147170974	-3.4732558385	 1.5632240386	 0.009806
O	 0.9463827051	-0.4242499895	 0.2358392146	-0.296794
H	-0.4753446774	 2.0503129946	-1.0226311406	 0.152456
H	-0.8368402168	 2.0727094823	 0.6974958103	 0.15504
H	 0.8704743188	 2.140307472	 0.1568158999	 0.146154
H	-1.7864746882	-3.4692018695	-0.6019326788	 0.29769
19.2003	37.9828	44.0239	46.933	62.0173	86.8968	125.122	131.3126	369.099	412.2315	519.1503	555.5614	609.7113	661.6819	810.7066	855.6387	991.6723	1056.7249	1179.8348	1384.6944	1417.3952	1464.0126	1471.6288	1800.8358	2240.5127	2435.1913	3051.0171	3113.8561	3167.3863	3632.5835
CC1=NC(=N)N=NO1	CC(=O)[N][C][NH].N#N	
InChI=1S/C3H4N4O/c1-2-5-3(4)6-7-8-2/h4H,1H3	InChI=1S/C3H4N2O.N2/c1-3(6)5-2-4;1-2/h4H,1H3;
