18
gdb 22412	5.11995	0.84552	0.81994	1.0281	76.1	-0.2484	-0.002	0.2464	1404.8867	0.146142	-439.004534	-438.995875	-438.994931	-439.03952	31.747	
O	-0.11084695	 1.3078878974	 0.5241785137	-0.393442
N	 0.042933502	-0.0813751784	 0.3595850376	-0.228065
C	-1.0260957568	-0.6051546486	-0.0690313745	 0.424517
C	-2.4088810149	-0.113192564	-0.4428894625	-0.398717
C	-2.7826339832	-1.5851396838	-0.7921943934	 0.29512
C	-4.0373350696	-2.2605313904	-0.2065786005	-0.127242
O	-4.5452234738	-2.5717488057	-1.5187162856	-0.272596
C	-3.4041435568	-1.959799408	-2.1511455659	-0.12723
C	-1.3452753246	-2.048882756	-0.3959254051	-0.395814
H	 0.7575957814	 1.5716274084	 0.8473674016	 0.307595
H	-2.9735661024	 0.3310359704	 0.3835841518	 0.129076
H	-2.4312958481	 0.5889259941	-1.2830002915	 0.12908
H	-3.8530974354	-3.1645645182	 0.3893216597	 0.101437
H	-4.7130614799	-1.5978391654	 0.3507691319	 0.102054
H	-3.6908975533	-1.1123675314	-2.7883522644	 0.102055
H	-2.8304563817	-2.6788670092	-2.7512624675	 0.101438
H	-0.7591226097	-2.4789975248	-1.2145771999	 0.125368
H	-1.3026076632	-2.7367718763	 0.4548143645	 0.125365
19.1667	56.6049	186.5485	227.2595	278.191	336.3921	357.3384	380.7258	426.5923	471.1332	588.9053	745.5866	796.8165	853.8313	869.8899	870.2064	913.5363	969.0767	972.1203	991.962	1042.0825	1059.9618	1107.974	1146.0197	1158.8115	1168.6509	1185.2799	1209.5272	1238.8848	1239.4517	1290.7807	1309.9514	1382.0318	1405.7987	1444.7353	1461.6959	1506.1817	1531.8667	1787.5799	2992.6201	3004.9164	3039.6621	3040.7762	3042.4041	3045.8043	3088.1568	3090.2522	3814.9787
ON=C1CC2(COC2)C1	ON=C1CC2(COC2)C1	
InChI=1S/C6H9NO2/c8-7-5-1-6(2-5)3-9-4-6/h8H,1-4H2	InChI=1S/C6H9NO2/c8-7-5-1-6(2-5)3-9-4-6/h8H,1-4H2
