18
gdb 14053	4.53466	1.57967	1.47162	2.7231	67.14	-0.244	0.0677	0.3116	914.7529	0.155127	-384.925144	-384.917928	-384.916984	-384.957197	26.995	
C	-0.0173536637	 1.4878626059	-0.1460470198	-0.120863
O	 1.2350374703	 1.6126192781	 0.5568389682	-0.273438
C	 1.4606332095	 0.1894322642	 0.4960824342	-0.131413
C	 0.0239452015	-0.0568348139	-0.013734921	 0.37549
C	-0.9739502265	-0.7129914429	 0.9461508303	-0.284759
C	-2.0382311581	-1.2591384925	-0.0145785182	-0.234413
C	-1.1693717127	-1.6885954215	-1.2000726459	-0.069736
O	-0.0760413482	-0.7678812319	-1.2355434643	-0.301866
H	-0.8317988974	 2.0222055963	 0.3586046051	 0.094619
H	 0.0555052167	 1.8201322762	-1.1895511652	 0.10243
H	 2.2258144552	-0.0826723469	-0.2421727108	 0.105739
H	 1.7234065933	-0.2305315592	 1.4746402957	 0.09682
H	-0.4841999035	-1.5372855058	 1.4783759195	 0.106976
H	-1.3604543557	-0.0166985403	 1.6933015184	 0.113816
H	-2.6259794507	-2.0798294836	 0.403053641	 0.105976
H	-2.7293605615	-0.4643380274	-0.3155754731	 0.110773
H	-0.7882276375	-2.711358733	-1.0613324165	 0.095813
H	-1.688840501	-1.6478744017	-2.1625708276	 0.108035
59.6877	99.8278	205.88	286.7332	379.3229	416.0835	466.6465	606.9079	738.1163	814.8451	876.8491	889.4908	909.131	931.5089	950.4047	974.8617	996.5105	1012.3881	1029.4796	1057.5477	1147.3191	1150.587	1162.1676	1169.7137	1206.1728	1224.2763	1253.8349	1268.2349	1297.5998	1334.9306	1339.5475	1379.062	1393.9104	1486.8399	1496.3986	1501.9581	1527.6631	1530.1129	2992.3408	3004.2135	3016.3499	3038.0173	3049.6153	3060.839	3062.5834	3074.2551	3107.9024	3114.0961
C1OCC11CCCO1	C1OCC21CCCO2	
InChI=1S/C6H10O2/c1-2-6(8-3-1)4-7-5-6/h1-5H2	InChI=1S/C6H10O2/c1-2-6(8-3-1)4-7-5-6/h1-5H2
