18
gdb 109750	2.0999	1.43006	1.11331	5.3004	69.21	-0.2488	0.0207	0.2694	1166.7656	0.147069	-476.229083	-476.219872	-476.218928	-476.263403	33.478	
C	 0.04809014	 1.2067176816	 0.5637989081	-0.327683
N	-0.1822123418	 0.2308674518	-0.5023736343	-0.306643
H	-0.015005836	 0.6355651889	-1.4171138154	 0.247263
H	 0.6976185629	-1.252863632	-0.1814021294	 0.318645
C	-1.4869866487	-0.3814839107	-0.461201096	-0.038582
C	-1.7435980777	-1.5018654069	-1.417576925	 0.048034
O	-0.7244315618	-1.7773926711	-2.3243257574	-0.41301
C	-1.5853531279	-1.8166875792	 0.0681837483	-0.227484
C	-0.4032248609	-2.6086259824	 0.5675351013	 0.404767
O	-0.5580923317	-3.6205250262	 1.2041500061	-0.350707
O	 0.8083138044	-2.1463478248	 0.2430427631	-0.384545
H	 1.0339848333	 1.6591978114	 0.4328346305	 0.134769
H	-0.7072563636	 2.0067526767	 0.5872579237	 0.115989
H	 0.033695081	 0.6942042563	 1.5301246818	 0.148277
H	-2.323478817	 0.27628464	-0.2212820514	 0.097648
H	-2.752217111	-1.5981788107	-1.8174519939	 0.107499
H	-0.5966372802	-2.7309478246	-2.3739308577	 0.306298
H	-2.497108063	-2.090477908	 0.5847374575	 0.119465
63.9753	110.2776	139.763	188.5385	204.6387	248.8471	295.9352	334.8086	401.514	435.1865	521.1904	598.7649	694.9395	774.0568	790.5507	808.9809	828.3663	894.1078	959.2591	985.9398	1037.5423	1040.8215	1098.5434	1134.1238	1143.0804	1177.1104	1222.2869	1242.2736	1274.5413	1311.3754	1349.8017	1379.4838	1443.5722	1457.9511	1469.968	1492.862	1512.9921	1519.0895	1843.0253	2991.9765	3084.3348	3086.8418	3111.2615	3126.6668	3188.9264	3194.0491	3533.3459	3808.4473
C[NH2+]C1C(O)C1C([O-])=O	CN[C@H]1[C@@H](O)[C@H]1C(=O)O	
InChI=1S/C5H9NO3/c1-6-3-2(4(3)7)5(8)9/h2-4,6-7H,1H3,(H,8,9)	InChI=1S/C5H9NO3/c1-6-3-2(4(3)7)5(8)9/h2-4,6-7H,1H3,(H,8,9)/t2-,3+,4-/m0/s1
