20
gdb 94548	2.50125	1.4691	1.26488	2.0388	74.49	-0.2441	0.0684	0.3125	1102.5578	0.171226	-440.238933	-440.230182	-440.229238	-440.27251	33.366	
C	 0.2039831105	 1.2075731059	-0.9806322377	-0.478768
C	-0.0480361311	 0.0551725714	-0.0331375939	 0.303279
C	 1.0372562291	-0.9008823984	 0.300765094	-0.276679
N	 0.5973232305	 0.0926077522	 1.3040102384	-0.371392
C	-1.4816302276	-0.4439895966	-0.012688783	 0.045907
O	-1.6411247684	-1.7400013092	 0.5980405217	-0.293249
C	-2.5355868683	-1.2303369624	 1.6116758644	-0.103712
C	-2.4440057834	 0.2035977022	 1.0404014038	 0.075486
O	-1.9312112042	 1.2056530518	 1.8661616309	-0.43503
H	 1.2560483183	 1.510182974	-0.9611299289	 0.114143
H	-0.0477115709	 0.936102787	-2.0114350541	 0.127978
H	-0.4062607895	 2.0734231022	-0.7006163986	 0.141143
H	 0.7768611743	-1.9250594399	 0.5405840844	 0.144326
H	 2.0080567647	-0.7538814091	-0.1645039705	 0.110719
H	 1.2625560301	 0.8620101781	 1.331871963	 0.232833
H	-1.8709123929	-0.4494844867	-1.040391953	 0.067587
H	-3.519046946	-1.7135562149	 1.5681448517	 0.099315
H	-2.1189588306	-1.3347192403	 2.6206399738	 0.107151
H	-3.3774303281	 0.5838104196	 0.6195887936	 0.093613
H	-1.0608183566	 0.888556333	 2.1576981999	 0.295348
66.9312	89.9414	192.9317	213.9631	248.8559	329.0565	337.8724	386.9726	430.8384	499.2044	555.6791	641.9938	727.5107	792.5242	834.1369	852.0184	909.6526	937.8803	961.9763	986.7203	993.8557	1025.286	1049.107	1063.4155	1078.5725	1122.7359	1148.3215	1154.3924	1173.4399	1236.1282	1263.9106	1278.5867	1301.6853	1335.1375	1350.1215	1377.0854	1403.5793	1413.587	1483.428	1486.1381	1495.3689	1504.7721	1514.0976	3003.0802	3018.8824	3028.4427	3066.5479	3091.7778	3096.8887	3101.2479	3121.9044	3224.1851	3491.7282	3665.4091
CC1(CN1)C1OCC1O	C[C@]1(CN1)[C@H]1OC[C@H]1O	
InChI=1S/C6H11NO2/c1-6(3-7-6)5-4(8)2-9-5/h4-5,7-8H,2-3H2,1H3	InChI=1S/C6H11NO2/c1-6(3-7-6)5-4(8)2-9-5/h4-5,7-8H,2-3H2,1H3/t4-,5+,6+/m1/s1
