16
gdb 10057	2.66806	1.52135	1.01854	2.4331	67.56	-0.2508	-0.0363	0.2145	1114.5706	0.126085	-383.698749	-383.68941	-383.688466	-383.733557	31.934	
C	 0.0752544662	 0.954376886	 0.8389280392	-0.242383
O	-0.5415670165	 0.0859594321	-0.0955610721	-0.254415
C	 0.2978183894	-0.4255560544	-1.1009547514	 0.017636
C	 1.1437867762	-1.6493878946	-0.6824657779	-0.3571
C	 2.3508315354	-1.3283786348	 0.066196452	 0.281275
C	 3.3578904177	-1.0603119177	 0.6660080653	-0.438473
C	-0.6272755692	-0.7815500264	-2.2659615374	 0.152237
O	-0.3742319172	-1.5982159045	-3.1111247695	-0.243583
H	 0.8006088464	 0.4314776489	 1.4716850824	 0.134806
H	 0.5889336311	 1.7844138093	 0.3312775617	 0.110102
H	-0.7240621799	 1.3601502127	 1.4634463873	 0.130019
H	 0.975299365	 0.3627691342	-1.4776624626	 0.106429
H	 0.4982025618	-2.3183926185	-0.1010643359	 0.142849
H	 1.4046541958	-2.1838613713	-1.6036086113	 0.160237
H	 4.2484664215	-0.8318805681	 1.1972111907	 0.198456
H	-1.5682587937	-0.1914186228	-2.2641378505	 0.101907
51.1364	84.6972	104.5709	147.302	186.9981	234.059	282.1917	344.3443	392.627	445.3037	504.2386	616.6352	631.3709	637.6198	806.1604	869.0524	982.2567	1017.7726	1064.3917	1084.5873	1159.6863	1183.0567	1212.7075	1246.5539	1271.5286	1345.7089	1357.4898	1394.829	1460.2279	1479.2649	1492.319	1510.1495	1838.1563	2236.594	2917.4517	2944.401	2994.375	3035.4445	3072.7142	3076.8388	3122.6174	3505.4046
COC(CC#C)C=O	CO[C@@H](CC#C)C=O	
InChI=1S/C6H8O2/c1-3-4-6(5-7)8-2/h1,5-6H,4H2,2H3	InChI=1S/C6H8O2/c1-3-4-6(5-7)8-2/h1,5-6H,4H2,2H3/t6-/m0/s1
