18
gdb 82026	2.39149	1.50075	1.33663	1.9149	72.08	-0.247	-0.0237	0.2233	1046.379	0.146225	-439.046797	-439.038026	-439.037082	-439.080246	32.8	
C	 0.1046032439	 1.7228108554	 0.190126843	-0.46458
C	 0.0034789458	 0.2080490895	 0.0540366489	 0.173012
C	-1.3732956908	-0.2892404203	 0.3935650442	 0.101627
O	-1.9760104758	-1.1397847698	-0.2154105681	-0.263101
C	 0.5786646195	-0.4662866205	-1.1944745567	-0.081141
N	 2.0331838263	-0.1706208502	-1.2046362882	-0.377691
C	 1.5104902811	-1.3069409417	-0.4031159351	-0.070903
C	 1.0761923227	-0.6597507441	 0.9148328468	 0.091057
O	 2.0504725479	 0.0360022226	 1.6226507947	-0.424442
H	 1.1146507806	 2.0599077009	-0.0485779887	 0.135053
H	-0.5905861787	 2.2267782252	-0.4900955234	 0.121413
H	-0.127325455	 2.0382313218	 1.2122532401	 0.129242
H	-1.8108168577	 0.1797757281	 1.3057744224	 0.078056
H	 0.0447013493	-0.7137206176	-2.1017950775	 0.112377
H	 2.4241731692	-0.5523715836	-2.0638452864	 0.239442
H	 1.8619101597	-2.3175839318	-0.5678981755	 0.102832
H	 0.5835808085	-1.3463232767	 1.6067699493	 0.10014
H	 2.6060587934	 0.4565386927	 0.9506292902	 0.297607
78.8255	120.406	155.7797	219.0632	229.9642	259.3525	299.0487	412.0556	454.5088	546.5639	580.8332	651.6934	669.4654	779.4108	812.4487	844.7595	854.7895	922.7393	950.6346	958.7117	1011.0528	1021.6635	1088.0237	1100.3954	1132.952	1144.1911	1176.8401	1203.5895	1244.5123	1283.0225	1319.6702	1336.0249	1373.2003	1403.4478	1428.591	1446.082	1482.842	1502.0983	1809.8468	2861.1536	3039.048	3092.3195	3103.2557	3135.5428	3194.4826	3216.2236	3495.4149	3738.7228
CC1(C=O)C2NC2C1O	C[C@@]1(C=O)[C@H]2N[C@H]2[C@H]1O	
InChI=1S/C6H9NO2/c1-6(2-8)4-3(7-4)5(6)9/h2-5,7,9H,1H3	InChI=1S/C6H9NO2/c1-6(2-8)4-3(7-4)5(6)9/h2-5,7,9H,1H3/t3-,4+,5-,6-/m1/s1
