20
gdb 82536	2.26747	1.65342	1.35887	0.83	79.17	-0.2338	0.0743	0.3081	1073.3503	0.16955	-403.087158	-403.078309	-403.077365	-403.12017	33.929	
C	 0.0093590794	 1.6063705144	 0.1319481503	-0.435873
C	 0.0684210645	 0.094906158	 0.1806111373	-0.029416
N	 1.2120160293	-0.7279847288	-0.2831598593	-0.192312
C	 2.4696514101	 0.005362454	 0.1064622295	-0.261641
C	 2.0742011369	-0.0579327935	 1.579823408	 0.384785
C	 2.9088392443	-0.2599330054	 2.7612239615	-0.266319
O	 2.2088781805	 0.9753955502	 2.5462406541	-0.278221
C	 0.7755867938	-0.7279538913	 1.1938441974	 0.243944
C	 0.1792347209	-1.9187171561	 1.8843222251	-0.50392
H	 0.842308163	 2.0899751199	 0.6436488073	 0.147911
H	-0.0155845275	 1.9562049911	-0.9062807127	 0.123595
H	-0.9114480649	 1.946219855	 0.616957751	 0.12484
H	-0.8536197653	-0.3709077743	-0.1656103002	 0.093504
H	 3.3420565324	-0.6028432301	-0.1437013159	 0.115989
H	 2.5828359081	 0.9979042578	-0.3378682639	 0.115521
H	 2.5437913574	-0.8606349212	 3.593560476	 0.117756
H	 3.9934171026	-0.2069837517	 2.6698399575	 0.117325
H	-0.2870917536	-1.6234427961	 2.8316711382	 0.128286
H	-0.5909148458	-2.3805354355	 1.2602763789	 0.131722
H	 0.9395841639	-2.6761844463	 2.10205101	 0.122524
113.2989	158.2488	175.7376	213.6235	231.7413	241.8601	325.0828	364.7626	414.1299	512.7866	528.6344	588.5889	652.9964	721.9961	801.8961	848.7463	854.1026	906.5864	945.1656	954.6202	1014.6813	1072.7525	1079.7369	1113.696	1123.0623	1131.4849	1134.9519	1156.9663	1165.0301	1192.7321	1278.7489	1304.3089	1324.1556	1409.4095	1417.2317	1440.4308	1454.0932	1481.8819	1488.8237	1493.6552	1504.4881	1510.4007	1539.4166	3028.8215	3038.2889	3060.591	3077.9169	3090.7761	3096.4025	3109.9276	3111.9341	3114.9154	3144.0094	3163.3255
CC1N2CC3(CO3)C12C	C[C@H]1N2C[C@]3(CO3)[C@@]12C	
InChI=1S/C7H11NO/c1-5-6(2)7(4-9-7)3-8(5)6/h5H,3-4H2,1-2H3	InChI=1S/C7H11NO/c1-5-6(2)7(4-9-7)3-8(5)6/h5H,3-4H2,1-2H3/t5-,6-,7+,8?/m1/s1
