16
gdb 11009	4.09943	1.8628	1.54677	4.8887	64.83	-0.2527	0.0355	0.2882	847.2973	0.13186	-379.946833	-379.939628	-379.938684	-379.978086	27.313	
C	-0.0284290403	 1.520092784	 0.0045641385	-0.477804
C	 0.0035630084	 0.0137516934	 0.0070547286	 0.331442
C	 0.6691290012	-0.7514954645	-1.073374579	-0.289203
N	 1.2996901859	-0.6512398726	 0.2698445212	-0.182652
C	 1.0118679238	-1.8305576541	 1.057705294	 0.407966
O	 1.831087976	-2.6297534614	 1.4286758133	-0.367873
N	-0.3408122789	-1.8680608443	 1.2992283136	-0.321023
C	-1.0763478667	-0.7255822027	 0.8059154926	-0.23506
H	 0.8371138805	 1.922926083	-0.5265669447	 0.136786
H	-0.9358437486	 1.8871997884	-0.4881547631	 0.122967
H	-0.0139271364	 1.9126895434	 1.0267645465	 0.128838
H	 0.2626262795	-1.7170787448	-1.3637162786	 0.129959
H	 1.2025528262	-0.2221042055	-1.8570325437	 0.127431
H	-0.7324757372	-2.5851218585	 1.8864804754	 0.258209
H	-1.4458670416	-0.0870423513	 1.6203408926	 0.112905
H	-1.9367021319	-1.0157982725	 0.1899045128	 0.117112
111.5347	173.7074	196.4616	301.0841	371.4544	383.686	463.7246	519.7113	581.4597	687.4499	731.7891	812.4316	826.8142	859.2838	925.6249	958.8585	1014.3324	1037.8901	1073.6733	1115.7096	1131.9959	1136.8501	1196.5116	1215.735	1309.1898	1328.2128	1390.1871	1423.9574	1443.118	1486.4594	1493.9331	1507.1536	1534.4298	1864.7372	3002.2288	3034.4511	3037.7545	3097.2245	3110.1675	3125.9534	3201.1222	3661.7962
CC12CN1C(=O)NC2	C[C@@]12CN1C(=O)NC2	
InChI=1S/C5H8N2O/c1-5-2-6-4(8)7(5)3-5/h2-3H2,1H3,(H,6,8)	InChI=1S/C5H8N2O/c1-5-2-6-4(8)7(5)3-5/h2-3H2,1H3,(H,6,8)/t5-,7?/m1/s1
