18
gdb 105507	2.0059	1.74552	1.14634	4.644	67.34	-0.2517	0.0029	0.2545	1097.5837	0.148757	-476.237439	-476.228989	-476.228044	-476.270708	31.665	
O	 0.1110525657	 1.4382959727	-0.2361328564	-0.418289
C	 0.0902631906	 0.0641059318	 0.05398139	-0.118259
C	-1.3335526674	-0.5089901565	-0.007934677	 0.127271
C	-1.9531062379	-0.4797243803	-1.4391301705	-0.270024
C	-1.6969175033	-2.0061176813	-1.4833691634	-0.161288
N	-1.4441608199	-1.9953415399	-0.0133705231	-0.382775
H	-0.6149201105	-2.4935955405	 0.2975564256	 0.231608
H	-2.8004524838	-1.6230005101	 1.2628822315	 0.305388
C	-2.2034815081	 0.1115755361	 1.0873619071	 0.421326
O	-2.1614669489	 1.2854621037	 1.3818852284	-0.367164
O	-3.0216995034	-0.755728616	 1.6786205845	-0.365332
H	-0.5490114166	 1.8398747374	 0.3524954873	 0.302772
H	 0.7107969261	-0.4380970605	-0.6985877421	 0.100214
H	 0.5254057775	-0.1612790446	 1.0436940319	 0.092021
H	-3.0106170412	-0.211721352	-1.4565046778	 0.127283
H	-1.4118123966	 0.1433655874	-2.1498872707	 0.140138
H	-2.5319975061	-2.6469682152	-1.7779934723	 0.119361
H	-0.8181590563	-2.278030502	-2.077372943	 0.115751
82.9393	137.6457	152.6555	202.8113	249.9736	300.302	345.0099	408.7047	467.8732	596.724	635.6758	702.1674	752.0447	765.7534	799.3313	891.5597	917.0305	936.7925	945.1207	974.4734	1018.7012	1085.1518	1108.9305	1142.1547	1159.2761	1183.789	1209.7811	1235.5888	1257.8637	1296.9933	1330.0837	1372.5546	1385.2995	1441.6768	1477.7571	1490.2996	1509.3401	1526.0569	1828.6635	2950.2415	3043.2002	3047.7659	3088.9619	3096.8661	3154.5844	3407.7515	3506.5607	3676.1534
OCC1(CC[NH2+]1)C([O-])=O	OC[C@]1(CCN1)C(=O)O	
InChI=1S/C5H9NO3/c7-3-5(4(8)9)1-2-6-5/h6-7H,1-3H2,(H,8,9)	InChI=1S/C5H9NO3/c7-3-5(4(8)9)1-2-6-5/h6-7H,1-3H2,(H,8,9)/t5-/m1/s1
