20
gdb 61811	2.80084	1.0681	0.88464	2.6381	77.82	-0.258	0.0222	0.2802	1365.0857	0.168282	-440.26641	-440.256373	-440.255428	-440.302069	36.659	
C	-0.3416144301	 1.3961173551	 1.1810340621	-0.408244
C	-0.1060043538	 0.2406199781	 0.2100017453	 0.054358
O	 0.7602720736	-0.7275090517	 0.8158066552	-0.192198
C	 2.0821522899	-0.622579855	 0.583738892	 0.130852
N	 2.8915890402	-1.3853825095	 1.1800902073	-0.445308
C	-1.3958826409	-0.4673671208	-0.1904097497	 0.386744
O	-2.2790509576	 0.3930979769	-0.8645712447	-0.469915
C	-1.3753683763	-1.8761297251	-0.6935295154	-0.302896
C	-1.9756624936	-1.5610981494	 0.6654051634	-0.32335
H	 0.6021391872	 1.8900391846	 1.4294030738	 0.123644
H	-1.0033043455	 2.1417038094	 0.731336136	 0.120332
H	-0.7912405912	 1.0289098511	 2.1083886031	 0.133634
H	 0.3620115928	 0.6218350446	-0.7089286778	 0.091217
H	 2.3359092055	 0.1529131645	-0.1528527014	 0.087041
H	 3.8419821248	-1.1886725717	 0.8735699488	 0.229087
H	-2.7841249858	 0.8805697582	-0.2052513068	 0.285576
H	-2.0591903891	-2.0980918643	-1.5042108908	 0.121331
H	-0.430881198	-2.4053608633	-0.7144979575	 0.131289
H	-1.4217172721	-1.8720846548	 1.5430393458	 0.136671
H	-3.05601976	-1.593963347	 0.7561033711	 0.110136
40.7872	69.6312	105.2794	178.1715	219.6021	244.9203	296.8893	312.863	353.7622	377.5782	417.8935	457.1133	537.7521	634.6166	727.1354	782.1879	818.9692	885.2513	904.6359	928.8698	936.6794	988.6801	1043.2191	1051.5971	1061.4182	1085.3246	1095.7835	1130.9638	1138.4098	1194.4818	1241.7546	1294.4946	1321.5109	1353.3403	1365.671	1377.7447	1403.2515	1424.5764	1443.0347	1491.6806	1495.425	1497.3049	1742.6826	3002.4773	3019.1831	3043.7076	3117.8633	3123.6967	3138.0607	3149.4516	3230.0369	3245.947	3519.1131	3804.8983
CC(OC=N)C1(O)CC1	C[C@@H](O[CH][NH])C1(O)CC1	
InChI=1S/C6H11NO2/c1-5(9-4-7)6(8)2-3-6/h4-5,7-8H,2-3H2,1H3	InChI=1S/C6H11NO2/c1-5(9-4-7)6(8)2-3-6/h4-5,7-8H,2-3H2,1H3/t5-/m1/s1
