14
gdb 35073	4.01133	1.38582	1.31519	3.7365	73.28	-0.2254	-0.0685	0.157	964.324	0.098501	-399.361369	-399.354358	-399.353414	-399.392749	27.863	
C	-0.0753943556	-1.2169800652	 0.0047080997	-0.443744
C	-0.0662177338	-0.0160170758	 0.0382230259	 0.387986
C	-0.0181258811	 1.4361156909	 0.0335816238	-0.196882
N	-0.5657467607	 1.9308669882	 1.372899089	-0.223714
C	 0.2911506281	 2.8178015322	 1.6569952039	 0.274341
O	 1.2859628585	 2.6056292647	 2.6225891514	-0.258308
C	 2.1314328627	 2.5549453285	 1.386285905	 0.078369
C	 1.4238349756	 2.0328401159	 0.0312927916	-0.088877
C	 1.2627045028	 3.4075911329	 0.5839760874	-0.223002
H	-0.0926790826	-2.2786458421	-0.0155628502	 0.203554
H	-0.5732177912	 1.8203327852	-0.8356352992	 0.116894
H	 3.1992630521	 2.5255338225	 1.5644534273	 0.137484
H	 2.1047122846	 1.8065820197	-0.7855167649	 0.111059
H	 1.3427937605	 4.4026695022	 0.1696495792	 0.124841
90.6175	158.7747	281.2669	374.0387	483.1653	502.852	522.166	603.7502	622.3918	644.6928	663.4591	714.1337	740.5973	786.6113	820.0483	863.4311	884.9615	939.9848	979.4897	1013.1233	1030.7381	1051.9153	1089.5916	1137.2843	1182.3312	1225.3551	1248.3178	1318.6543	1347.6384	1616.6757	2239.3536	2984.0469	3155.2048	3200.4423	3215.5616	3504.3011
C#CC1N=C2OC3C1C23	C#C[C@H]1[N][C]2O[C@H]3[C@@H]1[C@@H]23	
InChI=1S/C7H5NO/c1-2-3-4-5-6(4)9-7(5)8-3/h1,3-6H	InChI=1S/C7H5NO/c1-2-3-4-5-6(4)9-7(5)8-3/h1,3-6H/t3-,4+,5-,6+/m1/s1
