15
gdb 10285	2.71405	1.68638	1.20151	3.0603	62.46	-0.2444	-0.007	0.2374	1008.0644	0.118245	-396.010625	-396.001642	-396.000698	-396.044753	31.055	
C	-0.0369753728	 1.4858080165	-0.2081568285	-0.328458
N	-0.1682829344	 0.1793172313	 0.420436629	-0.271197
C	-1.4258373794	-0.4975971481	 0.2304479652	-0.204607
C	-1.9265005371	-0.5237664401	-1.1703934178	 0.254655
N	-2.2974500451	-0.5206427221	-2.2658679921	-0.324088
C	-1.2668954143	-1.9708710058	 0.704525436	 0.419765
N	-2.432591995	-2.5914211901	 1.0172857447	-0.51568
O	-0.1752511025	-2.4881851073	 0.7814259051	-0.340818
H	 0.9631079959	 1.8732537749	 0.0009861633	 0.131866
H	-0.1904270477	 1.4830001991	-1.2989176255	 0.125791
H	-0.7611572767	 2.1818695279	 0.2306779171	 0.123968
H	 0.5801144808	-0.4596577006	 0.173414376	 0.247508
H	-2.2053434454	-0.0093594593	 0.8323546916	 0.133341
H	-3.3237406618	-2.1777942635	 0.8001297798	 0.273419
H	-2.4025898445	-3.5825440028	 1.1976639862	 0.274533
43.616	106.3185	137.2577	181.5312	199.1398	266.9583	317.4908	369.3754	404.7482	430.7656	549.0761	596.7347	638.3309	703.6328	751.9138	881.3465	940.5078	1005.8237	1100.6503	1159.381	1162.0234	1218.0601	1252.8861	1338.1805	1366.083	1461.7779	1486.8301	1496.7434	1519.9885	1627.1432	1825.2199	2336.2443	2982.5903	3010.4797	3061.1933	3116.5517	3539.8018	3593.8098	3723.41
CNC(C#N)C(N)=O	CN[C@@H](C#N)C(=O)N	
InChI=1S/C4H7N3O/c1-7-3(2-5)4(6)8/h3,7H,1H3,(H2,6,8)	InChI=1S/C4H7N3O/c1-7-3(2-5)4(6)8/h3,7H,1H3,(H2,6,8)/t3-/m0/s1
