21
gdb 64086	3.06579	1.2021	1.093	3.0507	78.46	-0.2294	-0.0187	0.2107	1211.5398	0.181374	-424.260398	-424.251248	-424.250304	-424.293903	35.42	
C	-0.0058541738	 1.5221748381	 0.0600875742	-0.41397
C	-0.082217341	-0.0030600122	-0.0256117751	 0.359945
C	-1.5514846851	-0.4555515585	 0.0170626223	-0.427843
C	 0.6552378794	-0.50416177	-1.2826955201	-0.222085
C	 0.8515776316	-2.0296821682	-1.2864808901	-0.333063
C	 1.3605834223	-2.553919859	 0.0454233939	 0.379717
O	 2.1167135925	-3.4911556788	 0.143690617	-0.302465
C	 0.7902557103	-1.8554621844	 1.2793633339	-0.181943
O	 0.6328512199	-0.457022743	 1.1376927443	-0.285339
H	 1.0375554015	 1.8457724217	 0.1032368515	 0.123272
H	-0.4809412831	 1.9833632764	-0.8107448059	 0.112704
H	-0.5110410391	 1.8786747577	 0.9620404476	 0.121866
H	-2.1111388687	-0.0019327082	-0.8065833989	 0.119123
H	-1.6684083023	-1.5395208292	-0.0664764349	 0.112923
H	-2.0095034006	-0.138961568	 0.9584651355	 0.12709
H	 0.1174900827	-0.1914754853	-2.1845674318	 0.100872
H	 1.6363627036	-0.0170117181	-1.3104020668	 0.110506
H	-0.1092539821	-2.5318210347	-1.4684915312	 0.128941
H	 1.5312115681	-2.3586218792	-2.0767060324	 0.12548
H	-0.1652630212	-2.3521110737	 1.5260607627	 0.109695
H	 1.469773435	-2.0180350833	 2.1189790043	 0.134573
64.9859	158.9776	214.9516	218.3177	257.3042	280.0664	321.6417	380.1646	424.5945	430.8876	460.24	497.9619	505.4816	684.8578	713.5587	752.944	828.2026	867.4671	901.6949	931.0193	974.2581	1002.5158	1015.8389	1052.8723	1120.1869	1149.8059	1172.9448	1210.8045	1230.7095	1264.6725	1278.8246	1281.4694	1340.5264	1369.5632	1375.538	1397.3131	1415.7597	1456.6742	1465.7338	1477.8431	1486.7822	1489.4092	1498.2686	1512.7267	1822.7524	2950.7434	3018.6034	3035.0211	3041.8368	3047.5301	3078.143	3100.7511	3108.0919	3112.7352	3116.5456	3122.1729	3122.5428
CC1(C)CCC(=O)CO1	CC1(C)CCC(=O)CO1	
InChI=1S/C7H12O2/c1-7(2)4-3-6(8)5-9-7/h3-5H2,1-2H3	InChI=1S/C7H12O2/c1-7(2)4-3-6(8)5-9-7/h3-5H2,1-2H3
