21
gdb 100290	1.84972	1.39711	1.10952	1.1897	69.93	-0.2481	0.0486	0.2968	1227.9873	0.179691	-498.486795	-498.475926	-498.474982	-498.522195	40.463	
C	 0.1588983387	 1.4512317584	-0.3073713157	-0.431712
C	 0.0069410727	-0.0205666651	 0.0650140306	 0.101971
O	 0.7786542177	-0.3618332555	 1.2180936287	-0.441286
C	-1.4599198867	-0.5142226174	 0.2322107399	 0.299161
O	-2.2008530043	-0.1937457274	-0.9447549422	-0.486862
C	-1.4708772788	-2.0455971528	 0.4084520036	-0.130234
O	-1.1692458798	-2.6945248807	-0.8284340355	-0.434617
C	-2.2054944455	 0.1512096277	 1.3988160798	-0.088555
O	-2.5226566526	 1.5049659964	 1.1419066743	-0.424322
H	 1.2149465008	 1.6780060074	-0.4817864834	 0.112038
H	-0.4042704659	 1.6721790615	-1.2166140021	 0.130059
H	-0.2265256289	 2.1000787199	 0.483910693	 0.135285
H	 0.4396006036	-0.6179731025	-0.7505318138	 0.06002
H	 0.7199246619	 0.3723723324	 1.8379710888	 0.287125
H	-2.0566090673	-0.9325864411	-1.5530334353	 0.291003
H	-0.7789399813	-2.3429824592	 1.2023349046	 0.123947
H	-2.4806644381	-2.3737797027	 0.6724739886	 0.111743
H	-0.2127072077	-2.7361708332	-0.9230368735	 0.298673
H	-3.11848751	-0.4292866624	 1.6054557206	 0.088971
H	-1.5896419109	 0.1271164673	 2.3036079436	 0.100787
H	-2.9131272474	 1.5170366687	 0.2591181653	 0.296805
62.2047	100.0184	146.6127	197.657	231.9551	241.5092	266.4272	286.4137	309.8752	320.3845	346.3973	399.2571	444.4244	458.0202	481.2716	509.9682	531.2207	670.1287	745.3298	882.4657	920.2275	953.8079	971.2636	1045.3443	1070.3213	1083.192	1089.387	1128.9616	1143.4809	1187.105	1215.1694	1279.2856	1304.0047	1333.6145	1360.397	1386.2369	1400.0678	1410.4615	1416.6276	1424.9063	1445.8442	1487.6294	1492.1641	1503.7318	1509.9644	2977.2994	2997.6103	3046.8415	3050.5883	3077.5651	3105.8835	3121.6754	3135.4172	3736.5034	3786.1225	3815.5668	3829.2862
CC(O)C(O)(CO)CO	C[C@@H](O)C(O)(CO)CO	
InChI=1S/C5H12O4/c1-4(8)5(9,2-6)3-7/h4,6-9H,2-3H2,1H3	InChI=1S/C5H12O4/c1-4(8)5(9,2-6)3-7/h4,6-9H,2-3H2,1H3/t4-/m1/s1
