21
gdb 72901	2.61144	1.80541	1.41646	1.2684	80.44	-0.2265	0.0781	0.3046	1015.722	0.183648	-387.075105	-387.067362	-387.066418	-387.106855	31.999	
C	-0.2539708161	 1.4791782109	 0.1186872957	-0.447477
C	 0.1001293251	 0.0081818642	 0.0097702399	 0.425975
C	-1.084020099	-0.9883440901	 0.2187400874	-0.276742
C	-0.4092176771	-1.5102442632	 1.5205908366	-0.235726
C	 0.8610901007	-0.6680958567	 1.2014267606	-0.084703
C	 2.055999977	-1.3440477371	 0.5502949275	-0.080911
C	 1.8170295476	-2.4073180561	-0.5116920581	-0.329652
C	 2.0055089163	-0.9682717782	-0.9071799907	 0.098645
O	 0.8705078957	-0.191757159	-1.1801822206	-0.30373
H	 0.6525028768	 2.0908481368	 0.1643751008	 0.117467
H	-0.8369968453	 1.7944976892	-0.7528576297	 0.125003
H	-0.851143745	 1.6718136558	 1.0158608096	 0.110747
H	-2.066455868	-0.5252938945	 0.3425122204	 0.0943
H	-1.1491878406	-1.7234498031	-0.58601838	 0.10834
H	-0.9184988806	-1.1825438906	 2.430012144	 0.099121
H	-0.2531628111	-2.5891074587	 1.5865564741	 0.102854
H	 1.1915587603	 0.0016489437	 1.999160441	 0.065819
H	 2.9932398295	-1.3682659092	 1.0936058125	 0.087928
H	 2.6362319479	-3.0916846407	-0.7076459225	 0.110611
H	 0.8331578368	-2.8506044066	-0.6151097796	 0.117918
H	 2.8709976291	-0.6577737867	-1.4824859689	 0.094212
107.1859	222.6733	239.0796	245.5809	330.2404	367.4925	432.2072	479.2606	612.4328	640.3757	684.7342	737.2012	762.8344	804.4914	835.0533	881.2642	890.2719	926.0437	942.6061	954.8966	965.8796	997.4833	1000.8026	1048.7809	1096.4609	1097.8069	1118.0846	1148.7855	1164.9838	1174.5303	1193.8155	1207.9682	1216.4496	1243.011	1274.268	1309.7802	1323.4311	1342.0218	1382.6446	1406.3216	1471.7543	1481.906	1483.764	1491.9008	1497.3065	3031.9252	3060.8076	3065.2889	3074.957	3104.7829	3107.3204	3108.9155	3125.8459	3133.4903	3165.3282	3176.3457	3221.2365
CC12CCC1C1CC1O2	C[C@]12CC[C@H]1[C@H]1C[C@H]1O2	
InChI=1S/C8H12O/c1-8-3-2-6(8)5-4-7(5)9-8/h5-7H,2-4H2,1H3	InChI=1S/C8H12O/c1-8-3-2-6(8)5-4-7(5)9-8/h5-7H,2-4H2,1H3/t5-,6+,7-,8+/m1/s1
