22
gdb 107759	3.4495	1.3486	1.30224	1.7954	83.4	-0.2309	0.077	0.3079	1103.55	0.197406	-367.218741	-367.21108	-367.210136	-367.250659	31.578	
C	-0.0567301387	 1.5278151757	-0.070438391	-0.391528
C	 0.0257053137	 0.0010753768	 0.0554201703	-0.273994
C	 0.7599700521	-0.5080206163	 1.2871956464	 0.284161
C	 0.2250201236	-0.1210838419	 2.6917403952	-0.263684
C	 1.2890637449	-0.8524697834	 3.4989033931	-0.035471
C	 1.693976681	-2.0532918907	 2.7149787731	-0.038428
C	 0.8754621988	-2.0481214806	 1.4322420171	-0.268331
N	 2.5663344749	-0.8499047546	 2.7363851786	-0.128926
C	 2.2491581011	-0.1339421499	 1.4775424643	-0.183336
H	 0.9373295978	 1.9843688546	-0.1125610304	 0.12008
H	-0.587868198	 1.8110960092	-0.9842733642	 0.113405
H	-0.5926496104	 1.9744854195	 0.7731122694	 0.11899
H	-0.9906745925	-0.4144024824	 0.0502987676	 0.094597
H	 0.5188230484	-0.4061310261	-0.8375909208	 0.094446
H	 0.2246025389	 0.9589069471	 2.8688575222	 0.099518
H	-0.7832723129	-0.5055147065	 2.8805859439	 0.096221
H	 1.3607817842	-0.7870306493	 4.5778766238	 0.086029
H	 2.0905739906	-2.9570545927	 3.1616158208	 0.086432
H	-0.0983160973	-2.5354817065	 1.5510311395	 0.096386
H	 1.3952349093	-2.5109946775	 0.5863419363	 0.096736
H	 2.891415876	-0.4958250375	 0.6675579222	 0.097081
H	 2.4204625947	 0.938602653	 1.6094896025	 0.099614
86.0446	186.3574	210.8988	299.7544	363.2333	437.9345	441.829	459.0394	597.9821	672.9514	685.2594	779.6405	793.7372	804.4421	847.4866	913.1164	936.1319	939.4738	954.7296	961.4904	974.881	993.4564	1032.7279	1049.1034	1073.7891	1077.3976	1135.7277	1146.4391	1167.7321	1183.9852	1215.1463	1234.9607	1237.6959	1260.1759	1285.0194	1302.291	1331.0393	1340.8798	1381.3253	1390.3964	1416.0255	1482.2238	1486.2674	1490.2123	1502.0156	1506.7031	1517.0343	3010.9002	3037.0327	3038.8069	3040.0036	3041.1136	3049.0598	3083.2711	3088.7695	3094.0489	3105.7704	3106.676	3179.6454	3190.0854
CCC12CC3C(C1)N3C2	CC[C@@]12C[C@H]3[C@@H](C1)N3C2	
InChI=1S/C8H13N/c1-2-8-3-6-7(4-8)9(6)5-8/h6-7H,2-5H2,1H3	InChI=1S/C8H13N/c1-2-8-3-6-7(4-8)9(6)5-8/h6-7H,2-5H2,1H3/t6-,7+,8+,9?
