19
gdb 70076	2.60176	1.79958	1.37819	1.8785	79.93	-0.2357	0.002	0.2377	1003.1945	0.160619	-385.877263	-385.869779	-385.868835	-385.908687	30.629	
C	-0.0182352192	 1.4929018224	-0.0122249186	-0.488304
C	-0.026211045	-0.0225349796	 0.0132612111	 0.335011
C	-0.855170602	-0.742654018	 1.0372418847	-0.324827
C	 0.6620145236	-0.7368341501	 1.1777239492	-0.129971
C	 1.4702067036	-1.9382874089	 0.8970214121	-0.059254
C	 1.5965041042	-2.4823867465	-0.3199696938	-0.094864
C	 0.9343909785	-1.8989546345	-1.5048955584	 0.004548
O	-0.5155103821	-1.9267011683	-1.5596817824	-0.258266
C	 0.1234111892	-0.6736193596	-1.3389537666	-0.038311
H	 0.8985198228	 1.8806465386	-0.4715590343	 0.121175
H	-0.8688152279	 1.8832075278	-0.5833136625	 0.122688
H	-0.0809212985	 1.903312449	 0.9997374085	 0.117534
H	-1.4192577781	-0.1443135344	 1.7448897169	 0.108721
H	-1.3186096811	-1.6717297615	 0.7296659224	 0.138042
H	 1.0452585912	-0.1032854444	 1.9730958429	 0.085137
H	 1.999068971	-2.3800254567	 1.7380071907	 0.095908
H	 2.2155762073	-3.3613700623	-0.4693665342	 0.091322
H	 1.3960390101	-2.0984059455	-2.4706092544	 0.089786
H	 0.0584694723	 0.0149984227	-2.1819557135	 0.083926
145.193	212.2558	246.4325	290.3444	315.0567	402.246	478.3321	511.6149	534.2034	585.6697	684.4303	745.9784	797.1196	822.2712	830.4611	873.4813	909.2335	946.7293	954.8595	982.3281	989.1071	1024.7932	1061.6576	1083.8383	1103.4264	1115.8244	1124.0077	1140.9865	1212.897	1241.1365	1278.527	1328.0419	1371.5683	1411.1325	1417.7132	1424.4958	1451.6452	1486.3457	1491.184	1501.6978	1691.8641	3023.4315	3082.6741	3099.6764	3105.4534	3123.0173	3135.0085	3139.1359	3154.8197	3182.3124	3237.9811
CC12CC1C=CC1OC21	C[C@]12C[C@H]1C=C[C@H]1O[C@@H]21	
InChI=1S/C8H10O/c1-8-4-5(8)2-3-6-7(8)9-6/h2-3,5-7H,4H2,1H3	InChI=1S/C8H10O/c1-8-4-5(8)2-3-6-7(8)9-6/h2-3,5-7H,4H2,1H3/t5-,6-,7-,8+/m1/s1
