21
gdb 100700	3.13011	0.76593	0.65153	0.8889	84.63	-0.2418	0.0372	0.279	1790.5019	0.178213	-424.199836	-424.187966	-424.187021	-424.240285	40.648	
C	-0.0065202321	 1.5741520946	 0.1054865875	-0.38919
C	-0.0242118947	 0.0481239578	-0.0067646388	-0.187714
C	 0.7321167957	-0.4674267191	-1.2337280192	 0.127386
O	 2.1022738555	-0.0937767397	-1.2170249502	-0.423216
C	 0.5843145033	-2.005487436	-1.3894598196	-0.091074
O	-0.7918296027	-2.3867567116	-1.4333567246	-0.41823
C	 1.3213299812	-2.5071751332	-2.5481478869	 0.037902
C	 1.871535304	-2.9115613875	-3.54042049	 0.099438
C	 2.5580799669	-3.3998864008	-4.727162101	-0.500653
H	 1.0196314522	 1.9518266224	 0.1088591997	 0.124694
H	-0.5261702028	 2.0362526294	-0.7412548197	 0.113809
H	-0.5007711289	 1.9088495151	 1.022381292	 0.109672
H	 0.4294791358	-0.3992438012	 0.8912755691	 0.079689
H	-1.0502290023	-0.3290280491	-0.0498329233	 0.118255
H	 0.3247222834	-0.0015864421	-2.1405090414	 0.08403
H	 2.4938393607	-0.4462327373	-0.4094714749	 0.278489
H	 0.9788021705	-2.4706589933	-0.4737376535	 0.098479
H	-1.0785743614	-2.3020299272	-2.3490588988	 0.285356
H	 2.8770028153	-4.4407727232	-4.6050109766	 0.149891
H	 1.9095187002	-3.3528434721	-5.6088889325	 0.148453
H	 3.4493733902	-2.7997449458	-4.9404227374	 0.154534
3.3522	51.9015	73.7979	100.183	150.8335	196.5253	223.3066	248.409	257.9051	282.6189	302.8408	333.6324	398.0187	413.5288	462.2694	561.6135	578.9739	781.6461	791.8707	890.5114	990.4103	1010.2259	1044.7339	1052.5012	1053.9471	1078.5973	1112.4043	1139.6659	1169.0638	1221.7607	1263.5011	1270.8463	1322.6792	1368.1703	1380.9838	1403.8495	1412.1913	1417.0284	1418.7761	1476.7618	1478.1153	1486.9545	1496.18	1509.8727	2367.188	2991.7014	2996.1677	3027.8199	3034.2351	3037.6332	3085.7616	3088.5913	3090.6512	3101.4123	3119.1794	3790.8164	3812.2177
CCC(O)C(O)C#CC	CC[C@@H](O)[C@@H](O)C#CC	
InChI=1S/C7H12O2/c1-3-5-7(9)6(8)4-2/h6-9H,4H2,1-2H3	InChI=1S/C7H12O2/c1-3-5-7(9)6(8)4-2/h6-9H,4H2,1-2H3/t6-,7+/m1/s1
