21
gdb 115767	2.61022	0.95562	0.7545	3.8835	80.93	-0.2762	0.01	0.2862	1546.1753	0.181328	-424.24572	-424.23603	-424.235086	-424.281329	34.778	
C	 0.0805840168	 1.4274020449	-0.156660724	-0.388403
C	 0.0061363531	-0.0958845439	-0.2969824409	-0.169449
C	-1.370576473	-0.6522562328	 0.0710579881	-0.026327
C	-2.4746718171	-0.4454914168	-1.014167387	-0.231881
C	-2.2571791157	-1.910820877	-1.4869503957	-0.254534
C	-1.5403793794	-2.1828344748	-0.1507820515	 0.131916
O	-0.3458287609	-2.9560652418	-0.2333886787	-0.184716
C	-0.1909690331	-4.0062235127	 0.5937596395	 0.164072
O	 0.7850591464	-4.6939804013	 0.5935415158	-0.277081
H	 1.0726503253	 1.7993388667	-0.4296272417	 0.117425
H	-0.6496133042	 1.9287771227	-0.8009925978	 0.116711
H	-0.1207076014	 1.7393725229	 0.8742735545	 0.114792
H	 0.2642134601	-0.3883446395	-1.3221988299	 0.102754
H	 0.7609516703	-0.5641504909	 0.3447148138	 0.109549
H	-1.6376587922	-0.3145849165	 1.0782021495	 0.069103
H	-3.465862144	-0.2858230179	-0.5831989661	 0.10575
H	-2.2885178756	 0.3377941355	-1.7519866365	 0.108003
H	-3.1342712	-2.5180351375	-1.720373641	 0.104756
H	-1.5524012154	-1.974384867	-2.3192439078	 0.125926
H	-2.2100287428	-2.6278811686	 0.5947325664	 0.085924
H	-1.0626000874	-4.1569005537	 1.2614429511	 0.075711
43.8001	94.362	114.5524	136.0088	175.4965	219.7267	272.9243	297.8938	378.7448	408.1614	482.7503	637.3415	719.0421	764.9407	806.3508	837.2789	906.6389	927.5446	963.2669	980.4493	999.5184	1044.889	1053.1028	1077.1733	1112.1189	1144.7975	1168.6343	1198.7832	1217.9192	1247.5615	1257.7117	1272.2361	1283.6004	1309.2731	1338.725	1382.6286	1391.8571	1412.1805	1439.5307	1482.0245	1483.7308	1498.5662	1502.0721	1507.7929	1864.8696	2938.698	3027.2674	3031.193	3032.87	3045.6201	3066.0075	3069.617	3073.7147	3099.2187	3105.869	3114.0134	3131.2889
CCC1CCC1OC=O	CC[C@H]1CC[C@H]1OC=O	
InChI=1S/C7H12O2/c1-2-6-3-4-7(6)9-5-8/h5-7H,2-4H2,1H3	InChI=1S/C7H12O2/c1-2-6-3-4-7(6)9-5-8/h5-7H,2-4H2,1H3/t6-,7+/m0/s1
