20
gdb 120801	5.20323	0.6289	0.596	1.478	83.33	-0.2482	0.0536	0.3018	1881.3389	0.16847	-403.07072	-403.060438	-403.059494	-403.107187	36.274	
C	 0.2869468104	 1.3282793741	-0.3211455057	-0.226445
O	 0.2859899277	-0.070590408	-0.1726959086	-0.235539
C	 0.4727603555	-0.4793047671	 1.1656701916	-0.052604
C	 0.4622473138	-1.9850914092	 1.1950592394	-0.040481
N	 1.7570777881	-2.6754652709	 1.087461412	-0.323885
C	 0.9784962234	-2.8062410658	 2.3229190524	-0.016686
C	 1.5863884513	-2.2214247897	 3.5921814249	-0.357314
C	 2.4147175579	-3.18996033	 4.3032533902	 0.295587
C	 3.0806540756	-4.0080938436	 4.8789278786	-0.439017
H	 1.2441312943	 1.7729589244	-0.0056152709	 0.105914
H	 0.1298486957	 1.5452688685	-1.3804898133	 0.127484
H	-0.5188081502	 1.8031193743	 0.2621447311	 0.101093
H	 1.4268223457	-0.0962556277	 1.5584203695	 0.093866
H	-0.3376543978	-0.0804159112	 1.8022958026	 0.082287
H	-0.3800190581	-2.4058598591	 0.6476430243	 0.092261
H	 1.6824763205	-3.510487378	 0.5141710681	 0.235676
H	 0.4617854127	-3.7491604214	 2.4937726213	 0.094197
H	 2.187392235	-1.3435973175	 3.3341539015	 0.139268
H	 0.7816199412	-1.8750721526	 4.2543476529	 0.129729
H	 3.6793610774	-4.7208220794	 5.3894570781	 0.194609
44.2007	77.8114	82.2827	95.4303	157.8745	229.8819	245.533	325.4009	335.4172	377.5858	477.4514	482.5699	558.6089	614.9262	639.6227	815.1641	862.2654	870.8033	945.2706	969.8157	983.0504	1000.0255	1039.2743	1057.9568	1140.4877	1157.5052	1180.9407	1191.5771	1220.8831	1241.9925	1264.9344	1270.9429	1285.2085	1317.884	1377.5958	1429.6401	1458.9847	1475.8742	1484.935	1493.163	1498.8338	1523.1315	2239.9752	2942.4588	2967.1831	3003.9246	3010.5017	3022.6845	3077.9315	3113.9864	3116.3685	3127.01	3507.7647	3517.1107
COCC1NC1CC#C	COC[C@H]1N[C@H]1CC#C	
InChI=1S/C7H11NO/c1-3-4-6-7(8-6)5-9-2/h1,6-8H,4-5H2,2H3	InChI=1S/C7H11NO/c1-3-4-6-7(8-6)5-9-2/h1,6-8H,4-5H2,2H3/t6-,7+/m0/s1
