16
gdb 30756	2.97007	1.33287	0.95809	2.0868	68.17	-0.178	0.0499	0.2279	1180.653	0.122969	-475.024824	-475.015412	-475.014468	-475.059009	33.912	
C	 0.3847708981	 0.7771932535	-0.4791863653	-0.252975
O	-0.5325000958	 0.6045772554	 0.6047777732	-0.272084
C	-1.5018428845	-0.3142426169	 0.3820290803	 0.299039
C	-1.4621481668	-1.6410459019	 0.0029500193	 0.013361
O	-0.373047533	-2.4100643194	-0.36713843	-0.46275
C	-2.8059832647	-2.1149504575	-0.0185909659	 0.270175
O	-3.177723608	-3.3804221342	-0.3565400897	-0.455755
C	-3.6280866972	-1.084975006	 0.3637434425	-0.194656
N	-2.809186236	 0.0129154833	 0.6003310967	-0.314126
H	 1.1237757466	 1.5067920776	-0.1425526349	 0.12907
H	 0.8796380019	-0.1658944688	-0.7308111151	 0.138378
H	-0.1313074686	 1.1583242931	-1.3686620176	 0.12158
H	 0.1211618948	-2.6482208523	 0.4251070575	 0.300517
H	-2.3723856595	-3.8346187688	-0.6328579167	 0.295428
H	-4.6949104533	-1.036670145	 0.4905342851	 0.12058
H	-3.109275154	 0.917921188	 0.9147635605	 0.264221
58.2609	132.0772	169.3943	226.9904	234.9061	243.1798	247.1293	307.3022	380.318	409.0002	447.7977	544.3868	590.8476	603.2879	667.0243	698.2677	745.8354	778.734	1014.967	1078.9399	1083.8008	1180.2572	1186.2548	1207.9565	1232.5222	1267.4684	1317.1514	1363.9493	1457.8323	1465.7579	1485.3557	1509.7264	1537.4039	1615.4729	1677.6697	3021.2125	3094.4001	3135.4687	3288.3252	3698.2025	3782.4069	3790.1222
COC1=C(O)C(O)=CN1	COc1c(O)c(O)c[nH]1	
InChI=1S/C5H7NO3/c1-9-5-4(8)3(7)2-6-5/h2,6-8H,1H3	InChI=1S/C5H7NO3/c1-9-5-4(8)3(7)2-6-5/h2,6-8H,1H3
