13
gdb 42175	3.02599	1.36389	1.01163	2.453	72.47	-0.269	-0.073	0.196	1110.2054	0.084661	-419.333079	-419.324274	-419.323329	-419.366955	31.613	
O	 0.4406659103	 1.2065054463	-1.709456394	-0.271272
C	 0.1514518089	 1.6700542857	-0.632161571	 0.199137
C	 1.1016311688	 1.7449046019	 0.4623107583	 0.262564
C	 1.9221155576	 1.7751252184	 1.3421447755	-0.424296
C	-1.2398592123	 2.2033878797	-0.3350895212	 0.118628
C	-1.8308069797	 1.8984858719	 0.9980803919	-0.208176
O	-1.3009228001	 3.1786777615	 0.7212943662	-0.249303
C	-2.0951768351	 2.4159949629	-1.471292945	 0.240832
C	-2.8073032707	 2.5973845337	-2.4206148165	-0.368832
H	 2.6507817984	 1.8078142783	 2.1158232582	 0.219797
H	-2.9150074348	 1.8325585006	 1.060642301	 0.141323
H	-1.2626476834	 1.2947801133	 1.7032143961	 0.135666
H	-3.4335940279	 2.7582973659	-3.2634723495	 0.203933
45.8751	119.2968	159.8932	198.7651	230.7985	280.649	316.6668	426.7374	488.4979	533.7125	563.637	635.0741	655.5167	675.9299	680.4576	710.644	752.4516	857.7421	872.7863	961.5626	1040.6043	1137.3172	1168.7216	1283.6964	1337.3398	1507.3077	1775.1678	2214.3713	2250.0728	3093.6203	3193.3923	3492.4581	3501.1801
O=C(C#C)C1(CO1)C#C	O=C(C#C)[C@]1(CO1)C#C	
InChI=1S/C7H4O2/c1-3-6(8)7(4-2)5-9-7/h1-2H,5H2	InChI=1S/C7H4O2/c1-3-6(8)7(4-2)5-9-7/h1-2H,5H2/t7-/m1/s1
