20
gdb 78212	2.21785	1.59881	1.38861	2.0241	79.72	-0.2338	-0.0221	0.2117	1080.5898	0.16885	-403.127288	-403.117963	-403.117019	-403.160778	35.32	
C	-0.0104941723	 1.3141328572	 0.523928166	-0.434117
C	 0.1520647903	-0.1793362838	 0.3190973478	 0.019396
C	 0.4501322374	-0.8310905792	-0.989028063	-0.188726
N	 1.3824910275	-0.9788252037	 0.2182945794	-0.166685
C	 2.4736813686	-0.2254139578	-0.5279512224	 0.177257
C	 3.1676252556	 0.9248752079	 0.1885713671	-0.452955
C	 3.5124397632	-1.2686328703	-0.9708313901	-0.403619
C	 1.5007785536	-0.0347494783	-1.7185206737	 0.375042
O	 1.6135611423	 0.3897139641	-2.8327399438	-0.322448
H	 0.5267018657	 1.918526984	-0.2078543261	 0.142432
H	-1.0736033164	 1.5587060138	 0.426566404	 0.129349
H	 0.3051117339	 1.6111408156	 1.5293069761	 0.131938
H	-0.5702585743	-0.7467818673	 0.9054558173	 0.108389
H	-0.1402980111	-1.6438643479	-1.3980175387	 0.116998
H	 3.6711544122	 0.5453210355	 1.0844122061	 0.129082
H	 3.9305938116	 1.357017337	-0.4662678984	 0.133659
H	 2.4950926847	 1.7246625143	 0.4929332737	 0.123231
H	 3.0333816125	-2.1331062924	-1.4380544371	 0.125974
H	 4.2057590381	-0.8243231883	-1.6902407246	 0.130165
H	 4.0748785269	-1.6213975405	-0.1014429997	 0.125638
107.7546	135.2754	160.4288	205.8826	221.8653	268.7814	298.4044	305.508	363.8549	395.1399	487.446	585.8277	656.152	659.6916	702.1103	764.3153	802.6376	888.4424	913.0225	947.4398	976.0442	990.8237	1011.9522	1047.2736	1071.0685	1110.5795	1140.1632	1184.0455	1206.6764	1257.8468	1272.1284	1310.7606	1393.674	1407.6722	1417.305	1426.4536	1474.1932	1480.5148	1492.0756	1498.4794	1506.4734	1513.9125	1884.5379	3040.8563	3041.4797	3047.3195	3098.5655	3105.7842	3109.4823	3118.9894	3125.36	3139.8297	3168.3611	3175.9237
CC1C2N1C(C)(C)C2=O	C[C@H]1[C@@H]2N1C(C)(C)C2=O	
InChI=1S/C7H11NO/c1-4-5-6(9)7(2,3)8(4)5/h4-5H,1-3H3	InChI=1S/C7H11NO/c1-4-5-6(9)7(2,3)8(4)5/h4-5H,1-3H3/t4-,5-,8?/m0/s1
