15
gdb 105590	2.02096	1.48611	1.23186	4.3667	67.16	-0.271	-0.0602	0.2108	1080.6662	0.111636	-453.934575	-453.925793	-453.924849	-453.968689	31.043	
O	 0.1218300432	 1.3939083522	-0.1175745216	-0.407366
C	 0.0632458871	 0.0696275788	 0.3421173356	-0.075514
C	-1.3446757697	-0.5180581226	 0.1012012524	 0.002231
N	-1.7134793308	-0.4324860897	-1.3499938335	-0.364988
C	-1.8990123689	-1.9068808727	-1.4853548562	-0.279642
C	-1.3980161617	-2.0788226137	-0.0482530375	 0.349099
O	-1.1182125724	-2.986556964	 0.6641285709	-0.255292
C	-2.3459655747	 0.0238181591	 1.0097003075	 0.259094
N	-3.169219475	 0.4353116531	 1.7101792785	-0.323226
H	-0.1039905851	 1.3617097783	-1.0566067176	 0.294231
H	 0.7924733114	-0.578843795	-0.1662301714	 0.101805
H	 0.2926257017	 0.0735057002	 1.4104884096	 0.143134
H	-2.5635453614	 0.0955512439	-1.5104764708	 0.251549
H	-2.9359897528	-2.2434374926	-1.6070731144	 0.152446
H	-1.284153781	-2.3689776751	-2.2639958017	 0.152438
75.4927	87.3462	124.5681	156.1254	189.7968	302.8401	351.4207	430.6868	476.0615	525.3417	549.8305	607.2183	660.6301	726.4422	820.0628	910.1431	939.8604	988.1755	1008.5777	1051.8622	1086.8992	1116.1245	1146.4133	1171.1228	1245.312	1281.4096	1373.1257	1390.7411	1420.5863	1469.0063	1495.923	1929.3466	2345.1112	2994.0966	3035.1584	3088.9426	3108.8812	3554.318	3767.4428
OCC1(NCC1=O)C#N	OC[C@]1(NCC1=O)C#N	
InChI=1S/C5H6N2O2/c6-2-5(3-8)4(9)1-7-5/h7-8H,1,3H2	InChI=1S/C5H6N2O2/c6-2-5(3-8)4(9)1-7-5/h7-8H,1,3H2/t5-/m1/s1
