19
gdb 126470	5.01149	0.85578	0.7793	3.6946	81.25	-0.2026	0.0233	0.226	1526.3051	0.159063	-419.211251	-419.201741	-419.200797	-419.2463	33.952	
C	 0.0029874641	 1.4288526978	-0.4801969775	-0.373723
C	-0.0772796271	 0.1112324026	 0.3067917082	-0.290126
C	-1.4147529497	-0.5577502274	 0.1929095087	 0.420586
N	-2.1646466594	-0.6825820787	 1.2638602984	-0.235576
O	-3.3427760579	-1.333230334	 0.8131783679	-0.224935
C	-3.2308301855	-1.5684004777	-0.5002048483	 0.542186
N	-4.2576513018	-2.2466382065	-1.0938833615	-0.391265
C	-5.5587718385	-2.3415065915	-0.446481811	-0.32995
C	-2.0320732041	-1.0961345557	-0.9682416762	-0.48193
H	 0.9934639167	 1.881415452	-0.3739180744	 0.115227
H	-0.1811146899	 1.2687723673	-1.547202503	 0.117044
H	-0.7401483675	 2.1446079914	-0.1164580923	 0.129233
H	 0.6976433561	-0.577042059	-0.0522805985	 0.110732
H	 0.1206478872	 0.2926325261	 1.3671759379	 0.125039
H	-4.272797117	-2.1678716025	-2.0981629705	 0.25222
H	-6.1894889462	-3.0133790027	-1.032188687	 0.128582
H	-5.4387782288	-2.7639567425	 0.5528977701	 0.16017
H	-6.0658091576	-1.3715478859	-0.3486716279	 0.127774
H	-1.6495080231	-1.1392142431	-1.973912543	 0.098712
53.2914	75.0054	126.7096	154.669	179.994	223.7618	269.414	335.7436	435.4611	444.0731	510.6102	626.4743	687.6536	717.3274	738.1786	753.3184	796.3833	902.2679	967.2249	996.8941	1024.8222	1070.5193	1079.4581	1097.2839	1145.4748	1157.9133	1203.2927	1280.3309	1350.1586	1360.3045	1407.3237	1431.4781	1456.0979	1480.0725	1487.7225	1496.9529	1498.4796	1512.021	1517.9682	1559.6762	1663.4745	3008.6753	3034.8166	3039.1175	3087.5868	3100.569	3110.995	3116.727	3141.9764	3270.9717	3633.6769
CCC1=NOC(NC)=C1	CCc1noc(NC)c1	
InChI=1S/C6H10N2O/c1-3-5-4-6(7-2)9-8-5/h4,7H,3H2,1-2H3	InChI=1S/C6H10N2O/c1-3-5-4-6(7-2)9-8-5/h4,7H,3H2,1-2H3
