22
gdb 123197	9.97199	0.40921	0.39892	4.751	85.46	-0.2645	0.0363	0.3008	2687.7826	0.192252	-404.36596	-404.354844	-404.3539	-404.403995	37.673	
C	-0.0582509101	 1.4773190626	 0.0879967301	-0.383119
C	 0.0169878075	-0.0478297521	-0.016015419	-0.183475
C	 0.7304035795	-0.5092924047	-1.2788022676	-0.034953
O	 0.7569174541	-1.9229615339	-1.2976338619	-0.246989
C	 1.3968998738	-2.4566039847	-2.4295520356	-0.054178
C	 1.3574932032	-3.9766892424	-2.3253703628	-0.196714
C	 2.0414016973	-4.64217969	-3.5341749509	-0.342327
C	 2.017959906	-6.1010236407	-3.4595080775	 0.259065
N	 1.9932686264	-7.2540923374	-3.3894134891	-0.302237
H	 0.9406969161	 1.9269849361	 0.1053148088	 0.117073
H	-0.6015235904	 1.9098907175	-0.759429628	 0.117072
H	-0.5744060675	 1.7826351613	 1.0024923079	 0.120031
H	 0.5422817917	-0.463292134	 0.8514816621	 0.108783
H	-0.9899950659	-0.4802724725	-0.0079683041	 0.108772
H	 0.2123242632	-0.1261144653	-2.1754847723	 0.084405
H	 1.7589619413	-0.1086957698	-1.308095937	 0.084417
H	 0.8946124678	-2.1228785522	-3.3554189937	 0.086436
H	 2.4422295578	-2.1036557495	-2.4894810053	 0.086435
H	 1.8520281016	-4.2875896564	-1.4002863035	 0.132298
H	 0.3164636328	-4.3065558934	-2.2586292392	 0.132312
H	 1.5516830732	-4.3370496657	-4.4667136636	 0.15345
H	 3.0862697107	-4.317827853	-3.6090785077	 0.153445
37.77	63.5884	66.0093	97.5442	139.0758	154.4649	158.2892	241.2349	257.3744	291.9962	397.8415	430.1726	489.8836	572.1537	757.3691	764.5288	869.1996	901.552	910.7943	936.925	1008.1609	1042.0278	1060.5684	1078.5329	1123.3187	1156.1132	1166.5737	1189.6166	1224.8856	1269.9154	1277.123	1300.9748	1313.3664	1314.8897	1332.6473	1370.0268	1406.5054	1415.2515	1457.3684	1471.0215	1491.2108	1498.8607	1502.069	1506.7203	1518.0875	1538.1671	2364.3932	2933.989	2948.551	2961.0389	2969.9113	3032.7131	3036.7109	3039.9438	3063.5602	3070.8691	3072.8561	3101.0023	3110.3437	3111.2619
CCCOCCCC#N	CCCOCCCC#N	
InChI=1S/C7H13NO/c1-2-6-9-7-4-3-5-8/h2-4,6-7H2,1H3	InChI=1S/C7H13NO/c1-2-6-9-7-4-3-5-8/h2-4,6-7H2,1H3
