18
gdb 90496	2.20578	1.67801	1.3781	2.3301	73.56	-0.2507	-0.0594	0.1913	1031.417	0.146651	-439.048479	-439.039943	-439.038998	-439.081299	32.289	
C	-0.0719802587	 1.4852870082	-0.0705533587	-0.496411
C	-0.0414673908	-0.0162794766	-0.0507286039	 0.27289
C	-0.8676022751	-0.7812841527	 0.9325633932	-0.135021
C	-1.719897036	-1.975188816	 0.6974419126	 0.145399
O	-1.6977494702	-2.7212511074	-0.2602776109	-0.282126
N	 0.6362317277	-0.8207659212	 1.0357649855	-0.179715
C	 1.1430424044	-1.7808446416	-0.0118913969	-0.219971
C	 0.5840252442	-0.8900303412	-1.1586392044	 0.079744
O	-0.1809676491	-1.4155630033	-2.1928427009	-0.43732
H	 0.8896372611	 1.8855842292	-0.4080297994	 0.131023
H	-0.845963026	 1.8397885279	-0.7599959314	 0.137716
H	-0.281297626	 1.8948183932	 0.9218419941	 0.12971
H	-1.2552539325	-0.1730257396	 1.7469286856	 0.106028
H	-2.4343746834	-2.1729244508	 1.5234012078	 0.105663
H	 2.2323034113	-1.8222123696	 0.0445820913	 0.119271
H	 0.7390789412	-2.7923077083	 0.057862537	 0.125341
H	 1.393405381	-0.3215275301	-1.6278160172	 0.098386
H	-0.8284268432	-2.0093546899	-1.7807794336	 0.299393
119.3707	156.1774	197.2283	203.4133	229.7757	260.0144	315.3693	414.9943	421.8011	546.4245	626.2368	649.8938	682.7809	700.8869	799.1434	846.4383	879.5145	932.2058	953.0847	1013.9317	1054.723	1059.7958	1098.9549	1116.9696	1155.8951	1186.3309	1237.6782	1261.4605	1294.851	1326.4448	1353.0775	1409.6933	1438.2627	1440.0536	1479.1038	1486.9945	1490.8077	1494.0397	1781.7248	2918.7694	3033.7357	3062.5646	3078.9547	3100.9878	3112.8117	3135.1591	3137.1335	3676.8816
CC12C(C=O)N1CC2O	C[C@]12[C@@H](C=O)N1C[C@H]2O	
InChI=1S/C6H9NO2/c1-6-4(3-8)7(6)2-5(6)9/h3-5,9H,2H2,1H3	InChI=1S/C6H9NO2/c1-6-4(3-8)7(6)2-5(6)9/h3-5,9H,2H2,1H3/t4-,5-,6-,7?/m1/s1
