14
gdb 28784	3.40293	1.74797	1.15865	3.5014	69.18	-0.1873	0.0257	0.213	965.3922	0.103531	-432.901252	-432.894077	-432.893133	-432.932685	27.424	
O	-0.0368657505	 1.3804399205	 0.1329166258	-0.435327
C	 0.0294224427	 0.0265388664	 0.0105370476	 0.233065
C	 0.0219418891	-0.8321592507	-1.0630664933	-0.177688
N	 0.0366837206	-2.164835919	-0.6747403702	-0.408014
C	 0.0406483319	-2.0818416896	 0.6334088598	 0.498842
N	 0.0421865254	-2.9225203076	 1.7193585274	-0.415309
C	 0.0331811029	-2.1466455096	 2.8722216963	-0.081125
C	 0.0316385567	-0.832416775	 2.5211921171	-0.145691
N	 0.0381546624	-0.7994034845	 1.1301659856	-0.047648
H	 0.8363386631	 1.7601048958	-0.0168739993	 0.305236
H	 0.0078923881	-0.5547021206	-2.1061620716	 0.106153
H	 0.0281740121	-3.9245596534	 1.6711984697	 0.277093
H	 0.0291451683	-2.5950592457	 3.8507321903	 0.14303
H	 0.020732187	 0.0548968232	 3.1281856648	 0.147382
141.4364	198.0429	210.0039	277.5544	313.0313	388.4151	579.7126	591.4794	607.3136	642.4884	678.7496	735.8723	750.8534	770.6239	809.0724	825.4099	941.9833	1055.107	1087.9121	1147.6267	1183.653	1211.3312	1263.7771	1286.7805	1314.0813	1361.6888	1433.41	1455.6674	1588.3433	1609.8	1658.1308	3248.3253	3285.0401	3306.7865	3709.9629	3775.5338
OC1=CN=C2NC=CN12	Oc1cnc2[nH]ccn12	
InChI=1S/C5H5N3O/c9-4-3-7-5-6-1-2-8(4)5/h1-3,9H,(H,6,7)	InChI=1S/C5H5N3O/c9-4-3-7-5-6-1-2-8(4)5/h1-3,9H,(H,6,7)
