22
gdb 89434	2.83539	1.59851	1.37194	1.3585	84.55	-0.2306	0.0895	0.3201	1067.1687	0.195514	-367.189128	-367.181004	-367.18006	-367.221081	33.208	
C	-0.3382524086	 1.5322670807	 0.0490488816	-0.399527
C	 0.031195083	 0.0538127548	-0.0410455262	 0.059883
C	 0.7565312001	-0.3972461805	-1.3455672329	-0.281275
C	 2.1639144307	-0.78266786	-0.8669903731	 0.327941
C	 2.9847532398	-1.636034961	-1.8125289502	-0.490937
C	 2.8507533566	 0.4903182592	-0.2671675289	-0.290526
C	 2.2966528995	 0.0927921184	 1.1068888211	-0.048391
C	 1.9293881745	-1.2687997848	 0.6064784998	-0.106102
N	 0.8996474834	-0.3719005253	 1.0847825651	-0.097642
H	 0.5354169737	 2.1801053917	-0.0664666689	 0.119668
H	-1.0594763992	 1.7957662439	-0.7310070776	 0.113139
H	-0.7919015471	 1.7492515148	 1.0208062268	 0.124216
H	-0.8906925359	-0.5281260368	 0.0726199002	 0.078907
H	 0.2501169541	-1.2593903252	-1.7949431015	 0.08987
H	 0.790370964	 0.3949712823	-2.1016464257	 0.095042
H	 3.1793665521	-1.111027648	-2.7545453973	 0.117101
H	 3.9536603403	-1.8972351266	-1.3732416909	 0.114585
H	 2.4631423438	-2.5694703148	-2.0547536679	 0.113952
H	 3.9407521107	 0.3916859159	-0.273638351	 0.099314
H	 2.5829722484	 1.4639939644	-0.6906008574	 0.090327
H	 2.6933140727	 0.3978627032	 2.0691957614	 0.08776
H	 2.0629554432	-2.2619103265	 1.0214462435	 0.082696
146.3826	200.8102	221.1379	226.4073	280.7355	323.2489	398.247	402.7474	493.5427	604.7994	649.9261	689.1796	730.3881	822.0182	841.3463	858.8367	865.2956	916.2654	937.8479	941.3669	977.0269	999.9184	1004.0324	1042.7019	1066.2243	1074.4596	1125.4153	1132.2063	1168.2253	1190.7344	1218.7384	1233.7214	1245.4926	1256.1409	1274.0671	1326.9575	1334.0294	1370.2959	1381.6034	1407.6621	1413.6545	1483.9488	1491.9195	1493.1377	1494.0411	1498.3317	1505.6414	3020.4407	3023.6031	3034.267	3037.1386	3042.3707	3073.8823	3085.5698	3087.2924	3091.8703	3109.919	3116.9348	3161.6255	3174.7577
CC1CC2(C)CC3C2N13	C[C@H]1C[C@@]2(C)C[C@@H]3[C@H]2N13	
InChI=1S/C8H13N/c1-5-3-8(2)4-6-7(8)9(5)6/h5-7H,3-4H2,1-2H3	InChI=1S/C8H13N/c1-5-3-8(2)4-6-7(8)9(5)6/h5-7H,3-4H2,1-2H3/t5-,6+,7+,8-,9?/m0/s1
