18
gdb 77455	1.88914	1.56854	1.5025	3.4926	72.84	-0.2388	0.005	0.2438	1072.062	0.146182	-439.091185	-439.081968	-439.081024	-439.124639	34.271	
C	-0.0092753789	 1.5969446269	-0.0535881386	-0.427972
C	 0.0500414185	 0.0860138192	-0.0723954841	-0.100282
C	 0.676938854	-0.7377083656	-1.1419190336	 0.411495
C	 0.0903227615	-1.804229677	-2.0000851642	-0.490287
O	 1.8381290566	-0.0137430048	-1.6642598163	-0.300359
C	 2.4866787212	-0.1304451913	-0.4379762869	 0.401879
O	 3.6198568463	 0.1339099553	-0.1930893215	-0.335075
C	 1.300531054	-0.7605650881	 0.2543071559	 0.029485
N	 1.271084469	-1.7426973068	 1.2721386204	-0.601648
H	 0.8428106264	 2.0359967951	-0.5764846565	 0.147729
H	-0.9214516586	 1.9458118769	-0.5490082023	 0.12528
H	-0.0205998598	 1.9770951697	 0.9727426391	 0.123295
H	-0.8174625386	-0.4111475377	 0.3609402554	 0.108934
H	-0.4390272083	-1.3764686973	-2.8580429485	 0.138509
H	 0.8719717451	-2.4703380266	-2.3774337643	 0.137239
H	-0.6219974124	-2.3947914512	-1.4169944565	 0.140362
H	 2.0613491322	-2.3752579117	 1.2012932151	 0.246132
H	 1.2966522921	-1.3229894951	 2.1958505575	 0.245286
120.2978	159.7811	176.0207	193.5045	201.9022	246.6076	259.4176	292.4557	362.3816	447.5125	534.3561	586.8665	637.2462	682.8904	732.5699	745.5638	804.6337	827.8332	886.4875	945.6342	1002.7193	1023.7172	1091.3029	1119.3079	1128.3553	1145.267	1217.5222	1270.1449	1311.9845	1362.5263	1414.9196	1417.1305	1474.2446	1488.0581	1493.6917	1496.8954	1525.109	1666.7448	1928.046	3038.3496	3040.8948	3100.3539	3104.1234	3120.0693	3122.8706	3136.895	3502.9472	3578.2633
CC1C2(C)OC(=O)C12N	C[C@H]1[C@@]2(C)OC(=O)[C@@]12N	
InChI=1S/C6H9NO2/c1-3-5(2)6(3,7)4(8)9-5/h3H,7H2,1-2H3	InChI=1S/C6H9NO2/c1-3-5(2)6(3,7)4(8)9-5/h3H,7H2,1-2H3/t3-,5+,6-/m0/s1
