17
gdb 66262	1.99275	1.65516	1.40037	3.2814	72.17	-0.2434	-0.0493	0.1941	1038.4137	0.136325	-418.039901	-418.031224	-418.030279	-418.073305	31.835	
C	-0.1809749165	 1.5939736493	 0.0103564166	-0.436565
C	 0.0271581719	 0.0763600963	-0.0382914471	-0.006183
C	 0.8850102247	-0.4778067737	-1.2151947013	-0.215444
N	 1.4767267254	-1.7374703848	-0.7524040799	-0.29366
C	 1.7988005001	-1.5378185052	 0.6600088155	-0.282507
C	 0.8779503649	-0.4261177243	 1.1829484237	 0.380266
O	 0.8367118778	 0.0327877005	 2.2873944815	-0.291355
C	-1.2465222	-0.6433461907	 0.0017621601	 0.261214
N	-2.236958577	-1.2413231366	 0.0221498608	-0.335911
H	 0.7834680949	 2.1011851516	-0.0842959296	 0.129315
H	-0.8336909238	 1.9286073029	-0.7994480064	 0.137695
H	-0.6250348439	 1.8802558941	 0.9663087248	 0.158868
H	 0.311780176	-0.6291709629	-2.130631277	 0.134654
H	 1.6831582285	 0.2452162332	-1.426078319	 0.119674
H	 0.7914987368	-2.4799578324	-0.8450135987	 0.242482
H	 1.6887674279	-2.4497334053	 1.2518192709	 0.151227
H	 2.8358480623	-1.1953481621	 0.7838904451	 0.14623
75.8705	133.5376	153.9257	199.0603	229.5697	254.9645	329.1909	419.9221	497.2166	523.147	575.3187	626.0694	634.3885	709.2253	787.6129	839.6304	896.3374	949.6402	963.3082	1040.4203	1072.7267	1104.016	1122.0697	1159.2399	1179.3205	1246.3685	1289.6832	1317.1858	1353.5523	1412.2401	1458.0473	1474.4856	1487.5591	1490.173	1497.964	1867.708	2339.3748	3018.1184	3031.7068	3050.462	3107.2426	3125.3807	3128.2561	3138.3926	3529.9432
CC1(CNCC1=O)C#N	C[C@]1(CNCC1=O)C#N	
InChI=1S/C6H8N2O/c1-6(3-7)4-8-2-5(6)9/h8H,2,4H2,1H3	InChI=1S/C6H8N2O/c1-6(3-7)4-8-2-5(6)9/h8H,2,4H2,1H3/t6-/m1/s1
