20
gdb 36419	3.62989	1.02125	0.95562	4.1215	81.88	-0.2772	0.0357	0.3128	1290.6054	0.173214	-366.03211	-366.023892	-366.022948	-366.065342	31.629	
N	-0.3716622587	-0.8441871683	-0.6360189508	-0.310876
C	-0.1793535967	 0.2835786217	-0.4712440159	 0.263101
C	 0.0854541823	 1.7052100956	-0.255771374	-0.357012
C	 1.541587635	 1.9803973864	 0.1947601148	 0.003661
C	 2.6168999293	 1.570642273	-0.8554891012	-0.239098
C	 3.1361192161	 2.8591130588	-1.4763629486	-0.016728
C	 2.1397109022	 3.8239880474	-2.069314277	-0.292131
C	 2.6340807891	 4.0281914311	-0.6583867938	-0.017418
C	 1.7892702427	 3.4910285863	 0.4877898633	-0.252927
H	-0.1554914744	 2.2413948381	-1.17940993	 0.152685
H	-0.6115210424	 2.0710462197	 0.50709152	 0.149895
H	 1.687858862	 1.400991899	 1.1102234461	 0.097812
H	 3.4430573426	 1.0562260087	-0.3536096083	 0.10776
H	 2.2165739821	 0.8662498752	-1.5930770078	 0.117429
H	 4.1402172804	 2.8536948623	-1.8858639102	 0.085318
H	 2.5078825478	 4.5105936099	-2.8241995143	 0.114407
H	 1.117126001	 3.5050208956	-2.2416209452	 0.105453
H	 3.2657861691	 4.8872082372	-0.4609278472	 0.084217
H	 0.8488443323	 4.0397248551	 0.6196308098	 0.098481
H	 2.3460343583	 3.5977568173	 1.4248794603	 0.105972
61.0202	118.0326	144.0515	245.6674	338.4453	355.8599	373.2547	394.9321	524.7401	624.5084	715.0988	757.6944	804.162	822.6462	862.8388	885.5728	893.3381	932.5444	965.3328	992.4899	1004.9359	1054.0965	1061.5041	1076.744	1100.5973	1114.6105	1126.6289	1196.8877	1206.5484	1218.0625	1246.9814	1278.8617	1314.9044	1327.9618	1331.6591	1365.8064	1382.6805	1402.4051	1465.2007	1488.5941	1492.4071	1504.1905	2359.203	3029.0541	3041.2921	3047.11	3058.3534	3071.3	3078.6969	3092.1761	3132.7582	3163.3815	3172.2464	3211.9845
N#CCC1CC2CC2C1	N#CC[C@H]1C[C@H]2C[C@H]2C1	
InChI=1S/C8H11N/c9-2-1-6-3-7-5-8(7)4-6/h6-8H,1,3-5H2	InChI=1S/C8H11N/c9-2-1-6-3-7-5-8(7)4-6/h6-8H,1,3-5H2/t6-,7-,8+
