19
gdb 9807	3.31588	1.45425	1.37235	3.8553	72.51	-0.2382	0.0292	0.2673	1017.2519	0.164223	-365.077003	-365.06807	-365.067126	-365.110387	32.543	
C	 0.5187847237	 0.8957385978	 0.5701776867	-0.351053
N	-0.2199169803	-0.257064794	 0.076919097	-0.083206
C	-1.2267607616	-0.7831713255	 0.8379881441	 0.145591
O	-1.5306865391	-0.420706862	 1.9558108522	-0.345853
C	-0.0277770889	-0.6731259403	-1.2919544171	 0.321978
C	-0.7669079136	 0.1617544619	-2.3241051898	-0.439838
C	 1.3341250007	-1.2217332201	-1.6490293966	-0.297654
C	 0.1500692048	-2.1508820618	-1.5526387141	-0.299372
H	 1.5965101006	 0.7265718553	 0.4827570877	 0.123235
H	 0.2657822858	 1.8053691972	 0.0122136451	 0.123947
H	 0.2497421061	 1.0376956829	 1.6166971466	 0.1667
H	-1.7417955463	-1.6096311266	 0.3142537503	 0.07688
H	-0.4729680419	 1.2152762019	-2.267580093	 0.124574
H	-0.5505260947	-0.189583126	-3.3371193247	 0.119261
H	-1.849343807	 0.1047083762	-2.1673524014	 0.126304
H	 1.7338391689	-0.9831165005	-2.6281586431	 0.117972
H	 2.0758098831	-1.2823863763	-0.8609215951	 0.123244
H	 0.117928051	-2.828628376	-0.7083089268	 0.127176
H	-0.2747153211	-2.5511857643	-2.4665188181	 0.120115
75.773	104.5815	158.805	207.0735	232.9512	295.0137	325.802	335.7342	353.9221	432.3327	516.3331	554.2012	785.1394	786.5541	875.0325	880.7885	939.4348	951.8422	1037.1107	1045.5961	1058.9889	1072.3411	1090.3427	1127.4722	1158.9192	1189.7938	1196.3903	1310.8164	1347.2174	1378.927	1416.3268	1437.1291	1438.4491	1463.9778	1485.6116	1493.4517	1500.1111	1505.1979	1516.0814	1791.6144	2961.671	3025.9079	3033.2131	3083.6454	3097.3774	3111.2448	3138.9022	3144.0945	3158.9912	3221.7486	3235.6565
CN(C=O)C1(C)CC1	CN(C=O)C1(C)CC1	
InChI=1S/C6H11NO/c1-6(3-4-6)7(2)5-8/h5H,3-4H2,1-2H3	InChI=1S/C6H11NO/c1-6(3-4-6)7(2)5-8/h5H,3-4H2,1-2H3
