19
gdb 121524	5.81223	0.47387	0.44299	2.5381	85.15	-0.2547	-0.0461	0.2086	2428.072	0.155306	-423.008415	-422.997332	-422.996388	-423.047668	36.5	
C	-0.0547787801	 1.3625058604	 0.0765874842	-0.232039
O	-0.020272191	-0.0439893961	-0.0007909453	-0.227971
C	 0.6525497622	-0.5146220267	-1.1432790115	-0.044367
C	 0.612369781	-2.0467421462	-1.0941578179	-0.362145
C	 1.2797089888	-2.6631594604	-2.2291663628	 0.025504
C	 1.8427624908	-3.1381483403	-3.1860712045	 0.058542
C	 2.5171231914	-3.7153744216	-4.3334341267	 0.249104
C	 2.5236005788	-5.2299901202	-4.3907830231	-0.476994
O	 3.0365383618	-3.0221667029	-5.1826236465	-0.277726
H	 0.9575896647	 1.793174127	 0.1231348749	 0.109025
H	-0.5771131747	 1.8055393871	-0.7856352161	 0.109004
H	-0.5934937834	 1.6251524648	 0.9898970468	 0.130862
H	 0.1701135762	-0.1543408606	-2.0660119268	 0.103953
H	 1.6973797817	-0.1654089111	-1.1621058428	 0.104033
H	 1.0759934346	-2.3828818106	-0.158657454	 0.149119
H	-0.4342825789	-2.3720431197	-1.0519174117	 0.14902
H	 1.4964362941	-5.6104007373	-4.3986165638	 0.145499
H	 3.0518689141	-5.5598320214	-5.2865110356	 0.142069
H	 3.007926878	-5.6380749343	-3.4970565069	 0.145511
12.4945	54.1927	69.7576	103.5601	120.4076	143.7181	161.3973	233.7652	256.3761	362.1845	394.4927	449.5994	486.8663	603.3196	614.235	689.9312	789.3316	959.3296	991.0876	1042.5147	1043.6286	1063.5983	1081.5384	1164.1589	1181.7885	1226.9226	1229.9223	1246.8198	1298.7035	1310.889	1380.2383	1419.6178	1460.8198	1463.9161	1468.6969	1482.6847	1486.8178	1504.3567	1531.5738	1767.3797	2332.3994	2967.0517	2979.1235	3002.0943	3021.2196	3033.874	3039.0926	3070.6675	3103.2086	3118.7165	3151.5263
COCCC#CC(C)=O	COCCC#CC(=O)C	
InChI=1S/C7H10O2/c1-7(8)5-3-4-6-9-2/h4,6H2,1-2H3	InChI=1S/C7H10O2/c1-7(8)5-3-4-6-9-2/h4,6H2,1-2H3
