25
gdb 103282	2.33644	1.25525	1.09579	0.1834	93.	-0.2439	0.0863	0.3302	1322.3384	0.228517	-352.33527	-352.325276	-352.324332	-352.369587	38.85	
C	 0.4871650801	 1.6613496749	 0.4299951545	-0.38352
C	 0.0696029208	 0.2199243874	 0.1029106985	-0.258587
C	 0.8224830286	-0.3868991777	-1.0759449924	 0.361711
C	 0.6024387217	 0.3598833474	-2.3877533228	-0.457604
C	 2.2104457092	-0.9618728365	-0.9514952933	-0.087525
C	 2.418382052	-1.7304582921	 0.3632100944	-0.287635
C	 1.2945371655	-2.7366058416	-0.0666571148	 0.03493
C	 0.1778273945	-3.1619789589	 0.8829418617	-0.417039
C	 1.0186335003	-1.8720214735	-1.3078733421	-0.13306
H	 1.5653702177	 1.72424016	 0.613447286	 0.117729
H	 0.2476369428	 2.3547578524	-0.3813706158	 0.116312
H	-0.026478327	 2.018881923	 1.3280024289	 0.10853
H	 0.2144955857	-0.3864257329	 0.9983372811	 0.100933
H	-1.0075288905	 0.1899054229	-0.1106752818	 0.088906
H	 0.9666453805	 1.3906369507	-2.3337739835	 0.116502
H	 1.1278428166	-0.129459711	-3.2136828865	 0.112007
H	-0.463053027	 0.3952688889	-2.6439229883	 0.111182
H	 3.0160890799	-0.629742125	-1.597036798	 0.075337
H	 3.3997297856	-2.2032612163	 0.4417368904	 0.097707
H	 2.2434807796	-1.1615401562	 1.2820676724	 0.095317
H	 1.7954077147	-3.6462875569	-0.4171115536	 0.075463
H	-0.3815065889	-2.3182353536	 1.2935206939	 0.118613
H	-0.5395788576	-3.8076439364	 0.3634147726	 0.112255
H	 0.5839047945	-3.7341587321	 1.7251972544	 0.110201
H	 0.7657723006	-2.2930462966	-2.2761416159	 0.071335
69.6906	154.0023	166.4042	188.4653	213.5366	221.5303	272.5114	310.3101	341.8932	373.1753	403.9103	478.0743	561.5121	650.6465	670.8286	785.8028	816.6897	832.9306	854.7476	885.0009	920.9147	962.3695	993.9264	1006.5282	1013.3269	1023.4184	1058.5566	1065.341	1088.0046	1111.9202	1126.3572	1146.9929	1170.7488	1212.8319	1249.0186	1271.3936	1290.5652	1296.7543	1318.9883	1363.4761	1384.58	1406.3694	1410.9018	1416.7675	1427.1752	1478.1749	1492.6023	1497.0789	1499.3305	1499.9379	1503.4599	1511.5286	1514.1563	3018.7899	3026.6482	3027.3081	3032.7263	3035.2786	3047.601	3085.8147	3089.4642	3096.9605	3100.3764	3101.9841	3102.9892	3114.3442	3125.2899	3148.8287	3167.6625
CCC1(C)C2CC(C)C12	CC[C@@]1(C)[C@H]2C[C@@H](C)[C@@H]12	
InChI=1S/C9H16/c1-4-9(3)7-5-6(2)8(7)9/h6-8H,4-5H2,1-3H3	InChI=1S/C9H16/c1-4-9(3)7-5-6(2)8(7)9/h6-8H,4-5H2,1-3H3/t6-,7+,8-,9+/m1/s1
