25
gdb 109864	1.85258	1.60221	1.03728	0.2572	92.62	-0.2397	0.0823	0.3221	1317.5342	0.228061	-352.343021	-352.33284	-352.331896	-352.377593	39.082	
C	-1.5364259714	 0.9033213737	-0.6498306507	-0.383775
C	-0.0573445877	 0.7330712488	-0.2844734615	-0.191715
C	 0.7178921402	-0.1061702291	-1.2990081156	-0.052038
C	 2.2407010595	-0.4495598749	-1.0472463254	-0.002696
C	 2.9497913236	 0.0426557233	 0.2107566256	-0.405159
C	 1.8943883927	-1.9397465523	-1.162688273	-0.110552
C	 0.8331177467	-2.335393313	-0.170142896	-0.337231
C	 0.4198580758	-1.6170539308	-1.4265878563	 0.37005
C	-0.5155712257	-2.2207149057	-2.4373720389	-0.500284
H	-1.6507292679	 1.3586996608	-1.6401510006	 0.110927
H	-2.0542469972	-0.0611877181	-0.6679647594	 0.1213
H	-2.0538445413	 1.5428933177	 0.0723037893	 0.109089
H	 0.4146856482	 1.7217532295	-0.2102758845	 0.09149
H	 0.0181378724	 0.2888721973	 0.7148938871	 0.092178
H	 0.617563262	 0.3664751939	-2.2837229117	 0.061468
H	 2.8211341071	-0.1339449894	-1.9202851038	 0.068097
H	 2.4328787907	-0.262817273	 1.1253197359	 0.112621
H	 3.9667515602	-0.3627284834	 0.2584000077	 0.110623
H	 3.0295314217	 1.1353104211	 0.2228546539	 0.110447
H	 2.5157463974	-2.6859371482	-1.6464938597	 0.075114
H	 0.5960285362	-3.3951384631	-0.1545132387	 0.10443
H	 0.7713080438	-1.8660927713	 0.8085041465	 0.101573
H	-1.5663843024	-2.0486645802	-2.1748909227	 0.118646
H	-0.3525114098	-1.7950326794	-3.434742584	 0.112093
H	-0.3702556446	-3.3041587943	-2.5101815434	 0.113302
78.439	124.7882	163.0133	192.8098	214.6294	216.6374	224.9899	281.7113	316.7237	342.0757	436.9709	497.1645	524.8475	638.556	675.3305	762.8932	802.1913	825.4924	857.5432	902.4911	958.8275	964.3613	973.1261	1011.2274	1014.6859	1045.3593	1060.5418	1070.9148	1082.9183	1111.1774	1133.1231	1148.0291	1170.4743	1215.5752	1254.1385	1266.4326	1290.7931	1306.1068	1342.0535	1372.2629	1379.9583	1403.9312	1408.4363	1412.2678	1426.7891	1482.6567	1484.8254	1491.9711	1496.2493	1499.061	1500.7064	1505.2238	1510.8957	3015.7368	3018.3448	3019.5258	3029.8283	3030.0873	3047.1541	3056.3989	3073.6429	3087.6719	3089.7426	3096.5241	3102.9832	3104.4106	3109.2971	3161.8064	3189.6866
CCC1C(C)C2CC12C	CC[C@H]1[C@@H](C)[C@H]2C[C@@]12C	
InChI=1S/C9H16/c1-4-7-6(2)8-5-9(7,8)3/h6-8H,4-5H2,1-3H3	InChI=1S/C9H16/c1-4-7-6(2)8-5-9(7,8)3/h6-8H,4-5H2,1-3H3/t6-,7+,8-,9+/m1/s1
