17
gdb 26976	2.97915	1.23017	0.95888	4.5874	79.43	-0.2081	0.0292	0.2373	1217.1277	0.136956	-380.931618	-380.922825	-380.921881	-380.966101	31.715	
C	 0.1745268142	 1.4676316635	-0.019969105	-0.517739
C	 0.0581100797	-0.0216447475	-0.0701469396	 0.229941
C	 0.0425632208	-0.9056381126	-1.1342746114	 0.207762
C	 0.146316346	-0.5607083547	-2.5998536267	-0.457997
C	 1.3703057037	 0.1689368211	-2.9498410034	 0.27233
N	 2.3269543779	 0.7611091798	-3.2153073647	-0.3271
C	-0.1172017677	-2.219001812	-0.6052513589	-0.244269
C	-0.1969202253	-2.1066707355	 0.7605267307	-0.086648
N	-0.0906169738	-0.7737633225	 1.0690164866	-0.284721
H	 0.7266224192	 1.8422640125	-0.885211735	 0.162329
H	-0.8051323785	 1.9629465388	-0.0091406392	 0.131864
H	 0.7156780604	 1.7937020557	 0.8751196479	 0.126109
H	 0.1205123401	-1.4799545528	-3.1944432666	 0.156276
H	-0.7055271143	 0.043382549	-2.9387515215	 0.154011
H	-0.1615960292	-3.1364042043	-1.1728495672	 0.095987
H	-0.3118868066	-2.8510801088	 1.5312003518	 0.121905
H	-0.0993624265	-0.3941354897	 2.0001702621	 0.259961
39.2819	75.4014	110.4381	228.1254	236.3767	295.4624	375.899	392.8466	477.7957	505.6835	638.6125	643.4742	684.2998	706.2745	760.7189	822.4151	910.4503	927.4983	935.3393	986.2222	1059.741	1087.4255	1114.7227	1170.4581	1228.5803	1273.6236	1295.5272	1344.8382	1418.9492	1440.0382	1458.9579	1476.0358	1488.2848	1497.5369	1521.2058	1625.6054	2356.445	3018.0294	3024.3938	3073.9492	3077.7577	3122.5331	3242.4003	3273.9571	3673.3056
CC1=C(CC#N)C=CN1	Cc1c(CC#N)cc[nH]1	
InChI=1S/C7H8N2/c1-6-7(2-4-8)3-5-9-6/h3,5,9H,2H2,1H3	InChI=1S/C7H8N2/c1-6-7(2-4-8)3-5-9-6/h3,5,9H,2H2,1H3
