15
gdb 47636	2.44644	1.67418	1.12824	5.1344	69.58	-0.2376	-0.0835	0.1541	1049.8923	0.112041	-457.777921	-457.770066	-457.769122	-457.811322	28.575	
O	 0.0963861041	 0.6929250494	-1.4062956835	-0.269029
C	 0.0310887277	 1.3383624552	-0.3928560949	 0.268723
C	-1.248467357	 2.063222226	 0.0143693881	-0.19462
O	-1.2238950548	 2.5505870772	 1.3342843939	-0.227208
C	-0.5987768079	 3.8006744231	 1.494882536	-0.14872
C	 0.8974560783	 3.7908364213	 1.3948181664	-0.041229
C	 1.6884925544	 2.7751524938	 1.0323727897	-0.167572
C	 1.2815870839	 1.4429660201	 0.5263631444	 0.291297
O	 1.9707537662	 0.4607801339	 0.6805287346	-0.297008
H	-1.4534122429	 2.8618469009	-0.7168791375	 0.126218
H	-2.0666091954	 1.3394297884	-0.0536809748	 0.155756
H	-1.0116739156	 4.53921654	 0.7832340305	 0.116449
H	-0.8756105099	 4.1516699129	 2.4968133002	 0.139629
H	 1.3650360799	 4.7186802248	 1.7211349139	 0.117834
H	 2.766669509	 2.8832968629	 1.114659803	 0.129481
37.5023	84.1256	224.7223	289.783	323.2843	379.2878	409.5023	419.5898	546.6444	583.5526	625.3064	658.7815	787.4903	838.5351	890.2178	974.6761	988.9407	1014.7047	1054.8131	1089.63	1148.3021	1199.4953	1261.7456	1273.4334	1316.7339	1356.585	1401.8459	1403.5887	1446.8616	1469.2544	1694.8083	1777.7907	1820.9969	2944.1483	2984.7564	3050.4625	3089.4806	3143.3594	3175.3876
O=C1COCC=CC1=O	O=C1COCC=CC1=O	
InChI=1S/C6H6O3/c7-5-2-1-3-9-4-6(5)8/h1-2H,3-4H2	InChI=1S/C6H6O3/c7-5-2-1-3-9-4-6(5)8/h1-2H,3-4H2
