19
gdb 23126	2.58479	1.22204	0.88071	2.4043	83.88	-0.1854	-0.0107	0.1747	1330.1456	0.159375	-419.183735	-419.174621	-419.173677	-419.217606	34.192	
C	-0.0535544639	 1.535479613	 0.0450744232	-0.395594
C	 0.0233870203	 0.0076064811	-0.0196996048	-0.174555
C	 0.6883952486	-0.5337204529	-1.2953336528	-0.048595
N	 2.1343347953	-0.2382575303	-1.3742139446	-0.310992
C	 2.830292358	-1.421744352	-1.2252104546	-0.00249
C	 2.0412825345	-2.5200725364	-1.2579357282	-0.250567
C	 0.669794818	-2.0614254327	-1.3551946111	 0.39019
N	-0.4426038219	-2.6870714584	-1.4719272117	-0.272628
O	-0.2291967723	-4.0842196547	-1.4971811933	-0.401215
H	 0.9378209603	 2.0038709223	 0.0568914188	 0.10565
H	-0.599147766	 1.9408609582	-0.8140029082	 0.123023
H	-0.5703433685	 1.8605192674	 0.9529402423	 0.12197
H	 0.560252309	-0.3883893087	 0.8511656051	 0.102757
H	-0.9842243898	-0.4203748634	 0.0135656443	 0.126588
H	 0.1808538878	-0.1085377711	-2.1692437894	 0.103887
H	 2.471813358	 0.5798070839	-0.8890535327	 0.240651
H	 3.909488858	-1.3854410835	-1.1376315518	 0.123818
H	 2.3564238016	-3.5493608526	-1.2509445206	 0.117859
H	-1.1246429369	-4.4191303891	-1.60656805	 0.300244
89.1867	119.7847	130.998	215.9155	236.8942	273.3759	310.2363	354.7774	390.6439	466.7913	535.5105	540.5328	673.9357	728.4374	770.2307	778.7792	843.1277	873.6794	923.0094	933.2486	967.035	987.518	1060.1774	1093.0107	1109.2146	1131.2327	1163.2725	1238.2895	1272.3619	1281.4912	1335.6787	1360.5915	1379.1903	1395.3449	1414.479	1445.6793	1481.6472	1501.0681	1504.0994	1622.0632	1718.4466	3027.4752	3028.7237	3040.05	3074.2325	3096.269	3107.2095	3212.0757	3286.8128	3606.3829	3827.2234
CCC1NC=CC1=NO	CC[C@H]1NC=CC1=NO	
InChI=1S/C6H10N2O/c1-2-5-6(8-9)3-4-7-5/h3-5,7,9H,2H2,1H3	InChI=1S/C6H10N2O/c1-2-5-6(8-9)3-4-7-5/h3-5,7,9H,2H2,1H3/t5-/m1/s1
