20
gdb 6133	2.69364	1.81931	1.55698	1.8862	70.91	-0.247	0.0735	0.3205	946.5535	0.174935	-386.133892	-386.124808	-386.123863	-386.166487	34.983	
C	-0.702036781	 1.2032416225	-0.1182716028	-0.423159
C	 0.0225302197	-0.1325053365	-0.0797032354	 0.006955
C	 1.327416906	-0.3318055494	-0.8955873849	 0.091136
O	 2.0149646778	 0.9051793375	-1.0146750067	-0.427976
C	 1.8607464613	-1.2341314042	 0.2506368748	-0.31627
C	 0.777202548	-0.6179221936	 1.1950837195	 0.406419
C	 1.3173460494	 0.4819679542	 2.1012499815	-0.458558
O	-0.0160081902	-1.5380545527	 1.9246563028	-0.479984
H	-0.020227178	 2.0364000424	 0.0651389829	 0.130665
H	-1.1644464664	 1.3647491911	-1.0978384141	 0.112321
H	-1.498231556	 1.2314221162	 0.6330724129	 0.11666
H	-0.6652440468	-0.9417621715	-0.3464922983	 0.08475
H	 1.2154607482	-0.8044651001	-1.8797621022	 0.062235
H	 2.9035009116	 0.7180495829	-1.3335584959	 0.282886
H	 1.6534692904	-2.292048398	 0.0704209782	 0.102737
H	 2.9126245439	-1.1050751416	 0.5245940324	 0.082864
H	 1.9053470099	 1.203467568	 1.5301655653	 0.138441
H	 0.4992841437	 1.0073437985	 2.6036765015	 0.119795
H	 1.9706171228	 0.0492890817	 2.8709290104	 0.097002
H	 0.4382570457	-1.7402847976	 2.749652668	 0.271079
121.8044	204.3397	222.4436	228.8941	258.8082	276.509	290.9639	301.8934	359.8798	380.367	437.5458	482.5038	555.6857	672.0973	752.392	837.3869	858.9409	886.7664	932.2487	963.7079	992.4794	1021.217	1069.764	1098.349	1154.9707	1162.933	1184.0681	1194.0043	1226.8994	1243.6707	1297.5292	1324.1484	1367.8372	1380.4785	1403.6741	1404.3142	1420.7684	1469.423	1485.65	1496.6944	1500.6641	1510.6297	3010.032	3017.5071	3037.5641	3047.7386	3059.3763	3089.3954	3097.2208	3113.8382	3127.8007	3134.734	3800.8188	3816.1065
CC1C(O)CC1(C)O	C[C@H]1[C@@H](O)C[C@]1(C)O	
InChI=1S/C6H12O2/c1-4-5(7)3-6(4,2)8/h4-5,7-8H,3H2,1-2H3	InChI=1S/C6H12O2/c1-4-5(7)3-6(4,2)8/h4-5,7-8H,3H2,1-2H3/t4-,5-,6-/m0/s1
