20
gdb 59746	2.69325	1.31507	1.09306	2.8247	75.93	-0.2607	0.0191	0.2798	1189.9661	0.172176	-440.31432	-440.305548	-440.304603	-440.347783	33.465	
C	 0.3091472817	 1.5399621047	 0.2708781365	-0.420368
C	-0.0563372547	 0.0721073073	 0.0373876466	 0.123053
O	-1.4586101758	-0.1389986442	 0.0669430254	-0.442797
C	 0.5544508893	-0.5000456396	-1.262643266	-0.098167
C	 0.5856838019	-2.0347792074	-1.3469798713	-0.254763
C	 0.5918696018	-2.2724218123	-2.8582311154	-0.095769
O	-0.1537591634	-1.1679553254	-3.4129094938	-0.236748
C	-0.2315897435	-0.1510605748	-2.5148802185	 0.426657
N	-0.9031020485	 0.9081616403	-2.6980287658	-0.559445
H	 1.3934783255	 1.6645127197	 0.3672385666	 0.103733
H	-0.0377660471	 2.157143721	-0.5618709677	 0.150466
H	-0.1613513823	 1.8914317864	 1.193131432	 0.118855
H	 0.3359754363	-0.5261909671	 0.869477308	 0.084872
H	-1.8202769315	 0.3951879638	-0.6549198641	 0.292599
H	 1.57196353	-0.1051075821	-1.387652213	 0.099536
H	 1.446953879	-2.4821224519	-0.8466055218	 0.110061
H	-0.3293892517	-2.4345294302	-0.8986943646	 0.135038
H	 1.6058249011	-2.2562555955	-3.2765607645	 0.113634
H	 0.097414376	-3.1941241925	-3.1724840344	 0.124914
H	-1.3588718143	 0.8937140498	-3.6118703843	 0.224639
83.2072	109.307	188.7159	201.3718	253.4478	259.9672	327.2656	450.4444	475.3367	483.2962	563.5393	616.9812	664.7278	702.7006	802.1107	861.8878	895.5312	904.7417	948.9975	966.2144	1004.1547	1019.1815	1055.862	1070.554	1111.5988	1129.3433	1165.5594	1208.6461	1234.2895	1265.0699	1289.0092	1302.6204	1332.2707	1366.6207	1368.6501	1402.5862	1413.9435	1448.6937	1492.8252	1493.8938	1507.8974	1523.6634	1755.9187	3019.0296	3028.6479	3031.6843	3038.2044	3062.6206	3105.6183	3108.5068	3122.1963	3133.097	3472.3299	3731.7458
CC(O)C1CCOC1=N	C[C@@H](O)[C@H]1CCO[C]1[NH]	
InChI=1S/C6H11NO2/c1-4(8)5-2-3-9-6(5)7/h4-5,7-8H,2-3H2,1H3	InChI=1S/C6H11NO2/c1-4(8)5-2-3-9-6(5)7/h4-5,7-8H,2-3H2,1H3/t4-,5-/m1/s1
