20
gdb 57059	2.6647	1.16745	0.90019	3.646	79.21	-0.289	0.0111	0.3001	1320.0064	0.170375	-403.14905	-403.139512	-403.138568	-403.183597	35.174	
C	-0.1300938443	 1.5583114571	-0.0865763577	-0.406739
C	 0.0023310764	 0.0377920608	-0.0528585588	-0.003327
C	 1.2039020597	-0.5175621729	-0.8769798472	-0.225437
C	 2.0118022781	-0.6858525958	 0.4383699139	-0.242918
C	 0.6782789545	-0.5653958087	 1.224718848	 0.011833
C	 0.654373929	 0.239831063	 2.5240364917	-0.043036
O	-0.6565194693	 0.4479352064	 3.0222840251	-0.412144
C	 1.5156103847	-0.4048189048	 3.540312374	 0.263306
N	 2.1690456663	-0.9434774586	 4.3269161648	-0.3202
H	 0.8300572534	 2.0582894881	 0.0862941598	 0.113022
H	-0.4884763714	 1.8827479946	-1.0689199835	 0.115745
H	-0.8383601725	 1.9114188662	 0.6688776522	 0.136265
H	-0.9662279982	-0.4107032148	-0.2902059796	 0.073658
H	 0.9784889912	-1.4783339409	-1.3469498252	 0.105154
H	 1.6228595014	 0.1484252708	-1.6356062037	 0.101265
H	 2.5867901833	-1.6034616871	 0.5726388035	 0.115325
H	 2.6755610922	 0.1632593503	 0.6282085865	 0.10915
H	 0.2698841026	-1.5614685108	 1.432995902	 0.078902
H	 1.0528036859	 1.2435954627	 2.3438129005	 0.136968
H	-1.050320763	-0.4140766654	 3.2006548839	 0.293208
68.4028	102.7465	114.9736	190.7186	247.44	252.5976	282.6232	327.0067	351.3539	392.0866	493.1594	509.384	602.9123	689.8855	779.3001	818.3004	886.1466	904.7159	920.5454	956.7422	987.0748	1030.5331	1038.0174	1090.4917	1106.723	1148.5407	1170.9495	1220.5448	1232.5132	1260.4859	1274.0533	1279.3319	1289.0162	1305.2494	1365.3495	1382.1939	1410.8695	1417.6966	1481.4558	1499.6389	1500.6689	1507.0253	2351.4896	3028.0373	3031.849	3056.0225	3059.3328	3065.5765	3069.9173	3094.1913	3106.2	3110.6373	3123.8558	3799.4307
CC1CCC1C(O)C#N	C[C@H]1CC[C@H]1[C@@H](O)C#N	
InChI=1S/C7H11NO/c1-5-2-3-6(5)7(9)4-8/h5-7,9H,2-3H2,1H3	InChI=1S/C7H11NO/c1-5-2-3-6(5)7(9)4-8/h5-7,9H,2-3H2,1H3/t5-,6+,7-/m0/s1
