16
gdb 64658	3.59712	1.22403	1.1008	2.4973	69.03	-0.2564	0.0207	0.2771	1101.1254	0.123349	-437.824512	-437.816645	-437.815701	-437.857105	30.171	
O	-0.0038962505	 1.4415694281	-0.072431195	-0.483605
C	 0.0269258313	 0.0472368933	-0.0092568069	 0.431661
C	 1.0269929481	-0.5585096514	-1.0080313982	-0.402293
C	 2.3642895268	-0.0189797973	-0.7771263288	 0.239514
N	 3.391872054	 0.461842544	-0.5532892743	-0.31072
C	-0.1082597877	-0.6726325347	 1.3821307133	-0.016874
C	-1.5316329181	-0.0858125709	 1.5230738964	-0.233722
C	-1.3623186794	-0.6402298289	 0.0878900162	-0.001434
O	-0.6877077052	-1.8282423917	 0.6591052205	-0.313569
H	 0.8945414744	 1.7782783315	 0.0364830311	 0.301916
H	 1.0320412981	-1.6453718864	-0.9066931512	 0.17879
H	 0.7209198576	-0.3052081425	-2.0291106484	 0.157623
H	 0.6468630542	-0.8796998684	 2.1406955314	 0.107685
H	-2.1977295912	-0.6757898808	 2.1518856799	 0.115169
H	-1.6368365448	 0.9901775115	 1.6499230918	 0.127333
H	-2.1035914074	-0.8061942953	-0.6943592378	 0.102525
68.3585	119.8247	240.2828	291.2236	366.5504	388.6751	396.8565	417.0988	472.1475	581.9334	618.1132	707.5708	782.2598	822.5827	877.2094	886.4285	918.0902	942.8052	974.0367	1019.521	1045.6213	1085.4682	1131.4861	1148.7867	1176.0175	1194.2908	1210.6901	1242.5634	1264.9828	1275.6015	1302.185	1397.5133	1462.165	1477.6597	2353.8597	3057.1699	3097.2892	3118.9748	3125.8034	3127.6103	3181.2221	3775.209
OC1(CC#N)C2CC1O2	O[C@@]1(CC#N)[C@H]2C[C@@H]1O2	
InChI=1S/C6H7NO2/c7-2-1-6(8)4-3-5(6)9-4/h4-5,8H,1,3H2	InChI=1S/C6H7NO2/c7-2-1-6(8)4-3-5(6)9-4/h4-5,8H,1,3H2/t4-,5+,6+
