18
gdb 53489	4.0016	0.76007	0.73689	3.9118	81.63	-0.2604	0.0152	0.2756	1598.0677	0.143668	-401.94064	-401.929743	-401.928799	-401.977823	37.579	
C	 0.0822443166	 1.5167842568	-0.1030911923	-0.499689
C	 0.0495971405	 0.0643649348	-0.0108779018	 0.106242
C	 0.0274446773	-1.1370144317	 0.0617197873	 0.04603
C	 0.0053644166	-2.5899606946	 0.1485686292	-0.395384
C	-1.4323913667	-3.1874951669	 0.0537526178	 0.194857
C	-2.3350775106	-2.6997509806	 1.1898555737	-0.396284
O	-2.0743553522	-2.8154343247	-1.152348093	-0.429747
C	-1.3033776551	-4.6669097168	 0.1122687651	 0.255244
N	-1.1813213926	-5.8160469579	 0.1306971815	-0.336406
H	 0.9828993766	 1.8598047877	-0.623871508	 0.152046
H	-0.7844780628	 1.8971624331	-0.6544401531	 0.15393
H	 0.0753968025	 1.9804709705	 0.8892815034	 0.150815
H	 0.6107477707	-3.0288325695	-0.6558465449	 0.134069
H	 0.4601876688	-2.9311886901	 1.0866814369	 0.146832
H	-2.3905721648	-1.6103183349	 1.1476937817	 0.147746
H	-3.3369257794	-3.1162479199	 1.0698922569	 0.144589
H	-1.9355523816	-3.0047085463	 2.1598415407	 0.132121
H	-1.5142804039	-3.0699094188	-1.8947592413	 0.29299
28.8027	52.3475	79.1281	161.9413	182.2657	207.1796	238.9513	264.6888	306.4801	346.7064	385.165	389.9686	401.5369	474.1178	579.8807	591.3483	749.8049	784.4804	882.6144	933.9554	970.6818	1051.5334	1053.5932	1080.0382	1159.0862	1167.8178	1175.3601	1251.0187	1342.1887	1379.1952	1411.5771	1415.4558	1465.4713	1477.2616	1478.2287	1482.8745	1493.8411	2349.9798	2375.3625	3017.7492	3029.4836	3054.9802	3061.0752	3091.1555	3092.0926	3143.0545	3150.2257	3801.2961
CC#CCC(C)(O)C#N	CC#CC[C@@](C)(O)C#N	
InChI=1S/C7H9NO/c1-3-4-5-7(2,9)6-8/h9H,5H2,1-2H3	InChI=1S/C7H9NO/c1-3-4-5-7(2,9)6-8/h9H,5H2,1-2H3/t7-/m1/s1
