17
gdb 47151	3.16742	1.11967	0.83993	2.9997	81.07	-0.2406	-0.0425	0.198	1327.3801	0.134823	-384.701453	-384.692748	-384.691804	-384.735717	31.873	
O	-0.2013270467	 0.1341869816	-0.9655337574	-0.337089
C	-0.1507174077	 1.2237810038	-0.4402780266	 0.335403
C	-1.237035683	 2.306618796	-0.4688199253	-0.332375
C	-0.658332148	 3.4777066568	 0.3500830525	-0.270265
C	 0.7012918901	 2.9900299918	 0.7842872472	-0.142403
C	 0.9856329053	 1.7545648245	 0.3540028787	 0.203609
C	 2.2166503904	 0.9158985903	 0.5646205926	-0.468897
C	 3.2549027393	 1.5553681549	 1.3618226702	 0.29453
C	 4.1005509097	 2.0979252716	 2.021164227	-0.435274
H	-1.4550628163	 2.5741027013	-1.5068407241	 0.136126
H	-2.1624013031	 1.903104796	-0.0475971721	 0.136117
H	-0.5732787523	 4.4003448599	-0.2367361231	 0.122906
H	-1.278173567	 3.7308440796	 1.2187486813	 0.122917
H	 1.368949822	 3.5966605267	 1.3865273763	 0.123532
H	 1.9171336565	-0.0354138872	 1.0253056564	 0.156997
H	 2.6162156946	 0.628338403	-0.4175192172	 0.156986
H	 4.8601206264	 2.5597777594	 2.6018375235	 0.197179
42.2649	93.4342	115.4402	218.8009	241.3697	329.2535	335.8407	404.9678	547.7522	592.6202	616.2304	620.7118	648.2837	722.1058	809.0674	810.0617	865.4867	917.4505	954.0029	971.0073	1020.4587	1028.0257	1048.866	1151.9618	1207.3158	1219.8875	1232.6948	1256.1674	1298.0034	1326.4371	1380.3062	1449.2216	1451.4382	1483.5831	1699.3181	1804.8834	2242.2284	3019.3013	3031.8561	3038.3224	3056.1653	3066.5906	3106.5192	3199.1484	3505.6182
O=C1CCC=C1CC#C	O=C1CCC=C1CC#C	
InChI=1S/C8H8O/c1-2-4-7-5-3-6-8(7)9/h1,5H,3-4,6H2	InChI=1S/C8H8O/c1-2-4-7-5-3-6-8(7)9/h1,5H,3-4,6H2
