19
gdb 55744	3.97794	1.11993	1.02503	1.5644	76.57	-0.2662	0.0136	0.2799	1231.794	0.158699	-423.019486	-423.011032	-423.010088	-423.053418	31.574	
C	-0.0054877542	 1.4287902535	-0.1623112375	-0.484283
C	 0.0628224812	-0.0579187694	 0.089592989	 0.394193
O	 0.2027343104	-0.5824496512	 1.1635498856	-0.343466
O	-0.056996793	-0.738496146	-1.0786290159	-0.299443
C	-0.0127293833	-2.1438210198	-1.0168407741	 0.466749
C	-0.9931968845	-3.1044483081	-0.2919514992	-0.267993
C	 0.030429732	-3.9911045575	-1.0631672266	-0.060726
C	-0.1366158224	-3.0227675024	-2.2756450062	-0.278711
C	 1.1570294978	-3.0479271415	-0.5437397896	-0.267924
H	 0.0934251155	 1.9619951603	 0.7822958094	 0.147566
H	 0.7915416205	 1.72951417	-0.8481822464	 0.150447
H	-0.9563656015	 1.6841768974	-0.6386441905	 0.150493
H	-0.9417216204	-3.1184861059	 0.7966267081	 0.116139
H	-2.0221626461	-3.1171668843	-0.6609498913	 0.091734
H	 0.0548363783	-5.0769335485	-1.0981627651	 0.086529
H	-1.1077677026	-3.0262744464	-2.7769202242	 0.0954
H	 0.691845093	-2.9789482241	-2.9871176915	 0.095445
H	 2.0722318697	-3.0095085833	-1.1404306263	 0.091731
H	 1.3590762996	-3.0579944728	 0.5271809722	 0.11612
62.1829	79.2096	99.5769	151.6639	339.8031	343.4178	378.3562	546.1243	554.1353	572.8345	608.0752	719.6218	783.7011	796.4564	894.594	913.8126	953.9077	959.5966	965.685	970.2734	987.3065	1026.9962	1063.7448	1101.6714	1105.9664	1131.2754	1137.3603	1176.731	1179.7336	1218.6617	1231.6971	1238.5507	1251.1192	1285.5385	1394.3002	1469.0376	1475.7967	1498.6271	1499.6139	1558.1587	1827.592	3055.3146	3057.1567	3063.1121	3068.9232	3121.9275	3124.0752	3145.9501	3148.8438	3153.3412	3169.7224
CC(=O)OC12CC(C1)C2	CC(=O)O[C@@]12C[C@@H](C1)C2	
InChI=1S/C7H10O2/c1-5(8)9-7-2-6(3-7)4-7/h6H,2-4H2,1H3	InChI=1S/C7H10O2/c1-5(8)9-7-2-6(3-7)4-7/h6H,2-4H2,1H3/t6-,7-
