21
gdb 92339	2.07583	1.92117	1.2429	2.0782	76.62	-0.2445	0.0527	0.2972	1072.8025	0.185097	-424.226539	-424.218497	-424.217553	-424.258908	32.722	
O	 0.4001358274	 1.2628554198	-0.6051497859	-0.434212
C	 0.1066200649	-0.0004558805	-0.0099683445	 0.125733
C	 0.1091517719	 0.0250997194	 1.5303315097	-0.256453
C	-1.2597866426	-0.7207225875	 1.5428777978	-0.00094
C	-2.431185442	 0.0585799146	 2.163294292	-0.222729
C	-2.7152434217	 1.177528209	 1.1491433853	-0.249319
C	-2.5025872252	 0.5060440996	-0.2261458021	 0.150754
O	-2.3100281825	 1.4017693161	-1.301380834	-0.452266
C	-1.3633104679	-0.5274539197	-0.0104409605	-0.114177
H	 0.6084815693	 1.1127172571	-1.5332972188	 0.291996
H	 0.7920247891	-0.7594488055	-0.4058644047	 0.075691
H	 0.9498291842	-0.474944959	 2.0162877122	 0.099099
H	 0.045767153	 1.0460474433	 1.9171531824	 0.111768
H	-1.192033979	-1.7509511428	 1.8963449944	 0.062593
H	-3.3059736063	-0.596708982	 2.2557920419	 0.096244
H	-2.2005363076	 0.4327930365	 3.1663285632	 0.095707
H	-3.7142509629	 1.6107485917	 1.2439809887	 0.097752
H	-1.9972037946	 1.9992300153	 1.2618264426	 0.101958
H	-3.4106191826	-0.0559309601	-0.4775853999	 0.082337
H	-1.4542108399	 1.8200933077	-1.1359475074	 0.276995
H	-1.5146886949	-1.4140613131	-0.6299365525	 0.061469
72.0284	211.7269	236.0474	262.2019	342.9425	346.747	398.0356	442.4352	509.3052	577.3766	630.172	661.5234	716.6379	745.7003	817.3209	850.8241	898.3448	919.9407	954.5374	963.8608	988.3043	1019.8984	1043.4045	1078.134	1096.4231	1126.5333	1134.0156	1175.8762	1179.64	1219.901	1245.6011	1253.0491	1268.7295	1275.1515	1295.9531	1320.7969	1339.9422	1342.9915	1353.4169	1364.8734	1430.4136	1473.0775	1478.1856	1488.8147	1506.8523	3020.2508	3023.637	3029.1961	3039.7434	3062.058	3074.8049	3076.8672	3090.1559	3099.3013	3117.3059	3742.4082	3814.7572
OC1CC2CCC(O)C12	O[C@H]1C[C@H]2CC[C@@H](O)[C@@H]12	
InChI=1S/C7H12O2/c8-5-2-1-4-3-6(9)7(4)5/h4-9H,1-3H2	InChI=1S/C7H12O2/c8-5-2-1-4-3-6(9)7(4)5/h4-9H,1-3H2/t4-,5-,6+,7+/m1/s1
