25
gdb 58959	2.45093	1.36045	1.16434	0.1594	91.52	-0.2555	0.0751	0.3306	1247.2287	0.228966	-352.341842	-352.332189	-352.331245	-352.376884	37.45	
C	-0.0074410232	 1.5643226833	 0.1335441207	-0.39174
C	 0.0282436984	 0.0277032193	 0.1225577757	-0.077161
C	 0.7391764021	-0.5156533931	 1.3703896633	-0.402522
C	-1.3720300676	-0.5462785317	-0.0709860527	 0.430881
C	-2.4152640003	-0.395322	 1.0833470219	-0.288408
C	-2.6441873496	-1.9363791491	 1.0903860492	-0.214915
C	-1.7022655139	-2.0928042134	-0.1264136221	-0.085228
C	-2.3847883152	-1.8869736177	-1.5048842003	-0.223949
C	-2.0130643023	-0.3745081706	-1.4785920365	-0.291271
H	 1.0023752143	 1.98155209	 0.2063893852	 0.107764
H	-0.4696084145	 1.9618424927	-0.7757314599	 0.114294
H	-0.5816208671	 1.9366013377	 0.9899670112	 0.114127
H	 0.6198461275	-0.2864774056	-0.7507749177	 0.06471
H	 0.770047934	-1.6098806769	 1.3708394468	 0.113094
H	 1.771496162	-0.1529989627	 1.4143234855	 0.109623
H	 0.2429139406	-0.192909393	 2.2921096491	 0.113713
H	-2.0098477858	-0.0038621679	 2.0194870928	 0.097681
H	-3.2898494266	 0.2076804436	 0.8221712395	 0.091396
H	-2.2549500519	-2.4131034536	 1.9941456316	 0.097033
H	-3.6731156884	-2.2792761626	 0.9430759902	 0.091187
H	-0.9385657069	-2.871450515	-0.0723841493	 0.055128
H	-1.9149420808	-2.4395204126	-2.3222693916	 0.097455
H	-3.4556768877	-2.1114467322	-1.5211253872	 0.09322
H	-2.8450415668	 0.3335567148	-1.5410163044	 0.090586
H	-1.2813277404	-0.1041586337	-2.2464010011	 0.0933
23.8741	87.4189	161.5014	223.2624	246.0263	266.2151	282.6725	321.4669	381.6177	427.7202	462.1459	605.5902	632.5933	740.5701	751.2027	821.6211	860.6375	883.4685	893.0232	918.6018	931.5086	939.1481	962.3017	967.7151	1016.0811	1035.0139	1052.8233	1067.1882	1123.1199	1145.3539	1177.0042	1187.0778	1199.255	1228.2396	1232.3235	1243.1217	1258.5312	1268.0973	1284.8165	1311.4936	1328.6862	1347.2038	1369.1653	1398.9395	1419.2837	1468.8644	1479.105	1483.5631	1487.6361	1495.3677	1499.9743	1509.1908	1511.763	2984.4238	3026.6488	3032.0602	3038.5232	3043.1713	3049.7532	3054.51	3076.2001	3082.9014	3089.362	3091.2598	3096.7962	3100.3125	3102.034	3105.1715	3110.9768
CC(C)C12CCC1CC2	CC(C)[C@]12CC[C@H]1CC2	
InChI=1S/C9H16/c1-7(2)9-5-3-8(9)4-6-9/h7-8H,3-6H2,1-2H3	InChI=1S/C9H16/c1-7(2)9-5-3-8(9)4-6-9/h7-8H,3-6H2,1-2H3/t8-,9+
