21
gdb 69602	3.16213	1.28221	1.18317	1.2839	82.38	-0.2398	0.0817	0.3215	1151.4991	0.183409	-387.076167	-387.068	-387.067056	-387.108327	33.584	
O	-0.0496766066	 1.373578907	 0.0520128021	-0.474405
C	-0.0058055959	-0.022287358	 0.0196679038	 0.410683
C	-0.4764357494	-0.7459171033	-1.2179262051	-0.369063
C	-1.2927625592	-0.7995849229	 0.0671405909	-0.155437
C	-1.0837544212	-1.983925579	 0.9730649509	 0.412424
C	-2.0015810035	-2.1884059748	 2.153497978	-0.317701
C	-2.0120887882	-3.1670587666	 0.9999865669	-0.323519
C	 0.43368838	-2.1487281166	 1.1176385764	-0.319585
C	 1.0037796343	-0.7249973807	 0.9203796314	-0.278109
H	 0.6782585168	 1.7056636422	-0.4846409957	 0.279801
H	-0.8793387842	-0.1134859645	-2.001615995	 0.109571
H	 0.0376134578	-1.6348220052	-1.5703313168	 0.106717
H	-2.2448849723	-0.2810035645	 0.0807775727	 0.088232
H	-1.5636016058	-2.5104582019	 3.092944662	 0.107149
H	-2.8513350339	-1.5225605113	 2.266140212	 0.110511
H	-2.869057522	-3.162405315	 0.3343036603	 0.109734
H	-1.5829346536	-4.1510652022	 1.1624959452	 0.105398
H	 0.717339893	-2.5852673419	 2.0792261422	 0.099122
H	 0.8160670913	-2.8210501462	 0.3409514583	 0.10312
H	 2.0218362691	-0.7325648622	 0.5141091186	 0.086241
H	 1.0301871934	-0.1799099324	 1.8706982309	 0.109116
107.4145	193.4168	240.2548	277.4242	318.362	353.8247	390.3281	419.8945	450.5689	535.0299	566.8609	688.0955	746.623	778.5333	820.1137	874.8517	897.8049	920.2544	928.8004	946.4479	956.1848	986.5366	1004.2403	1021.464	1046.4568	1054.8995	1066.6485	1076.0692	1090.1281	1169.9697	1187.9783	1200.6287	1228.2323	1255.8969	1290.0003	1306.4887	1321.689	1333.3965	1383.2352	1418.6184	1466.9758	1482.257	1491.7114	1505.2891	1511.0678	3031.4619	3038.4015	3071.8475	3090.2438	3120.3403	3124.4501	3125.0552	3172.6339	3198.208	3213.1353	3215.2303	3795.0772
OC12CC1C1(CC1)CC2	O[C@]12C[C@H]1C1(CC1)CC2	
InChI=1S/C8H12O/c9-8-4-3-7(1-2-7)6(8)5-8/h6,9H,1-5H2	InChI=1S/C8H12O/c9-8-4-3-7(1-2-7)6(8)5-8/h6,9H,1-5H2/t6-,8+/m0/s1
