20
gdb 10558	2.81126	1.43161	1.08195	2.8019	76.36	-0.2479	-0.0149	0.233	1170.8098	0.17547	-349.015714	-349.006649	-349.005705	-349.049607	32.983	
C	-0.0825563947	 1.6213825666	 0.1444481752	-0.380157
C	-0.0697160049	 0.098545584	 0.2988046918	-0.167392
C	-1.3490355765	-0.5589251934	-0.2393325688	-0.271871
C	-1.373548255	-2.0690326366	-0.0893856627	 0.26974
C	-1.6549552811	-2.6943817766	 1.2737497618	-0.298565
C	-2.6915197851	-2.7856057732	 0.2078681974	-0.317147
C	-0.4562228611	-2.8445385336	-0.9601780925	 0.120318
O	 0.2762866766	-2.3724244839	-1.7955847176	-0.274039
H	 0.8369785732	 2.0681648981	 0.534983918	 0.111705
H	-0.1709806005	 1.910890218	-0.908453348	 0.118286
H	-0.9253737166	 2.070840028	 0.6824028661	 0.108162
H	 0.7916363071	-0.3197608739	-0.2311858662	 0.123913
H	 0.0538707462	-0.1637736615	 1.3575838964	 0.088674
H	-2.22108422	-0.1356687417	 0.2754251684	 0.087146
H	-1.460646005	-0.3127773746	-1.3021061797	 0.113049
H	-1.1117681192	-3.5938031916	 1.5451212417	 0.123488
H	-1.8086311344	-2.000552854	 2.0925580136	 0.128695
H	-3.5702164281	-2.1542773134	 0.2750120305	 0.129101
H	-2.8656597045	-3.7479064977	-0.2623579182	 0.123978
H	-0.4973586363	-3.948143889	-0.7930019074	 0.062919
79.3086	90.6219	140.9043	159.2825	238.1227	249.7565	303.5919	332.8692	380.0345	463.6694	545.0789	736.9948	782.696	797.6008	839.1797	877.1965	902.3816	920.3091	953.4083	998.9108	1046.5396	1052.7671	1059.8575	1086.7233	1122.2704	1130.789	1196.0238	1250.6945	1297.9886	1320.1829	1335.9304	1362.7121	1396.9485	1411.4792	1442.7921	1465.7982	1474.7845	1493.1722	1497.6538	1500.4509	1508.7568	1812.3626	2838.7667	3019.033	3024.6115	3028.2701	3062.0612	3078.5597	3101.3549	3102.4047	3132.7938	3135.4631	3213.0263	3227.3721
CCCC1(CC1)C=O	CCCC1(CC1)C=O	
InChI=1S/C7H12O/c1-2-3-7(6-8)4-5-7/h6H,2-5H2,1H3	InChI=1S/C7H12O/c1-2-3-7(6-8)4-5-7/h6H,2-5H2,1H3
