19
gdb 102039	2.6392	1.07117	0.82933	3.7313	74.49	-0.2228	-0.0175	0.2054	1420.5697	0.156957	-456.33547	-456.325044	-456.324099	-456.371915	35.786	
C	-0.0108062776	 1.4926738101	-0.7091097407	-0.322191
N	-0.1711238096	 0.0448529438	-0.574112734	-0.281354
C	 0.9820216082	-0.7195121207	-1.0187445387	-0.143323
C	 2.1305864417	-0.7804452701	-0.0025017775	 0.181549
O	 2.0875046179	-0.231257358	 1.0666409974	-0.255659
C	 0.5598203376	-2.1377821222	-1.3630386339	 0.417868
N	 0.7395213698	-3.0726718718	-0.5240810455	-0.525898
O	-0.0031241364	-2.187224306	-2.5912861591	-0.226467
C	-0.5454938765	-3.4307219786	-3.0154222152	-0.267852
H	 0.8747297722	 1.8995153321	-0.1987122806	 0.116084
H	 0.0507980324	 1.7527955726	-1.7717988356	 0.119958
H	-0.8975531665	 1.9854084165	-0.300508264	 0.122247
H	-0.3271822199	-0.1805698846	 0.4041454534	 0.232393
H	 1.3737753815	-0.261375073	-1.9373948601	 0.108775
H	 3.0205942865	-1.3600913454	-0.3276863901	 0.087213
H	 0.3905512571	-3.9768570299	-0.8385433864	 0.221673
H	 0.2300352378	-4.203486761	-3.0820141809	 0.131311
H	-1.3379885941	-3.7693172778	-2.3378260218	 0.137201
H	-0.9656679021	-3.254765916	-4.0058876069	 0.146472
38.7934	84.8675	107.8473	115.5938	187.1604	207.7006	230.8622	247.1126	278.6696	335.482	352.6984	393.7828	628.0362	711.8867	718.5844	771.3689	834.8072	877.2213	915.5846	1007.4422	1037.0992	1045.5862	1130.1138	1142.2906	1159.5714	1175.8443	1219.0038	1220.6356	1244.3045	1328.6702	1370.4452	1411.3601	1456.2563	1475.2458	1488.8092	1491.9125	1501.5269	1503.8301	1523.8074	1724.961	1834.3225	2906.5276	2992.9919	3017.2432	3028.8735	3065.6892	3082.324	3106.8059	3148.6856	3499.983	3515.9743
CNC(C=O)C(=N)OC	CN[C@@H](C=O)[C]([NH])OC	
InChI=1S/C5H10N2O2/c1-7-4(3-8)5(6)9-2/h3-4,6-7H,1-2H3	InChI=1S/C5H10N2O2/c1-7-4(3-8)5(6)9-2/h3-4,6-7H,1-2H3/t4-/m0/s1
