16
gdb 27406	2.6125	1.62285	1.08688	2.5934	83.79	-0.2373	-0.0891	0.1482	1099.5188	0.125159	-396.940602	-396.932742	-396.931797	-396.973093	29.505	
C	 0.0568119706	 1.4812086584	 0.110403686	-0.448199
C	-0.0824035524	-0.0096363692	-0.05548623	 0.306525
C	-1.2858718272	-0.6209758028	 0.0210481084	-0.130156
C	-1.5296867723	-2.0590784232	-0.1578919817	 0.281938
N	-2.5424048366	-2.4700291284	-0.8130014849	-0.49321
N	-0.6859006574	-2.9445638783	 0.5500326889	-0.230208
C	 0.5884836243	-2.8648495779	 0.4942991131	-0.018214
C	 1.4047719414	-1.8558170272	-0.1894881413	-0.007805
N	 1.1212065317	-0.6219038885	-0.3968516433	-0.261067
H	 0.4622478113	 1.9258718844	-0.8039843505	 0.145636
H	-0.8992893778	 1.9520046098	 0.3460557273	 0.127687
H	 0.766462314	 1.7080000532	 0.9138433167	 0.137265
H	-2.176193686	-0.0143629438	 0.1554901164	 0.122364
H	-2.5911916132	-3.4912372038	-0.7625128259	 0.221297
H	 1.1547005951	-3.63499494	 1.0270203284	 0.124899
H	 2.4059568345	-2.1810566228	-0.4836719775	 0.121249
88.3709	139.1256	174.2072	274.4098	313.2199	382.445	410.4184	418.7671	491.0596	609.1144	657.7247	675.2207	825.2896	843.7575	872.7759	892.9589	902.8097	944.0825	962.2413	1015.1797	1041.6541	1069.4924	1112.5237	1184.5856	1322.6633	1355.596	1412.092	1418.7528	1430.9409	1472.1397	1484.2299	1596.1589	1658.4974	1699.9001	1711.2004	3039.7445	3077.9758	3096.9826	3099.6321	3137.5299	3180.0145	3442.7494
CC1=CC(=N)N=CC=N1	CC1=C[C]([NH])N=CC=N1	
InChI=1S/C6H7N3/c1-5-4-6(7)9-3-2-8-5/h2-4,7H,1H3	InChI=1S/C6H7N3/c1-5-4-6(7)9-3-2-8-5/h2-4,7H,1H3
