15
gdb 45065	2.47414	1.7754	1.18034	5.3162	69.59	-0.2734	-0.0019	0.2716	1009.3221	0.11402	-416.81745	-416.810108	-416.809164	-416.849719	27.782	
N	 0.1147879112	 0.9679077649	 0.699158929	-0.510405
C	 0.0625115264	-0.1024740229	 0.0445066541	 0.404857
O	 1.0656736798	-0.6228927686	-0.7231035084	-0.231781
C	 0.713502378	-1.8994300146	-1.2236457184	 0.082615
C	 0.5108094097	-2.9820342978	-0.2073999044	-0.318789
C	-0.6807816047	-2.2437236506	-0.7872107135	-0.069886
C	-1.174591607	-1.0201653295	-0.0252840682	-0.273272
C	-1.7328498193	-1.3114646859	 1.2939481408	 0.314741
N	-2.1832267362	-1.5803983425	 2.3228012241	-0.326358
H	 1.0265808194	 1.4168576724	 0.6059137095	 0.237097
H	 1.1157628609	-2.0799010239	-2.2116864122	 0.12491
H	 0.652788038	-4.0075897506	-0.5283033225	 0.135517
H	 0.8013965514	-2.7796731703	 0.8185026495	 0.149953
H	-1.3755645114	-2.7657828485	-1.4312634284	 0.120811
H	-1.9420006761	-0.4994683617	-0.6098875712	 0.159991
68.0475	144.0061	165.1849	325.2215	403.4085	429.0946	488.7501	523.1395	608.009	685.3897	698.0508	790.003	820.2053	852.159	893.4119	951.4055	970.0629	1010.438	1033.6582	1049.5379	1064.9335	1091.7875	1107.1943	1160.255	1202.8477	1238.2854	1256.2403	1316.6445	1358.3851	1391.2605	1478.0005	1787.102	2368.7576	3051.2411	3137.7009	3200.1589	3207.7344	3230.7467	3490.5522
N=C1OC2CC2C1C#N	[NH][C]1O[C@H]2C[C@H]2[C@H]1C#N	
InChI=1S/C6H6N2O/c7-2-4-3-1-5(3)9-6(4)8/h3-5,8H,1H2	InChI=1S/C6H6N2O/c7-2-4-3-1-5(3)9-6(4)8/h3-5,8H,1H2/t3-,4+,5-/m0/s1
