17
gdb 70073	2.86475	1.4817	1.13503	2.9898	75.51	-0.2385	-0.053	0.1854	1071.8306	0.136239	-421.846578	-421.838834	-421.83789	-421.878635	30.623	
O	-0.0343227683	 1.3691763364	 0.1763739972	-0.471052
C	-0.0057282051	-0.0133469819	-0.0595126139	 0.4002
C	-0.6755425462	-0.5021208612	-1.3089981678	-0.341262
C	-1.3513925389	-0.6789771654	 0.0619293937	-0.130711
C	-1.4064892561	-2.0332900063	 0.6400712854	-0.02719
C	-0.314200062	-2.7630090611	 0.9166181852	-0.183907
C	 1.0519882488	-2.2387658089	 0.736391105	 0.363592
O	 2.0333124675	-2.9508028015	 0.8174650562	-0.336333
C	 1.1973477214	-0.7287230933	 0.5209449344	-0.403712
H	 0.6420856522	 1.7780987766	-0.3757773033	 0.284311
H	-1.0988409049	 0.2513583333	-1.9632902835	 0.123008
H	-0.3115322029	-1.4016795695	-1.7940391537	 0.126681
H	-2.1950099164	-0.0255441269	 0.2521047917	 0.108996
H	-2.3937566153	-2.4587124613	 0.8048742353	 0.112356
H	-0.3827681695	-3.7848388595	 1.2741939719	 0.109961
H	 2.1003778969	-0.5568110208	-0.0745524028	 0.122376
H	 1.3906243988	-0.2993260786	 1.5134253991	 0.142685
89.1529	182.6666	280.1193	299.1337	348.4665	359.5899	412.4143	465.7697	489.9964	523.5807	620.7956	675.6966	745.1622	805.5641	832.0375	865.1036	899.8292	941.6342	974.0012	993.1821	1019.5599	1051.6608	1067.2845	1096.5752	1168.4397	1171.9168	1226.5049	1246.5506	1275.5927	1338.5295	1347.1347	1401.5247	1423.254	1452.7747	1483.3069	1669.1429	1770.0955	3027.18	3076.7408	3131.9169	3154.2892	3181.8809	3196.3369	3231.2335	3788.845
OC12CC1C=CC(=O)C2	O[C@]12C[C@H]1C=CC(=O)C2	
InChI=1S/C7H8O2/c8-6-2-1-5-3-7(5,9)4-6/h1-2,5,9H,3-4H2	InChI=1S/C7H8O2/c8-6-2-1-5-3-7(5,9)4-6/h1-2,5,9H,3-4H2/t5-,7+/m1/s1
