19
gdb 54326	2.36058	1.19714	0.92863	1.9556	76.64	-0.2526	-0.0314	0.2212	1296.9612	0.155694	-423.044268	-423.034437	-423.033493	-423.080516	34.962	
C	 0.6071972032	 0.3796955448	 1.2024189221	-0.503542
C	 0.2925842927	-0.4928569618	-0.0009910819	 0.329355
O	 1.1517717386	-0.7568368937	-0.8162183296	-0.314853
C	-1.0954861835	-1.0679693533	-0.1341825642	 0.218157
C	-2.230679027	-0.5449235943	 0.7349972094	-0.394387
C	-2.7926463078	 0.7793475602	 0.2444802025	 0.172079
O	-3.9629268033	 1.0571955616	 0.2377630853	-0.236864
C	-1.4526479457	-1.5704248463	-1.527830229	-0.281832
C	-1.0917991616	-2.5620467173	-0.4774996189	-0.287695
H	 1.6559243588	 0.6739590323	 1.1584879016	 0.148125
H	-0.0211593162	 1.2763047818	 1.2244481201	 0.140113
H	 0.4194175299	-0.1650658283	 2.1348829399	 0.143976
H	-3.060877802	-1.256023454	 0.7714362166	 0.127369
H	-1.8979829419	-0.4018252127	 1.7719151272	 0.128354
H	-2.0321922968	 1.5062220158	-0.1258382533	 0.077683
H	-2.4925659652	-1.4832103426	-1.8236057219	 0.125246
H	-0.7202590156	-1.3729168091	-2.300761399	 0.145499
H	-0.11726968	-3.0307770258	-0.5457381663	 0.141226
H	-1.8724810965	-3.1675926872	-0.0306741705	 0.12199
28.6273	46.8025	103.3761	163.496	178.5395	251.9231	275.2338	328.5484	403.4213	408.6987	445.7121	584.6574	611.2216	672.7503	757.2105	798.9207	849.3396	886.9319	949.8697	961.7053	973.5554	1050.4488	1056.7402	1068.4039	1071.7347	1103.7853	1160.246	1205.3153	1210.4267	1282.0909	1323.516	1347.6093	1383.0201	1429.1446	1446.3934	1451.3406	1467.4112	1478.9266	1482.427	1783.1423	1836.3171	2855.4476	3027.3948	3037.8553	3094.0671	3098.4593	3139.0314	3141.179	3155.7513	3229.8349	3243.7431
CC(=O)C1(CC=O)CC1	CC(=O)C1(CC=O)CC1	
InChI=1S/C7H10O2/c1-6(9)7(2-3-7)4-5-8/h5H,2-4H2,1H3	InChI=1S/C7H10O2/c1-6(9)7(2-3-7)4-5-8/h5H,2-4H2,1H3
