25
gdb 101029	2.15827	1.17953	0.99455	1.1674	89.28	-0.2471	0.0807	0.3279	1405.7564	0.226666	-389.476365	-389.46533	-389.464386	-389.512579	40.747	
C	 0.6479277077	-0.156703213	 1.3155374401	-0.382649
C	 0.0126441849	-0.2072382824	-0.0806189541	-0.264098
C	-1.412177254	-0.7490799257	-0.1106505958	 0.370364
C	-1.8667378786	-1.4232940758	-1.3827208439	-0.310682
C	-1.5631348927	-2.2507843603	-0.1547696345	-0.308262
C	-2.4484290069	 0.0572353465	 0.6754510871	 0.056584
C	-2.5770196663	 1.5002468225	 0.1726479859	-0.402611
O	-3.6990343432	-0.6188553596	 0.5766209296	-0.247765
C	-4.6019045677	-0.3511089635	 1.6214726381	-0.235125
H	 1.6965448764	 0.1508666168	 1.2538277624	 0.109988
H	 0.1389093294	 0.5545514517	 1.9741347804	 0.115773
H	 0.6128944703	-1.1390380369	 1.7982012339	 0.118978
H	 0.0475817181	 0.790194314	-0.5363638053	 0.09621
H	 0.6268437983	-0.847276683	-0.7251026593	 0.093562
H	-2.9090655188	-1.3239499853	-1.6604053915	 0.122847
H	-1.1729450806	-1.4571829102	-2.2165600629	 0.098573
H	-0.6565635133	-2.8476536796	-0.1469927726	 0.098054
H	-2.4067655885	-2.691269986	 0.3609390527	 0.116873
H	-2.1475300035	 0.0739293226	 1.7362126491	 0.062724
H	-3.3686519114	 2.0321816708	 0.7081093411	 0.111897
H	-1.6491539237	 2.0585680002	 0.3252633295	 0.118116
H	-2.8165759011	 1.5084131925	-0.8947955759	 0.125114
H	-5.4828802096	-0.9760668916	 1.4531147398	 0.125888
H	-4.1728502654	-0.6016818736	 2.6044132528	 0.104133
H	-4.9242814996	 0.700339609	 1.6467521032	 0.105514
56.1742	74.3934	98.5117	179.497	188.2838	201.55	221.8492	252.256	289.9808	342.7194	355.4154	419.1566	436.6913	455.9539	564.0985	705.9473	779.5	797.4607	848.7418	895.4769	910.6716	932.5655	947.3896	1017.2807	1037.1185	1056.4256	1080.6382	1087.3037	1091.6935	1119.405	1129.5706	1157.4533	1183.7558	1195.8159	1219.5336	1272.3948	1291.7467	1341.6107	1363.3981	1387.9143	1391.3037	1403.8227	1412.881	1455.0025	1476.9161	1480.6785	1485.1825	1492.0113	1498.2614	1500.6863	1501.9258	1511.1834	1512.6352	2957.2555	2976.8438	3023.5389	3024.1417	3034.4527	3044.6154	3054.2074	3101.1861	3103.8832	3107.901	3113.5143	3120.9023	3131.6513	3135.5423	3221.0384	3234.1937
CCC1(CC1)C(C)OC	CCC1(CC1)[C@@H](C)OC	
InChI=1S/C8H16O/c1-4-8(5-6-8)7(2)9-3/h7H,4-6H2,1-3H3	InChI=1S/C8H16O/c1-4-8(5-6-8)7(2)9-3/h7H,4-6H2,1-3H3/t7-/m1/s1
