18
gdb 51170	4.3606	1.01457	0.93227	3.444	73.63	-0.239	0.0186	0.2576	1273.1584	0.147854	-439.061546	-439.053372	-439.052428	-439.094789	30.648	
N	-0.0134244033	 1.2799501361	-0.3056080387	-0.43971
C	-0.0727121463	 0.020988891	-0.3360046346	 0.110069
O	-1.0991383752	-0.6172460124	 0.2745851189	-0.230997
C	-1.0426500395	-2.0185258305	 0.2807730358	 0.385209
C	-1.2555856343	-2.7999619902	-1.0026394048	-0.388848
C	-2.2886425227	-2.8235499598	 0.1104109434	 0.054185
O	-2.3097361686	-3.8951600819	 1.0089406659	-0.25651
C	-0.9833308255	-4.0643025782	 1.520674918	-0.093744
C	-0.2822999474	-2.6937288024	 1.412155202	-0.304721
H	 0.8050554192	 1.6005611849	-0.8190456348	 0.230421
H	 0.6307783465	-0.6622787424	-0.8282135901	 0.09221
H	-1.5281657468	-2.2191387813	-1.8772466589	 0.130533
H	-0.647670792	-3.6748550786	-1.2076000997	 0.123055
H	-3.2624491063	-2.3770745816	-0.0467077468	 0.125004
H	-1.0646392912	-4.4294992225	 2.5471631478	 0.121455
H	-0.4495602216	-4.8231690829	 0.9322831014	 0.104019
H	 0.7925818237	-2.797377774	 1.2368650895	 0.108106
H	-0.4283103285	-2.0928865734	 2.3152976957	 0.130264
69.8881	113.786	137.8397	223.065	280.1616	362.4257	372.7132	447.7965	494.8415	665.2177	699.4574	741.0709	824.3244	843.2665	870.4216	927.6845	935.2745	973.8837	1002.3817	1008.8732	1024.699	1046.8271	1051.7621	1093.3005	1122.733	1168.1567	1213.3317	1232.302	1254.5803	1275.2673	1288.8177	1314.5703	1375.0231	1409.5736	1415.0328	1471.727	1495.4824	1528.4326	1746.5195	3009.0267	3041.3388	3053.3221	3093.3937	3105.6914	3133.2965	3200.4136	3224.4309	3517.0144
N=COC12CC1OCC2	[NH][CH]O[C@]12C[C@H]1OCC2	
InChI=1S/C6H9NO2/c7-4-9-6-1-2-8-5(6)3-6/h4-5,7H,1-3H2	InChI=1S/C6H9NO2/c7-4-9-6-1-2-8-5(6)3-6/h4-5,7H,1-3H2/t5-,6-/m1/s1
