19
gdb 88523	2.53238	1.30991	1.09	3.8383	76.62	-0.2412	-0.0122	0.229	1182.6735	0.157621	-422.999614	-422.990556	-422.989611	-423.033764	33.982	
O	 0.2030925645	 1.2188692734	-0.2281213028	-0.415777
C	 0.0627433182	-0.1590072305	-0.0372188743	 0.097496
C	-0.3979714754	-0.6796312771	 1.3047180068	-0.35771
C	-1.3435218769	-0.6667169953	 0.1165497968	-0.123514
C	-2.548244414	 0.2265543959	 0.0078316332	 0.277095
C	-3.3515550799	 0.1651060934	-1.2878996199	-0.282562
C	-3.920367528	-0.4566402745	-0.0616477815	-0.292419
C	-2.5819175027	 1.5539210222	 0.6912042428	 0.092584
O	-3.4838256716	 2.3497974486	 0.5575973842	-0.287939
H	 0.9900577577	 1.5116557345	 0.2432372004	 0.292145
H	 0.7606640282	-0.7699226546	-0.6095477467	 0.089785
H	-0.0233893151	-1.6356006917	 1.6549045755	 0.115199
H	-0.5517262716	 0.0541821498	 2.0882403221	 0.121993
H	-1.5174599928	-1.6408347801	-0.3328814663	 0.088078
H	-3.7785308416	 1.1045815092	-1.6182092815	 0.141721
H	-2.9601542729	-0.477019615	-2.0689053958	 0.116419
H	-3.9289438209	-1.5374198355	 0.0283120364	 0.116514
H	-4.7328695171	 0.0610645609	 0.4347136632	 0.137754
H	-1.7283701878	 1.7804187063	 1.3561209075	 0.073137
56.5463	74.7523	190.1951	203.0514	272.8322	286.7802	318.5939	329.0489	382.6104	447.3781	544.0024	654.1444	725.5238	792.5125	802.0023	818.9263	841.0656	889.8265	953.8723	981.5348	994.3204	1034.7543	1040.6618	1065.0548	1070.2703	1077.2354	1098.0881	1134.2196	1180.9925	1205.5251	1230.7058	1267.6308	1286.162	1334.0308	1403.0507	1431.3242	1446.3242	1451.5165	1481.6662	1496.9592	1795.8289	2957.4397	3098.9284	3132.3526	3135.6844	3137.9487	3141.21	3220.2878	3225.9308	3240.5393	3805.9013
OC1CC1C1(CC1)C=O	O[C@H]1C[C@H]1C1(CC1)C=O	
InChI=1S/C7H10O2/c8-4-7(1-2-7)5-3-6(5)9/h4-6,9H,1-3H2	InChI=1S/C7H10O2/c8-4-7(1-2-7)5-3-6(5)9/h4-6,9H,1-3H2/t5-,6+/m1/s1
