18
gdb 97311	3.41752	1.06745	0.8279	2.283	80.33	-0.2262	0.0089	0.2351	1379.1027	0.148894	-435.293765	-435.28497	-435.284026	-435.327812	31.387	
C	 0.4823279942	 1.5621204991	-0.6187706795	-0.30956
N	 0.8544229541	 0.1848570129	-0.8713196748	-0.246094
C	 0.0928314204	-0.7154988464	-0.4050354671	 0.102366
N	 0.365683272	-2.0512692185	-0.6108711413	-0.142552
C	 1.5510282732	-2.5335885467	-1.2966180327	-0.180214
C	 1.2270054843	-4.0311789818	-1.4024251671	-0.108606
O	 0.2200926096	-4.2690782313	-0.403491882	-0.25552
C	-0.3525207262	-3.0899455053	-0.0311097506	 0.485036
N	-1.357469923	-2.9451644083	 0.7217800713	-0.589361
H	 1.2944073057	 2.0723785408	-0.0874577016	 0.125038
H	 0.347803802	 2.0895922691	-1.5706529438	 0.124259
H	-0.4408766284	 1.6730309592	-0.0283171518	 0.102544
H	-0.8193213583	-0.5577045187	 0.178982714	 0.134831
H	 1.667782361	-2.0455594389	-2.2662584689	 0.142231
H	 2.453787589	-2.332485404	-0.7075091137	 0.12902
H	 0.8167771006	-4.2924795354	-2.3840495315	 0.125645
H	 2.0802029554	-4.6769419399	-1.1882691518	 0.130969
H	-1.7291563155	-3.8501483459	 0.9985703031	 0.229968
75.1879	130.0735	144.6856	159.0678	177.2828	219.3268	361.0608	366.1024	377.6555	565.4529	698.3828	701.9722	711.0627	783.9183	853.7258	889.9424	977.3246	996.8589	1003.8837	1039.6816	1093.0544	1139.5584	1145.274	1152.1954	1179.0722	1220.5804	1248.394	1294.1651	1363.5909	1369.1486	1405.5869	1443.2916	1463.3296	1481.2451	1504.8422	1522.6685	1531.3165	1745.639	1779.8157	2976.9412	3035.6679	3046.6486	3056.7652	3071.0213	3088.501	3106.4196	3121.3392	3538.3189
CN=CN1CCOC1=N	CN=CN1CCO[C]1[NH]	
InChI=1S/C5H9N3O/c1-7-4-8-2-3-9-5(8)6/h4,6H,2-3H2,1H3	InChI=1S/C5H9N3O/c1-7-4-8-2-3-9-5(8)6/h4,6H,2-3H2,1H3
