19
gdb 64670	3.04571	1.03683	0.92499	2.6434	81.33	-0.2425	-0.0216	0.2209	1316.186	0.155676	-385.8714	-385.861945	-385.861001	-385.906051	35.674	
C	-0.2484883227	 1.7534012348	 0.1857819617	-0.458893
C	 0.0409205964	 0.2608016586	 0.071401315	 0.32321
C	-1.2430331099	-0.5515385736	-0.2132537102	-0.411094
C	-1.8673355517	-0.2270389556	-1.4905580642	 0.308452
C	-2.3569874548	 0.0480361224	-2.5536492774	-0.444179
C	 1.206413338	-0.1319432502	-0.9012228821	-0.387081
C	 1.8471536445	-0.9179748557	 0.2499591781	 0.412139
O	 2.750345127	-1.699354121	 0.3218379515	-0.289647
C	 0.8399647094	-0.3623933235	 1.2688659518	-0.400619
H	 0.6703931281	 2.316373138	 0.3796583425	 0.112938
H	-0.6954747408	 2.1382467611	-0.7358395668	 0.136373
H	-0.9448878482	 1.9570812608	 1.0073917829	 0.116921
H	-1.0057307052	-1.6237433294	-0.1938218962	 0.131437
H	-1.9592890584	-0.3843607373	 0.6021042662	 0.131527
H	-2.8017683638	 0.283227442	-3.488797475	 0.198811
H	 0.9426083525	-0.7047228505	-1.7943983089	 0.137387
H	 1.8258995552	 0.7171965949	-1.2094558874	 0.128813
H	 1.2967684284	 0.3863224442	 1.9249483354	 0.128019
H	 0.3278843462	-1.1009208202	 1.8929557831	 0.125485
38.9765	81.2668	139.835	242.1241	294.6106	313.3511	333.3607	350.0104	367.1393	411.3702	474.6792	513.1401	624.4339	639.8467	652.2412	677.9725	739.4457	855.5768	877.5128	922.6172	933.9662	968.3091	986.6437	1028.8161	1070.7259	1132.0286	1144.3304	1160.5616	1203.3303	1229.1484	1281.8545	1313.278	1341.827	1415.2031	1425.6447	1446.0828	1469.7303	1494.5004	1500.8295	1893.6429	2235.7295	3012.1275	3028.55	3044.8472	3047.9051	3053.9671	3093.7243	3102.7165	3109.0389	3109.7872	3505.5001
CC1(CC#C)CC(=O)C1	CC1(CC#C)CC(=O)C1	
InChI=1S/C8H10O/c1-3-4-8(2)5-7(9)6-8/h1H,4-6H2,2H3	InChI=1S/C8H10O/c1-3-4-8(2)5-7(9)6-8/h1H,4-6H2,2H3
