16
gdb 32107	3.38199	1.22269	0.9645	2.0563	72.68	-0.2711	-0.044	0.2272	1210.2543	0.126548	-434.146011	-434.138104	-434.13716	-434.179633	28.757	
C	-0.0073313563	 1.5326529997	 0.1429614747	-0.37975
C	-0.0495282186	 0.0223641857	-0.1516901306	-0.255723
C	-1.4516187779	-0.5125907001	-0.0751407966	 0.353453
N	-1.9965531562	-0.6519600475	 1.1430373406	-0.286238
C	-3.2476723946	-1.1065800512	 1.1412852294	 0.073271
N	-3.9797275833	-1.4240870378	 0.0760822494	-0.283444
C	-3.3337153817	-1.2420805322	-1.0730360808	 0.457043
O	-4.00839876	-1.5395023466	-2.1825976941	-0.377804
N	-2.0827757386	-0.7941230796	-1.2179897092	-0.372879
H	 1.0230292655	 1.897409082	 0.1142474738	 0.121554
H	-0.5872156206	 2.0927895879	-0.5970585336	 0.125633
H	-0.4209597677	 1.7409728062	 1.1331832784	 0.140387
H	 0.3507344961	-0.1851025115	-1.1467842791	 0.117206
H	 0.5583349141	-0.506862467	 0.5890643336	 0.125655
H	-3.7248362776	-1.2354866494	 2.1106908405	 0.131994
H	-3.4114043526	-1.3578068685	-2.9225783565	 0.309642
27.9964	129.7288	191.6516	219.5133	287.2545	332.4343	466.7301	497.3058	572.1663	598.8982	606.9569	749.7334	800.4846	807.2901	863.2195	954.9937	1003.5639	1014.5771	1024.5104	1078.9985	1099.0016	1184.8073	1251.0368	1286.858	1316.9195	1346.9781	1381.6168	1401.1817	1456.3151	1479.7843	1489.7713	1497.4924	1511.9144	1604.3239	1624.1884	3043.8147	3057.7456	3106.9981	3118.8084	3131.3217	3161.8181	3767.609
CCC1=NC=NC(O)=N1	CCc1ncnc(O)n1	
InChI=1S/C5H7N3O/c1-2-4-6-3-7-5(9)8-4/h3H,2H2,1H3,(H,6,7,8,9)	InChI=1S/C5H7N3O/c1-2-4-6-3-7-5(9)8-4/h3H,2H2,1H3,(H,6,7,8,9)
