16
gdb 54363	3.78489	1.457	1.24444	2.2708	72.57	-0.2274	-0.0218	0.2056	1007.8952	0.122543	-400.644246	-400.636578	-400.635634	-400.677066	28.645	
C	-0.0793515385	 1.447326348	 0.1577963898	-0.490663
C	-0.0163420063	-0.050605908	-0.0393610087	 0.243442
O	 1.016394341	-0.6650279684	-0.2170799176	-0.324612
C	-1.3042904664	-0.766129053	-0.0045809633	 0.318257
C	-1.8057800339	-1.9162074287	-0.8686345156	-0.150121
C	-3.230511704	-1.3465489653	-0.6432480075	-0.054392
C	-3.0878542844	-1.5335883893	 0.8238681373	-0.054301
C	-1.6600864077	-2.1061417512	 0.6266821428	-0.150116
N	-2.7115913333	-0.2131047053	 0.2032059766	-0.225919
H	 0.9256724362	 1.8680130385	 0.1143719309	 0.138081
H	-0.7153660947	 1.9016711602	-0.6100550244	 0.149571
H	-0.5483886575	 1.6811929078	 1.1200077462	 0.149649
H	-1.298986889	-2.4115467894	-1.683236886	 0.119268
H	-4.0999009682	-1.2447791727	-1.2801913117	 0.106286
H	-3.8180371661	-1.614427019	 1.6189698268	 0.106301
H	-1.0198697472	-2.7754086243	 1.1816430743	 0.119269
58.8657	109.2718	145.3225	171.9534	336.9614	453.0301	563.3108	605.1961	664.911	763.2135	769.9448	792.5995	831.5385	849.5432	858.0419	902.708	908.9331	945.8175	965.8799	972.4973	1007.0467	1039.6758	1050.3992	1072.3383	1113.4285	1162.5021	1195.2058	1249.7709	1266.2751	1317.5117	1375.7132	1413.887	1454.9932	1466.4935	1779.1568	3039.5417	3098.9	3156.7316	3187.5801	3201.4334	3231.17	3241.0699
CC(=O)C12C3C4C(C13)N24	CC(=O)[C@@]12[C@@H]3[C@H]4[C@@H]([C@H]13)N24	
InChI=1S/C7H7NO/c1-2(9)7-3-4(7)6-5(3)8(6)7/h3-6H,1H3	InChI=1S/C7H7NO/c1-2(9)7-3-4(7)6-5(3)8(6)7/h3-6H,1H3/t3-,4+,5-,6+,7+,8?
