17
gdb 65895	3.87265	0.73258	0.69648	2.7549	81.14	-0.2646	-0.065	0.1997	1621.5181	0.13349	-421.780443	-421.770895	-421.769951	-421.817061	32.525	
C	-0.0751808462	 1.5573570108	-0.1438322319	-0.452683
C	-0.0136398473	 0.0294909723	-0.0028054475	 0.074668
C	 1.207560519	-0.6086846678	-0.737265264	-0.104066
O	 1.9190075695	-0.7643309988	 0.5022397734	-0.264503
C	 0.7490002339	-0.4437638442	 1.2731822574	-0.103864
C	-1.303624794	-0.5788039925	-0.2554577655	 0.084678
C	-2.3781712999	-1.0826755365	-0.4865753239	 0.016936
C	-3.6636372691	-1.6875914382	-0.7228641986	 0.016517
O	-4.1376421416	-1.8844927873	-1.8183242076	-0.227102
H	 0.9140556528	 1.9832367254	 0.0482714435	 0.135133
H	-0.3892926555	 1.8421056255	-1.1518037248	 0.138142
H	-0.7840493702	 1.9863353883	 0.5700759583	 0.133602
H	 0.9900937484	-1.5708100319	-1.2160256168	 0.115166
H	 1.7315096805	 0.0458550846	-1.4423819287	 0.114744
H	 0.9424609207	 0.328417979	 2.0260424164	 0.112814
H	 0.3127300212	-1.3280319629	 1.7534384982	 0.110146
H	-4.2080195221	-1.9699150757	 0.201371672	 0.099672
17.4238	75.7041	83.7908	121.2195	200.0903	256.8352	263.3891	325.3913	337.656	464.5814	517.1287	566.1446	685.0405	839.6602	867.5368	915.2893	936.5028	972.6006	1014.6212	1021.4743	1043.4414	1073.8549	1152.1308	1161.8319	1163.7247	1205.2317	1302.4496	1305.5503	1367.7025	1410.6078	1422.6461	1489.3434	1495.9158	1510.1841	1533.2894	1766.4376	2320.1532	2917.1918	3015.6809	3026.1491	3040.6216	3072.9156	3076.7149	3118.615	3121.0332
CC1(COC1)C#CC=O	CC1(COC1)C#CC=O	
InChI=1S/C7H8O2/c1-7(3-2-4-8)5-9-6-7/h4H,5-6H2,1H3	InChI=1S/C7H8O2/c1-7(3-2-4-8)5-9-6-7/h4H,5-6H2,1H3
