19
gdb 73455	2.2233	1.95589	1.56582	0.975	74.35	-0.2172	0.0646	0.2817	965.666	0.15924	-422.99593	-422.9879	-422.986956	-423.027857	31.884	
C	-0.0039958165	 1.4261409483	-0.0229484077	-0.485004
C	-0.0409856747	-0.0739019649	-0.0138070121	 0.370362
O	 0.975034199	-0.6782361118	-0.8006195775	-0.309721
C	 0.4405552022	-1.9086040978	-1.3108228664	-0.091563
C	-0.6877737395	-2.2591470921	-0.3443558746	-0.140755
C	-0.1390990368	-2.2959875475	 1.1205354188	-0.234421
C	-0.4906717952	-0.8158467819	 1.2553213388	-0.176023
C	-1.306370744	-0.8578736049	-0.0321706335	 0.306624
O	-2.58930193	-0.4119506376	-0.2722979393	-0.46507
H	 0.9392072347	 1.794457242	 0.3922425988	 0.132105
H	-0.0924150329	 1.8103424938	-1.0447927833	 0.117984
H	-0.825754206	 1.8322715188	 0.5729193918	 0.129197
H	 0.0645026021	-1.7687886525	-2.3379338309	 0.082112
H	 1.2490393444	-2.6466726633	-1.3329178514	 0.106843
H	-1.3488189065	-3.0661951749	-0.6569984464	 0.078906
H	-0.7554022556	-2.9201792363	 1.7718414599	 0.105152
H	 0.9134001233	-2.5751057719	 1.2352567497	 0.09962
H	-0.6882594837	-0.2736043272	 2.1736010142	 0.085508
H	-2.6200046144	-0.0182959884	-1.1516787789	 0.288143
170.1978	188.8136	207.4863	228.6488	268.7572	328.4658	358.3478	411.0582	534.2716	563.4943	633.4786	672.7571	739.2898	791.8283	846.6908	888.9209	898.9307	937.3981	977.8633	996.0517	1011.7193	1030.5349	1075.7159	1090.1632	1119.3766	1130.4791	1154.6293	1192.9939	1225.6999	1231.2397	1265.7268	1289.8293	1299.937	1354.0706	1375.0331	1418.5835	1458.4452	1479.9845	1490.8049	1513.1947	1515.469	2965.2686	3036.426	3046.4485	3070.4189	3098.6884	3104.9829	3121.394	3129.7591	3172.0618	3786.6701
CC12OCC3CC1C23O	C[C@@]12OC[C@H]3C[C@@H]1[C@@]23O	
InChI=1S/C7H10O2/c1-6-5-2-4(3-9-6)7(5,6)8/h4-5,8H,2-3H2,1H3	InChI=1S/C7H10O2/c1-6-5-2-4(3-9-6)7(5,6)8/h4-5,8H,2-3H2,1H3/t4-,5+,6-,7-/m1/s1
