16
gdb 98521	2.32379	1.40866	0.95245	2.9081	67.3	-0.2727	-0.0517	0.221	1192.6718	0.122	-475.014948	-475.005932	-475.004988	-475.049177	32.09	
O	-0.1211805123	 1.4984326493	 0.3795590221	-0.422006
C	-0.3321718799	 0.1716809381	 0.7621308946	-0.137375
C	-1.191422495	-0.5599152246	-0.2482377195	 0.274888
O	-1.5427574531	 0.0127684974	-1.2651051418	-0.351253
C	-1.6321566005	-1.979784319	-0.015503246	 0.119951
C	-3.127978309	-2.1974116078	-0.185094552	-0.239148
N	-2.2124203522	-2.6822591206	-1.183915138	-0.329422
C	-0.9402565878	-2.8895764445	 0.9450880302	 0.107131
O	-0.1439105241	-2.547572325	 1.7823811213	-0.259346
H	-0.5433444337	 1.5942018912	-0.4872645222	 0.295304
H	 0.6113896516	-0.3842925185	 0.8707601205	 0.144431
H	-0.8172627275	 0.1085109175	 1.7480357396	 0.13065
H	-3.6114294834	-2.9551026253	 0.4261478436	 0.14264
H	-3.709887668	-1.3009783557	-0.3804284306	 0.151908
H	-2.1786258146	-2.0189420931	-1.9596164956	 0.263252
H	-1.2449043406	-3.9498543994	 0.8155690838	 0.108394
60.4322	117.9051	127.3216	185.5622	254.5002	264.8795	330.4231	345.7432	383.3067	394.7658	498.7367	572.1369	644.475	797.6781	825.6853	921.7192	931.2403	994.3954	1010.3962	1048.8858	1059.1101	1117.7923	1132.8345	1158.6532	1243.8191	1273.3396	1309.4364	1332.91	1369.306	1421.0143	1447.1891	1467.3336	1497.7649	1754.0451	1821.1762	2916.4018	3002.805	3018.3108	3110.8617	3206.7184	3464.9145	3715.7445
OCC(=O)C1(CN1)C=O	OCC(=O)[C@]1(CN1)C=O	
InChI=1S/C5H7NO3/c7-1-4(9)5(3-8)2-6-5/h3,6-7H,1-2H2	InChI=1S/C5H7NO3/c7-1-4(9)5(3-8)2-6-5/h3,6-7H,1-2H2/t5-/m0/s1
