17
gdb 99241	4.92195	0.7122	0.64462	2.61	66.93	-0.2511	0.005	0.2561	1691.2281	0.135011	-492.354172	-492.344144	-492.3432	-492.390765	34.402	
C	 0.0142778936	 1.2573753018	-0.3071315734	-0.241677
O	-0.0795101348	-0.1267349664	 0.0619775038	-0.224948
C	-1.3152235675	-0.6416175532	 0.0663647403	 0.439463
O	-2.3144389896	-0.0210441861	-0.2084448291	-0.36675
C	-1.293723204	-2.0995955834	 0.4802661303	-0.262286
N	-2.6388806444	-2.6257865229	 0.485110472	-0.35023
C	-2.8578682156	-3.8963575162	-0.0104986147	 0.453389
N	-4.198958129	-4.1978490863	-0.1956386649	-0.562854
O	-1.9603742916	-4.6751024667	-0.2752197393	-0.388007
H	 1.0738355578	 1.5054888738	-0.2532982272	 0.140024
H	-0.3645761648	 1.4102165751	-1.3204893346	 0.146089
H	-0.5614619529	 1.878319864	 0.3834188102	 0.144253
H	-0.6664147159	-2.6773449135	-0.2068407398	 0.168702
H	-0.8148321509	-2.1664804652	 1.466196093	 0.139312
H	-3.3438956853	-1.9206732312	 0.313191178	 0.253684
H	-4.8690133182	-3.7431086679	 0.4058643656	 0.25076
H	-4.362517757	-5.1838321757	-0.3294187701	 0.261076
28.4704	62.7189	103.5846	122.8528	160.4193	209.2697	253.7503	312.0742	375.8531	410.2615	500.9806	533.9678	568.378	596.7633	657.636	722.527	776.9598	901.5874	979.9535	1021.2339	1050.5599	1101.2562	1178.846	1196.4999	1209.9029	1234.8274	1252.1819	1316.7904	1398.0011	1475.9929	1483.1387	1492.1331	1496.9817	1526.0458	1626.7849	1800.538	1814.5801	3024.7449	3055.4249	3080.1147	3131.7742	3165.4238	3575.3697	3581.2791	3694.4598
COC(=O)CNC(N)=O	COC(=O)CNC(=O)N	
InChI=1S/C4H8N2O3/c1-9-3(7)2-6-4(5)8/h2H2,1H3,(H3,5,6,8)	InChI=1S/C4H8N2O3/c1-9-3(7)2-6-4(5)8/h2H2,1H3,(H3,5,6,8)
