17
gdb 36672	3.27187	0.80156	0.68403	1.6294	80.99	-0.2605	0.0156	0.276	1601.7223	0.13237	-384.59835	-384.58881	-384.587866	-384.633637	34.519	
C	-0.1399167028	-1.1867221979	 0.0333946975	-0.435992
C	-0.0390449463	 0.0035361019	 0.1663525903	 0.291564
C	 0.1116706881	 1.4457859581	 0.3065289785	-0.346613
C	 1.341833392	 1.9925285931	-0.4515425551	-0.229426
C	 1.4468438937	 3.4894089467	-0.3135692317	 0.065089
O	 1.8077823293	 3.998985898	 0.9705077306	-0.2459
C	 2.731258535	 4.1993583124	-0.1139188752	-0.157285
C	 3.9942920031	 3.514265412	-0.0517393594	 0.339253
C	 5.0671319874	 2.9729873773	-0.0197375064	-0.426927
H	-0.240658746	-2.2380446741	-0.0748453015	 0.19469
H	-0.7967172081	 1.9457046406	-0.0550788205	 0.128641
H	 0.2066067302	 1.7105560132	 1.3663828706	 0.151046
H	 2.2495347553	 1.5203475604	-0.0679908067	 0.13288
H	 1.2626127221	 1.7353690915	-1.5139400381	 0.117213
H	 0.6536681672	 4.0618571303	-0.8009000305	 0.09751
H	 2.7905286425	 5.2335324089	-0.452787983	 0.117993
H	 6.0124311272	 2.4896956276	 0.0154656707	 0.206263
57.2861	70.4247	92.8062	156.9325	200.8239	247.1142	334.5213	354.2709	447.4997	505.1563	556.0016	605.2909	617.9731	631.6358	640.7882	672.3839	762.8248	817.5208	826.8506	944.089	965.7659	1019.3647	1034.5802	1061.4129	1128.7962	1148.3807	1217.5366	1276.5911	1290.4552	1313.0776	1366.4839	1390.9963	1460.016	1472.8261	1486.3336	2240.2403	2240.5395	3020.7761	3049.271	3062.2125	3078.8665	3111.4864	3116.3179	3501.9307	3507.2934
C#CCCC1OC1C#C	C#CCC[C@H]1O[C@H]1C#C	
InChI=1S/C8H8O/c1-3-5-6-8-7(4-2)9-8/h1-2,7-8H,5-6H2	InChI=1S/C8H8O/c1-3-5-6-8-7(4-2)9-8/h1-2,7-8H,5-6H2/t7-,8+/m0/s1
