21
gdb 108475	2.16194	1.5294	1.22275	1.0262	77.37	-0.2447	0.0652	0.3099	1148.0507	0.181651	-424.192446	-424.183224	-424.18228	-424.226912	34.607	
C	-0.1457005091	 1.6251372151	 0.1259257903	-0.380763
C	-0.0258455935	 0.0958810878	 0.0637110638	-0.313621
C	-1.3753101153	-0.5842005693	-0.0298440358	 0.317362
C	-2.2933095056	-0.5857636233	 1.2043645039	-0.140165
O	-2.5566279346	-2.0025823272	 1.0798448118	-0.296455
C	-1.6492002284	-2.1221670288	-0.0385062874	 0.041245
C	-2.391404212	-2.0252125978	-1.3858054538	-0.282795
C	-2.1555045012	-0.4805959455	-1.3890670945	 0.073691
O	-3.2617270329	 0.3813851038	-1.4879772956	-0.431265
H	 0.840730983	 2.0971610824	 0.1552201077	 0.113754
H	-0.6835565394	 2.0158350171	-0.7436837241	 0.133238
H	-0.6931890877	 1.9429478614	 1.0199073802	 0.119075
H	 0.5849810061	-0.1895070328	-0.8031188394	 0.096114
H	 0.5102160741	-0.2702017697	 0.9491530665	 0.098032
H	-1.7747979606	-0.3560026499	 2.1449870884	 0.100042
H	-3.2067171997	 0.021688672	 1.1563156276	 0.090769
H	-0.8968464988	-2.9011174795	 0.1109030404	 0.073216
H	-1.9157964162	-2.5471048248	-2.2204258896	 0.105236
H	-3.4375058008	-2.3377150403	-1.3218824026	 0.106191
H	-1.477445319	-0.1720174389	-2.1906634052	 0.090118
H	-3.9670299984	 0.0348414481	-0.9315448528	 0.286981
40.8884	91.5026	140.1461	209.2135	255.0997	285.6487	310.604	323.5929	422.6157	425.8244	509.8214	639.7603	663.7221	774.1361	792.4025	851.0338	899.5244	916.8577	976.3906	988.5186	1001.4853	1009.9478	1020.7873	1042.9867	1102.5696	1126.8109	1139.9095	1152.9275	1181.7618	1197.4924	1231.3327	1260.1002	1279.6963	1303.9367	1317.2613	1323.0446	1358.4317	1384.4982	1413.3122	1432.882	1459.1465	1486.7878	1499.2519	1506.4567	1529.9641	2998.9941	3012.7974	3035.3044	3036.9769	3044.5248	3053.6625	3060.7189	3074.9703	3101.9068	3111.2612	3114.2241	3810.3132
CCC12COC1CC2O	CC[C@]12CO[C@H]1C[C@H]2O	
InChI=1S/C7H12O2/c1-2-7-4-9-6(7)3-5(7)8/h5-6,8H,2-4H2,1H3	InChI=1S/C7H12O2/c1-2-7-4-9-6(7)3-5(7)8/h5-6,8H,2-4H2,1H3/t5-,6+,7-/m1/s1
