20
gdb 75143	3.39125	1.21124	1.10553	1.4121	76.31	-0.2395	0.0238	0.2633	1197.5934	0.169603	-440.313878	-440.304253	-440.303309	-440.34846	35.564	
C	 0.0162732538	 1.4698305665	 0.099849397	-0.454505
C	-0.0083395934	-0.0230107769	-0.0480371081	 0.369182
N	 0.0035791025	-0.5918662022	-1.1812382501	-0.308763
C	 0.0206121428	-2.050679201	-1.2502592299	-0.186766
C	 0.4406749504	-2.7396358404	 0.0583142719	 0.304038
C	 0.1420819596	-4.2330775752	 0.0457799593	-0.416688
O	 1.8485439993	-2.6174693603	 0.262955942	-0.472265
C	-0.3013423149	-2.0318008399	 1.1938662566	-0.094772
O	-0.0269589371	-0.6237809409	 1.1808998801	-0.267374
H	 0.85973968	 1.7751913847	 0.7273234021	 0.13725
H	 0.0982053211	 1.9337428176	-0.8820136021	 0.145731
H	-0.8953342051	 1.8155663966	 0.5979119113	 0.138757
H	-0.9731947459	-2.397516424	-1.5633435541	 0.105367
H	 0.7184319151	-2.3471020077	-2.041412312	 0.116282
H	 0.6581848187	-4.7092279249	-0.792801056	 0.130753
H	 0.4982646494	-4.6989301215	 0.9693322187	 0.125788
H	-0.9307570356	-4.421784403	-0.0539769613	 0.114784
H	 2.0702822766	-1.6800405828	 0.2554687219	 0.289104
H	-1.3850925233	-2.1857621436	 1.1100310095	 0.104065
H	 0.038568796	-2.3932247911	 2.1668970834	 0.120033
39.0291	119.8268	155.9171	197.2911	240.4403	262.845	264.511	334.4123	339.0107	403.4637	443.7953	510.3163	563.2365	613.708	700.1226	785.8231	874.9551	883.9013	935.5433	945.655	987.3337	1011.0271	1062.9336	1063.9327	1095.5026	1137.2769	1192.9265	1218.8591	1241.8736	1287.2541	1308.1486	1337.9436	1365.4158	1408.0114	1412.2768	1428.4701	1469.2021	1476.4689	1477.427	1483.3816	1495.3586	1500.1365	1750.4216	3014.617	3024.0749	3043.2776	3047.6886	3061.9359	3104.1206	3108.4728	3117.1718	3120.241	3168.1246	3811.9927
CC1=NCC(C)(O)CO1	CC1=NC[C@@](C)(O)CO1	
InChI=1S/C6H11NO2/c1-5-7-3-6(2,8)4-9-5/h8H,3-4H2,1-2H3	InChI=1S/C6H11NO2/c1-5-7-3-6(2,8)4-9-5/h8H,3-4H2,1-2H3/t6-/m1/s1
