16
gdb 117614	2.27084	1.18381	0.96867	4.7391	72.1	-0.2891	-0.0062	0.2829	1277.3736	0.12039	-437.83338	-437.823347	-437.822403	-437.868637	35.222	
C	-0.1480630771	 1.3551575458	-0.0665921626	-0.235962
O	-0.0812768081	-0.056845742	-0.1094382239	-0.254994
C	 0.7634053404	-0.5531263786	-1.1177167893	-0.09185
C	 0.635895763	-2.0949683188	-1.053296418	 0.009678
O	-0.7275973383	-2.4603648196	-1.1145564712	-0.433116
C	 1.3516017203	-2.6970459908	-2.1799098708	 0.334928
C	 1.9585462369	-3.1477071917	-3.1111313916	-0.411404
C	 1.2375838824	-2.5761850049	 0.2247837938	 0.277326
N	 1.6911173814	-2.9429380631	 1.2214771674	-0.33698
H	 0.8371212492	 1.7944560261	 0.1434133114	 0.123359
H	-0.5238857224	 1.768211855	-1.0139617468	 0.118005
H	-0.8356381811	 1.6193165696	 0.7389020932	 0.143275
H	 0.4343985499	-0.2278171126	-2.1154425623	 0.118352
H	 1.8080286327	-0.2474246895	-0.9668803479	 0.123183
H	-1.1850671687	-1.8326209435	-0.5356197528	 0.30278
H	 2.4901638494	-3.5669019514	-3.9303275587	 0.21342
61.5403	111.7406	119.0672	131.6957	186.1564	225.3895	233.3481	294.071	363.6651	426.0824	460.6822	478.4064	511.8077	573.7967	629.8349	662.898	690.471	754.0776	933.2333	980.9142	1061.1842	1118.3875	1136.0817	1166.0404	1188.4171	1228.5109	1267.8235	1383.22	1420.4169	1478.1552	1487.681	1496.796	1518.3149	2254.2993	2358.8179	2989.1867	2998.8455	3044.4086	3048.2869	3132.5206	3498.6255	3740.1268
COCC(O)(C#C)C#N	COC[C@@](O)(C#C)C#N	
InChI=1S/C6H7NO2/c1-3-6(8,4-7)5-9-2/h1,8H,5H2,2H3	InChI=1S/C6H7NO2/c1-3-6(8,4-7)5-9-2/h1,8H,5H2,2H3/t6-/m1/s1
