21
gdb 72284	2.99296	1.59929	1.34567	1.4319	81.51	-0.2199	0.0824	0.3023	1053.3504	0.184793	-387.076845	-387.069182	-387.068238	-387.108435	31.415	
C	-0.0838762461	 1.5458911348	-0.0793823139	-0.490694
C	-0.0883370143	 0.0535926959	-0.0113584189	 0.457685
O	 0.6562767773	-0.6431924093	-1.0203656319	-0.341098
C	-0.3248197117	-1.7314330571	-1.0084565251	 0.107927
C	 0.309124176	-3.0393515016	-0.5455139689	-0.220176
C	 1.2618365089	-2.76696548	 0.6304971797	-0.194607
C	 0.62546073	-1.9041697155	 1.7396176191	-0.227088
C	-0.2742409007	-0.7855504635	 1.234432963	-0.083032
C	-1.1749333972	-0.9960940139	 0.0335894887	-0.217725
H	 0.9244438031	 1.9361876823	 0.1008110269	 0.129605
H	-0.4091717485	 1.8923609318	-1.0655339903	 0.12622
H	-0.7498085092	 1.9685422632	 0.6784295886	 0.121242
H	-0.8002138772	-1.812854543	-1.9910013109	 0.075257
H	-0.4948996175	-3.7320927587	-0.2628575273	 0.096346
H	 0.8617141267	-3.5099104471	-1.3665728312	 0.098515
H	 1.6117783642	-3.7118534288	 1.0593692353	 0.085021
H	 2.139357338	-2.2500954706	 0.2346144491	 0.118899
H	 0.010037534	-2.5433217152	 2.3881517179	 0.094773
H	 1.4160759867	-1.4946826977	 2.3801547234	 0.096323
H	-0.7630411389	-0.2189916937	 2.0253853908	 0.08006
H	-2.2546792035	-0.9191451225	 0.0417477858	 0.086546
170.7441	193.6275	218.9371	263.0678	277.7867	385.7004	417.3082	497.0989	591.5579	639.7623	694.3617	724.7226	759.2088	835.0819	856.9931	891.2468	914.7602	930.6286	933.7751	973.7031	985.0673	1020.567	1057.4642	1068.7615	1097.6244	1113.388	1116.5295	1187.8444	1199.2636	1204.7165	1264.966	1275.0762	1316.252	1323.2496	1348.074	1370.6267	1379.95	1393.9379	1411.1006	1473.0306	1477.278	1477.5619	1486.9841	1497.567	1503.2633	3005.5799	3020.5522	3031.0408	3042.8048	3051.3341	3053.2239	3066.1967	3093.887	3102.7547	3114.0667	3125.2675	3187.9141
CC12OC3CCCC1C23	C[C@@]12O[C@H]3CCC[C@@H]1[C@@H]23	
InChI=1S/C8H12O/c1-8-5-3-2-4-6(9-8)7(5)8/h5-7H,2-4H2,1H3	InChI=1S/C8H12O/c1-8-5-3-2-4-6(9-8)7(5)8/h5-7H,2-4H2,1H3/t5-,6+,7-,8-/m1/s1
