17
gdb 128826	4.86382	0.8454	0.75491	1.3988	72.12	-0.2621	-0.0197	0.2425	1522.2011	0.134725	-455.143026	-455.133849	-455.132905	-455.178351	31.137	
C	-0.0436855873	 1.3185514897	 0.2430853426	-0.221519
O	-0.030516268	-0.0896970393	 0.19398448	-0.22995
C	-1.2884629488	-0.6271372164	-0.1450530768	-0.174684
C	-1.1992034359	-2.1176344335	-0.0932424873	 0.35116
N	-1.3605949815	-2.8531900172	-1.1602196774	-0.169781
O	-1.2149395455	-4.1582316136	-0.67655204	-0.193799
C	-0.9774628188	-4.0544320687	 0.6407364092	 0.410092
C	-0.7759081026	-5.3060439711	 1.415489679	-0.49666
N	-0.9592088742	-2.8267440729	 1.0633557712	-0.330509
H	 0.9637817744	 1.6411009182	 0.5145861219	 0.13298
H	-0.3096764776	 1.7596009887	-0.7304765065	 0.107469
H	-0.7543385359	 1.6932657135	 0.9965829136	 0.107415
H	-2.0601021955	-0.2889826473	 0.5664239269	 0.108243
H	-1.6003057002	-0.3227750862	-1.1552927105	 0.116748
H	-1.6478922013	-5.9606008693	 1.3254136723	 0.157982
H	 0.0917170833	-5.8560107006	 1.0386111194	 0.160015
H	-0.6164634847	-5.056064204	 2.4640075225	 0.164799
58.3929	73.4456	83.1167	106.207	224.6385	234.5034	283.9814	343.9341	391.4901	425.8734	655.8331	678.868	735.2765	830.0225	925.3004	988.3338	994.8589	1004.327	1050.1606	1070.1284	1074.0066	1158.1057	1183.7795	1225.3352	1253.0491	1298.2835	1377.2805	1409.3374	1432.0363	1475.6891	1476.6413	1479.0763	1485.9223	1497.144	1517.3587	1571.3693	1632.7428	2965.642	2975.6373	3015.2668	3019.6488	3054.4243	3113.7881	3121.9314	3165.2315
COCC1=NOC(C)=N1	COCc1noc(C)n1	
InChI=1S/C5H8N2O2/c1-4-6-5(3-8-2)7-9-4/h3H2,1-2H3	InChI=1S/C5H8N2O2/c1-4-6-5(3-8-2)7-9-4/h3H2,1-2H3
