15
gdb 47331	3.25485	1.19792	0.89624	4.4762	78.18	-0.2444	-0.0794	0.165	1212.0086	0.114548	-416.857154	-416.849392	-416.848448	-416.889628	28.949	
O	-0.049838973	-0.0981304496	 0.0414557944	-0.335145
C	-0.0286986943	 1.1173482098	 0.0339688577	 0.380263
C	-1.3102940493	 1.9502720588	-0.0703245682	-0.309106
C	-1.170803589	 3.3010274741	 0.6318708207	-0.191785
N	 0.0193221422	 3.990739922	 0.1401626749	-0.361957
C	 1.1768848824	 3.2576361398	 0.0577075302	 0.259421
C	 1.209615226	 1.8961876453	 0.0460628965	-0.285482
C	 2.389232235	 4.0207086376	-0.0357931615	 0.239693
N	 3.3536140003	 4.656111466	-0.1034067909	-0.312743
H	-1.5128099182	 2.1062410093	-1.1383539381	 0.137833
H	-2.1414678764	 1.376447789	 0.344053122	 0.135064
H	-2.0412838756	 3.9347045917	 0.4454656871	 0.127504
H	-1.0923396304	 3.1438933105	 1.719941878	 0.122371
H	 0.1243527799	 4.9608558635	 0.3939306592	 0.265955
H	 2.1529374604	 1.3718440324	-0.0216753021	 0.128116
121.2565	132.7499	152.943	239.4509	372.9489	412.4252	433.8752	462.1146	521.3376	557.7678	585.049	659.0711	694.6112	781.5234	852.3993	892.849	928.0633	1018.6759	1061.0629	1110.5043	1160.6053	1194.5251	1243.7532	1259.7602	1345.8852	1369.154	1389.0724	1455.9109	1495.019	1537.1784	1632.1079	1768.9356	2350.8493	2977.3913	3033.6158	3095.8944	3121.3329	3232.7981	3626.0976
O=C1CCNC(=C1)C#N	O=C1CCNC(=C1)C#N	
InChI=1S/C6H6N2O/c7-4-5-3-6(9)1-2-8-5/h3,8H,1-2H2	InChI=1S/C6H6N2O/c7-4-5-3-6(9)1-2-8-5/h3,8H,1-2H2
