19
gdb 107435	3.12251	1.43309	1.22874	0.7768	74.3	-0.2466	0.0816	0.3282	1080.7587	0.159296	-422.987177	-422.979286	-422.978341	-423.019373	31.03	
C	-0.3041893711	 1.293760819	-0.0338362379	-0.256552
O	 0.2431606592	-0.0031674287	 0.1343163526	-0.288933
C	 0.7823554911	-0.5354122049	-1.0290101527	 0.419915
C	-0.0910538516	-1.0219406027	-2.1589661486	-0.348028
C	 0.6899564685	-2.0136009228	-1.3148406257	-0.122468
C	 2.0575636101	-2.5178590479	-1.7877866683	-0.266201
C	 2.9515991555	-1.2851923246	-1.8556367805	 0.049095
O	 2.5230641499	-0.2779569047	-2.7865759815	-0.25461
C	 2.1947293882	-0.1084556673	-1.401731329	-0.046644
H	 0.4538290314	 2.0206566047	-0.3586027148	 0.110535
H	-1.1201236254	 1.2944597969	-0.769309464	 0.113416
H	-0.6950272877	 1.6018356502	 0.9385332311	 0.126846
H	-1.1611912609	-0.9998955172	-1.9815344859	 0.111706
H	 0.2235021726	-0.821686297	-3.1756766679	 0.133692
H	 0.1103338992	-2.6450721529	-0.6514063248	 0.098036
H	 2.4728836701	-3.2176520713	-1.0535669918	 0.109536
H	 2.0156029378	-3.0402653174	-2.7497149984	 0.116705
H	 4.0303019895	-1.3840764535	-1.7558184675	 0.096335
H	 2.6400509137	 0.7477272822	-0.9023305446	 0.097618
117.2124	158.3821	180.1803	266.4223	305.9857	370.6105	385.9705	437.6573	500.8589	634.9891	703.4756	734.8712	804.0143	838.6062	862.1833	891.0166	925.436	958.6891	972.4409	994.0999	1051.1138	1064.6708	1067.2601	1088.2886	1111.386	1113.582	1182.8132	1206.5299	1215.2766	1238.9022	1265.585	1270.6472	1298.3417	1335.5518	1392.4483	1419.2826	1465.8959	1477.719	1487.3505	1490.1715	1507.8443	2994.5004	3041.287	3048.1308	3080.3228	3121.378	3136.1085	3138.133	3155.3296	3178.3992	3235.353
COC12CC1CC1OC21	CO[C@]12C[C@H]1C[C@H]1O[C@@H]21	
InChI=1S/C7H10O2/c1-8-7-3-4(7)2-5-6(7)9-5/h4-6H,2-3H2,1H3	InChI=1S/C7H10O2/c1-8-7-3-4(7)2-5-6(7)9-5/h4-6H,2-3H2,1H3/t4-,5-,6-,7-/m1/s1
