19
gdb 86372	2.86656	1.04064	0.93768	4.7043	72.5	-0.2406	-0.0144	0.2261	1303.7962	0.15765	-460.151113	-460.141838	-460.140894	-460.185882	34.157	
O	 0.0188557098	 1.3500128874	-0.2366288832	-0.439093
C	-0.0029119836	-0.0457683196	-0.0320015163	 0.129244
C	 0.2764597508	-0.4809816562	 1.4361644104	-0.280412
C	-1.2583350673	-0.4972395013	 1.6700484668	 0.069105
O	-1.7459848638	 0.7886577909	 2.0496193442	-0.432488
C	-1.4402899334	-0.6481806573	 0.1346725378	-0.026922
C	-2.639153874	 0.0105976817	-0.5506436635	-0.294124
C	-2.4799778825	 0.0077039045	-2.0550766927	 0.147606
O	-3.1969918772	-0.5882646391	-2.8190327334	-0.245991
H	-0.5049182102	 1.7417600874	 0.4751294634	 0.284673
H	 0.6282261891	-0.4795483565	-0.8105092201	 0.088273
H	 0.7137188582	-1.4814417931	 1.4977579142	 0.109034
H	 0.864077494	 0.2112387089	 2.0456733547	 0.098916
H	-1.6819071602	-1.2786679488	 2.3119611725	 0.073193
H	-1.4675667319	 0.9587191915	 2.9557474334	 0.292244
H	-1.4055839266	-1.7141520175	-0.1138297688	 0.092251
H	-3.5681116817	-0.5063524262	-0.2927089113	 0.116508
H	-2.7160689317	 1.0511213176	-0.2166990054	 0.124782
H	-1.6205648778	 0.6107109857	-2.4222619126	 0.0932
59.8392	62.7421	137.1358	167.5281	231.831	284.603	327.5581	376.1673	418.2782	475.2228	512.1527	533.4378	600.3497	729.9041	827.7225	845.2781	867.0212	898.3721	911.508	991.8066	999.4398	1024.6772	1072.4798	1114.2954	1132.2389	1146.8857	1178.9596	1200.2019	1221.242	1253.1695	1266.8745	1300.5015	1313.4092	1332.2248	1371.013	1404.7971	1421.224	1452.5007	1465.7089	1469.125	1829.2868	2895.5543	3029.1775	3048.9429	3054.018	3060.6938	3090.829	3106.5845	3115.7312	3757.3617	3812.5631
OC1CC(O)C1CC=O	O[C@H]1C[C@@H](O)[C@H]1CC=O	
InChI=1S/C6H10O3/c7-2-1-4-5(8)3-6(4)9/h2,4-6,8-9H,1,3H2	InChI=1S/C6H10O3/c7-2-1-4-5(8)3-6(4)9/h2,4-6,8-9H,1,3H2/t4-,5-,6+
