18
gdb 111398	2.21771	1.67162	1.11857	3.9046	72.82	-0.2313	-0.021	0.2103	1111.4556	0.14638	-439.026345	-439.017635	-439.016691	-439.060224	31.64	
C	-0.0715681197	 1.3788252223	 0.2530262643	-0.256624
O	-0.0426557513	 0.0450588785	-0.2350456861	-0.236853
C	-1.2406932525	-0.6313537396	-0.0749930426	 0.175501
C	-1.33748957	-1.9929215106	-0.7451931046	-0.102995
N	-0.4382483319	-2.9198717306	-0.0228258951	-0.322554
C	-1.7851611619	-2.6350118645	 0.523837905	-0.077451
C	-1.6041497907	-1.3417040845	 1.3235008018	-0.174429
C	-0.5256822183	-1.3564231682	 2.3806714236	 0.174639
O	-0.2475429781	-0.3955627082	 3.0567442818	-0.267169
H	 0.9110789825	 1.8101883881	 0.0517014359	 0.129966
H	-0.8363590004	 1.9736344599	-0.2699355559	 0.100411
H	-0.2657973013	 1.4066435303	 1.3310836495	 0.144097
H	-2.0964751183	-0.0036616502	-0.3655179041	 0.075887
H	-1.6250551543	-2.1916199191	-1.7698525369	 0.101461
H	-0.4797867441	-3.8152405608	-0.5078493102	 0.235769
H	-2.5168324801	-3.4180285231	 0.6729966351	 0.102377
H	-2.517507196	-0.9164306876	 1.7449317023	 0.10075
H	 0.0074960065	-2.3209860419	 2.5014868459	 0.097218
59.9088	130.0798	152.5355	156.989	204.2434	241.3222	313.657	421.1498	471.9564	571.5333	615.6601	694.7297	794.69	837.6611	850.3914	903.6932	954.3431	984.4274	1020.5297	1023.5574	1050.6445	1071.2862	1100.9241	1119.3879	1159.8173	1168.7003	1190.2693	1222.3669	1253.1212	1262.3636	1327.4445	1331.5653	1373.9912	1402.6904	1425.1522	1484.5901	1493.8332	1514.2724	1809.8734	2930.2411	2984.7916	2992.2043	3072.1178	3094.1113	3129.5809	3193.1634	3207.5766	3484.0356
COC1C2NC2C1C=O	CO[C@H]1[C@H]2N[C@H]2[C@H]1C=O	
InChI=1S/C6H9NO2/c1-9-6-3(2-8)4-5(6)7-4/h2-7H,1H3	InChI=1S/C6H9NO2/c1-9-6-3(2-8)4-5(6)7-4/h2-7H,1H3/t3-,4+,5+,6-/m1/s1
