20
gdb 30652	3.61303	1.03091	0.86385	1.3081	81.05	-0.235	0.0095	0.2445	1390.1749	0.171146	-403.194962	-403.185784	-403.18484	-403.229883	33.401	
C	-0.2113072651	 1.5290787423	-0.1474268217	-0.392967
C	-0.0549102787	 0.0061174604	-0.136222346	-0.171159
C	 0.8887565902	-0.5397974781	-1.2378831119	-0.095346
C	 2.3452645393	-0.0951290993	-1.0597990127	-0.387895
C	 0.8027342913	-2.0336442296	-1.2949380328	 0.409128
N	 1.7032038035	-2.9198575679	-1.0039488675	-0.313206
C	 1.0787794399	-4.1439910327	-1.2157391711	-0.117799
C	-0.188560467	-3.9270585755	-1.6307058855	-0.04638
O	-0.3842834063	-2.5750365794	-1.687987841	-0.184172
H	 0.7308872408	 2.0416263162	 0.0674955526	 0.122145
H	-0.5695816661	 1.8827064952	-1.120949125	 0.115426
H	-0.9366587039	 1.8469459251	 0.6077560004	 0.116015
H	 0.3199278498	-0.32553034	 0.8404069338	 0.105295
H	-1.0387171941	-0.4578625823	-0.2648004765	 0.110052
H	 0.5156594018	-0.1618052429	-2.200656504	 0.09453
H	 2.7415260441	-0.4437418178	-0.1019882478	 0.13273
H	 2.9794146127	-0.5102217264	-1.846672502	 0.127656
H	 2.4231619864	 0.9941437563	-1.0945797181	 0.112089
H	 1.5904347223	-5.0794680666	-1.0547756705	 0.121587
H	-1.0212418408	-4.5481949071	-1.9117375325	 0.142271
34.547	82.0022	129.1387	196.0188	207.7761	270.2838	281.7359	347.3539	400.9176	473.3739	630.4134	686.7952	752.9486	773.1112	789.1656	848.2559	862.2744	931.3469	946.4884	972.2143	995.5006	1037.0132	1089.355	1112.9068	1127.34	1152.2214	1167.9596	1172.817	1218.4908	1286.9871	1322.3513	1349.6333	1369.9924	1402.1754	1412.106	1417.6687	1484.6768	1490.9514	1496.4925	1504.4619	1509.442	1558.5999	1612.4783	3003.2825	3029.74	3034.3318	3052.2456	3070.6472	3100.2841	3110.4696	3124.7627	3128.648	3262.4433	3299.6415
CCC(C)C1=NC=CO1	CC[C@@H](C)c1ncco1	
InChI=1S/C7H11NO/c1-3-6(2)7-8-4-5-9-7/h4-6H,3H2,1-2H3	InChI=1S/C7H11NO/c1-3-6(2)7-8-4-5-9-7/h4-6H,3H2,1-2H3/t6-/m1/s1
