23
gdb 91018	2.53592	1.63466	1.1861	0.2184	89.33	-0.242	0.0865	0.3285	1148.2148	0.206621	-351.122823	-351.114233	-351.113289	-351.155563	34.631	
C	-0.9552071136	 1.1870934351	 0.4867804852	-0.415963
C	-0.3615335455	-0.2145723321	 0.5558430838	 0.05129
C	 0.4812864514	-0.7356379853	-0.644382355	-0.264111
C	 1.5509393331	-1.2847388313	 0.3354099866	-0.013578
C	 2.7263571491	-0.3508489865	 0.5642893093	-0.098939
C	 3.1999284553	-0.5084261242	 1.9803873299	-0.333162
C	 1.9836120211	 0.3496337383	 1.7180383647	 0.375262
C	 1.9659075452	 1.7911193307	 2.1532564445	-0.505405
C	 0.7855826795	-0.5932977494	 1.5447265031	-0.129681
H	-0.219868344	 1.9245077959	 0.1527886867	 0.119226
H	-1.7863741522	 1.2135981151	-0.2274680113	 0.109952
H	-1.344384067	 1.5121962603	 1.4582732515	 0.111582
H	-1.1771775576	-0.9226307653	 0.7431437369	 0.070839
H	-0.0168287491	-1.4866519668	-1.2623006632	 0.093887
H	 0.8609912368	 0.0494416034	-1.3063698823	 0.090829
H	 1.7532387327	-2.3579592379	 0.2953810431	 0.059232
H	 3.3475476935	 0.0827043997	-0.2131945352	 0.076714
H	 3.1096358554	-1.4705636126	 2.4814770556	 0.098193
H	 4.0969801999	 0.0444501446	 2.2422042188	 0.102943
H	 1.3044719374	 2.4122807605	 1.5445753661	 0.11854
H	 1.6314595967	 1.8785574003	 3.1948222342	 0.116497
H	 2.9703773086	 2.224253694	 2.0981488201	 0.112942
H	 0.4665957633	-1.1235912865	 2.447788837	 0.05291
81.0953	169.5213	202.8556	262.1202	269.4734	311.398	342.643	377.2188	452.4801	532.318	562.5922	651.8834	754.5284	795.0019	812.7684	833.6897	885.9633	890.1848	928.0614	955.5136	966.3457	990.1773	1019.1536	1033.9826	1062.3314	1073.9903	1097.4328	1115.5927	1125.9288	1137.5054	1140.8477	1196.8351	1206.3033	1245.3781	1260.9816	1279.5898	1284.8885	1316.4659	1342.5271	1361.213	1385.4752	1406.6028	1421.6729	1483.8768	1488.3659	1491.7467	1495.7225	1504.7942	1508.7473	3023.1785	3024.8409	3027.6641	3046.7919	3048.9412	3070.455	3082.1471	3085.6875	3097.8705	3100.3312	3106.194	3118.4232	3156.9655	3190.9607
CC1CC2C3CC3(C)C12	C[C@H]1C[C@H]2[C@@H]3C[C@]3(C)[C@@H]12	
InChI=1S/C9H14/c1-5-3-6-7-4-9(7,2)8(5)6/h5-8H,3-4H2,1-2H3	InChI=1S/C9H14/c1-5-3-6-7-4-9(7,2)8(5)6/h5-8H,3-4H2,1-2H3/t5-,6-,7-,8-,9-/m0/s1
