18
gdb 35690	2.33358	1.56877	1.125	3.5328	76.14	-0.2585	0.0235	0.2819	1114.5794	0.148336	-401.940222	-401.932054	-401.93111	-401.973424	30.475	
N	-0.5251308977	-0.8494837797	-0.8206299138	-0.337243
C	-0.3654309826	 0.2045289615	-0.3706641613	 0.267168
C	-0.1021423076	 1.5117884832	 0.1974280467	-0.201312
C	 0.1670201841	 1.6394039637	 1.7293146413	-0.24003
C	 1.2501948884	 2.7013568476	 1.4056655298	-0.300057
C	 1.3002372169	 2.1764348913	-0.0451546101	 0.446308
C	 2.4836735335	 1.3356062999	-0.5663352956	-0.356927
C	 2.5094425889	 2.3617998306	-1.7159542432	-0.078034
O	 1.4165669549	 3.103480894	-1.1204534884	-0.308504
H	-0.8723603008	 2.2196337334	-0.122605269	 0.134668
H	-0.6801758505	 1.9441615232	 2.3437773313	 0.122494
H	 0.591319945	 0.7198685386	 2.1366740184	 0.128601
H	 0.8444791087	 3.7169170793	 1.4199814228	 0.124568
H	 2.1804480763	 2.6793401385	 1.9769217108	 0.109974
H	 3.3613561756	 1.3401455494	 0.0820551144	 0.115892
H	 2.2423052168	 0.3105988542	-0.8503930837	 0.142529
H	 3.4136937567	 2.9738028701	-1.7983736091	 0.111615
H	 2.2431291734	 1.974087811	-2.7049203712	 0.118288
85.2292	95.6893	141.3076	192.0733	279.9732	366.231	382.5598	473.7025	548.6454	580.5326	686.3376	787.7867	790.9527	865.8059	872.9826	910.1646	944.807	952.3119	975.1284	1022.8307	1058.4052	1074.0832	1122.6793	1149.7753	1168.2694	1191.8344	1216.8487	1229.1131	1246.405	1258.4317	1270.448	1290.1436	1337.1729	1363.5068	1477.7295	1487.8268	1498.2938	1532.0613	2346.4	3036.2208	3065.0586	3076.425	3080.9051	3084.5216	3085.9413	3120.6138	3142.4893	3145.3857
N#CC1CCC11CCO1	N#C[C@H]1CC[C@]21CCO2	
InChI=1S/C7H9NO/c8-5-6-1-2-7(6)3-4-9-7/h6H,1-4H2	InChI=1S/C7H9NO/c8-5-6-1-2-7(6)3-4-9-7/h6H,1-4H2/t6-,7-/m1/s1
