16
gdb 27644	3.03791	1.27399	0.9046	4.3465	83.9	-0.1878	0.021	0.2088	1250.9831	0.124216	-396.946	-396.936958	-396.936013	-396.9795	33.452	
C	-0.0137023176	 1.4919969522	 0.0471840948	-0.507868
C	-0.0099106839	 0.0029380513	-0.0259213675	 0.323709
N	-0.0128435636	-0.7170510465	-1.1155295492	-0.348881
C	 0.0152097929	-2.0465352485	-0.7011786089	 0.105013
C	 0.025774789	-3.1597876551	-1.5689547063	 0.195436
C	 0.0400355464	-4.1436722971	-2.266638938	-0.42052
C	 0.0251108405	-2.1055126468	 0.6790788485	 0.217304
N	-0.0341676976	-3.1758943817	 1.5698697081	-0.619068
N	 0.0108956107	-0.7995153022	 1.0991881822	-0.317962
H	 0.879925682	 1.8795408801	 0.5508184653	 0.129912
H	-0.0354917663	 1.8867363133	-0.9691891743	 0.161211
H	-0.8886836837	 1.8747563275	 0.5859858345	 0.129873
H	 0.0468493814	-4.9952868107	-2.8999342695	 0.179344
H	-0.0807674812	-4.0486909419	 1.0558948352	 0.261151
H	 0.7560501666	-3.2150207846	 2.206114656	 0.248641
H	-0.0615821757	-0.4985672892	 2.0570596591	 0.262703
104.4575	127.8899	142.6292	204.8155	227.0136	269.4488	327.932	389.0502	461.4398	490.0608	505.4443	537.2147	598.3981	644.118	674.0769	675.7038	729.5793	794.5686	832.1826	984.864	1033.6518	1061.5266	1110.9655	1193.7436	1231.8307	1296.1943	1403.1157	1419.3416	1482.0042	1486.954	1490.6115	1591.4155	1617.4971	1660.0225	2220.838	3026.283	3073.9423	3150.0351	3499.2038	3504.8217	3592.6339	3656.8299
CC1=NC(C#C)=C(N)N1	Cc1nc(C#C)c(N)[nH]1	
InChI=1S/C6H7N3/c1-3-5-6(7)9-4(2)8-5/h1H,7H2,2H3,(H,8,9)	InChI=1S/C6H7N3/c1-3-5-6(7)9-4(2)8-5/h1H,7H2,2H3,(H,8,9)
