19
gdb 41539	2.85918	1.5673	1.10452	2.0262	77.76	-0.2338	0.0122	0.246	1103.3067	0.160963	-422.996035	-422.988315	-422.987371	-423.028386	29.81	
C	 0.1329652517	 1.3997787446	 0.385741617	-0.171363
O	 1.4004642966	 1.4842426494	-0.3174572742	-0.305547
C	 1.2258222267	 0.1543683079	-0.8776321805	 0.011739
C	 2.4097784054	-0.8043328378	-0.657721628	-0.090515
O	 2.0114941215	-2.1157788707	-0.2924747301	-0.248573
C	 0.8790867343	-2.6385733904	-0.971370979	-0.090485
C	-0.3919280558	-2.5172859419	-0.1174639678	-0.244608
C	-0.6916101283	-1.116708899	 0.3494682428	-0.206672
C	 0.009698132	-0.0535423373	-0.0072462456	 0.295093
H	 0.2351646436	 1.6175767677	 1.4561443337	 0.118951
H	-0.6144290317	 2.0803857854	-0.0463624748	 0.109565
H	 0.9904207051	 0.2422925331	-1.9484256912	 0.090685
H	 3.0464053854	-0.83375558	-1.5555117868	 0.089911
H	 3.0089351216	-0.4213092827	 0.1735844257	 0.123001
H	 0.7399428415	-2.1560066151	-1.9485850451	 0.100909
H	 1.0810522562	-3.6983623543	-1.165397528	 0.105558
H	-1.2430698061	-2.9367809783	-0.674171384	 0.103976
H	-0.2735090526	-3.1567371079	 0.7682606584	 0.119592
H	-1.5059695669	-1.0049802828	 1.0632747675	 0.088782
88.7673	128.5206	249.4907	267.9844	313.5183	351.0604	388.4139	433.3532	577.2149	628.9845	745.7426	787.2349	829.5654	857.2417	907.2951	949.9171	958.8144	996.6642	1017.1256	1044.8458	1074.0748	1082.3769	1092.453	1133.3311	1139.6337	1169.0427	1236.7004	1250.6079	1274.7839	1301.9473	1315.0712	1348.8917	1376.8206	1382.3516	1400.935	1412.8983	1466.0947	1504.3816	1510.065	1510.5873	1805.4761	2974.0143	2988.9294	2998.7199	3001.0906	3011.1165	3033.2596	3045.2634	3061.307	3089.0951	3141.6386
C1OC2COCCC=C12	C1O[C@H]2COCCC=C12	
InChI=1S/C7H10O2/c1-2-6-4-9-7(6)5-8-3-1/h2,7H,1,3-5H2	InChI=1S/C7H10O2/c1-2-6-4-9-7(6)5-8-3-1/h2,7H,1,3-5H2/t7-/m0/s1
