13
gdb 6058	5.3725	0.84272	0.79366	3.2733	67.12	-0.2707	-0.0691	0.2016	1392.6312	0.092732	-398.617286	-398.608188	-398.607244	-398.652687	30.	
C	 0.2528321779	 1.420005689	-0.0293256503	-0.481031
C	-0.3565231765	 0.0373888888	 0.0345654418	 0.250242
O	-0.8508665219	-0.4340770877	 1.034622525	-0.265938
C	-0.318728281	-0.7192199779	-1.2094114148	 0.025994
C	-0.2926894986	-1.3490211307	-2.2398754804	 0.037392
C	-0.3249335134	-2.061824307	-3.51357153	 0.273978
N	 0.4530167946	-3.1796088245	-3.5403838252	-0.521121
O	-0.9830190333	-1.663122966	-4.4530672375	-0.323603
H	 1.2969103638	 1.3580803118	-0.3546321554	 0.150528
H	-0.2771751817	 2.0268557523	-0.771450282	 0.15809
H	 0.1919079329	 1.8905467456	 0.9528839915	 0.148793
H	 0.8836771894	-3.5385945498	-2.7055618834	 0.273762
H	 0.4226570679	-3.7561763639	-4.3659960194	 0.272914
27.5705	79.5374	92.4809	124.9879	225.7465	236.1103	276.7361	331.6995	483.2824	555.7691	576.7701	600.3617	620.8951	677.839	770.8328	910.4913	987.5386	1043.8038	1093.2585	1219.7978	1346.3974	1383.5943	1459.2671	1466.5279	1611.792	1774.1914	1779.3585	2315.6571	3040.5127	3105.0001	3154.6655	3596.4764	3735.4838
CC(=O)C#CC(N)=O	CC(=O)C#CC(=O)N	
InChI=1S/C5H5NO2/c1-4(7)2-3-5(6)8/h1H3,(H2,6,8)	InChI=1S/C5H5NO2/c1-4(7)2-3-5(6)8/h1H3,(H2,6,8)
