17
gdb 75102	3.19345	1.32871	0.94537	6.5953	80.59	-0.206	-0.0003	0.2056	1205.6584	0.137708	-418.076795	-418.068293	-418.067349	-418.109552	32.473	
C	 0.1858744816	 1.5706383937	 0.0461039263	-0.473046
C	-0.0051859722	 0.0854902554	-0.0221698032	 0.135704
C	-0.2072469991	-0.5749960271	-1.1819783612	-0.074125
N	-0.398992107	-1.9411249099	-1.2254136262	-0.379141
C	-0.3746959206	-2.6977726378	-0.0828587323	 0.417801
N	-0.5026509023	-4.0731051078	-0.2935221796	-0.587684
H	-1.2832132303	-4.3252453695	-0.8887492345	 0.25023
H	-0.5504340966	-4.5889533839	 0.5744035467	 0.261622
C	-0.1829322379	-2.0977355595	 1.1242311395	-0.325703
H	-0.2021404376	-2.6879625867	 2.0330032879	 0.091336
C	 0.0328570061	-0.6662924222	 1.2515923259	 0.326505
O	 0.215044421	-0.0983066869	 2.3280736869	-0.40451
H	 1.1434100894	 1.8105168193	 0.5198954584	 0.141227
H	 0.1525922928	 2.0334891154	-0.9444398111	 0.100963
H	-0.5834265923	 2.0276638676	 0.6775162018	 0.139858
H	-0.2390295634	-0.0815432439	-2.1468367149	 0.120467
H	-0.3722685316	-2.4143042863	-2.1136343905	 0.258498
119.3364	135.9789	181.8446	275.3355	280.4041	320.7634	343.9777	412.3613	444.0679	472.9325	526.0303	583.6918	637.9548	734.7534	738.8374	763.5002	788.6866	855.5221	876.7535	957.19	1026.3735	1064.3502	1127.5106	1158.8249	1214.9512	1243.5936	1282.3677	1388.6927	1407.5771	1413.2634	1464.072	1487.2184	1551.3	1635.5158	1665.1118	1699.6299	1718.5448	3034.6842	3092.0478	3112.8519	3191.3225	3199.4784	3531.8925	3636.4257	3649.3381
CC1=CNC(=[NH2+])[CH-]C1=O	Cc1c[nH]c(N)cc1=O	
InChI=1S/C6H7N2O/c1-4-3-8-6(7)2-5(4)9/h2-3H,1H3,(H2,7,8)/q-1/p+1	InChI=1S/C6H8N2O/c1-4-3-8-6(7)2-5(4)9/h2-3H,1H3,(H3,7,8,9)
