20
gdb 86593	3.52084	1.10759	0.91393	3.3112	81.51	-0.2351	0.0349	0.27	1331.7287	0.170925	-403.160755	-403.151647	-403.150703	-403.195458	33.243	
C	-0.2258139997	 1.5373188734	-0.155207002	-0.401948
C	 0.0066588397	 0.0575228503	 0.1186650468	-0.131255
C	 0.6846860011	-0.7995990899	-0.9925454767	-0.189105
N	 1.7872149044	-1.0423095762	-0.0539686955	-0.079843
C	 2.990908092	-1.7815452883	-0.2070597319	 0.026074
C	 3.5823590554	-2.4428955389	 1.0072470373	-0.265095
C	 2.959933707	-3.2905573982	-0.0713304985	-0.273909
C	 1.2548660994	-0.2847356485	 0.9692702962	 0.405301
O	 1.644155651	-0.0209983382	 2.0780563193	-0.384007
H	 0.6680436515	 2.0053511126	-0.5811843011	 0.12196
H	-1.0543982257	 1.6876186927	-0.854579792	 0.118445
H	-0.4653581407	 2.061493652	 0.7746369501	 0.139116
H	-0.8954253897	-0.4124635924	 0.5215911799	 0.09957
H	 0.148656526	-1.7062375101	-1.2935836157	 0.107661
H	 0.9824435001	-0.2398422888	-1.8871541448	 0.106069
H	 3.6833253049	-1.3691586448	-0.9387418381	 0.095704
H	 4.6620693593	-2.4325687472	 1.1003163758	 0.120262
H	 3.0481582398	-2.3185484919	 1.9402064921	 0.150968
H	 1.9990495933	-3.7465782938	 0.1386082646	 0.118332
H	 3.6071778209	-3.8701298238	-0.7199494659	 0.115698
49.3699	72.6385	129.4979	159.9273	211.4575	230.3124	332.4521	385.0262	421.6447	519.4611	619.6087	728.4541	759.4788	781.974	828.1783	850.7861	882.6371	929.5106	945.6935	972.5289	1058.4995	1067.8815	1079.0725	1105.2718	1113.8574	1130.2489	1148.8474	1160.9051	1179.0322	1195.6513	1217.9874	1239.8411	1278.7175	1351.4989	1401.6384	1407.5907	1431.1736	1466.2265	1495.3869	1496.4637	1501.8027	1526.6053	1865.3385	3025.4916	3035.1776	3064.4564	3076.371	3104.1808	3112.5667	3113.2276	3138.5748	3154.1928	3224.8565	3247.9996
CC1CN(C2CC2)C1=O	C[C@H]1CN(C2CC2)C1=O	
InChI=1S/C7H11NO/c1-5-4-8(7(5)9)6-2-3-6/h5-6H,2-4H2,1H3	InChI=1S/C7H11NO/c1-5-4-8(7(5)9)6-2-3-6/h5-6H,2-4H2,1H3/t5-/m0/s1
