19
gdb 55787	4.38997	0.93056	0.78653	3.3527	81.95	-0.2011	0.026	0.2271	1444.9134	0.161258	-419.269242	-419.260353	-419.259408	-419.303481	33.286	
N	-2.1678120611	 1.3926132344	-0.1369046813	-0.567422
C	-2.416224081	 0.0486082362	 0.129819372	 0.443592
O	-3.5023038157	-0.3558013657	 0.491923256	-0.376358
N	-1.2881890614	-0.7399743715	-0.0181561078	-0.453529
C	-1.1981610304	-2.1195121739	 0.1837573673	 0.445338
C	-0.049733166	-2.8057685928	 0.239576403	-0.226395
C	-0.2856265542	-4.2752501237	 0.4832991607	-0.233882
C	-1.8086578186	-4.4289846221	 0.2326473105	-0.217716
C	-2.4088048456	-3.0077040861	 0.3681578128	-0.273607
H	-3.0214323995	 1.9265286811	-0.2021967692	 0.263063
H	-1.494793217	 1.6157026122	-0.8552234471	 0.24793
H	-0.4087215133	-0.2581180949	-0.1252622406	 0.24453
H	 0.9399576652	-2.3663258489	 0.1701814784	 0.067653
H	 0.3068877185	-4.9209411909	-0.1757790355	 0.095346
H	-0.0110448951	-4.5566815362	 1.5108738679	 0.099029
H	-1.9715191007	-4.7944417289	-0.7862237471	 0.102603
H	-2.2790624628	-5.1456966268	 0.9104099766	 0.096011
H	-2.8616675412	-2.8293612305	 1.3494302253	 0.124534
H	-3.1952224698	-2.8025015209	-0.3613464219	 0.11928
49.1989	86.15	145.1687	169.0015	251.1085	355.2643	373.6476	383.7769	492.4446	538.4123	557.1301	601.7819	655.8225	745.9708	775.5062	807.06	821.725	875.1712	904.2375	918.255	972.5366	1015.8256	1054.8543	1068.4549	1096.9998	1155.9584	1204.5742	1228.065	1267.5119	1287.3476	1312.8362	1326.4771	1334.344	1389.8633	1478.0885	1492.3357	1510.6922	1531.2915	1627.082	1718.0311	1810.83	2992.3857	3036.708	3053.6232	3055.8584	3095.0777	3107.7124	3178.3639	3571.474	3616.5982	3685.3401
NC(=O)NC1=CCCC1	NC(=O)NC1=CCCC1	
InChI=1S/C6H10N2O/c7-6(9)8-5-3-1-2-4-5/h3H,1-2,4H2,(H3,7,8,9)	InChI=1S/C6H10N2O/c7-6(9)8-5-3-1-2-4-5/h3H,1-2,4H2,(H3,7,8,9)
