19
gdb 39616	2.40639	1.6388	1.08111	0.7491	89.41	-0.2286	0.0024	0.2311	1143.9031	0.160667	-348.721526	-348.713294	-348.71235	-348.754049	32.009	
C	 0.1134675399	 1.6128017303	 0.2164008044	-0.248919
C	 1.6496519969	 1.8884692176	 0.0853582059	-0.324508
C	 2.0192452927	 1.4594788456	-1.2542521679	-0.045079
C	 1.8697465609	 0.9487917628	-2.3340771547	 0.175806
C	 1.3364012645	 0.3205608575	-3.531610484	-0.400019
C	-0.1795412694	 0.1796963763	-3.4333396567	-0.042971
C	-0.9362606221	-0.1296137305	-2.3742224954	-0.090163
C	-0.6036915054	-0.5352520148	-0.9880848038	-0.086609
C	-0.2208509037	 0.1546786105	 0.0925793724	-0.024199
H	-0.2275030866	 1.9862836758	 1.1896807241	 0.096693
H	-0.3914832933	 2.1925594257	-0.5618606905	 0.115847
H	 1.8444650176	 2.953702057	 0.2539083767	 0.121454
H	 2.2044331626	 1.3391519604	 0.8559030182	 0.121686
H	 1.5788518306	 0.9054400209	-4.4273534505	 0.128729
H	 1.7890546336	-0.6683316704	-3.6971099363	 0.137649
H	-0.6991855871	 0.3317523873	-4.3773049663	 0.090324
H	-2.0021298868	-0.2349986342	-2.590190086	 0.097646
H	-0.8188133218	-1.5931967582	-0.8188019589	 0.093947
H	-0.102965693	-0.4190640496	 1.0112474092	 0.082685
97.2418	171.3182	196.3932	230.7648	257.4506	354.5725	382.849	423.6351	482.2946	561.4989	583.7916	691.7803	708.3439	782.2834	801.2315	846.968	871.9833	934.3792	947.0225	974.4761	993.256	1011.2747	1016.6878	1072.4472	1164.0891	1188.0193	1211.167	1218.155	1269.9744	1299.5364	1326.5766	1342.0157	1347.247	1406.3991	1439.0512	1467.1009	1477.7548	1483.9846	1693.2307	1724.1518	2359.9418	2999.457	3027.4278	3033.204	3040.1392	3062.8855	3083.7596	3090.0886	3093.7574	3134.9113	3146.7617
C1CC#CCC=CC=C1	C1CC#CCC=CC=C1	
InChI=1S/C9H10/c1-2-4-6-8-9-7-5-3-1/h1-4H,5-7H2/b3-1-,4-2-	InChI=1S/C9H10/c1-2-4-6-8-9-7-5-3-1/h1-4H,5-7H2/b3-1-,4-2-
