19
gdb 45784	2.77239	1.43271	1.0754	2.703	82.54	-0.228	-0.0112	0.2168	1151.7529	0.159938	-385.914743	-385.906775	-385.90583	-385.947479	31.338	
O	 0.0116879977	-0.0839706664	 0.0528834549	-0.309358
C	-0.0231146249	 1.1194242751	-0.0449269054	 0.381625
C	-1.3372275948	 1.8915979463	-0.1152389471	-0.360109
C	-1.2465401015	 3.1594253841	-0.9252397855	-0.090908
C	-0.1106481626	 3.6168248385	-1.4537936729	-0.109915
C	 1.2028740179	 2.9574167922	-1.25670298	 0.335635
C	 2.0331796166	 2.636788526	-2.4918362724	-0.297731
C	 2.4652726998	 3.7354024838	-1.5618163912	-0.321038
C	 1.2283567372	 1.9833776891	-0.0823772737	-0.391263
H	-2.1050294236	 1.2155376923	-0.5074998895	 0.134841
H	-1.644484559	 2.1172023576	 0.9185274099	 0.133704
H	-2.1765736712	 3.6946173999	-1.0966079742	 0.094385
H	-0.1218266341	 4.516050736	-2.065683235	 0.088588
H	 2.5936503549	 1.7079637251	-2.4888752973	 0.123939
H	 1.6271149094	 2.909833893	-3.4594916482	 0.11783
H	 2.3579753115	 4.7631180423	-1.8931804917	 0.116147
H	 3.3269665896	 3.5606329964	-0.9260875588	 0.116329
H	 1.2500590197	 2.5621462211	 0.8531214376	 0.120512
H	 2.1070084475	 1.3345861175	-0.0998986997	 0.116787
80.4638	83.2531	250.3366	278.9043	340.1786	398.4771	410.2134	481.1987	510.9026	580.5381	641.4248	725.2142	767.0602	783.4894	816.9376	881.6696	927.1035	940.0299	945.9364	974.5009	982.7176	997.0175	1030.8328	1059.2583	1079.8213	1126.6756	1179.6817	1190.6027	1208.3487	1237.4081	1279.0061	1322.5297	1335.1193	1341.3608	1427.7035	1442.6681	1461.0998	1470.3991	1498.7627	1716.7881	1822.9683	2991.2017	3004.8974	3066.0032	3105.9532	3127.4302	3133.6614	3144.9068	3169.9828	3207.8401	3224.0278
O=C1CC=CC2(CC2)C1	O=C1CC=CC2(CC2)C1	
InChI=1S/C8H10O/c9-7-2-1-3-8(6-7)4-5-8/h1,3H,2,4-6H2	InChI=1S/C8H10O/c9-7-2-1-3-8(6-7)4-5-8/h1,3H,2,4-6H2
