23
gdb 121560	6.22198	0.38175	0.3736	1.2755	93.32	-0.2397	0.0632	0.3028	2970.6533	0.203257	-388.270203	-388.258404	-388.25746	-388.310365	40.195	
C	-0.0796403899	 1.495476785	-0.3819325845	-0.381287
C	-0.1682076943	-0.0316904712	-0.3652256357	-0.151941
C	-1.2585788521	-0.5471280023	 0.5962036392	-0.335464
C	-1.3610959252	-2.0021891651	 0.6276632477	 0.080188
C	-1.4187861413	-3.2055050194	 0.638899803	 0.063005
C	-1.5217463367	-4.6608355892	 0.6424885328	-0.358633
C	-2.7107683309	-5.1842202484	-0.1855016314	-0.153678
C	-2.8005202035	-6.7042465743	-0.1687503093	-0.073933
O	-3.9193119622	-7.0829359566	-0.9548023539	-0.422066
H	 0.6990112287	 1.8394243468	-1.0694096056	 0.11339
H	-1.0268976416	 1.945245312	-0.7001850256	 0.115151
H	 0.1559718909	 1.8910925544	 0.6125024328	 0.11468
H	-0.3785035453	-0.4087698546	-1.3723468248	 0.107478
H	 0.7952481531	-0.4624992458	-0.0703573268	 0.106772
H	-1.0548988832	-0.1694373272	 1.6077560997	 0.121571
H	-2.2268727925	-0.1159762415	 0.3067605684	 0.122658
H	-0.5891439633	-5.0949982968	 0.2560967934	 0.123252
H	-1.6116477877	-5.0194951292	 1.6773034946	 0.123457
H	-3.645194662	-4.7669454338	 0.203573644	 0.116795
H	-2.6189240349	-4.8432356257	-1.2218242562	 0.116334
H	-1.8673887144	-7.1368224086	-0.5673109807	 0.083419
H	-2.9035082753	-7.0597568192	 0.8703201446	 0.083557
H	-3.9820073565	-8.0423472395	-0.9470293457	 0.285297
9.3046	57.0531	61.5273	103.5153	108.0045	120.032	232.3156	240.4397	259.4376	278.2342	288.1402	361.0528	409.2401	500.3912	528.9564	742.9322	755.6089	794.4545	865.3539	872.4123	894.7482	1019.2176	1026.813	1042.6041	1084.0391	1107.4546	1115.3505	1124.1902	1166.2034	1212.661	1230.7879	1259.2523	1299.5174	1304.0188	1307.634	1311.045	1321.3225	1375.0279	1382.3281	1412.3156	1464.5073	1473.8104	1476.6092	1491.8716	1498.9271	1499.2701	1509.0027	1528.3107	2368.1514	2952.5353	2977.1726	3003.8983	3005.3081	3028.5455	3029.7644	3031.1102	3039.7859	3052.9222	3071.3991	3098.4742	3098.7086	3104.0375	3830.448
CCCC#CCCCO	CCCC#CCCCO	
InChI=1S/C8H14O/c1-2-3-4-5-6-7-8-9/h9H,2-3,6-8H2,1H3	InChI=1S/C8H14O/c1-2-3-4-5-6-7-8-9/h9H,2-3,6-8H2,1H3
