22
gdb 119485	3.93726	0.92506	0.86171	1.6964	85.91	-0.2161	0.0716	0.2877	1461.8999	0.193892	-367.12992	-367.121051	-367.120106	-367.163818	34.388	
C	-0.0714014533	 1.5911930565	 0.0463348901	-0.381858
C	-0.1292327334	 0.0625236638	 0.0962853207	-0.156054
C	 0.8250711328	-0.5413160974	 1.1389660646	-0.30853
C	 0.7902221526	-2.0429454693	 1.1731967107	 0.371346
C	-0.1934527088	-2.8631987168	 1.9680740013	-0.358244
C	 1.2856700123	-3.038385053	 2.196215416	-0.078301
N	 2.0799866115	-3.8316334628	 1.1732252836	-0.140297
C	 1.1887613426	-4.3498306774	 0.1163637748	-0.250229
C	 1.5242195018	-2.9107629844	 0.1206451898	-0.087445
H	 0.9359497877	 1.942154551	-0.2041737125	 0.114404
H	-0.7596413786	 1.9928562865	-0.7038355801	 0.111863
H	-0.3410069675	 2.0294804094	 1.0139000908	 0.113514
H	-1.1526296063	-0.2648323584	 0.3179046141	 0.099018
H	 0.1118609196	-0.3473986292	-0.8932259517	 0.099041
H	 1.8503783668	-0.2040261538	 0.9298771904	 0.098044
H	 0.5727713715	-0.1516943997	 2.1339181169	 0.094679
H	-0.669016088	-2.3044518845	 2.7698734349	 0.113744
H	-0.8419751933	-3.6183265697	 1.5380837796	 0.111021
H	 1.7522317188	-2.8912524697	 3.1625548102	 0.100867
H	 1.7296857983	-4.9723248927	-0.5914103743	 0.12103
H	 0.1957892696	-4.7150793406	 0.3504019708	 0.118756
H	 2.1852534534	-2.4654045778	-0.6179488507	 0.093632
73.7242	87.5584	111.7257	243.5833	264.3998	297.7819	329.3863	402.2144	466.2826	530.9892	667.5447	688.7437	743.0342	755.9723	802.5312	841.3767	872.5354	896.9815	906.0477	945.5548	984.7837	999.6233	1015.4302	1043.2659	1047.953	1062.5426	1069.5407	1100.2961	1111.8348	1130.9756	1140.0783	1214.327	1226.1661	1251.779	1279.0889	1306.2167	1325.9632	1347.1456	1384.9154	1410.5199	1413.4752	1477.4006	1483.3537	1492.4269	1499.7708	1509.4571	1522.1222	3002.7532	3020.7695	3028.886	3036.9793	3059.3491	3095.3982	3101.9164	3118.5118	3130.015	3144.5188	3183.1058	3196.7354	3211.3416
CCCC12CC1N1CC21	CCC[C@]12C[C@H]1N1C[C@@H]21	
InChI=1S/C8H13N/c1-2-3-8-4-6(8)9-5-7(8)9/h6-7H,2-5H2,1H3	InChI=1S/C8H13N/c1-2-3-8-4-6(8)9-5-7(8)9/h6-7H,2-5H2,1H3/t6-,7+,8+,9?/m1/s1
