23
gdb 95963	2.45095	1.47082	1.2138	1.4992	84.14	-0.2544	0.0638	0.3182	1161.8237	0.207365	-388.295046	-388.286164	-388.28522	-388.328814	34.743	
O	 0.0210297198	 1.6419986722	 0.4128762323	-0.440231
C	-0.0540247091	 0.2623060658	 0.0599878115	 0.089309
C	 0.7206141349	-0.6476262156	 1.0518795609	-0.241197
C	-0.35106909	-1.364594439	 1.920688309	-0.20567
C	-1.6798509567	-0.6696075263	 1.5636077404	-0.304329
C	-1.5016315233	-0.2800999022	 0.0941573546	 0.355303
C	-2.5536940135	 0.5966248704	-0.633324319	-0.292831
C	-2.458840029	-0.3434061688	-1.8659770965	-0.20913
C	-1.7414589927	-1.3945742757	-0.9766792093	-0.267544
H	-0.3223956369	 1.7437230996	 1.3069468589	 0.275518
H	 0.3687866707	 0.2245846922	-0.9481163316	 0.076353
H	 1.3478552581	-1.3689107701	 0.5206075134	 0.10233
H	 1.3957573586	-0.0234610088	 1.6442209576	 0.103661
H	-0.4076950316	-2.4240623594	 1.6509707955	 0.103824
H	-0.125873691	-1.3247176714	 2.9897898688	 0.09551
H	-2.5582046589	-1.3000983647	 1.7320836965	 0.092586
H	-1.8225559782	 0.2329676724	 2.1764584125	 0.082273
H	-3.5333850445	 0.5446408244	-0.1480888094	 0.090341
H	-2.283532311	 1.6456005392	-0.7707795735	 0.109011
H	-3.3967379967	-0.649813057	-2.3345915993	 0.094637
H	-1.8047526987	 0.0591435768	-2.6440052429	 0.10479
H	-0.8582613133	-1.8884197274	-1.3934722586	 0.092267
H	-2.4262528273	-2.1671751464	-0.6130500515	 0.093218
54.4638	107.142	137.6671	217.9657	279.4818	299.972	325.2649	413.2088	465.8413	513.2294	631.3713	675.8599	751.8751	787.8328	798.6994	849.6986	874.8489	885.9091	900.2559	942.1684	956.0132	968.0118	984.1472	1025.3683	1041.223	1068.2281	1113.9075	1128.0817	1162.3216	1204.1433	1207.3768	1215.8445	1239.4592	1256.4761	1263.5458	1275.1652	1285.4008	1297.3123	1304.8665	1320.0435	1337.3865	1356.9769	1432.5556	1476.1924	1481.6253	1483.6362	1492.4799	1506.2607	1509.17	2996.0581	3040.6477	3047.1799	3052.8773	3057.2115	3061.5655	3068.3618	3077.4032	3084.7991	3087.5481	3105.4202	3107.3496	3120.7461	3809.6187
OC1CCCC11CCC1	O[C@H]1CCCC21CCC2	
InChI=1S/C8H14O/c9-7-3-1-4-8(7)5-2-6-8/h7,9H,1-6H2	InChI=1S/C8H14O/c9-7-3-1-4-8(7)5-2-6-8/h7,9H,1-6H2/t7-/m0/s1
