18
gdb 82107	3.05107	1.28183	1.05484	2.3619	71.32	-0.2442	0.0685	0.3127	1154.2955	0.148211	-439.00522	-438.997265	-438.996321	-439.038362	30.389	
O	 0.3585654661	 1.41826328	 0.1675345144	-0.431865
C	 0.1295896772	 0.0431016581	 0.0519565753	 0.123257
C	 0.3423057396	-0.789846219	 1.3241076845	-0.088775
N	-0.612943869	-0.1897408473	 2.2910547168	-0.359441
C	-1.0798664	-1.2220685509	 1.3288936415	-0.064001
C	-1.3775255161	-0.4806427311	 0.0209013573	-0.077876
C	-2.488838891	 0.5280063187	 0.0151433137	 0.096114
C	-3.1191845375	 0.9760642484	-1.2311954681	-0.178666
O	-3.7822528408	 0.0421635115	-0.3789535331	-0.246871
H	 0.0390491352	 1.6583268951	 1.0485449808	 0.292484
H	 0.6954722343	-0.3125154165	-0.811278438	 0.092468
H	 1.2384171782	-1.2911432753	 1.668030046	 0.098309
H	-0.4699285403	-0.6422071011	 3.1918155181	 0.237269
H	-1.5172494088	-2.1465793585	 1.6837352205	 0.103232
H	-1.5164950037	-1.1795576636	-0.8085980241	 0.081403
H	-2.5159114377	 1.1997852125	 0.8712338926	 0.100476
H	-3.5676766595	 1.9670578289	-1.2842056308	 0.114066
H	-2.7713025462	 0.5755580201	-2.1831107574	 0.108418
54.9452	121.785	151.7363	236.4475	311.7901	338.277	500.8834	515.6974	556.8781	639.8574	708.43	802.8341	834.4462	847.7711	865.5298	888.3633	913.78	938.2689	964.2762	1013.3315	1033.9232	1083.351	1099.2511	1104.0513	1138.0191	1150.3882	1161.3716	1174.5934	1185.6841	1222.9527	1257.6805	1292.704	1302.4219	1318.9882	1333.1402	1374.841	1446.4934	1457.7099	1531.0277	3073.4419	3080.3169	3098.6111	3129.8159	3166.161	3188.7354	3202.9033	3495.8124	3747.313
OC1C2NC2C1C1CO1	O[C@H]1[C@H]2N[C@H]2[C@H]1[C@H]1CO1	
InChI=1S/C6H9NO2/c8-6-3(2-1-9-2)4-5(6)7-4/h2-8H,1H2	InChI=1S/C6H9NO2/c8-6-3(2-1-9-2)4-5(6)7-4/h2-8H,1H2/t2-,3-,4+,5+,6-/m1/s1
