16
gdb 126788	4.64361	1.09209	0.95252	3.6673	80.32	-0.2375	-0.0685	0.169	1233.3804	0.124804	-430.197067	-430.188834	-430.18789	-430.231165	29.534	
C	 0.0981567557	 1.5486108392	-0.0082893492	-0.381801
C	-0.0046989573	 0.0275348389	 0.0863636403	-0.12398
N	 0.7167511244	-0.5111761888	 1.2396185409	 0.09574
N	 2.067296037	-0.5163013711	 1.1711229635	-0.188496
C	 2.6767590521	-0.9494381906	 2.2228324927	 0.024295
C	 1.9707116518	-1.4029122711	 3.4095388843	 0.332914
N	 2.5910703634	-1.8686545269	 4.4237374085	-0.511222
N	 0.5529015945	-1.2823583384	 3.3608748528	-0.264322
N	-0.0132683695	-0.8543745969	 2.3110227718	-0.05966
H	 1.1433452373	 1.8597230008	-0.0835283805	 0.144784
H	-0.4316202742	 1.9008471151	-0.8980374984	 0.130193
H	-0.347743765	 2.0238848354	 0.8700361014	 0.137719
H	-1.0396009184	-0.29639298	 0.2051545595	 0.147013
H	 0.4132190355	-0.4481002223	-0.8049147959	 0.136653
H	 3.7618974566	-0.967182222	 2.1998092827	 0.152766
H	 1.9102879062	-2.1229995513	 5.1443302953	 0.227404
46.5819	50.2862	123.1065	218.5162	339.336	378.9362	438.3532	445.0221	473.7394	530.6239	677.1225	747.4864	765.6706	793.8613	818.1919	909.19	959.2027	975.2471	1003.4018	1017.5015	1102.3384	1123.1283	1211.799	1301.1971	1322.5612	1341.6847	1386.7838	1399.4286	1409.339	1472.6471	1489.4413	1502.4897	1506.7114	1636.7996	1714.5846	3047.5533	3074.1897	3121.4673	3124.6046	3146.0222	3188.8448	3447.8224
CCN1N=CC(=N)N=N1	CCn1ncc([NH])nn1	
InChI=1S/C4H7N5/c1-2-9-6-3-4(5)7-8-9/h3,5H,2H2,1H3	InChI=1S/C4H12N5/c1-2-9-6-3-4(5)7-8-9/h4-8H,2-3H2,1H3
