17
gdb 69055	3.43267	1.04915	0.94355	2.4611	70.33	-0.2467	-0.0047	0.242	1264.3438	0.133365	-458.938729	-458.929975	-458.929031	-458.972682	31.613	
C	 0.003955623	 1.4717368367	 0.110711368	-0.485021
C	 0.0756007465	-0.0179207428	 0.099996855	 0.387703
C	-0.7125071395	-0.9706208358	 0.9674321579	-0.391998
C	 0.7987079177	-1.0584730224	 0.9166281392	 0.282845
C	 1.2467337974	-1.6408272926	-0.4152742885	-0.140555
O	 0.4303530621	-0.6731294998	-1.1289797139	-0.315881
O	 1.6398103346	-0.9042062592	 2.0174593691	-0.225024
C	 1.4769506534	-1.7738169592	 3.0490593705	 0.153913
O	 2.1659130159	-1.7412542017	 4.0205442733	-0.263421
H	 0.9267412786	 1.905432533	-0.2850385382	 0.138852
H	-0.8320761239	 1.8193933086	-0.5055748883	 0.139162
H	-0.1476979198	 1.8390718722	 1.1292638871	 0.134893
H	-1.0983953622	-0.5262329152	 1.8802322986	 0.129965
H	-1.3344494633	-1.7432023548	 0.5230606327	 0.123458
H	 2.3113928288	-1.4759758928	-0.6130452741	 0.126049
H	 0.9725347225	-2.6763073652	-0.6466896389	 0.111442
H	 0.6480485683	-2.483467919	 2.8766851305	 0.093617
62.2255	120.7773	140.4614	177.2088	220.8872	262.3734	370.8681	388.5075	429.5279	467.9272	540.3661	662.4844	752.4337	840.6175	872.4609	921.4072	957.9976	971.4919	985.5469	1046.4656	1053.0754	1064.9634	1109.0723	1140.1563	1150.1355	1186.7576	1234.6581	1273.1671	1343.1928	1395.3535	1414.3597	1427.1071	1471.5886	1487.7593	1503.3707	1523.3686	1874.1808	2983.6617	3031.4271	3040.1923	3086.9653	3107.011	3113.0333	3124.908	3209.0102
CC12CC1(CO2)OC=O	C[C@]12C[C@]1(CO2)OC=O	
InChI=1S/C6H8O3/c1-5-2-6(5,3-8-5)9-4-7/h4H,2-3H2,1H3	InChI=1S/C6H8O3/c1-5-2-6(5,3-8-5)9-4-7/h4H,2-3H2,1H3/t5-,6+/m0/s1
