19
gdb 103350	2.91303	1.43443	1.15117	1.8752	71.99	-0.2398	0.0554	0.2952	1110.8608	0.156192	-460.066218	-460.057007	-460.056063	-460.09998	34.49	
C	 0.0783457149	 1.2367257347	-0.343169213	-0.246568
O	-0.1527593722	 0.048852412	 0.3809259296	-0.28261
C	-1.4240516017	-0.5349770534	 0.2091171987	 0.453409
C	-2.3616096227	-0.0020189595	 1.2815929945	-0.487849
C	-1.8807879845	-0.7765341464	-1.2771662629	-0.062921
O	-0.7177970645	-1.6748668466	-1.4390661232	-0.305124
C	-1.2958329409	-2.0522872907	-0.130089741	-0.069272
C	-2.6722162635	-2.0447397941	-0.8772930192	 0.114202
O	-3.9207564873	-1.9354653522	-0.2549596426	-0.423083
H	 1.0330897762	 1.6394266275	 0.0043573395	 0.125297
H	 0.1509371561	 1.045282826	-1.4224177988	 0.116818
H	-0.700227295	 1.9945988583	-0.1690657934	 0.100196
H	-2.4640380448	 1.0833350136	 1.1743055626	 0.11601
H	-3.3509641436	-0.4512963926	 1.2403970408	 0.149505
H	-1.9146265062	-0.1913923979	 2.2624193504	 0.123215
H	-2.0860158231	-0.065900259	-2.0785946673	 0.093506
H	-0.7931739501	-2.8404995439	 0.4316629779	 0.092432
H	-2.6713995806	-2.7724883414	-1.6938679066	 0.099201
H	-4.2749194865	-2.8219786543	-0.1365741359	 0.293637
66.6656	141.5122	182.1745	192.512	225.3156	264.1451	284.335	346.7992	391.3279	411.7414	475.6372	584.375	647.2716	662.3722	777.674	831.3816	868.2331	885.2172	908.5112	939.069	1063.6826	1097.3175	1101.8208	1130.1743	1136.5386	1147.9685	1171.2699	1188.961	1213.1666	1217.0734	1235.8374	1253.8988	1279.2958	1327.0178	1407.5634	1434.5149	1479.7635	1487.1961	1494.6505	1501.3517	1510.0068	2984.3912	3040.2203	3045.5127	3071.5983	3101.4244	3110.4978	3113.4833	3119.3623	3180.9229	3827.7653
COC1(C)C2OC1C2O	CO[C@@]1(C)[C@H]2O[C@@H]1[C@H]2O	
InChI=1S/C6H10O3/c1-6(8-2)4-3(7)5(6)9-4/h3-5,7H,1-2H3	InChI=1S/C6H10O3/c1-6(8-2)4-3(7)5(6)9-4/h3-5,7H,1-2H3/t3-,4-,5+,6-
