19
gdb 114228	4.66707	0.91596	0.83833	1.5357	78.52	-0.2392	0.0111	0.2504	1384.9911	0.159	-423.010451	-423.001838	-423.000894	-423.044327	32.438	
O	 0.1158040153	 1.3555282257	 0.2002326745	-0.42329
C	 0.0458109635	-0.0546206661	 0.0529298447	-0.084163
C	-1.4303440839	-0.4442302982	-0.0161232815	-0.034679
C	-1.6544584478	-1.9664709702	-0.2215976217	-0.353159
C	-2.722266123	-2.3618727464	 0.8046898138	 0.436595
C	-3.7725138844	-3.3649239715	 0.5655430481	-0.249596
O	-2.6473644067	-3.672203404	 1.3900892304	-0.282479
C	-2.8886627538	-1.1873486014	 1.6992175197	-0.157289
C	-2.1890212999	-0.1426483436	 1.2587245038	-0.070364
H	 1.0381253372	 1.6041039861	 0.3089352812	 0.288682
H	 0.5567026149	-0.3869997991	-0.8653871765	 0.087204
H	 0.5189207852	-0.572259897	 0.90288478	 0.090162
H	-1.8672955596	 0.1283643141	-0.8455015288	 0.092097
H	-1.9427923017	-2.2149757444	-1.2455084767	 0.107459
H	-0.741022249	-2.5278280658	 0.0050673224	 0.119137
H	-4.7287349262	-3.290118437	 1.0838938204	 0.109575
H	-3.8082806818	-3.8820311065	-0.3936905232	 0.10936
H	-3.5165715154	-1.2217321759	 2.5817444609	 0.101651
H	-2.147180913	 0.8360356511	 1.7207557186	 0.113098
37.9552	120.0322	187.9795	221.1457	258.7274	310.2487	339.632	390.2323	417.4257	557.0239	579.2294	707.3097	783.9295	817.7384	823.656	853.282	909.7954	915.1573	977.254	984.4053	1021.6611	1067.6444	1082.901	1099.0717	1128.3181	1129.8897	1161.0933	1188.0099	1237.6246	1243.4248	1260.2397	1286.695	1315.2283	1331.1884	1362.4436	1425.985	1453.4512	1483.2712	1520.9522	1527.1279	1677.698	2962.0675	2991.5498	3018.1733	3048.2483	3068.2919	3101.8844	3153.3999	3197.3038	3223.0058	3833.1142
OCC1CC2(CO2)C=C1	OC[C@H]1C[C@]2(CO2)C=C1	
InChI=1S/C7H10O2/c8-4-6-1-2-7(3-6)5-9-7/h1-2,6,8H,3-5H2	InChI=1S/C7H10O2/c8-4-6-1-2-7(3-6)5-9-7/h1-2,6,8H,3-5H2/t6-,7+/m1/s1
