27
gdb 100758	2.67363	0.87863	0.79068	1.389	92.27	-0.2587	0.0674	0.3261	1668.3216	0.249294	-390.706522	-390.694452	-390.693508	-390.743478	44.665	
C	-0.1601572116	 1.526720267	 0.1792077963	-0.393221
C	 0.0777994348	 0.0174566136	 0.0721341432	-0.169512
C	 0.7555257344	-0.4360947666	-1.2383410771	 0.011254
C	 2.2291411085	-0.0049807463	-1.2865844722	-0.408588
C	 0.5824117889	-1.9632305806	-1.4174718539	 0.128936
O	-0.8027445541	-2.3200553687	-1.4143063718	-0.437696
C	 1.3050093931	-2.5880563267	-2.6355442386	 0.021171
C	 1.183774552	-4.118080113	-2.5925930116	-0.390336
C	 0.7978319376	-2.039163426	-3.978163299	-0.406986
H	 0.7722575495	 2.1000463976	 0.1552460389	 0.114301
H	-0.7897157851	 1.8868857035	-0.6427980636	 0.109399
H	-0.6690874658	 1.7745668177	 1.1161415502	 0.112295
H	 0.6911809617	-0.3195169838	 0.9196593114	 0.087672
H	-0.8787828495	-0.5057239391	 0.1593854353	 0.111814
H	 0.2274204528	 0.0547517647	-2.0715483991	 0.057135
H	 2.822702297	-0.5653591678	-0.5540197968	 0.114375
H	 2.6779912456	-0.1622963221	-2.2708947866	 0.117183
H	 2.3346948779	 1.0574267561	-1.0500116402	 0.114757
H	 0.9827504427	-2.4499858396	-0.5170749798	 0.078257
H	-1.2252998812	-1.8497231404	-2.1410275193	 0.277305
H	 2.3683803062	-2.335470788	-2.5462563958	 0.075419
H	 0.1335724866	-4.4216690588	-2.6230349476	 0.126361
H	 1.7019680203	-4.5775828563	-3.4405498551	 0.10248
H	 1.6194620812	-4.5235462693	-1.673076248	 0.107329
H	-0.2638707645	-2.270084648	-4.1286956164	 0.106889
H	 0.9236051965	-0.9551249705	-4.0613083924	 0.115418
H	 1.3413779945	-2.4982671885	-4.8096916003	 0.116588
66.6443	74.164	95.7184	158.1596	201.2997	218.0058	226.9832	239.1421	276.0026	284.3246	303.7495	312.7457	322.4306	385.3231	423.9178	460.6908	528.4092	620.8624	778.3098	798.2338	843.7237	892.7514	927.1678	964.1097	966.4851	986.1558	994.7947	1018.4483	1054.7455	1087.5787	1108.8242	1134.156	1175.5658	1186.5415	1202.9734	1251.542	1284.5551	1308.0705	1337.7469	1355.0007	1366.0104	1373.8782	1388.504	1397.8487	1406.9681	1415.2763	1417.4369	1425.2147	1486.2796	1489.8019	1493.7491	1496.5166	1500.7215	1507.494	1509.3878	1512.5836	1515.0984	2973.4561	3010.4108	3018.0459	3027.1468	3029.6466	3031.3677	3033.9121	3038.0825	3078.5851	3090.8311	3095.7644	3096.6718	3098.9337	3104.2291	3104.8886	3113.4459	3116.987	3806.3914
CCC(C)C(O)C(C)C	CC[C@@H](C)[C@@H](O)C(C)C	
InChI=1S/C8H18O/c1-5-7(4)8(9)6(2)3/h6-9H,5H2,1-4H3	InChI=1S/C8H18O/c1-5-7(4)8(9)6(2)3/h6-9H,5H2,1-4H3/t7-,8+/m1/s1
