23
gdb 70438	2.81961	1.20643	1.00439	0.2479	89.94	-0.2409	0.0884	0.3293	1307.8599	0.206146	-351.119124	-351.110202	-351.109258	-351.152701	35.126	
C	-0.0296195365	 1.5069263871	-0.097891988	-0.499458
C	 0.0413203021	 0.0091856402	-0.0011560388	 0.36474
C	-0.861861949	-0.7920958819	 0.8994925506	-0.330472
C	 0.6267322333	-0.8912969182	 1.0932989278	-0.093135
C	 1.2147027091	-1.8388057837	 0.0429080936	-0.259352
C	 0.6574120092	-0.9007270329	-1.0870532975	-0.043924
C	-0.2296213634	-1.4730367567	-2.1615342772	 0.018284
C	-0.4082978334	-0.7438649561	-3.4719695844	-0.270538
C	 0.3746654755	-2.0323897695	-3.4268709156	-0.27252
H	 0.9307329842	 1.9328856272	-0.4126184603	 0.11109
H	-0.7862277188	 1.8249120503	-0.8256259743	 0.120605
H	-0.2926448806	 1.9555939677	 0.8661103453	 0.114054
H	-1.3927018114	-0.2066799136	 1.6443168101	 0.104256
H	-1.4259254427	-1.6473652618	 0.5329368106	 0.100377
H	 1.1024213567	-0.6062850342	 2.0245989522	 0.078747
H	 2.3057991119	-1.8891307845	 0.0459613708	 0.09751
H	 0.8206174792	-2.8612586202	 0.0571437601	 0.091099
H	 1.4939072224	-0.3763204013	-1.5647135598	 0.060229
H	-1.1086058121	-1.9961883426	-1.7939531477	 0.076768
H	-1.386815881	-0.7506196478	-3.9394791537	 0.108347
H	 0.1445041659	 0.1789082051	-3.6170797323	 0.107775
H	 1.4525883967	-1.9735980806	-3.5400239884	 0.107715
H	-0.0676229674	-2.9208642622	-3.8639863033	 0.107802
73.357	119.9929	149.1925	211.3888	269.2917	275.52	325.3349	402.1245	426.3278	486.7465	629.0998	710.9092	767.3521	803.045	818.9796	828.0556	871.3036	907.6713	917.5383	947.2039	965.7465	994.7065	1011.2284	1021.03	1043.6825	1055.7602	1065.688	1077.006	1088.9995	1106.0318	1134.9594	1164.5141	1192.7272	1199.3784	1226.8466	1241.262	1248.6626	1264.6646	1297.3017	1319.4622	1389.0245	1418.7623	1437.1504	1469.7717	1484.1689	1486.815	1499.9725	1505.064	1506.6687	3016.5124	3025.9382	3038.5114	3073.6149	3090.4168	3101.2548	3101.9191	3126.3907	3130.6848	3138.3218	3172.9894	3190.3521	3203.8306	3219.2104
CC12CC1CC2C1CC1	C[C@]12C[C@H]1C[C@H]2C1CC1	
InChI=1S/C9H14/c1-9-5-7(9)4-8(9)6-2-3-6/h6-8H,2-5H2,1H3	InChI=1S/C9H14/c1-9-5-7(9)4-8(9)6-2-3-6/h6-8H,2-5H2,1H3/t7-,8+,9+/m1/s1
