18
gdb 49078	2.93061	1.70301	1.24138	1.4328	76.	-0.2324	-0.0338	0.1986	1007.6357	0.149141	-401.896031	-401.888885	-401.887941	-401.927738	28.304	
O	-0.0019851803	-0.0538079894	 0.3643088336	-0.249313
C	 0.0344180036	 1.1262081253	 0.1073704032	 0.051668
C	 1.2972116324	 1.9208225526	 0.0364885162	 0.266545
C	 2.6147030263	 1.2039155326	 0.3028986359	-0.306778
C	 3.5648054144	 2.4130583103	 0.114920869	-0.179957
N	 2.6579568171	 3.5417514039	-0.2082450733	-0.126604
C	 1.5620196516	 2.9774998143	-1.1088762018	-0.063759
C	 0.5878342615	 3.9847993792	-0.4763663236	-0.250884
C	 1.416075696	 3.3674656344	 0.6623467015	-0.063753
H	-0.9057746344	 1.6853320612	-0.0933802037	 0.072944
H	 2.6483369416	 0.7708959915	 1.3060314372	 0.114721
H	 2.7896794087	 0.3931423586	-0.4090990518	 0.11472
H	 4.1337697469	 2.6595058822	 1.0157471878	 0.109869
H	 4.2755036496	 2.2805145888	-0.7056240863	 0.109871
H	 1.7458654701	 2.7586593273	-2.1630776686	 0.08933
H	 0.8025644509	 5.0321568903	-0.6892980538	 0.116662
H	-0.4783065219	 3.7634952893	-0.5154917731	 0.105386
H	 1.4253953861	 3.6149218578	 1.7261659315	 0.089333
80.7694	202.8431	214.5823	306.2668	381.9124	394.9545	508.7694	650.732	680.1649	726.5123	766.1714	808.4136	826.4989	872.3334	889.2889	918.7383	962.948	1003.8615	1026.2833	1035.2731	1037.363	1100.3626	1116.4297	1125.733	1153.7065	1158.8714	1211.8407	1213.4108	1228.3016	1249.6939	1254.3873	1283.1677	1318.1989	1338.0267	1441.1934	1490.7854	1509.2562	1511.4675	1805.8696	2886.3823	3058.178	3068.9216	3085.2045	3088.9489	3095.6104	3101.2537	3115.1935	3160.1371
O=CC12CCN3C1CC23	O=C[C@@]12CCN3[C@@H]1C[C@@H]23	
InChI=1S/C7H9NO/c9-4-7-1-2-8-5(7)3-6(7)8/h4-6H,1-3H2	InChI=1S/C7H9NO/c9-4-7-1-2-8-5(7)3-6(7)8/h4-6H,1-3H2/t5-,6+,7+
