19
gdb 73500	2.90241	1.82726	1.46375	2.4114	73.96	-0.2181	0.0849	0.303	959.5609	0.160957	-423.015749	-423.008451	-423.007507	-423.047186	29.301	
C	 0.0372988871	 1.4779424441	 0.0393530502	-0.478551
C	 0.0060161329	-0.0228968513	-0.0089850308	 0.422862
O	 0.9809539879	-0.5894731002	-0.8559753975	-0.293178
C	 0.3792610977	-1.6496657616	-1.5981346613	-0.081323
C	-0.7918167066	-2.1541020056	-0.7385933844	-0.086428
C	-0.3128154111	-3.0116212307	 0.4453372252	-0.073312
O	 0.2257337739	-2.0939666366	 1.3996127558	-0.254434
C	-0.3945032374	-0.8512454728	 1.205649476	 0.028702
C	-1.2522255166	-0.8590605452	-0.0368066629	-0.219795
H	 1.0286554929	 1.8281431243	 0.3440515307	 0.134372
H	-0.1892740014	 1.9071586342	-0.942396027	 0.122119
H	-0.6942763339	 1.858267836	 0.7586568707	 0.116931
H	 0.014883767	-1.2761358321	-2.567596884	 0.090301
H	 1.1441059293	-2.4104779981	-1.7838049685	 0.107042
H	-1.570041548	-2.6437670877	-1.327248398	 0.080467
H	-1.1533006861	-3.5683945338	 0.8869811264	 0.091772
H	 0.4753633179	-3.7223823116	 0.1780668794	 0.108461
H	-0.6905411324	-0.3546515614	 2.1248796365	 0.093789
H	-2.2624707431	-0.4760027498	-0.1104903263	 0.090203
141.5497	199.561	208.9044	264.3815	313.7846	385.4753	517.1249	596.2856	614.6025	735.5734	756.4662	785.5805	829.4528	844.4227	872.8921	930.2699	951.8768	966.5718	978.3864	1012.2802	1044.5917	1061.762	1087.9111	1112.3428	1118.1299	1149.4087	1194.7964	1215.0614	1227.7571	1235.2527	1280.9081	1283.2308	1315.7385	1370.6387	1392.085	1411.9971	1426.7728	1478.4603	1499.1868	1507.93	1522.9835	2983.8602	2987.4152	3033.7121	3075.1965	3083.0551	3098.585	3100.702	3111.2341	3152.8537	3183.1689
CC12OCC3COC1C23	C[C@@]12OC[C@H]3CO[C@@H]1[C@@H]23	
InChI=1S/C7H10O2/c1-7-5-4(3-9-7)2-8-6(5)7/h4-6H,2-3H2,1H3	InChI=1S/C7H10O2/c1-7-5-4(3-9-7)2-8-6(5)7/h4-6H,2-3H2,1H3/t4-,5+,6-,7+/m1/s1
