16
gdb 22578	4.17846	1.04831	0.87444	3.7615	68.57	-0.2626	-0.0106	0.2519	1253.0381	0.12432	-475.022592	-475.014447	-475.013503	-475.055844	30.172	
O	-0.063013727	 1.3596742494	 0.1302069938	-0.397546
N	 0.0920780231	-0.0365039037	 0.1700262591	-0.185733
C	-1.0168406516	-0.6256423575	-0.0499947131	 0.342093
C	-1.0666952834	-2.1236912186	-0.0844034442	-0.295338
C	-2.0267943659	-2.5423351334	-1.2094067254	-0.354385
C	-3.4135347492	-1.9689033064	-0.974187955	 0.414309
O	-4.4376490712	-2.5478061195	-1.2031966958	-0.317054
O	-3.4604313102	-0.7306957648	-0.4098435118	-0.228276
C	-2.301798978	 0.1074513365	-0.3503737786	-0.149288
H	 0.8280820413	 1.6727101495	 0.3178835299	 0.313572
H	-0.0632352798	-2.5298170174	-0.2252523061	 0.134104
H	-1.4463439784	-2.5081201774	 0.8714959498	 0.13528
H	-1.6535762126	-2.1804916937	-2.1760694219	 0.139191
H	-2.1336147389	-3.6250087555	-1.2865351749	 0.143939
H	-2.506722069	 0.8483778866	 0.4263118307	 0.159337
H	-2.1978838091	 0.660957206	-1.2931546666	 0.145795
52.3671	146.0728	167.2495	219.4308	317.2687	373.8167	395.3874	431.8008	504.4684	536.5637	579.4305	632.8528	716.4824	762.9768	802.7082	922.5774	959.314	990.0462	999.0304	1058.9654	1106.2245	1153.8768	1178.3223	1236.3244	1256.9544	1292.8633	1332.0813	1346.001	1386.6776	1417.7693	1470.6475	1480.1399	1483.1253	1742.7673	1858.7255	3024.6582	3025.2462	3041.951	3100.2382	3113.9068	3129.2549	3823.714
ON=C1CCC(=O)OC1	ON=C1CCC(=O)OC1	
InChI=1S/C5H7NO3/c7-5-2-1-4(6-8)3-9-5/h8H,1-3H2	InChI=1S/C5H7NO3/c7-5-2-1-4(6-8)3-9-5/h8H,1-3H2
