20
gdb 61859	2.713	0.94917	0.80622	4.1614	77.32	-0.2453	-0.0332	0.2121	1484.1402	0.168535	-440.340563	-440.330183	-440.329239	-440.376951	36.595	
C	-0.2291342333	 1.5194090989	 0.22922188	-0.395017
C	-0.0425066299	 0.001047463	 0.1271300575	 0.068146
C	 0.4417976201	-0.5807997407	 1.4742776678	-0.32528
C	 0.6267320447	-2.0943717627	 1.4406183	 0.385922
C	 2.039715212	-2.6276338231	 1.5079492227	-0.476728
O	-0.3349832604	-2.8306645722	 1.3504357626	-0.310249
N	-1.2809078431	-0.6676409693	-0.270528476	-0.281015
C	-1.7879193688	-0.5498800065	-1.5244055092	 0.149686
O	-1.3713031439	 0.2048722023	-2.3812562725	-0.331655
H	 0.7158185733	 2.003277428	 0.4968246581	 0.109278
H	-0.5643837579	 1.9105314313	-0.7321196143	 0.160457
H	-0.9751045907	 1.7645315774	 0.992298344	 0.114567
H	 0.716307243	-0.1956467897	-0.64370692	 0.100487
H	 1.3715115891	-0.0781330818	 1.7535035563	 0.113172
H	-0.308692468	-0.3566602341	 2.2416479218	 0.134175
H	 2.5077211883	-2.3250102432	 2.4522235393	 0.146911
H	 2.0401933135	-3.7148681552	 1.4263624341	 0.147732
H	 2.644814004	-2.1903738423	 0.7049577594	 0.148149
H	-1.562662794	-1.4656886553	 0.2845091593	 0.26302
H	-2.6534705081	-1.2233073849	-1.6843960809	 0.078241
34.8298	81.7446	91.6961	153.4621	178.3951	209.7457	251.1685	285.4219	315.3951	331.218	414.2903	484.9478	526.9619	600.8123	614.6563	773.0782	803.9654	861.1416	919.2713	945.4153	979.0444	1010.3289	1034.9679	1102.2105	1120.0218	1142.4357	1192.7407	1233.2274	1259.1798	1325.904	1344.5289	1382.6709	1388.1637	1401.3167	1429.6482	1458.2854	1472.2244	1474.2609	1481.9029	1510.9425	1537.1659	1791.8772	1795.4867	2936.3523	3002.7858	3032.788	3038.2565	3044.6163	3091.5677	3102.1863	3109.6901	3150.1529	3156.1099	3567.8086
CC(CC(C)=O)NC=O	C[C@@H](CC(=O)C)NC=O	
InChI=1S/C6H11NO2/c1-5(7-4-8)3-6(2)9/h4-5H,3H2,1-2H3,(H,7,8)	InChI=1S/C6H11NO2/c1-5(7-4-8)3-6(2)9/h4-5H,3H2,1-2H3,(H,7,8)/t5-/m0/s1
