21
gdb 99612	1.78663	1.57957	1.08443	1.3672	84.54	-0.2519	0.0394	0.2914	1242.3788	0.179065	-387.02956	-387.019244	-387.0183	-387.06452	38.22	
C	 0.1449431711	 1.4573358668	 0.1490876614	-0.234326
O	-0.0898067383	 0.0649624908	 0.1603011184	-0.242652
C	 0.6572848123	-0.6489305507	 1.1379250954	-0.156667
C	 0.0349818229	-1.9685175563	 1.2806304691	 0.334382
C	-0.4471615501	-3.0598585741	 1.4196580167	-0.417092
C	 2.1441721629	-0.771633493	 0.7886414227	 0.358524
C	 2.4246592167	-1.3460645585	-0.5853220686	-0.46401
C	 3.0818375662	 0.2727666402	 1.354295875	-0.319197
C	 3.0681632525	-1.1212961634	 1.9280243899	-0.303987
H	 1.1540127083	 1.7122976003	-0.1998544755	 0.117343
H	-0.5866087206	 1.8923909875	-0.5361579271	 0.128696
H	 0.0009579584	 1.8994774723	 1.147604353	 0.102569
H	 0.5769777556	-0.1248001638	 2.1072248498	 0.085315
H	-0.8836565927	-4.0204386637	 1.5404018165	 0.194538
H	 1.9715786573	-0.7305617911	-1.3681752844	 0.127273
H	 3.5013468321	-1.4008226523	-0.7713586145	 0.107769
H	 2.0115541323	-2.3560809885	-0.6752426398	 0.130706
H	 3.9287089294	 0.5729770426	 0.7461102072	 0.112191
H	 2.6661758493	 1.0724197753	 1.9586379572	 0.10927
H	 2.6376318302	-1.264305347	 2.9139571788	 0.115358
H	 3.9043392642	-1.7773418233	 1.7123947688	 0.113996
79.2224	97.9657	134.1497	170.0254	197.2542	208.2568	257.3651	306.0051	328.5251	350.2957	377.9755	489.1675	528.297	551.1378	625.5111	661.9407	770.3837	786.3092	875.1935	904.1285	926.488	958.6829	990.622	1031.9564	1042.4955	1075.7053	1080.5599	1130.4857	1136.5778	1178.9142	1190.101	1216.8991	1273.4467	1314.7754	1353.0631	1381.5394	1421.7411	1469.3791	1473.9539	1486.4243	1486.5673	1501.8246	1507.1863	1514.4878	2241.6703	2938.5869	2979.7498	3037.3553	3044.2979	3104.9645	3111.6985	3115.0278	3126.0996	3131.3339	3204.0756	3218.6772	3504.08
COC(C#C)C1(C)CC1	CO[C@@H](C#C)C1(C)CC1	
InChI=1S/C8H12O/c1-4-7(9-3)8(2)5-6-8/h1,7H,5-6H2,2-3H3	InChI=1S/C8H12O/c1-4-7(9-3)8(2)5-6-8/h1,7H,5-6H2,2-3H3/t7-/m0/s1
