21
gdb 92345	2.88912	1.52778	1.36088	2.0477	76.67	-0.2484	0.0793	0.3277	1059.3557	0.185699	-424.255759	-424.248215	-424.247271	-424.28739	30.935	
C	 0.1246080037	 1.5863053835	 0.0677110088	-0.400814
C	 0.0160332513	 0.0725203834	-0.024273973	 0.141366
C	 0.6842930114	-0.5089797569	-1.2844125816	-0.217467
C	 0.9116812931	-2.0161687895	-1.1046795749	 0.072904
C	-0.3815134881	-2.7902256207	-0.750321358	-0.232248
C	-0.4273228089	-2.6742763734	 0.7958278476	-0.255276
C	 0.8431435112	-1.8531540467	 1.1153185832	 0.194457
O	 1.7296479752	-2.1798381484	 0.0642643149	-0.24931
O	 0.6125770337	-0.46152566	 1.1640113872	-0.27535
H	 1.1751717232	 1.8912901424	 0.0898281042	 0.126304
H	-0.3592160609	 2.0580023382	-0.7934209535	 0.111436
H	-0.3574466163	 1.9486819663	 0.9798361626	 0.123126
H	-1.0516226017	-0.2022198315	-0.0360074875	 0.06736
H	 0.064272432	-0.3005447777	-2.1639217412	 0.093653
H	 1.6588014491	-0.0320182484	-1.4353438987	 0.10674
H	 1.4529931858	-2.4430953489	-1.9516727018	 0.076955
H	-1.2640228385	-2.3649617132	-1.2355773456	 0.101911
H	-0.2970447042	-3.8320112016	-1.0670928253	 0.10722
H	-1.3273499377	-2.1853691068	 1.1750329791	 0.111994
H	-0.3537171116	-3.6550378996	 1.2707469927	 0.108242
H	 1.3245975084	-2.1057928005	 2.061169811	 0.086797
142.6245	182.8076	235.7662	291.4108	348.7669	380.0835	448.8359	491.9823	513.1125	615.1293	776.7252	790.749	802.5463	823.5879	828.4825	893.8369	916.9929	932.2052	971.6579	982.7968	998.6678	1023.2597	1056.0329	1083.3421	1108.7214	1144.4447	1168.0812	1189.0107	1235.1831	1245.3139	1260.7966	1295.3285	1313.6151	1332.6136	1352.6564	1367.6237	1386.1413	1398.6283	1402.3163	1413.6056	1470.9648	1482.3042	1484.2843	1500.358	1504.024	2962.0358	3035.3084	3041.397	3062.6995	3074.1671	3084.7642	3087.8828	3104.4175	3111.5961	3115.2971	3120.1173	3125.3824
CC1CC2CCC(O2)O1	C[C@H]1C[C@@H]2CC[C@@H](O2)O1	
InChI=1S/C7H12O2/c1-5-4-6-2-3-7(8-5)9-6/h5-7H,2-4H2,1H3	InChI=1S/C7H12O2/c1-5-4-6-2-3-7(8-5)9-6/h5-7H,2-4H2,1H3/t5-,6-,7+/m0/s1
