16
gdb 50436	2.80002	1.55836	1.10606	5.6303	74.7	-0.2183	-0.0119	0.2064	1069.1466	0.125952	-434.099258	-434.091216	-434.090272	-434.132347	29.791	
N	-0.0114729241	 1.338933387	 0.2668133284	-0.502968
C	 0.0274608622	 0.1020998637	-0.0194895397	 0.435926
N	 1.1736855301	-0.6499589805	-0.280610704	-0.371026
C	 1.1665206854	-2.002218126	-0.6069891179	 0.030615
C	 0.039279661	-2.6139839902	-0.9693270649	-0.136819
C	-1.2095751448	-1.7795774802	-1.0505657312	-0.233054
N	-1.1537307055	-0.6738255309	-0.0833234809	-0.121848
C	-2.2039839892	-0.5026098979	 0.8119659088	 0.163854
O	-2.2684473485	 0.2732850239	 1.7256067735	-0.284866
H	 0.926863466	 1.7322825643	 0.3381397563	 0.208394
H	 2.0520761413	-0.1676118443	-0.1951030693	 0.254065
H	 2.1278568292	-2.4971724405	-0.5380561951	 0.120566
H	 0.0151707867	-3.6678098148	-1.2087974304	 0.106708
H	-1.3497061116	-1.3778170653	-2.0661933012	 0.127808
H	-2.100266641	-2.3709264984	-0.8215674242	 0.128092
H	-3.0121009872	-1.2256341898	 0.5774909419	 0.074553
58.6935	95.4446	213.66	237.3391	286.752	371.1447	436.5771	471.0097	489.7468	538.8547	650.2256	696.8465	726.4464	778.5665	810.1081	901.0386	933.3893	971.9578	1017.445	1023.7655	1043.0026	1126.4544	1189.3713	1211.4638	1225.041	1308.3982	1343.0835	1412.1599	1426.8595	1462.2536	1471.807	1502.0993	1724.6877	1728.1587	1844.1842	2916.5903	2978.4765	3083.9041	3202.73	3233.6835	3481.667	3661.4017
N=C1NC=CCN1C=O	[NH][C]1NC=CCN1C=O	
InChI=1S/C5H7N3O/c6-5-7-2-1-3-8(5)4-9/h1-2,4H,3H2,(H2,6,7)	InChI=1S/C5H7N3O/c6-5-7-2-1-3-8(5)4-9/h1-2,4H,3H2,(H2,6,7)
