21
gdb 58777	2.5198	1.27693	1.21506	1.9811	78.89	-0.2264	0.0719	0.2983	1190.6823	0.180114	-424.186931	-424.177253	-424.176309	-424.221197	36.613	
C	-0.0208287656	 1.4549466264	-0.1502101913	-0.391269
C	 0.017974323	-0.0628261925	 0.0961550379	-0.077465
C	 0.7313365657	-0.4059530659	 1.4131427123	-0.396047
C	-1.3703599433	-0.6337083232	 0.0735357072	 0.452126
C	-2.177197436	-1.0254893093	-1.143855209	-0.4183
C	-1.9631726731	-2.0174000566	-0.0166448017	 0.240849
O	-1.3366050237	-3.2385432692	-0.1659574232	-0.458991
C	-2.8135681433	-1.6110457691	 1.1824358496	-0.138011
O	-2.2754919949	-0.2608987094	 1.1309929875	-0.33186
H	 0.9902195697	 1.8741719447	-0.1457834865	 0.107896
H	-0.4844182315	 1.6892132856	-1.1134459221	 0.113464
H	-0.5992216792	 1.9562537043	 0.6324490567	 0.132824
H	 0.5622829597	-0.5369836212	-0.7311474136	 0.081757
H	 1.7412505139	 0.0156247029	 1.4290854998	 0.105534
H	 0.1766855849	 0.0011365684	 2.2636016342	 0.129915
H	 0.8104440436	-1.4892302047	 1.5455246574	 0.12285
H	-3.1500409708	-0.5760502009	-1.3278881776	 0.109496
H	-1.5813221004	-1.2395966416	-2.0267273435	 0.11464
H	-1.8505044777	-3.7734666456	-0.7810330092	 0.289417
H	-3.905600731	-1.6290737751	 1.0826055317	 0.09851
H	-2.5089416701	-2.1174001479	 2.1054288637	 0.112665
60.6998	110.1014	172.3581	217.728	234.3896	264.0631	293.4526	298.5273	345.3374	385.7199	438.9339	495.8267	562.9683	604.7563	707.3737	784.3384	873.8528	882.5733	918.6901	929.4994	962.4899	976.0443	994.7001	1015.2667	1046.5822	1057.7034	1134.2567	1139.4335	1148.734	1189.9985	1224.5168	1267.1662	1295.2719	1329.6656	1331.9853	1379.238	1393.7543	1416.1005	1424.5134	1486.5573	1493.0472	1496.6678	1501.5395	1514.4707	1528.6067	3020.4471	3023.2894	3034.3345	3038.8093	3075.4964	3104.9132	3105.349	3108.4004	3109.6172	3117.69	3202.5393	3790.49
CC(C)C12CC1(O)CO2	CC(C)[C@@]12C[C@]1(O)CO2	
InChI=1S/C7H12O2/c1-5(2)7-3-6(7,8)4-9-7/h5,8H,3-4H2,1-2H3	InChI=1S/C7H12O2/c1-5(2)7-3-6(7,8)4-9-7/h5,8H,3-4H2,1-2H3/t6-,7-/m0/s1
