19
gdb 38860	2.78743	1.95853	1.86456	2.2882	72.88	-0.2417	0.0793	0.321	864.7784	0.163774	-423.027381	-423.021158	-423.020214	-423.057606	26.737	
C	-0.0378635281	 1.5425469071	 0.0713010638	-0.235738
C	 1.5093870066	 1.4474639494	-0.0484245632	-0.049083
C	 2.089323544	 1.1079699064	 1.3397376293	-0.249868
C	 1.6558206447	-0.338455209	 1.6431242124	 0.198678
O	 2.4426900844	-1.239129327	 0.8950165141	-0.2614
C	 2.3044620218	-1.0243845798	-0.514227136	-0.097994
C	 1.2951598434	 0.0788815932	-0.7827378254	-0.056656
C	-0.0226475951	-0.002368239	 0.0428839	 0.11416
O	 0.2798456628	-0.5176270771	 1.3461642836	-0.276196
H	-0.4569615076	 2.0129406864	 0.9646556173	 0.098573
H	-0.4988323377	 1.9621153353	-0.827387812	 0.096394
H	 2.0511921712	 2.2453220446	-0.5602018057	 0.064782
H	 3.1826842782	 1.1466016216	 1.351279139	 0.108451
H	 1.7169362968	 1.8005410764	 2.1020317615	 0.102124
H	 1.7882665094	-0.6225708038	 2.6882198092	 0.087145
H	 3.28734011	-0.771326893	-0.9381415561	 0.097795
H	 1.979877713	-1.9674441349	-0.9740823847	 0.106043
H	 1.1012883054	 0.2047826695	-1.849907734	 0.077288
H	-0.8827005232	-0.5588099063	-0.334697933	 0.075502
184.0968	314.7266	336.7817	443.9272	449.5707	500.2787	575.9479	674.8454	743.7184	801.7277	827.7507	835.6418	861.5348	876.9947	918.9937	933.8573	948.0328	979.6782	1033.0103	1039.2382	1067.323	1082.3726	1113.5809	1115.9552	1137.4805	1173.194	1196.1917	1227.9078	1249.5652	1263.2117	1284.0936	1301.632	1332.4226	1348.7949	1354.3491	1367.728	1394.6656	1416.2118	1473.7604	1490.3968	1520.606	2991.8265	3027.1676	3043.8237	3052.1993	3080.9477	3087.6477	3093.2366	3097.3667	3108.5349	3113.9288
C1C2CC3OCC2C1O3	C1[C@H]2C[C@@H]3OC[C@H]2[C@H]1O3	
InChI=1S/C7H10O2/c1-4-2-7-8-3-5(4)6(1)9-7/h4-7H,1-3H2	InChI=1S/C7H10O2/c1-4-2-7-8-3-5(4)6(1)9-7/h4-7H,1-3H2/t4-,5+,6-,7+/m0/s1
