19
gdb 77623	2.11852	1.45959	1.29376	2.0908	84.41	-0.224	0.017	0.2411	1138.4447	0.156504	-385.822296	-385.812935	-385.81199	-385.855922	35.272	
C	 0.0187430391	 1.5768239516	-0.0163262442	-0.424757
C	 0.0588840165	 0.0670838472	-0.0907454177	-0.124916
C	 0.6573687466	-0.7481132158	-1.2203103225	 0.172342
C	-0.067606434	-1.8383455679	-1.9508693474	-0.49245
C	 1.9537420779	-0.0882897439	-1.682016294	-0.13935
O	 2.4660469563	-0.0129322844	-0.32622602	-0.326139
C	 1.3207213499	-0.7304472892	 0.1653523202	 0.246361
C	 1.4926912864	-1.7236700071	 1.1647082782	 0.240164
C	 1.6229654634	-2.5696587017	 2.0111102492	-0.416305
H	 0.9970939647	 2.0072555393	-0.2407699574	 0.140009
H	-0.7142155007	 1.9889062187	-0.7183024099	 0.116018
H	-0.2618370246	 1.9019128293	 0.990534094	 0.12464
H	-0.8153202052	-0.433422485	 0.3216080216	 0.096371
H	-0.6745636065	-1.4325635358	-2.7693307507	 0.124797
H	 0.6315661866	-2.564560174	-2.3795653937	 0.125165
H	-0.7406574856	-2.379018037	-1.2783617718	 0.130765
H	 2.5782624238	-0.7544513788	-2.2889863539	 0.111312
H	 1.8906981875	 0.896036021	-2.1600101159	 0.104327
H	 1.7437583178	-3.3131134766	 2.7594857761	 0.191644
106.9035	138.8052	164.7719	174.8789	210.2279	255.8622	281.0811	318.6464	399.4271	509.1977	519.9762	557.4262	562.5413	605.9832	685.9003	709.954	761.0003	800.5412	927.9816	954.849	988.478	999.9375	1041.2394	1095.7229	1116.4416	1122.4165	1134.2004	1161.6264	1231.7461	1272.9967	1302.5822	1348.8675	1408.439	1416.7792	1471.512	1485.1679	1492.0549	1496.5405	1506.8196	1522.9892	2228.7697	3021.4777	3025.3647	3038.2551	3071.0026	3083.6009	3097.4322	3103.7878	3123.7235	3139.098	3502.2179
CC1C2(C)COC12C#C	C[C@H]1[C@@]2(C)CO[C@@]12C#C	
InChI=1S/C8H10O/c1-4-8-6(2)7(8,3)5-9-8/h1,6H,5H2,2-3H3	InChI=1S/C8H10O/c1-4-8-6(2)7(8,3)5-9-8/h1,6H,5H2,2-3H3/t6-,7+,8-/m0/s1
