20
gdb 64174	2.19172	1.50871	1.37571	3.3172	79.26	-0.2433	0.0245	0.2677	1090.7751	0.170446	-399.322885	-399.313257	-399.312312	-399.356403	36.922	
C	-0.0977866685	 1.5283573853	-0.0446340877	-0.431401
C	-0.028661162	 0.0047321985	-0.050203349	 0.276706
N	-1.3562618106	-0.5328481555	-0.2188684022	-0.567974
C	 1.1831369378	-0.5141265331	-0.8958658674	-0.223208
N	 1.9923269779	-0.5373945134	 0.3453874938	-0.334863
C	 0.7732873614	-0.5784197483	 1.1933015274	 0.140401
C	 0.8434871322	 0.199601267	 2.5035790715	-0.454724
C	 0.3444704192	-1.9648371466	 1.457974566	 0.259978
N	 0.0493426871	-3.0699203883	 1.6341960892	-0.359307
H	 0.890051006	 1.9675307104	 0.107912663	 0.138694
H	-0.4724158098	 1.8785342517	-1.0136463257	 0.113789
H	-0.7789095193	 1.8885410432	 0.7308372196	 0.131307
H	-1.8225466754	-0.1105421492	-1.014706117	 0.228072
H	-1.3448808954	-1.5378025813	-0.3586750316	 0.243377
H	 0.9791325841	-1.505216519	-1.3237989034	 0.100259
H	 1.5784417888	 0.1437190749	-1.6767752501	 0.101848
H	 2.6190805332	-1.328076983	 0.4531220451	 0.231408
H	 1.217277207	 1.2074615838	 2.3187578891	 0.131631
H	-0.1454810837	 0.2578118299	 2.9677088356	 0.141438
H	 1.5202459501	-0.2947297271	 3.2070553639	 0.132569
107.7315	143.4009	190.9281	212.5981	258.2941	271.1162	278.5236	314.8295	354.1821	379.4582	417.1082	454.9518	542.0771	587.3925	640.2748	679.026	735.6477	799.3476	886.9919	897.599	922.7915	969.6502	995.5167	1021.6226	1072.4551	1117.7226	1144.7467	1165.9165	1171.0213	1198.8553	1280.8345	1308.6152	1352.3965	1369.1474	1402.4311	1407.6777	1478.595	1485.5076	1496.6696	1503.5564	1518.3663	1659.8028	2333.2016	3004.7528	3036.328	3048.2234	3071.0078	3104.2803	3116.1027	3138.	3146.9607	3505.1834	3529.3184	3588.4922
CC1(N)CNC1(C)C#N	C[C@@]1(N)CN[C@]1(C)C#N	
InChI=1S/C6H11N3/c1-5(8)4-9-6(5,2)3-7/h9H,4,8H2,1-2H3	InChI=1S/C6H11N3/c1-5(8)4-9-6(5,2)3-7/h9H,4,8H2,1-2H3/t5-,6-/m1/s1
