17
gdb 71980	2.90018	1.67893	1.23954	1.0447	80.27	-0.2336	0.0307	0.2642	1012.1501	0.134894	-384.604952	-384.597075	-384.596131	-384.63689	31.527	
O	-0.0491742186	 1.3162796279	 0.0567892784	-0.466405
C	 0.0070392811	-0.0520141895	-0.0037669231	 0.381937
C	 0.9072372916	-0.8700620279	-0.9133538985	-0.28473
C	 0.0331747953	-2.085409809	-0.4760572628	-0.088796
C	 0.379876932	-2.286295978	 1.0231202296	-0.295201
C	-0.2985124956	-0.9332196637	 1.247581517	 0.176546
C	-0.6708981262	-0.2784295885	 2.4481581534	 0.095602
C	-0.9500757389	 0.3456078355	 3.4418810104	-0.397953
C	-1.1028484111	-1.0671332064	-0.0584053534	-0.200867
H	-0.1212828797	 1.5790716411	 0.9845956868	 0.291282
H	 0.7376874681	-0.6078741145	-1.9613746011	 0.111154
H	 1.9820465743	-0.9120951546	-0.7047103447	 0.094128
H	-0.101086234	-2.934608545	-1.1399124902	 0.082106
H	-0.2009792805	-3.0935310213	 1.4770328068	 0.109106
H	 1.4371935016	-2.3915105785	 1.2904848747	 0.09774
H	-1.2229894285	 0.8589704721	 4.3304451158	 0.187909
H	-2.167909241	-1.0073122997	-0.227500349	 0.106442
120.5834	136.9675	218.6339	292.0937	362.6637	422.026	442.6989	492.4939	511.4568	568.9999	598.6158	652.8468	664.1972	683.7752	769.3463	809.3999	879.6747	892.4204	924.9812	977.9845	986.9602	1037.6451	1066.8646	1103.5987	1111.7553	1129.5135	1143.8407	1211.6909	1229.5899	1255.603	1273.149	1307.7973	1376.7235	1421.4416	1495.2495	1509.1356	2216.9947	3035.7725	3041.4576	3101.4013	3103.5982	3158.048	3230.3652	3500.0513	3741.3478
OC12CC3CC1(C#C)C23	O[C@@]12C[C@H]3C[C@]1(C#C)[C@@H]23	
InChI=1S/C8H8O/c1-2-7-3-5-4-8(7,9)6(5)7/h1,5-6,9H,3-4H2	InChI=1S/C8H8O/c1-2-7-3-5-4-8(7,9)6(5)7/h1,5-6,9H,3-4H2/t5-,6+,7-,8-/m1/s1
