18
gdb 69172	2.17755	1.89817	1.28124	4.2759	76.87	-0.2396	-0.0074	0.2322	1039.3964	0.146834	-401.923519	-401.915226	-401.914282	-401.956122	31.752	
C	 0.0165206929	 1.5694348273	 0.086547758	-0.49008
C	-0.0333521245	 0.0774189014	-0.0344114077	 0.24682
C	-0.8802117492	-0.807462894	 0.7807666048	-0.288383
N	 0.5988826584	-0.83714685	 1.0354369678	-0.229792
C	 1.1609969753	-1.6309609583	-0.0543393095	 0.365767
O	 1.873387488	-2.5861879933	-0.0037886253	-0.319212
C	 0.6170211143	-0.7407993599	-1.137971861	 0.170696
C	 0.1572602487	-1.114538104	-2.5232533373	-0.321415
C	 1.3925127796	-0.2800176697	-2.3443612244	-0.325348
H	 1.0227089033	 1.9465592322	-0.1206330681	 0.134275
H	-0.6760284848	 2.0401570357	-0.6209280843	 0.126406
H	-0.2668279402	 1.8843162289	 1.0944305682	 0.13803
H	-1.4252188456	-0.378799893	 1.6165165373	 0.133611
H	-1.3465703271	-1.6835049927	 0.3368458128	 0.129618
H	 0.2747056848	-2.1531114721	-2.8133024093	 0.137492
H	-0.7385255193	-0.6313715478	-2.8987117544	 0.12377
H	 1.3383889654	 0.7737484102	-2.5968126466	 0.125917
H	 2.3601880201	-0.7410682409	-2.509597411	 0.141829
110.063	177.4182	184.0337	206.5502	208.0618	286.5194	373.1385	459.9376	505.0132	603.5369	639.9709	664.9513	737.9837	766.3509	800.0496	869.8145	933.8688	952.2588	955.7045	999.1516	1006.8938	1015.5656	1064.1608	1084.6844	1086.3141	1122.4974	1149.3743	1195.7893	1203.998	1276.0965	1369.8374	1395.4543	1424.3804	1458.0399	1483.182	1492.9851	1496.7461	1506.6486	1909.9335	3033.958	3097.9355	3110.4677	3120.4294	3132.5537	3134.5902	3200.9097	3215.4272	3229.6399
CC12CN1C(=O)C21CC1	C[C@]12CN1C(=O)C12CC1	
InChI=1S/C7H9NO/c1-6-4-8(6)5(9)7(6)2-3-7/h2-4H2,1H3	InChI=1S/C7H9NO/c1-6-4-8(6)5(9)7(6)2-3-7/h2-4H2,1H3/t6-,8?/m1/s1
