17
gdb 53478	2.59068	0.75877	0.62795	3.2283	79.15	-0.2456	-0.0368	0.2088	1760.4183	0.131041	-421.828657	-421.817929	-421.816985	-421.868674	34.85	
C	 0.1034215451	 0.8943787193	-1.2277102194	-0.496428
C	-0.0302685481	-0.2886828122	-0.3899656848	 0.064558
C	-0.1275663971	-1.2636500117	 0.3098885515	 0.053289
C	-0.2836647353	-2.4419008038	 1.1522072903	-0.435618
C	-1.6408518307	-3.1406143734	 0.9817612287	 0.382145
O	-2.3007303564	-3.4754486881	 1.9348462917	-0.299392
C	-2.1011327486	-3.4341949681	-0.4429877815	-0.376121
C	-2.6243762493	-4.8574918815	-0.5758545034	 0.15985
O	-2.4057628001	-5.559246785	-1.5270531337	-0.235196
H	 0.9536531839	 0.8036738913	-1.912264327	 0.152995
H	-0.7951098305	 1.0551957356	-1.8333109987	 0.151785
H	 0.2586341707	 1.7927827627	-0.6206051735	 0.154189
H	 0.4899522051	-3.185858426	 0.9067521255	 0.152912
H	-0.174748261	-2.2025598148	 2.2144124929	 0.154749
H	-2.9482099408	-2.7621209075	-0.6418982664	 0.164629
H	-1.3363002984	-3.2377839827	-1.1956942339	 0.140966
H	-3.2331229285	-5.1982158841	 0.2861188817	 0.110687
12.7553	31.2622	33.418	77.2711	95.4162	199.5951	209.3518	260.8211	353.2568	379.8975	446.1377	461.9575	496.7861	663.4565	708.5649	799.3173	856.0869	880.6035	1032.1573	1050.7742	1054.233	1056.3325	1111.6685	1167.8469	1184.7705	1213.5535	1303.3227	1304.3646	1407.3619	1415.5571	1435.5846	1448.7065	1477.0129	1477.9622	1805.5637	1840.0577	2373.0083	2935.5522	2999.7874	3028.4791	3030.1274	3084.3201	3091.8121	3092.9929	3131.4988
CC#CCC(=O)CC=O	CC#CCC(=O)CC=O	
InChI=1S/C7H8O2/c1-2-3-4-7(9)5-6-8/h6H,4-5H2,1H3	InChI=1S/C7H8O2/c1-2-3-4-7(9)5-6-8/h6H,4-5H2,1H3
