18
gdb 37861	2.46917	2.18066	2.13336	1.6186	72.43	-0.1631	0.0616	0.2248	817.0753	0.154269	-398.066027	-398.060034	-398.05909	-398.095936	26.29	
N	 0.0297671963	 1.422593532	-0.0216698885	-0.307868
C	 1.3754335882	 1.9524167627	 0.0000105139	-0.028085
C	 2.4800351542	 1.2398520459	 0.7528528771	-0.056592
N	 2.1329353011	 0.0026532733	 1.4428450946	-0.314348
C	 1.1138152842	-0.781720216	 0.7548182864	-0.056592
C	 0.0400334331	-0.0235525133	 0.0019312601	-0.028085
C	 1.0968234743	-0.7599923388	-0.7742670404	-0.043385
N	 2.105691728	 0.0182319121	-1.4714413569	-0.305871
C	 2.4521583605	 1.2454742705	-0.7762167484	-0.043385
H	-0.4564332826	 1.7519859624	 0.8099570652	 0.223983
H	 1.3979939389	 3.0371720265	-0.0122253084	 0.09369
H	 3.2148318786	 1.8310796365	 1.291901899	 0.083534
H	 2.9750796391	-0.56641999	 1.5095968127	 0.215271
H	 0.8397581428	-1.6832755729	 1.2953187511	 0.083534
H	-0.9580618394	-0.4490434988	-0.0088366609	 0.09369
H	 0.7936865132	-1.6452125766	-1.3259919229	 0.087879
H	 2.9467062077	-0.5502254873	-1.5568078149	 0.214748
H	 3.1599678317	 1.8561344318	-1.3293958788	 0.087879
224.8301	268.285	481.7859	511.4633	544.7238	562.2604	586.7462	692.0402	717.1717	733.7114	738.2086	777.0565	795.0947	852.4589	877.3883	935.1371	952.9959	1017.1101	1020.4584	1027.9113	1050.6973	1075.6515	1113.1717	1115.311	1130.0826	1145.5408	1191.6343	1203.7861	1205.5846	1266.5548	1294.4026	1313.9685	1346.3769	1387.9976	1396.1794	1462.7927	1470.4454	1495.3922	1511.5206	3136.0329	3136.1721	3140.8249	3141.6383	3159.406	3161.1603	3440.5742	3445.2768	3461.2279
N1C2C3NC4C1C4NC23	N1[C@H]2[C@H]3N[C@H]4[C@@H]1[C@H]4N[C@@H]23	
InChI=1S/C6H9N3/c7-1-2-3(1)9-6-4(7)5(6)8-2/h1-9H	InChI=1S/C6H9N3/c7-1-2-3(1)9-6-4(7)5(6)8-2/h1-9H/t1-,2+,3-,4+,5-,6+
