17
gdb 97833	4.00316	0.68162	0.61647	2.3133	80.02	-0.2386	-0.0272	0.2114	1780.0842	0.133857	-421.795798	-421.786261	-421.785317	-421.832609	33.096	
O	 0.1077906453	 1.483980829	 0.7350300756	-0.401197
C	 0.0955156256	 0.2554837662	 0.021076314	-0.196852
C	-1.240348305	-0.3192021294	-0.1328595822	 0.113354
C	-2.3528435414	-0.7778985476	-0.2077363348	 0.02683
C	-3.6639590275	-1.3687732159	-0.3256634786	-0.286862
C	-4.2715310635	-1.6845812063	-1.7397941475	-0.237638
C	-4.7302311246	-3.0871723101	-1.2466171095	-0.34149
C	-3.8500565756	-2.8876252771	-0.0039502367	 0.398306
O	-3.3972474441	-3.6107354004	 0.8279936524	-0.278315
H	-0.3489883382	 1.3352503723	 1.5695842332	 0.288195
H	 0.5239871312	 0.4794711364	-0.9622974814	 0.140181
H	 0.7572872814	-0.4890888762	 0.4919192795	 0.122403
H	-4.3940106125	-0.8133731596	 0.278821294	 0.131551
H	-5.0534245516	-1.0037718976	-2.0754130997	 0.117927
H	-3.493073943	-1.7445028263	-2.5012565958	 0.128525
H	-5.7915840577	-3.1352897953	-0.9814916874	 0.137291
H	-4.4875088989	-3.9554574221	-1.8630546253	 0.137792
15.9557	69.9819	79.3272	117.0061	177.2912	243.4599	331.1983	383.6506	407.2864	475.4887	530.7407	574.2854	647.7432	691.436	767.3699	866.7598	910.7445	950.4954	987.5779	1010.3696	1030.2422	1050.7099	1067.2167	1180.0856	1193.9113	1207.4003	1215.66	1229.9334	1255.6397	1324.3782	1360.9024	1418.1343	1441.9089	1490.1574	1492.3055	1904.0341	2354.0933	2977.3071	3020.9299	3060.6531	3061.4216	3092.6584	3119.6495	3152.5544	3816.3613
OCC#CC1CCC1=O	OCC#C[C@H]1CCC1=O	
InChI=1S/C7H8O2/c8-5-1-2-6-3-4-7(6)9/h6,8H,3-5H2	InChI=1S/C7H8O2/c8-5-1-2-6-3-4-7(6)9/h6,8H,3-5H2/t6-/m0/s1
