20
gdb 121664	4.11926	0.72653	0.66648	2.8675	78.85	-0.2425	0.0341	0.2766	1721.1451	0.170792	-440.303828	-440.294032	-440.293088	-440.339851	35.207	
O	 0.1589484604	 1.3547092761	-0.42887633	-0.418935
C	-0.043785607	-0.0037052343	-0.0487861526	-0.07707
C	-1.5210801556	-0.3128405951	 0.1771914238	-0.161951
N	-2.2916442626	 0.0525098841	-0.992566343	-0.3363
C	-3.2968447841	-0.7212131168	-1.4925741121	 0.445182
O	-3.6513747611	-1.7660366519	-0.9651204353	-0.402784
C	-3.9378863701	-0.1946750254	-2.7380530505	-0.126947
C	-4.4387430525	-1.2204205756	-3.7371072117	-0.248531
C	-5.4220476035	-0.4589658054	-2.9089352583	-0.248631
H	-0.0247867547	 1.9068556774	 0.3386305241	 0.286874
H	 0.3383483202	-0.6012309834	-0.8822852551	 0.124212
H	 0.5356572343	-0.2628425071	 0.8487327036	 0.098315
H	-1.6798662938	-1.3781881631	 0.363575457	 0.145433
H	-1.8781735385	 0.229403243	 1.0674865925	 0.096154
H	-2.0064231943	 0.8919805883	-1.4715304768	 0.247828
H	-3.5495223849	 0.7383842268	-3.1334493608	 0.077009
H	-4.3405781358	-0.9803061765	-4.7895453607	 0.11185
H	-4.2642992834	-2.2562903697	-3.4715485625	 0.138448
H	-5.9002725926	-0.9897561248	-2.0943055885	 0.138377
H	-6.0156814205	 0.3166877335	-3.378957123	 0.111468
36.2144	74.1309	94.1449	117.2369	199.1519	263.0923	296.4658	312.2503	351.0452	410.1791	524.2729	546.8232	665.9329	757.739	790.9282	832.726	834.8231	881.8667	912.693	921.4361	984.4741	1054.3544	1067.9883	1088.9964	1094.251	1107.7274	1121.4377	1124.7228	1205.3842	1209.2398	1216.7537	1233.5608	1272.8883	1377.2802	1387.6322	1412.1933	1418.6079	1450.6652	1485.6011	1496.6829	1500.8733	1535.17	1758.0308	2976.6324	3008.215	3088.7517	3107.7037	3141.444	3142.9872	3157.3297	3229.9787	3243.8008	3636.8555	3807.4687
OCCNC(=O)C1CC1	OCCNC(=O)C1CC1	
InChI=1S/C6H11NO2/c8-4-3-7-6(9)5-1-2-5/h5,8H,1-4H2,(H,7,9)	InChI=1S/C6H11NO2/c8-4-3-7-6(9)5-1-2-5/h5,8H,1-4H2,(H,7,9)
