15
gdb 9942	3.41539	1.51705	1.45691	3.559	63.15	-0.2463	0.0157	0.262	914.9622	0.119213	-395.958037	-395.949709	-395.948765	-395.990434	30.601	
N	 0.0076019354	 1.4041882763	 0.1695040475	-0.531378
C	 0.0291249537	-0.0325925106	 0.0617548019	-0.099468
C	-0.4447465206	-0.7429786924	 1.2941232892	 0.101028
O	-0.8209289628	 0.0395803021	 2.363485177	-0.426238
C	-1.3521465176	-0.7317412837	 0.0398163479	 0.096634
N	-2.4935894913	 0.1440147058	 0.0901908389	-0.569999
C	-1.4669257018	-1.9576783173	-0.7010049251	 0.229991
N	-1.5613735835	-2.9391377581	-1.3096325847	-0.347002
H	 0.7010661269	 1.8273628956	-0.4332802255	 0.246844
H	-0.9177061929	 1.7425100621	-0.0924561784	 0.255993
H	 0.8244943769	-0.4712149139	-0.5302112376	 0.116214
H	-0.0203293186	-1.7031818522	 1.5699399238	 0.123178
H	-0.519589186	 0.9394005086	 2.135543837	 0.295464
H	-3.0824188743	 0.0288133607	-0.7255635635	 0.251332
H	-3.0449503134	-0.0307981429	 0.9241351117	 0.257406
127.0238	154.4971	166.7671	199.6374	253.96	264.6987	323.0539	460.0619	467.1971	566.4867	600.037	631.9932	676.3275	730.4617	793.5825	828.6642	879.3672	916.219	1035.5432	1066.2666	1094.5616	1125.021	1200.9128	1260.4776	1274.7461	1298.6111	1352.5393	1411.8736	1460.5929	1619.4309	1640.8482	2330.169	3161.3559	3177.3826	3459.4284	3513.4121	3593.398	3604.9848	3606.9727
NC1C(O)C1(N)C#N	N[C@H]1[C@@H](O)[C@]1(N)C#N	
InChI=1S/C4H7N3O/c5-1-4(7)2(6)3(4)8/h2-3,8H,6-7H2	InChI=1S/C4H7N3O/c5-1-4(7)2(6)3(4)8/h2-3,8H,6-7H2/t2-,3+,4-/m0/s1
