19
gdb 39267	2.40745	2.24744	1.5643	1.0768	73.75	-0.2317	0.0853	0.317	907.3732	0.162314	-422.992654	-422.986021	-422.985077	-423.023171	28.446	
C	-0.0479175054	 1.4521911805	 0.0435659158	-0.41896
C	 1.3359283027	 0.8040844652	-0.0579688487	-0.073757
C	 2.1940990959	 0.4410540824	-1.2436964855	-0.112631
O	 2.3039060147	-1.0014860814	-1.3115950642	-0.291204
C	 1.0930506642	-1.7248540653	-1.0402452028	 0.09284
C	 0.8754245029	-2.0136112397	 0.4834846671	-0.097958
O	-0.0152440222	-0.9792136338	 0.9813958994	-0.311816
C	 0.0696880472	-0.0217160873	-0.0439125112	 0.438784
C	-0.1187731925	-0.8289851768	-1.3160336023	-0.303072
H	-0.2598480665	 1.9131728455	 1.0016969983	 0.131936
H	-0.4885425886	 1.9654054725	-0.8062798021	 0.119674
H	 1.8560177754	 0.7897137379	 0.8952907511	 0.103204
H	 1.7958502094	 0.8412871888	-2.1857470733	 0.095472
H	 3.2235364943	 0.7945240481	-1.1482252665	 0.111081
H	 1.1591627775	-2.6473247792	-1.6212458488	 0.082347
H	 0.3956406852	-2.9820876699	 0.654422852	 0.106757
H	 1.8343524525	-1.9798957092	 1.0120865768	 0.108708
H	-0.0505500827	-0.2779408411	-2.2534529679	 0.110266
H	-1.0635620442	-1.3781139073	-1.2858094571	 0.10833
197.0097	272.8974	352.9256	384.683	414.356	466.4095	497.3029	566.0241	586.1418	734.7174	787.901	813.367	838.7539	858.9156	878.8294	896.3601	934.6149	947.4513	971.9891	1011.4872	1029.1896	1052.1198	1080.968	1094.1811	1116.1756	1146.1261	1173.3769	1212.1588	1231.126	1246.6236	1264.5167	1292.7218	1338.9559	1354.036	1364.8876	1385.2592	1423.2197	1478.3537	1484.2653	1503.001	1524.1718	3009.4857	3039.5906	3071.9808	3087.2039	3092.6494	3099.1042	3126.9717	3140.7073	3154.5101	3217.6325
C1C2COC3COC12C3	C1[C@@H]2CO[C@H]3CO[C@@]12C3	
InChI=1S/C7H10O2/c1-5-3-8-6-2-7(1,5)9-4-6/h5-6H,1-4H2	InChI=1S/C7H10O2/c1-5-3-8-6-2-7(1,5)9-4-6/h5-6H,1-4H2/t5-,6-,7-/m1/s1
