14
gdb 12617	3.31379	2.06381	1.35929	5.0038	64.77	-0.232	-0.0935	0.1385	872.2613	0.106814	-382.582456	-382.575204	-382.57426	-382.614233	26.317	
C	-0.1058580971	 1.584106637	 0.0138047174	-0.395938
C	 0.0166245527	 0.0526280358	-0.011563188	-0.162457
C	 0.8235247134	-0.5047999146	-1.1609394051	-0.05892
C	 1.8532396181	-1.2851339044	-0.7937508233	-0.183601
C	 1.9294336226	-1.3913892825	 0.6742413193	 0.28884
O	 2.7013316327	-2.0122124474	 1.3620156188	-0.298102
C	 0.7658946644	-0.5003935027	 1.2062082745	 0.307394
O	 0.5320052293	-0.2771200982	 2.3617152196	-0.282235
H	 0.880431073	 2.057768658	-0.0009270876	 0.130201
H	-0.6714181249	 1.9455706841	-0.8500163121	 0.123626
H	-0.6217126059	 1.896299545	 0.92513074	 0.149384
H	-0.9957797511	-0.375982187	-0.0173027488	 0.12493
H	 0.5682208116	-0.2706438339	-2.1902189194	 0.126203
H	 2.5508568412	-1.7820626592	-1.4556720252	 0.130675
63.7514	210.2263	212.7186	232.0448	315.4499	341.0882	508.5132	548.1701	621.5052	705.3912	715.1365	743.6435	851.5313	887.3032	974.2619	1011.3983	1055.3096	1082.4001	1098.5556	1134.0976	1199.1472	1281.9312	1303.6448	1372.0777	1407.07	1494.0777	1499.7986	1632.6101	1820.9651	1861.1779	3011.6675	3043.0826	3114.2775	3129.6915	3177.8132	3224.4292
CC1C=CC(=O)C1=O	C[C@H]1C=CC(=O)C1=O	
InChI=1S/C6H6O2/c1-4-2-3-5(7)6(4)8/h2-4H,1H3	InChI=1S/C6H6O2/c1-4-2-3-5(7)6(4)8/h2-4H,1H3/t4-/m0/s1
