13
gdb 15930	3.7742	1.95289	1.57585	2.9406	58.52	-0.2758	-0.0181	0.2578	794.2256	0.09578	-398.555204	-398.548683	-398.547739	-398.586047	23.89	
N	-0.057633279	-1.1820631135	-0.1536899334	-0.328791
C	-0.0157993717	-0.0322117497	-0.044903844	 0.237299
C	 0.0512796169	 1.4105126197	 0.0605778151	 0.262223
C	-0.4305784398	 2.2927272126	-1.111243172	-0.119328
O	 0.7497302099	 3.126211596	-1.0086893908	-0.281222
C	 1.3199984686	 2.3092694357	 0.0193925199	 0.015027
C	 0.901284079	 2.7256293857	 1.4356330979	-0.101433
O	-0.3151545408	 1.9267066076	 1.3479161287	-0.318084
H	-0.4771846126	 1.7823645014	-2.0794820617	 0.129539
H	-1.3598427831	 2.8342535399	-0.9117337107	 0.133322
H	 2.3436929711	 1.9956185791	-0.1853008282	 0.116438
H	 1.5508406488	 2.3590523615	 2.238442987	 0.125132
H	 0.6935309426	 3.7914486841	 1.5632891123	 0.12988
125.5864	163.8764	206.3772	368.7393	380.4398	506.951	547.5501	581.1316	708.7597	841.7898	894.4137	921.982	985.7361	986.7036	1025.0637	1060.7403	1096.1856	1115.9525	1145.2876	1167.8281	1185.0175	1250.2523	1308.0267	1337.5681	1362.5908	1499.8466	1501.8464	2357.6713	3037.9482	3039.1689	3104.5156	3106.6669	3120.2182
N#CC12COC1CO2	N#C[C@]12CO[C@H]1CO2	
InChI=1S/C5H5NO2/c6-2-5-3-7-4(5)1-8-5/h4H,1,3H2	InChI=1S/C5H5NO2/c6-2-5-3-7-4(5)1-8-5/h4H,1,3H2/t4-,5-/m0/s1
