18
gdb 67167	2.82326	1.5647	1.54586	3.9629	75.06	-0.2404	-0.0082	0.2323	974.8704	0.148569	-401.937122	-401.929677	-401.928733	-401.968842	29.53	
C	-0.0398183126	 1.5465742058	 0.0512817915	-0.502446
C	-0.0053729202	 0.0540711987	-0.0150023644	 0.342785
C	 0.4886353171	-0.9516787982	-1.029927349	-0.137423
C	 1.307339424	-1.6036953153	 0.0723236669	-0.200798
N	 0.568074567	-0.7605954146	 1.1126752975	-0.208992
C	-0.5044945925	-1.6245680815	 1.5872622203	 0.379383
O	-0.5219621638	-2.1484185036	 2.6617519214	-0.303082
C	-1.5280226275	-1.8122458044	 0.4469070227	-0.361346
C	-0.9930509818	-0.8952447186	-0.629126224	-0.096502
H	 0.9572239126	 1.9591973829	 0.2341709897	 0.132674
H	-0.4179603179	 1.9611667649	-0.8885054538	 0.122357
H	-0.6967430159	 1.8877798871	 0.8594606692	 0.129978
H	 0.7955507699	-0.7901950897	-2.0565665577	 0.093644
H	 1.2328411549	-2.6869555378	 0.2228904	 0.116693
H	 2.3614725189	-1.317610981	 0.0594780276	 0.127163
H	-1.5751800716	-2.8750773126	 0.1875876988	 0.13526
H	-2.5296336558	-1.5186173353	 0.7786854669	 0.134992
H	-1.6557065948	-0.514425227	-1.3983185837	 0.095658
102.0541	196.5061	204.1837	275.6496	311.8976	429.6787	496.4513	569.4379	585.9007	630.8249	703.6844	746.2816	786.6382	839.214	869.3734	909.2354	928.86	954.8774	994.2825	1013.7242	1043.1079	1064.478	1069.8709	1080.5	1136.7278	1174.0635	1179.258	1193.4272	1240.2714	1288.9381	1302.9814	1318.1145	1410.3648	1459.4458	1466.4812	1477.6088	1498.4129	1516.9418	1874.1432	3030.801	3035.9597	3050.3019	3087.0323	3094.9856	3100.9835	3109.3888	3175.6233	3185.4028
CC12C3CN1C(=O)CC23	C[C@@]12[C@H]3CN1C(=O)C[C@@H]23	
InChI=1S/C7H9NO/c1-7-4-2-6(9)8(7)3-5(4)7/h4-5H,2-3H2,1H3	InChI=1S/C7H9NO/c1-7-4-2-6(9)8(7)3-5(4)7/h4-5H,2-3H2,1H3/t4-,5+,7-/m1/s1
