20
gdb 78350	2.29526	1.59357	1.3853	0.2936	78.61	-0.2389	0.0735	0.3124	1060.4171	0.170732	-403.083756	-403.075119	-403.074175	-403.116509	33.801	
C	-0.255814505	 1.5828277541	-0.1020534046	-0.418459
C	 0.0227385022	 0.0866880383	-0.0123592202	-0.064621
C	 1.0603528818	-0.5660584634	-0.9497648517	-0.117246
C	 2.4722481746	-0.2351904468	-0.5984947024	 0.106797
O	 2.8295129639	 1.0498640258	-0.1663816479	-0.418908
C	 1.7616169947	-1.2300286635	 0.2705561436	-0.214739
C	 0.7931899635	-0.5112992662	 1.1867987408	 0.378213
C	 1.0130985886	 0.0597905144	 2.5324227424	-0.309195
N	 0.1895090633	-1.15694319	 2.3456773157	-0.385035
H	 0.6651801033	 2.1574643029	 0.0022292447	 0.146011
H	-0.7106355394	 1.8323896399	-1.0671708921	 0.111446
H	-0.9595609774	 1.8966786237	 0.6782974986	 0.101424
H	-0.9174553457	-0.4710950567	-0.1114887617	 0.077367
H	 0.8132779467	-1.0050660982	-1.9093808613	 0.087853
H	 3.198422314	-0.6873099171	-1.2764696591	 0.089583
H	 3.4710156804	 0.954119095	 0.5451980112	 0.286961
H	 2.1012874977	-2.2494604155	 0.4104670632	 0.096242
H	 1.9508606474	-0.103458566	 3.0581467916	 0.107268
H	 0.5158965459	 0.9955161173	 2.7760761109	 0.111728
H	-0.7986427204	-0.9190751881	 2.4032610283	 0.227311
108.3435	181.351	206.1765	215.8005	233.2531	266.71	328.3309	353.1797	437.9419	540.544	589.4224	658.2065	723.4372	747.2835	807.5296	874.8646	884.3684	925.484	948.819	965.0133	979.4294	998.4774	1008.2714	1042.9547	1073.8761	1098.1267	1109.3519	1118.3886	1155.6558	1204.4065	1242.2116	1248.7096	1262.5363	1294.3709	1313.3389	1339.4793	1362.9897	1402.6555	1425.8114	1451.2881	1491.4702	1506.7176	1514.8968	3018.0711	3029.4162	3083.4354	3087.9205	3098.1011	3147.5009	3174.9251	3181.5789	3187.597	3482.7963	3809.9398
CC1C2C(O)C2C11CN1	C[C@H]1[C@H]2[C@@H](O)[C@H]2[C@]21CN2	
InChI=1S/C7H11NO/c1-3-4-5(6(4)9)7(3)2-8-7/h3-6,8-9H,2H2,1H3	InChI=1S/C7H11NO/c1-3-4-5(6(4)9)7(3)2-8-7/h3-6,8-9H,2H2,1H3/t3-,4+,5-,6+,7+/m0/s1
