23
gdb 88421	2.99378	1.08094	0.99466	1.8047	85.67	-0.2288	0.081	0.3098	1339.0719	0.203719	-388.262011	-388.25179	-388.250846	-388.29694	38.876	
C	 0.9916374313	 1.1989149067	-0.6745419489	-0.4143
C	 0.6999789228	-0.2357568085	-0.2919861501	-0.02796
C	 1.8036549378	-1.195983844	 0.0823430473	-0.362824
C	 0.7760524407	-0.77005559	 1.1241964534	 0.307454
C	 1.2495560024	 0.1294493055	 2.257007431	-0.457267
C	-0.305383932	-1.7195825963	 1.5768524673	-0.114672
C	-0.5470618457	-3.0847231739	 0.9513859117	-0.355324
C	 0.042527251	-2.9761843028	 2.3343764583	 0.136503
O	 1.3733292208	-3.3246312542	 2.589489518	-0.430612
H	 1.8349841067	 1.6128963697	-0.1155916097	 0.116213
H	 1.2419010517	 1.2684451695	-1.7390133772	 0.118957
H	 0.1245570651	 1.8449452806	-0.4962373655	 0.117797
H	-0.0989536504	-0.6863118229	-0.8763065407	 0.087376
H	 1.784649913	-2.1958462348	-0.3386781755	 0.113611
H	 2.8041775109	-0.786666568	 0.1900377078	 0.109123
H	 2.0372759442	 0.8185340859	 1.9429375803	 0.111732
H	 0.4209948036	 0.7277631689	 2.6541689192	 0.115085
H	 1.6420496676	-0.4766516463	 3.0803910108	 0.128577
H	-1.1990427512	-1.2001164158	 1.9190648789	 0.083945
H	-1.5711397918	-3.4241428229	 0.8362993451	 0.109917
H	 0.1192720607	-3.4160758314	 0.1619032725	 0.113193
H	-0.577553904	-3.2606034335	 3.178345487	 0.100603
H	 1.9322749446	-2.8195876712	 1.9893925692	 0.292874
48.1717	120.0881	161.5708	190.8784	207.176	222.5947	260.009	286.5247	347.2742	368.1699	423.0567	439.0023	500.0969	586.863	676.1499	776.8718	799.8075	809.2806	867.474	891.6577	923.7042	951.3471	991.3448	1000.3359	1019.6596	1057.2814	1063.3001	1081.6528	1106.8177	1111.4487	1127.6196	1141.2406	1155.0115	1191.9178	1230.1342	1263.9538	1312.9078	1325.5678	1386.0777	1403.715	1416.3814	1424.9047	1435.3769	1483.9956	1486.7141	1493.7482	1496.6861	1500.2419	1515.7314	3027.4134	3031.63	3086.4129	3088.6037	3104.7918	3111.8989	3116.7006	3120.8178	3128.6468	3135.4472	3162.6987	3201.3655	3214.0813	3810.4083
CC1CC1(C)C1CC1O	C[C@H]1C[C@]1(C)[C@H]1C[C@H]1O	
InChI=1S/C8H14O/c1-5-4-8(5,2)6-3-7(6)9/h5-7,9H,3-4H2,1-2H3	InChI=1S/C8H14O/c1-5-4-8(5,2)6-3-7(6)9/h5-7,9H,3-4H2,1-2H3/t5-,6-,7+,8-/m0/s1
