18
gdb 80460	2.64567	1.46908	1.24122	2.6895	72.28	-0.2441	-0.0394	0.2046	1071.1277	0.147587	-439.07664	-439.068302	-439.067358	-439.109549	31.73	
C	-0.1578860084	 1.5180878241	 0.0726713722	-0.437921
C	 0.0222430546	 0.0237263492	-0.0782447466	 0.019161
C	 0.6863606571	-0.6828660538	-1.2302165741	-0.181879
N	 1.2534420465	-0.7196619991	 0.1475084398	-0.118883
C	 2.5093565507	 0.0847041236	 0.1491029102	-0.188408
C	 2.6862714255	 0.7673965244	-1.2169221778	 0.026386
O	 3.9703895354	 0.5519487738	-1.7549767372	-0.4414
C	 1.630933441	 0.0652161535	-2.0999160023	 0.392898
O	 1.7159386974	 0.02274391	-3.3041825023	-0.340266
H	 0.6241968139	 2.1173468652	-0.3949456415	 0.1338
H	-1.1126654593	 1.8143793897	-0.3729681804	 0.137525
H	-0.1951086324	 1.7831076453	 1.1349835683	 0.136302
H	-0.8341525443	-0.527185077	 0.3101160743	 0.110446
H	 0.2488086163	-1.5884104648	-1.638028227	 0.118205
H	 2.4942555206	 0.7830355664	 0.9893063486	 0.115533
H	 3.3426254635	-0.6080217758	 0.2915067952	 0.136712
H	 2.4658211314	 1.8465766857	-1.1797795048	 0.090047
H	 3.8529236706	 0.5294829798	-2.7160841446	 0.291742
81.1822	153.0011	155.0169	228.4993	269.7468	356.7408	389.5548	439.5864	453.7049	499.033	625.2212	657.2929	700.8757	763.1272	773.4436	811.3092	938.4934	949.5909	983.6071	1008.6691	1033.6809	1081.6855	1119.9638	1143.9839	1161.1627	1203.8183	1223.802	1254.0138	1288.4178	1310.4503	1351.215	1375.5585	1410.0435	1416.9872	1425.1004	1484.8365	1492.6536	1503.6328	1825.6918	2963.1835	3043.8403	3068.1291	3101.6142	3104.5057	3117.2707	3142.424	3167.9629	3729.6889
CC1C2N1CC(O)C2=O	C[C@H]1[C@@H]2N1C[C@@H](O)C2=O	
InChI=1S/C6H9NO2/c1-3-5-6(9)4(8)2-7(3)5/h3-5,8H,2H2,1H3	InChI=1S/C6H9NO2/c1-3-5-6(9)4(8)2-7(3)5/h3-5,8H,2H2,1H3/t3-,4+,5-,7?/m0/s1
