15
gdb 50898	4.72526	0.66388	0.60558	2.6776	70.34	-0.2618	-0.0353	0.2265	1739.7353	0.108134	-457.7614	-457.751665	-457.750721	-457.798448	32.579	
O	-0.0437354314	 1.076266601	 1.3228558712	-0.231673
C	 0.0585062399	 1.3849033426	 0.1666210183	 0.164393
C	 1.3969896947	 1.66020024	-0.5101410953	-0.396213
C	 1.2786388703	 2.7476350707	-1.5564021391	 0.443244
O	 0.370897305	 2.8378984877	-2.345607386	-0.353433
O	 2.3118361222	 3.6057524744	-1.4914991004	-0.233548
C	 2.2722972719	 4.6732926117	-2.4685662386	-0.233664
C	 3.4580253362	 5.4943164927	-2.3077949449	 0.286636
C	 4.4277580644	 6.1935393341	-2.2011224894	-0.406719
H	-0.8187713073	 1.4790885638	-0.5053074764	 0.114043
H	 2.1662537493	 1.8729816506	 0.2320490968	 0.154336
H	 1.6755445095	 0.7383671217	-1.040475683	 0.166834
H	 2.2178534926	 4.2373774776	-3.4714167876	 0.157835
H	 1.3574487972	 5.256684711	-2.3209222346	 0.158137
H	 5.2865024355	 6.8113470604	-2.104682241	 0.20979
23.0868	44.3313	87.9608	108.0308	162.719	222.1181	289.4983	327.2038	355.2978	462.7987	535.609	597.4781	623.4383	690.819	737.0002	786.4312	940.8797	965.3338	1013.4566	1030.4146	1049.1973	1061.1382	1161.8581	1229.6362	1250.0114	1322.1647	1398.3881	1410.7267	1437.264	1486.7803	1806.803	1842.9138	2253.1297	2935.4104	3030.7135	3050.7013	3086.7931	3143.9009	3503.8655
O=CCC(=O)OCC#C	O=CCC(=O)OCC#C	
InChI=1S/C6H6O3/c1-2-5-9-6(8)3-4-7/h1,4H,3,5H2	InChI=1S/C6H6O3/c1-2-5-9-6(8)3-4-7/h1,4H,3,5H2
