16
gdb 108729	3.09749	1.28225	0.96409	6.2927	75.35	-0.2194	-0.0357	0.1837	1192.8411	0.124388	-437.888733	-437.880536	-437.879591	-437.921687	30.224	
C	-0.0325653408	 1.4161068354	 0.1455757536	-0.328325
N	-0.0337600487	-0.0178351511	-0.0634902303	-0.380168
C	 0.5937212851	-0.6033624906	-1.1031540244	 0.435673
C	 1.2411677698	-0.030614553	-2.1593434766	-0.369843
C	 1.7299810679	-1.0581683915	-3.0770937968	 0.418006
O	 2.2908177102	-0.9275025065	-4.144390667	-0.355012
C	 1.3720698044	-2.4104258748	-2.4371755096	-0.090426
O	 1.9892416767	-2.6124337914	-1.1488901229	-0.245949
C	 0.6476775922	-2.1066748982	-1.2060598588	-0.089246
H	 0.9755157292	 1.8010913802	 0.3478674311	 0.141947
H	-0.4209026483	 1.9243507381	-0.7433717431	 0.150175
H	-0.6785102327	 1.6573571094	 0.9913327966	 0.136217
H	-0.3179211971	-0.6051383921	 0.7026715503	 0.256313
H	 1.4336246155	 1.0224236807	-2.3061709341	 0.102187
H	 1.2205914316	-3.2970132539	-3.0442289985	 0.113194
H	-0.1279080451	-2.7332363408	-0.7737380095	 0.105257
104.6015	128.2352	174.3939	185.8499	243.6438	345.9316	371.7461	440.8345	457.6683	599.3942	639.1059	694.8828	746.5232	814.3857	842.827	857.3423	894.4763	927.8441	1015.3432	1055.3315	1091.4091	1151.8188	1170.1531	1192.939	1234.1465	1282.1676	1297.3104	1331.3431	1403.5245	1459.2369	1480.5289	1511.396	1551.497	1655.6969	1802.1865	3016.859	3078.6996	3136.6758	3151.4656	3179.1928	3234.5723	3646.7446
CNC1=CC(=O)C2OC12	CNC1=CC(=O)[C@H]2O[C@@H]12	
InChI=1S/C6H7NO2/c1-7-3-2-4(8)6-5(3)9-6/h2,5-7H,1H3	InChI=1S/C6H7NO2/c1-7-3-2-4(8)6-5(3)9-6/h2,5-7H,1H3/t5-,6+/m0/s1
