20
gdb 58843	3.03298	1.26045	1.1767	2.2055	78.86	-0.2272	0.0072	0.2344	1155.1835	0.171108	-403.132736	-403.123953	-403.123009	-403.166131	33.867	
C	 0.0492144272	 1.4276170975	-0.2716124701	-0.423702
C	-0.0010494257	-0.0327273363	 0.1767353822	 0.060627
O	 0.6702499848	-0.2307877947	 1.4191929293	-0.432161
C	-1.4231595046	-0.5665378857	 0.2259539502	 0.334761
C	-2.395564539	-0.0709548197	 1.3030837361	-0.35039
C	-3.329178888	-1.2447041727	 1.5147317502	-0.088881
C	-2.9592702143	-2.3086007889	 0.7959719059	-0.074832
C	-1.7781860146	-1.9921024273	-0.0595569037	-0.118734
N	-1.9808779944	-0.9328884798	-1.0824533217	-0.375818
H	 1.0852567279	 1.7715770033	-0.3375782353	 0.121445
H	-0.4235398754	 1.5402315982	-1.2511675316	 0.137473
H	-0.4827278898	 2.0760628353	 0.4368430121	 0.104807
H	 0.5448142855	-0.6422340252	-0.5514686936	 0.093605
H	 0.4717328984	 0.520115418	 1.9873154229	 0.278721
H	-1.8566629228	 0.1696224214	 2.2294001697	 0.10549
H	-2.9286936569	 0.8411021217	 1.0043532976	 0.110527
H	-4.1974074702	-1.1894641467	 2.161554124	 0.098719
H	-3.4516136529	-3.2739180165	 0.7898213958	 0.101193
H	-1.0496182802	-2.7523858358	-0.3218138852	 0.095267
H	-2.9717522451	-0.7020082962	-1.1320045547	 0.221883
58.7897	139.1236	194.084	215.9605	264.0678	291.8617	319.1835	369.2746	476.8769	501.1415	534.5685	624.4808	729.471	747.6338	782.5511	867.8827	885.7016	912.3957	940.1629	955.2896	981.8533	994.3903	1014.7899	1040.8437	1083.027	1103.7444	1127.0076	1139.1072	1167.9766	1186.773	1273.5817	1279.6849	1297.6768	1314.2115	1348.9362	1384.1128	1394.7393	1404.5943	1429.4841	1465.8168	1492.856	1495.6398	1662.55	3014.6926	3022.0785	3044.8816	3053.3013	3097.0203	3124.4065	3163.3084	3188.7276	3214.1512	3473.3463	3817.7061
CC(O)C12CC=CC1N2	C[C@@H](O)[C@]12CC=C[C@H]1N2	
InChI=1S/C7H11NO/c1-5(9)7-4-2-3-6(7)8-7/h2-3,5-6,8-9H,4H2,1H3	InChI=1S/C7H11NO/c1-5(9)7-4-2-3-6(7)8-7/h2-3,5-6,8-9H,4H2,1H3/t5-,6-,7-/m1/s1
