22
gdb 6049	2.90514	1.45281	1.25767	2.6431	74.09	-0.2606	0.0669	0.3275	1093.7683	0.196959	-387.339337	-387.328759	-387.327815	-387.373875	39.044	
C	-0.1156411967	 1.5637940941	-0.0826482033	-0.4254
C	 0.0295286001	 0.0424167641	 0.0158670728	 0.127423
O	 0.718559415	-0.4600532678	-1.1285790678	-0.442907
C	 0.7927956375	-0.4894723073	 1.258816415	 0.267207
C	 0.7555688539	-2.0308621427	 1.2244120837	-0.412186
C	 2.2562946937	-0.010171287	 1.2675929099	-0.414901
C	 0.0780323163	 0.0007174293	 2.5305768762	-0.10234
O	 0.6886952166	-0.6073769652	 3.6611306822	-0.42513
H	 0.8597741259	 2.0563875475	-0.1112696643	 0.129486
H	-0.6499351883	 1.8251494823	-1.0041437697	 0.101516
H	-0.6940453462	 1.9765139147	 0.7490868352	 0.117814
H	-0.9838844339	-0.3941553042	 0.0530285974	 0.057617
H	 0.2614293872	-0.1414265111	-1.9124806375	 0.27939
H	 1.2513021632	-2.4042741242	 0.3267090927	 0.126176
H	 1.2488066899	-2.4436666452	 2.1062446155	 0.126002
H	-0.2782978676	-2.3967644169	 1.21638065	 0.095115
H	 2.3269671539	 1.0802167017	 1.341221854	 0.098688
H	 2.7795594999	-0.4308837232	 2.129268318	 0.124608
H	 2.7666999437	-0.3228897653	 0.3543087406	 0.126275
H	 0.1491539654	 1.0959062979	 2.6041259536	 0.081825
H	-0.9923557033	-0.2613096336	 2.4760147436	 0.077307
H	 0.2663047638	-0.2598307779	 4.4512234224	 0.286413
69.6227	118.3985	198.6243	216.5359	229.9284	237.4875	248.7606	256.4735	284.4777	310.2246	343.2657	382.561	385.5009	444.974	498.0169	601.064	727.6459	849.4904	920.2129	934.4211	963.695	975.4442	1012.4152	1050.6996	1065.1348	1108.5744	1134.6314	1193.2629	1199.451	1235.4561	1260.7322	1293.4458	1326.9391	1377.5933	1388.9998	1398.508	1410.1909	1423.0207	1460.5442	1486.5549	1489.6238	1498.3491	1500.3727	1503.0232	1516.124	1524.5484	2939.3184	2956.2015	3001.5707	3031.3307	3034.4915	3045.5117	3093.5447	3109.6265	3113.032	3126.4917	3136.7358	3145.9266	3826.3926	3839.6435
CC(O)C(C)(C)CO	C[C@@H](O)C(C)(C)CO	
InChI=1S/C6H14O2/c1-5(8)6(2,3)4-7/h5,7-8H,4H2,1-3H3	InChI=1S/C6H14O2/c1-5(8)6(2,3)4-7/h5,7-8H,4H2,1-3H3/t5-/m1/s1
