21
gdb 93629	3.19884	1.18085	0.98474	1.0402	84.59	-0.2574	0.0431	0.3005	1268.7784	0.182058	-387.077228	-387.067697	-387.066752	-387.111501	36.246	
C	-0.5710959023	 1.432783293	 0.0817987393	-0.417976
C	-0.0327401454	 0.0040189683	 0.1094551624	 0.036054
C	 0.5543729098	-0.4907344337	-1.2344975065	-0.212852
C	 1.5865908008	-1.5944606494	-0.877999212	-0.221996
C	 1.6360760611	-1.6329731286	 0.6820425344	-0.184441
C	 2.9442796022	-1.9297869444	 1.2437589504	 0.268886
C	 4.0370768321	-2.1047561101	 1.7177144215	-0.435313
C	 1.1088816507	-0.2342667485	 1.1062154413	 0.116222
O	 2.0910029122	 0.766091255	 0.9101600982	-0.442501
H	 0.2309073207	 2.1394238257	-0.1458918903	 0.13718
H	-1.3517319061	 1.5389812503	-0.6787619183	 0.107931
H	-1.0052910402	 1.7141403234	 1.0470382744	 0.108866
H	-0.8442374683	-0.6750088358	 0.405833154	 0.067482
H	-0.2294041614	-0.853280263	-1.9054217975	 0.094052
H	 1.0535922375	 0.3396711863	-1.7415516822	 0.11194
H	 1.3146861371	-2.5749602563	-1.2762838621	 0.104201
H	 2.5740635253	-1.3505438407	-1.2740703839	 0.116786
H	 0.9170998434	-2.3771276604	 1.0476183752	 0.102179
H	 4.9965397291	-2.2965329479	 2.1306784	 0.196211
H	 0.7605245303	-0.2410803949	 2.1499893059	 0.061508
H	 2.9005195913	 0.4626506919	 1.3394396157	 0.285579
59.2818	109.7691	131.5572	203.5448	223.8031	251.2005	318.3097	360.5473	394.7005	458.833	509.7363	556.8556	616.3294	624.7256	643.5444	696.6603	825.2004	836.4901	850.803	914.7223	961.6537	989.4532	1002.7426	1013.5454	1046.4574	1088.368	1132.7233	1164.3327	1190.9932	1218.3804	1268.1611	1280.9308	1297.6147	1308.1711	1316.728	1355.7461	1357.8123	1387.4794	1406.7538	1427.9647	1485.9622	1494.4419	1503.3788	1508.1762	2224.9387	2986.0903	3007.7023	3027.0663	3035.7913	3055.6061	3073.0365	3092.88	3096.6763	3120.361	3124.5171	3502.543	3772.5961
CC1CCC(C#C)C1O	C[C@H]1CC[C@@H](C#C)[C@H]1O	
InChI=1S/C8H12O/c1-3-7-5-4-6(2)8(7)9/h1,6-9H,4-5H2,2H3	InChI=1S/C8H12O/c1-3-7-5-4-6(2)8(7)9/h1,6-9H,4-5H2,2H3/t6-,7+,8-/m0/s1
