19
gdb 83662	2.26033	1.71624	1.32178	2.4655	78.35	-0.2255	0.0207	0.2462	1045.113	0.160475	-382.042153	-382.03387	-382.032926	-382.075533	31.327	
C	 0.2095777597	 1.6312063581	 0.1337288634	-0.423544
C	 0.1227657737	 0.1245809695	-0.0120517957	 0.053725
C	 1.1246397731	-0.6300640779	-0.9738435483	-0.225007
C	 2.246858044	 0.1304487637	-1.4910685403	 0.293898
N	 3.1461767592	 0.7525623818	-1.8700332152	-0.345667
C	 1.4132244111	-1.565935356	 0.2478830162	 0.033525
C	 2.6371560217	-1.2598684539	 1.12873925	-0.26046
C	 1.7050956593	-0.3168140805	 1.938020073	-0.176787
N	 0.5059856685	-0.7522643184	 1.1423275094	-0.138202
H	 1.235241943	 1.9889938459	 0.2520518445	 0.143281
H	-0.2034532392	 2.1137238014	-0.7575211397	 0.131139
H	-0.3780004601	 1.9575998231	 0.9980224593	 0.132025
H	-0.8997130028	-0.1436472997	-0.298001898	 0.09699
H	 0.6286804027	-1.1346621371	-1.8061721803	 0.123355
H	 1.1526788592	-2.6132426173	 0.0752602444	 0.086925
H	 2.9911361351	-2.1267585075	 1.6895925233	 0.113454
H	 3.4864256901	-0.7946179155	 0.6244445422	 0.134838
H	 1.590364017	-0.5701770068	 2.9953265438	 0.1137
H	 1.9433013348	 0.747374407	 1.8686353979	 0.11281
40.8102	136.1276	161.0569	208.1701	294.3853	336.0283	357.862	476.9119	514.6873	599.9406	673.4041	714.4372	769.0234	778.7236	841.9717	871.6129	921.381	965.0734	968.957	992.2195	1020.7203	1068.8041	1122.3053	1130.4965	1142.7685	1187.9657	1206.828	1217.8062	1232.42	1268.559	1294.3468	1301.1673	1321.116	1343.4317	1383.3369	1410.312	1483.0888	1487.0212	1492.9397	1518.8759	2342.6668	3038.9327	3042.4234	3058.6521	3066.5172	3077.738	3087.8985	3101.3588	3110.4138	3124.0626	3132.4215
CC1C(C#N)C2CCN12	C[C@H]1[C@@H](C#N)[C@H]2CCN12	
InChI=1S/C7H10N2/c1-5-6(4-8)7-2-3-9(5)7/h5-7H,2-3H2,1H3	InChI=1S/C7H10N2/c1-5-6(4-8)7-2-3-9(5)7/h5-7H,2-3H2,1H3/t5-,6+,7+/m0/s1
