19
gdb 39039	2.40382	2.19341	1.44987	2.0947	79.33	-0.2432	0.0047	0.248	940.5582	0.161991	-385.845082	-385.838401	-385.837457	-385.875556	28.852	
C	 0.047224741	 1.5822903632	-0.1064839558	-0.286152
C	 1.5652092578	 1.3078511754	 0.1086425572	-0.057286
C	 1.135869726	 0.019956588	 0.9345832942	-0.308768
C	-0.0534707349	 0.0668339867	-0.0296066401	 0.412722
O	-1.166307542	-0.7290877215	-0.3928568693	-0.331072
C	 0.0284566905	-0.7643086862	-1.2153426257	 0.019689
C	 0.2932535341	-0.0571945052	-2.5236243453	-0.327942
C	 1.6944561407	 0.5402497257	-2.3575229088	-0.060766
C	 2.2315697316	 1.0502398624	-1.2358080218	-0.050964
H	-0.4077528843	 2.0569855815	 0.7683772944	 0.099863
H	-0.2555034359	 2.1061672371	-1.0129848378	 0.105866
H	 2.1287457944	 2.0483234525	 0.6786057473	 0.072605
H	 1.7823223668	-0.8585704545	 0.9081324198	 0.10556
H	 0.907873294	 0.3008963336	 1.9672700709	 0.102582
H	 0.5648707227	-1.7079538012	-1.1121408254	 0.09409
H	 0.2761186147	-0.7392893588	-3.3795800772	 0.104066
H	-0.4581293972	 0.7148150141	-2.7219797836	 0.127033
H	 2.3292123517	 0.5007723297	-3.2397276005	 0.089523
H	 3.2646126882	 1.3851295773	-1.3010766724	 0.08935
232.8486	280.1855	342.8013	392.6231	412.9097	440.9001	479.4205	547.6835	573.8079	688.9777	735.9091	787.4467	833.3735	854.6836	865.3559	915.1522	946.7431	956.5932	970.8013	996.882	1012.0856	1053.2049	1066.5289	1098.459	1101.8369	1132.4182	1158.7898	1179.1276	1188.1644	1223.3869	1257.1341	1264.0881	1318.1181	1349.3127	1369.3302	1407.8391	1475.3538	1488.7385	1510.3243	1526.0724	1670.9986	3044.9178	3054.5199	3059.8837	3077.3289	3092.956	3106.4787	3128.6202	3134.7244	3138.1285	3161.7329
C1C2CC11OC1CC=C2	C1[C@H]2C[C@]31O[C@H]3CC=C2	
InChI=1S/C8H10O/c1-2-6-4-8(5-6)7(3-1)9-8/h1-2,6-7H,3-5H2	InChI=1S/C8H10O/c1-2-6-4-8(5-6)7(3-1)9-8/h1-2,6-7H,3-5H2/t6-,7-,8-/m0/s1
