17
gdb 37203	2.76332	2.06472	1.75291	2.1043	69.99	-0.2163	0.048	0.2644	846.5181	0.137697	-417.868583	-417.861948	-417.861004	-417.899092	27.754	
C	-0.0349321664	 1.5186970912	-0.0566427874	-0.216068
N	 1.4751108203	 1.5509265044	 0.0257774596	-0.37301
C	 1.526557826	 0.0711133135	-0.0383459625	 0.211906
C	 1.5555626157	-0.7366019173	 1.2887234794	-0.221047
N	 0.0553596419	-0.696770469	 1.3236909794	-0.367156
C	 0.0077417995	-0.0385205055	 0.0067122462	 0.201837
C	 0.0568067225	-0.8861705136	-1.2794584463	-0.048605
O	 0.6943995023	-0.0821479779	-2.2734037583	-0.226866
C	 1.5425090166	-0.7521603882	-1.3376791935	-0.052246
H	-0.5077830271	 1.9935865426	 0.8067211452	 0.111543
H	-0.4468470137	 1.9226290793	-0.9856125863	 0.110795
H	 1.9133188253	 2.010159745	-0.7651709273	 0.225188
H	 1.9997859521	-1.736836738	 1.2133406044	 0.096707
H	 2.0093762423	-0.2053746142	 2.129830529	 0.120531
H	-0.4120168093	-1.5937302122	 1.3866984674	 0.220652
H	-0.6060625198	-1.6694901127	-1.6345635176	 0.103224
H	 2.3072951219	-1.4015940473	-1.7525894013	 0.102615
193.56	262.687	302.5008	345.9513	352.2567	535.1154	553.4649	601.2427	642.0736	736.1031	759.2525	809.5569	833.3569	857.068	876.6735	899.6671	944.8485	955.2265	971.7739	1000.3841	1036.2503	1093.4715	1119.6494	1128.671	1150.4008	1169.3637	1189.3724	1249.6687	1258.2948	1268.6934	1294.9217	1316.5466	1340.648	1369.6762	1383.4041	1480.6428	1497.4083	3019.5379	3049.5891	3088.1655	3109.3156	3152.8563	3167.6102	3536.0397	3538.8859
C1NC23CNC12C1OC31	C1N[C@@]23CN[C@@]12[C@H]1O[C@@H]31	
InChI=1S/C6H8N2O/c1-5-3-4(9-3)6(5,7-1)2-8-5/h3-4,7-8H,1-2H2	InChI=1S/C6H8N2O/c1-5-3-4(9-3)6(5,7-1)2-8-5/h3-4,7-8H,1-2H2/t3-,4+,5-,6-/m1/s1
