14
gdb 37499	3.46419	2.35823	2.0479	2.0524	64.9	-0.2179	-0.1151	0.1028	704.4813	0.101131	-436.514728	-436.509336	-436.508391	-436.544057	23.524	
O	-0.0303354518	 1.4304933888	 0.0205572632	-0.26833
C	 1.4092244896	 1.358988266	 0.0343827206	 0.088745
C	 1.3512986602	-0.0233669453	 0.8080296803	-0.130295
C	 0.0002745767	 0.0083516233	-0.025170393	 0.120216
C	 0.7221538663	-0.4023385608	-1.4026632808	-0.084293
N	 1.3721025311	-1.6019235443	-0.8059075317	-0.191136
C	 2.2493158039	-0.9145666442	-0.1346536284	 0.154368
O	 2.9876589334	 0.0184605605	-0.9554593457	-0.247309
C	 1.8379401268	 0.7494550425	-1.3213421515	 0.016431
H	 1.916537902	 2.2474242451	 0.4036360545	 0.108521
H	 1.3445907941	-0.0340701623	 1.8908021582	 0.121911
H	-0.929725472	-0.4848661985	 0.2468744452	 0.110072
H	 0.121995451	-0.5413254786	-2.2981676943	 0.09951
H	 1.9887974187	 1.3937006875	-2.1830786766	 0.101589
281.5329	433.4342	454.2747	523.2156	628.771	660.2814	682.4445	727.1515	749.0181	778.9329	803.9479	816.3653	856.034	894.2201	926.0537	939.1109	947.6138	982.9001	1046.9718	1066.0284	1079.0116	1091.5158	1150.8043	1171.3091	1184.244	1214.2332	1224.0613	1266.3128	1272.806	1326.7141	1357.0473	3153.3914	3156.7644	3163.3947	3169.2095	3212.4462
O1C2C3C1C1N=C3OC21	O1[C@H]2[C@H]3[C@@H]1[C@@H]1[N][C]3O[C@H]21	
InChI=1S/C6H5NO2/c7-2-3-1-4(8-3)5(2)9-6(1)7/h1-5H	InChI=1S/C6H5NO2/c7-2-3-1-4(8-3)5(2)9-6(1)7/h1-5H/t1-,2+,3-,4+,5+/m1/s1
