23
gdb 38351	2.33143	1.77406	1.30042	0.3156	89.85	-0.23	0.0221	0.2522	1092.3183	0.210126	-351.14187	-351.134125	-351.133181	-351.173565	32.355	
C	 0.0630963153	 1.6121052662	 0.0500717733	-0.239009
C	 1.6016726182	 1.3859201196	 0.0791152243	 0.017222
C	 1.2959960714	-0.0129776564	 0.6969302345	-0.225971
C	-0.13410923	 0.0716674299	 0.0539660759	-0.04073
C	-0.1864588774	-0.6479892561	-1.2657128753	-0.040896
C	 0.0084759047	-0.2042086432	-2.5111638837	-0.066158
C	 0.269399191	 1.2117595697	-2.9822704062	-0.257917
C	 1.6054222764	 1.8872576725	-2.5277223218	-0.192728
C	 2.3189548999	 1.3022647381	-1.2967955388	-0.198758
H	-0.2688705652	 2.0202111131	 1.0095912104	 0.090987
H	-0.3803015893	 2.2163335911	-0.7387163181	 0.093382
H	 2.1461095751	 2.0733066649	 0.7319283736	 0.05959
H	 1.9345970483	-0.8480635176	 0.396307375	 0.092792
H	 1.2429227835	 0.0231493931	 1.7892128089	 0.091597
H	-0.9474443044	-0.2960974582	 0.6884119618	 0.065053
H	-0.3581042385	-1.7190431554	-1.1528907233	 0.078877
H	-0.0307973839	-0.9530738661	-3.2998895713	 0.079539
H	 0.2508450362	 1.2130576713	-4.0765777569	 0.093033
H	-0.5729883115	 1.8445299303	-2.6882001954	 0.118055
H	 2.3191816528	 1.8307569183	-3.3576936526	 0.095905
H	 1.4172973094	 2.9565369489	-2.3730259337	 0.094944
H	 3.2832422048	 1.8168714614	-1.2121670293	 0.089339
H	 2.5624467835	 0.2569808446	-1.5116324116	 0.10185
158.2396	186.2384	212.9181	267.7113	316.9921	367.8345	436.6168	501.4087	571.9466	657.5035	713.6774	764.236	777.3223	797.3966	802.3981	843.4524	855.1313	920.0767	927.6174	962.0232	988.2596	1008.9498	1023.329	1059.8206	1077.7877	1087.1532	1103.5792	1137.0992	1151.0974	1181.852	1225.1736	1245.7009	1252.6485	1261.7606	1276.1863	1295.5544	1306.3956	1342.6757	1360.4364	1374.9023	1384.7268	1395.7499	1430.3418	1474.9733	1483.6421	1493.2258	1501.5259	1526.2233	1716.9488	3021.6979	3032.2835	3036.5325	3046.9544	3050.0721	3050.706	3055.262	3068.7666	3076.7283	3081.7614	3104.4039	3111.3405	3143.5618	3146.2466
C1C2CC1C=CCCC2	C1[C@H]2C[C@@H]1C=CCCC2	
InChI=1S/C9H14/c1-2-4-8-6-9(7-8)5-3-1/h2,4,8-9H,1,3,5-7H2/b4-2-	InChI=1S/C9H14/c1-2-4-8-6-9(7-8)5-3-1/h2,4,8-9H,1,3,5-7H2/b4-2-/t8-,9+
