17
gdb 44142	2.852	1.40595	1.16154	3.0378	71.64	-0.2467	-0.0165	0.2302	1076.9454	0.135496	-421.784755	-421.777008	-421.776064	-421.817737	29.237	
O	 0.7655731646	 0.1478420094	 0.2204516871	-0.32258
C	 0.433485797	 1.2991191133	 0.2462188154	 0.427342
C	-0.9533456558	 1.993986721	 0.2859954062	-0.361265
C	-0.2201139726	 3.3069928047	-0.0349803161	-0.082621
C	 0.7660662524	 3.6432122214	 1.0269044638	-0.047707
C	 0.5594785128	 3.4099563796	 2.4964322749	 0.044344
C	 1.0430127326	 2.2279092883	 3.2268856057	-0.178593
O	 1.7381415447	 3.4707201942	 3.3031589199	-0.232415
C	 1.1637393867	 2.5878910877	 0.0001909563	-0.2038
H	-1.5727595063	 1.6231060509	-0.5355477316	 0.134368
H	-1.5269824765	 1.9474803059	 1.2149349694	 0.123667
H	-0.5451604801	 4.0260475646	-0.7751615121	 0.108486
H	 1.2918415823	 4.5788628384	 0.8422965633	 0.117383
H	-0.2853904431	 3.9549343555	 2.9229487633	 0.098955
H	 0.5317695431	 1.9191865535	 4.1380002599	 0.117406
H	 1.5598470783	 1.4352456262	 2.6911073874	 0.142827
H	 2.0456034298	 2.7149164552	-0.6154292428	 0.114202
57.4999	98.7421	167.8758	229.3491	330.7138	445.0882	466.7157	500.0875	633.8121	659.3354	751.6713	787.5927	832.9901	866.6028	871.3071	911.1703	955.8619	965.7881	1001.3432	1023.4848	1038.9623	1087.829	1095.6262	1113.54	1143.9754	1156.1066	1174.7604	1187.9339	1216.9585	1290.2489	1296.0437	1324.7214	1410.9177	1440.0218	1462.3838	1526.5041	1878.1327	3064.6258	3083.7305	3092.9273	3117.1494	3126.815	3185.4137	3196.1998	3207.1944
O=C1CC2C(C3CO3)C12	O=C1C[C@H]2[C@@H]([C@H]3CO3)[C@@H]12	
InChI=1S/C7H8O2/c8-4-1-3-6(4)7(3)5-2-9-5/h3,5-7H,1-2H2	InChI=1S/C7H8O2/c8-4-1-3-6(4)7(3)5-2-9-5/h3,5-7H,1-2H2/t3-,5-,6-,7+/m1/s1
