21
gdb 111344	2.40634	1.41094	1.06213	1.7258	82.2	-0.2443	0.0695	0.3139	1206.4491	0.182695	-387.036749	-387.028094	-387.027149	-387.070012	33.918	
O	 0.043337659	 1.4785895378	-0.1010654146	-0.422253
C	 0.0709142662	 0.077011075	 0.1309406622	-0.081473
C	-1.3187985269	-0.5401929724	 0.0517987144	-0.099543
C	-2.0238758344	-0.557989726	-1.3225377571	-0.078411
C	-1.3377828161	-1.4846519246	-2.2943931804	-0.290744
C	-2.2146757988	-2.0751366716	-1.2267212103	-0.130769
C	-1.4849573567	-2.079645736	 0.1027324907	 0.372108
C	-0.5285089031	-3.1201993467	 0.6181040126	-0.328569
C	-1.8559002205	-2.8867588409	 1.3075498511	-0.340728
H	-0.3094024198	 1.6114561856	-0.9872947799	 0.284843
H	 0.7570956316	-0.4282314723	-0.5661050623	 0.085432
H	 0.4861666774	-0.0502797654	 1.1372370773	 0.104335
H	-1.959321002	-0.0581517003	 0.7978559736	 0.081478
H	-2.7433147919	 0.1797743314	-1.6566398631	 0.088177
H	-1.7570133893	-1.4851719233	-3.2957966208	 0.110705
H	-0.2623473124	-1.6390778127	-2.2647734483	 0.110924
H	-3.0974497271	-2.6600438993	-1.4574233403	 0.087264
H	-0.403620726	-4.0300731463	 0.0395939936	 0.111507
H	 0.371343674	-2.791406153	 1.1279793913	 0.112804
H	-1.8510193119	-2.396305171	 2.2762161844	 0.111683
H	-2.6275310813	-3.6424083679	 1.1969408758	 0.111229
81.1789	133.8386	150.6818	244.4288	257.1259	278.4559	335.4186	437.3603	473.245	535.7391	566.8439	751.7455	764.044	793.6192	807.2003	895.4487	902.6584	914.0445	931.3493	948.7633	996.7931	1010.3831	1022.2736	1052.2878	1056.5196	1066.1724	1076.1443	1086.2307	1094.4282	1127.3245	1177.6644	1187.3003	1205.6406	1227.6319	1235.5899	1286.0529	1333.9042	1342.4414	1389.5328	1400.7239	1421.2424	1463.4029	1485.112	1503.8714	1507.3477	2985.1569	3049.5399	3065.0236	3114.2012	3118.9709	3125.1107	3173.5685	3182.2097	3197.0103	3201.5778	3212.6555	3809.7586
OCC1C2CC2C11CC1	OC[C@H]1[C@H]2C[C@H]2C21CC2	
InChI=1S/C8H12O/c9-4-7-5-3-6(5)8(7)1-2-8/h5-7,9H,1-4H2	InChI=1S/C8H12O/c9-4-7-5-3-6(5)8(7)1-2-8/h5-7,9H,1-4H2/t5-,6+,7-/m0/s1
