15
gdb 79946	2.16389	1.85992	1.5024	3.9588	67.57	-0.2486	-0.0623	0.1862	937.0308	0.111739	-457.762262	-457.754435	-457.753491	-457.794247	30.172	
O	-0.0263061422	 1.4249035437	-0.038916024	-0.403897
C	-0.0134680706	 0.0386001642	 0.0221748719	 0.025625
C	-0.4583394555	-0.759423163	 1.270140523	-0.246667
C	-1.2371016679	 0.0156473554	 2.280880212	-0.045177
C	-2.3927875186	 0.4977494084	 1.7960487511	-0.193682
C	-2.5641984123	 0.0317519626	 0.4041125146	 0.34343
O	-3.5238663495	 0.111948596	-0.3303142158	-0.354191
C	-1.3029789991	-0.7291642732	 0.0174392668	 0.289335
O	-1.493296762	-1.7949741914	-0.8440301558	-0.472122
H	 0.7874637824	 1.7575782737	 0.3559002965	 0.29325
H	 0.7774290837	-0.4521730894	-0.5469789085	 0.110088
H	 0.1371938262	-1.6159867204	 1.5627358273	 0.112166
H	-0.854600026	 0.2040342223	 3.2780855111	 0.121287
H	-3.1145893289	 1.1184129937	 2.3085649637	 0.123464
H	-2.3141097796	-1.5906427927	-1.3176451538	 0.297092
112.6156	196.982	229.6236	280.1395	306.9297	324.6685	365.0359	458.4762	504.1951	569.1433	608.3983	677.0195	733.9272	784.5598	813.6171	846.9045	894.6823	945.4102	976.2841	1025.2817	1042.7909	1083.2432	1119.9688	1142.3872	1208.2521	1238.521	1287.5876	1357.3817	1363.337	1397.8768	1485.3617	1623.2415	1808.1992	3101.4902	3185.2759	3195.487	3239.3447	3719.3277	3794.6452
OC1C2C=CC(=O)C12O	O[C@H]1[C@H]2C=CC(=O)[C@@]12O	
InChI=1S/C6H6O3/c7-4-2-1-3-5(8)6(3,4)9/h1-3,5,8-9H	InChI=1S/C6H6O3/c7-4-2-1-3-5(8)6(3,4)9/h1-3,5,8-9H/t3-,5+,6-/m1/s1
