18
gdb 52890	2.00275	1.22736	0.86141	1.9546	89.98	-0.2251	0.0204	0.2456	1409.5996	0.14348	-364.718695	-364.708298	-364.707354	-364.755492	36.712	
C	 0.1048576724	 1.4966073065	 0.0436684807	-0.502568
C	 0.0693454624	 0.0418698368	 0.0505621843	 0.063689
C	 0.0502829198	-1.1626428008	 0.0597128381	 0.041893
C	 0.0451939542	-2.6068063918	 0.0317640361	-0.006729
C	-0.4768156611	-3.3384926379	 1.2519120853	-0.264158
N	-1.2429213405	-3.3548813823	 0.0286070411	-0.116516
C	-2.4820683331	-2.588692675	-0.0041406571	-0.315269
C	 1.0963447793	-3.2096706165	-0.7558189295	 0.262595
C	 1.984915899	-3.7055888845	-1.3945357619	-0.43077
H	 1.1336791161	 1.8612612524	-0.0495227259	 0.155491
H	-0.4694501872	 1.9068684112	-0.7942529277	 0.151595
H	-0.31120153	 1.9107427254	 0.9686338819	 0.149753
H	-0.0079965199	-4.2754687176	 1.5392225079	 0.128407
H	-0.8136659182	-2.7066644064	 2.0727953094	 0.116792
H	-2.4455948215	-1.6559583051	 0.5761236938	 0.114286
H	-2.7229998333	-2.3418126663	-1.0419539589	 0.132135
H	-3.2805370093	-3.2221908007	 0.3941729673	 0.126386
H	 2.7627019709	-4.1454172574	-1.9679620348	 0.192989
16.421	80.3388	110.0521	145.2865	170.9581	196.1476	270.1165	295.6844	359.0415	380.8765	455.2207	501.3475	543.993	576.2136	588.3182	607.8205	644.8978	768.8199	859.0651	905.998	1020.5933	1049.8551	1053.5363	1057.0045	1118.6431	1131.0997	1154.6195	1204.488	1299.688	1326.6735	1413.7954	1446.0367	1475.4894	1477.974	1486.3759	1491.2473	1503.1083	2243.0255	2365.046	3001.2511	3027.4288	3081.9082	3088.3171	3090.3495	3090.6632	3113.4722	3187.9779	3504.3674
CC#CC1(CN1C)C#C	CC#C[C@]1(CN1C)C#C	
InChI=1S/C8H9N/c1-4-6-8(5-2)7-9(8)3/h2H,7H2,1,3H3	InChI=1S/C8H9N/c1-4-6-8(5-2)7-9(8)3/h2H,7H2,1,3H3/t8-,9?/m0/s1
