19
gdb 110985	2.42219	1.32737	1.15013	2.441	72.89	-0.2327	0.0631	0.2958	1182.5084	0.156066	-460.080113	-460.070661	-460.069717	-460.114321	34.636	
C	-0.2732080934	 1.3408348574	 0.0769361898	-0.24051
O	 0.3855796383	 0.1089013159	-0.1215537147	-0.250425
C	 0.857571177	-0.460481327	 1.0536366086	 0.141741
C	-0.0672953502	-1.3989100901	 1.8841717304	-0.063748
O	-0.029816733	-2.3818884783	 0.7881324105	-0.341127
C	 1.3806034329	-1.9134833002	 0.9061112561	 0.334578
C	 2.4019673134	-2.457057255	-0.0387368672	-0.528064
C	 1.2147816614	-2.0992063169	 2.4354862626	 0.071099
O	 2.1315370465	-1.4396931169	 3.2648156584	-0.430855
H	 0.3785704006	 2.0743346493	 0.5768765989	 0.105182
H	-0.5466705928	 1.7239074392	-0.9087564245	 0.12993
H	-1.1873472627	 1.2252688507	 0.6777984928	 0.107988
H	 1.483913757	 0.2304946767	 1.6314633843	 0.08341
H	-1.0295970209	-1.2152315036	 2.3621273511	 0.087191
H	 2.1834150158	-2.1312561193	-1.0594506623	 0.145548
H	 3.3961549881	-2.093931325	 0.239632898	 0.134493
H	 2.4092281565	-3.5506207383	-0.0098099123	 0.131821
H	 1.0313974906	-3.1419620569	 2.7135101997	 0.089732
H	 1.8838480749	-1.5995080317	 4.1806121798	 0.292017
71.6736	140.8684	164.7494	177.5633	200.3349	241.87	250.111	290.3377	341.54	415.2031	484.4987	597.1469	638.9455	669.3892	770.6001	826.2145	869.3703	901.3604	938.8922	979.7416	1047.6987	1064.3363	1105.5896	1133.8731	1163.1967	1174.4552	1179.5001	1187.2161	1220.0101	1234.5521	1252.4833	1290.8241	1325.791	1396.824	1402.6289	1456.2722	1477.3962	1483.8735	1487.1933	1490.1835	1508.7481	2976.916	3026.0525	3035.9316	3042.9786	3066.7468	3117.0781	3118.5775	3119.8835	3123.0507	3824.7917
COC1C2OC1(C)C2O	CO[C@H]1[C@H]2O[C@]1(C)[C@H]2O	
InChI=1S/C6H10O3/c1-6-4(7)3(9-6)5(6)8-2/h3-5,7H,1-2H3	InChI=1S/C6H10O3/c1-6-4(7)3(9-6)5(6)8-2/h3-5,7H,1-2H3/t3-,4-,5-,6+/m0/s1
