21
gdb 88197	3.38993	1.20418	1.04641	1.7857	78.67	-0.2477	0.0888	0.3366	1225.9799	0.183483	-424.219491	-424.211067	-424.210123	-424.252212	33.066	
C	-0.1190483044	 1.4994980039	-0.1157696973	-0.414799
C	 0.0204531596	 0.002963326	 0.0526844266	-0.073318
C	 1.3484515519	-0.7049283794	-0.1645079564	-0.356676
C	 0.7231748156	-0.6255069867	 1.213257844	 0.434387
C	 1.3757856056	 0.150993231	 2.340253014	-0.271039
C	 2.281389149	-0.8032121628	 3.1292397056	-0.087446
O	 1.561843844	-1.9686426497	 3.5120522343	-0.234633
C	 1.0184063173	-2.611494631	 2.3916246832	 0.008528
O	 0.1040648456	-1.8010946512	 1.6919698818	-0.283261
H	 0.7808541684	 2.0329379438	 0.2050074392	 0.114047
H	-0.2908135517	 1.7542457904	-1.1670744446	 0.120536
H	-0.9624949967	 1.890201327	 0.4640852632	 0.122375
H	-0.8448418317	-0.5706758518	-0.2692234606	 0.098391
H	 1.3344206564	-1.6649288633	-0.6679857519	 0.115547
H	 2.2233188445	-0.0950081912	-0.3698888529	 0.10632
H	 1.9594104177	 0.9947815675	 1.9613236389	 0.098391
H	 0.6003264534	 0.5433651569	 3.0082777631	 0.112495
H	 3.1527776707	-1.086999844	 2.515403342	 0.090475
H	 2.6461956187	-0.3450414411	 4.0519491302	 0.110069
H	 1.8296062909	-2.9295700131	 1.7101965608	 0.074313
H	 0.4620509453	-3.4777692611	 2.7545285766	 0.115298
113.5155	157.1868	197.7174	198.4441	272.18	342.1573	374.9373	412.62	439.9127	493.3582	550.976	667.1464	693.0153	814.969	867.2088	869.1423	905.9161	943.1375	957.6924	992.7797	1016.2219	1029.8793	1049.681	1067.6444	1117.4738	1124.4472	1138.5393	1180.325	1194.4581	1212.5999	1258.8863	1274.5556	1310.2619	1333.4272	1372.0939	1400.1944	1407.191	1422.7329	1447.5257	1467.7419	1485.1839	1493.6822	1494.8878	1504.69	1512.0103	2928.9105	2968.7715	3031.0925	3040.3815	3092.0382	3094.0129	3096.534	3103.7118	3115.0601	3125.1671	3146.7167	3217.0146
CC1CC11CCOCO1	C[C@H]1C[C@]21CCOCO2	
InChI=1S/C7H12O2/c1-6-4-7(6)2-3-8-5-9-7/h6H,2-5H2,1H3	InChI=1S/C7H12O2/c1-6-4-7(6)2-3-8-5-9-7/h6H,2-5H2,1H3/t6-,7-/m0/s1
