15
gdb 54822	3.20824	1.78464	1.57727	3.0405	62.83	-0.2578	-0.007	0.2508	861.3459	0.11652	-453.961576	-453.955403	-453.954459	-453.992192	24.674	
O	-0.3179063524	 0.2274609096	-0.77214039	-0.244009
C	-0.0411377977	 1.3309084535	-0.0266709481	 0.449797
O	 0.9949126203	 1.506689314	 0.5440383288	-0.341291
C	-1.2681920778	 2.1950032303	-0.0318626178	-0.206449
C	-1.8146689398	 2.6612477216	-1.3455726371	-0.025021
C	-1.1479709722	 2.2707523696	-2.6602805331	-0.215115
N	-1.5075896726	 0.8415109943	-2.7569584974	-0.277785
H	-0.8580726665	 0.2881927353	-3.3040766429	 0.239813
C	-1.6244153609	 0.3750453472	-1.4139010721	 0.123074
N	-2.3540749396	 1.4494185668	-0.6935345706	-0.116049
H	-1.4957252743	 2.7338910179	 0.880723055	 0.128409
H	-2.466901778	 3.5279666763	-1.334558029	 0.117327
H	-1.5733908628	 2.8303538719	-3.4977928136	 0.124465
H	-0.0646081157	 2.4508068258	-2.646894357	 0.125526
H	-2.1157003899	-0.593453724	-1.3348853952	 0.117309
132.2199	189.6876	374.2542	415.8131	486.7598	622.2107	630.4262	695.3597	736.0721	772.9034	795.5578	830.9172	880.2056	894.0477	913.0221	973.9634	1004.7002	1029.5522	1048.1209	1087.7458	1103.4011	1139.7845	1201.3868	1212.5707	1229.7244	1268.4123	1342.8658	1357.2187	1372.2387	1401.0394	1441.9965	1527.7354	1885.6637	3012.7037	3081.182	3139.4534	3169.0963	3188.227	3558.0694
[O-]C(=O)C1C2C[NH+]=CN12	O1C(=O)[C@H]2[C@H]3CN[C@@H]1N23	
InChI=1S/C5H6N2O2/c8-5(9)4-3-1-6-2-7(3)4/h2-4H,1H2,(H,8,9)	InChI=1S/C5H6N2O2/c8-4-3-2-1-6-5(9-4)7(2)3/h2-3,5-6H,1H2/t2-,3-,5-,7?/m1/s1
