18
gdb 94787	2.67742	1.51716	1.16708	3.0592	72.03	-0.2227	-0.0371	0.1856	1092.357	0.147752	-439.076498	-439.068088	-439.067144	-439.109762	31.519	
C	 0.5146249001	 1.4573432459	-0.1724629662	-0.375426
C	-0.0794024011	 0.0638193348	 0.0772789778	-0.109503
N	 0.1560858886	-0.8522380926	-1.0600585328	-0.302528
C	 1.411467022	-1.582432909	-0.7826920362	-0.29229
C	 1.4809273486	-1.7047244653	 0.7311783303	 0.331169
C	 1.6949334483	-2.9408517543	 1.5046581165	-0.235442
O	 2.7126929731	-1.9524049591	 1.4023484995	-0.257821
C	 0.5951232472	-0.6008850504	 1.2846726472	 0.34103
O	 0.4627092925	-0.3215167838	 2.4479319067	-0.320595
H	 1.5910074155	 1.4024522974	-0.364024141	 0.125043
H	 0.0383049485	 1.9115579297	-1.0447004966	 0.128471
H	 0.3571403927	 2.0954319744	 0.7014005293	 0.136718
H	-1.1527095351	 0.1618081536	 0.2651241792	 0.102983
H	-0.6037516257	-1.5229751126	-1.1001134263	 0.226001
H	 1.4187453038	-2.541874774	-1.303771485	 0.116679
H	 2.2705590556	-1.0039006367	-1.1438312299	 0.129691
H	 1.2364730405	-3.0318656655	 2.4879898279	 0.13595
H	 1.8801787049	-3.8703807026	 0.9670651397	 0.119869
54.9418	138.0698	209.2164	228.6961	257.5067	273.2943	349.8739	386.2392	468.4085	562.8656	643.395	681.2923	753.0514	796.4494	849.6341	867.8425	877.4541	951.955	965.5683	1025.9981	1053.0366	1084.4145	1121.5812	1126.3707	1136.0968	1173.15	1215.8166	1229.511	1287.1548	1323.1014	1360.5359	1397.8888	1414.451	1460.7259	1487.3195	1495.6711	1500.2876	1511.7153	1847.1925	3034.6867	3044.3617	3068.8992	3080.6674	3107.7439	3117.1006	3131.3182	3178.0488	3525.2059
CC1NCC2(CO2)C1=O	C[C@H]1NC[C@]2(CO2)C1=O	
InChI=1S/C6H9NO2/c1-4-5(8)6(2-7-4)3-9-6/h4,7H,2-3H2,1H3	InChI=1S/C6H9NO2/c1-4-5(8)6(2-7-4)3-9-6/h4,7H,2-3H2,1H3/t4-,6+/m1/s1
