19
gdb 105188	2.04393	1.50881	1.02222	1.587	72.73	-0.2475	0.0147	0.2622	1212.9898	0.159566	-456.35774	-456.348179	-456.347234	-456.392176	35.561	
C	-0.1208017609	 1.5720930798	 0.0705472432	-0.414143
C	-0.0279825879	 0.0680971798	 0.1716101074	-0.009693
N	 1.2671161216	-0.5664754968	-0.08421584	-0.381443
C	 0.666051952	-0.6740713917	 1.2729976596	 0.169499
C	 1.4164617972	 0.0531543658	 2.3671741654	-0.169977
O	 2.5197249614	-0.7040647934	 2.8699689785	-0.420598
C	 0.0777468608	-2.0433486972	 1.5738504035	 0.34597
N	 0.3280187443	-2.5311536272	 2.8220406217	-0.546169
O	-0.5744608903	-2.6478629692	 0.7375601194	-0.375954
H	 0.8092332713	 2.0627011915	 0.3638763241	 0.12716
H	-0.3301541066	 1.8575129712	-0.9657923858	 0.127931
H	-0.9351646821	 1.9574411414	 0.6930367493	 0.122981
H	-0.8908603014	-0.4728140082	-0.2099499905	 0.117396
H	 1.1007526839	-1.4508546443	-0.5634329954	 0.244639
H	 1.7600698911	 1.024292002	 1.9975534064	 0.111238
H	 0.7630641593	 0.2283967215	 3.2276136711	 0.123306
H	 3.0912195957	-0.8931400381	 2.1160167838	 0.296488
H	 1.145133701	-2.1883100501	 3.3106613447	 0.275036
H	 0.0455243896	-3.4862715167	 2.9818167337	 0.256332
60.0665	115.6714	149.0555	185.3381	218.5164	235.3947	304.6885	355.7667	418.9558	442.3689	460.0201	523.2543	566.4202	606.0843	654.3971	704.2477	755.793	819.5754	892.7234	934.5901	997.7928	1027.0368	1054.9279	1070.7862	1115.436	1129.6806	1154.164	1211.6058	1263.5784	1274.6522	1336.9254	1379.0586	1394.2846	1408.3907	1431.0105	1454.95	1487.4432	1496.7868	1503.5121	1629.5658	1776.4491	3039.4485	3050.2548	3096.1672	3099.714	3127.3506	3149.7138	3474.7749	3533.3764	3676.5165	3793.0327
CC1NC1(CO)C(N)=O	C[C@H]1N[C@]1(CO)C(=O)N	
InChI=1S/C5H10N2O2/c1-3-5(2-8,7-3)4(6)9/h3,7-8H,2H2,1H3,(H2,6,9)	InChI=1S/C5H10N2O2/c1-3-5(2-8,7-3)4(6)9/h3,7-8H,2H2,1H3,(H2,6,9)/t3-,5+/m1/s1
