14
gdb 43241	4.0467	1.12425	0.94618	2.6823	77.87	-0.2151	-0.046	0.1691	1171.3699	0.100268	-399.501512	-399.494192	-399.493248	-399.533938	27.237	
O	-1.3372716496	-0.3787465201	-0.7148342239	-0.208588
C	-1.3819984661	 0.7031330082	-0.2984812384	 0.487826
C	-1.4469014667	 1.9367400025	 0.1702883259	-0.528241
C	-0.3873336261	 2.9020397039	 0.0057698106	 0.404613
C	-0.1901828111	 4.1787625308	 0.3986305244	-0.249857
C	 1.2287328949	 4.2553788455	-0.1516707909	-0.13232
C	 2.2936992647	 3.5504026853	 0.6827209183	-0.004645
N	 2.096925865	 2.3330489608	 0.3240893051	-0.189017
C	 0.9946933818	 2.7866684869	-0.6206146941	-0.137723
H	-2.3545703508	 2.1903722014	 0.7085227962	 0.150116
H	-0.7750389582	 4.8774124816	 0.9836890711	 0.102512
H	 1.5183542507	 5.0708012784	-0.8154409533	 0.093743
H	 3.024489611	 3.8951813924	 1.4137758204	 0.116572
H	 1.1154831604	 2.4458849424	-1.6485970113	 0.095012
72.9175	101.9973	187.4657	314.8865	383.2193	439.7032	530.6094	551.5006	564.8707	653.9703	742.5764	816.4685	848.758	879.759	885.0313	907.2843	960.0952	967.8345	981.9655	1099.1959	1129.9365	1152.1227	1188.5921	1193.595	1218.624	1283.8205	1292.3478	1385.5215	1634.9418	1660.791	2225.2936	3106.13	3124.3088	3139.8847	3181.4805	3205.0736
O=C1C=C2C3C4C3N1C24	[O][C]C=C1[CH][C@H]2[CH][N][C@@H]12	
InChI=1S/C7H5NO/c9-3-1-2-4-5-6(2)8(3)7(4)5/h1,4-7H	InChI=1S/C7H5NO/c9-2-1-5-3-6-4-8-7(5)6/h1,3-4,6-7H/t6-,7-/m0/s1
