25
gdb 120484	2.87542	0.86063	0.77402	1.5352	89.65	-0.2374	0.0829	0.3203	1666.1511	0.227371	-389.493018	-389.482179	-389.481235	-389.529753	39.58	
C	-0.3293084483	 1.4676322862	-0.046293622	-0.383216
C	-0.1205362827	-0.0471884411	-0.1099170581	-0.162294
C	 0.8085101841	-0.4789228784	-1.2520229059	-0.189695
C	 0.965415541	-1.9879010672	-1.3218645475	 0.148824
O	-0.2819303934	-2.6602726837	-1.6220459876	-0.316658
C	 0.3518020989	-3.5028555503	-2.6123557167	 0.164438
C	-0.4452362918	-3.580572379	-3.8993094588	-0.402993
C	 1.6677465287	-2.67593721	-2.5273236491	-0.091089
C	 2.0574430107	-1.8168153666	-3.7249321016	-0.407048
H	 0.6196898193	 1.9951610206	 0.1040117838	 0.10977
H	-0.7722347653	 1.8455294189	-0.9746031178	 0.11331
H	-0.996749219	 1.7437090534	 0.7761283639	 0.11098
H	 0.2906951079	-0.4032036759	 0.844066592	 0.091101
H	-1.0845170767	-0.5527528497	-0.2359573991	 0.119232
H	 0.4127179908	-0.1051699384	-2.2036115832	 0.093471
H	 1.8011083192	-0.0262213679	-1.1182572832	 0.089544
H	 1.3647398872	-2.3506343858	-0.3609100639	 0.062131
H	 0.4888373088	-4.5184298242	-2.2102593224	 0.066094
H	-0.6009649411	-2.5918630737	-4.3383690866	 0.118419
H	 0.062934001	-4.2160077425	-4.6328310053	 0.113225
H	-1.4278693547	-4.0183856039	-3.6961945088	 0.126175
H	 2.5287038726	-3.2798603303	-2.2275970168	 0.070106
H	 1.236601484	-1.1862054447	-4.0761455697	 0.124231
H	 2.8957951215	-1.1587584027	-3.4735108912	 0.117032
H	 2.3741628871	-2.4455638731	-4.5638180843	 0.114908
31.715	86.1175	98.5482	119.6805	202.1125	214.0048	248.9577	265.7766	273.2054	321.9365	370.932	431.1261	493.7353	513.9031	736.4065	760.7965	773.2504	828.3197	878.2135	901.1984	903.0053	959.8585	1000.0175	1035.8907	1042.4595	1052.9062	1072.9896	1101.7771	1133.4909	1163.7179	1180.0951	1186.5183	1254.8867	1258.6041	1280.4134	1296.7923	1327.7204	1342.7091	1372.9812	1378.4796	1389.9552	1403.2262	1412.8469	1413.8285	1432.8768	1471.4056	1478.7378	1490.8303	1493.4282	1499.9757	1500.56	1509.2295	1510.5293	2963.8212	2977.0128	3012.6592	3020.5515	3027.3558	3034.8632	3038.6878	3057.2783	3062.6197	3072.3223	3095.9353	3096.471	3100.1622	3104.5842	3113.3936	3124.0577
CCCC1OC(C)C1C	CCC[C@H]1O[C@@H](C)[C@H]1C	
InChI=1S/C8H16O/c1-4-5-8-6(2)7(3)9-8/h6-8H,4-5H2,1-3H3	InChI=1S/C8H16O/c1-4-5-8-6(2)7(3)9-8/h6-8H,4-5H2,1-3H3/t6-,7+,8-/m1/s1
