17
gdb 83189	2.72976	1.52072	1.41166	3.8402	68.15	-0.2244	0.0463	0.2707	986.1664	0.139401	-455.168717	-455.161207	-455.160263	-455.200581	29.675	
O	 0.1197096181	 1.4506665902	-0.0148732574	-0.427839
C	 0.0130149986	 0.0672442514	-0.0126232803	 0.111412
C	-1.3098124533	-0.6691522227	 0.0550416016	-0.11925
C	-2.6285455528	 0.0708673254	-0.0307663915	-0.189696
N	-2.5556557708	 1.1452092529	-1.0270534023	-0.377495
C	-1.9983353484	 0.9476361876	-2.2957260409	 0.40334
O	-2.3090764983	 1.6351628109	-3.2493408187	-0.39885
N	-1.0488200652	-0.042095374	-2.3536007062	-0.31679
C	-0.4929561422	-0.719363637	-1.2171542481	-0.055098
H	-0.7340551428	 1.8204637927	-0.2817152541	 0.302569
H	 0.839339461	-0.3749668901	 0.5365835278	 0.109343
H	-1.3544863688	-1.567608198	 0.6628239069	 0.099063
H	-3.42497539	-0.6490583606	-0.2729683955	 0.118169
H	-2.8823191941	 0.5242229044	 0.9341880249	 0.124276
H	-3.3733574947	 1.7355980445	-1.0947640794	 0.254421
H	-0.4940284023	 0.0003320564	-3.1948430474	 0.258209
H	 0.0052380561	-1.644384674	-1.4881724294	 0.104217
105.8451	185.5247	206.82	242.0532	421.5255	463.4438	493.4227	529.6694	544.7239	574.6392	650.3416	692.3249	724.4609	775.1925	779.7353	798.9543	900.4044	940.5842	1015.439	1031.9596	1057.6498	1086.6703	1127.2091	1146.3789	1174.4625	1221.6384	1267.6287	1312.6254	1338.9892	1346.3428	1410.4239	1430.4364	1447.6023	1470.8427	1489.034	1527.9231	1814.7181	2985.6504	3052.0319	3148.1266	3151.7475	3164.1139	3600.1074	3628.6089	3711.9766
OC1C2CNC(=O)NC12	O[C@H]1[C@H]2CNC(=O)N[C@@H]12	
InChI=1S/C5H8N2O2/c8-4-2-1-6-5(9)7-3(2)4/h2-4,8H,1H2,(H2,6,7,9)	InChI=1S/C5H8N2O2/c8-4-2-1-6-5(9)7-3(2)4/h2-4,8H,1H2,(H2,6,7,9)/t2-,3+,4-/m0/s1
