21
gdb 119167	3.49795	0.94924	0.83308	2.6181	79.5	-0.2555	0.0829	0.3383	1447.3548	0.180828	-424.174999	-424.165358	-424.164414	-424.210048	34.988	
C	 0.0838123903	 1.440220586	-0.2539322289	-0.225262
O	 0.0113503125	 0.043094108	-0.1045292056	-0.234759
C	 0.7378633505	-0.4309962157	 1.0059394864	-0.132238
C	 0.6137336024	-1.9402425708	 1.1027529003	 0.29729
C	-0.6902429289	-2.6006622821	 0.7446778145	-0.30536
C	 0.5077447689	-2.7526319124	-0.164700609	-0.298376
C	 1.4250690571	-2.5064412766	 2.2323483285	-0.003537
C	 0.8533568461	-2.7944577697	 3.5564190994	-0.1784
O	 1.1486673256	-3.8468373197	 2.6330711932	-0.236976
H	 1.1205108539	 1.7815693698	-0.4021835382	 0.105694
H	-0.5051455543	 1.7054496681	-1.1351054582	 0.12944
H	-0.3279963049	 1.9665765015	 0.6216171888	 0.105437
H	 1.8021096043	-0.1459621209	 0.9127254979	 0.084455
H	 0.3628092728	 0.0368171023	 1.9340695613	 0.086938
H	-0.9849136481	-3.4661486467	 1.3266524065	 0.122875
H	-1.4938090952	-1.9566558071	 0.4090028805	 0.120109
H	 0.4986572447	-2.2118160795	-1.1029202301	 0.123863
H	 1.0036770995	-3.7168213346	-0.1818949181	 0.118505
H	 2.4927164306	-2.276452884	 2.1891027615	 0.089148
H	 1.4847331533	-2.763529994	 4.4430377267	 0.114966
H	-0.206758901	-2.6137384819	 3.7260442027	 0.11619
66.9574	88.1443	101.649	148.3392	227.4737	235.8424	247.7547	319.8708	353.032	374.5031	491.7779	585.0146	702.4219	801.1924	846.9919	876.8327	883.8074	924.4447	953.3189	999.9968	1015.3746	1054.0556	1066.4876	1091.3553	1102.9551	1113.5837	1153.1602	1163.6452	1174.9569	1187.2431	1202.8467	1222.6407	1264.3321	1274.8656	1288.9333	1360.1741	1421.4901	1440.4481	1445.0641	1478.1037	1485.3541	1496.0845	1504.1483	1523.1619	1527.827	2929.3956	2953.5316	2971.8525	3015.6059	3073.9769	3086.9287	3116.3162	3142.0925	3145.6643	3175.9822	3231.4359	3244.02
COCC1(CC1)C1CO1	COCC1(CC1)[C@H]1CO1	
InChI=1S/C7H12O2/c1-8-5-7(2-3-7)6-4-9-6/h6H,2-5H2,1H3	InChI=1S/C7H12O2/c1-8-5-7(2-3-7)6-4-9-6/h6H,2-5H2,1H3/t6-/m1/s1
