18
gdb 114799	3.47548	1.21123	1.07822	0.3772	71.	-0.2445	0.0169	0.2613	1143.5243	0.149245	-439.079121	-439.071236	-439.070292	-439.112064	29.683	
O	-0.0544144532	 1.369752734	-0.2698474642	-0.426251
C	 0.0432838768	-0.0315391306	-0.0443101528	-0.094161
C	-1.3711266744	-0.5654291267	 0.0519500826	 0.029069
C	-2.2586375617	-0.5226728431	-1.2334920888	-0.260848
C	-2.643132618	-2.003996471	-1.0074325234	 0.083262
O	-2.1749745615	-2.9126240402	-2.0307655624	-0.226355
C	-0.9462556158	-3.3002402541	-1.6056301218	 0.112442
N	-0.5078625169	-2.9243622938	-0.4749528385	-0.266963
C	-1.5774800486	-2.1075179032	 0.1241770855	-0.047213
H	 0.8337904829	 1.7141530474	-0.3999321086	 0.287327
H	 0.5771105007	-0.5361363214	-0.8622643552	 0.09433
H	 0.5894761621	-0.2537602184	 0.8860134399	 0.091559
H	-1.8753883298	-0.0736874385	 0.8896270837	 0.082609
H	-3.0821599515	 0.193175197	-1.2263155706	 0.111427
H	-1.68649364	-0.3855666325	-2.1543373159	 0.114882
H	-3.690095352	-2.228790883	-0.8057400618	 0.092272
H	-0.4155035386	-3.9419169486	-2.3007314908	 0.140977
H	-1.8489615108	-2.5130657135	 1.1022482133	 0.081635
72.6095	103.7991	161.9856	261.1043	284.1581	363.6161	416.6154	455.0829	572.7239	695.9845	745.3761	799.3106	855.5967	875.9922	905.6214	911.6973	941.8652	971.1798	1012.3581	1051.396	1077.1943	1094.4951	1109.82	1113.7269	1160.8723	1202.3036	1235.7214	1248.1092	1258.1271	1278.4805	1287.0303	1314.1296	1322.4769	1350.2881	1371.6766	1458.8124	1473.4918	1520.5244	1682.9025	2977.63	3017.1691	3058.8125	3072.6725	3074.1587	3115.0381	3132.8794	3213.015	3831.4135
OCC1CC2OC=NC12	OC[C@H]1C[C@H]2OC=N[C@@H]12	
InChI=1S/C6H9NO2/c8-2-4-1-5-6(4)7-3-9-5/h3-6,8H,1-2H2	InChI=1S/C6H9NO2/c8-2-4-1-5-6(4)7-3-9-5/h3-6,8H,1-2H2/t4-,5-,6+/m1/s1
