16
gdb 10323	2.65015	1.94198	1.22149	1.3957	62.92	-0.2702	-0.0168	0.2534	979.9292	0.130321	-417.135178	-417.126632	-417.125688	-417.168496	30.508	
C	-0.4125465691	 0.8890324353	 0.5264431261	-0.377458
C	 0.3023205103	-0.3989506943	 0.1206951343	-0.156601
N	 0.7368587558	-0.3975894677	-1.286193351	-0.140846
C	 2.0412412328	-0.0907180998	-1.5783334078	 0.183317
O	 2.5517933423	-0.0229970832	-2.6810224459	-0.347576
C	-0.2798634045	-0.7081787937	-2.2529806517	 0.492874
N	 0.126058841	-0.6892303268	-3.5387848692	-0.563544
O	-1.4063827575	-0.9648110307	-1.8770853137	-0.398569
H	 0.236701384	 1.760773216	 0.3961656908	 0.117262
H	-1.3127773659	 1.0254462059	-0.076018823	 0.15388
H	-0.7066245853	 0.8367165215	 1.5792796211	 0.121813
H	 1.1937835671	-0.5579516597	 0.7340875172	 0.111112
H	-0.3586263721	-1.2556068437	 0.2554989962	 0.147682
H	 2.626889997	 0.0988953802	-0.6618167646	 0.100427
H	 1.0848321601	-0.4597667835	-3.7684692893	 0.290317
H	-0.5684673261	-0.8985282058	-4.2342327895	 0.265909
69.5475	87.7015	153.581	231.3628	274.5201	314.7221	345.1626	376.465	419.404	466.2412	551.9157	680.4695	684.8767	756.5573	786.6755	794.7786	967.7208	1035.2746	1097.6391	1114.8827	1128.4472	1199.7216	1284.8858	1348.6485	1394.5542	1406.9563	1412.4007	1447.553	1484.6727	1492.2012	1508.6863	1588.8818	1775.4771	1815.3373	2979.5157	3043.2289	3068.3296	3107.8089	3131.7432	3145.1137	3511.5714	3719.19
CCN(C=O)C(N)=O	CCN(C=O)C(=O)N	
InChI=1S/C4H8N2O2/c1-2-6(3-7)4(5)8/h3H,2H2,1H3,(H2,5,8)	InChI=1S/C4H8N2O2/c1-2-6(3-7)4(5)8/h3H,2H2,1H3,(H2,5,8)
