19
gdb 47035	3.41677	1.41336	1.11802	3.5069	77.37	-0.232	0.0314	0.2634	1106.339	0.162536	-419.201643	-419.194116	-419.193172	-419.233852	29.784	
N	-0.0879872461	 1.2741651183	 0.4961134675	-0.515901
C	-0.0153660563	 0.0782045326	 0.0888544784	 0.413552
C	-1.2572368839	-0.7773426474	-0.0282319976	-0.250577
N	-1.1439932405	-1.6735712984	-1.174460403	-0.30859
C	-0.0668971078	-2.6234694156	-0.9588065601	-0.025131
C	 0.5208891354	-3.1422473089	-2.2978519277	-0.242042
C	 1.5024047715	-1.935089188	-2.2973742298	-0.241767
C	 1.2377228699	-1.8102868125	-0.7786354971	 0.15838
O	 1.1783617119	-0.5052785869	-0.2132281009	-0.260897
H	 0.8474983824	 1.6833775594	 0.5487647469	 0.216339
H	-1.3937182279	-1.3161432178	 0.929722359	 0.100997
H	-2.104939558	-0.1028613105	-0.1510058046	 0.138449
H	-2.021334864	-2.1521975039	-1.3444322031	 0.226442
H	-0.2860288131	-3.3676551151	-0.1757213483	 0.055405
H	 1.0325931221	-4.0997883939	-2.1726108166	 0.104971
H	-0.1812174582	-3.2150314838	-3.1299912729	 0.108266
H	 2.5322405001	-2.1028966234	-2.6164153885	 0.10227
H	 1.0839956517	-1.0810591853	-2.8313240716	 0.128023
H	 1.9775345906	-2.3676876988	-0.1974343699	 0.09181
74.1904	127.4285	244.4696	325.794	381.9457	401.0336	442.4411	492.3685	598.9611	646.0594	707.8359	748.1648	805.2988	837.7372	886.7695	909.0353	933.6712	960.7491	978.0289	1000.448	1039.9832	1075.7663	1081.9245	1129.6783	1165.6623	1176.3738	1202.6559	1242.9402	1257.214	1262.7207	1277.5175	1295.0243	1320.5015	1335.0094	1402.268	1416.6235	1467.0907	1473.0826	1487.3265	1492.7101	1754.4385	2913.6389	2956.0008	3066.7835	3072.2806	3084.4552	3125.097	3128.4532	3147.9995	3460.1109	3531.3179
N=C1CNC2CCC2O1	[NH][C]1CN[C@H]2CC[C@H]2O1	
InChI=1S/C6H10N2O/c7-6-3-8-4-1-2-5(4)9-6/h4-5,7-8H,1-3H2	InChI=1S/C6H10N2O/c7-6-3-8-4-1-2-5(4)9-6/h4-5,7-8H,1-3H2/t4-,5+/m0/s1
