16
gdb 82437	2.53587	1.81914	1.23105	4.7094	64.43	-0.2606	0.0171	0.2777	989.5267	0.125939	-475.041666	-475.034195	-475.033251	-475.073662	28.826	
O	 0.4832452739	 0.4574543424	 1.0192528618	-0.436274
C	-0.1089141437	-0.3133691235	 0.0130254941	 0.017832
C	-1.5907663072	-0.0427239987	-0.110058442	 0.024333
O	-1.9899405255	 1.0109383652	-0.9997553909	-0.244046
C	-2.2367343465	-0.3365858382	-1.3899871147	 0.040959
C	-1.410400622	-0.8691214494	-2.5444799261	-0.197095
N	-0.0142870973	-0.4721958834	-2.4482688097	-0.316025
C	 0.6106314794	-0.0546049613	-1.3185079943	 0.38051
O	 1.7085168851	 0.4779257282	-1.315539943	-0.392787
H	 1.3010929155	 0.7966586797	 0.6167869079	 0.297499
H	 0.0041802418	-1.392275817	 0.2354314491	 0.092652
H	-2.1584830066	-0.0926869336	 0.8172505252	 0.113424
H	-3.2849037696	-0.6332873495	-1.4125946516	 0.105118
H	-1.5180990967	-1.9635582987	-2.5702717272	 0.124064
H	-1.812896974	-0.4866098656	-3.4890086421	 0.132223
H	 0.4770553935	-0.2481097866	-3.3011399765	 0.257614
89.6831	159.084	240.3717	320.7948	335.0149	436.9941	465.4934	500.8009	509.5718	577.8783	620.633	696.63	750.4614	834.6009	857.3637	918.1192	928.206	976.4318	1056.4577	1102.3853	1109.7211	1150.2029	1157.2005	1243.0458	1268.6413	1289.3175	1325.4596	1345.9306	1367.2607	1409.661	1461.071	1470.1842	1491.6243	1518.8423	1784.4186	2919.2509	2999.6496	3061.9093	3118.8576	3138.3564	3614.5043	3658.7535
OC1C2OC2CNC1=O	O[C@H]1[C@H]2O[C@H]2CNC1=O	
InChI=1S/C5H7NO3/c7-3-4-2(9-4)1-6-5(3)8/h2-4,7H,1H2,(H,6,8)	InChI=1S/C5H7NO3/c7-3-4-2(9-4)1-6-5(3)8/h2-4,7H,1H2,(H,6,8)/t2-,3-,4-/m0/s1
