26
gdb 122519	4.69806	0.54798	0.52022	1.2532	94.98	-0.2188	0.0882	0.3069	2276.8666	0.239183	-369.594771	-369.583527	-369.582583	-369.632227	40.506	
C	-0.1476987877	-6.4907144935	-0.8660179072	-0.380555
C	 0.5492927166	-5.1306149041	-0.7741067057	-0.165074
C	 0.9994840618	-4.7805371038	 0.6482467305	-0.158059
C	 1.6922871203	-3.4144440854	 0.7487408869	-0.216597
C	 2.0887729141	-3.0852404082	 2.1752013228	 0.015578
C	 3.4438227313	-3.4187739736	 2.7046748685	-0.254454
N	 3.0325600011	-2.0281162061	 2.5383645981	-0.091189
C	 3.6920979689	-1.238952695	 1.502828339	-0.109435
C	 4.8932304242	-0.5017263343	 2.091266711	-0.373844
H	-1.043609867	-6.5195332463	-0.2357899849	 0.113844
H	-0.4556336771	-6.7147597418	-1.8921446379	 0.111083
H	 0.5143885005	-7.297958776	-0.5333277119	 0.113564
H	 1.4206319704	-5.1187112626	-1.4423832872	 0.093768
H	-0.1249240279	-4.3463128507	-1.1430341587	 0.094617
H	 0.128442427	-4.7959055516	 1.3180449857	 0.094038
H	 1.6793857226	-5.5590193408	 1.0196546502	 0.096687
H	 2.5692640485	-3.40545367	 0.0925504593	 0.096361
H	 1.013344013	-2.6371862801	 0.3705403454	 0.097613
H	 1.2532179839	-3.1468002495	 2.8739261437	 0.083819
H	 3.5855365146	-3.7629528711	 3.7262124795	 0.10933
H	 4.1606390208	-3.8236625459	 1.9887596073	 0.0991
H	 4.0234753777	-1.8447553068	 0.6429496503	 0.08039
H	 2.9626554424	-0.5148689742	 1.1196119067	 0.100026
H	 5.6391406149	-1.2103791252	 2.4661921414	 0.116494
H	 5.3729087032	 0.1254330514	 1.3331880604	 0.107594
H	 4.5824944022	 0.1323781153	 2.9261901669	 0.125299
46.7776	78.0764	78.5021	96.6518	136.5639	180.9487	228.4889	237.4527	281.0099	288.3878	362.4015	421.2046	454.9118	577.0633	726.3483	739.1447	791.7788	812.9304	846.5285	903.9516	909.7966	931.4561	979.4655	1011.8705	1025.784	1045.352	1066.0114	1099.384	1113.1989	1117.5267	1148.5755	1157.4476	1192.1683	1200.471	1244.2615	1278.3567	1303.6911	1316.8558	1329.1973	1342.601	1357.0584	1383.6762	1398.4352	1409.6899	1412.3874	1427.6003	1482.9318	1487.0551	1488.8091	1489.9734	1498.3002	1499.9374	1505.3753	1512.8561	1519.2426	2956.8642	3006.433	3009.5523	3018.3644	3028.845	3032.6944	3037.598	3044.0262	3052.2356	3071.0161	3076.5849	3092.951	3095.6214	3100.6992	3106.0716	3119.1506	3164.5373
CCCCC1CN1CC	CCCC[C@H]1CN1CC	
InChI=1S/C8H17N/c1-3-5-6-8-7-9(8)4-2/h8H,3-7H2,1-2H3	InChI=1S/C8H17N/c1-3-5-6-8-7-9(8)4-2/h8H,3-7H2,1-2H3/t8-,9?/m0/s1
