19
gdb 83210	2.52281	1.49286	1.2267	1.0294	79.77	-0.232	0.0505	0.2825	1093.9	0.158732	-385.839229	-385.830384	-385.82944	-385.873295	32.954	
C	 0.134629977	 1.4586820722	-0.5748455558	-0.417386
C	 0.0634454629	 0.0270709476	-0.0898340638	-0.044151
C	 1.2294250476	-0.930293738	-0.0699092987	 0.078928
O	 2.535757839	-0.4236235877	-0.1714678144	-0.257737
C	 2.829894898	 0.4256553303	 0.9329726643	-0.101989
C	 1.7005960859	 0.233575898	 1.9963157081	-0.204401
C	 1.3013310921	 1.4780583724	 2.6421080421	 0.331474
C	 0.9865704882	 2.5052288803	 3.1818706049	-0.470765
C	 0.6045003748	-0.5107138624	 1.2299167284	-0.109594
H	 1.1038266359	 1.9235317841	-0.3931787754	 0.131129
H	-0.0465530082	 1.495792253	-1.6544762691	 0.118535
H	-0.624586602	 2.0754763638	-0.0840226817	 0.12572
H	-0.8715520182	-0.4624724924	-0.3580960985	 0.087881
H	 1.1508278359	-1.9270457998	-0.4906025004	 0.098579
H	 3.8130152782	 0.1503091227	 1.3296039587	 0.11284
H	 2.8765360749	 1.4711437211	 0.6112789752	 0.116257
H	 2.0625941672	-0.4512553397	 2.7731476286	 0.112169
H	 0.7021645508	 3.4110721393	 3.6572170267	 0.196278
H	-0.02388169	-1.1757858449	 1.8103368806	 0.096233
55.2741	80.3534	139.6479	165.8211	230.6846	247.462	402.9319	494.5671	527.3483	554.1029	623.9318	631.5986	681.4549	720.6943	756.8918	767.9166	861.5006	906.8917	960.2743	997.9276	1032.8503	1034.6092	1051.0335	1081.3107	1103.4426	1130.3953	1137.9605	1165.391	1221.7524	1236.9983	1278.4844	1311.8328	1326.8275	1360.7196	1394.128	1422.8069	1438.1553	1484.2998	1499.6071	1534.9415	2235.1996	3022.556	3036.1586	3042.7513	3074.6582	3098.1923	3114.7694	3149.1625	3164.5662	3178.1147	3504.1352
CC1C2OCC(C#C)C12	C[C@H]1[C@H]2OC[C@@H](C#C)[C@@H]12	
InChI=1S/C8H10O/c1-3-6-4-9-8-5(2)7(6)8/h1,5-8H,4H2,2H3	InChI=1S/C8H10O/c1-3-6-4-9-8-5(2)7(6)8/h1,5-8H,4H2,2H3/t5-,6-,7-,8-/m1/s1
