23
gdb 115511	4.81875	0.78162	0.70681	1.6383	83.22	-0.2429	0.0765	0.3194	1667.5304	0.205041	-425.42073	-425.410609	-425.409665	-425.457735	36.413	
C	 0.1771162972	 1.303688172	 0.2414971031	-0.238505
O	-0.1688168774	-0.0097020967	-0.1297745473	-0.24582
C	 0.5603513169	-0.5061277502	-1.2358201011	 0.150611
C	 2.0387134135	-0.844257326	-0.9371584074	-0.243353
C	 2.3665971597	-1.9385287136	-1.959739255	-0.243362
C	 1.0966662151	-2.8196127384	-1.9611621023	 0.150628
C	-0.0669977995	-1.8397200887	-1.6965949211	-0.261489
O	 0.8549275331	-3.5083754391	-3.173023289	-0.245821
C	 1.7382476864	-4.5790593474	-3.4094338154	-0.238508
H	 1.2126104211	 1.3797336605	 0.6054552178	 0.104698
H	 0.0564901245	 2.0084181256	-0.5971182376	 0.101581
H	-0.4972581414	 1.6004147178	 1.0488767279	 0.12484
H	 0.5198585667	 0.2350260697	-2.051312705	 0.061546
H	 2.7084311062	 0.0176531392	-0.99993057	 0.095306
H	 2.0993170113	-1.2411942566	 0.0841186764	 0.105441
H	 2.484336756	-1.5063782509	-2.9615492635	 0.105435
H	 3.282381631	-2.4871843745	-1.7237958685	 0.095307
H	 1.1691005273	-3.554081589	-1.1418376004	 0.061546
H	-0.7405088322	-2.2031095416	-0.9172939243	 0.114403
H	-0.64916299	-1.7242864501	-2.6135169161	 0.114395
H	 2.7776078063	-4.2453221627	-3.5467126708	 0.104699
H	 1.71976178	-5.3109032466	-2.5857029151	 0.101582
H	 1.4087897382	-5.074478013	-4.3263345451	 0.12484
9.633	90.5679	113.0698	158.0537	183.8278	207.5587	241.6153	283.1302	333.575	433.1579	446.5596	502.0969	564.7219	611.1013	791.9618	845.6252	879.6355	927.1904	971.8514	1005.4627	1015.6287	1017.9486	1099.2921	1108.7994	1149.2046	1155.0752	1172.9789	1181.7908	1186.3399	1187.3295	1219.578	1238.7243	1263.7628	1287.2444	1309.3595	1324.0532	1334.6725	1357.8402	1391.4645	1403.0929	1478.7251	1479.9336	1482.3189	1487.0066	1487.6727	1491.3227	1503.7003	1510.8573	1512.3201	2955.2635	2956.3239	2971.8111	2972.3649	3018.7605	3018.9843	3032.0625	3035.9384	3074.8898	3090.3883	3095.6098	3109.3918	3109.4768	3123.0273
COC1CCC(C1)OC	CO[C@H]1CC[C@@H](C1)OC	
InChI=1S/C7H14O2/c1-8-6-3-4-7(5-6)9-2/h6-7H,3-5H2,1-2H3	InChI=1S/C7H14O2/c1-8-6-3-4-7(5-6)9-2/h6-7H,3-5H2,1-2H3/t6-,7-/m0/s1
