15
gdb 133169	3.21653	1.35474	0.95896	4.9072	75.19	-0.2097	-0.0309	0.1788	1151.008	0.113278	-458.109952	-458.102001	-458.101056	-458.142555	29.716	
C	 0.0518599789	 1.4867470819	-0.0090362034	-0.493226
C	-0.057837857	-0.0097943531	 0.0086704716	 0.421618
C	-1.2134478028	-0.7072245437	-0.1280170059	-0.263413
C	-1.225420551	-2.1553323216	-0.0986871046	 0.18609
N	-2.2948455853	-2.8605934339	-0.2237828454	-0.556383
C	 0.1308124978	-2.692934236	 0.0901948179	 0.269673
F	 0.2354641461	-4.0167371126	 0.1316261973	-0.062488
N	 1.2224990355	-2.0376656011	 0.2192817197	-0.248878
N	 1.1185857539	-0.6911719944	 0.1779245515	-0.305016
H	 0.7022185086	 1.8262140015	-0.8233722608	 0.14434
H	-0.9314863249	 1.9370716908	-0.147839438	 0.154278
H	 0.4720503537	 1.8640083372	 0.9303676493	 0.144418
H	-2.1549125451	-0.190635163	-0.2624096887	 0.117029
H	-2.0624932536	-3.8532866987	-0.1722473347	 0.216818
H	 1.9961404452	-0.2103484233	 0.2800612443	 0.275138
106.8893	110.4101	189.8468	299.6795	328.2844	348.2662	408.4616	468.9584	477.2962	513.509	596.18	602.9562	723.1322	751.2214	781.688	855.192	893.5716	986.737	1040.9973	1065.6158	1116.4592	1175.5454	1242.3382	1311.2192	1367.3705	1412.2825	1429.2782	1479.5828	1480.0136	1531.2226	1640.8018	1676.0491	1690.7983	3033.6154	3086.7219	3146.76	3219.4625	3472.5882	3662.3331
CC1=CC(=N)C(F)=NN1	C[C@@H]1C=C([NH])C(=NN1)F	
InChI=1S/C5H6FN3/c1-3-2-4(7)5(6)9-8-3/h2H,1H3,(H2,7,8)	InChI=1S/C5H7FN3/c1-3-2-4(7)5(6)9-8-3/h2-3,7-8H,1H3/t3-/m1/s1
