20
gdb 8443	2.68317	2.06821	1.7677	1.8054	74.34	-0.2424	0.083	0.3255	897.0851	0.174946	-348.984841	-348.976321	-348.975376	-349.016843	33.107	
C	-0.1519161391	 1.5273461459	 0.1094408182	-0.512704
C	 0.1276575239	 0.0608613745	 0.0309234325	 0.405269
O	-0.7507299256	-0.8237067565	 0.7448288708	-0.298408
C	 0.6604492012	-0.9113465315	 1.0007553491	-0.041257
C	 1.2560083354	-1.7904915611	-0.100065573	-0.302314
C	 0.7076020229	-0.757169219	-1.1638144831	 0.274158
C	-0.3326033815	-1.2919358743	-2.1435057918	-0.450882
C	 1.8399416379	-0.0194017914	-1.8768321462	-0.451203
H	 0.7110910804	 2.1139395312	-0.2201110506	 0.125094
H	-1.0033995381	 1.7962581292	-0.5265127594	 0.129425
H	-0.3961742367	 1.8109085386	 1.1367312755	 0.133292
H	 0.9803825646	-0.7838516797	 2.0295161311	 0.096282
H	 2.3481407803	-1.8363708061	-0.0866705695	 0.09929
H	 0.84800874	-2.8035418035	-0.1472563596	 0.104732
H	-1.1561523881	-1.7664933276	-1.6046346875	 0.132339
H	-0.7444540002	-0.4863869415	-2.7630372002	 0.106999
H	 0.1102876865	-2.0327822969	-2.8189632105	 0.109152
H	 2.378562213	-0.6962055705	-2.5491641632	 0.116517
H	 1.4553282947	 0.8107759028	-2.480180639	 0.113651
H	 2.5656522083	 0.3905174374	-1.1653871736	 0.110568
149.1318	189.7885	211.2083	226.7788	247.0704	282.2056	333.9658	355.0251	412.7366	469.6628	520.7177	635.0968	643.1883	774.7656	834.8778	864.1408	905.2411	944.1895	956.5589	972.9002	986.2236	1021.8211	1052.1669	1101.592	1126.9918	1157.889	1209.001	1227.6535	1266.4695	1272.4563	1300.9299	1395.5806	1402.567	1414.9439	1453.0404	1476.3357	1482.9618	1486.3157	1491.2058	1494.7405	1502.7114	1512.3615	3020.5778	3026.0117	3033.7496	3057.7675	3083.0106	3089.0915	3091.9882	3096.1559	3113.9994	3119.9978	3121.6826	3173.316
CC12OC1CC2(C)C	C[C@]12O[C@H]1CC2(C)C	
InChI=1S/C7H12O/c1-6(2)4-5-7(6,3)8-5/h5H,4H2,1-3H3	InChI=1S/C7H12O/c1-6(2)4-5-7(6,3)8-5/h5H,4H2,1-3H3/t5-,7-/m0/s1
