16
gdb 53168	3.18204	1.01916	0.87696	3.9859	78.14	-0.2385	-0.0147	0.2238	1352.4845	0.122896	-400.701622	-400.69283	-400.691886	-400.737084	30.835	
C	 0.0153218864	 1.551593269	 0.0180855594	-0.499255
C	 0.0494718162	 0.0970231622	 0.044618691	 0.077541
C	 0.0823030322	-1.1069403862	 0.059491082	 0.085819
C	 0.0808195616	-2.5529923833	 0.084808711	-0.334901
C	 0.2282070868	-3.3054116359	 1.4173620469	-0.028937
C	-0.9348001307	-3.0969410746	 2.2817758266	-0.244021
N	-1.0503501315	-4.1156010926	 1.1834877718	-0.177021
C	-1.2700940237	-3.3363404933	-0.020111355	 0.394784
O	-2.1477683134	-3.4017443685	-0.8158683482	-0.285251
H	 0.7350298153	 1.9530111186	-0.7035404753	 0.153116
H	-0.9779365335	 1.918518408	-0.2626963116	 0.155502
H	 0.259343	 1.9715319481	 1.000022369	 0.151018
H	 0.758047402	-2.967034942	-0.6721067586	 0.139341
H	 1.130412381	-3.8089899213	 1.7405328516	 0.120791
H	-0.9430315934	-3.5587077527	 3.2629578255	 0.143975
H	-1.5103888653	-2.1789245955	 2.200257564	 0.147499
19.0886	80.0571	87.6314	169.7994	248.3744	265.9178	383.3859	406.6176	504.6855	514.4389	634.8054	665.9209	752.8153	809.34	854.0448	886.1559	973.0631	993.9621	1015.6908	1051.2696	1053.2971	1057.2531	1115.924	1141.4749	1168.6778	1190.9253	1238.7045	1331.9548	1356.974	1414.5771	1476.0458	1477.6255	1505.0582	1927.9791	2369.0251	3029.2623	3044.3689	3091.3863	3091.8387	3124.8695	3200.477	3220.238
CC#CC1C2CN2C1=O	CC#C[C@H]1[C@H]2CN2C1=O	
InChI=1S/C7H7NO/c1-2-3-5-6-4-8(6)7(5)9/h5-6H,4H2,1H3	InChI=1S/C7H7NO/c1-2-3-5-6-4-8(6)7(5)9/h5-6H,4H2,1H3/t5-,6+,8?/m0/s1
