20
gdb 87793	4.06426	0.97958	0.91743	2.24	80.62	-0.2359	0.0738	0.3098	1335.0111	0.170384	-403.085291	-403.076615	-403.075671	-403.11928	33.693	
O	 0.0336208204	 1.3942765568	 0.3036436284	-0.420825
C	 0.0041638777	-0.0027806113	 0.247343516	 0.040132
C	-0.8117454875	-0.7754359289	 1.2598151309	-0.391433
C	-1.2948008457	-0.6108677167	-0.1590502462	 0.351218
C	-2.5375590798	 0.1757024239	-0.6075207599	-0.377748
C	-2.8435478028	-0.9831096871	-1.5728154608	 0.362153
C	-4.1691798767	-1.5553727809	-1.886759748	-0.302473
N	-3.3633524474	-0.8865166188	-2.9319472769	-0.359334
C	-1.5397054075	-1.7104303156	-1.206576866	-0.374098
H	 0.5775154402	 1.6523124109	 1.0550507356	 0.288181
H	 0.91758388	-0.4682065053	-0.1265768126	 0.08355
H	-0.4528140733	-1.7488533155	 1.5810393158	 0.109839
H	-1.3198651652	-0.1972177696	 2.0259878662	 0.111594
H	-3.2911599733	 0.3679446167	 0.162149977	 0.10034
H	-2.2915148046	 1.1207587891	-1.102452903	 0.116755
H	-4.2858440298	-2.6281589748	-2.0203174341	 0.115387
H	-5.0504809759	-1.0492519821	-1.4987816147	 0.108123
H	-3.7233716077	 0.0504624517	-3.1007721858	 0.227844
H	-0.811140684	-1.729421028	-2.0230558199	 0.110169
H	-1.659734517	-2.7242889046	-0.8128349318	 0.100626
24.6281	152.2986	190.5611	260.0008	300.8675	311.1555	355.4431	398.4215	415.0011	448.7556	533.6484	666.678	788.3368	821.6282	841.4594	870.1003	885.707	888.4984	928.1972	948.8189	978.9049	1004.4035	1026.5169	1039.4197	1087.1783	1097.4231	1112.3938	1130.8414	1165.177	1197.4556	1209.1099	1230.0638	1232.8582	1266.2875	1284.9224	1301.8389	1344.5586	1408.3409	1427.3222	1469.1823	1486.6011	1492.3074	1516.1585	3041.0847	3045.7726	3086.2303	3091.0837	3094.6599	3096.9704	3115.718	3180.7377	3205.435	3486.3983	3806.4858
OC1CC11CC2(CN2)C1	O[C@H]1C[C@]21C[C@]1(CN1)C2	
InChI=1S/C7H11NO/c9-5-1-6(5)2-7(3-6)4-8-7/h5,8-9H,1-4H2	InChI=1S/C7H11NO/c9-5-1-6(5)2-7(3-6)4-8-7/h5,8-9H,1-4H2/t5-,6-,7+/m0/s1
