15
gdb 126025	2.00967	1.87171	1.0096	5.0043	73.19	-0.2389	-0.0704	0.1685	1113.9135	0.112493	-453.964835	-453.956596	-453.955652	-453.998307	29.243	
C	 0.1142090437	 1.5239395519	 0.0828477624	-0.405672
C	 0.0949107181	-0.0054667277	 0.1045330219	-0.123325
C	 0.7121018118	-0.6478672405	-1.1672922413	-0.080086
O	 1.4451580455	-1.814189029	-0.7694384332	-0.230635
C	 1.718310959	-1.7981141455	 0.5734201646	 0.413235
C	 0.9719380347	-0.6694066566	 1.1351706284	 0.132617
N	 1.0054978976	-0.3920344803	 2.3988318443	 0.137358
N	 1.0402602318	-0.1369635368	 3.5038853251	-0.231464
O	 2.4287620572	-2.6015774762	 1.1077680755	-0.361615
H	 1.1357565699	 1.9012263943	-0.0252744887	 0.130818
H	-0.4843105668	 1.9026945349	-0.7521059531	 0.129911
H	-0.3072581799	 1.9378449783	 1.0039837596	 0.131162
H	-0.9440995373	-0.3451231298	 0.2158934839	 0.106485
H	-0.0442901526	-0.9562271844	-1.891688071	 0.130181
H	 1.4053814973	 0.0494537474	-1.6528087484	 0.12103
64.477	126.1491	151.1078	178.5505	235.8369	292.0355	429.7973	443.9835	518.0767	553.4621	628.3817	665.6989	716.3217	742.7371	909.9346	953.3566	993.5018	1067.5525	1078.8048	1115.1873	1147.8622	1233.3788	1248.1418	1310.4927	1351.5702	1392.2113	1411.4048	1428.1026	1494.5855	1499.1168	1519.2978	1859.0968	2214.2227	3000.403	3033.4782	3037.6044	3107.0295	3110.2222	3115.761
CC1COC2=C1N=NO2	C[C@H]1COC(=O)[C]1[N][N]	
InChI=1S/C5H6N2O2/c1-3-2-8-5-4(3)6-7-9-5/h3H,2H2,1H3	InChI=1S/C5H6N2O2/c1-3-2-9-5(8)4(3)7-6/h3H,2H2,1H3/t3-/m0/s1
