17
gdb 87478	3.53511	1.2524	1.11295	1.6631	73.83	-0.2444	0.0081	0.2525	1103.8062	0.134816	-421.757766	-421.749739	-421.748795	-421.790368	30.749	
O	 0.1337256261	 1.355836442	-0.1122489268	-0.422398
C	 0.0231269627	-0.0349873911	-0.026057319	 0.030347
C	-0.4284338728	-0.7449247497	 1.2463386944	-0.432001
C	-1.2861745982	-0.7406001895	 0.0159631715	 0.376962
C	-2.7196405763	-0.2017791233	-0.244430692	-0.271096
C	-2.5004297005	-0.6812114122	-1.7218603189	-0.227604
C	-1.8940452947	-1.8570084046	-0.8774147477	-0.267105
C	-3.1305073438	-1.667913759	 0.0261856227	 0.460189
O	-3.9444533356	-2.2987965776	 0.6222102323	-0.320628
H	-0.5965618098	 1.7544367204	 0.3722300801	 0.285715
H	 0.8363443711	-0.4905820002	-0.5829975122	 0.115845
H	 0.0834546314	-1.655237092	 1.5442172732	 0.124973
H	-0.7397809021	-0.1198421711	 2.0798033609	 0.118424
H	-3.1710626085	 0.724747603	 0.105098873	 0.092266
H	-3.3914057137	-0.8988296217	-2.313552173	 0.112986
H	-1.7625061017	-0.0986836644	-2.2745812338	 0.124745
H	-1.4147149836	-2.7664780992	-1.2319370748	 0.098377
111.1484	127.2589	162.6989	197.7578	266.5572	400.9715	430.0391	470.8814	530.7635	611.1093	700.5532	744.2255	775.4694	790.8667	831.5138	879.7329	943.0425	973.4191	988.7198	1020.4642	1025.6942	1044.8625	1050.5873	1097.7181	1102.9228	1134.3871	1150.8453	1158.8928	1181.2685	1203.6046	1226.5366	1306.3373	1368.4442	1435.8228	1491.152	1511.906	1920.4589	3074.7551	3111.853	3140.5684	3151.8616	3153.2835	3159.9363	3197.841	3818.8537
OC1CC11C2CC1C2=O	O[C@H]1C[C@]21[C@H]1C[C@@H]2C1=O	
InChI=1S/C7H8O2/c8-5-2-7(5)3-1-4(7)6(3)9/h3-5,8H,1-2H2	InChI=1S/C7H8O2/c8-5-2-7(5)3-1-4(7)6(3)9/h3-5,8H,1-2H2/t3-,4+,5-,7-/m0/s1
