19
gdb 64660	3.82897	1.02167	1.0115	1.7322	80.8	-0.2352	0.0494	0.2847	1258.8673	0.157266	-385.809433	-385.800544	-385.799599	-385.842916	33.955	
C	-0.0218628488	 1.6482059859	-0.3200747654	-0.479589
C	-0.0197912412	 0.1443978454	-0.1518363355	 0.3069
C	-1.3112956829	-0.4544103584	 0.4151072452	-0.434749
C	-1.6368926607	 0.0245048734	 1.7558896382	 0.314164
C	-1.8950960216	 0.423231558	 2.8599954556	-0.445555
C	 0.6560486439	-0.8023969553	-1.1386226878	-0.19191
C	 1.9888754392	-0.2259550201	-1.6004478482	-0.111761
O	 2.4065729896	 0.0179049716	-0.2289492168	-0.28754
C	 1.2164201209	-0.6066291595	 0.2565582942	 0.068163
H	 0.9842037316	 2.019659522	-0.5235273664	 0.13757
H	-0.6825894911	 1.9567501844	-1.1384329207	 0.110452
H	-0.3748707041	 2.1282023162	 0.5978744354	 0.133123
H	-2.1427185931	-0.2267349907	-0.2657600924	 0.133116
H	-1.2306304848	-1.5491960201	 0.4356430175	 0.127513
H	-2.1265342643	 0.7703585179	 3.8363789455	 0.196616
H	 0.1461746957	-1.646351623	-1.5857137323	 0.094772
H	 2.6427273077	-0.9700929508	-2.0685709717	 0.112755
H	 1.9769084708	 0.6883809574	-2.2045927219	 0.107511
H	 1.3015879532	-1.2521034343	 1.1243095674	 0.108451
65.5073	122.0844	183.5889	229.4322	258.5819	307.0267	330.6704	348.7071	400.305	473.6883	588.5226	619.9995	642.6279	705.0402	768.336	822.0839	878.928	933.3056	947.9776	953.9574	978.3943	992.6728	1001.7554	1036.8051	1077.8564	1094.4394	1123.6546	1161.3106	1179.7326	1231.0124	1249.0551	1300.9395	1336.9352	1339.692	1414.0606	1424.56	1467.3831	1490.6213	1503.2976	1520.2209	2237.9963	3011.2754	3027.5898	3034.8504	3043.2065	3075.4708	3098.1474	3132.3364	3169.0978	3190.8619	3506.2536
CC1(CC#C)C2COC12	C[C@@]1(CC#C)[C@H]2CO[C@@H]12	
InChI=1S/C8H10O/c1-3-4-8(2)6-5-9-7(6)8/h1,6-7H,4-5H2,2H3	InChI=1S/C8H10O/c1-3-4-8(2)6-5-9-7(6)8/h1,6-7H,4-5H2,2H3/t6-,7+,8+/m0/s1
