27
gdb 101616	2.38976	0.96892	0.84319	1.0389	92.83	-0.2469	0.0728	0.3197	1594.8583	0.248079	-390.698109	-390.685957	-390.685013	-390.736136	44.657	
C	 0.6519689981	 1.4561214314	 0.0685370662	-0.236088
O	 0.3493846184	 0.0868135407	-0.0473006537	-0.238549
C	 0.7258942567	-0.5107896472	-1.2866954582	 0.119603
C	 2.2359648013	-0.7737434031	-1.3373289213	-0.399055
C	-0.0669247121	-1.8168742069	-1.4195649787	-0.192356
C	-1.5587044828	-1.7416752815	-1.8364545321	 0.256275
C	-1.6964283031	-1.1701356775	-3.260591214	-0.402108
C	-2.107281008	-3.1824073105	-1.8320161413	-0.401633
C	-2.3932530119	-0.8931355157	-0.8598461475	-0.386651
H	 1.7335332946	 1.6562513232	 0.0734533212	 0.104738
H	 0.1994641554	 2.0447225367	-0.745704046	 0.100032
H	 0.236017777	 1.7983025171	 1.0198958609	 0.125269
H	 0.4627369545	 0.1786683457	-2.1056020966	 0.061695
H	 2.5228750384	-1.4890536929	-0.5596359026	 0.121464
H	 2.5219122631	-1.1862624558	-2.3099679658	 0.113481
H	 2.8112182041	 0.1440485995	-1.1859628548	 0.112685
H	 0.4509352979	-2.4523800612	-2.1491937637	 0.085036
H	 0.0107643893	-2.3304861699	-0.4526061822	 0.099527
H	-1.1170975496	-1.7568294595	-3.9828751033	 0.103536
H	-2.7433124965	-1.1871779201	-3.5829865692	 0.108109
H	-1.3557284868	-0.13162437	-3.3214986318	 0.108519
H	-2.0418233418	-3.6269754625	-0.8328174377	 0.10805
H	-3.1591448398	-3.2016131665	-2.1376609358	 0.105133
H	-1.547636427	-3.8250072142	-2.5212598547	 0.103793
H	-2.0835764834	 0.1540986399	-0.864513519	 0.113694
H	-3.4540503537	-0.936386974	-1.1330500073	 0.095499
H	-2.2924382222	-1.2571885752	 0.1673177491	 0.110301
17.0472	69.7939	103.8842	163.3252	208.6808	216.3899	243.0653	252.2979	270.168	279.9117	307.034	317.0819	346.6323	390.1495	410.3635	438.3778	503.5325	548.2316	746.7399	816.3824	879.1094	896.222	932.5426	937.496	959.4967	967.2512	1015.9745	1033.9225	1084.0766	1109.1472	1116.6534	1160.8348	1181.2523	1191.5417	1230.6799	1243.8169	1271.9446	1316.0431	1334.9109	1382.1286	1394.0488	1400.228	1402.7062	1404.924	1433.2798	1463.7375	1476.4351	1479.3	1480.4858	1482.4765	1485.8056	1493.6546	1502.5296	1505.6871	1507.7512	1511.9194	1516.1328	2964.9918	2973.5168	3015.6596	3019.7096	3019.8967	3024.0883	3032.9733	3038.3329	3058.062	3086.296	3090.6408	3091.1146	3094.9115	3098.3187	3105.9633	3109.4954	3112.2056	3122.6768
COC(C)CC(C)(C)C	CO[C@@H](C)CC(C)(C)C	
InChI=1S/C8H18O/c1-7(9-5)6-8(2,3)4/h7H,6H2,1-5H3	InChI=1S/C8H18O/c1-7(9-5)6-8(2,3)4/h7H,6H2,1-5H3/t7-/m0/s1
