19
gdb 104096	2.4557	1.41241	1.17153	2.235	72.01	-0.2473	0.0109	0.2582	1121.5093	0.158406	-460.160506	-460.15136	-460.150415	-460.194266	35.01	
O	-0.1135993821	 1.4259026466	 0.0209057104	-0.441688
C	 0.0095071346	 0.003869836	-0.0456428893	-0.131899
C	-1.4165028678	-0.5384763699	-0.0431142179	 0.352681
O	-2.0838727981	-0.0634119262	 1.1216120787	-0.486569
C	-2.2286723304	-0.1623169383	-1.3194242057	-0.294595
C	-2.9828474849	-1.4263018292	-1.6421431024	-0.065171
C	-2.6037359499	-2.4588429021	-0.8889243714	-0.120079
C	-1.4734709385	-2.0970730827	 0.0362486564	 0.060023
O	-0.2532390762	-2.7514155164	-0.3256090971	-0.434728
H	 0.7432615272	 1.7970461538	 0.2472166456	 0.294521
H	 0.5470459543	-0.3079752614	-0.9502926841	 0.084269
H	 0.5480911602	-0.3909118403	 0.8249562238	 0.106213
H	-1.8528816337	 0.8728793855	 1.1823861824	 0.283204
H	-2.8957373774	 0.6777295346	-1.1012779233	 0.114817
H	-1.5912277906	 0.1533328575	-2.1557619109	 0.103507
H	-3.7515292331	-1.4647130491	-2.4074761902	 0.097893
H	-2.9982601821	-3.4671900001	-0.9438088736	 0.097811
H	-1.6505687631	-2.3738552401	 1.0795367287	 0.1038
H	-0.2348671285	-2.8093188782	-1.28721578	 0.27599
56.1394	123.6692	192.8373	237.7711	263.5086	303.3445	346.5448	353.6485	398.0313	415.3226	472.8323	512.9188	554.253	686.9198	739.1096	790.1321	796.4143	926.2	939.7696	973.1367	974.2419	982.3949	1043.909	1046.5163	1096.8256	1113.3321	1126.9233	1148.0937	1211.0511	1238.3944	1258.8128	1263.5726	1297.9016	1325.2062	1368.4948	1405.7832	1419.6584	1443.8804	1464.1497	1503.1535	1681.3972	3011.2642	3023.7546	3055.2067	3074.5797	3076.2521	3177.5509	3206.079	3765.5352	3801.3194	3844.3248
OCC1(O)CC=CC1O	OC[C@@]1(O)CC=C[C@H]1O	
InChI=1S/C6H10O3/c7-4-6(9)3-1-2-5(6)8/h1-2,5,7-9H,3-4H2	InChI=1S/C6H10O3/c7-4-6(9)3-1-2-5(6)8/h1-2,5,7-9H,3-4H2/t5-,6+/m1/s1
