19
gdb 70447	2.98566	1.23114	1.0174	2.3824	75.42	-0.2469	0.0787	0.3256	1215.0044	0.157911	-422.968613	-422.960117	-422.959173	-423.002044	31.993	
C	 0.0707379878	 1.4314648477	-0.3771914907	-0.504292
C	 0.1842629477	-0.0214953091	-0.0499596964	 0.401726
O	-0.8330804527	-0.616008646	 0.7741915187	-0.289664
C	 0.5382924155	-0.7547043057	 1.1791533468	-0.039187
C	 1.1181107334	-1.9329526656	 0.391322419	-0.272306
C	 0.7454298112	-1.1658920823	-0.9329919432	-0.0846
C	-0.2216498387	-1.8150491276	-1.8808072918	 0.085461
C	-0.2020534752	-1.5513586642	-3.3263460059	-0.188818
O	 0.3260233999	-2.7683420435	-2.8006885646	-0.240319
H	 1.023900887	 1.8224299581	-0.7476652422	 0.125142
H	-0.6854852694	 1.5988576885	-1.1524490391	 0.132305
H	-0.2214221029	 1.9991172553	 0.5102239198	 0.136608
H	 0.7952514562	-0.3924897997	 2.1683494113	 0.102543
H	 2.196684015	-2.0568869403	 0.5093184754	 0.109734
H	 0.6193643382	-2.8908357084	 0.5572684349	 0.116441
H	 1.6464304149	-0.8586872667	-1.4719733958	 0.079634
H	-1.1648566858	-2.1225802136	-1.4304449942	 0.106584
H	-1.1181861815	-1.6487868784	-3.9075911928	 0.115254
H	 0.5345096094	-0.8616678785	-3.7384817993	 0.107753
69.9729	128.241	147.741	199.6236	274.5256	281.835	342.0505	438.5137	450.8411	543.7445	655.0698	733.4449	806.358	854.1348	865.5216	902.5964	909.4693	922.5495	959.2981	985.4068	1042.3771	1046.1765	1089.5476	1108.2816	1122.708	1155.6152	1178.7454	1188.0391	1205.7494	1212.0784	1262.167	1272.7264	1289.0221	1306.5456	1405.0487	1443.2568	1461.7827	1478.5817	1486.0387	1496.3991	1529.5571	3034.3435	3066.6006	3071.8217	3077.3032	3096.3978	3121.5227	3122.535	3127.7265	3162.862	3182.5136
CC12OC1CC2C1CO1	C[C@]12O[C@H]1C[C@H]2[C@H]1CO1	
InChI=1S/C7H10O2/c1-7-4(5-3-8-5)2-6(7)9-7/h4-6H,2-3H2,1H3	InChI=1S/C7H10O2/c1-7-4(5-3-8-5)2-6(7)9-7/h4-6H,2-3H2,1H3/t4-,5+,6-,7+/m0/s1
