16
gdb 37206	2.85463	2.07554	1.76088	2.4772	66.51	-0.2359	0.0342	0.2702	828.1718	0.125463	-437.74171	-437.735364	-437.73442	-437.772013	26.377	
C	 0.0268363198	 1.5128590743	-0.0090433678	-0.147576
O	 1.5008698802	 1.5245994878	-0.0269213045	-0.335923
C	 1.5162146236	 0.0857824538	-0.0519581865	 0.330285
C	 1.4834665134	-0.6489441928	 1.3034730332	-0.149907
O	 0.0202000433	-0.7268556471	 1.2458039392	-0.328833
C	 0.0225057207	-0.0376812404	-0.0141902339	 0.311909
C	 0.0668255139	-0.9088403043	-1.28001056	-0.137503
N	 0.6908444035	-0.0531992391	-2.3038350761	-0.322405
C	 1.5769914639	-0.7427290239	-1.3405868846	-0.137476
H	-0.3695557017	 1.9635074591	 0.9055472678	 0.113368
H	-0.3790340849	 1.9945917101	-0.9009833612	 0.128796
H	 1.9398564423	-1.6439470744	 1.3437503143	 0.110612
H	 1.828523912	-0.0416203804	 2.1458376537	 0.12251
H	-0.5579979638	-1.754086612	-1.54116081	 0.105335
H	 0.7188243452	-0.584311135	-3.1727653537	 0.240191
H	 2.3511376187	-1.4163433257	-1.6901725299	 0.096617
223.7532	266.2472	319.1834	354.6084	372.6425	533.9032	545.4644	687.7378	727.464	751.9026	809.1564	859.7686	878.229	899.8231	903.1173	925.7544	934.7303	969.5158	996.6518	1072.8797	1092.097	1126.374	1133.1653	1147.6087	1162.13	1181.0163	1208.757	1218.868	1277.0686	1315.738	1327.3418	1339.2709	1364.9288	1482.4158	1500.5714	3033.7391	3052.8584	3093.9601	3123.549	3173.5813	3193.8206	3490.61
C1OC23COC12C1NC31	C1O[C@@]23CO[C@@]12[C@H]1N[C@@H]31	
InChI=1S/C6H7NO2/c1-5-3-4(7-3)6(5,8-1)2-9-5/h3-4,7H,1-2H2	InChI=1S/C6H7NO2/c1-5-3-4(7-3)6(5,8-1)2-9-5/h3-4,7H,1-2H2/t3-,4+,5-,6-/m1/s1
