12
gdb 16089	4.80409	1.83641	1.57158	2.9931	59.39	-0.2781	-0.019	0.2591	774.0791	0.08525	-377.521877	-377.515825	-377.514881	-377.552057	22.792	
N	-0.0020094612	-1.1366908626	-0.03727846	-0.334839
C	-0.0012141656	 0.019017908	 0.0047991563	 0.237114
C	 0.0356772607	 1.4483202171	 0.0242476082	 0.264505
C	 0.3778934119	 2.2827971025	-1.1856173634	-0.334561
C	 1.2899159668	 2.3514356411	 0.0110132148	-0.053781
N	 1.0143443896	 3.3807949482	 0.9755947104	-0.242137
C	-0.1545545751	 3.1536253507	 1.4192676783	 0.101344
O	-0.8275222716	 2.0545250659	 0.9755528836	-0.235372
H	 0.7418080768	 1.731002923	-2.0443335662	 0.153211
H	-0.2618969376	 3.1311783338	-1.4038813495	 0.145279
H	 2.3031336704	 1.9747611919	-0.0462035315	 0.136424
H	-0.6983832551	 3.7530088004	 2.1379385591	 0.162815
151.5366	171.894	369.3115	385.3778	488.1904	557.0742	573.3099	637.9776	729.0438	797.1341	865.7042	919.577	939.059	956.0628	1024.0866	1050.9301	1078.396	1118.2682	1131.114	1204.5645	1272.5557	1328.4665	1360.4122	1459.6542	1668.4128	2357.4909	3139.9841	3202.0516	3239.4408	3243.18
N#CC12CC1N=CO2	N#C[C@]12C[C@H]1N=CO2	
InChI=1S/C5H4N2O/c6-2-5-1-4(5)7-3-8-5/h3-4H,1H2	InChI=1S/C5H4N2O/c6-2-5-1-4(5)7-3-8-5/h3-4H,1H2/t4-,5-/m1/s1
