13
gdb 132380	1.95093	1.74912	0.92274	2.7695	65.01	-0.225	-0.0089	0.2161	1118.961	0.089417	-502.069632	-502.062497	-502.061553	-502.101175	27.815	
N	 0.0167180095	 1.362322768	 0.1545569668	-0.565104
C	-0.0157412831	-0.0075458474	 0.0588017281	 0.423175
C	-1.2297248737	-0.7123808936	 0.0387559689	-0.357627
C	-1.1517143845	-2.0920205386	-0.0070078749	 0.373747
F	-2.2765446961	-2.8019871012	-0.0285858216	-0.071295
C	 0.0662860437	-2.7597098652	-0.0307655303	-0.454331
C	 1.1812468412	-1.9331249307	-0.0088749646	 0.361309
F	 2.3815910295	-2.5043702745	-0.0354683283	-0.072568
N	 1.1790128568	-0.6204897092	 0.0302020332	-0.38925
H	 0.9056625261	 1.7811618063	-0.0706225847	 0.263869
H	-0.7946499868	 1.8763724349	-0.1463689357	 0.257659
H	-2.1895495676	-0.2133215023	 0.0655894753	 0.105181
H	 0.1396775151	-3.8365283765	-0.0675803023	 0.125234
203.7743	212.3479	258.3495	323.6329	342.8023	400.2223	481.8632	511.9444	524.7955	586.7342	620.2772	651.5824	683.4984	756.0107	808.9319	834.0008	986.1135	1010.5652	1049.4364	1133.6187	1166.8513	1225.4591	1349.6868	1439.9487	1482.6184	1511.2961	1627.0389	1635.6751	1667.6791	3214.78	3242.8719	3592.9305	3712.1439
NC1=CC(F)=CC(F)=N1	Nc1cc(F)cc(F)n1	
InChI=1S/C5H4F2N2/c6-3-1-4(7)9-5(8)2-3/h1-2H,(H2,8,9)	InChI=1S/C5H4F2N2/c6-3-1-4(7)9-5(8)2-3/h1-2H,(H2,8,9)
