19
gdb 102356	1.73642	1.4533	1.13263	3.3858	77.71	-0.2437	-0.0217	0.2219	1217.7341	0.154669	-422.992456	-422.981628	-422.980683	-423.028469	38.252	
C	 0.1307858108	 1.5387350178	-0.0338604659	-0.40282
C	 0.0021745761	 0.0164489819	 0.0497178764	-0.194872
C	-1.4695427031	-0.5103039109	 0.0476318566	-0.080447
C	-2.2427872973	-0.0336931318	-1.2082353765	-0.11788
O	-1.4590584269	-0.3314429943	-2.3522676057	-0.423441
C	-1.3654729974	-2.0445127727	-0.0027414734	 0.146679
O	-1.5603201909	-2.7853936098	 0.9217263545	-0.250233
C	-2.1883211452	-0.0689703006	 1.2379089447	 0.335711
C	-2.7924773081	 0.3212968238	 2.2002791485	-0.443369
H	 1.180229081	 1.8308220062	 0.0680608994	 0.118169
H	-0.2235358333	 1.9162269858	-0.9971269644	 0.125172
H	-0.4356420012	 2.0290447098	 0.7632149392	 0.130991
H	 0.5253356959	-0.4430700382	-0.7944039249	 0.120938
H	 0.474343334	-0.3499926847	 0.9669302377	 0.117917
H	-3.2170632906	-0.5431355279	-1.240490521	 0.109649
H	-2.4356816574	 1.0432523575	-1.1171668726	 0.112172
H	-1.9769520307	-0.1292103718	-3.1366801867	 0.296489
H	-1.0588670055	-2.4177039402	-1.002177068	 0.10244
H	-3.3228619702	 0.6460750399	 3.061213722	 0.196735
58.8957	84.499	126.3142	142.1511	151.1183	211.0287	230.4042	242.4717	291.2116	317.5372	383.1122	387.7709	480.4456	535.0344	639.8732	649.7208	665.9555	727.5284	788.6882	871.4948	953.7581	1006.504	1013.0449	1058.4961	1081.5795	1131.1645	1164.5562	1202.0642	1260.598	1281.5925	1325.9713	1364.7422	1406.8245	1416.2358	1445.1663	1482.3719	1498.5811	1505.085	1525.8319	1836.5242	2239.1187	2920.6986	2994.3054	3034.1267	3043.9924	3049.7692	3091.7177	3111.8333	3123.0965	3500.5651	3836.5635
CCC(CO)(C=O)C#C	CC[C@@](CO)(C=O)C#C	
InChI=1S/C7H10O2/c1-3-7(4-2,5-8)6-9/h1,5,9H,4,6H2,2H3	InChI=1S/C7H10O2/c1-3-7(4-2,5-8)6-9/h1,5,9H,4,6H2,2H3/t7-/m1/s1
