19
gdb 114631	2.64047	1.2315	0.97832	2.5568	71.48	-0.2415	0.0584	0.2999	1250.915	0.157332	-460.09338	-460.084192	-460.083247	-460.127687	33.724	
C	-0.4738674711	 1.2715521533	-0.0510505342	-0.257088
O	 0.1842611097	 0.0235368209	 0.1192067381	-0.276702
C	 0.7668954073	-0.4558350918	-1.0260903791	 0.334362
C	-0.0187001272	-1.0648443754	-2.1753325768	-0.366623
C	 1.014612616	-1.8773267633	-1.4428918561	 0.02032
O	 2.3313523224	-1.5836977166	-1.9250575115	-0.320098
C	 2.2257618569	-0.2064841868	-1.437264184	 0.05292
C	 2.6129287572	 0.7886058251	-2.5147195493	-0.085468
O	 3.9203142569	 0.5225348613	-2.9879875576	-0.419021
H	 0.2302969428	 2.0664702714	-0.333358046	 0.115599
H	-1.2578008978	 1.2080503634	-0.8173657126	 0.116721
H	-0.9262349887	 1.523840517	 0.9100180701	 0.133368
H	-1.0425172298	-1.3028793579	-1.9014482488	 0.123633
H	 0.1360099827	-0.7866022687	-3.2133605268	 0.117594
H	 0.8469827974	-2.8310625794	-0.9583259414	 0.119508
H	 2.8671856137	-0.0917387536	-0.5551842067	 0.098579
H	 1.8766653589	 0.7674746435	-3.3322183802	 0.087476
H	 2.6232370059	 1.8029579085	-2.0995880082	 0.109231
H	 3.9290056668	-0.4092792509	-3.2383886688	 0.295691
77.3009	92.6165	139.8481	170.0295	187.8997	259.8362	323.018	403.3192	432.4888	435.9164	488.1881	536.322	672.8754	742.0952	839.4493	879.6843	907.4605	985.8136	1000.6663	1016.8835	1033.6687	1058.817	1073.287	1081.5723	1098.8824	1129.9169	1179.2653	1207.9644	1216.6214	1230.8081	1248.1737	1284.8739	1344.0318	1382.2237	1404.246	1435.8112	1464.3285	1487.6163	1497.374	1501.9668	1505.783	2991.252	2997.6395	3042.8625	3054.4635	3068.8771	3118.8593	3128.9255	3195.8287	3212.5073	3790.6538
COC12CC1OC2CO	CO[C@]12C[C@H]1O[C@H]2CO	
InChI=1S/C6H10O3/c1-8-6-2-4(6)9-5(6)3-7/h4-5,7H,2-3H2,1H3	InChI=1S/C6H10O3/c1-8-6-2-4(6)9-5(6)3-7/h4-5,7H,2-3H2,1H3/t4-,5+,6-/m1/s1
