21
gdb 87906	2.6116	1.38594	1.11517	1.7395	83.52	-0.2428	0.0236	0.2664	1197.8391	0.181588	-387.09433	-387.085289	-387.084344	-387.128072	34.568	
C	 0.0273561912	 1.5704545536	-0.0653853721	-0.423884
C	-0.0277967851	 0.0748074622	 0.11984753	 0.010512
O	 1.1889591164	-0.6577760181	-0.0756275686	-0.296723
C	 0.6097331926	-0.6328461631	 1.2393013219	 0.386174
C	 1.4392009873	 0.056485181	 2.3311215693	-0.337086
C	 1.6270711444	-1.038730676	 3.350542515	-0.081692
C	 0.9310051228	-2.1341375424	 3.051824645	-0.068078
C	 0.1127087415	-1.9856121902	 1.7895701734	-0.106732
C	-1.3998994975	-2.0464321132	 2.067026737	-0.394222
H	 0.8997270788	 2.0022286476	 0.4302048638	 0.127017
H	 0.0804578249	 1.8209185601	-1.1300974256	 0.128061
H	-0.8747428661	 2.0392888761	 0.3432987069	 0.11984
H	-0.8957918304	-0.4019067839	-0.3411663093	 0.080127
H	 2.3840474625	 0.420817624	 1.912782048	 0.122387
H	 0.9262365293	 0.9282395195	 2.7606805677	 0.108726
H	 2.2603996287	-0.9170236907	 4.2222442296	 0.093671
H	 0.9065248681	-3.041355368	 3.6463093628	 0.091364
H	 0.3634037607	-2.7620475518	 1.0554881334	 0.094498
H	-1.708400272	-1.2414822702	 2.7422117566	 0.115917
H	-1.9816662176	-1.9616035133	 1.1441126813	 0.11596
H	-1.6663615506	-2.9973654632	 2.5402991637	 0.114161
54.7208	148.3844	175.8559	202.5423	230.7876	256.4908	286.8349	411.1873	448.7407	468.1065	536.3875	547.8062	719.6306	749.793	774.5544	781.9241	890.7411	901.3165	967.0229	970.3395	979.8732	996.3463	1011.9757	1045.181	1092.3623	1100.4441	1127.3548	1133.5016	1154.0158	1191.8616	1219.3143	1284.753	1286.4854	1325.9133	1355.145	1375.1235	1407.9013	1409.9951	1465.0268	1475.7663	1488.4736	1494.7734	1498.9865	1511.3412	1688.7347	3011.5121	3025.7998	3031.2783	3036.5943	3062.2637	3078.4214	3097.8875	3099.5439	3106.6531	3130.4541	3178.9113	3204.5854
CC1OC11CC=CC1C	C[C@H]1O[C@]21CC=C[C@H]2C	
InChI=1S/C8H12O/c1-6-4-3-5-8(6)7(2)9-8/h3-4,6-7H,5H2,1-2H3	InChI=1S/C8H12O/c1-6-4-3-5-8(6)7(2)9-8/h3-4,6-7H,5H2,1-2H3/t6-,7-,8-/m1/s1
