19
gdb 79786	3.67323	1.67219	1.54583	1.8507	76.58	-0.2357	0.0785	0.3143	927.4071	0.161921	-385.834168	-385.827759	-385.826815	-385.864653	27.337	
C	-0.1646589686	 1.6070622001	-0.0352753922	-0.421983
C	 0.0186868573	 0.0964248797	 0.0144909922	 0.020359
C	 1.1672836343	-0.5883575043	-0.7823848612	-0.072931
C	 2.4805777388	 0.0522524393	-0.286015319	 0.086258
O	 3.4616218568	-1.0201598326	-0.2767197733	-0.29995
C	 2.6905828365	-1.5425128978	 0.8162643056	 0.079212
C	 2.1797909337	-0.142335192	 1.2470029085	-0.093561
C	 0.6840292572	-0.5829438599	 1.2318821236	-0.08057
C	 1.2194887931	-1.729463433	 0.3100548749	-0.072444
H	 0.7535109618	 2.1357470369	 0.2419550373	 0.116946
H	-0.449989219	 1.9394959962	-1.0397588865	 0.116497
H	-0.9517683818	 1.9293099613	 0.6552111471	 0.115432
H	-0.9296024282	-0.4074402674	-0.2079605965	 0.072387
H	 1.0922965898	-0.7971779145	-1.8490921665	 0.067059
H	 2.8477078183	 0.9722890781	-0.7376005786	 0.081509
H	 3.193593602	-2.2937075164	 1.4237089441	 0.079442
H	 2.6506732069	 0.4982709591	 1.988956766	 0.074151
H	 0.1776721404	-0.7435322365	 2.1829406416	 0.062926
H	 0.7241400405	-2.6813341262	 0.1361243529	 0.06926
179.4994	208.8725	244.7245	479.4345	501.8662	558.2396	667.5649	710.6759	783.1064	799.826	821.4396	841.7589	855.8636	871.0978	889.9053	907.8989	929.4103	948.3094	957.775	974.5294	1039.6306	1047.2346	1065.6873	1096.868	1112.5812	1132.4381	1151.0932	1166.7962	1175.0828	1195.549	1219.8462	1233.1898	1249.7483	1275.7275	1302.6411	1309.2403	1335.2478	1384.9177	1409.8293	1493.3421	1498.6334	3027.2585	3035.5422	3091.3951	3097.2469	3118.595	3119.1134	3126.8969	3133.098	3146.2691	3152.7408
CC1C2C3OC4C3C1C24	C[C@H]1[C@H]2[C@@H]3O[C@H]4[C@@H]3[C@@H]1[C@@H]24	
InChI=1S/C8H10O/c1-2-3-5-4(2)7-6(3)8(5)9-7/h2-8H,1H3	InChI=1S/C8H10O/c1-2-3-5-4(2)7-6(3)8(5)9-7/h2-8H,1H3/t2-,3+,4-,5+,6-,7+,8-/m1/s1
