19
gdb 80934	2.78877	1.43473	1.28976	1.813	76.29	-0.2522	0.0713	0.3234	1069.9651	0.158396	-422.951853	-422.943454	-422.94251	-422.984166	33.47	
O	-0.0212210034	 1.4367418197	-0.0981830234	-0.451383
C	 0.017814603	 0.0345078731	 0.0144908095	 0.081351
C	-0.0597536288	-0.6441519008	 1.4250515586	-0.208566
C	-1.5162833409	-0.0989907296	 1.5447585895	-0.295879
C	-1.3768518965	-0.6500834486	 0.0793161407	 0.298815
O	-2.3294726535	-0.7439527216	-0.9123390318	-0.480279
C	-0.6537784484	-1.8555502913	 0.6829056915	 0.423619
C	-0.0676867161	-3.0757329144	 0.0637209122	-0.377886
C	-1.1546968901	-3.1787919047	 1.1355003324	-0.3731
H	 0.8703745963	 1.7763970867	 0.0233446637	 0.286112
H	 0.7337046573	-0.413949177	-0.6849333209	 0.070124
H	 0.7072891639	-0.6551890379	 2.1964395203	 0.07624
H	-2.1862557064	-0.6566307686	 2.2013193465	 0.095137
H	-1.6187226572	 0.980391794	 1.651466219	 0.102792
H	-2.5487937826	 0.1484956699	-1.2024837151	 0.291576
H	-0.3456474762	-3.3214232573	-0.9564334067	 0.120899
H	 0.9392524813	-3.3752655956	 0.3378729741	 0.108619
H	-0.8631245505	-3.5445470592	 2.1151315945	 0.110074
H	-2.1436731713	-3.4930376269	 0.8169905653	 0.121734
169.569	177.5646	201.7049	222.5246	262.7637	284.5047	349.7239	398.2022	481.875	492.4372	592.8308	662.0582	698.1333	765.2347	784.8318	828.8699	905.2401	917.8365	939.7505	964.1553	972.9727	1008.2341	1046.9592	1049.9467	1079.7364	1087.9967	1123.6601	1132.2877	1149.6808	1175.5034	1183.8677	1192.4701	1229.1117	1287.5399	1293.8767	1342.4093	1420.3436	1448.095	1460.3651	1499.3606	1540.7483	3035.2254	3080.9462	3120.1152	3123.6936	3141.8348	3157.5919	3198.2323	3212.1709	3807.5099	3825.3741
OC1C2CC1(O)C21CC1	O[C@H]1[C@H]2C[C@]1(O)C12CC1	
InChI=1S/C7H10O2/c8-5-4-3-7(5,9)6(4)1-2-6/h4-5,8-9H,1-3H2	InChI=1S/C7H10O2/c8-5-4-3-7(5,9)6(4)1-2-6/h4-5,8-9H,1-3H2/t4-,5+,7-/m1/s1
