20
gdb 107654	3.13445	1.27227	1.07911	1.2759	80.35	-0.2304	0.0136	0.244	1183.6237	0.172639	-403.13051	-403.121941	-403.120996	-403.163723	32.869	
O	 0.6510025522	-0.0883150711	 0.8660373817	-0.413115
C	-0.1453560587	 0.3782996713	-0.2169276215	-0.179214
C	-1.5315105949	-0.2577157133	-0.2427919131	 0.291975
N	-2.1630857165	-0.6103102626	 1.0511896891	-0.379106
C	-1.6960322501	-1.6812152458	 0.1323233748	-0.080002
C	-2.7809740849	-2.5042452089	-0.5524732062	-0.210658
C	-3.0456185826	-2.0451542438	-2.0007454202	-0.265402
C	-3.0999114661	-0.5410914605	-2.1212459627	-0.050313
C	-2.4291579459	 0.2720381226	-1.3052704249	-0.121041
H	 0.642605502	 0.5771280065	 1.5581515947	 0.294258
H	-0.2473087007	 1.4728260231	-0.1861190132	 0.096647
H	 0.3825665213	 0.1313874137	-1.1461769294	 0.119028
H	-1.449296544	-0.507472049	 1.7731339372	 0.211569
H	-0.7951104384	-2.2054483328	 0.4389906339	 0.094759
H	-2.51529933	-3.5664558843	-0.5406982391	 0.092435
H	-3.7023857992	-2.3940972147	 0.0277934631	 0.117454
H	-2.264337358	-2.4332298938	-2.6711610837	 0.109966
H	-3.9833962696	-2.4819037646	-2.3617376898	 0.102942
H	-3.7210712311	-0.1229374201	-2.9095819342	 0.088952
H	-2.5040013748	 1.3523963279	-1.4124000665	 0.078864
83.16	119.9189	175.5236	188.8214	256.8634	284.1701	400.0438	445.0191	496.9374	508.6175	561.0135	675.5518	727.5531	773.4186	800.0124	862.1847	911.4858	943.302	965.0518	990.9856	998.2795	1025.989	1044.2261	1062.1937	1098.1466	1113.9078	1176.6125	1195.0562	1214.9995	1226.0001	1277.0035	1287.7356	1324.1388	1344.9497	1367.6229	1384.988	1411.7216	1430.9166	1456.385	1476.3155	1485.0012	1498.3532	1713.548	2997.1572	2999.3437	3041.8344	3051.9522	3058.8808	3088.8937	3136.9302	3147.0557	3163.8458	3456.4497	3853.6081
OCC12NC1CCC=C2	OC[C@]12N[C@H]1CCC=C2	
InChI=1S/C7H11NO/c9-5-7-4-2-1-3-6(7)8-7/h2,4,6,8-9H,1,3,5H2	InChI=1S/C7H11NO/c9-5-7-4-2-1-3-6(7)8-7/h2,4,6,8-9H,1,3,5H2/t6-,7-/m0/s1
