15
gdb 46069	2.88637	1.5104	1.26399	3.2445	60.52	-0.2736	0.0025	0.2761	1000.2441	0.112635	-494.907172	-494.899709	-494.898765	-494.939768	27.207	
O	 0.3228019789	 0.1228138612	 0.1526617004	-0.317659
C	 0.160394515	 1.2910473576	-0.0123979505	 0.414192
C	-1.0356105742	 2.0382737417	-0.5854930293	-0.22525
O	-0.7589243812	 3.4045226129	-0.3269707746	-0.260656
C	 0.6387531965	 3.5086045097	-0.126526337	 0.180093
O	 1.084856397	 2.2398726033	 0.3323320938	-0.2255
C	 1.3427807939	 3.8903545465	-1.4149008899	 0.039503
C	 2.6195038988	 3.2901148676	-1.8146683124	-0.172214
O	 1.3828403875	 2.8658222471	-2.4032570246	-0.232199
H	-1.125298172	 1.8229982714	-1.6571772973	 0.154434
H	-1.9577690391	 1.7465607489	-0.0768262359	 0.148597
H	 0.8203330352	 4.2512169903	 0.6574678547	 0.114528
H	 1.0720413265	 4.8800656471	-1.7832512867	 0.113585
H	 3.2804493611	 3.8436871079	-2.4783584791	 0.125929
H	 3.091386406	 2.5611499067	-1.1616493014	 0.142617
85.0215	105.6646	156.7474	251.986	274.3788	444.1946	500.5799	560.2097	607.711	683.1171	792.1888	813.2367	866.8421	915.9305	932.8354	977.8411	1015.7198	1034.3588	1065.0744	1100.1598	1126.2604	1167.6204	1171.6849	1213.1069	1218.7152	1282.6759	1330.8432	1364.103	1386.3242	1431.2728	1489.5994	1521.6141	1914.0064	3040.4762	3065.5738	3104.0191	3106.6425	3119.6586	3203.1153
O=C1COC(O1)C1CO1	O=C1CO[C@@H](O1)[C@H]1CO1	
InChI=1S/C5H6O4/c6-4-2-8-5(9-4)3-1-7-3/h3,5H,1-2H2	InChI=1S/C5H6O4/c6-4-2-8-5(9-4)3-1-7-3/h3,5H,1-2H2/t3-,5+/m1/s1
