21
gdb 56676	2.15956	1.48631	1.09274	4.5755	81.65	-0.2566	0.0243	0.2809	1197.7425	0.182615	-383.269676	-383.259985	-383.25904	-383.304052	36.434	
C	-0.0661352898	 1.5365633415	 0.1367040108	-0.463484
C	 0.0072406035	 0.015322184	-0.0124726644	 0.336882
C	 1.1787968128	-0.4356542795	-0.943734085	-0.269176
C	 2.0476891131	-0.695452552	 0.3166902787	-0.208689
C	 0.7631335554	-0.644359648	 1.1870822249	-0.2702
C	-1.4008672449	-0.5471579802	-0.347976037	-0.195491
N	-2.0107057796	-0.0841884225	-1.5992387908	-0.50689
C	-1.3867228367	-2.0215840594	-0.3749556553	 0.30348
N	-1.3455145583	-3.1761654498	-0.3996401853	-0.336946
H	 0.9124828496	 1.9455933492	 0.4048702157	 0.125419
H	-0.3749203247	 2.0238735368	-0.7942421509	 0.108375
H	-0.7714992233	 1.8239922212	 0.9256876442	 0.116533
H	 0.9492533961	-1.3635942483	-1.4754624	 0.118202
H	 1.5441042402	 0.3006601788	-1.6646444418	 0.094831
H	 2.6143253214	-1.6279989385	 0.3356352139	 0.110197
H	 2.734244753	 0.1275937845	 0.529726575	 0.105148
H	 0.8019375972	-0.0629976704	 2.1120764795	 0.09538
H	 0.3866738003	-1.6436846313	 1.4175369321	 0.126936
H	-2.0805708168	-0.2588563568	 0.4661171563	 0.127378
H	-2.1620373136	 0.9175893021	-1.556111118	 0.240193
H	-1.3825033351	-0.2617785713	-2.3780857127	 0.241921
63.2756	100.869	168.187	197.9145	219.7887	244.2981	295.0641	333.7549	341.3629	378.3241	432.5735	518.3618	601.3084	670.7295	716.9326	798.9522	846.2919	852.2038	878.1713	918.9444	929.3774	946.8829	981.8023	996.9839	1056.733	1109.179	1156.7584	1185.3976	1199.1286	1217.7831	1218.734	1262.8946	1266.8831	1277.8262	1309.7529	1333.1602	1396.2793	1413.6827	1475.4921	1481.1915	1493.7081	1502.4556	1507.5467	1654.2416	2358.0927	3019.2105	3024.5239	3052.4207	3060.4719	3069.5727	3089.5674	3101.1289	3103.1859	3112.2087	3128.4299	3498.2725	3590.5478
CC1(CCC1)C(N)C#N	CC1(CCC1)[C@@H](N)C#N	
InChI=1S/C7H12N2/c1-7(3-2-4-7)6(9)5-8/h6H,2-4,9H2,1H3	InChI=1S/C7H12N2/c1-7(3-2-4-7)6(9)5-8/h6H,2-4,9H2,1H3/t6-/m0/s1
