21
gdb 108090	2.51238	1.52204	1.25887	0.6406	83.19	-0.2296	0.1017	0.3313	1128.4735	0.181981	-387.03412	-387.025319	-387.024374	-387.067403	33.665	
C	 0.0745419434	 1.175927899	-0.2685609811	-0.257557
O	-0.1240347764	-0.1099803318	 0.2955156625	-0.290847
C	-1.4169019719	-0.5655854773	 0.1936594617	 0.404994
C	-2.6221754633	-0.1762327816	 1.0455655471	-0.304853
C	-3.2760028796	-1.4662854499	 0.4682415588	-0.11282
C	-3.4785526025	-1.1587046593	-1.0419097882	-0.230167
C	-1.9568820122	-1.1612856884	-1.1322738267	-0.184683
C	-1.8182881943	-2.008666188	 0.1261166621	 0.272
C	-1.091718971	-3.2781382652	 0.4201444893	-0.530733
H	 1.1330806183	 1.4174066794	-0.1487773195	 0.125013
H	-0.183223464	 1.189162422	-1.3364644412	 0.110637
H	-0.5252054525	 1.9403294109	 0.2447684502	 0.112749
H	-2.3956071869	-0.2775004507	 2.1109048566	 0.100228
H	-3.1379746785	 0.7737434369	 0.8616706603	 0.084085
H	-4.031216948	-1.9994465426	 1.0421967207	 0.070284
H	-3.9169631939	-2.0069586243	-1.5764836546	 0.096469
H	-4.0267797564	-0.2438213463	-1.2980202927	 0.083396
H	-1.3196167772	-1.1906495024	-2.0080694686	 0.081781
H	-0.0637419877	-3.2202042829	 0.0473770666	 0.131684
H	-1.0410578753	-3.4734935787	 1.4977861169	 0.120532
H	-1.5726544202	-4.1420536387	-0.0529647703	 0.117809
90.2114	135.4647	167.9577	195.4414	202.3139	253.859	367.7688	388.4285	424.4673	540.1233	581.4766	673.0413	712.3529	748.7279	830.581	890.2684	914.7134	919.0947	941.8772	985.8981	999.1805	1050.4088	1069.7541	1091.4288	1108.0347	1130.2541	1138.476	1155.4285	1179.4377	1185.2833	1203.3918	1221.1103	1232.9144	1268.288	1287.9988	1342.5477	1410.76	1461.6709	1482.351	1484.6006	1486.766	1495.0184	1498.8682	1506.1482	1519.1811	2994.9336	3020.2974	3021.4647	3029.8311	3049.3485	3076.9718	3083.4211	3094.141	3096.0966	3120.4892	3133.7322	3186.5117
COC12CC3CC1C23C	CO[C@@]12C[C@H]3C[C@@H]1[C@@]23C	
InChI=1S/C8H12O/c1-7-5-3-6(7)8(7,4-5)9-2/h5-6H,3-4H2,1-2H3	InChI=1S/C8H12O/c1-7-5-3-6(7)8(7,4-5)9-2/h5-6H,3-4H2,1-2H3/t5-,6-,7+,8+/m1/s1
