22
gdb 103878	3.42141	0.80639	0.73936	4.3378	87.54	-0.279	0.0391	0.3181	1616.5891	0.192879	-367.2274	-367.217085	-367.21614	-367.263136	37.746	
C	 0.3854830185	 1.4822514148	 0.3040288859	-0.385616
C	-0.1551140197	 0.1130398455	-0.1303590983	-0.245648
C	 0.5662952961	-0.480605758	-1.3348212432	 0.33907
C	 0.4414994695	 0.3316418638	-2.6138497844	-0.459937
C	 1.8713020198	-1.2126734275	-1.1038325405	-0.318395
C	 0.6425226139	-1.9849897701	-1.5206768465	-0.044082
C	-0.0175752761	-2.9848311378	-0.5808165998	-0.37799
C	 0.6155964246	-4.3036103321	-0.6546052561	 0.265643
N	 1.1201173817	-5.3408093491	-0.7255480673	-0.307771
H	 1.4561717429	 1.4285729983	 0.5272037535	 0.120921
H	 0.2437879935	 2.2407779041	-0.4710988882	 0.121734
H	-0.1290465685	 1.8321288939	 1.2040017811	 0.114874
H	-0.0819078127	-0.5695939166	 0.7228689877	 0.092036
H	-1.2259387809	 0.2019345058	-0.3596237311	 0.097033
H	 0.8887317815	 1.3250334256	-2.5056969237	 0.123293
H	 0.9470782628	-0.1646135502	-3.4477161298	 0.117026
H	-0.6099354606	 0.4678520775	-2.893813251	 0.115983
H	 2.6768076467	-1.0958518613	-1.8207518706	 0.11637
H	 2.2091207359	-1.3309321133	-0.0782178108	 0.113243
H	 0.6238428403	-2.3176394244	-2.5548242727	 0.100571
H	 0.0292704479	-2.6475815157	 0.4588373708	 0.150131
H	-1.0808551871	-3.1031273434	-0.823521825	 0.151511
46.2689	84.6163	108.3342	173.1549	201.2658	226.1477	244.9764	294.6713	363.783	375.3897	391.8136	420.313	493.3177	582.4666	680.6027	785.606	827.9657	867.6819	893.4571	916.9767	942.263	968.6293	1020.411	1029.8261	1038.2324	1071.398	1085.4544	1127.4511	1139.6925	1170.9152	1232.4039	1271.5036	1312.5274	1319.207	1336.3708	1377.2156	1409.6136	1420.1129	1432.0951	1462.1164	1478.0622	1490.2223	1497.78	1501.7001	1507.9775	1512.1688	2361.2068	3013.8708	3027.5741	3039.3589	3040.0017	3061.5217	3090.8092	3092.6561	3102.6176	3107.3476	3114.3694	3124.9956	3145.0058	3208.645
CCC1(C)CC1CC#N	CC[C@@]1(C)C[C@H]1CC#N	
InChI=1S/C8H13N/c1-3-8(2)6-7(8)4-5-9/h7H,3-4,6H2,1-2H3	InChI=1S/C8H13N/c1-3-8(2)6-7(8)4-5-9/h7H,3-4,6H2,1-2H3/t7-,8+/m1/s1
