22
gdb 104525	1.97356	1.39415	0.99554	3.9452	85.55	-0.299	0.0329	0.3319	1298.7478	0.193955	-367.228777	-367.219084	-367.218139	-367.263508	36.169	
C	 0.5616070816	-0.436258035	 1.7360744019	-0.396202
C	 0.1394850599	-0.077430415	 0.3064078228	-0.256154
C	-1.2068260091	-0.6584686772	-0.1355968248	 0.353767
C	-2.3838191742	-0.1500516718	 0.7294732293	-0.401442
C	-2.5441684591	 1.3029045845	 0.6832700894	 0.269877
N	-2.6557580155	 2.4523373986	 0.6321646268	-0.318906
C	-1.5335523107	-0.5424270562	-1.6594618341	-0.266618
C	-1.9772204531	-2.0296801453	-1.6650486052	-0.217323
C	-1.2889113557	-2.2137722618	-0.2858624485	-0.265525
H	 1.573967285	-0.0755976321	 1.9400495367	 0.121625
H	-0.0966215368	 0.0143859322	 2.4855969563	 0.122271
H	 0.5582396286	-1.5204940333	 1.8939490889	 0.117776
H	 0.1151908639	 1.013702866	 0.1910377771	 0.121541
H	 0.9025603432	-0.4406340953	-0.3928736304	 0.094461
H	-3.3207019973	-0.606498655	 0.3904601619	 0.146361
H	-2.2500712367	-0.4532589383	 1.7735974761	 0.148633
H	-2.2711326118	 0.2100131868	-1.9504929995	 0.112169
H	-0.6273292257	-0.3769027302	-2.2483096412	 0.104053
H	-3.0628942494	-2.1475125693	-1.6137466215	 0.105488
H	-1.6106971737	-2.6511223047	-2.4844358347	 0.104391
H	-0.2931885054	-2.6571095518	-0.3749597765	 0.103573
H	-1.8390855281	-2.7620199857	 0.4843821691	 0.096184
61.3348	113.2837	130.9764	139.0399	197.0756	248.3464	314.7153	338.5195	373.325	406.1452	431.8751	531.6021	648.8826	720.5324	786.3066	794.1513	856.2704	881.391	896.6616	943.788	949.6742	962.0334	987.0961	1023.9783	1055.0556	1072.8199	1123.5807	1167.0742	1203.4756	1212.1873	1250.0135	1259.1958	1266.7678	1275.4181	1311.3462	1324.6541	1343.4539	1375.2049	1414.1785	1464.6279	1478.0145	1484.2846	1490.2723	1502.6025	1506.1504	1511.3331	2357.1701	3022.9637	3034.9324	3045.3406	3050.2587	3056.4067	3058.9368	3066.2374	3082.297	3095.7324	3101.9403	3105.7316	3107.5609	3122.297
CCC1(CC#N)CCC1	CCC1(CC#N)CCC1	
InChI=1S/C8H13N/c1-2-8(6-7-9)4-3-5-8/h2-6H2,1H3	InChI=1S/C8H13N/c1-2-8(6-7-9)4-3-5-8/h2-6H2,1H3
