15
gdb 123818	5.61469	0.96693	0.8726	3.4069	67.48	-0.2647	-0.0383	0.2264	1282.479	0.112411	-453.875422	-453.867976	-453.867032	-453.908423	27.328	
C	-0.3377782204	 1.1299937406	-0.1402607302	-0.275416
C	 1.1325656626	 1.0590032253	 0.229610886	-0.298066
C	 0.3569650979	-0.19059445	-0.0105534661	 0.140659
O	 0.1023925735	-0.9730816617	 1.1459558903	-0.267233
C	-0.9112342779	-1.8336632729	 1.0559705081	 0.409381
N	-1.6691428905	-2.0206421897	 0.0072953759	-0.175426
O	-2.5534822244	-3.0077246225	 0.3850422409	-0.167435
N	-2.3314639469	-3.416848103	 1.6675535211	-0.05086
C	-1.3276815321	-2.7115805606	 2.1004353442	-0.116523
H	-1.0319518455	 1.4003538586	 0.6467725734	 0.131344
H	-0.6209455909	 1.4597746576	-1.1329795947	 0.130291
H	 1.8781923831	 1.3454145738	-0.5027720867	 0.126696
H	 1.3937298973	 1.2795571849	 1.2582241697	 0.132831
H	 0.5361380592	-0.7927806545	-0.8950745121	 0.124943
H	-0.931825715	-2.8287814059	 3.0962935601	 0.154814
58.6712	78.1881	147.9417	308.5107	357.6494	394.3083	479.4612	624.7333	724.6475	728.7956	762.087	829.7699	842.9104	879.9776	907.4915	919.3872	979.2569	992.8118	1027.0765	1059.6288	1077.8475	1084.0284	1120.2945	1174.1451	1190.3781	1215.9831	1242.2534	1385.6146	1446.9439	1455.4238	1495.4339	1512.1684	1628.7008	3144.606	3147.398	3168.6643	3228.5789	3242.1104	3278.7252
C1CC1OC1=NON=C1	C1CC1Oc1nonc1	
InChI=1S/C5H6N2O2/c1-2-4(1)8-5-3-6-9-7-5/h3-4H,1-2H2	InChI=1S/C5H6N2O2/c1-2-4(1)8-5-3-6-9-7-5/h3-4H,1-2H2
