15
gdb 131785	4.91671	0.87787	0.79453	4.0807	69.95	-0.2572	-0.0923	0.165	1374.4519	0.111718	-450.063057	-450.054754	-450.05381	-450.097364	28.93	
O	 0.0919920498	 1.4365263845	 0.2187918735	-0.405326
C	 0.0443175191	 0.0276444723	 0.2613936222	-0.063145
C	-1.3390394275	-0.5170561608	-0.1647845634	-0.304222
C	-1.3903897296	-2.0110767968	-0.0781105222	 0.350453
C	-1.946363377	-2.7121877698	 0.9934505016	-0.01597
N	-1.9312508071	-4.0343978646	 1.0244910386	-0.158348
N	-1.3624657847	-4.6829705192	 0.0082315129	-0.055274
N	-0.8342659148	-4.0357000313	-1.0052460474	-0.060895
N	-0.8390574015	-2.7081939011	-1.0712188039	-0.224445
H	 0.0984694757	 1.7112894179	-0.7038333312	 0.2907
H	 0.820687654	-0.436318098	-0.3630171262	 0.121988
H	 0.2465486912	-0.2518470345	 1.3009016323	 0.122709
H	-2.1072110732	-0.0672924182	 0.4712825292	 0.126361
H	-1.5310315457	-0.2216411805	-1.2016780107	 0.130524
H	-2.4173986985	-2.2098693199	 1.8347261247	 0.14489
39.6258	89.2386	99.2424	203.4194	307.204	317.4788	344.2074	352.6755	513.7983	651.882	689.6101	787.1285	840.0368	853.8316	912.8581	957.5497	1013.8001	1032.4473	1076.722	1086.1605	1094.1557	1150.1454	1216.6926	1273.7668	1309.2005	1327.4931	1368.9301	1395.43	1412.7973	1479.9562	1509.8169	1519.9089	1586.0471	3009.8873	3049.8428	3074.4935	3108.6184	3165.6407	3816.7996
OCCC1=CN=NN=N1	OCCc1cnnnn1	
InChI=1S/C4H6N4O/c9-2-1-4-3-5-7-8-6-4/h3,9H,1-2H2	InChI=1S/C4H6N4O/c9-2-1-4-3-5-7-8-6-4/h3,9H,1-2H2
