17
gdb 39059	2.54138	2.02511	1.36847	2.8648	72.12	-0.2462	-0.0109	0.2353	942.4343	0.137751	-421.786831	-421.780002	-421.779058	-421.817752	27.764	
C	-0.016970867	 1.4899285644	-0.1205649812	-0.301674
C	 1.3628083764	 2.1071141356	-0.0282436238	-0.100312
C	 2.1668224841	 2.0094818444	 1.0341226785	-0.031722
C	 1.8457513575	 1.3453326116	 2.3229214288	-0.000096
O	 0.4761207879	 1.3195258887	 2.7547265341	-0.235713
C	 1.0762228916	 0.0747082076	 2.4369580985	 0.002005
C	 0.5844557614	-0.6718599599	 1.2342024487	 0.049281
O	-0.8197207112	-0.6674687077	 0.9548926126	-0.251898
C	 0.057131002	-0.0232719512	 0.0251637533	 0.045261
H	-0.6571834442	 1.8757134805	 0.6749413237	 0.155677
H	-0.4824618349	 1.7404381951	-1.0778274716	 0.100102
H	 1.72905502	 2.6459207704	-0.8980502283	 0.09859
H	 3.1518449098	 2.4669773707	 0.9948361484	 0.091654
H	 2.544752901	 1.558258124	 3.1318052452	 0.097188
H	 1.2803635931	-0.5545468702	 3.3051377196	 0.099532
H	 1.0571179527	-1.6499947239	 1.1244349737	 0.088031
H	 0.17929997	-0.5714456302	-0.9100098401	 0.094093
178.3245	217.9738	284.4686	335.8583	338.8591	436.4514	520.9678	579.5483	683.6239	715.6417	755.5992	785.3166	817.4759	853.08	878.1028	923.1424	967.4952	991.2291	1001.4408	1029.3462	1041.009	1100.7028	1110.8157	1139.0915	1160.1414	1213.4821	1246.0514	1283.6892	1305.3237	1339.4467	1376.5757	1404.3775	1424.594	1449.2789	1474.0567	1490.2184	1711.2598	3064.1805	3080.8781	3093.3086	3100.5208	3111.1606	3123.2359	3153.2911	3175.0942
C1C=CC2OC2C2OC12	C1C=C[C@H]2O[C@H]2[C@H]2O[C@@H]12	
InChI=1S/C7H8O2/c1-2-4-6(8-4)7-5(3-1)9-7/h1-2,4-7H,3H2	InChI=1S/C7H8O2/c1-2-4-6(8-4)7-5(3-1)9-7/h1-2,4-7H,3H2/t4-,5+,6-,7+/m1/s1
