18
gdb 38096	2.96284	1.91911	1.3765	1.4705	80.45	-0.2275	0.0036	0.2311	947.4888	0.151052	-364.805249	-364.798689	-364.797744	-364.835843	27.676	
C	-0.0123275946	 1.5447392353	 0.1842382099	-0.357548
C	 1.413808045	 1.9710735163	-0.0967735394	-0.065679
C	 2.1897649477	 0.9663378067	-0.5074389785	-0.08037
C	 1.4205959152	-0.335763327	-0.6106713537	-0.153591
C	 1.9226506435	-1.5565680122	 0.1357867781	-0.1059
C	 1.1196408493	-1.8710713263	 1.1583382683	-0.085258
C	-0.0308783842	-0.9251496087	 1.2603698891	-0.112218
N	-1.0151507929	-0.8863776935	 0.1429045427	-0.403769
C	 0.1131927258	 0.0301716147	 0.1217938482	 0.35295
H	-0.3840014157	 1.899371167	 1.1520622123	 0.110905
H	-0.7070239761	 1.9284020513	-0.5765153122	 0.113183
H	 1.7401304063	 2.999803342	 0.0097286621	 0.094521
H	 3.2355508406	 1.0523277953	-0.7803791881	 0.093595
H	 1.2604894533	-0.5865069703	-1.6721479434	 0.087162
H	 2.7905049154	-2.1246856493	-0.1815618793	 0.096918
H	 1.2586014196	-2.7060137967	 1.8359211828	 0.099481
H	-0.4408978654	-0.647877198	 2.226678213	 0.091829
H	-0.8565570128	-1.6707529266	-0.4880749517	 0.22379
154.512	236.0008	361.537	370.5983	426.872	507.0235	579.0996	619.6931	699.2905	743.711	760.826	783.9084	816.932	881.62	905.6191	943.8164	954.4985	957.841	972.5871	997.1769	1021.5061	1055.1524	1065.5218	1093.4506	1125.874	1137.2897	1145.7766	1182.9751	1257.097	1261.2153	1274.2838	1285.4874	1312.0618	1357.5094	1375.8107	1433.1099	1485.4635	1648.3941	1674.0202	2969.9822	3010.0432	3057.6461	3156.6793	3180.874	3182.5443	3206.2409	3207.5296	3467.6464
C1C=CC2C=CC3NC123	C1C=C[C@H]2C=C[C@@H]3N[C@]123	
InChI=1S/C8H9N/c1-2-6-3-4-7-8(6,5-1)9-7/h1-4,6-7,9H,5H2	InChI=1S/C8H9N/c1-2-6-3-4-7-8(6,5-1)9-7/h1-4,6-7,9H,5H2/t6-,7-,8+/m0/s1
