17
gdb 84961	2.30362	1.68578	1.12176	2.5787	71.06	-0.2419	-0.0696	0.1722	1084.9328	0.136289	-455.176004	-455.16737	-455.166426	-455.209188	32.418	
C	 0.2815309265	 1.5584064213	-0.0735025497	-0.380377
C	-0.031831843	 0.0654628415	 0.041506662	-0.035484
N	 0.5150825683	-0.7427034532	-1.0563410899	-0.313755
C	 1.7649744061	-1.2591952721	-0.8169188058	 0.297074
N	 2.5571025454	-1.7650171736	-1.6764552101	-0.542657
C	 1.9755439662	-1.0784267686	 0.670446617	 0.295532
O	 3.0052416762	-1.2125543214	 1.282369478	-0.326906
C	 0.656756484	-0.6040016904	 1.2607800386	 0.047516
O	 0.8146855482	 0.2140953787	 2.3821836649	-0.429742
H	 1.3617687719	 1.7327570898	-0.1087497432	 0.126862
H	-0.1609121395	 1.9708698375	-0.9855085218	 0.115215
H	-0.121690504	 2.0971997652	 0.7869389226	 0.143157
H	-1.1159527828	-0.0784432868	 0.083599844	 0.098129
H	 0.2091846629	-0.6048732582	-2.0074496984	 0.257038
H	 3.3992043839	-2.0857183383	-1.1953842388	 0.233873
H	 0.083526103	-1.5160562768	 1.5064713158	 0.115096
H	 1.7003633267	 0.0329689354	 2.7285423947	 0.299427
86.6775	106.5122	224.6004	239.3702	253.28	302.3829	360.3505	386.6457	419.6124	501.7285	517.9399	593.755	622.473	685.279	728.884	822.8271	861.4878	889.3154	968.6497	1027.7558	1065.9995	1090.8428	1124.1824	1143.1081	1196.8985	1224.3529	1294.0882	1354.2646	1376.4105	1393.4451	1407.5045	1421.9673	1433.8714	1490.2677	1491.3048	1740.97	1850.0294	2948.0171	3041.5338	3055.2268	3111.8599	3133.1956	3470.3265	3628.5515	3736.3256
CC1NC(=N)C(=O)C1O	C[C@H]1N[C]([NH])C(=O)[C@H]1O	
InChI=1S/C5H8N2O2/c1-2-3(8)4(9)5(6)7-2/h2-3,8H,1H3,(H2,6,7)	InChI=1S/C5H8N2O2/c1-2-3(8)4(9)5(6)7-2/h2-3,8H,1H3,(H2,6,7)/t2-,3+/m1/s1
