24
gdb 113200	2.85362	0.99978	0.85421	1.4873	86.37	-0.2242	0.0775	0.3017	1489.9557	0.21453	-405.526042	-405.514992	-405.514048	-405.561989	41.056	
C	-0.2714588545	 1.5393032817	-0.3766654019	-0.373298
C	-0.0985768412	 0.1530531141	 0.2401849458	-0.115337
N	-1.3042975852	-0.6424583923	 0.0305195742	-0.10742
C	-1.3852547693	-1.4797487228	-1.1625417738	-0.308883
C	-1.2888460205	-2.0957134109	 0.2002493215	 0.30072
C	-0.0146525095	-2.8279302661	 0.5879046006	-0.468302
C	-2.5309454063	-2.6956364765	 0.8743792882	 0.077221
C	-3.8265244367	-1.9150293648	 0.6736023769	-0.408531
O	-2.6824501671	-4.0624708807	 0.482696551	-0.426337
H	 0.6127298845	 2.1575663003	-0.1927773497	 0.11012
H	-0.4154748037	 1.4682360989	-1.4598610019	 0.117488
H	-1.1452939069	 2.0423482613	 0.0466011756	 0.124803
H	 0.8053208335	-0.3216040174	-0.1746520641	 0.083181
H	 0.0570302511	 0.2439092446	 1.3219481305	 0.102726
H	-2.321429414	-1.4379116665	-1.7139683118	 0.106186
H	-0.4983669803	-1.5552694406	-1.7923677101	 0.102569
H	 0.8429234692	-2.5402139856	-0.0230652498	 0.1133
H	 0.2360631955	-2.6399815944	 1.6388518391	 0.116793
H	-0.1739938007	-3.9027048488	 0.4738816468	 0.139204
H	-2.3214166721	-2.7517459737	 1.9511214243	 0.084309
H	-4.1343580038	-1.9209885065	-0.3788038178	 0.101976
H	-4.6250713301	-2.3820125204	 1.2557869496	 0.116896
H	-3.7068937644	-0.8747722658	 0.9809516849	 0.135133
H	-2.8808772378	-4.0653819674	-0.4608117882	 0.275486
53.4898	81.1641	140.5071	166.874	204.4195	225.4199	249.544	276.823	291.9662	321.8952	342.4149	356.2923	435.1843	454.5557	503.0621	611.8833	678.1971	783.6744	815.7663	857.1053	907.3888	931.4389	950.9638	997.3236	1032.5176	1067.9341	1089.2633	1095.1042	1100.2517	1113.3687	1121.8424	1182.8844	1212.154	1238.7866	1291.745	1313.6616	1366.3385	1384.1907	1385.7623	1403.8535	1407.5838	1412.6664	1419.0758	1484.3706	1485.0919	1488.5005	1492.7313	1496.3439	1506.8093	1510.4236	1521.3439	2969.8637	3019.6158	3035.7915	3037.8093	3038.0439	3048.8103	3080.9749	3105.6993	3106.4287	3107.4321	3118.8954	3135.043	3144.3105	3164.8446	3792.4192
CCN1CC1(C)C(C)O	CCN1C[C@]1(C)[C@@H](C)O	
InChI=1S/C7H15NO/c1-4-8-5-7(8,3)6(2)9/h6,9H,4-5H2,1-3H3	InChI=1S/C7H15NO/c1-4-8-5-7(8,3)6(2)9/h6,9H,4-5H2,1-3H3/t6-,7-,8?/m1/s1
