21
gdb 75353	2.72436	1.72485	1.31744	0.3547	87.43	-0.2152	0.0309	0.2462	1055.7483	0.1852	-349.950416	-349.942941	-349.941997	-349.981864	31.061	
C	-0.0330254628	 1.5026067137	 0.0658432654	-0.48947
C	-0.0051267785	 0.0028807529	-0.051692553	 0.342637
C	-0.0995016206	-0.6343429384	-1.223665267	-0.171663
C	-0.0288168851	-2.1365824054	-1.3524180477	-0.264345
C	 0.5603155508	-2.7801764803	-0.0961356533	-0.028186
C	 1.9654522976	-2.2330237945	 0.343396276	-0.243565
C	 1.3203130121	-1.6336214528	 1.5926010447	-0.067648
C	-0.0214840895	-2.257765569	 1.2361707547	-0.091629
C	 0.119043828	-0.7643999335	 1.2228398622	-0.111259
H	 0.8825226891	 1.8786825447	 0.5405470954	 0.123519
H	-0.1318705713	 1.9827066515	-0.9115881109	 0.116893
H	-0.8680153175	 1.8374074488	 0.6952955055	 0.118958
H	-0.2134520444	-0.0588949902	-2.1397623758	 0.072469
H	-1.0258896553	-2.5518312816	-1.5666119642	 0.100966
H	 0.5908852884	-2.4010899499	-2.2203368491	 0.099352
H	 0.5477861991	-3.8697938494	-0.1701491021	 0.066544
H	 2.6594617975	-3.0417570595	 0.584660739	 0.097615
H	 2.4559495989	-1.5360941067	-0.3437847158	 0.09493
H	 1.7876812619	-1.5402454576	 2.5662683938	 0.079473
H	-0.7370436804	-2.7728889376	 1.8656736758	 0.076971
H	-0.3037779579	-0.2684123252	 2.0934711364	 0.077436
137.83	183.9738	279.0956	300.616	326.5697	356.8275	477.2423	541.0879	564.0354	671.8678	733.5953	781.6344	794.9339	805.1274	843.8211	866.1699	919.9379	953.0078	966.8813	991.5588	1007.7686	1027.9281	1044.2678	1066.2432	1071.2507	1075.6089	1094.6002	1135.5591	1145.8956	1180.6301	1202.3442	1251.1663	1264.3122	1287.9824	1303.0816	1337.9494	1367.7924	1377.422	1412.3359	1437.3246	1472.5032	1478.0854	1484.9638	1492.7691	1728.8694	2987.4181	3012.4105	3022.6612	3047.4724	3057.9009	3076.4865	3104.3367	3107.3456	3134.9701	3146.3283	3168.7693	3183.0262
CC1=CCC2CC3C2C13	CC1=CC[C@H]2C[C@@H]3[C@H]2[C@H]13	
InChI=1S/C9H12/c1-5-2-3-6-4-7-8(5)9(6)7/h2,6-9H,3-4H2,1H3	InChI=1S/C9H12/c1-5-2-3-6-4-7-8(5)9(6)7/h2,6-9H,3-4H2,1H3/t6-,7-,8+,9-/m0/s1
