16
gdb 5902	3.06315	1.21486	1.07892	3.6651	70.98	-0.2456	-0.0326	0.213	1175.3223	0.125354	-383.722847	-383.712711	-383.711767	-383.759113	33.845	
C	 0.0481203514	 1.3986008397	 0.1217394809	-0.499067
C	 0.0270541091	-0.0545813025	 0.0519760164	-0.004466
C	 0.0013021043	-1.2584942368	-0.003882648	 0.089475
C	 0.0024542498	-2.7231025042	-0.0714839453	 0.111642
C	-1.4096492361	-3.2982246246	-0.2161276376	-0.408404
O	 0.8750906932	-3.1885267564	-1.1041043764	-0.452973
C	 0.6737388249	-3.2137068546	 1.2318771754	 0.160503
O	 0.0827428865	-3.6430802699	 2.1829100685	-0.241259
H	 0.9735330006	 1.8020457615	-0.3029372849	 0.155277
H	-0.7924694364	 1.8358124432	-0.4276864924	 0.154799
H	-0.018465405	 1.7406668193	 1.1601572354	 0.159827
H	-1.8948478332	-2.888676036	-1.1057595437	 0.113752
H	-1.3474359157	-4.3851169988	-0.3098782394	 0.130662
H	-2.0094611419	-3.0548478283	 0.6630807741	 0.142971
H	 0.7662707069	-2.6068611738	-1.8634792712	 0.288984
H	 1.7792794117	-3.1191985879	 1.194565238	 0.098275
24.8604	65.5705	106.8501	123.1125	186.1561	214.0285	257.4666	277.981	314.0807	350.376	384.2242	486.2082	538.3478	584.6626	697.2818	857.3198	934.5908	1001.045	1049.4399	1052.9036	1058.6546	1109.8988	1157.2614	1229.0264	1347.2289	1385.9225	1405.0382	1413.2418	1475.1598	1475.9948	1480.7015	1484.1397	1844.7481	2356.1249	2921.7232	3031.3554	3053.1066	3094.5837	3095.3914	3131.915	3144.2786	3821.9239
CC#CC(C)(O)C=O	CC#C[C@@](C)(O)C=O	
InChI=1S/C6H8O2/c1-3-4-6(2,8)5-7/h5,8H,1-2H3	InChI=1S/C6H8O2/c1-3-4-6(2,8)5-7/h5,8H,1-2H3/t6-/m1/s1
