16
gdb 7904	3.47008	1.6807	1.20675	2.1256	68.15	-0.2409	-0.0491	0.1917	981.537	0.129802	-383.78111	-383.773082	-383.772138	-383.813938	29.135	
C	 0.0043142098	 1.5229793071	 0.0264419931	-0.491788
C	-0.0410925373	 0.0306235981	 0.0177795532	 0.209018
C	-1.0885758287	-0.7977107181	 0.131037468	-0.207845
C	-0.7213179851	-2.2649214	 0.084117379	 0.097467
O	-1.4857895067	-2.9907261039	-0.8707975402	-0.427623
C	 0.803270365	-2.2531320665	-0.1651450665	-0.366123
C	 1.2071613683	-0.7760761293	-0.1162047189	 0.327865
O	 2.3310914156	-0.3327462055	-0.1659551851	-0.321442
H	 0.677515678	 1.8770362087	 0.8145314	 0.148333
H	 0.4143589983	 1.9011237355	-0.9164686342	 0.14413
H	-0.9844406258	 1.9611544106	 0.1804918995	 0.123825
H	-2.1254936741	-0.4945627418	 0.2403856012	 0.11298
H	-0.9591112926	-2.7488020591	 1.0383469759	 0.106345
H	-1.3872252703	-2.5480049025	-1.7214851124	 0.278074
H	 1.3791115384	-2.8309472184	 0.5624852744	 0.134215
H	 1.0317161174	-2.6680969547	-1.1522993871	 0.13257
61.8551	101.6434	153.8958	251.8035	315.9096	343.9437	362.9838	459.431	520.6347	594.9977	604.4662	696.1252	760.4846	866.3288	887.568	958.6534	993.0418	1055.4582	1058.2041	1072.448	1092.641	1147.9988	1208.5158	1258.3394	1286.6024	1312.7015	1339.1806	1412.5299	1425.6134	1452.2644	1472.2615	1482.155	1698.2487	1812.2749	3038.5322	3046.0767	3063.4907	3092.7771	3109.0845	3126.3945	3184.2388	3794.6731
CC1=CC(O)CC1=O	CC1=C[C@@H](O)CC1=O	
InChI=1S/C6H8O2/c1-4-2-5(7)3-6(4)8/h2,5,7H,3H2,1H3	InChI=1S/C6H8O2/c1-4-2-5(7)3-6(4)8/h2,5,7H,3H2,1H3/t5-/m1/s1
