19
gdb 35979	3.18528	1.15938	0.9279	4.3986	76.27	-0.2382	0.0271	0.2653	1258.3838	0.161663	-419.20593	-419.197505	-419.19656	-419.239124	31.771	
N	 0.4084118065	-1.1517320651	 0.9460980089	-0.314491
C	 0.2776037328	-0.0985804506	 0.48953208	 0.264589
C	 0.0842035744	 1.260760552	-0.0332622693	-0.110752
C	-0.9840818025	 1.9986679426	 0.8239247918	-0.09251
O	-1.3869677724	 3.1745190441	 0.162781477	-0.243545
C	-0.715372163	 4.372448782	 0.5247961809	-0.071991
C	 0.8217699965	 4.3001524592	 0.466543308	-0.230674
C	 1.372798993	 3.3113732294	-0.5798660538	-0.154686
N	 1.3869031222	 1.9058251242	-0.1693852295	-0.293087
H	-0.3535997815	 1.1753316283	-1.0372556915	 0.139506
H	-1.8681539244	 1.3584030905	 0.9204523921	 0.126361
H	-0.5974057623	 2.1946858009	 1.8340650616	 0.103662
H	-1.0826002275	 5.1105029208	-0.1948438423	 0.117174
H	-1.0374398972	 4.7004132528	 1.5250220411	 0.098362
H	 1.199269213	 5.3092048281	 0.2599727571	 0.106896
H	 1.2318648893	 4.0213196087	 1.4453434805	 0.09854
H	 0.8077395611	 3.3887846843	-1.5157989155	 0.119738
H	 2.4087815745	 3.5802911535	-0.811579847	 0.111121
H	 1.9126942575	 1.8030116043	 0.6929495102	 0.225785
87.9283	122.9958	151.7047	234.0151	287.7812	335.0716	352.5444	384.6158	506.2234	532.1395	549.9927	572.5279	729.7361	785.4682	868.14	878.6598	911.8128	949.7733	1007.9384	1020.155	1057.9467	1079.8465	1140.4444	1159.9691	1166.1116	1256.6132	1263.0189	1273.4112	1296.554	1335.4662	1364.037	1374.6638	1387.3192	1396.128	1418.0296	1474.9823	1478.7096	1492.6843	1507.6164	1513.0342	2361.9335	2988.5462	3004.4085	3024.0384	3025.6979	3037.8089	3057.263	3071.3644	3082.4443	3085.2287	3517.3358
N#CC1COCCCN1	N#C[C@H]1COCCCN1	
InChI=1S/C6H10N2O/c7-4-6-5-9-3-1-2-8-6/h6,8H,1-3,5H2	InChI=1S/C6H10N2O/c7-4-6-5-9-3-1-2-8-6/h6,8H,1-3,5H2/t6-/m0/s1
