16
gdb 51154	3.2581	1.29337	1.00638	1.1475	72.39	-0.245	-0.0188	0.2262	1141.5228	0.124043	-437.898968	-437.890863	-437.889919	-437.932645	29.825	
O	 0.2672101017	 1.7518649706	 1.5929207245	-0.322825
C	 0.0216060862	 1.587461907	 0.4161857405	 0.148786
N	 0.9076326616	 1.1704317585	-0.5298135709	-0.400587
C	 2.2651391999	 0.8265159347	-0.3449863199	 0.311292
C	 2.9206705172	 0.4199360062	 0.9585336143	-0.32932
C	 3.551096128	 1.5526426121	 0.2211714932	-0.10775
C	 4.4075787851	 0.9985054715	-0.9259531646	-0.347801
C	 3.0891793949	 0.4533545767	-1.5271349595	 0.34402
O	 2.7513428905	 0.1661934267	-2.6455267628	-0.334044
H	-0.9775428347	 1.7710418501	-0.0235396974	 0.087304
H	 0.5982519552	 1.1233387483	-1.4913173005	 0.266139
H	 2.3182528625	 0.6930206792	 1.8160175815	 0.175986
H	 3.4336962395	-0.5365040643	 1.0317886534	 0.119401
H	 3.5918444229	 2.5615107546	 0.6075984438	 0.127275
H	 4.8394904013	 1.748591861	-1.5932067162	 0.136997
H	 5.1780878482	 0.275089397	-0.6443082694	 0.125127
31.6617	112.4402	188.7526	222.0811	247.7171	382.4534	427.9816	480.1767	540.6429	578.9571	650.0476	685.1716	767.8847	836.4931	853.5261	903.6277	937.9058	977.7394	1010.5936	1025.3722	1043.5979	1082.8495	1111.2258	1143.1817	1190.8928	1215.1017	1273.5797	1278.641	1378.3087	1439.0056	1461.954	1487.8705	1545.0531	1795.1629	1854.3804	2951.0156	3059.5995	3110.3941	3118.0746	3221.4433	3234.7919	3591.3554
O=CNC12CC1CC2=O	O=CN[C@]12C[C@H]1CC2=O	
InChI=1S/C6H7NO2/c8-3-7-6-2-4(6)1-5(6)9/h3-4H,1-2H2,(H,7,8)	InChI=1S/C6H7NO2/c8-3-7-6-2-4(6)1-5(6)9/h3-4H,1-2H2,(H,7,8)/t4-,6-/m1/s1
