25
gdb 104170	2.29296	1.24512	1.06919	1.2908	88.82	-0.2376	0.08	0.3177	1341.424	0.228041	-389.522827	-389.512545	-389.511601	-389.557934	39.301	
C	-0.3369174311	 1.4518165897	-0.1103758348	-0.389762
C	-0.0643849442	-0.0547697202	-0.1255225731	-0.193992
C	 0.8710529782	-0.5317170459	-1.2559480853	 0.41367
C	 2.2917978989	 0.0186836033	-1.1012381692	-0.43193
C	 0.8542291756	-2.0796297031	-1.3710989478	-0.283619
C	-0.1515590027	-2.3455371299	-2.498046167	-0.226678
C	 0.069467075	-1.1310837856	-3.4044459242	 0.160214
C	-1.0946020386	-0.7541717981	-4.3064161149	-0.399946
O	 0.3292265758	-0.0527287732	-2.5067979748	-0.318455
H	 0.564134095	 2.029090682	 0.119129803	 0.112264
H	-0.7092678262	 1.7788498912	-1.0843129393	 0.133483
H	-1.0863689208	 1.700756485	 0.6473445871	 0.104928
H	 0.3630448602	-0.3713105554	 0.8348153196	 0.08798
H	-1.0170690977	-0.5884002689	-0.2327382881	 0.088087
H	 2.7473781422	-0.3307579884	-0.1680194962	 0.108324
H	 2.9192526048	-0.315473517	-1.933083826	 0.111479
H	 2.2949346536	 1.1115629844	-1.0971811549	 0.122641
H	 1.8457221257	-2.4492911107	-1.6535657189	 0.095434
H	 0.5825181535	-2.5568261741	-0.426130224	 0.099594
H	 0.0139429683	-3.2963588172	-3.0115231962	 0.096618
H	-1.1797177248	-2.3412936729	-2.1182089766	 0.100294
H	 0.9633681216	-1.3076455486	-4.0290159893	 0.058834
H	-1.9995872226	-0.5874011357	-3.7135731958	 0.116558
H	-0.8724648681	 0.1636985881	-4.8580112693	 0.123385
H	-1.2920475616	-1.5505377287	-5.0313957537	 0.110593
46.6786	98.3291	147.2752	213.73	225.5039	237.6397	256.2134	282.3372	344.6116	357.5731	420.6979	473.6122	479.3777	568.7986	611.986	747.1719	784.405	820.0745	878.2984	898.7936	913.7773	952.5298	970.0452	997.6643	1006.5545	1022.114	1050.1969	1081.0716	1108.7077	1149.0943	1163.5074	1198.5561	1221.6207	1228.0028	1271.3704	1309.042	1316.2425	1346.1497	1370.4631	1373.5928	1395.3516	1405.3015	1408.5848	1413.4114	1473.6668	1482.5494	1486.6922	1490.5991	1493.9696	1499.357	1501.3729	1507.0656	1510.7231	2935.9088	3017.7659	3035.0615	3036.2271	3041.1482	3042.4011	3046.2325	3054.1721	3094.7166	3101.7904	3102.4485	3104.7554	3110.34	3115.4766	3121.0342	3126.8182
CCC1(C)CCC(C)O1	CC[C@@]1(C)CC[C@@H](C)O1	
InChI=1S/C8H16O/c1-4-8(3)6-5-7(2)9-8/h7H,4-6H2,1-3H3	InChI=1S/C8H16O/c1-4-8(3)6-5-7(2)9-8/h7H,4-6H2,1-3H3/t7-,8+/m1/s1
