19
gdb 48964	3.71699	1.3459	1.18211	3.0573	80.26	-0.2419	-0.0218	0.22	1082.7719	0.161045	-385.89052	-385.883107	-385.882163	-385.922385	29.321	
O	-0.2456675326	 0.3638704186	-0.7588783135	-0.275946
C	 0.1039754081	 1.0741448417	 0.1574904193	 0.036759
C	 1.3455545997	 1.8599256332	 0.1865670787	 0.251183
C	 1.7919295308	 2.8405570591	 1.2728186264	-0.31655
C	 2.5373719622	 3.6708859553	 0.1769262783	-0.040971
C	 4.0049930593	 3.2325370572	 0.0706405305	-0.205474
C	 3.9178749111	 1.7169554398	-0.2691389631	-0.24328
C	 2.4899437631	 1.5392505465	-0.7840643093	-0.072051
C	 1.8010261783	 2.8471134943	-0.9170755187	-0.103466
H	-0.5350499777	 1.1928043001	 1.0636284956	 0.064369
H	 0.9379607329	 3.3843646383	 1.6867677732	 0.105441
H	 2.3995317781	 2.4539569075	 2.0992355905	 0.094315
H	 2.3799125794	 4.748489106	 0.2040090956	 0.0736
H	 4.5009973525	 3.7778870606	-0.7398312454	 0.101247
H	 4.5627184569	 3.4290620113	 0.9915938897	 0.099359
H	 4.641930954	 1.4318501195	-1.037853283	 0.106871
H	 4.117138423	 1.087135666	 0.6038474014	 0.106859
H	 2.2424133605	 0.7460669205	-1.4796531081	 0.113614
H	 1.2192807804	 3.1889797146	-1.7622680079	 0.104123
102.4762	183.3863	190.4953	223.8899	362.1769	391.3072	490.4031	623.5449	672.0893	725.4855	728.8222	815.3641	841.8038	857.3881	875.448	902.1217	938.6249	961.596	984.9284	1009.6663	1017.9932	1047.8123	1060.5786	1087.0654	1139.8626	1169.1346	1191.0438	1211.7832	1228.0974	1242.6312	1264.8247	1281.4273	1308.6672	1323.6766	1340.9686	1412.5581	1432.1772	1484.8627	1492.6245	1509.1337	1792.5719	2856.567	3030.9159	3039.7632	3051.4528	3079.4023	3088.9069	3096.5718	3119.556	3194.776	3211.9838
O=CC12CC3CCC1C23	O=C[C@@]12C[C@H]3CC[C@@H]1[C@@H]23	
InChI=1S/C8H10O/c9-4-8-3-5-1-2-6(8)7(5)8/h4-7H,1-3H2	InChI=1S/C8H10O/c9-4-8-3-5-1-2-6(8)7(5)8/h4-7H,1-3H2/t5-,6-,7+,8+/m1/s1
