19
gdb 103392	2.37076	1.48981	1.28642	2.3928	75.53	-0.2351	-0.016	0.2191	1098.8504	0.157553	-423.016778	-423.007697	-423.006753	-423.050424	34.208	
C	-0.1178264516	 1.5472632661	 0.1222997735	-0.399439
C	 0.0381963869	 0.0214953495	 0.1207818382	-0.233517
C	 0.6640687345	-0.5072568948	-1.1662561516	 0.309043
O	 1.9669506525	 0.0284153694	-1.3644389194	-0.48914
C	 0.7066934462	-2.0252109246	-1.4202328203	-0.080666
C	-0.6607241215	-2.5871614361	-1.5377079588	-0.304677
C	-0.0867629795	-1.8789297787	-2.7572381859	-0.171776
C	-0.0837036897	-0.4054583542	-2.542076338	 0.354791
O	-0.2730454858	 0.5472079199	-3.2514051505	-0.343735
H	 0.8576464395	 2.0379149424	 0.0529145728	 0.119182
H	-0.7283406542	 1.8852373348	-0.7206661489	 0.137391
H	-0.5935696422	 1.8878868116	 1.0461855671	 0.11475
H	 0.6779456666	-0.2898223186	 0.9563599714	 0.106206
H	-0.9386844739	-0.4486471603	 0.2780397617	 0.095089
H	 1.8631094581	 0.873993738	-1.8167396268	 0.295998
H	 1.5955849465	-2.6227473358	-1.2697634042	 0.116602
H	-0.7233536809	-3.6639887755	-1.6565101113	 0.132245
H	-1.4988103918	-2.1588314815	-0.9975206594	 0.127148
H	 0.0304742202	-2.3894982118	-3.7048206896	 0.114504
88.2037	99.989	159.2449	209.1796	244.2312	273.082	306.8704	327.5652	413.8878	477.5361	504.5259	634.6581	671.9065	728.1494	773.8164	819.4167	863.6067	900.86	938.9615	953.295	972.6367	1023.0181	1024.582	1056.6168	1089.7604	1111.4159	1121.182	1173.4711	1181.3598	1205.934	1278.8124	1304.8831	1331.1838	1343.3175	1384.1933	1409.8453	1473.8342	1495.4697	1498.9526	1514.5036	1858.2719	3027.4938	3042.4185	3069.3201	3113.1051	3116.5321	3128.6118	3197.1396	3207.6181	3218.3603	3794.7851
CCC1(O)C2CC2C1=O	CC[C@@]1(O)[C@H]2C[C@H]2C1=O	
InChI=1S/C7H10O2/c1-2-7(9)5-3-4(5)6(7)8/h4-5,9H,2-3H2,1H3	InChI=1S/C7H10O2/c1-2-7(9)5-3-4(5)6(7)8/h4-5,9H,2-3H2,1H3/t4-,5+,7-/m1/s1
