17
gdb 81876	3.0676	1.28757	1.00803	3.0563	75.26	-0.2439	-0.0403	0.2036	1176.0275	0.13417	-421.83256	-421.823885	-421.822941	-421.866097	31.502	
C	-0.0653553563	 1.6496765877	-0.0315538173	-0.415509
C	 0.0645677412	 0.130875303	-0.013517812	-0.109607
C	 0.687515358	-0.6155522721	-1.211147226	-0.097603
C	 2.1088229059	-0.2870089677	-1.3848154513	-0.316676
C	 1.7686789226	-1.2812828728	-0.2639492828	 0.11056
C	 2.279215012	-2.6643303033	-0.3055203529	 0.053716
O	 2.6276084938	-3.2260881178	-1.3188999086	-0.270649
C	 1.1334852217	-0.5544802377	 0.8844865723	 0.33064
O	 1.2774239418	-0.6180808224	 2.0732591917	-0.313217
H	 0.8652935038	 2.1369970877	-0.3359755686	 0.123053
H	-0.8538954111	 1.9692391996	-0.7198911615	 0.126591
H	-0.3201199636	 2.0120903622	 0.9687655794	 0.142091
H	-0.8977369068	-0.3221161104	 0.2555222952	 0.114135
H	 0.1324652664	-1.1811365629	-1.9481744867	 0.127874
H	 2.6218601483	-0.7775803956	-2.2058156473	 0.159997
H	 2.5016126611	 0.6861620673	-1.1082055962	 0.134739
H	 2.3040747712	-3.1743486249	 0.6798017328	 0.099866
86.2873	129.5668	152.1782	190.6892	192.6573	252.5643	300.0142	367.4565	500.2505	571.9298	599.0118	695.4718	736.7251	765.4408	835.567	869.7101	934.5251	962.9948	1012.9884	1013.7573	1053.0955	1080.2713	1087.2677	1123.4779	1141.1459	1212.2833	1253.7721	1284.7351	1345.8149	1366.2718	1409.9784	1427.5648	1483.8539	1495.2653	1500.5205	1792.0454	1873.675	2919.5152	3041.3908	3042.1988	3110.9388	3116.9356	3129.9249	3209.2288	3223.0124
CC1C2CC2(C=O)C1=O	C[C@H]1[C@H]2C[C@@]2(C=O)C1=O	
InChI=1S/C7H8O2/c1-4-5-2-7(5,3-8)6(4)9/h3-5H,2H2,1H3	InChI=1S/C7H8O2/c1-4-5-2-7(5,3-8)6(4)9/h3-5H,2H2,1H3/t4-,5+,7-/m0/s1
