20
gdb 89116	4.21292	0.64666	0.6381	2.8625	77.33	-0.2514	0.0291	0.2804	1806.3738	0.169386	-440.295157	-440.28495	-440.284006	-440.332356	35.341	
C	-0.1296509867	 1.5324342399	 0.0911711801	-0.418599
C	-0.0650024026	 0.0344934061	 0.2439685339	 0.077882
O	 1.2124104449	-0.5950543125	 0.0883181963	-0.270087
C	 0.5638406192	-0.680336398	 1.3680194173	 0.06462
C	 1.2657339335	-0.0309364244	 2.5348022517	-0.228054
C	 2.5264955617	-0.8219829525	 2.9237416535	-0.154968
N	 3.2457955888	-0.2403091197	 4.0473772427	-0.270043
C	 2.872809278	-0.4554850838	 5.3350384934	 0.150361
O	 1.9379697451	-1.1502012656	 5.677100728	-0.327184
H	 0.6882254576	 2.0333742776	 0.6122637148	 0.126307
H	-0.0699162647	 1.8035128275	-0.9681319713	 0.130839
H	-1.0797234227	 1.9143439618	 0.480339823	 0.124667
H	-0.8700814079	-0.4971873696	-0.2689211874	 0.088225
H	 0.1763265459	-1.6789477639	 1.5860345635	 0.09294
H	 1.5439547548	 0.9995568492	 2.2964103361	 0.095511
H	 0.5903437408	-0.0051394071	 3.3970841232	 0.13035
H	 2.2479680526	-1.8424915629	 3.2029402925	 0.137812
H	 3.2058584903	-0.8778377857	 2.0690116696	 0.125622
H	 4.0099978184	 0.3905355728	 3.8686021337	 0.249608
H	 3.5310347632	 0.0734445107	 6.0533163654	 0.074192
28.8437	57.8011	64.7841	115.4138	164.2923	206.4411	236.9733	294.5861	370.9732	396.4343	487.9363	506.1784	538.7147	725.2711	761.5317	807.5459	850.6877	924.7232	977.6913	988.8354	1028.5866	1032.8437	1049.9941	1103.8335	1131.1206	1175.7411	1182.5603	1209.0037	1253.7515	1296.056	1310.0639	1338.683	1394.387	1409.9484	1418.7591	1428.5519	1466.7904	1469.787	1483.7589	1490.0295	1511.8402	1528.2797	1801.9357	2932.584	3039.5437	3049.6976	3062.4484	3068.7935	3082.5289	3096.2698	3100.2762	3119.1136	3136.0792	3642.765
CC1OC1CCNC=O	C[C@H]1O[C@H]1CCNC=O	
InChI=1S/C6H11NO2/c1-5-6(9-5)2-3-7-4-8/h4-6H,2-3H2,1H3,(H,7,8)	InChI=1S/C6H11NO2/c1-5-6(9-5)2-3-7-4-8/h4-6H,2-3H2,1H3,(H,7,8)/t5-,6+/m1/s1
