16
gdb 28037	4.07084	0.95721	0.85061	3.1615	76.35	-0.2314	-0.0001	0.2312	1348.7785	0.125243	-396.977527	-396.969006	-396.968062	-397.01204	30.032	
C	 0.0285280245	 1.4988035794	 0.0196451816	-0.485185
C	 0.0203593266	 0.0058927015	-0.0192102282	 0.283214
C	 0.0684241544	-0.8230320066	-1.1091684649	-0.2052
N	 0.0328003157	-2.1125685893	-0.6069609163	 0.019094
C	 0.0669131801	-3.3433209255	-1.3647156268	-0.307805
C	 1.3671140034	-3.596564344	-2.0048932529	 0.277311
N	 2.3796698724	-3.7995207756	-2.5211900961	-0.288862
C	-0.0291518514	-1.99640589	 0.7541904405	 0.004938
N	-0.0435100259	-0.7463086039	 1.1392440006	-0.313842
H	 0.8855188114	 1.8695820919	 0.59168516	 0.138925
H	 0.0811037861	 1.9198222256	-0.9877972163	 0.119596
H	-0.8739559213	 1.8831562306	 0.5065313801	 0.136274
H	 0.1302109426	-0.6311432826	-2.1679093046	 0.137425
H	-0.1618986816	-4.1729121873	-0.6893452325	 0.175575
H	-0.7072795811	-3.3357241817	-2.1403600103	 0.175054
H	-0.0664112561	-2.8653456325	 1.3959686261	 0.133489
34.2035	78.0429	110.0518	209.5384	258.4182	304.7269	369.5348	392.8575	477.1958	620.2978	663.368	682.0578	721.0249	780.8341	816.3314	927.6883	968.4736	977.6735	1017.0582	1052.9244	1065.1575	1184.8473	1220.138	1261.8893	1307.3066	1376.255	1400.1514	1417.1868	1432.4059	1461.781	1476.0542	1489.147	1535.7292	1606.4817	2368.8361	3037.5665	3049.1633	3093.6464	3100.1053	3119.5506	3240.2571	3269.5209
CC1=CN(CC#N)C=N1	Cc1cn(CC#N)cn1	
InChI=1S/C6H7N3/c1-6-4-9(3-2-7)5-8-6/h4-5H,3H2,1H3	InChI=1S/C6H7N3/c1-6-4-9(3-2-7)5-8-6/h4-5H,3H2,1H3
