20
gdb 98276	2.64285	1.0779	0.9284	2.637	72.16	-0.247	0.0084	0.2554	1365.1067	0.169195	-477.450454	-477.439861	-477.438917	-477.486418	37.628	
C	 0.1090138084	 1.2895457204	-0.1712846892	-0.241432
O	-0.085832839	-0.1316675089	-0.2045981047	-0.228179
C	-1.339363512	-0.5473153915	 0.0243854805	 0.48024
O	-2.2583270116	 0.1932872503	 0.2781726514	-0.372803
C	-1.4496038889	-2.0679839099	-0.0488156415	-0.153949
N	-2.854119235	-2.4429118878	 0.1187265648	-0.52859
C	-0.9476309616	-2.5892272148	-1.4233328976	 0.164014
C	-0.8205777803	-4.1140291273	-1.436282041	-0.41103
O	-1.8328901591	-2.1296079201	-2.4262087143	-0.443636
H	 1.1660040977	 1.4478548171	-0.3837819008	 0.136512
H	-0.512064008	 1.7773504609	-0.9259881948	 0.14933
H	-0.1493278213	 1.6892327161	 0.8124284526	 0.141446
H	-0.797124166	-2.4692214433	 0.740356529	 0.092564
H	-2.9609412088	-3.2046878587	 0.7756167333	 0.237858
H	-3.3662681345	-1.6388254281	 0.4696083934	 0.252479
H	 0.0256855419	-2.1377199937	-1.6349336481	 0.096673
H	-0.5321612177	-4.4493759253	-2.4358012956	 0.125671
H	-0.0643834555	-4.4596393359	-0.7221969283	 0.10382
H	-1.7778172898	-4.5827484132	-1.1845549611	 0.115722
H	-2.7162083387	-2.3094811563	-2.066731488	 0.28329
60.7275	78.158	120.4329	127.9045	189.6002	225.136	235.3278	256.2599	302.2576	315.3135	372.1372	442.3886	473.5441	583.5665	613.0536	677.4648	770.5694	842.292	896.0021	914.7369	939.6648	1019.4666	1028.3724	1083.103	1106.4778	1148.4803	1179.857	1203.0105	1211.5641	1258.9662	1268.1885	1322.1651	1367.667	1395.7719	1406.2504	1442.7253	1475.7448	1482.2762	1491.1533	1496.8146	1502.2775	1635.3358	1812.571	3000.2331	3031.2171	3055.2198	3077.6069	3103.5624	3120.7775	3132.3098	3163.6742	3507.407	3607.8822	3693.1814
COC(=O)C(N)C(C)O	COC(=O)[C@@H](N)[C@@H](C)O	
InChI=1S/C5H11NO3/c1-3(7)4(6)5(8)9-2/h3-4,7H,6H2,1-2H3	InChI=1S/C5H11NO3/c1-3(7)4(6)5(8)9-2/h3-4,7H,6H2,1-2H3/t3-,4+/m1/s1
