16
gdb 64630	2.22123	1.57473	1.36869	4.9032	74.54	-0.2644	-0.0456	0.2189	1031.1842	0.123445	-400.793062	-400.784602	-400.783658	-400.826453	31.046	
C	-0.095642922	 1.5867682847	 0.0267339893	-0.420544
C	-0.0129597352	 0.045667846	-0.0382798444	-0.039735
C	 0.7972975109	-0.4932529799	-1.2022000799	-0.089849
C	 1.8270070432	-1.2450115954	-0.8156301567	-0.077879
C	 1.927769311	-1.3906101936	 0.6765329637	-0.377149
C	 0.7980582305	-0.4980266649	 1.196367486	 0.384894
O	 0.5727794057	-0.2032494084	 2.3341139035	-0.289361
C	-1.3616317899	-0.5302714749	-0.0230833413	 0.2696
N	-2.4225648219	-0.9901716702	-0.024981095	-0.335145
H	 0.9103706781	 2.0121622144	-0.0198824802	 0.130137
H	-0.6809757484	 1.9770056724	-0.8093457943	 0.138653
H	-0.5656159857	 1.891280188	 0.9644339604	 0.159447
H	 0.5286542786	-0.2648846219	-2.2263586354	 0.122819
H	 2.5310451734	-1.7139802591	-1.4927347654	 0.118935
H	 1.7729333684	-2.4211278856	 1.0231668072	 0.156746
H	 2.8869530433	-1.0675214715	 1.0982328825	 0.148431
51.3409	137.0256	168.2768	223.4486	239.3672	252.9179	404.5301	452.3064	514.0881	543.1761	592.0369	612.392	671.1519	737.4029	761.7671	885.8702	931.2918	965.2287	975.2672	993.3777	1049.9463	1111.5708	1126.435	1161.7278	1196.7332	1205.2082	1292.6759	1370.077	1404.8384	1441.3857	1490.3021	1490.3457	1682.3211	1868.2055	2347.7102	3030.5059	3050.1797	3065.1394	3129.5856	3140.9041	3197.8302	3220.1171
CC1(C=CCC1=O)C#N	C[C@]1(C=CCC1=O)C#N	
InChI=1S/C7H7NO/c1-7(5-8)4-2-3-6(7)9/h2,4H,3H2,1H3	InChI=1S/C7H7NO/c1-7(5-8)4-2-3-6(7)9/h2,4H,3H2,1H3/t7-/m0/s1
