16
gdb 36134	4.10172	1.13104	1.00037	5.0604	73.46	-0.2603	-0.0118	0.2486	1173.1113	0.124499	-400.752063	-400.744375	-400.743431	-400.784778	29.021	
N	-0.0630964496	-1.1273320197	 0.3748779588	-0.305056
C	-0.0620891064	 0.0123309024	 0.1863397583	 0.266902
C	-0.0509586848	 1.4532871166	-0.0753393743	-0.439096
C	 1.3518174953	 2.0111747076	-0.1994733844	 0.395296
O	 1.9963723047	 2.3666905293	 1.0428604227	-0.286782
C	 1.7236130276	 3.4070334628	 0.0966856975	-0.036617
C	 2.9065767585	 3.7808287488	-0.7883298748	-0.296364
C	 3.1874730076	 2.4944533678	-1.5404589858	-0.072296
C	 2.3176080589	 1.5283972151	-1.2376427471	-0.138393
H	-0.6106388526	 1.6388315221	-0.9997976121	 0.15967
H	-0.5723902791	 1.9661403219	 0.7384090042	 0.164914
H	 1.0103098757	 4.1587181488	 0.4255203298	 0.099776
H	 2.6517082346	 4.606279472	-1.4649527915	 0.118604
H	 3.7669929957	 4.1092801889	-0.1933065268	 0.134975
H	 4.0314104033	 2.3891340967	-2.2123937661	 0.111262
H	 2.3075128605	 0.5201938087	-1.6320619685	 0.123206
55.6423	110.0932	237.0679	272.5263	342.3726	385.518	435.5733	468.7176	513.3567	708.5563	722.0075	741.1402	794.7062	851.1753	906.4354	926.0336	933.5897	957.6932	974.5056	992.8141	1004.2922	1063.1188	1135.236	1184.3801	1189.1435	1263.4512	1275.2608	1307.4277	1335.8353	1373.4005	1439.6891	1446.9944	1458.6868	1664.2671	2365.629	3031.9799	3045.3859	3068.8384	3097.953	3145.3064	3197.9209	3224.9759
N#CCC12OC1CC=C2	N#CC[C@]12O[C@H]1CC=C2	
InChI=1S/C7H7NO/c8-5-4-7-3-1-2-6(7)9-7/h1,3,6H,2,4H2	InChI=1S/C7H7NO/c8-5-4-7-3-1-2-6(7)9-7/h1,3,6H,2,4H2/t6-,7-/m0/s1
