17
gdb 55709	3.12933	1.07206	0.87092	5.1599	73.45	-0.261	-0.0445	0.2165	1316.39	0.134273	-418.012362	-418.003031	-418.002087	-418.047426	33.058	
C	 0.1003552283	 1.5692704214	-0.4148200635	-0.478429
C	 0.542727471	 0.1247651505	-0.3240069009	 0.381438
O	 1.715159921	-0.1822386693	-0.2890971082	-0.300075
C	-0.5852702747	-0.9002365553	-0.24265447	-0.393195
C	-0.2761104267	-2.3365465546	-0.6635788971	 0.142149
C	 0.6622055898	-2.6613622399	-1.7828024644	-0.259287
N	 1.0219032568	-2.9888206556	-0.4028990829	-0.32769
C	-1.4235913945	-3.206000581	-0.4732402116	 0.279146
N	-2.3676687316	-3.8573997558	-0.3288618885	-0.33768
H	 0.9572576509	 2.2301854582	-0.2824679461	 0.153151
H	-0.3526789277	 1.7515714649	-1.3966473259	 0.154114
H	-0.6682645832	 1.7895680845	 0.3337651472	 0.148321
H	-0.9154900189	-0.8994490058	 0.8069329913	 0.161223
H	-1.4470179505	-0.5341455638	-0.8123362945	 0.143424
H	 0.4441910589	-3.5100714552	-2.4233671746	 0.14038
H	 1.1634012823	-1.8270076096	-2.2641349657	 0.131389
H	 1.6603098688	-2.2705695038	-0.0637209446	 0.261621
40.2591	78.9087	134.9058	143.772	223.2515	249.0549	311.7017	334.714	372.9072	478.1347	564.0709	586.0295	589.8042	721.3301	804.4042	831.8604	889.5706	914.0658	950.8392	1000.9936	1011.594	1045.5037	1107.6131	1138.6855	1180.31	1244.9275	1292.1547	1316.9249	1344.409	1384.7618	1402.5744	1452.2457	1460.9461	1474.4151	1503.2633	1798.8391	2356.39	3014.5781	3037.6082	3067.0705	3098.8009	3121.6742	3158.0909	3213.8878	3491.279
CC(=O)CC1(CN1)C#N	CC(=O)C[C@]1(CN1)C#N	
InChI=1S/C6H8N2O/c1-5(9)2-6(3-7)4-8-6/h8H,2,4H2,1H3	InChI=1S/C6H8N2O/c1-5(9)2-6(3-7)4-8-6/h8H,2,4H2,1H3/t6-/m1/s1
