18
gdb 125996	4.55954	1.26169	1.02755	3.8903	76.91	-0.2472	0.0196	0.2668	1153.6613	0.151905	-398.173856	-398.166553	-398.165609	-398.205748	28.05	
C	-0.7035500141	 1.2625465379	-0.0446005114	-0.408066
C	 0.1993864733	 0.033276126	 0.0067855958	 0.022642
C	 1.2244377729	-0.0369977522	-1.1681712031	-0.187505
N	 2.3449953503	-0.6934212567	-0.5257415349	 0.063491
N	 3.4961757347	-1.2204468218	-0.9919444119	-0.278031
C	 4.0912427868	-1.5687012023	 0.146351518	 0.016628
N	 3.4023608093	-1.2886362839	 1.293771318	-0.368301
C	 2.3040994039	-0.7309096211	 0.8160997573	 0.392486
C	 1.0513718906	-0.0856442929	 1.3146555986	-0.373172
H	-0.1164447295	 2.1852695308	 0.0217924074	 0.123816
H	-1.2782855639	 1.2963956988	-0.9759779913	 0.123434
H	-1.416598499	 1.2588337876	 0.7855775589	 0.126604
H	-0.4220579695	-0.8666284725	-0.0579010551	 0.099159
H	 0.8585201212	-0.614445065	-2.0203003148	 0.135417
H	 1.515130729	 0.9588293841	-1.5249157629	 0.125053
H	 5.0588231304	-2.0487555095	 0.148303714	 0.121983
H	 1.2682436561	 0.902601946	 1.739551537	 0.128725
H	 0.5452243176	-0.6663054333	 2.0893395503	 0.135636
83.4772	196.9162	240.3075	250.9529	285.8928	413.1524	468.0635	522.8346	674.2622	699.2759	748.9325	793.4148	828.7389	900.25	908.2366	938.831	959.8461	993.6885	1069.929	1112.1821	1124.0158	1170.7434	1188.911	1201.2597	1231.4994	1275.0624	1285.2718	1293.812	1340.0841	1359.3914	1373.5263	1416.9927	1430.8528	1485.2296	1498.5749	1498.7133	1500.4272	1533.8991	1571.3811	3029.7507	3031.9414	3033.3451	3045.3773	3098.85	3100.5833	3105.0415	3108.1044	3256.5877
CC1CN2N=CN=C2C1	C[C@H]1Cn2ncnc2C1	
InChI=1S/C6H9N3/c1-5-2-6-7-4-8-9(6)3-5/h4-5H,2-3H2,1H3	InChI=1S/C6H9N3/c1-5-2-6-7-4-8-9(6)3-5/h4-5H,2-3H2,1H3/t5-/m1/s1
