21
gdb 111989	3.95881	1.04479	0.92976	1.2618	83.77	-0.2269	0.0177	0.2447	1334.0315	0.18227	-387.085472	-387.076538	-387.075594	-387.118798	34.89	
C	-0.1471725056	 1.5964918838	 0.0234277217	-0.386222
C	-0.0804738799	 0.0665627256	-0.0131177101	-0.170372
C	 0.7410769103	-0.4954676457	-1.1900045567	-0.040377
C	 2.2282908213	-0.176337005	-1.149750563	-0.077201
C	 2.9877921044	-1.2626960369	-1.2994171004	-0.16249
C	 2.1569527494	-2.503227718	-1.4162605499	 0.370039
O	 2.5097703911	-3.4892142985	-2.3391828035	-0.472923
C	 1.3548894724	-2.8536876685	-0.1825626784	-0.344449
C	 0.7309062048	-2.0233645807	-1.293134316	-0.10869
H	 0.8422322082	 2.0441058669	 0.1629638151	 0.116759
H	-0.563318788	 1.9977790407	-0.9075950846	 0.113918
H	-0.7817923095	 1.9415336753	 0.8456848166	 0.112219
H	 0.3335297332	-0.3083481209	 0.930318078	 0.095906
H	-1.0983805563	-0.3366265286	-0.0828043307	 0.096628
H	 0.3109524585	-0.0733822206	-2.111923626	 0.079815
H	 2.6040045777	 0.8288741599	-0.9954687845	 0.09501
H	 4.0721624658	-1.2869209824	-1.3170390083	 0.090129
H	 3.1326351399	-4.0870425043	-1.9125958418	 0.281904
H	 0.9934404015	-3.8754552042	-0.1168380958	 0.108282
H	 1.6219693347	-2.3964824724	 0.7643312362	 0.109861
H	-0.0450373639	-2.5058133955	-1.8753388179	 0.092255
86.2987	128.4282	171.9014	236.763	249.2302	295.162	312.8608	385.6327	396.721	499.8405	534.539	625.9335	710.0209	744.3701	772.7305	787.8762	860.2512	884.8257	929.7216	936.8527	957.107	968.8191	979.5043	1042.3743	1057.1265	1064.4521	1071.0779	1121.2602	1130.9491	1145.9508	1233.4531	1246.3287	1276.1547	1295.9204	1323.4356	1348.1784	1357.453	1375.1396	1410.0527	1413.0296	1474.7696	1486.5038	1500.3323	1507.3101	1667.815	2977.3155	3025.7512	3031.6	3060.7831	3098.3914	3103.2277	3120.7656	3180.3427	3182.8446	3206.2012	3212.8638	3802.7432
CCC1C=CC2(O)CC12	CC[C@H]1C=C[C@@]2(O)C[C@@H]12	
InChI=1S/C8H12O/c1-2-6-3-4-8(9)5-7(6)8/h3-4,6-7,9H,2,5H2,1H3	InChI=1S/C8H12O/c1-2-6-3-4-8(9)5-7(6)8/h3-4,6-7,9H,2,5H2,1H3/t6-,7-,8+/m0/s1
