18
gdb 40034	3.57447	1.5304	1.42274	2.8093	73.85	-0.2377	0.0742	0.3119	964.596	0.149832	-401.89366	-401.886988	-401.886043	-401.924593	27.548	
C	 0.0795507277	 1.5317681048	 0.0080433721	-0.256407
O	 1.205623085	 0.6472274552	-0.0268694837	-0.284821
C	-0.1003656955	 0.0756193538	 0.0276264528	 0.463354
C	-0.480666351	-0.7615831954	 1.2480897616	-0.311872
C	-1.4791807388	-1.7515854874	 0.6560141168	-0.001435
C	-2.7275296141	-1.0555535959	 0.0498480903	-0.25619
C	-1.9885007851	-1.1226256705	-1.2778275368	-0.0353
C	-0.5581883672	-0.7298331164	-1.158910907	-0.124211
N	-0.9610491121	-2.0977056705	-0.7500458401	-0.152779
H	-0.0381092699	 2.1035880182	 0.9280617564	 0.113199
H	-0.1045687892	 2.0903768412	-0.9094539881	 0.11371
H	 0.4130054241	-1.2809355737	 1.6106619598	 0.127436
H	-0.89783848	-0.1735285623	 2.0704455053	 0.10824
H	-1.6579583766	-2.6383214194	 1.2620922306	 0.085904
H	-3.598514384	-1.7142305717	 0.0496552961	 0.114797
H	-3.0199996642	-0.0763274617	 0.4432150854	 0.098271
H	-2.4500716241	-1.2614378446	-2.2511844432	 0.093894
H	 0.033404435	-0.6709565337	-2.0665601482	 0.104211
106.7304	254.7534	331.8489	354.5326	375.5674	505.3031	522.8243	635.9484	756.6593	794.8229	804.0806	815.3438	843.0763	854.2696	882.3272	923.8546	957.4481	986.8113	1001.7551	1034.1851	1052.0805	1068.3193	1097.0306	1126.1467	1140.6706	1158.8153	1171.539	1175.3209	1236.9184	1255.5475	1265.6281	1298.7115	1318.0059	1347.0468	1377.9918	1437.9812	1477.6316	1497.0995	1532.8473	3044.2298	3049.8027	3075.0713	3100.4065	3107.873	3126.7756	3150.8468	3160.7244	3175.6432
C1OC11CC2CC3C1N23	C1O[C@]21C[C@H]1C[C@H]3[C@@H]2N13	
InChI=1S/C7H9NO/c1-4-2-7(3-9-7)6-5(1)8(4)6/h4-6H,1-3H2	InChI=1S/C7H9NO/c1-4-2-7(3-9-7)6-5(1)8(4)6/h4-6H,1-3H2/t4-,5+,6+,7+,8?/m1/s1
