19
gdb 19969	3.43958	1.73584	1.41605	2.0377	70.53	-0.2407	0.0733	0.314	950.5804	0.166501	-365.016298	-365.008323	-365.007379	-365.048946	29.435	
C	-0.1656506209	 1.5729034311	-0.0607159068	-0.416351
C	 0.0362159528	 0.0635464264	-0.0362593768	-0.041348
C	 1.353917556	-0.487240592	-0.6227198333	-0.081768
O	 1.7380008837	-1.0692313673	 0.6447504791	-0.297213
C	 0.5221696361	-0.6111977148	 1.2833820723	 0.097041
C	 0.808570297	 0.2516025184	 2.4893984242	-0.005241
C	 1.9183883329	-0.1098653776	 3.401912957	-0.247512
N	 2.021772702	 1.079489742	 2.5311745636	-0.319778
H	 0.6837546495	 2.1034014533	 0.3786278854	 0.142935
H	-0.2923991753	 1.9238621644	-1.0906595546	 0.11528
H	-1.0623248808	 1.8621608933	 0.4972464665	 0.12025
H	-0.8444206748	-0.4362881838	-0.4480053774	 0.080176
H	 1.2533030923	-1.2513056994	-1.4023694542	 0.104898
H	 2.0742381559	 0.2705443619	-0.9571247397	 0.10096
H	-0.1028378882	-1.4626479728	 1.5881215252	 0.079512
H	-0.0746443207	 0.7305447396	 2.9093093079	 0.091308
H	 1.8405792019	 0.0994630598	 4.4647309917	 0.115226
H	 2.5160818036	-0.9784812659	 3.1408305787	 0.126534
H	 2.5978138171	 0.8124057936	 1.7336202012	 0.235092
70.5968	112.7458	163.1987	220.182	248.7139	301.9408	373.9794	479.8658	601.815	750.1133	767.4484	855.962	869.5477	892.0326	923.5628	955.5295	970.3691	1000.9446	1017.1785	1045.6074	1103.5243	1123.344	1138.9547	1147.7329	1158.7588	1186.9005	1195.0038	1263.7803	1277.1231	1292.9928	1307.3526	1348.3464	1365.5278	1386.3296	1415.4336	1422.1828	1495.6252	1500.2082	1504.8266	1526.1206	2997.7307	3012.7324	3034.7807	3054.3473	3073.7765	3096.385	3114.051	3118.5007	3122.2783	3203.9644	3475.3539
CC1COC1C1CN1	C[C@H]1CO[C@H]1[C@H]1CN1	
InChI=1S/C6H11NO/c1-4-3-8-6(4)5-2-7-5/h4-7H,2-3H2,1H3	InChI=1S/C6H11NO/c1-4-3-8-6(4)5-2-7-5/h4-7H,2-3H2,1H3/t4-,5+,6+/m0/s1
