16
gdb 52736	2.59219	0.9976	0.74653	1.6184	75.54	-0.2512	-0.0495	0.2017	1488.2617	0.121005	-437.902858	-437.892659	-437.891715	-437.939812	34.586	
C	-0.0369443668	 1.5573036106	-0.0213555637	-0.500391
C	-0.0077087778	 0.1025569699	-0.0123333056	 0.120236
C	 0.0444947845	-1.0990881797	-0.0185338956	 0.081037
C	 0.0392282848	-2.5505538583	-0.0067120874	-0.430816
C	-1.3868670173	-3.1096501433	 0.1109726391	 0.153418
O	-1.642298352	-4.2869369636	 0.1683507208	-0.257201
C	 0.8154240457	-3.1722340238	-1.2199966514	 0.412884
N	 0.8300600697	-4.5330276378	-1.2006147178	-0.527896
O	 1.3858591639	-2.4864209279	-2.0342965823	-0.331063
H	 0.8114096703	 1.9599694863	-0.5849430923	 0.160003
H	-0.9541938231	 1.9332980246	-0.4871234416	 0.151131
H	 0.012626699	 1.9640211449	 0.9945132186	 0.149561
H	 0.5635584383	-2.9298254105	 0.8836521835	 0.160828
H	-2.1817024804	-2.3392679425	 0.1499557679	 0.120217
H	 0.1305023168	-5.0202824963	-0.6570922164	 0.275806
H	 1.2095212742	-4.9882712926	-2.0162818456	 0.262247
32.8945	57.7017	78.8971	101.7441	132.0569	237.6002	278.6243	306.9559	376.577	421.0996	461.6983	501.678	510.7513	587.4656	620.0634	717.2066	748.1253	877.2229	1005.2666	1020.4275	1051.2271	1055.0024	1135.8588	1177.0317	1195.6786	1287.6966	1320.5679	1406.5572	1414.4816	1476.9876	1477.2156	1623.8561	1806.4352	1828.8402	2382.7828	2947.4803	3003.2051	3030.8646	3092.3368	3095.5599	3544.6592	3686.6473
CC#CC(C=O)C(N)=O	CC#C[C@@H](C=O)C(=O)N	
InChI=1S/C6H7NO2/c1-2-3-5(4-8)6(7)9/h4-5H,1H3,(H2,7,9)	InChI=1S/C6H7NO2/c1-2-3-5(4-8)6(7)9/h4-5H,1H3,(H2,7,9)/t5-/m0/s1
