18
gdb 56398	3.21297	0.73556	0.64736	1.3038	88.54	-0.2339	0.029	0.2629	1751.5565	0.145751	-364.718737	-364.708849	-364.707905	-364.755281	35.206	
C	-0.2460418048	 1.6072594932	 0.802295072	-0.376139
C	-0.0806308824	 0.255510854	 0.0622195023	-0.325372
C	 0.7754068506	-0.6616727796	 0.8238786631	 0.344182
C	 1.4882916056	-1.3879363579	 1.4617272982	-0.468406
C	-1.3798096699	-0.3552634168	-0.2427948876	 0.112471
C	-2.4533745696	-0.8408701882	-0.4955978432	 0.064899
C	-3.7415577007	-1.4086928546	-0.7793414842	-0.158995
C	-3.9656172161	-2.8745209173	-0.5940098929	-0.22575
N	-4.5897490583	-1.9196539251	 0.3269963632	-0.30765
H	 0.7333984147	 2.0583369878	 0.9798801233	 0.127931
H	-0.851831322	 2.2887172639	 0.2001613482	 0.12803
H	-0.7412844018	 1.4540767434	 1.7635447359	 0.137246
H	 0.4232033829	 0.4621938486	-0.8936973122	 0.13868
H	 2.1160859508	-2.0388293465	 2.01848515	 0.199719
H	-4.3134808699	-0.9004948396	-1.5516716157	 0.116381
H	-4.6543377393	-3.3912492062	-1.2562873617	 0.125011
H	-3.1223640723	-3.4657305006	-0.2500544407	 0.12683
H	-4.0540039776	-1.8802559485	 1.1911040618	 0.240931
20.0014	64.4816	96.103	169.6021	202.3956	219.8644	238.7837	336.8154	418.4663	450.2976	521.4925	563.4669	588.389	631.8439	645.867	712.9401	809.9076	826.0134	890.2169	959.2296	979.5706	1010.8963	1064.8503	1074.2566	1113.7593	1131.7443	1161.6606	1218.3699	1257.3766	1297.3038	1300.8083	1322.7991	1395.771	1403.3672	1488.7932	1496.3496	1505.3445	2241.3866	2362.2389	2995.5228	3051.582	3115.1299	3132.7196	3137.0049	3138.5191	3206.4829	3503.3483	3504.345
CC(C#C)C#CC1CN1	C[C@@H](C#C)C#C[C@H]1CN1	
InChI=1S/C8H9N/c1-3-7(2)4-5-8-6-9-8/h1,7-9H,6H2,2H3	InChI=1S/C8H9N/c1-3-7(2)4-5-8-6-9-8/h1,7-9H,6H2,2H3/t7-,8-/m0/s1
