15
gdb 37081	2.95646	2.76033	2.4116	1.369	73.34	-0.2167	-0.1117	0.105	685.2128	0.114848	-379.486977	-379.481632	-379.480688	-379.516084	23.739	
C	 0.1838090959	 1.4960517452	-0.2021599544	-0.278252
C	 1.6338373105	 1.3649991912	 0.382610745	-0.043691
C	 2.2802589538	 0.4240419401	-0.3967179443	-0.069926
C	 1.9403316159	-1.0256324743	 0.1628493058	-0.070482
N	 0.6470472381	-0.9683140884	-0.5797313956	-0.242861
C	 0.0545961961	-0.0659621016	 0.1564353943	 0.185881
N	 0.2325793786	-0.1607199898	 1.5452029905	-0.05843
C	 1.5844636551	-0.7343656291	 1.6335716625	-0.054947
C	 1.402978066	 0.7589941019	 1.7495969703	-0.071917
H	-0.5056644727	 2.1401862813	 0.3472515413	 0.123995
H	 0.1344383644	 1.66931958	-1.2743811443	 0.138625
H	 2.3204123625	 0.5088767479	-1.4785922712	 0.134962
H	 2.5820606484	-1.873220519	-0.0673615286	 0.09077
H	 1.8263326247	-1.3982286124	 2.4548665338	 0.110141
H	 1.4302532526	 1.309976777	 2.683138375	 0.106132
372.9235	419.7688	484.6089	510.1162	574.3667	622.6096	688.7318	732.9086	756.4824	766.4812	812.3839	839.4426	854.4374	883.5827	907.7547	917.1922	949.8044	990.2849	1002.1633	1047.5687	1074.1851	1086.2853	1134.2296	1178.118	1196.0772	1208.3616	1240.924	1250.2167	1300.506	1314.9947	1411.4596	1448.109	1476.4774	3083.3492	3143.4479	3175.4709	3179.5298	3182.7051	3194.4955
C1C2=CC3N=C1N1C3C21	C1[C]2[CH][C@@H]3[N][C]1N1[C@@H]3[C@@H]21	
InChI=1S/C7H6N2/c1-3-2-5-8-4(1)7-6(3)9(5)7/h1,4,6-7H,2H2	InChI=1S/C7H6N2/c1-3-2-5-8-4(1)7-6(3)9(5)7/h1,4,6-7H,2H2/t4-,6+,7-,9?/m0/s1
