20
gdb 12104	4.3983	1.22735	1.0966	1.6522	74.94	-0.2569	0.0879	0.3448	1150.5891	0.175916	-348.976077	-348.967502	-348.966557	-349.009523	32.069	
C	-0.021961444	 1.5028250627	-0.5805283235	-0.456842
C	-0.0368110307	 0.038734458	-0.1977413174	 0.432487
C	-1.3800635413	-0.6747767567	-0.2210242132	-0.284937
C	-2.3710719329	-0.1217874342	 0.7849926287	 0.039806
C	-3.351923105	 0.9613877929	 0.4048795298	-0.254166
C	-3.8377041282	-0.443799084	 0.6601591058	-0.282908
C	 1.1936971287	-0.7547379306	-0.3382509745	-0.234438
O	 0.7741151938	-0.2874601583	 0.9461116084	-0.278416
H	 0.9907255957	 1.9067266768	-0.507259313	 0.122731
H	-0.3787903275	 1.6391886666	-1.6074308142	 0.115357
H	-0.6727557735	 2.0827287921	 0.0798490095	 0.135658
H	-1.8063135084	-0.6128751705	-1.2315599929	 0.091967
H	-1.2061900535	-1.7371690683	-0.0135193964	 0.10198
H	-1.9790571775	-0.0761867649	 1.7973373292	 0.098002
H	-3.5858842022	 1.7295957903	 1.1338299857	 0.111725
H	-3.3462562025	 1.3137092065	-0.621710255	 0.10804
H	-4.1562901346	-1.0318812732	-0.1948577857	 0.108371
H	-4.4023586916	-0.6387203015	 1.5651404248	 0.111672
H	 1.1315656435	-1.8325097017	-0.487648202	 0.106942
H	 2.0955789119	-0.2875808221	-0.7333363141	 0.106968
55.5381	86.2576	155.5192	205.0934	289.1956	308.9861	363.6192	392.2433	422.0976	501.5022	725.706	775.0796	804.8639	830.3489	843.3317	886.8687	921.2224	930.253	949.2095	986.5819	1042.951	1059.6585	1078.1157	1091.5164	1135.7683	1141.8107	1156.0673	1179.6246	1199.8072	1224.7751	1242.463	1300.2957	1320.449	1401.2245	1412.756	1424.1678	1465.0937	1472.94	1485.0523	1498.5944	1507.8667	1532.8598	3015.5863	3039.6453	3060.6135	3074.418	3106.8518	3125.6252	3126.8304	3131.5021	3147.7061	3158.0909	3204.2077	3219.6835
CC1(CC2CC2)CO1	C[C@@]1(CC2CC2)CO1	
InChI=1S/C7H12O/c1-7(5-8-7)4-6-2-3-6/h6H,2-5H2,1H3	InChI=1S/C7H12O/c1-7(5-8-7)4-6-2-3-6/h6H,2-5H2,1H3/t7-/m1/s1
