13
gdb 25431	2.17905	1.60958	0.92576	2.8021	74.74	-0.2439	-0.057	0.1869	1152.9005	0.088435	-419.432359	-419.424642	-419.423698	-419.464909	28.183	
O	-0.0493071962	-0.0073304512	 0.0001730236	-0.270846
C	-0.0015929484	 1.2028288087	 0.0084661572	 0.050403
C	 1.2448307412	 1.9743498512	 0.0000117961	 0.032855
C	 2.5109013491	 1.4646797268	-0.018117104	-0.047583
O	 3.424648592	 2.4558254149	-0.0210122947	-0.131021
C	 2.7491188911	 3.6357011966	-0.004635807	-0.112942
C	 1.4019302958	 3.4176381173	 0.0087028961	 0.041597
C	 0.3763728116	 4.3899421276	 0.0273382894	 0.2427
C	-0.5098842376	 5.2045277925	 0.0433174087	-0.433292
H	-0.9240927339	 1.8193151345	 0.0234683914	 0.088029
H	 2.8875126571	 0.4557637101	-0.0298048954	 0.17889
H	 3.3491968137	 4.5295356166	-0.004712389	 0.1621
H	-1.2876025354	 5.9276367243	 0.0574282077	 0.19911
114.8685	135.4972	168.1917	216.5681	255.8963	421.605	464.1163	559.6548	584.9723	598.1025	619.4167	663.1322	675.3138	783.359	796.3571	829.8085	905.9974	1045.1653	1090.9467	1150.2975	1200.8583	1239.6725	1312.5235	1350.6315	1445.5516	1560.3352	1598.1055	1790.1322	2237.2083	2920.7359	3288.8781	3293.6137	3501.0213
O=CC1=COC=C1C#C	O=Cc1cocc1C#C	
InChI=1S/C7H4O2/c1-2-6-4-9-5-7(6)3-8/h1,3-5H	InChI=1S/C7H4O2/c1-2-6-4-9-5-7(6)3-8/h1,3-5H
