17
gdb 125377	3.08599	1.39096	1.03053	2.8074	74.99	-0.2339	0.0187	0.2526	1138.7039	0.137221	-418.008847	-418.000672	-417.999728	-418.041994	30.148	
C	 1.0990472261	 0.9741742727	 0.598091138	-0.524174
C	 0.2835935598	-0.2218810254	 0.2058216644	 0.120858
C	 0.213792353	-0.8146999236	-1.0376738081	-0.100134
N	-0.6475589061	-1.8571111584	-0.9337715135	-0.191759
N	-1.1641685692	-1.9876009547	 0.297857249	-0.299258
C	-0.6001407705	-1.00442081	 1.0017314169	 0.282968
C	-0.9706902322	-0.869944954	 2.4264602503	-0.003657
C	-0.0251312916	-0.4844488035	 3.4875730549	-0.190654
O	-0.983888982	 0.4500537643	 2.9956117821	-0.236855
H	 2.027272202	 0.6888268992	 1.1088499709	 0.124345
H	 1.3834886316	 1.5600424255	-0.2806651955	 0.117956
H	 0.5369375549	 1.6184371695	 1.2776051146	 0.156908
H	 0.6990435397	-0.5683358998	-1.9695878101	 0.132
H	-0.9397369978	-2.4931599309	-1.6556099303	 0.274399
H	-1.8194817406	-1.4906689678	 2.7091806079	 0.105394
H	-0.1917985776	-0.8362856375	 4.5050624291	 0.11782
H	 1.0114154507	-0.2709697556	 3.2332577292	 0.113842
70.7889	115.9066	178.7114	183.2808	265.7937	318.8883	422.0654	441.4956	495.5059	659.9754	670.1354	675.8655	745.3541	787.978	843.8948	911.2778	951.0627	994.1306	1012.3612	1068.6731	1090.0945	1098.8217	1150.504	1170.4238	1176.4973	1231.1878	1278.0371	1322.8346	1373.852	1412.3183	1419.8328	1483.1298	1486.8475	1503.1142	1515.2983	1535.7604	1609.3432	3026.0933	3084.2537	3086.9412	3128.7943	3129.8798	3173.3546	3254.4844	3678.3414
CC1=CNN=C1C1CO1	Cc1c[nH]nc1[C@H]1CO1	
InChI=1S/C6H8N2O/c1-4-2-7-8-6(4)5-3-9-5/h2,5H,3H2,1H3,(H,7,8)	InChI=1S/C6H8N2O/c1-4-2-7-8-6(4)5-3-9-5/h2,5H,3H2,1H3,(H,7,8)/t5-/m1/s1
