19
gdb 41171	3.13347	1.88686	1.58227	1.4879	78.65	-0.2389	0.0072	0.2461	907.3874	0.162631	-385.861557	-385.855221	-385.854277	-385.891709	27.92	
C	-0.0386101916	 1.5255378757	-0.1596056741	-0.285621
C	 1.5163061113	 1.533682436	 0.0755758051	-0.351441
C	 1.3557316131	 0.1879446762	 0.8113427912	 0.303995
C	 0.8064272466	 0.2279906001	 2.271493059	-0.257237
C	 0.0967466582	-1.1116120069	 2.0688807813	 0.047448
O	-0.8126283957	-0.7686388389	 0.9508293028	-0.297991
C	 0.0045424842	-0.0190799977	 0.0747847099	 0.154514
C	 1.2574584806	-1.9597121184	 1.5496591091	-0.085113
C	 2.0501960211	-1.1504982831	 0.8240852609	-0.204028
H	-0.5836355139	 2.0620666955	 0.6185565979	 0.115675
H	-0.3948479186	 1.8571631756	-1.13683644	 0.100218
H	 2.0622870337	 1.433102459	-0.8667731548	 0.107978
H	 1.9412822047	 2.3674217744	 0.6386864885	 0.103555
H	 1.6098613341	 0.2016533113	 3.0092608752	 0.101771
H	 0.1164583377	 1.0462430602	 2.4861335783	 0.100313
H	-0.5171104707	-1.527095145	 2.8653039377	 0.073966
H	 0.1106657098	-0.5428279083	-0.8820421865	 0.070236
H	 1.344566715	-3.0319639591	 1.6676185347	 0.09967
H	 2.9126426005	-1.4301558766	 0.231451804	 0.10209
240.8989	285.3397	367.4069	392.0659	481.1207	539.0888	555.0096	669.7413	680.1126	726.2357	780.4137	793.2771	805.4734	844.394	881.4186	901.376	913.9261	929.0905	950.8203	971.0911	986.8272	1052.2497	1077.1703	1085.631	1113.1553	1144.7343	1164.9863	1205.231	1218.6992	1228.8983	1247.7932	1255.3288	1268.3489	1294.277	1307.5987	1367.2407	1384.1286	1478.1852	1490.2691	1501.949	1599.4567	3033.8546	3060.3324	3076.5238	3081.1585	3110.2389	3135.1843	3141.8184	3146.1377	3197.5697	3223.4776
C1CC23CC(OC12)C=C3	C1C[C@@]23C[C@@H](O[C@@H]12)C=C3	
InChI=1S/C8H10O/c1-3-8-4-2-7(8)9-6(1)5-8/h1,3,6-7H,2,4-5H2	InChI=1S/C8H10O/c1-3-8-4-2-7(8)9-6(1)5-8/h1,3,6-7H,2,4-5H2/t6-,7-,8-/m0/s1
