16
gdb 23424	3.47575	1.30283	1.06499	0.7988	68.52	-0.2553	-0.0169	0.2384	1104.0153	0.124573	-474.95343	-474.945784	-474.94484	-474.986019	28.574	
O	-0.1903268625	 1.3038801186	-0.1442211016	-0.386173
N	-0.0153433916	-0.0812456829	-0.0341072812	-0.214084
C	-1.1327311124	-0.682330038	 0.0325347496	 0.397859
C	-2.5307204677	-0.1145290016	 0.0866579097	-0.178
O	-3.3085519601	-1.1049080034	 0.7623428864	-0.272494
C	-2.7022857502	-2.3750734679	 0.6238301714	 0.07262
C	-2.9018108648	-3.0942425111	-0.7267685474	-0.104442
O	-1.5414399452	-2.8043271032	-1.1270418336	-0.289986
C	-1.2428324366	-2.1726686301	 0.1457951034	-0.023221
H	 0.7166901575	 1.6293057057	-0.1456346947	 0.312481
H	-2.5784673863	 0.8195327481	 0.651481755	 0.142509
H	-2.9162087776	 0.0775501002	-0.9260550162	 0.126119
H	-2.9041567382	-2.9514300059	 1.527169099	 0.100919
H	-3.0820013435	-4.17403055	-0.6620970398	 0.107309
H	-3.6453337716	-2.6357683674	-1.3884336731	 0.11309
H	-0.4062368292	-2.6479914211	 0.661551263	 0.095494
77.4902	134.8311	176.7667	222.7771	362.571	390.1837	420.2224	467.2121	585.8644	670.6071	692.5984	806.1583	853.5735	864.2469	911.6883	956.7532	982.8301	1015.1123	1017.4607	1032.0545	1059.6099	1129.9431	1165.3622	1207.9627	1230.7133	1242.2073	1254.8437	1296.1109	1328.3485	1343.5226	1373.6639	1414.5528	1498.0889	1512.3648	1766.5166	2994.7612	3022.8334	3074.7301	3097.3026	3100.74	3113.2852	3812.919
ON=C1COC2COC12	ON=C1CO[C@H]2CO[C@@H]12	
InChI=1S/C5H7NO3/c7-6-3-1-8-4-2-9-5(3)4/h4-5,7H,1-2H2	InChI=1S/C5H7NO3/c7-6-3-1-8-4-2-9-5(3)4/h4-5,7H,1-2H2/t4-,5-/m0/s1
