19
gdb 35791	3.5897	1.14917	0.96886	5.2576	79.2	-0.257	0.0418	0.2987	1220.9629	0.162875	-382.081861	-382.074086	-382.073142	-382.114242	30.392	
N	 0.1094071412	-1.1892892049	 0.0998024773	-0.32669
C	 0.0481470525	-0.0352266285	 0.0719313233	 0.261632
C	-0.0228261149	 1.4262756331	 0.045139905	-0.142908
C	-0.7722149207	 1.9807447275	 1.2778780913	-0.204929
C	-1.0235251197	 3.4842471377	 1.1024676965	-0.228336
C	 0.2414635689	 4.2433359444	 0.7594152718	-0.009314
N	 1.4184193232	 3.9465358216	 1.5876527028	-0.330437
C	 1.4142955016	 3.536251074	 0.169322771	-0.053574
C	 1.3969858431	 2.0356941842	-0.0866676062	-0.201632
H	-0.6012943231	 1.700330575	-0.8478833823	 0.119677
H	-1.7215503992	 1.4531821641	 1.4039673812	 0.115119
H	-0.1723516701	 1.8009735066	 2.174716238	 0.136817
H	-1.7545827742	 3.6420486395	 0.2981847876	 0.101078
H	-1.4656736058	 3.8967483074	 2.0167652698	 0.109172
H	 0.0889870673	 5.2782338055	 0.4581895729	 0.084019
H	 1.9845112464	 4.7804647036	 1.7155981077	 0.23314
H	 2.0414795579	 4.109895329	-0.5088853374	 0.089044
H	 2.0659443444	 1.5465381088	 0.6281740035	 0.133138
H	 1.783876161	 1.8217551814	-1.0874896337	 0.114985
85.9116	153.9602	189.7407	293.0198	346.2127	358.5401	409.9436	517.7623	535.26	562.7499	638.1171	772.0232	783.4075	829.7234	874.7766	899.8877	949.9861	955.3481	989.4308	1015.2393	1036.7504	1078.5544	1087.0241	1139.2472	1168.3056	1179.5744	1207.7118	1245.1692	1265.0153	1293.3111	1318.6084	1324.6821	1356.5455	1378.3316	1392.4869	1404.018	1460.9938	1480.0927	1482.8205	1495.3006	2355.8062	3014.7614	3020.0036	3052.4481	3057.8183	3067.7928	3096.2573	3110.1667	3118.7108	3134.2185	3510.2614
N#CC1CCC2NC2C1	N#C[C@H]1CC[C@H]2N[C@H]2C1	
InChI=1S/C7H10N2/c8-4-5-1-2-6-7(3-5)9-6/h5-7,9H,1-3H2	InChI=1S/C7H10N2/c8-4-5-1-2-6-7(3-5)9-6/h5-7,9H,1-3H2/t5-,6+,7-/m0/s1
