19
gdb 108489	2.25773	1.59658	1.29575	3.3645	70.4	-0.2439	0.0445	0.2884	1067.0965	0.159146	-460.120649	-460.112086	-460.111142	-460.154217	32.553	
O	 0.0562072138	 1.4280583974	-0.1394596165	-0.412224
C	 0.0954954675	 0.0146994874	-0.0759730408	-0.164167
C	-1.2958224174	-0.5638358642	-0.0791661281	 0.390587
O	-2.0629881588	-0.0896457495	 1.070423857	-0.355452
C	-2.3535733778	-1.456792562	 1.482742808	-0.087722
C	-1.7202754819	-2.0346975526	 0.2095356053	-0.148761
C	-2.6563142699	-1.998838801	-1.0284312355	-0.276117
C	-2.2115781945	-0.5245840222	-1.3386829874	 0.109792
O	-3.1888594195	 0.4732121638	-1.3395239812	-0.435617
H	-0.5130477175	 1.7181741176	 0.5830697003	 0.294852
H	 0.6482194983	-0.3285569758	-0.9576032199	 0.110718
H	 0.6371900028	-0.3373351907	 0.8176195235	 0.086665
H	-1.8255880024	-1.699712744	 2.4123500535	 0.111452
H	-3.4279834303	-1.6225235385	 1.6228331167	 0.109689
H	-1.0217584518	-2.8632240098	 0.3147905427	 0.081853
H	-2.3865222761	-2.7124672994	-1.8102351935	 0.106452
H	-3.7222354554	-2.1072504134	-0.8095057383	 0.103147
H	-1.6478349914	-0.4421560223	-2.2728438475	 0.090174
H	-3.3767961379	 0.6493945392	-0.4060910584	 0.284679
60.1519	87.4267	153.7206	251.3653	308.3029	324.4258	394.9347	415.5331	433.9456	503.685	546.8121	657.7154	695.4342	789.3766	835.5936	900.62	905.7293	946.0175	982.3107	1026.4546	1041.562	1057.6758	1067.0279	1117.0381	1117.9191	1147.077	1158.5566	1167.9834	1197.7137	1245.7449	1258.4687	1300.5989	1314.0674	1334.2043	1348.7937	1378.4915	1430.5489	1444.4265	1472.0141	1495.0883	1523.9426	2967.9408	3022.1249	3058.9638	3064.7655	3070.4738	3071.5353	3113.9941	3126.9978	3725.781	3795.8538
OCC12OCC1CC2O	OC[C@]12OC[C@H]1C[C@H]2O	
InChI=1S/C6H10O3/c7-3-6-4(2-9-6)1-5(6)8/h4-5,7-8H,1-3H2	InChI=1S/C6H10O3/c7-3-6-4(2-9-6)1-5(6)8/h4-5,7-8H,1-3H2/t4-,5-,6+/m1/s1
