19
gdb 111588	3.23093	1.39542	1.28096	2.2125	73.5	-0.2406	0.0568	0.2973	1050.9311	0.160655	-422.966507	-422.958955	-422.95801	-422.998916	29.733	
O	-0.0487208975	 1.5250942059	 0.1015452772	-0.424993
C	 0.0457828184	 0.1264112794	-0.1439693845	-0.09742
C	-1.3041795666	-0.561269046	-0.0157516879	 0.001879
C	-1.4395442245	-2.1134535299	-0.1112743799	-0.096961
C	-0.4619638049	-2.8902303181	 0.8165692265	-0.246964
C	-1.3045177696	-2.4598052842	 2.0366392974	 0.11335
O	-1.0685488565	-1.0768773176	 2.3987753357	-0.313044
C	-1.9838372771	-0.6126515954	 1.3766042419	 0.073398
C	-2.4687360267	-2.0570155685	 1.0860661315	-0.092951
H	-0.1748284142	 1.6404401941	 1.048730301	 0.289559
H	 0.4288733909	 0.0209802414	-1.1653513214	 0.105403
H	 0.7728255924	-0.3404787049	 0.532686784	 0.098971
H	-2.0128134845	-0.1042815446	-0.7175168386	 0.080693
H	-1.6537119256	-2.5392017402	-1.0911653439	 0.070458
H	-0.569345947	-3.9680266282	 0.6522532737	 0.103135
H	 0.6005883046	-2.6346763105	 0.8186873342	 0.105169
H	-1.3621595602	-3.1047213628	 2.9156655455	 0.077962
H	-2.5885863498	 0.2286971499	 1.7217029608	 0.076257
H	-3.4901591517	-2.4265156897	 1.095838227	 0.0761
56.5224	160.9254	184.0543	306.4371	323.7023	396.3921	461.421	575.4002	644.613	697.333	776.7606	828.4122	840.034	848.0396	867.5045	911.159	956.4875	977.6919	983.1957	1012.9146	1038.7884	1051.5764	1083.9813	1115.1135	1122.7234	1135.3514	1153.7529	1182.093	1184.6489	1207.9429	1239.8521	1271.7922	1283.1591	1296.0636	1319.5346	1346.8597	1351.9452	1403.332	1414.6023	1471.2023	1497.9813	3019.9004	3037.0455	3045.4115	3071.0887	3083.5767	3089.7771	3104.7481	3109.9135	3156.5712	3819.8753
OCC1C2CC3OC1C23	OC[C@H]1[C@H]2C[C@H]3O[C@@H]1[C@@H]23	
InChI=1S/C7H10O2/c8-2-4-3-1-5-6(3)7(4)9-5/h3-8H,1-2H2	InChI=1S/C7H10O2/c8-2-4-3-1-5-6(3)7(4)9-5/h3-8H,1-2H2/t3-,4+,5-,6+,7+/m1/s1
