16
gdb 53876	4.17601	0.7464	0.66848	1.994	68.95	-0.2539	-0.0743	0.1797	1621.8758	0.120746	-475.078881	-475.068914	-475.067969	-475.11567	33.276	
C	-0.0965247902	 1.4045419459	-0.4176994997	-0.47221
C	 0.0043257833	-0.0239135392	 0.0375125726	 0.313658
O	 1.0401045493	-0.5920740706	 0.3009188231	-0.299894
C	-1.3399149965	-0.7793532742	 0.1648759752	 0.303657
O	-2.4060503408	-0.2484389182	-0.0895351274	-0.360801
N	-1.1720594032	-2.0567316147	 0.5850134803	-0.315859
C	-2.2763988948	-2.9601556471	 0.8013199312	-0.246701
C	-2.330029719	-4.0808015836	-0.231517408	 0.154213
O	-2.7432215889	-5.1841441998	 0.0009640876	-0.224312
H	 0.8965695627	 1.8501604818	-0.4719050674	 0.143266
H	-0.5935565972	 1.4474315702	-1.3921507587	 0.163546
H	-0.7365510249	 1.9669219563	 0.2696235263	 0.163963
H	-0.2182115252	-2.3377074005	 0.7664174822	 0.272656
H	-2.2585133162	-3.3989985239	 1.8036248162	 0.141756
H	-3.1937334613	-2.3660632733	 0.6983795193	 0.173975
H	-1.9581885973	-3.7846262491	-1.2388527428	 0.089085
44.1843	61.2314	75.2005	93.4461	117.3487	194.9772	293.1184	316.086	358.8058	442.62	500.8462	544.1832	610.607	631.0443	731.9719	740.7294	870.0997	954.3361	1034.4537	1045.5107	1070.559	1120.2179	1188.7234	1257.8603	1284.5911	1340.5243	1387.1058	1410.5946	1445.5859	1449.8147	1457.3552	1544.8909	1783.5578	1807.786	1843.2423	2880.8165	3039.2351	3051.277	3097.4709	3111.8706	3165.7795	3601.5144
CC(=O)C(=O)NCC=O	CC(=O)C(=O)NCC=O	
InChI=1S/C5H7NO3/c1-4(8)5(9)6-2-3-7/h3H,2H2,1H3,(H,6,9)	InChI=1S/C5H7NO3/c1-4(8)5(9)6-2-3-7/h3H,2H2,1H3,(H,6,9)
