16
gdb 22329	3.36374	1.11429	0.84572	2.4877	81.55	-0.2404	-0.0708	0.1696	1298.1742	0.12298	-437.894061	-437.885353	-437.884409	-437.927816	31.67	
C	-0.0321943541	 1.5179825054	 0.0195211361	-0.49337
C	 0.0005506388	 0.0311833946	-0.0750626602	 0.202576
C	-0.0189237228	-0.759982988	-1.1691911297	-0.241398
C	 0.0278845125	-2.1752433904	-0.8087533761	 0.369866
C	 0.0843930806	-2.2857457162	 0.6956883088	-0.422195
C	 0.0642475405	-0.8206632883	 1.1484285324	 0.32819
O	 0.0943032723	-0.4176684194	 2.2880094344	-0.319036
N	 0.0254754006	-3.2078830257	-1.5654971309	-0.219716
O	-0.031432099	-2.8604312363	-2.920122984	-0.387323
H	 0.8535019307	 1.8857086847	 0.5494666771	 0.150675
H	-0.0781850564	 1.9897239831	-0.9644159867	 0.128132
H	-0.8953658172	 1.8432577637	 0.6108473935	 0.15069
H	-0.0633036726	-0.4275084468	-2.1975410676	 0.134764
H	-0.7684265771	-2.8284149805	 1.1144881799	 0.153087
H	 0.9914050681	-2.7839810756	 1.0512061324	 0.153109
H	-0.0263102448	-3.7211726543	-3.3519815892	 0.311949
75.5791	89.1298	173.2674	195.2884	268.7559	277.0057	342.0413	402.6634	416.6753	538.4136	539.4918	608.3857	661.603	687.784	754.8918	880.402	911.6968	964.6832	987.4204	995.0334	1063.2735	1075.4091	1144.0198	1197.3807	1244.988	1275.2714	1339.4208	1404.5004	1414.113	1437.969	1469.3094	1476.7622	1658.0679	1719.1486	1812.0877	3037.2293	3065.1492	3089.5757	3104.9088	3129.2754	3232.3503	3821.5039
CC1=CC(CC1=O)=NO	CC1=CC(=NO)CC1=O	
InChI=1S/C6H7NO2/c1-4-2-5(7-9)3-6(4)8/h2,9H,3H2,1H3	InChI=1S/C6H7NO2/c1-4-2-5(7-9)3-6(4)8/h2,9H,3H2,1H3
