23
gdb 115004	2.20592	1.36477	1.05169	1.3025	86.53	-0.2416	0.024	0.2656	1283.3332	0.204788	-388.310239	-388.300401	-388.299457	-388.344345	38.05	
C	-0.0856190155	 1.7290189162	-0.3855991242	-0.388555
C	-0.2768457879	 0.208206066	-0.3913114378	-0.206055
C	 0.861403833	-0.5391364728	-1.0875480641	 0.031507
C	 2.2552835706	-0.4231493989	-0.4208479388	-0.278748
C	 2.9400285501	-1.7001544442	-0.8446922421	-0.078102
C	 2.0765888095	-2.5826380731	-1.3397029878	-0.113697
C	 0.6484538629	-2.0667753499	-1.3121846673	 0.329136
C	-0.1619079741	-2.7791663282	-0.2192410515	-0.438933
O	-0.0244106823	-2.2027384566	-2.5695760308	-0.477566
H	 0.8186382385	 2.0197964539	 0.1595423721	 0.115786
H	 0.0037720441	 2.1186369889	-1.4058443686	 0.115933
H	-0.9334499691	 2.2320163556	 0.0898919851	 0.109
H	-0.3825963656	-0.146582814	 0.6420344553	 0.089963
H	-1.2168709198	-0.0338551611	-0.9022376272	 0.104932
H	 0.9559956619	-0.1391029083	-2.1046652163	 0.089969
H	 2.7993602913	 0.4756754277	-0.7313399662	 0.104021
H	 2.1733413933	-0.3672877703	 0.6756022093	 0.100751
H	 4.0061030774	-1.8623655322	-0.7249179338	 0.09157
H	 2.3137597199	-3.5837488405	-1.686675888	 0.082753
H	 0.2754008508	-2.6222662971	 0.7712694915	 0.121614
H	-1.1968824634	-2.4256861	-0.2074206126	 0.122832
H	-0.1724912117	-3.8611094456	-0.4017276917	 0.100029
H	-0.2909639739	-3.1229542257	-2.6678692644	 0.271858
88.8656	112.8194	180.6278	221.0988	249.6669	261.9936	271.545	292.5016	308.9373	373.2043	450.2333	498.5416	528.3307	584.3856	703.8928	751.5456	774.0361	799.0026	889.0282	944.0591	947.9423	963.6314	968.2041	982.4286	997.1576	1046.8031	1085.4762	1102.7587	1133.3464	1143.0526	1157.3948	1199.8852	1211.8768	1289.2408	1309.9662	1322.5454	1339.2326	1359.8517	1379.0453	1396.7578	1404.6685	1413.818	1483.4482	1489.3481	1491.9723	1498.4226	1501.6161	1508.3702	1687.7081	2993.1613	3017.4228	3024.445	3030.379	3031.709	3053.7122	3060.8682	3090.2234	3098.5872	3101.7322	3117.4842	3168.8371	3196.2089	3806.5327
CCC1CC=CC1(C)O	CC[C@H]1CC=C[C@]1(C)O	
InChI=1S/C8H14O/c1-3-7-5-4-6-8(7,2)9/h4,6-7,9H,3,5H2,1-2H3	InChI=1S/C8H14O/c1-3-7-5-4-6-8(7,2)9/h4,6-7,9H,3,5H2,1-2H3/t7-,8-/m0/s1
