23
gdb 58231	2.56352	1.18342	1.06628	1.8028	81.16	-0.2593	0.077	0.3363	1296.7479	0.203183	-425.417121	-425.406683	-425.405739	-425.451925	39.577	
C	 0.0848141519	 1.6373467643	-0.0166537171	-0.40475
C	 0.0449386568	 0.1020622317	-0.0455335067	 0.023945
C	 0.7502731592	-0.4410258857	-1.2956752677	-0.397195
C	 0.6694533003	-0.5284036261	 1.2228968299	 0.056441
O	 2.0373652709	-0.1760829064	 1.3532207136	-0.443144
C	-0.0779463291	-0.2019887877	 2.5249431148	 0.382617
C	-1.5819815376	-0.3523116118	 2.5360864643	-0.474857
C	 0.6614061482	-0.3082280668	 3.7912354165	-0.228251
O	 0.4275243268	 0.9766510884	 3.1859135956	-0.289215
H	 1.1196746023	 1.9950838862	-0.0104549349	 0.118547
H	-0.3988742342	 2.0497607257	-0.9075869935	 0.110322
H	-0.4162868826	 2.0517229778	 0.8629416652	 0.126389
H	-1.004163914	-0.2191055822	-0.0853607742	 0.070102
H	 1.8169440855	-0.2012678689	-1.2644661356	 0.1327
H	 0.6530827742	-1.5299037941	-1.3675649389	 0.104917
H	 0.3253148699	-0.0053725271	-2.2055561976	 0.105073
H	 0.6475462792	-1.6202759098	 1.0993447563	 0.084182
H	 2.0407205936	 0.6741917762	 1.8153168675	 0.292416
H	-1.8682405566	-1.3655957525	 2.2334622447	 0.125457
H	-1.9770098804	-0.1681034348	 3.5380351513	 0.126572
H	-2.0598162653	 0.3515175521	 1.8493330357	 0.136523
H	 0.1122531119	-0.4836806715	 4.7147057276	 0.11274
H	 1.6972902091	-0.6359550769	 3.7830795033	 0.12847
83.7475	88.3241	176.8184	207.1396	216.665	237.3904	255.9778	299.1284	317.4307	347.8214	376.5874	392.0841	456.6683	518.8388	551.3483	637.7724	741.8941	805.0386	857.9486	894.1055	929.2543	933.8245	969.8114	979.8617	1011.669	1043.5802	1082.8085	1124.0832	1137.0104	1152.658	1175.9291	1204.111	1248.1864	1284.1789	1314.4169	1356.9587	1371.399	1385.7635	1398.7998	1417.3015	1421.6869	1437.6491	1483.4746	1485.5111	1496.3528	1498.3069	1504.8952	1514.7989	1519.3226	3010.0516	3022.1387	3032.491	3038.2604	3041.5478	3096.5	3097.6547	3102.4818	3108.4621	3111.9226	3117.8193	3124.4045	3194.7935	3742.3405
CC(C)C(O)C1(C)CO1	CC(C)[C@@H](O)[C@@]1(C)CO1	
InChI=1S/C7H14O2/c1-5(2)6(8)7(3)4-9-7/h5-6,8H,4H2,1-3H3	InChI=1S/C7H14O2/c1-5(2)6(8)7(3)4-9-7/h5-6,8H,4H2,1-3H3/t6-,7-/m1/s1
