18
gdb 87465	2.86151	1.41267	1.28694	3.1068	72.84	-0.2372	0.0594	0.2965	1052.0211	0.146739	-438.975432	-438.967249	-438.966305	-439.007751	32.323	
O	-0.0465759035	 1.3612997646	-0.0748327784	-0.436505
C	 0.0467028319	-0.0312478838	-0.0095320702	 0.0146
C	-0.4024848901	-0.7851696977	 1.2493758104	-0.436153
C	-1.1938840021	-0.8360823741	-0.0145618475	 0.358058
N	-2.5609237986	-0.1960148597	-0.2087063901	-0.193704
C	-2.418206771	-0.6522354728	-1.6719263805	-0.238593
C	-1.8991617711	-1.8793362114	-0.8695258994	 0.25459
O	-1.3290577437	-3.061659752	-1.2899795642	-0.464486
C	-3.1125386927	-1.6061336888	 0.0681897219	-0.233254
H	-0.9826993799	 1.585824153	 0.0053052224	 0.29563
H	 0.9338244063	-0.3937654821	-0.5203197524	 0.112946
H	 0.1640968567	-1.6622317347	 1.5473800708	 0.123151
H	-0.7930953133	-0.1872521743	 2.0677742008	 0.123822
H	-3.3790350695	-0.7399614059	-2.1868623624	 0.097632
H	-1.6945007327	-0.0660819255	-2.2407759939	 0.121063
H	-1.9705001899	-3.5506875739	-1.8169609702	 0.287501
H	-3.0300977981	-1.906941535	 1.1139294876	 0.11537
H	-4.1203453488	-1.7560008158	-0.3294006747	 0.098332
129.8453	154.144	201.5353	240.406	289.8616	348.6042	385.3887	440.2249	484.6299	513.6016	630.5693	651.5333	683.0803	779.1909	814.995	825.4058	894.0923	949.767	957.8403	984.3664	1006.5122	1026.0062	1076.7308	1084.05	1095.8664	1100.2454	1135.0721	1156.9471	1172.4608	1188.1263	1246.3571	1290.3295	1292.344	1330.5969	1408.7103	1428.729	1497.9738	1508.6932	1551.135	3054.8404	3060.9224	3119.0103	3136.9406	3139.269	3156.5185	3210.3915	3767.7035	3809.4225
OC1CC11N2CC1(O)C2	O[C@H]1C[C@]21N1C[C@]2(O)C1	
InChI=1S/C6H9NO2/c8-4-1-6(4)5(9)2-7(6)3-5/h4,8-9H,1-3H2	InChI=1S/C6H9NO2/c8-4-1-6(4)5(9)2-7(6)3-5/h4,8-9H,1-3H2/t4-,6+/m0/s1
