21
gdb 40440	3.38341	1.21206	1.10067	0.2943	81.97	-0.2311	0.0768	0.3079	1199.6963	0.185837	-383.234697	-383.226717	-383.225773	-383.267421	31.619	
C	-0.0133269674	 1.5068527379	-0.0428170217	-0.246195
N	 1.248803648	 0.747359301	-0.0249331053	-0.323616
C	-0.0319856659	 0.024112281	 0.0577230045	-0.089098
C	-0.3182796248	-0.7146605452	 1.3256161499	 0.382531
C	 0.0562276135	-0.1030636538	 2.6700822439	-0.299617
C	 0.0007514802	-1.2760233897	 3.6773582361	-0.245402
C	 0.2840079129	-2.5476181623	 2.8416003596	-0.225321
C	-0.190374413	-2.1976580358	 1.441557639	-0.052054
N	-1.5156090387	-1.5763413587	 1.280393445	-0.387273
H	-0.1856580227	 2.1177730272	 0.8386678984	 0.11623
H	-0.3442264022	 1.9580054799	-0.974615716	 0.110899
H	 1.6322676145	 0.6775397148	-0.9631571997	 0.23239
H	-0.3713536629	-0.5102948014	-0.8271184401	 0.084411
H	 1.0691060237	 0.3044845138	 2.5858413563	 0.129968
H	-0.604901994	 0.7212267011	 2.9608068145	 0.095029
H	 0.7111663647	-1.1514379802	 4.4981188907	 0.104417
H	-0.9901619021	-1.3371333722	 4.1394006156	 0.101209
H	 1.3594453177	-2.7596859301	 2.8053455251	 0.10722
H	-0.2045302509	-3.4382740506	 3.252716333	 0.099452
H	 0.1230232198	-2.8199826567	 0.6074924976	 0.081971
H	-2.0240685902	-1.55182483	 2.1610484236	 0.22285
64.1689	154.8917	186.0392	225.1817	298.93	374.4997	416.7267	518.6457	567.7339	651.6822	694.3029	801.7737	847.2715	860.9142	874.2782	894.8662	897.9188	927.2172	938.5504	960.1009	977.901	1024.3582	1046.3873	1057.7252	1091.7541	1110.3525	1117.5723	1150.618	1182.1138	1188.533	1218.9602	1247.5244	1261.8576	1285.4021	1294.3078	1304.505	1321.7415	1339.8631	1360.0225	1398.8205	1471.8841	1489.543	1497.8781	1511.3417	1515.757	3031.3709	3037.5472	3046.7785	3069.5582	3081.8983	3102.1342	3109.3383	3130.7656	3143.647	3193.2585	3494.1196	3509.9993
C1NC1C12CCCC1N2	C1N[C@H]1[C@]12CCC[C@H]1N2	
InChI=1S/C7H12N2/c1-2-5-7(3-1,9-5)6-4-8-6/h5-6,8-9H,1-4H2	InChI=1S/C7H12N2/c1-2-5-7(3-1,9-5)6-4-8-6/h5-6,8-9H,1-4H2/t5-,6-,7+/m1/s1
