16
gdb 31887	5.69943	0.8715	0.78206	4.3175	81.48	-0.2421	-0.03	0.2121	1424.7178	0.12621	-396.997724	-396.989303	-396.988359	-397.032933	29.989	
C	 0.0842580325	 1.5709851839	 0.1079160382	-0.368759
C	 0.1430273533	 0.0420951976	-0.0083238519	-0.304458
C	 0.7946874119	-0.414537607	-1.2764921031	 0.372843
N	 0.587798117	 0.0925702663	-2.4815527131	-0.287868
C	 1.3581350338	-0.6342972052	-3.3381153506	-0.160005
C	 2.0561245376	-1.609180514	-2.6542656884	 0.196529
N	 1.6778057639	-1.4465514004	-1.3297230894	-0.360687
C	 2.9710600705	-2.5929735388	-3.07638553	 0.200147
N	 3.7249239159	-3.406547262	-3.4146605876	-0.343914
H	 1.0890486177	 2.0010747252	 0.1506298048	 0.125789
H	-0.4257702204	 1.9964218331	-0.7587822554	 0.153339
H	-0.4545702889	 1.8642107592	 1.0129297401	 0.117237
H	 0.676672193	-0.3889576552	 0.846773246	 0.105713
H	-0.8756707854	-0.3654918488	 0.0283139116	 0.136711
H	 1.3864742878	-0.4344854219	-4.3981923835	 0.137246
H	 2.0075463199	-2.0005000819	-0.5555968476	 0.280137
8.4923	122.8812	141.3433	200.22	217.68	321.2936	391.0703	514.2753	551.7043	562.1705	583.4631	673.4543	679.4947	729.6123	797.8173	881.308	965.2551	1019.8815	1043.0307	1079.5517	1096.5222	1186.3927	1219.9908	1286.3742	1300.9039	1345.7371	1387.2759	1410.0004	1444.154	1479.4158	1494.2253	1501.5911	1520.995	1594.8089	2336.685	3024.3105	3050.292	3061.9631	3120.0602	3139.3683	3260.5386	3654.3363
CCC1=NC=C(N1)C#N	CCc1ncc([nH]1)C#N	
InChI=1S/C6H7N3/c1-2-6-8-4-5(3-7)9-6/h4H,2H2,1H3,(H,8,9)	InChI=1S/C6H7N3/c1-2-6-8-4-5(3-7)9-6/h4H,2H2,1H3,(H,8,9)
