26
gdb 101165	2.33022	1.06613	0.86651	1.3473	92.88	-0.21	0.0739	0.2839	1521.0044	0.238369	-369.591084	-369.579624	-369.578679	-369.627556	42.001	
C	-0.7315929537	 1.5434923371	-1.660005848	-0.392967
C	-0.588679069	 0.0190292008	-1.7142124992	-0.166453
C	 0.6542386201	-0.5419155672	-0.9912768465	 0.01425
C	 0.637981265	-0.2432942399	 0.5174353584	-0.399477
C	 0.7298854885	-2.0448006864	-1.2219326729	-0.001835
C	 1.3272628007	-2.6753358935	-2.4424612414	-0.010645
C	 1.9585871994	-1.8855162986	-3.570992943	-0.416508
N	 1.9556038531	-2.8464763807	-1.1284669307	-0.1196
C	 3.242262872	-2.2294727118	-0.8459744759	-0.315019
H	-0.8762947836	 1.9075214932	-0.6385477389	 0.119222
H	 0.15714809	 2.0395801447	-2.0668333962	 0.111683
H	-1.5927972675	 1.8738266031	-2.2493698932	 0.112214
H	-1.4870470026	-0.448699272	-1.2880183387	 0.093893
H	-0.5527607109	-0.2988404113	-2.7630191502	 0.098032
H	 1.5356832057	-0.0539994238	-1.423188079	 0.066726
H	 1.5181410177	-0.663460098	 1.0125423779	 0.119219
H	 0.6257195247	 0.8315463941	 0.7187137221	 0.112571
H	-0.2485291268	-0.6835076022	 0.9894453679	 0.113435
H	-0.1267438896	-2.5593502848	-0.7795010427	 0.077435
H	 0.8591336982	-3.5952540154	-2.7959146065	 0.081783
H	 2.3580030161	-0.9189619215	-3.2588661103	 0.119628
H	 2.7778284349	-2.4530927203	-4.0269093512	 0.120695
H	 1.2165170735	-1.6994111211	-4.3548890425	 0.121439
H	 3.3889105828	-1.2120983684	-1.2358248478	 0.098944
H	 3.3865923485	-2.1953435858	 0.2389324261	 0.12229
H	 4.0323794828	-2.8624860806	-1.2636255074	 0.119043
66.7491	79.3114	121.6318	162.4706	164.5818	187.7487	210.122	241.2464	256.552	280.8277	295.4829	387.5866	412.5203	476.5258	534.5266	564.0052	732.459	775.1908	782.5893	844.8513	863.1749	969.295	975.0832	998.9894	1004.9824	1046.9507	1053.8297	1106.1089	1134.558	1150.2984	1162.7669	1168.2849	1182.7298	1192.5749	1212.2921	1279.9838	1306.8818	1350.2817	1353.5344	1375.8279	1396.8381	1407.3338	1413.615	1416.9614	1439.1719	1460.808	1481.7877	1488.8876	1492.8966	1495.948	1497.9812	1504.4212	1505.8728	1509.9546	1511.1882	2994.2029	3013.1952	3030.3016	3033.1693	3034.3283	3038.1844	3054.7033	3062.2614	3066.4421	3084.3268	3088.2049	3092.3888	3096.6096	3100.0443	3106.8274	3115.0402	3132.7723
CCC(C)C1C(C)N1C	CC[C@@H](C)[C@H]1[C@@H](C)N1C	
InChI=1S/C8H17N/c1-5-6(2)8-7(3)9(8)4/h6-8H,5H2,1-4H3	InChI=1S/C8H17N/c1-5-6(2)8-7(3)9(8)4/h6-8H,5H2,1-4H3/t6-,7-,8+,9?/m1/s1
