22
gdb 88588	2.72504	1.06227	0.92633	2.1691	83.64	-0.2053	0.0756	0.2809	1383.9393	0.192252	-404.292421	-404.282205	-404.281261	-404.32833	37.591	
C	-0.2068006457	 1.3017172766	-0.421344679	-0.417094
C	 0.2663722115	-0.120033236	-0.2031144373	-0.007503
C	 1.2108655393	-0.8310208183	-1.1230994626	-0.016573
C	 1.7911933629	-0.1874409517	-2.3439725088	-0.035032
C	 3.0002598433	-0.8234205066	-3.0190798999	-0.338716
C	 1.6495534229	-0.8660014869	-3.6814947855	 0.088917
O	 0.9324734568	-2.0660142416	-3.7177796416	-0.413273
N	 1.6198201512	-0.4687390384	 0.2426107055	-0.11992
C	 2.6163029751	 0.5690707799	 0.4573062257	-0.307178
H	-0.4534994094	 1.7755815982	 0.535393207	 0.120532
H	 0.5267998635	 1.9357333382	-0.9226850137	 0.117479
H	-1.1161795188	 1.3008161045	-1.0318937884	 0.12436
H	-0.4943734331	-0.7373100882	 0.2765083775	 0.084131
H	 1.0674175523	-1.901103569	-1.2516141711	 0.095457
H	 1.7534057669	 0.8946980751	-2.3855068767	 0.086784
H	 3.7738769768	-0.1840385588	-3.4303610422	 0.110198
H	 3.3559523691	-1.7544956525	-2.5894223199	 0.119205
H	 1.4895617142	-0.2201123551	-4.5450447866	 0.086368
H	 1.3898154606	-2.6664962633	-4.3151582629	 0.289357
H	 2.6095051634	 1.4032903023	-0.2587141579	 0.094042
H	 2.4793484624	 0.9872606687	 1.4601608851	 0.117516
H	 3.6104332548	 0.1117344129	 0.4202307032	 0.120943
24.3404	110.4862	142.1122	152.4165	182.7276	211.3762	264.8551	287.2953	300.9021	413.2193	465.7798	483.9189	516.3787	604.336	722.8988	776.6364	779.0041	843.0092	868.6897	942.9722	980.5962	1016.7576	1022.9237	1045.9491	1054.2702	1114.1938	1131.5816	1140.8945	1156.6057	1170.4952	1176.2039	1193.343	1212.1472	1240.8422	1294.6585	1319.6633	1347.3251	1400.8596	1414.6136	1417.9789	1446.961	1463.158	1483.6459	1488.7841	1492.0582	1505.4116	1509.0733	2995.0086	3036.2891	3063.6043	3085.5255	3090.8263	3094.0219	3094.9191	3127.3584	3128.2697	3135.7838	3174.3587	3218.1407	3810.5376
CC1C(C2CC2O)N1C	C[C@H]1[C@@H]([C@H]2C[C@H]2O)N1C	
InChI=1S/C7H13NO/c1-4-7(8(4)2)5-3-6(5)9/h4-7,9H,3H2,1-2H3	InChI=1S/C7H13NO/c1-4-7(8(4)2)5-3-6(5)9/h4-7,9H,3H2,1-2H3/t4-,5-,6+,7-,8?/m0/s1
