20
gdb 89028	4.15021	0.73238	0.65815	2.8588	77.34	-0.2523	0.0204	0.2727	1738.3515	0.168801	-440.299693	-440.289344	-440.2884	-440.337124	35.652	
C	 0.1240143859	 1.4831067229	-0.2939776144	-0.395581
C	 0.0802267158	 0.0135499583	 0.0551451214	 0.000013
N	 1.3644059943	-0.6944047965	 0.1779206569	-0.333057
C	 0.5007033434	-0.5634743146	 1.3629287416	-0.036343
C	 1.0255323908	 0.2612297966	 2.502510389	-0.062574
O	 1.8045420746	-0.6178151297	 3.3395400441	-0.24438
C	 2.3654156899	-0.0439549814	 4.4241882074	 0.433142
C	 3.1663409428	-1.0560497333	 5.2084833529	-0.477997
O	 2.2340251287	 1.1202373114	 4.7069771042	-0.351492
H	 0.977193213	 1.9804895393	 0.171589097	 0.131845
H	 0.2167323497	 1.6117222215	-1.3776134794	 0.12268
H	-0.7931101132	 1.9888530304	 0.0268171854	 0.118741
H	-0.7302190328	-0.5280984325	-0.4325218726	 0.08383
H	 1.3040401205	-1.6324230294	-0.2074956455	 0.232118
H	-0.0394286135	-1.4511318352	 1.689537054	 0.088257
H	 1.6593297768	 1.0785217102	 2.1534162263	 0.127913
H	 0.2116688231	 0.6892323696	 3.0978061651	 0.11797
H	 3.977097272	-1.4497622936	 4.5886573715	 0.151558
H	 3.5774915347	-0.5818697966	 6.0987446128	 0.14697
H	 2.5335634834	-1.9018170375	 5.4912791824	 0.146387
35.0766	45.105	61.142	100.1913	174.601	181.9704	219.1659	267.5101	363.9335	411.1845	459.0047	528.2326	607.3561	643.2976	771.2422	831.2719	879.4103	932.0374	957.7884	980.6674	997.3352	1040.379	1058.7887	1064.1435	1066.8772	1100.9857	1159.3211	1213.7825	1253.7763	1268.2031	1277.2089	1283.6035	1365.9356	1394.5298	1410.8222	1433.9064	1469.7643	1474.0001	1476.2402	1491.6409	1497.9177	1508.512	1823.0257	3037.4103	3052.1865	3056.7031	3096.8316	3098.6266	3111.448	3121.5751	3122.681	3136.256	3168.3503	3512.2588
CC1NC1COC(C)=O	C[C@H]1N[C@H]1COC(=O)C	
InChI=1S/C6H11NO2/c1-4-6(7-4)3-9-5(2)8/h4,6-7H,3H2,1-2H3	InChI=1S/C6H11NO2/c1-4-6(7-4)3-9-5(2)8/h4,6-7H,3H2,1-2H3/t4-,6+/m1/s1
