20
gdb 23151	2.12838	1.2151	0.85512	1.0943	80.78	-0.235	0.0064	0.2414	1398.0579	0.169038	-440.215289	-440.205315	-440.204371	-440.250812	35.863	
C	 0.1184680828	 1.1160069657	-0.4912919519	-0.224704
O	-0.0470387756	-0.2575042133	-0.7580443011	-0.231654
C	 1.0785468818	-1.0254439302	-0.3690571668	-0.15557
C	 0.844949371	-2.4798122291	-0.68882234	 0.354582
N	 0.9962574608	-3.2552970923	 0.3217265965	-0.190344
O	 0.8324185147	-4.60837051	-0.0068589671	-0.396925
C	 0.5445524882	-2.937711083	-2.064665708	-0.078326
C	-0.6840673387	-2.4419140518	-2.8190595715	-0.253402
C	 0.6832524075	-2.0316602749	-3.2711717627	-0.278949
H	 0.2599480074	 1.3056995196	 0.5838553828	 0.110006
H	 0.9826704857	 1.535886386	-1.0302355342	 0.104745
H	-0.7885947861	 1.6251801929	-0.8249145244	 0.130036
H	 1.9750964783	-0.6670724427	-0.9053919798	 0.095427
H	 1.2701496764	-0.9313051331	 0.708439802	 0.110564
H	 1.0011013696	-5.040219148	 0.8368475829	 0.306076
H	 0.7827989679	-3.9819562581	-2.2200964511	 0.111548
H	-1.230263578	-3.1803416492	-3.3951137119	 0.113078
H	-1.2892989914	-1.6906268282	-2.3298723995	 0.140086
H	 0.9673719184	-0.9996101362	-3.1058146778	 0.121769
H	 1.0956698793	-2.4737194941	-4.1713623463	 0.111956
63.2637	77.4503	97.9317	147.1551	213.0768	232.3982	262.2889	306.7821	344.7209	377.3679	422.7652	455.6208	623.774	664.3345	756.8365	807.8171	837.1127	895.4719	950.4905	963.829	996.8817	1040.6477	1063.1495	1088.5536	1090.4114	1144.0911	1149.9348	1184.305	1202.6881	1222.7842	1224.3342	1257.0727	1305.3833	1371.0624	1399.365	1435.3712	1458.695	1479.0647	1484.6254	1493.6639	1497.869	1519.1638	1712.5856	2947.3489	2973.1459	3018.8583	3030.977	3118.4784	3141.7087	3148.3054	3196.0829	3227.8508	3250.5997	3823.4681
COCC(=NO)C1CC1	COCC(=NO)C1CC1	
InChI=1S/C6H11NO2/c1-9-4-6(7-8)5-2-3-5/h5,8H,2-4H2,1H3	InChI=1S/C6H11NO2/c1-9-4-6(7-8)5-2-3-5/h5,8H,2-4H2,1H3
