18
gdb 12792	3.51888	2.11448	1.64189	0.9245	72.91	-0.2169	0.0166	0.2335	848.1193	0.154468	-347.796356	-347.789167	-347.788222	-347.82721	28.692	
C	-0.0074688889	 1.4563633114	-0.06219469	-0.445143
C	-0.0441856226	-0.0453153256	 0.0621244154	 0.440204
C	-0.8386052566	-0.6888650497	 1.1614865304	-0.356121
C	 0.6992099514	-0.735903233	 1.1862419838	-0.140498
C	 1.366868209	-2.0058857982	 0.8240529292	-0.042871
C	 1.1019133077	-2.6171192148	-0.3310388041	-0.103526
C	 0.1366941794	-2.0220422843	-1.3194521601	-0.13192
O	 0.0293573754	-0.6070864044	-1.2211837762	-0.300029
H	 0.9044747269	 1.7728040911	-0.577723619	 0.126365
H	-0.8663050702	 1.8140025936	-0.6394331426	 0.124704
H	-0.0328262884	 1.928257184	 0.9235312278	 0.113464
H	-1.3403792223	-0.0408024366	 1.8723177108	 0.111882
H	-1.3452601325	-1.6290176175	 0.9759649798	 0.120002
H	 1.1962797634	-0.1150252235	 1.9245451354	 0.084657
H	 2.0842286776	-2.4249184465	 1.5237798949	 0.090709
H	 1.5745472851	-3.5569599763	-0.5983433888	 0.092455
H	 0.470193535	-2.2123761463	-2.3455508368	 0.115518
H	-0.8601931093	-2.4874111133	-1.2249575799	 0.100147
172.3608	184.2301	214.9958	308.3098	362.0871	416.5673	451.056	530.4307	579.7725	652.478	729.7085	798.2013	821.9029	848.5512	900.081	924.381	952.5689	980.5134	1015.5644	1034.9335	1046.4642	1077.7098	1095.0679	1118.9257	1135.088	1202.0249	1254.5413	1271.4307	1287.7569	1391.1587	1402.4146	1412.2703	1434.8281	1474.7105	1478.1879	1503.0344	1504.9007	1710.8209	2944.024	3038.3628	3058.6951	3105.4474	3120.0226	3132.9427	3152.1298	3163.9571	3185.6182	3222.5435
CC12CC1C=CCO2	C[C@]12C[C@H]1C=CCO2	
InChI=1S/C7H10O/c1-7-5-6(7)3-2-4-8-7/h2-3,6H,4-5H2,1H3	InChI=1S/C7H10O/c1-7-5-6(7)3-2-4-8-7/h2-3,6H,4-5H2,1H3/t6-,7+/m1/s1
