21
gdb 104460	2.54444	1.40133	1.28056	1.2123	74.67	-0.2386	0.0895	0.3281	1131.6955	0.181925	-461.358216	-461.349039	-461.348095	-461.391668	34.823	
C	 0.0400681608	 1.4199757691	 0.1262009408	-0.25157
O	-0.0051769572	 0.0093799902	-0.00507916	-0.271126
C	 0.6285534454	-0.5353669085	-1.1457378412	 0.431726
C	 2.1103193676	-0.1814301464	-1.2329793527	-0.445261
C	 0.4191742165	-2.0562795028	-1.0398563597	-0.109847
O	-0.9312209389	-2.432242996	-1.213655491	-0.248261
C	-1.4367910262	-1.9605509784	-2.4505568675	-0.076471
C	-1.3201600273	-0.4458843466	-2.515142424	-0.091029
O	 0.039485756	-0.0451357907	-2.3440325518	-0.289645
H	 1.0266309742	 1.7725048976	 0.456312763	 0.109303
H	-0.2195609464	 1.9220484664	-0.8126991726	 0.123453
H	-0.6952324156	 1.6843202781	 0.8899951579	 0.125042
H	 2.6213160824	-0.4680619816	-0.3098911607	 0.124675
H	 2.5726313362	-0.7006308371	-2.0754642458	 0.126555
H	 2.2377124903	 0.8913679364	-1.3916124462	 0.129679
H	 1.0542952787	-2.5450268412	-1.7965928609	 0.084677
H	 0.7171553039	-2.3974881756	-0.0459854892	 0.117904
H	-0.8828929539	-2.4142206356	-3.2900561775	 0.089537
H	-2.482704081	-2.2765613651	-2.5087259317	 0.108109
H	-1.6298833485	-0.0641992828	-3.4925337149	 0.10315
H	-1.9509648071	 0.0041623807	-1.7379778842	 0.1094
113.8529	139.822	163.973	185.4844	229.1123	292.4053	316.1941	338.9163	374.4429	423.0596	461.3465	536.4835	576.5088	656.849	755.3454	837.7624	889.5599	894.3881	926.3603	1003.504	1027.1068	1090.0367	1103.0969	1123.886	1151.2614	1169.8179	1180.4946	1186.1443	1216.4101	1260.6708	1269.3024	1303.5929	1335.1563	1384.7371	1404.8049	1412.2657	1426.0193	1469.6272	1474.5172	1481.2346	1484.9544	1489.6979	1493.0117	1505.6779	1515.0798	2965.8618	2977.8177	3006.0572	3026.2778	3056.6102	3071.2915	3086.9772	3092.8867	3108.248	3117.3948	3134.2505	3138.0081
COC1(C)COCCO1	CO[C@@]1(C)COCCO1	
InChI=1S/C6H12O3/c1-6(7-2)5-8-3-4-9-6/h3-5H2,1-2H3	InChI=1S/C6H12O3/c1-6(7-2)5-8-3-4-9-6/h3-5H2,1-2H3/t6-/m1/s1
