17
gdb 12519	3.63068	1.88797	1.32743	1.0577	66.49	-0.2406	0.0149	0.2555	928.2171	0.143223	-401.008915	-401.001389	-401.000445	-401.040782	27.874	
C	 0.0069212738	 1.5124856592	 0.2194765011	-0.442803
C	-0.0176810885	 0.035616765	-0.0572138303	 0.375411
N	-1.081783659	-0.6378595093	 0.0495807742	-0.282894
C	-1.1337100503	-2.0876881271	-0.0293022362	-0.156362
C	-0.4237512887	-2.7623793941	-1.1994165763	-0.096826
O	 0.9891320192	-2.6381087634	-1.1258264493	-0.214726
C	 1.4388918801	-1.3571496775	-1.399173845	 0.014334
O	 1.2523078869	-0.4093520575	-0.3562384875	-0.259927
H	 0.7495282849	 1.7287398267	 0.9947634437	 0.141146
H	 0.3127266906	 2.064861354	-0.6754415623	 0.131652
H	-0.9757100849	 1.8496567315	 0.5460018806	 0.14134
H	-0.7210734764	-2.5035615181	 0.9010671717	 0.122248
H	-2.1899716155	-2.3800414386	-0.0651876349	 0.106227
H	-0.6356974588	-3.8357203186	-1.1860184316	 0.113099
H	-0.7869041746	-2.3480134374	-2.1534546697	 0.096749
H	 2.5207468507	-1.4174769949	-1.5280122137	 0.123208
H	 0.9589661804	-0.9660390599	-2.3119683145	 0.088125
91.171	154.2988	189.89	259.8514	307.9988	374.9189	416.8972	451.4425	592.9721	622.4076	696.0713	769.2261	861.0362	900.9153	974.0839	1022.375	1033.4415	1065.3982	1095.2729	1132.7089	1139.9031	1191.1354	1234.5753	1264.6612	1316.6031	1348.2846	1379.7623	1399.4348	1407.2248	1457.733	1471.7838	1477.3782	1478.8697	1484.7697	1503.4522	1766.0671	2963.4796	2983.9649	3011.2061	3043.9184	3056.1377	3087.4996	3099.2944	3121.7123	3166.5396
CC1=NCCOCO1	CC1=NCCOCO1	
InChI=1S/C5H9NO2/c1-5-6-2-3-7-4-8-5/h2-4H2,1H3	InChI=1S/C5H9NO2/c1-5-6-2-3-7-4-8-5/h2-4H2,1H3
