13
gdb 130056	3.66284	1.20583	0.90789	4.5912	68.18	-0.2288	-0.046	0.1828	1171.3538	0.090263	-486.083419	-486.075626	-486.074682	-486.115737	28.722	
N	-0.1154004158	 1.3871862111	-0.1035718074	-0.592714
C	-0.0366182992	 0.0161382873	-0.0450511452	 0.305926
N	-1.0666622522	-0.7996216535	 0.015830238	-0.29757
N	-0.5036585421	-2.039993531	-0.0217426769	 0.051712
C	-1.3027966012	-3.1824819141	 0.0214032346	 0.199868
O	-0.8875860294	-4.3075367595	 0.0004201842	-0.275706
N	 0.8470656402	-2.051074219	-0.0951071761	-0.297354
C	 1.154160375	-0.779975783	-0.1121817408	 0.358596
O	 2.3977562931	-0.2832353261	-0.1711715428	-0.422859
H	 0.6955498968	 1.8718968363	 0.2510551387	 0.268932
H	-0.9879310698	 1.772437997	 0.2276184818	 0.268346
H	-2.3608917262	-2.8790755354	 0.077736153	 0.112915
H	 3.0179070307	-1.0238007199	-0.196510311	 0.319908
104.3003	197.9719	230.1995	244.8996	301.8508	325.9692	386.9034	453.0952	462.8704	565.55	586.9582	619.1563	668.6854	766.2377	790.9701	861.9322	986.9593	1023.3405	1121.6081	1206.5512	1242.3257	1367.4498	1379.0729	1418.1	1495.8646	1614.7102	1628.4545	1674.713	1834.1953	3017.3941	3572.8609	3678.8076	3790.8546
NC1=NN(C=O)N=C1O	Nc1nn(C=O)nc1O	
InChI=1S/C3H4N4O2/c4-2-3(9)6-7(1-8)5-2/h1H,(H2,4,5)(H,6,9)	InChI=1S/C3H4N4O2/c4-2-3(9)6-7(1-8)5-2/h1H,(H2,4,5)(H,6,9)
