23
gdb 104303	2.73193	1.26574	1.19807	1.7309	84.02	-0.2536	0.0813	0.3349	1208.7014	0.205944	-388.297845	-388.288706	-388.287762	-388.331192	35.836	
C	 0.1379332433	 1.5230409833	-0.0877815356	-0.396029
C	-0.03052874	 0.002560043	 0.0072728418	-0.214759
C	-1.4864060922	-0.5050592192	 0.0485902405	 0.285386
C	-2.2150595581	-0.0498588717	 1.3258954945	-0.439696
C	-2.2931695637	-0.1185845174	-1.2307719338	-0.254637
C	-3.2808960215	-1.2806496742	-1.4990350017	-0.254085
C	-2.583124677	-2.4863756948	-0.9047733367	 0.047589
O	-1.1983359905	-2.5865935776	-1.2777453708	-0.276208
C	-1.5261853636	-2.0306688319	 0.0027409471	 0.02697
H	 1.1982190232	 1.7884587592	-0.1446972987	 0.113081
H	-0.350086301	 1.9274105448	-0.9806136256	 0.117811
H	-0.280623204	 2.0379018612	 0.7827452769	 0.114652
H	 0.4608411496	-0.4715321156	-0.8504484377	 0.111269
H	 0.4934775472	-0.3609978053	 0.9018138822	 0.086081
H	-2.2755526419	 1.0407336448	 1.3834654873	 0.11913
H	-3.2386595284	-0.4380793981	 1.3613677817	 0.113122
H	-1.696837701	-0.4029452046	 2.2249620314	 0.111613
H	-2.8040997721	 0.8413935052	-1.1203816118	 0.094599
H	-1.6065792272	-0.027941306	-2.0758325991	 0.111836
H	-4.2355736725	-1.1315843001	-0.9797822829	 0.102384
H	-3.5058701259	-1.4004117131	-2.5634725089	 0.107293
H	-3.09955412	-3.435626141	-0.7838470355	 0.089289
H	-1.1893015026	-2.6092040909	 0.8614903055	 0.083309
101.0643	135.2356	180.5845	214.156	233.0996	276.1454	328.1693	355.6041	380.6091	412.4507	499.3563	599.7754	679.6068	759.7216	788.3327	827.379	839.0491	874.6915	910.6447	927.1675	945.8444	979.1029	1003.6945	1020.65	1032.1954	1050.078	1067.4533	1113.3207	1163.6577	1186.1567	1218.5532	1235.5296	1250.3777	1263.9327	1307.1341	1322.8576	1340.949	1361.1436	1374.8444	1406.0574	1414.4804	1438.3184	1478.8502	1486.3747	1489.9932	1500.1497	1501.4883	1508.1223	1509.3401	3013.3423	3028.5383	3036.1139	3036.9677	3058.7779	3064.8045	3081.0073	3091.0811	3101.5564	3103.4011	3108.4378	3111.1579	3124.2417	3145.9385
CCC1(C)CCC2OC12	CC[C@@]1(C)CC[C@H]2O[C@@H]12	
InChI=1S/C8H14O/c1-3-8(2)5-4-6-7(8)9-6/h6-7H,3-5H2,1-2H3	InChI=1S/C8H14O/c1-3-8(2)5-4-6-7(8)9-6/h6-7H,3-5H2,1-2H3/t6-,7-,8+/m1/s1
