20
gdb 37719	3.04204	2.05632	1.66585	1.3631	80.63	-0.2192	0.0906	0.3098	890.4718	0.176212	-365.975588	-365.969401	-365.968457	-366.006016	26.815	
C	 0.0119545836	 1.6638888015	 0.0733418158	-0.218078
C	 1.548646777	 1.3628281933	 0.0366613681	-0.068488
C	 1.7118999244	 0.6118418067	 1.3785029859	-0.042472
C	 0.5287845157	-0.3071927874	 1.3174305243	-0.042471
C	-0.0713455414	 0.1044037292	-0.0469751977	-0.068497
C	 1.1863843124	 0.2205431856	-0.9574991988	 0.016647
C	 2.1184466865	-0.968555454	-1.1181242564	-0.266402
C	 2.490497307	-1.5398882744	 0.2681481451	-0.144208
N	 1.8847149922	-0.8347893732	 1.3944932707	-0.109669
H	-0.3904367275	 2.1215020774	 0.9819814403	 0.090707
H	-0.3522087893	 2.1916571649	-0.813957168	 0.090103
H	 2.2882723568	 2.1256800446	-0.2091968904	 0.057322
H	 2.0265649116	 1.1534775371	 2.2654365746	 0.086604
H	-0.1293558171	-0.5212051069	 2.1541416137	 0.086602
H	-0.9748624605	-0.4091461393	-0.3776692056	 0.057323
H	 0.9097375077	 0.6411625172	-1.9278215322	 0.070479
H	 1.6309147979	-1.7307595662	-1.7369498454	 0.097515
H	 3.0151880725	-0.6553458528	-1.6652486697	 0.097516
H	 2.1885835902	-2.5890733412	 0.3534178759	 0.104734
H	 3.5739624804	-1.513245442	 0.42500473	 0.104733
97.1024	309.8559	420.0591	490.1366	502.2475	570.7568	678.9746	700.2219	758.0506	779.128	831.1214	836.1423	850.2187	876.5754	916.4828	920.517	935.7614	975.4493	987.4083	1022.295	1045.5869	1056.35	1084.8974	1087.5434	1100.05	1123.581	1127.1076	1169.6797	1223.6159	1231.9262	1260.7373	1266.4624	1280.5503	1300.1548	1302.6305	1320.3988	1323.2625	1363.8751	1395.5442	1412.0233	1485.4348	1498.9367	1504.7547	3024.3026	3040.0275	3041.1373	3053.0699	3069.7448	3080.7528	3101.3377	3104.7994	3108.1313	3145.7516	3155.6719
C1C2C3C4C1C2CCN34	C1[C@H]2[C@H]3[C@H]4[C@@H]1[C@@H]2CCN34	
InChI=1S/C8H11N/c1-2-9-7-5-3-6(4(1)5)8(7)9/h4-8H,1-3H2	InChI=1S/C8H11N/c1-2-9-7-5-3-6(4(1)5)8(7)9/h4-8H,1-3H2/t4-,5-,6+,7+,8-,9?
