19
gdb 90114	3.00047	1.73201	1.521	1.7442	80.73	-0.2219	-0.0046	0.2173	943.9501	0.160406	-385.775093	-385.768125	-385.767181	-385.805823	30.074	
O	 0.3793570187	 1.3697432402	-0.2152616867	-0.422355
C	 0.172018953	-0.0065263621	-0.0861453378	 0.083073
C	 0.3095565111	-0.6049119544	 1.4040203105	-0.361383
C	-1.2387864948	-0.4980559322	 1.4865814589	 0.246053
C	-2.640698664	-1.2561347919	 1.4776887017	-0.303358
C	-2.8315993801	-0.2891964867	 0.2006571199	-0.138793
C	-2.7807614219	 1.0716275056	 0.8994781345	-0.074397
C	-1.7522203779	 0.9335146944	 1.7414847641	-0.158415
C	-1.2989166927	-0.5988723259	-0.0294085102	-0.001694
H	-0.3370588019	 1.8169637706	 0.2514593064	 0.280402
H	 0.8179939268	-0.4822368744	-0.8291996554	 0.086588
H	 0.6875747353	-1.6301090809	 1.3887293726	 0.106074
H	 0.9023239079	-0.0037850177	 2.1001003531	 0.101402
H	-2.5837872919	-2.3182022355	 1.2220306253	 0.102562
H	-3.3215857034	-1.0874495682	 2.3168702915	 0.098165
H	-3.6057197095	-0.4740509472	-0.5451216852	 0.067341
H	-3.473754	 1.8901224882	 0.764128678	 0.107274
H	-1.362076444	 1.6121202932	 2.4891801259	 0.103015
H	-1.2000596509	-1.6445893552	-0.342015707	 0.078447
188.2341	219.4015	345.278	385.8383	409.8996	448.2387	465.8994	544.4104	631.992	692.8261	722.8329	748.0713	775.4946	806.0811	821.5068	872.0188	874.2945	919.4638	922.1255	966.2319	994.3527	1007.357	1020.585	1054.262	1080.6305	1120.8411	1138.3532	1157.2689	1178.4571	1193.9674	1205.028	1223.3573	1230.6412	1253.3385	1292.1998	1326.6111	1391.7297	1446.1817	1468.1529	1487.1751	1616.6269	3033.0829	3046.8887	3052.6027	3072.3926	3109.7598	3117.2759	3119.4886	3206.2491	3238.9958	3766.0725
OC1CC23CC(C=C2)C13	O[C@H]1C[C@@]23C[C@@H](C=C2)[C@@H]13	
InChI=1S/C8H10O/c9-6-4-8-2-1-5(3-8)7(6)8/h1-2,5-7,9H,3-4H2	InChI=1S/C8H10O/c9-6-4-8-2-1-5(3-8)7(6)8/h1-2,5-7,9H,3-4H2/t5-,6+,7+,8+/m1/s1
