21
gdb 62721	2.39965	2.0273	1.59116	0.0056	85.29	-0.2149	-0.0032	0.2117	967.0753	0.183366	-349.944801	-349.93701	-349.936066	-349.976103	33.169	
C	-0.0731838861	 1.5142728834	 0.0048340825	-0.445753
C	 0.0242534678	-0.0184570751	 0.0089069237	 0.332715
C	-1.3992242431	-0.5516360736	-0.2105859683	-0.445712
C	 1.1250063829	-0.6239219173	-0.9612408568	-0.136699
C	 2.388638482	-0.0358679316	-0.3064159524	-0.080329
C	 2.1889211213	-0.0448131798	 1.0104800922	-0.080337
C	 0.7893328205	-0.6393680869	 1.2533159355	-0.136699
C	 0.864647883	-2.1076699744	 0.7953080335	-0.080328
C	 1.0639998164	-2.0984849918	-0.5216505843	-0.080336
H	 0.8869187972	 2.0063218654	 0.1536865677	 0.118395
H	-0.4917960587	 1.8613651814	-0.9468911669	 0.107429
H	-0.7555543566	 1.849216747	 0.7945643293	 0.107431
H	-1.7989285125	-0.1754561652	-1.1593825677	 0.107422
H	-1.4530745339	-1.6392642814	-0.2262183225	 0.118404
H	-2.0629826191	-0.1874041075	 0.5820354059	 0.10742
H	 1.0055510075	-0.4357657307	-2.02936034	 0.053044
H	 3.267986386	 0.2810484505	-0.8507861484	 0.095227
H	 2.8667034487	 0.2630143369	 1.7952608746	 0.095222
H	 0.358296008	-0.4656175164	 2.2405187959	 0.053044
H	 0.7983341887	-2.959075192	 1.45918986	 0.095222
H	 1.1989548201	-2.9406050008	-1.1869687134	 0.095217
176.9093	206.6111	238.9059	301.7811	361.5011	407.0623	440.5149	460.6043	528.1958	554.6507	601.6726	678.6352	738.112	757.3553	768.5888	823.0581	887.4326	916.0722	918.7289	928.332	936.2761	937.6393	939.7541	947.5262	954.7218	1022.8138	1073.5315	1131.4033	1156.7276	1177.8226	1193.7728	1222.9679	1239.1316	1253.3431	1285.4787	1285.7464	1330.26	1398.2244	1418.8568	1481.1147	1492.4957	1500.8657	1521.7208	1617.5923	1658.711	3027.6826	3035.4227	3079.4832	3086.9652	3100.9371	3103.2947	3149.7507	3150.2589	3206.183	3207.8171	3232.3288	3234.9033
CC1(C)C2C=CC1C=C2	CC1(C)[C@H]2C=C[C@@H]1C=C2	
InChI=1S/C9H12/c1-9(2)7-3-4-8(9)6-5-7/h3-8H,1-2H3	InChI=1S/C9H12/c1-9(2)7-3-4-8(9)6-5-7/h3-8H,1-2H3/t7-,8+
