18
gdb 20299	4.85616	1.36993	1.34278	1.5612	71.78	-0.2295	0.0802	0.3097	993.2737	0.154613	-347.737471	-347.730379	-347.729435	-347.769243	27.397	
C	-0.0895985123	 1.4451983009	-0.0997539157	-0.269434
C	 1.2922384243	 0.8641430288	 0.0704231758	-0.274154
C	 0.0926871281	-0.0495962263	 0.0034696822	 0.012698
C	-0.3532948723	-0.7866855211	 1.2256048363	-0.043085
C	-1.7044171528	-1.4735895695	 1.3877068818	-0.152732
C	-2.0784723332	-2.1909494767	 0.0960287351	-0.093474
O	-0.7827567073	-2.8495964246	 0.037438857	-0.285236
C	-0.4260532579	-2.2816225567	 1.3032749514	 0.071425
H	-0.5295733459	 1.9596738305	 0.7485984078	 0.107913
H	-0.3586028453	 1.8685132173	-1.0614714578	 0.109572
H	 1.9712600771	 0.8851177518	-0.7747644088	 0.112078
H	 1.7799650426	 0.9905260973	 1.0319543455	 0.107801
H	-0.0170213186	-0.6175417928	-0.9139931211	 0.100166
H	-0.0308939869	-0.3403271992	 2.1657290511	 0.085109
H	-2.3681346609	-1.2837479059	 2.2205219159	 0.094791
H	-2.8742362873	-2.9331054197	 0.223933164	 0.109125
H	-2.2798151055	-1.5812063661	-0.7924706676	 0.107049
H	 0.1012821739	-2.9169283281	 2.006454287	 0.100387
58.1415	171.0522	174.2986	314.2694	320.3233	499.4936	572.6867	739.6451	778.8409	786.8061	798.857	836.5331	870.9859	932.6295	935.182	962.834	972.4583	1004.6649	1019.8394	1051.2358	1059.7791	1070.7002	1078.6001	1092.3539	1124.7047	1145.6141	1164.5228	1200.3477	1223.8456	1233.0319	1258.9608	1309.9182	1320.4852	1376.3176	1468.5334	1472.2944	1508.8612	1515.0566	3025.9795	3073.7028	3119.3617	3126.5468	3131.4559	3169.3872	3171.0283	3200.6901	3204.146	3220.1022
C1CC1C1C2COC12	C1CC1[C@H]1[C@H]2CO[C@@H]12	
InChI=1S/C7H10O/c1-2-4(1)6-5-3-8-7(5)6/h4-7H,1-3H2	InChI=1S/C7H10O/c1-2-4(1)6-5-3-8-7(5)6/h4-7H,1-3H2/t5-,6+,7-/m1/s1
