12
gdb 20432	6.41813	1.58332	1.33987	3.6969	56.99	-0.2649	-0.0654	0.1995	851.6872	0.084258	-410.74823	-410.741991	-410.741047	-410.779285	22.2	
C	-0.165508971	 1.3079906712	-0.3084027969	-0.221599
C	 1.2613152294	 1.0179718117	 0.0171130328	-0.219648
N	 0.248679725	-0.0255823366	 0.1322189756	-0.130824
C	-0.1210973385	-0.4920375623	 1.3688074052	 0.470444
N	 0.6846358562	-0.7794388004	 2.3574276129	-0.178264
O	-0.1415394025	-1.2994510312	 3.3094419696	-0.140519
N	-1.4426255623	-1.2852087884	 2.8374366274	 0.054882
N	-1.4377338637	-0.8052912559	 1.6759441659	-0.213821
H	-0.7316194854	 1.9137574456	 0.3933141399	 0.144537
H	-0.4927720101	 1.3622589465	-1.341048676	 0.142924
H	 1.9819104844	 0.8669987105	-0.7796086898	 0.141777
H	 1.6644266284	 1.4223726193	 0.9410041733	 0.150111
65.5413	168.5824	201.439	393.5284	507.9379	586.6696	658.1557	744.7161	782.7881	819.5278	920.8315	926.4366	949.1593	1044.4524	1061.3796	1089.2022	1127.2552	1142.0544	1174.8855	1184.0178	1252.7711	1349.7967	1493.655	1510.3861	1522.3196	1615.3679	3124.8407	3128.3268	3213.1536	3225.9488
C1CN1C1=NON=N1	C1CN1c1nonn1	
InChI=1S/C3H4N4O/c1-2-7(1)3-4-6-8-5-3/h1-2H2	InChI=1S/C3H4N4O/c1-2-7(1)3-4-6-8-5-3/h1-2H2
