16
gdb 67842	2.35957	2.27789	1.64815	2.6509	66.91	-0.2519	0.0186	0.2705	866.7489	0.124761	-437.854878	-437.847956	-437.847012	-437.885869	27.473	
C	-0.0464906543	 1.5341571985	-0.0161914613	-0.472505
C	-0.0148295526	 0.0192371356	 0.0182592313	 0.266329
N	-1.2566466571	-0.6062501184	-0.4299980147	-0.294662
C	-1.532086114	-1.4851266192	 0.4437948173	 0.120375
O	-0.7575589068	-1.6268111172	 1.5595438702	-0.223694
C	 0.3217303694	-0.7059732142	 1.3715092864	-0.005639
C	 1.5916800472	-1.2853548548	 0.7210194213	-0.003617
O	 1.1797371598	-2.0332746901	-0.4197421082	-0.222014
C	 1.2806982825	-0.6222639835	-0.5671292682	-0.007819
H	 0.9035956914	 1.9559614962	 0.3290982468	 0.11485
H	-0.2286253165	 1.8832397533	-1.0370193614	 0.137083
H	-0.8482072678	 1.9178320265	 0.6212763709	 0.129626
H	-2.3818365046	-2.1579090892	 0.4146387174	 0.141728
H	 0.4696366136	-0.1090309373	 2.2726100663	 0.095867
H	 2.5366134131	-1.5499817472	 1.1812084997	 0.112573
H	 1.9314497667	-0.2429775989	-1.3473644437	 0.111518
193.6325	208.6144	235.8962	264.5841	309.27	470.153	503.8615	611.1571	669.7088	701.4128	817.7494	831.9576	849.1675	881.9813	917.0817	921.069	930.2627	963.1558	1005.3499	1026.4695	1045.7796	1078.2921	1144.7382	1175.4648	1186.4164	1224.4924	1245.0984	1291.6444	1318.3095	1350.7858	1376.5036	1408.4208	1484.5434	1492.7078	1673.2725	3035.8713	3105.9455	3108.1465	3116.4611	3177.0789	3192.4546	3218.7985
CC12N=COC1C1OC21	C[C@]12N=CO[C@H]1[C@H]1O[C@@H]21	
InChI=1S/C6H7NO2/c1-6-4(8-2-7-6)3-5(6)9-3/h2-5H,1H3	InChI=1S/C6H7NO2/c1-6-4(8-2-7-6)3-5(6)9-3/h2-5H,1H3/t3-,4+,5-,6+/m1/s1
