19
gdb 40459	3.9942	1.35211	1.25625	1.6201	78.61	-0.2191	0.0757	0.2948	1054.0262	0.160743	-381.962708	-381.955506	-381.954561	-381.994551	29.113	
C	-0.1263160644	 1.322878668	-0.3266860021	-0.23526
C	 1.262828938	 0.9330497296	 0.0388806793	-0.237044
N	 0.1794317336	-0.0505566002	 0.0660817816	-0.174961
C	-0.2495321072	-0.5225494226	 1.3425364811	 0.347066
C	 0.4360273286	-1.7936179322	 1.9208177861	-0.288013
C	-0.8950729249	-2.0566582985	 2.6147539141	-0.02525
C	-1.6430271331	-1.2068085835	 1.6612617981	-0.114487
N	-1.4940613292	-0.7477411752	 3.0681892321	-0.147754
C	-0.5114839207	 0.2993800732	 2.6349213694	-0.206304
H	-0.6660316291	 1.9605762552	 0.3688376537	 0.117403
H	-0.4029357612	 1.4506977491	-1.3690946507	 0.12065
H	 2.0166863268	 0.7810317361	-0.7279074171	 0.120544
H	 1.645600849	 1.2996300388	 0.9893646101	 0.118347
H	 0.6204525204	-2.5249601511	 1.1308832111	 0.115187
H	 1.3379031547	-1.6535216854	 2.5271389814	 0.090504
H	-1.2212656873	-2.9363117627	 3.1535980008	 0.099189
H	-2.5845956815	-1.3056200192	 1.1379121974	 0.097487
H	 0.3227670759	 0.4751711973	 3.324686497	 0.094419
H	-1.0639739284	 1.2284555734	 2.4745304665	 0.108275
61.3208	181.697	222.5899	351.5479	407.7163	449.0602	484.2107	568.8573	720.8241	742.0021	791.8681	813.6699	843.6916	887.1933	907.4298	923.5001	935.813	962.6887	975.6173	992.3076	1018.1384	1039.6204	1086.6361	1104.3644	1114.7385	1121.5578	1143.9948	1156.5233	1168.9623	1175.2213	1189.3477	1210.543	1224.4899	1261.9424	1287.0834	1335.6974	1384.8303	1488.7744	1492.9782	1511.3293	1519.0451	3028.343	3041.2034	3101.2855	3103.7181	3112.7952	3115.7192	3184.4905	3198.4158	3200.2416	3212.4594
C1CN1C12CC3C1N3C2	C1CN1[C@]12C[C@@H]3[C@H]1N3C2	
InChI=1S/C7H10N2/c1-2-8(1)7-3-5-6(7)9(5)4-7/h5-6H,1-4H2	InChI=1S/C7H10N2/c1-2-8(1)7-3-5-6(7)9(5)4-7/h5-6H,1-4H2/t5-,6-,7+,9?/m1/s1
