16
gdb 21031	3.9427	1.7272	1.21945	2.5192	68.36	-0.2109	0.0449	0.2557	976.4975	0.130358	-379.949604	-379.941133	-379.940189	-379.983044	29.724	
C	-0.0533585599	 1.3962306785	-0.0627390057	-0.324664
N	-0.0220518503	-0.0455720306	 0.018646053	-0.015993
N	-0.0475965663	-0.8061995802	-1.1132062864	-0.342702
C	 0.0455459937	-2.0621017865	-0.6892028043	 0.383659
C	 0.0365045354	-3.1924098942	-1.6692279205	-0.488398
C	 0.1409427275	-2.1321342206	 0.7236244664	-0.465946
C	 0.0965988631	-0.8127419048	 1.1245187293	 0.462748
O	 0.1480832817	-0.2063367891	 2.3336947675	-0.435669
H	 0.9268978005	 1.8014509562	-0.3369602809	 0.137923
H	-0.7813188604	 1.6906551575	-0.8208786796	 0.149685
H	-0.3474637298	 1.8004822642	 0.9067744185	 0.150162
H	 0.9513915151	-3.7915083931	-1.5996922275	 0.123967
H	-0.8074132367	-3.8693642297	-1.4947479574	 0.123989
H	-0.0417789127	-2.7989010404	-2.6849861459	 0.137497
H	 0.2227322172	-3.0058615971	 1.3502491261	 0.091599
H	 0.1786519116	-0.8853916201	 3.0142310174	 0.312144
44.8614	105.0398	154.525	204.2527	256.5661	269.5098	296.5846	376.2747	510.3485	599.0642	661.2749	673.2121	687.6873	728.3017	833.6142	988.7134	1019.6551	1063.1438	1066.5445	1134.2536	1152.2286	1183.2954	1291.2696	1301.8191	1401.9775	1430.2301	1450.9101	1483.3072	1485.2757	1489.8966	1505.8746	1511.2491	1598.3084	1604.6123	3031.9	3040.529	3081.7998	3114.8661	3130.3463	3156.1652	3252.9965	3848.1942
CN1N=C(C)C=C1O	Cn1nc(C)cc1O	
InChI=1S/C5H8N2O/c1-4-3-5(8)7(2)6-4/h3,8H,1-2H3	InChI=1S/C5H8N2O/c1-4-3-5(8)7(2)6-4/h3,8H,1-2H3
