15
gdb 56386	3.19581	0.71004	0.63799	2.8273	78.73	-0.264	-0.0576	0.2063	1730.6169	0.107875	-420.564346	-420.554061	-420.553116	-420.601609	34.923	
C	 0.1497098906	 1.4942918567	 0.021314783	-0.4794
C	-0.1222367192	 0.0058073769	 0.0692818799	 0.25389
O	-0.3590065607	-0.5951148298	 1.0945532442	-0.271258
C	-0.0827726304	-0.6772100341	-1.2137108265	 0.027516
C	-0.0529424746	-1.2447721992	-2.2783354841	 0.095227
C	-0.0262815993	-1.9868557117	-3.5482709765	-0.233866
O	 0.2095111326	-3.3742085982	-3.3592502231	-0.382929
C	-1.2537747658	-1.7206477374	-4.3131712213	 0.323218
C	-2.2644386488	-1.5347434969	-4.9345440355	-0.442996
H	 1.1431142729	 1.6805950932	-0.4010656349	 0.149468
H	-0.574488561	 1.988064391	-0.6355644119	 0.149877
H	 0.0872502325	 1.909141788	 1.0282690864	 0.146135
H	 0.8346356991	-1.6404252702	-4.1349858051	 0.157783
H	-0.520751501	-3.7255920598	-2.8357676317	 0.296477
H	-3.155045517	-1.3667125885	-5.4889967529	 0.210858
20.2169	65.7099	83.9624	122.5377	175.8814	194.5699	217.3351	316.045	357.6938	382.9341	481.0235	547.5612	578.7404	607.1084	632.9306	650.0786	683.04	731.1314	890.0023	970.9592	1042.6721	1045.8433	1064.129	1234.3825	1261.7716	1301.7331	1382.4024	1413.4186	1460.1216	1468.3018	1771.9651	2239.7949	2328.7298	3030.7571	3039.7758	3104.0631	3153.2288	3500.6786	3798.2348
CC(=O)C#CC(O)C#C	CC(=O)C#C[C@@H](O)C#C	
InChI=1S/C7H6O2/c1-3-7(9)5-4-6(2)8/h1,7,9H,2H3	InChI=1S/C7H6O2/c1-3-7(9)5-4-6(2)8/h1,7,9H,2H3/t7-/m0/s1
