17
gdb 133829	3.25432	2.00549	1.82423	3.243	74.76	-0.2068	-0.0122	0.1946	830.161	0.136237	-384.564263	-384.557592	-384.556648	-384.594804	27.667	
C	 1.2889855368	 0.1522101757	 0.5709526765	-0.526781
C	 2.5982638188	-0.1617671216	-0.0894274037	 0.352798
C	 3.9168791696	 0.4131568765	 0.3002698999	-0.122387
C	 3.312876256	 0.5915403342	-1.189530195	-0.132299
C	 5.1302801399	-0.2614922367	-1.2743596162	-0.152601
C	 3.8282140826	-0.7159355352	-1.8193932262	-0.069301
C	 3.1123441722	-1.5241744096	-0.6580132069	-0.058908
O	 4.1620508467	-1.929786974	 0.1942800708	-0.246764
C	 4.9338318462	-0.7195438076	 0.1576903084	 0.061731
H	 1.213787485	 1.217162751	 0.8146416929	 0.126341
H	 1.1830834946	-0.4131509018	 1.5029023979	 0.138145
H	 0.4455882498	-0.1018968004	-0.0794734877	 0.127817
H	 4.0402569512	 1.3037409046	 0.8976981248	 0.115822
H	 3.1556849476	 1.5618214085	-1.6337281515	 0.118041
H	 3.6773181786	-0.9034230043	-2.875280114	 0.093654
H	 2.4127926566	-2.3306642999	-0.8616579705	 0.083658
H	 5.7783426576	-0.7675982495	 0.8354722606	 0.091033
175.4732	210.2412	250.0037	359.1952	398.9085	537.8984	606.1929	664.693	681.9115	754.9773	799.0761	811.7922	838.6503	879.7808	897.1916	913.6167	934.0514	959.9027	979.3223	996.8491	999.3102	1048.6483	1080.9217	1083.4485	1109.5016	1137.7701	1154.4959	1177.6127	1189.1408	1229.3345	1253.2017	1263.5579	1329.9613	1413.3371	1437.8743	1486.8976	1497.4092	3030.2425	3097.8143	3100.1399	3161.0982	3191.6925	3195.2252	3236.6251	3246.1164
CC12C3C1C1=CC2OC31	C[C@]12[C@@H]3[C@H]1[C@H]1[C][C@@H]3O[C@@H]21	
InChI=1S/C8H8O/c1-8-4-2-3-5(8)6(8)7(3)9-4/h2,4-7H,1H3	InChI=1S/C8H8O/c1-8-5-3-2-4(6(5)8)9-7(3)8/h3-7H,1H3/t3-,4+,5-,6+,7-,8-/m1/s1
