23
gdb 64372	2.01587	1.79531	1.33878	1.4353	84.41	-0.2522	0.0689	0.3211	1109.8916	0.205742	-388.297579	-388.288247	-388.287303	-388.331117	36.905	
C	 0.3532871423	 1.6258400704	-0.1471641102	-0.434878
C	 0.0132081049	 0.1422975516	 0.0523771699	 0.303965
O	-1.3923467735	-0.0049853597	 0.2305872205	-0.483966
C	 0.5728799686	-0.7351047036	-1.0900869174	-0.249512
C	 2.0608999555	-0.9560949913	-0.7373122235	-0.212423
C	 2.1631378405	-0.7530905163	 0.8069321645	-0.303393
C	 0.7405283841	-0.4431994327	 1.2674091453	 0.396328
C	 0.4126935807	-0.0208424135	 2.6694507397	-0.339512
C	 0.0147444002	-1.3959127952	 2.1848526154	-0.318215
H	 1.4288321998	 1.7834667434	-0.2721921707	 0.120143
H	-0.1395718225	 2.0150472706	-1.0472784375	 0.099303
H	 0.0188501276	 2.2136287474	 0.7120084979	 0.123399
H	-1.8328851218	 0.498157098	-0.461093997	 0.275049
H	 0.023826912	-1.6817274958	-1.0701527666	 0.10625
H	 0.4299849882	-0.2878546112	-2.0796359658	 0.079228
H	 2.4013901657	-1.948359509	-1.0436419805	 0.100405
H	 2.6963028589	-0.235187579	-1.2602722848	 0.098659
H	 2.5639293334	-1.6348976839	 1.3146782462	 0.098249
H	 2.8413754359	 0.0754466113	 1.040238233	 0.097692
H	 1.2241455133	 0.0654661332	 3.3853472846	 0.102112
H	-0.3850865964	 0.702664578	 2.803825102	 0.112506
H	-1.0371789527	-1.5753602254	 2.0025981673	 0.130139
H	 0.5705403453	-2.2501306275	 2.5587770776	 0.098471
68.03	134.5676	221.6672	227.9726	237.9734	259.5764	310.4265	331.2684	397.8626	426.9528	507.6814	545.9719	596.4054	679.8032	761.3318	787.9796	843.3896	859.1261	896.1211	927.6424	935.4009	954.0295	979.0006	981.6512	1014.2768	1030.1436	1058.3664	1084.1069	1109.1267	1124.2505	1190.464	1197.8222	1203.0954	1224.0548	1252.0213	1271.4476	1294.4101	1318.7473	1322.253	1353.1011	1404.9082	1411.2482	1457.4945	1481.7955	1485.505	1496.1427	1499.5483	1500.6779	1514.6538	3021.8442	3033.6179	3041.2041	3057.6682	3073.1525	3084.6212	3091.0544	3103.6557	3118.8514	3121.826	3132.3117	3204.6014	3232.0741	3822.3675
CC1(O)CCCC11CC1	C[C@@]1(O)CCCC21CC2	
InChI=1S/C8H14O/c1-7(9)3-2-4-8(7)5-6-8/h9H,2-6H2,1H3	InChI=1S/C8H14O/c1-7(9)3-2-4-8(7)5-6-8/h9H,2-6H2,1H3/t7-/m1/s1
