14
gdb 128904	7.19815	0.73141	0.68882	1.7612	68.96	-0.2883	-0.0546	0.2337	1507.5521	0.10091	-432.862313	-432.854313	-432.853369	-432.896326	27.706	
N	 0.0091110063	-1.1838518866	-0.1001204324	-0.29262
C	-0.0107540255	-0.0290923239	-0.125698805	 0.259441
C	-0.0091388921	 1.4308860001	-0.1475060619	-0.338127
C	 1.3882714413	 2.007332074	 0.191431682	-0.31751
C	 1.3924950183	 3.4968559731	 0.1751017924	 0.416841
C	 1.7014635979	 4.4421117225	 1.1042364195	-0.212286
N	 1.5150870126	 5.6671438492	 0.5086806015	-0.098378
N	 1.1245680476	 5.5370564571	-0.6745620332	-0.001598
O	 1.0277476597	 4.1200785914	-0.9454322842	-0.222516
H	-0.3228196149	 1.7759893602	-1.1375154469	 0.17978
H	-0.7517240653	 1.7973016026	 0.5692535697	 0.166719
H	 1.7063760171	 1.6612282067	 1.1776840693	 0.151002
H	 2.1156553901	 1.629696133	-0.5350927532	 0.161269
H	 2.0359606369	 4.3430015408	 2.1224639225	 0.147982
56.7504	63.6124	99.4598	191.3362	297.8411	362.3319	399.639	505.8731	609.6754	677.7744	702.2027	758.4228	776.2187	827.3475	957.1587	986.4161	1013.8498	1027.4206	1052.1199	1119.435	1189.2261	1247.004	1286.5071	1305.5292	1371.4933	1386.5539	1466.1128	1470.8145	1483.8652	1610.792	2366.9884	3052.9631	3062.9674	3096.3038	3119.1834	3293.2326
N#CCCC1=CN=NO1	N#CCCc1cnno1	
InChI=1S/C5H5N3O/c6-3-1-2-5-4-7-8-9-5/h4H,1-2H2	InChI=1S/C5H5N3O/c6-3-1-2-5-4-7-8-9-5/h4H,1-2H2
