12
gdb 131248	5.4556	1.07805	0.90017	4.4056	67.29	-0.2559	-0.0908	0.1651	1164.8525	0.077833	-468.822471	-468.8154	-468.814456	-468.85447	25.573	
O	 0.0769162697	 1.3244529154	-0.1045791456	-0.393908
C	 0.0641445416	-0.0086583614	-0.0689710776	 0.448086
C	-0.0072127325	-0.7477069909	-1.2634139311	-0.070193
N	-0.0184859794	-2.0615255762	-1.2055425195	-0.24706
C	 0.0410713209	-2.601846804	 0.027372888	 0.27069
C	 0.0273087284	-4.1010476591	 0.0772936285	 0.125774
O	 0.07397859	-4.7554560325	 1.0839055942	-0.230826
N	 0.1091415383	-1.9261585299	 1.1741611963	-0.199877
N	 0.1205900664	-0.6032740515	 1.1190457305	-0.268911
H	 0.1289642655	 1.6322072377	 0.8141648366	 0.316356
H	-0.0530998482	-0.2550965325	-2.2307860187	 0.150465
H	-0.0318278007	-4.5504887451	-0.9356804516	 0.099405
80.067	150.3536	200.6969	345.1489	391.1042	419.2261	460.4586	516.8984	606.041	629.0105	663.9295	817.6676	826.7224	887.9649	957.7596	1044.5389	1056.0508	1161.8588	1219.7355	1277.6363	1315.9758	1391.3624	1434.2765	1468.0518	1567.9428	1612.9501	1832.0271	2928.2602	3173.2545	3727.7264
OC1=CN=C(C=O)N=N1	Oc1cnc(C=O)nn1	
InChI=1S/C4H3N3O2/c8-2-3-5-1-4(9)7-6-3/h1-2H,(H,7,9)	InChI=1S/C4H3N3O2/c8-2-3-5-1-4(9)7-6-3/h1-2H,(H,7,9)
