18
gdb 43413	2.41242	1.77163	1.20065	3.8638	79.95	-0.2361	-0.052	0.1841	1049.383	0.149769	-401.943498	-401.936012	-401.935068	-401.975435	29.483	
O	-0.0134870246	 0.1765075562	 0.8383517833	-0.341348
C	-0.0261511027	 1.2420023735	 0.2447226714	 0.3658
C	-1.3369147622	 1.8849037244	-0.0288613308	-0.149552
C	-1.6692616106	 2.890247733	-0.848204394	-0.043693
C	-0.8050262171	 3.7041257251	-1.7622929664	-0.286813
C	 0.5055576237	 3.0600218872	-2.2370009863	-0.152737
N	 1.5352939058	 2.7496268429	-1.2527108369	-0.083794
C	 1.5403967772	 3.3238053382	 0.0702681252	-0.259526
C	 1.2930347931	 1.8512138561	-0.1299932886	-0.107249
H	-2.1272074677	 1.3921660958	 0.5316206176	 0.111557
H	-2.7235235512	 3.1629374624	-0.8709116758	 0.107225
H	-1.3900361039	 3.9577872472	-2.6559341467	 0.116705
H	-0.5913322889	 4.6739101518	-1.2888550428	 0.127005
H	 0.2817928478	 2.1302569641	-2.771954553	 0.121136
H	 0.9639905557	 3.741060981	-2.9637490386	 0.114698
H	 2.5054863189	 3.6499271141	 0.4495840662	 0.126979
H	 0.6943495978	 3.9216821139	 0.4023874157	 0.121665
H	 2.1038507188	 1.1570815634	 0.0746333106	 0.111943
82.8093	206.0182	234.3948	307.1567	347.6679	366.9576	442.3968	481.8026	577.1689	630.8241	680.8133	704.1648	796.3083	832.9871	869.0203	915.9087	931.8532	980.5767	1016.6488	1033.6896	1062.1156	1070.4334	1108.9079	1114.5597	1162.7974	1220.7291	1237.1574	1302.3876	1307.5333	1333.0334	1377.8021	1387.0322	1399.3076	1425.2787	1465.147	1488.2776	1508.5811	1700.7533	1736.384	3004.9408	3029.2382	3042.7494	3075.6112	3101.515	3134.0053	3148.9943	3171.0451	3185.4266
O=C1C=CCCN2CC12	O=C1C=CCCN2C[C@@H]12	
InChI=1S/C7H9NO/c9-7-3-1-2-4-8-5-6(7)8/h1,3,6H,2,4-5H2	InChI=1S/C7H9NO/c9-7-3-1-2-4-8-5-6(7)8/h1,3,6H,2,4-5H2/t6-,8?/m0/s1
