19
gdb 92515	2.28613	1.75203	1.37895	1.8239	73.99	-0.2391	-0.0263	0.2128	1021.4626	0.160252	-423.041583	-423.033587	-423.032642	-423.074285	30.586	
C	 0.2107462017	 1.5102991218	-0.1111822633	-0.405415
C	-0.0814850173	 0.0002739197	-0.0195463098	-0.087768
C	 0.3942655691	-0.8079410644	-1.2455471808	-0.258186
C	 1.7615635717	-1.3833172531	-0.8676373182	 0.122653
O	 2.8299639932	-0.3998340999	-0.9221795082	-0.292696
C	 3.137783146	-0.5985472728	 0.4733365923	-0.084658
C	 1.8564662844	-1.4418956652	 0.6706871771	-0.186467
C	 0.673043391	-0.615148134	 1.1754392735	 0.397707
O	 0.3848122342	-0.4564172634	 2.3341779999	-0.327297
H	 1.2606282245	 1.6888550288	-0.358513828	 0.141139
H	-0.4003334109	 1.9652682525	-0.8968691431	 0.118765
H	-0.0224579945	 2.0043979997	 0.8361020797	 0.132637
H	-1.151925957	-0.1327724071	 0.1649766299	 0.100255
H	-0.2902922253	-1.6395213504	-1.4500444618	 0.104247
H	 0.4631907415	-0.2066303539	-2.1568506478	 0.116835
H	 2.0289386094	-2.2841238307	-1.430386422	 0.077787
H	 4.0634815608	-1.171884897	 0.6091520487	 0.110777
H	 3.2112063235	 0.3428100642	 1.0285458594	 0.119201
H	 1.9543047537	-2.3892753545	 1.1996474424	 0.100487
70.5045	133.7489	206.3623	250.3914	266.914	327.495	361.9679	473.8734	557.1363	662.8301	693.3689	763.0249	801.0776	854.8989	871.9229	898.3652	953.9726	956.7468	981.5577	1022.6925	1040.6488	1056.3301	1111.6627	1115.2162	1151.5052	1168.4794	1203.5499	1206.566	1257.2509	1268.7729	1286.7849	1320.4914	1340.3451	1358.9802	1361.0661	1402.8012	1473.4811	1497.5489	1509.0208	1529.1634	1836.6177	3017.2935	3035.1445	3041.0465	3051.1881	3063.2022	3071.2343	3094.1842	3111.9135	3123.6505	3128.3211
CC1CC2OCC2C1=O	C[C@H]1C[C@H]2OC[C@H]2C1=O	
InChI=1S/C7H10O2/c1-4-2-6-5(3-9-6)7(4)8/h4-6H,2-3H2,1H3	InChI=1S/C7H10O2/c1-4-2-6-5(3-9-6)7(4)8/h4-6H,2-3H2,1H3/t4-,5+,6+/m0/s1
