20
gdb 74275	2.67776	1.29098	1.08021	3.8966	82.99	-0.2385	-0.0168	0.2216	1228.5078	0.169541	-403.219315	-403.209585	-403.208641	-403.253816	36.219	
C	 0.0219066724	 1.5317999228	-0.0024393381	-0.485817
C	-0.0272533696	 0.04184806	 0.0055776733	 0.198364
C	-1.0624072806	-0.7989767459	-0.0543738405	-0.220411
C	-0.6185290575	-2.2481642119	-0.0149342474	 0.223727
C	-1.1765639119	-2.9759812011	 1.2239345375	-0.405278
C	-1.0148671759	-2.9952735384	-1.3035945573	-0.405255
N	 0.8257500555	-2.079313793	 0.0761333753	-0.351853
C	 1.2349901098	-0.7682030151	 0.0926845612	 0.352684
O	 2.3763375366	-0.3581241848	 0.1630231453	-0.388592
H	 0.6237134639	 1.891408616	-0.8441959176	 0.144489
H	-0.9764848052	 1.9708412653	-0.0695093045	 0.118396
H	 0.5120404469	 1.9042820293	 0.9036836741	 0.144503
H	-2.1120961476	-0.5370149645	-0.12361447	 0.103343
H	-2.2691953386	-3.0272342042	 1.1828285645	 0.119118
H	-0.7953970411	-4.001851166	 1.2714971076	 0.114978
H	-0.8858110205	-2.4545114617	 2.1391569051	 0.129193
H	-0.609356316	-2.4874897232	-2.1821244197	 0.129193
H	-0.631728233	-4.0213692278	-1.2866038458	 0.114976
H	-2.103879366	-3.046964338	-1.4012704149	 0.119103
H	 1.4804554686	-2.8422113678	 0.1244187819	 0.245139
52.435	106.1695	133.1893	233.8782	237.8232	267.1277	324.1027	331.215	336.0497	363.7254	406.5231	521.8256	540.8524	581.9374	625.2589	774.2414	778.9991	872.6812	878.2973	932.5523	940.4355	979.0794	1014.9473	1020.9526	1066.0133	1149.234	1177.1709	1198.9935	1239.3339	1280.3295	1354.3601	1393.2822	1397.1079	1413.8612	1419.7286	1471.6255	1479.1414	1483.4841	1484.6867	1502.2218	1504.4855	1713.5205	1813.7495	3031.0582	3035.9347	3036.7489	3090.4767	3098.0569	3104.4739	3122.3871	3123.0677	3125.231	3197.0108	3658.8945
CC1=CC(C)(C)NC1=O	CC1=CC(C)(C)NC1=O	
InChI=1S/C7H11NO/c1-5-4-7(2,3)8-6(5)9/h4H,1-3H3,(H,8,9)	InChI=1S/C7H11NO/c1-5-4-7(2,3)8-6(5)9/h4H,1-3H3,(H,8,9)
