21
gdb 38443	3.53421	1.3144	1.23541	1.5749	82.01	-0.2345	0.0852	0.3197	1118.7275	0.184383	-387.072371	-387.064582	-387.063637	-387.104938	31.08	
C	-0.1880510982	 1.271044082	 0.0908408655	-0.286073
C	 1.1844059597	 0.7262574448	-0.1816481354	-0.039597
C	 1.8264013667	 0.2658174041	 1.1320881498	-0.313903
C	 0.6376602459	-0.7248317451	 1.3439636042	 0.45204
C	 0.9732138946	-2.2186544344	 1.3654059236	-0.288508
C	-0.2662321494	-2.8120943326	 2.0485900191	-0.239169
C	-0.593108811	-1.7242078802	 3.0802324583	-0.066157
O	-0.1164147606	-0.494801768	 2.5320417442	-0.311623
C	 0.0004251645	-0.2189904305	 0.0359637013	-0.094353
H	-0.4099005494	 1.7498717755	 1.0407448826	 0.120185
H	-0.7025260034	 1.7011563201	-0.7625207076	 0.105812
H	 1.7174859575	 0.933744092	-1.1006782071	 0.081888
H	 2.7795876934	-0.2550295788	 1.0067098696	 0.097513
H	 1.934481837	 1.030164526	 1.9073842988	 0.10183
H	 1.1657822442	-2.6225420909	 0.3687441278	 0.103972
H	 1.8657576389	-2.3880150964	 1.9794543791	 0.100881
H	-1.0852963485	-2.9175427235	 1.3291789495	 0.107941
H	-0.0901676999	-3.7895131184	 2.5039826642	 0.101416
H	-1.6661967276	-1.6361428145	 3.2847095961	 0.100301
H	-0.082721899	-1.9160787291	 4.035537802	 0.092711
H	-0.5259482054	-0.839189362	-0.6817586556	 0.072895
59.1797	139.3808	175.0048	254.0698	374.3708	393.7121	452.1707	514.0558	608.8845	721.3521	749.3914	793.3573	832.0694	870.9262	882.3094	900.0621	929.9742	943.4073	957.9334	974.7825	997.0197	1013.4135	1032.0325	1047.428	1063.4156	1082.3269	1113.0415	1142.8416	1169.4792	1186.1197	1206.8081	1216.0345	1233.9624	1247.9851	1259.7216	1311.8369	1326.0306	1338.9804	1365.3117	1391.7101	1475.6594	1485.2506	1495.0372	1497.2274	1533.3049	2993.5296	3036.2636	3044.7019	3049.5207	3058.9022	3102.8707	3103.4783	3110.0885	3117.6533	3161.9188	3190.8283	3206.7819
C1C2CC3(CCCO3)C12	C1[C@H]2C[C@]3(CCCO3)[C@@H]12	
InChI=1S/C8H12O/c1-2-8(9-3-1)5-6-4-7(6)8/h6-7H,1-5H2	InChI=1S/C8H12O/c1-2-8(9-3-1)5-6-4-7(6)8/h6-7H,1-5H2/t6-,7-,8+/m0/s1
