14
gdb 66403	2.35101	1.56702	1.30045	4.48	68.14	-0.2688	-0.014	0.2548	1007.3202	0.101155	-432.836367	-432.828471	-432.827526	-432.868864	29.381	
N	-0.088159081	 1.4979363569	 0.0925969605	-0.597895
C	-0.0242026008	 0.096676423	-0.0487825417	 0.162067
C	-1.1036001991	-0.9662205521	-0.1119164185	 0.051329
O	-0.3398271916	-1.7503135748	-1.0483826969	-0.263727
C	 0.644641937	-0.7527476492	-1.1008765209	 0.394263
N	 1.6371986972	-0.6127500048	-1.8440452264	-0.545952
C	-0.3327673489	-0.8080598864	 1.1663496336	-0.244201
C	 0.5677280237	-1.8114136273	 1.6682078527	 0.31586
N	 1.2898481894	-2.6117540738	 2.0854773735	-0.331476
H	 0.7495679819	 1.8572373935	 0.5401027639	 0.25713
H	-0.1683309329	 1.9494632071	-0.8132110014	 0.254117
H	-2.1778801693	-0.931922288	-0.2250398443	 0.145793
H	 1.747979527	-1.3946260618	-2.4912504311	 0.245224
H	-0.8634553325	-0.2458639022	 1.9302310471	 0.157469
97.6632	132.4745	190.8916	261.9621	272.9183	333.3373	394.0736	475.8493	511.2631	633.612	672.0977	719.4876	742.604	796.1903	856.0896	872.7902	910.0531	921.0925	943.3664	1009.589	1018.9468	1061.8168	1159.6119	1230.9184	1255.7032	1284.754	1337.4287	1475.0794	1664.6332	1842.4863	2361.8605	3162.4693	3229.4653	3488.8989	3502.7399	3577.4819
NC12C(OC1=N)C2C#N	N[C@@]12[C@@H](O[C]1[NH])[C@H]2C#N	
InChI=1S/C5H5N3O/c6-1-2-3-5(2,8)4(7)9-3/h2-3,7H,8H2	InChI=1S/C5H5N3O/c6-1-2-3-5(2,8)4(7)9-3/h2-3,7H,8H2/t2-,3+,5+/m1/s1
