17
gdb 66044	2.34145	1.36654	1.10331	1.7163	81.6	-0.2502	0.0219	0.2721	1163.4483	0.132518	-384.604184	-384.594847	-384.593903	-384.637957	35.362	
O	-0.019867651	 1.4009698558	 0.0254820188	-0.454838
C	 0.0384525471	-0.0142260318	 0.003365608	 0.22182
C	 0.2135472131	-0.6148278832	 1.4375341806	-0.276116
C	-1.3280902069	-0.6513562233	 1.5822613056	-0.245277
C	-1.4412753022	-0.5625016951	 0.027782064	-0.216153
C	-2.4919073635	 0.2242308505	-0.5758210925	 0.350573
C	-3.3832026467	 0.8665272996	-1.0638486959	-0.451863
C	 0.922532703	-0.5040080067	-1.0440628615	 0.27347
C	 1.6767416353	-0.9041226367	-1.891320434	-0.451798
H	 0.8863539116	 1.7283044957	 0.0344914359	 0.285404
H	 0.6584100925	-1.6120683783	 1.4065910394	 0.114006
H	 0.7753395457	 0.0147966954	 2.1300686726	 0.106555
H	-1.7740018439	-1.5290575668	 2.0517320378	 0.107593
H	-1.7177204177	 0.2514639256	 2.0536151668	 0.12878
H	-1.4302452199	-1.570103346	-0.3989140079	 0.115502
H	-4.1613012087	 1.4437882352	-1.4979198327	 0.193418
H	 2.3328261721	-1.25654237	-2.6486968749	 0.198926
81.341	130.8757	142.1028	189.3966	218.9511	269.5041	340.8236	380.4975	436.8453	491.6226	540.4141	584.5402	612.809	617.2316	632.5312	639.6969	663.6235	731.6411	781.906	917.2682	939.313	961.4985	976.0014	1078.8691	1088.9674	1117.2583	1157.9993	1212.3631	1249.086	1264.2814	1281.2489	1332.4402	1371.1894	1468.2747	1491.5417	2228.028	2238.0716	3062.4359	3070.7217	3087.0276	3127.0154	3149.4138	3499.6922	3505.0566	3807.3349
OC1(CCC1C#C)C#C	O[C@]1(CC[C@H]1C#C)C#C	
InChI=1S/C8H8O/c1-3-7-5-6-8(7,9)4-2/h1-2,7,9H,5-6H2	InChI=1S/C8H8O/c1-3-7-5-6-8(7,9)4-2/h1-2,7,9H,5-6H2/t7-,8+/m1/s1
