14
gdb 132916	3.16615	1.35401	0.94949	4.9391	69.88	-0.1964	-0.0349	0.1615	1123.8849	0.102077	-478.034075	-478.026438	-478.025494	-478.06613	29.218	
N	 0.0128094142	 1.4598664256	 0.1559060122	-0.60091
C	-0.0359286208	 0.060265117	 0.0446798195	 0.106805
C	-1.1785261347	-0.6824095508	 0.0314209253	-0.031939
N	-1.1308949857	-2.0514902471	-0.0032908956	-0.372726
C	 0.0301907056	-2.8389953327	-0.0278364271	 0.445674
O	-0.0433302695	-4.0578725096	-0.0575566637	-0.409468
C	 1.2414230673	-2.0407574246	-0.0189739852	-0.417395
C	 1.1828789388	-0.687890768	 0.0152077526	 0.334012
F	 2.3075449043	 0.0383873524	 0.0093240756	-0.080143
H	 0.8778752675	 1.8397165457	-0.2040653566	 0.256197
H	-0.7775306245	 1.9270382424	-0.2674228684	 0.248737
H	-2.1646296994	-0.2358866454	 0.0528158761	 0.129
H	-1.9902593641	-2.5816369192	-0.0134990974	 0.261471
H	 2.1913193011	-2.5569995358	-0.0458654772	 0.130685
122.0631	179.459	212.0299	300.3702	352.1378	369.2394	414.7138	450.6581	524.5272	585.5151	627.5591	689.2162	720.0975	741.7941	759.0052	809.8694	839.4101	871.13	924.6683	1100.9646	1194.1592	1211.1632	1221.6331	1265.8183	1372.5365	1435.2045	1517.677	1605.1303	1646.04	1702.0403	1783.1749	3210.2166	3233.0242	3549.9445	3619.2331	3645.2968
NC1=CNC(=O)C=C1F	Nc1c[nH]c(=O)cc1F	
InChI=1S/C5H5FN2O/c6-3-1-5(9)8-2-4(3)7/h1-2H,7H2,(H,8,9)	InChI=1S/C5H5FN2O/c6-3-1-5(9)8-2-4(3)7/h1-2H,7H2,(H,8,9)
