18
gdb 113282	2.37887	1.23644	0.93988	1.0362	82.09	-0.2421	-0.046	0.1961	1297.7422	0.143811	-401.891219	-401.88148	-401.880536	-401.925808	35.343	
C	-0.0164197719	 1.4446342376	-0.2951031526	-0.378684
C	 0.045160243	 0.0136571462	 0.2347306904	-0.136509
N	-1.2928181888	-0.5834935708	 0.1453681178	-0.104695
C	-1.6655416341	-1.283565121	-1.0497091504	-0.262848
C	-1.4725091512	-2.0617901184	 0.2379219034	-0.000694
C	-0.2756216583	-2.9745996513	 0.2934320572	 0.093605
O	 0.7072303314	-2.8631071623	-0.3981964588	-0.259687
C	-2.6020353782	-2.5056038347	 1.0124527431	 0.248569
C	-3.5221252897	-2.930587009	 1.6588515079	-0.375974
H	 0.9605522592	 1.9261979157	-0.1925264573	 0.118998
H	-0.2885176678	 1.4593886191	-1.355545388	 0.120581
H	-0.7566309127	 2.0328820216	 0.2540085954	 0.129285
H	 0.8022364011	-0.5644227097	-0.3077362908	 0.130305
H	 0.3257955653	 0.0172128762	 1.2938307613	 0.109661
H	-2.6834876207	-1.1389779353	-1.4007556831	 0.132886
H	-0.9074149042	-1.4579222674	-1.8121565619	 0.139264
H	-0.3670270608	-3.7821890374	 1.0485937963	 0.097415
H	-4.3436683515	-3.2853162692	 2.23091394	 0.198521
80.1151	130.6267	137.2167	144.0447	177.9285	231.584	266.6354	280.1603	384.0511	422.7932	518.7994	538.0093	569.2918	611.2395	664.9835	730.7602	757.748	821.7458	884.9639	916.2192	979.7278	1037.1553	1061.9084	1105.356	1119.0683	1145.4413	1201.1435	1219.2784	1307.6512	1338.2397	1383.6636	1409.479	1426.4786	1480.7971	1489.3955	1498.9679	1517.0564	1802.201	2239.6271	2924.3986	3032.453	3041.0755	3074.5472	3092.4791	3111.3674	3123.6018	3193.2047	3501.2326
CCN1CC1(C=O)C#C	CCN1C[C@]1(C=O)C#C	
InChI=1S/C7H9NO/c1-3-7(6-9)5-8(7)4-2/h1,6H,4-5H2,2H3	InChI=1S/C7H9NO/c1-3-7(6-9)5-8(7)4-2/h1,6H,4-5H2,2H3/t7-,8?/m0/s1
