19
gdb 85608	2.02327	1.89649	1.15505	4.1996	76.78	-0.2578	-0.0034	0.2545	1100.1017	0.160261	-423.06689	-423.058496	-423.057551	-423.100073	31.846	
C	-0.6791738422	 1.3305166805	-0.1964734957	-0.390921
C	 0.0518573759	-0.0065161263	 0.0320564563	-0.037701
C	 0.9430411259	-0.3951010554	-1.1696122101	-0.364153
C	 2.02920751	 0.6280795501	-1.4551994483	 0.422572
O	 2.0000038634	 1.3852467623	-2.3877442383	-0.327411
O	 3.0639896271	 0.7064164808	-0.5826040874	-0.21537
C	 3.1803269973	-0.2027198236	 0.521494697	-0.139349
C	 2.0931166212	-0.0999719674	 1.5632116679	-0.083577
C	 0.7812228267	-0.0093433222	 1.350574119	-0.036092
H	 0.0302615951	 2.1543360198	-0.3154945643	 0.143701
H	-1.2971008136	 1.2850277421	-1.0984763601	 0.123311
H	-1.3306305569	 1.5645403156	 0.6512050149	 0.115111
H	-0.7200479473	-0.7864876888	 0.1024257107	 0.092454
H	 1.380272021	-1.383896524	-0.9957402705	 0.119069
H	 0.3348323854	-0.4524597535	-2.0739085595	 0.128521
H	 3.2820479261	-1.2297782521	 0.144422082	 0.123053
H	 4.1391752924	 0.0607417575	 0.9730163063	 0.130894
H	 2.451649161	-0.1026926336	 2.5895184225	 0.100151
H	 0.1333910315	 0.086895388	 2.2206556476	 0.095736
62.0806	126.6717	203.6663	223.0501	249.5278	343.379	360.4364	419.4899	491.9456	517.8634	591.2836	692.5783	723.0078	781.9131	814.3464	856.5567	900.1577	941.4124	976.3944	1008.5138	1023.2754	1031.4136	1091.3014	1097.5448	1142.5565	1189.8918	1245.8029	1265.7999	1284.6779	1312.0202	1335.347	1384.8499	1411.0748	1418.9919	1429.6929	1477.8221	1493.5167	1498.3651	1507.3791	1731.5184	1839.4448	2996.4738	3009.3706	3039.6197	3055.3532	3100.9682	3109.3236	3118.98	3121.4169	3134.546	3163.957
CC1CC(=O)OCC=C1	C[C@H]1CC(=O)OCC=C1	
InChI=1S/C7H10O2/c1-6-3-2-4-9-7(8)5-6/h2-3,6H,4-5H2,1H3	InChI=1S/C7H10O2/c1-6-3-2-4-9-7(8)5-6/h2-3,6H,4-5H2,1H3/t6-/m1/s1
