18
gdb 22083	3.8674	0.97711	0.93045	2.0487	80.42	-0.2246	-0.0314	0.1932	1308.0855	0.145964	-439.061295	-439.052236	-439.051292	-439.095131	34.506	
C	 0.0409915783	 1.526700764	 0.0120489115	-0.442468
C	-0.0080345033	-0.0060164742	 0.0047945015	 0.353157
O	-1.3681048369	-0.4520861465	-0.0434612213	-0.466894
C	 0.7256939252	-0.6330197193	-1.211025033	-0.341002
C	 1.9294171146	-1.3408839348	-0.6189326556	 0.36937
C	 1.7987913649	-1.3231329834	 0.8386183934	-0.151095
C	 0.731218281	-0.5989764767	 1.1925552999	-0.118556
N	 2.8528905937	-1.8297993742	-1.3548861687	-0.234517
O	 3.8640556606	-2.4308117833	-0.5824977604	-0.396729
H	 1.0723937666	 1.88932071	-0.0308359375	 0.127864
H	-0.5083347332	 1.9211115758	-0.8482439012	 0.128736
H	-0.4149014918	 1.9283292064	 0.9254915082	 0.104802
H	-1.8487070604	-0.0199534957	 0.6711504476	 0.275263
H	 0.0500932167	-1.3501796276	-1.684975443	 0.142053
H	 1.0111928433	 0.1051647784	-1.9634627095	 0.119083
H	 2.4915998258	-1.8276068548	 1.496946493	 0.125139
H	 0.4008359486	-0.4168107254	 2.2107567555	 0.099734
H	 4.4688556763	-2.7513618387	-1.2592243004	 0.306062
37.7288	197.9379	219.1337	250.0142	266.3416	269.7284	323.5339	340.2147	383.5934	402.0423	453.9544	515.4243	638.8204	654.0119	710.0103	815.2366	827.504	867.5974	906.8577	946.4402	957.7644	984.7054	988.6446	1079.8665	1097.9315	1139.4249	1174.7699	1234.6258	1253.8221	1291.2278	1353.0762	1381.1557	1400.9656	1406.7509	1466.2077	1490.3951	1491.749	1649.2223	1729.0529	3024.0783	3069.9586	3092.8683	3116.0442	3116.9189	3179.5496	3244.777	3803.9379	3825.2809
CC1(O)CC(C=C1)=NO	C[C@@]1(O)CC(=NO)C=C1	
InChI=1S/C6H9NO2/c1-6(8)3-2-5(4-6)7-9/h2-3,8-9H,4H2,1H3	InChI=1S/C6H9NO2/c1-6(8)3-2-5(4-6)7-9/h2-3,8-9H,4H2,1H3/t6-/m0/s1
