17
gdb 74465	2.92498	1.37835	1.01113	3.7698	77.31	-0.2404	-0.0349	0.2056	1175.434	0.134443	-421.841197	-421.832907	-421.831963	-421.874167	31.09	
C	 0.0254444022	 1.4962946523	-0.0196504305	-0.483917
C	-0.0103923452	 0.0029597459	 0.0003416176	 0.284086
C	-1.0971915056	-0.7744344111	 0.1068310131	-0.264111
C	-0.7512075691	-2.2105469603	 0.0986862147	 0.329833
C	-1.4781160966	-3.3145692547	 0.7536319826	-0.236655
O	-1.527466197	-3.1562198054	-0.6567823214	-0.266933
C	 0.7622103935	-2.2660848501	-0.0696155829	 0.337965
O	 1.4229748219	-3.2660084885	-0.1571885297	-0.303982
C	 1.2589761134	-0.8162666273	-0.1010995492	-0.433887
H	 0.6250960641	 1.8888221274	 0.8113851352	 0.13277
H	 0.4949688808	 1.8638896633	-0.9409092049	 0.134494
H	-0.9778772679	 1.9245721706	 0.0492140909	 0.130115
H	-2.1175214287	-0.4180878499	 0.1863833192	 0.108367
H	-0.9066797047	-4.1718076793	 1.1067822734	 0.133766
H	-2.4009280535	-3.0941498151	 1.2896466807	 0.11738
H	 1.8302680118	-0.6192889059	-1.017451018	 0.14115
H	 1.9514379105	-0.6412120817	 0.7328117492	 0.139559
82.7529	132.4066	185.5934	237.5777	253.2153	286.1468	391.7231	466.4005	477.5379	531.9626	589.361	625.6219	726.5764	825.9515	852.3044	879.5674	889.5756	952.7545	976.0785	1004.6586	1058.9898	1086.7583	1130.809	1152.3388	1159.2543	1173.6258	1246.5115	1265.3644	1336.2918	1411.8702	1416.3568	1442.746	1475.7622	1484.5545	1508.9498	1700.0904	1858.3903	3018.9478	3026.4834	3055.5054	3066.7205	3078.1517	3115.2518	3174.2434	3201.762
CC1=CC2(CO2)C(=O)C1	CC1=C[C@]2(CO2)C(=O)C1	
InChI=1S/C7H8O2/c1-5-2-6(8)7(3-5)4-9-7/h3H,2,4H2,1H3	InChI=1S/C7H8O2/c1-5-2-6(8)7(3-5)4-9-7/h3H,2,4H2,1H3/t7-/m0/s1
