17
gdb 7679	4.0526	1.57839	1.53764	2.5695	69.55	-0.24	-0.0236	0.2164	909.0489	0.140803	-363.840395	-363.832654	-363.831709	-363.872003	29.601	
C	-0.0735992757	 1.5484028529	-0.032728188	-0.472303
C	 0.0445252298	 0.0339795346	-0.0526298781	 0.321055
C	-1.088929579	-0.6608158907	 0.6824296554	-0.443803
C	 0.5841009293	-0.730707502	-1.228543355	-0.20963
N	 1.3150646222	-0.6816653885	 0.1296143131	-0.157904
C	 2.413246593	 0.1343429622	-0.4990472748	-0.29938
C	 1.7274244184	-0.0040783307	-1.8718009844	 0.405236
O	 2.0669331972	 0.1836543179	-3.0046282478	-0.308286
H	 0.6536675075	 2.0605658154	-0.6635770022	 0.135328
H	-1.0685703179	 1.8382278849	-0.3843567847	 0.132112
H	 0.0349953701	 1.9206076272	 0.9924154078	 0.128678
H	-2.0493804889	-0.4539099616	 0.1997852264	 0.122094
H	-0.9301046479	-1.7410217301	 0.7089114254	 0.133395
H	-1.1421924737	-0.3003725421	 1.7152016809	 0.126568
H	 0.0916744265	-1.6179116214	-1.6132036531	 0.11437
H	 2.5759674554	 1.1251282435	-0.0700385558	 0.129306
H	 3.3509977138	-0.4282799214	-0.478276155	 0.143163
120.3947	176.1817	204.1378	238.6699	323.1552	364.2942	405.3236	463.9159	489.4891	556.5156	627.9067	673.3751	810.2983	836.3227	892.4828	958.4787	967.0946	1001.0148	1016.1393	1023.6123	1059.6474	1098.2999	1135.4255	1146.0207	1214.7587	1253.3634	1292.2405	1367.1074	1409.5832	1424.5335	1461.7487	1483.0436	1485.1788	1505.0191	1510.218	1887.5022	3037.0174	3041.9596	3067.8634	3099.9122	3105.3184	3123.6944	3130.4984	3142.5095	3173.9556
CC1(C)C2N1CC2=O	CC1(C)[C@@H]2N1CC2=O	
InChI=1S/C6H9NO/c1-6(2)5-4(8)3-7(5)6/h5H,3H2,1-2H3	InChI=1S/C6H9NO/c1-6(2)5-4(8)3-7(5)6/h5H,3H2,1-2H3/t5-,7?/m1/s1
