23
gdb 110578	2.99918	1.2593	1.0444	0.2568	90.45	-0.2743	0.093	0.3673	1277.9284	0.205487	-351.093523	-351.084671	-351.083727	-351.126819	34.806	
C	 0.0755228642	 1.6035909675	 0.111007731	-0.375752
C	-0.186743216	 0.1066638773	-0.0934737599	-0.210632
C	 0.5982274652	-0.4806218092	-1.2603264298	-0.041096
C	 2.1014138168	-0.7995264233	-1.1008866542	-0.046827
C	 1.8327183144	-2.1495315011	-0.3500493388	-0.083666
C	 2.745178543	-2.9435083125	-1.3047643622	-0.27838
C	 2.0536655057	-1.9054407255	-2.2079100066	-0.081992
C	 0.6880550048	-2.0186046844	-1.4312991566	 0.352452
C	-0.4257033596	-2.996022409	-1.6946486143	-0.52712
H	 1.132883381	 1.7957163962	 0.3227692714	 0.115963
H	-0.1900511697	 2.1763389052	-0.7846567848	 0.112568
H	-0.5091345463	 2.0020864267	 0.9461451408	 0.108991
H	 0.0566583982	-0.4370989642	 0.8281559067	 0.091363
H	-1.2597770898	-0.0521960247	-0.2664578876	 0.091613
H	 0.3552073217	 0.0531468821	-2.1911982945	 0.050059
H	 2.9394270148	-0.1247201997	-0.9160363621	 0.062312
H	 1.697068799	-2.2801743197	 0.7247372972	 0.065541
H	 3.8244636259	-2.8273931922	-1.1607938369	 0.087985
H	 2.496253043	-3.9965238991	-1.4727446152	 0.088403
H	 2.1617643851	-1.7372507051	-3.2816521769	 0.061975
H	-0.0472742363	-4.0215810973	-1.7701111801	 0.119506
H	-1.170103507	-2.9746498735	-0.8906739946	 0.11936
H	-0.9425263583	-2.7610075344	-2.6321899322	 0.117376
80.5635	145.4981	180.5673	211.8896	238.9457	254.244	310.3615	344.949	493.7845	513.2891	626.0727	717.653	744.661	801.3042	852.271	856.0416	860.7639	891.0425	910.9952	925.1742	961.6454	979.5297	1017.2373	1045.5578	1051.2364	1071.048	1107.6767	1118.4534	1138.1948	1153.6388	1159.1973	1168.1758	1190.1288	1213.678	1238.1278	1259.0394	1286.5779	1291.0979	1338.0532	1349.6648	1405.3883	1409.9883	1424.9382	1484.5217	1487.244	1491.8713	1499.6055	1506.9316	1508.9914	2993.6041	3013.0206	3022.3875	3029.4381	3034.0989	3047.6801	3084.724	3086.7106	3087.2213	3090.9896	3091.0455	3096.2128	3100.7902	3103.0985
CCC1C2C3CC2C13C	CC[C@H]1[C@H]2[C@@H]3C[C@H]2[C@]13C	
InChI=1S/C9H14/c1-3-5-8-6-4-7(8)9(5,6)2/h5-8H,3-4H2,1-2H3	InChI=1S/C9H14/c1-3-5-8-6-4-7(8)9(5,6)2/h5-8H,3-4H2,1-2H3/t5-,6-,7+,8-,9+/m0/s1
