17
gdb 34052	3.14372	1.3649	1.17534	4.1079	73.15	-0.2504	0.0131	0.2635	1071.9202	0.137924	-417.986335	-417.978724	-417.97778	-418.018493	29.133	
N	 0.0134294674	-1.1428980909	 0.0727052494	-0.334588
C	 0.0213280329	 0.0112346181	 0.0053046382	 0.254995
C	-0.0342185772	 1.4558513994	-0.0680166156	 0.136061
C	 0.4410697292	 2.1604003973	-1.296786937	-0.264593
N	 1.2751602789	 2.1396640603	-0.1038184592	-0.119748
C	 1.4198878227	 3.4016559669	 0.6493395361	-0.162069
C	 0.2362692109	 3.7120525462	 1.5666694893	-0.091311
O	-0.9935886129	 3.4598862979	 0.9008411891	-0.237532
C	-1.1820633783	 2.0746225033	 0.7360046635	-0.169328
H	 0.8132994841	 1.5879629672	-2.1414226287	 0.135336
H	-0.0842964997	 3.0815808572	-1.5408132714	 0.133437
H	 2.3375912952	 3.3359910648	 1.2443685219	 0.120834
H	 1.5554340526	 4.2132689711	-0.073098045	 0.119804
H	 0.2882643277	 3.1064841864	 2.485025513	 0.105444
H	 0.2368335056	 4.7665145494	 1.8543650673	 0.12166
H	-2.1316082544	 1.9319076091	 0.2126755457	 0.1356
H	-1.2484072648	 1.5730132464	 1.7142552033	 0.115997
104.4175	146.9694	171.8952	290.1077	380.7963	400.6831	417.3652	496.5477	553.095	570.8884	589.2036	733.3718	767.8022	868.3921	883.5307	922.0665	954.6853	1002.758	1060.5081	1091.0085	1120.4659	1145.9387	1149.9941	1165.7346	1224.5455	1264.4064	1273.7886	1320.3018	1348.0867	1376.9912	1393.9854	1427.195	1486.8445	1493.31	1502.7867	1506.6917	2355.3208	2985.1064	2988.8084	3037.5568	3078.456	3091.0651	3100.2356	3101.3381	3196.6151
N#CC12CN1CCOC2	N#C[C@]12CN1CCOC2	
InChI=1S/C6H8N2O/c7-3-6-4-8(6)1-2-9-5-6/h1-2,4-5H2	InChI=1S/C6H8N2O/c7-3-6-4-8(6)1-2-9-5-6/h1-2,4-5H2/t6-,8?/m1/s1
