23
gdb 109506	1.82684	1.37695	1.00496	0.8444	93.28	-0.235	0.0513	0.2862	1359.1853	0.202494	-351.126621	-351.115734	-351.114789	-351.162042	40.671	
C	 0.2585367155	 1.5095854604	 0.1642677631	-0.375631
C	-0.1957318584	 0.0703353211	-0.1077522088	-0.211582
C	 0.5640288953	-0.5614427279	-1.2557382569	-0.033072
C	 1.9151158699	-1.2544225587	-1.0398055566	-0.270296
C	 2.4631709877	-1.4043751733	 0.2747013583	 0.342143
C	 2.9362172618	-1.5257732847	 1.375634287	-0.466562
C	 0.6793161781	-2.0458541199	-1.4907549013	 0.281749
C	 0.0417181807	-3.0321901952	-0.5314064304	-0.454367
C	 0.6851918605	-2.5184262631	-2.9334463183	-0.44799
H	 1.3156752646	 1.5349392586	 0.4459643702	 0.129515
H	 0.1317820683	 2.1406983288	-0.7225461625	 0.109482
H	-0.3193319789	 1.9583659092	 0.9781430926	 0.109021
H	-0.0673401865	-0.5227759574	 0.8020591199	 0.110391
H	-1.2687170114	 0.0585581377	-0.3400871625	 0.094315
H	 0.5326689848	 0.0356973717	-2.1659734846	 0.07983
H	 2.6616482735	-1.0820503824	-1.8108160537	 0.103501
H	 3.3582048694	-1.6378721671	 2.3431920555	 0.191286
H	 0.1494596016	-2.7313042711	 0.5115064005	 0.132037
H	-1.0266711618	-3.1455053837	-0.7486030512	 0.11261
H	 0.5076750741	-4.0184306273	-0.6366703246	 0.116734
H	 1.2215323632	-3.4689996832	-3.0350524169	 0.118021
H	-0.3381428481	-2.6744629123	-3.2952908601	 0.116036
H	 1.1641379763	-1.7898123104	-3.5951073287	 0.112832
68.3533	128.265	130.5717	160.3742	185.92	192.0835	232.9934	263.4776	302.2912	350.2211	366.2523	397.8916	486.7507	541.2744	568.548	603.4291	645.5568	698.6791	767.9485	818.4708	827.5224	948.9565	962.1203	971.5023	999.0312	1017.9957	1047.4002	1075.636	1125.1798	1139.7686	1152.6943	1170.3707	1248.5297	1299.7361	1328.7847	1333.7952	1377.6127	1408.5155	1411.7156	1424.7276	1445.2364	1478.1483	1483.6839	1491.6117	1499.4025	1501.1544	1505.9801	1512.0154	2226.2582	3020.3338	3022.8388	3031.8014	3032.7689	3079.7985	3081.3037	3086.1618	3097.9764	3101.3106	3111.2805	3116.8577	3135.4121	3137.3951	3504.9063
CCC1C(C#C)C1(C)C	CC[C@H]1[C@@H](C#C)C1(C)C	
InChI=1S/C9H14/c1-5-7-8(6-2)9(7,3)4/h1,7-8H,6H2,2-4H3	InChI=1S/C9H14/c1-5-7-8(6-2)9(7,3)4/h1,7-8H,6H2,2-4H3/t7-,8+/m1/s1
