23
gdb 87965	3.65963	0.99994	0.91767	1.3927	86.5	-0.2424	0.0925	0.3349	1410.2759	0.205596	-388.294198	-388.28474	-388.283796	-388.328939	35.979	
C	 0.116430716	 1.6126637878	-0.2240826567	-0.410764
C	 0.1105449875	 0.1070266505	-0.0746301059	-0.044954
C	 1.4069943684	-0.6668030153	-0.0001310685	-0.346404
C	 0.5120013435	-0.5702224666	 1.2116667816	 0.325804
C	 0.9568521771	 0.202482552	 2.4649334329	-0.145282
O	 0.4730648785	-0.5309479103	 3.582053822	-0.266661
C	 0.3064159545	-1.8913449108	 3.183537951	 0.152178
C	-0.5926638967	-2.5877282839	 4.1885386843	-0.403735
C	-0.2337987819	-1.7883366069	 1.750387568	-0.309771
H	 0.9685791171	 2.0651040017	 0.2933648684	 0.11671
H	 0.1845439844	 1.8996146913	-1.2791457924	 0.117406
H	-0.7958296992	 2.0624058125	 0.1842373351	 0.118387
H	-0.6950887763	-0.3863047378	-0.6152332008	 0.080196
H	 1.4813081312	-1.6187878234	-0.5168260216	 0.106122
H	 2.3308496854	-0.0936528824	 0.0099043336	 0.105272
H	 2.0543344609	 0.289231034	 2.5055207202	 0.087734
H	 0.5366139091	 1.2121184527	 2.5277509457	 0.103561
H	 1.2919629443	-2.3904155328	 3.1618013863	 0.060811
H	-1.5733581315	-2.1029841471	 4.2220828479	 0.120382
H	-0.7303295053	-3.6389127859	 3.916655813	 0.112965
H	-0.1546573042	-2.5460494805	 5.1897452225	 0.124411
H	-1.3153674212	-1.6058491781	 1.7815737551	 0.098073
H	-0.0582648117	-2.6934259108	 1.1621408185	 0.097559
28.7075	125.3173	172.6573	208.7672	221.2215	228.7423	279.1586	378.0341	406.7954	425.5765	481.8012	513.571	615.8308	768.541	802.492	848.8867	870.5329	910.7286	913.5611	924.523	942.7248	1008.5532	1041.6555	1051.0461	1074.9256	1085.309	1123.6649	1131.1426	1147.0732	1156.2569	1186.453	1211.6941	1240.4405	1253.9607	1277.6848	1320.0519	1359.619	1387.6384	1393.9083	1410.404	1414.961	1430.5103	1483.3473	1487.4378	1490.5667	1492.7186	1499.5817	1504.9411	1523.1842	2936.8862	2970.713	3026.1558	3026.6948	3040.1572	3056.3704	3087.2561	3089.495	3094.9054	3109.9397	3113.791	3117.2728	3124.0068	3195.4518
CC1CC11COC(C)C1	C[C@H]1C[C@]21CO[C@@H](C)C2	
InChI=1S/C8H14O/c1-6-3-8(6)4-7(2)9-5-8/h6-7H,3-5H2,1-2H3	InChI=1S/C8H14O/c1-6-3-8(6)4-7(2)9-5-8/h6-7H,3-5H2,1-2H3/t6-,7-,8+/m0/s1
