18
gdb 70802	2.89416	1.58511	1.24292	4.3009	76.05	-0.2408	0.0078	0.2486	1058.2027	0.146304	-401.924889	-401.916562	-401.915618	-401.957356	31.92	
C	-0.0073160258	 1.4830629398	 0.1506966593	-0.494917
C	-0.0374147447	-0.0076542629	 0.0353306938	 0.342742
C	-1.2465411437	-0.9017769034	-0.2754409151	-0.324494
C	-0.3255268247	-2.1080864468	 0.0878073675	 0.149183
C	-0.8484824132	-3.4371099906	 0.5539524408	-0.509928
C	 0.6097584863	-1.0609970784	 0.827972959	-0.149459
N	 1.2043089569	-0.6732641988	-0.5318893495	-0.244008
C	 0.7331962049	-1.9710825234	-1.0018093587	 0.416292
O	 1.2024541666	-2.6815807749	-1.8351349533	-0.326464
H	 0.9726833684	 1.8246008491	 0.4924270812	 0.141232
H	-0.2107810763	 1.9485908611	-0.819184714	 0.135104
H	-0.7671616306	 1.8266005513	 0.8605492303	 0.123534
H	-2.0355338093	-0.7550131301	 0.4681909132	 0.111043
H	-1.6741486785	-0.88150386	-1.28412961	 0.110448
H	-1.4418167131	-3.9064944126	-0.2376293605	 0.140065
H	-0.0296990464	-4.1193860652	 0.8020234133	 0.13596
H	-1.4879637683	-3.3298948944	 1.4358126868	 0.122561
H	 1.2305821013	-1.1006645098	 1.7115957461	 0.121105
133.4615	177.4307	191.7353	195.7043	237.943	261.2287	352.2909	435.3922	503.1896	548.0761	642.2754	683.4032	701.9852	787.184	790.9797	844.5015	868.5488	920.0603	935.8004	995.709	1012.3282	1038.6394	1043.1574	1118.3811	1128.9511	1156.3351	1191.3115	1211.0493	1261.3594	1354.4085	1399.0893	1414.8575	1439.1671	1483.748	1486.4466	1489.5069	1490.9984	1502.3666	1910.1438	3035.8378	3037.3703	3040.2128	3098.2737	3103.1665	3104.9596	3108.9478	3126.5902	3225.3497
CC12CC3(C)C1N2C3=O	C[C@]12C[C@]3(C)[C@H]1N2C3=O	
InChI=1S/C7H9NO/c1-6-3-7(2)4(6)8(7)5(6)9/h4H,3H2,1-2H3	InChI=1S/C7H9NO/c1-6-3-7(2)4(6)8(7)5(6)9/h4H,3H2,1-2H3/t4-,6-,7+,8?/m1/s1
