18
gdb 59038	2.79883	1.32686	1.07867	3.6823	76.62	-0.2521	-0.034	0.218	1165.812	0.148249	-439.115395	-439.106957	-439.106013	-439.148517	31.993	
C	 0.123817851	 1.5341285355	 0.1758834518	-0.402604
C	-0.0426102167	 0.0133949936	 0.0249362465	 0.012822
O	-1.4065912192	-0.3600901321	-0.0296892994	-0.438585
C	 0.7022678606	-0.497369137	-1.1855971817	 0.275754
C	 1.8905358763	-1.0949323715	-1.2985859183	-0.244267
C	 2.1780283765	-1.3753288737	-2.743021755	-0.137957
O	 1.0283145742	-0.8829237152	-3.4444573756	-0.23954
C	 0.1418912468	-0.3670313922	-2.5451886006	 0.384971
N	-0.9896606478	 0.1339791422	-2.8343262091	-0.583717
H	 1.1741588582	 1.8076601467	 0.3214167914	 0.106704
H	-0.2498978077	 2.0480406505	-0.7146404936	 0.133954
H	-0.4531288086	 1.8727163011	 1.0406967588	 0.124941
H	 0.367870717	-0.4771090453	 0.9155246807	 0.087676
H	-1.7307677487	-0.07740101	-0.9013054029	 0.299125
H	 2.5732823347	-1.3549551587	-0.5000072315	 0.122398
H	 3.0709259062	-0.8567652829	-3.1158903475	 0.133632
H	 2.2937565254	-2.4449258153	-2.9609407495	 0.135579
H	-1.1710397482	 0.1083684242	-3.8370809546	 0.229112
75.448	137.9326	196.5189	210.7218	256.8339	308.3238	346.1311	454.3208	488.5901	500.0048	583.152	666.54	741.8204	778.8996	809.5954	836.9342	856.8084	898.9783	953.5322	992.6195	1025.6761	1030.4789	1082.6752	1096.0628	1123.4184	1196.151	1201.1477	1239.8429	1311.4646	1345.3807	1362.8999	1394.7701	1406.6886	1465.1759	1494.414	1499.2005	1501.4119	1703.6527	1742.1208	3019.2033	3036.6875	3038.9073	3050.039	3112.2127	3125.0395	3222.4603	3498.9581	3654.136
CC(O)C1=CCOC1=N	C[C@@H](O)C1=C(OC[CH]1)[NH]	
InChI=1S/C6H9NO2/c1-4(8)5-2-3-9-6(5)7/h2,4,7-8H,3H2,1H3	InChI=1S/C6H9NO2/c1-4(8)5-2-3-9-6(5)7/h2,4,7-8H,3H2,1H3/t4-/m1/s1
