22
gdb 15715	2.72786	1.6842	1.14482	1.5852	77.27	-0.2453	0.077	0.3223	1120.3838	0.201281	-350.217049	-350.208264	-350.20732	-350.250683	32.854	
C	-0.1185823174	 1.6132491341	 0.0527966483	-0.388632
C	-0.1159934456	 0.0800921439	 0.0358922091	-0.186307
C	 0.7174350832	-0.5259493632	 1.1736715916	-0.006651
C	 0.1181349236	-0.2186632075	 2.5770649809	-0.085229
O	 0.1554884126	-1.4216374312	 3.3303030381	-0.244494
C	-0.0290388479	-2.4708689468	 2.3990487675	-0.089344
C	 0.8369301383	-2.0882703206	 1.1895455858	 0.005517
C	 0.4789922803	-2.8373169698	-0.0932684373	-0.413979
H	 0.8996644865	 2.008585663	-0.03619467	 0.114603
H	-0.7064031105	 2.0169385617	-0.7773349792	 0.112696
H	-0.5453845788	 2.0077774218	 0.9810086039	 0.120716
H	-1.1497157974	-0.2858504193	 0.0967648704	 0.094855
H	 0.2744579243	-0.262569024	-0.9290413012	 0.096331
H	 1.7246770082	-0.0995774944	 1.1069467498	 0.071451
H	 0.669850278	 0.5407360808	 3.137466725	 0.105524
H	-0.9243477934	 0.1277863584	 2.4721910293	 0.083302
H	 0.2687668726	-3.4076466291	 2.878159848	 0.104688
H	-1.090974664	-2.5565029821	 2.1036286214	 0.077648
H	 1.873060627	-2.3325782116	 1.4499050683	 0.078943
H	-0.5564810342	-2.6564420784	-0.3984633778	 0.118033
H	 1.1285223337	-2.5488964962	-0.9256321177	 0.117645
H	 0.5957388008	-3.9169155495	 0.0514540758	 0.112688
41.5575	126.7097	190.3771	230.4348	245.0995	255.7623	285.1248	359.5433	424.6978	487.2991	593.8916	657.9819	768.0748	804.8926	885.7758	935.7706	950.4277	966.5059	974.5625	986.2819	1051.7554	1067.4166	1102.3978	1117.9967	1153.0153	1167.5852	1178.7159	1233.178	1271.5134	1289.4645	1306.0042	1330.842	1344.265	1356.7808	1379.605	1389.8753	1403.9685	1414.1658	1415.6944	1485.0374	1500.4352	1501.1274	1502.1791	1507.2924	1509.5293	1522.5649	2937.4677	2957.2597	3015.5427	3025.3538	3030.5936	3033.0282	3042.2893	3060.6828	3085.2172	3089.28	3095.422	3098.0202	3103.4954	3105.3938
CCC1COCC1C	CC[C@H]1COC[C@H]1C	
InChI=1S/C7H14O/c1-3-7-5-8-4-6(7)2/h6-7H,3-5H2,1-2H3	InChI=1S/C7H14O/c1-3-7-5-8-4-6(7)2/h6-7H,3-5H2,1-2H3/t6-,7+/m1/s1
