18
gdb 74478	3.12222	1.41628	1.1098	3.2343	79.44	-0.2282	0.0034	0.2316	1124.9271	0.147852	-401.908167	-401.900345	-401.899401	-401.940288	30.661	
C	 0.0011433152	 1.4979612852	 0.0782111651	-0.499277
C	-0.0256833713	 0.0069919155	-0.0068525169	 0.361115
C	-0.008962573	-0.7608634604	-1.1030359874	-0.291701
C	-0.0438186679	-2.2143578786	-0.7630258119	 0.503652
C	-0.7083985308	-3.2386682374	-1.5864405811	-0.255817
O	 0.7141772499	-3.1454196741	-1.5455418902	-0.278135
C	 0.0181709576	-2.272751521	 0.7438559682	-0.170456
N	 1.2469844217	-1.661626977	 1.307439189	-0.331628
C	-0.0106463991	-0.8679783238	 1.2176602779	-0.161193
H	 0.8958625367	 1.841050466	 0.6126820934	 0.138768
H	-0.0038084337	 1.9582644448	-0.9130752037	 0.127599
H	-0.8633788982	 1.8804948012	 0.6356640534	 0.125406
H	 0.0629069659	-0.41244845	-2.1267386542	 0.101673
H	-1.1365603866	-4.1196054352	-1.1065670131	 0.109105
H	-1.1752708024	-2.9529344264	-2.5288067799	 0.110652
H	-0.4604652974	-3.0856080099	 1.2781320136	 0.091584
H	 1.3484000209	-2.0036151643	 2.2627024255	 0.229336
H	-0.5128182977	-0.5647419245	 2.1305940624	 0.089317
121.0082	181.3679	185.8321	239.7317	285.4348	364.4234	435.2061	480.9773	527.2557	598.5801	630.5133	816.1827	832.5633	842.0327	860.5327	873.8847	895.8496	914.0163	918.48	983.6379	1019.1044	1053.145	1070.0932	1128.7108	1132.0013	1146.8393	1153.4697	1180.315	1239.3915	1255.8247	1308.01	1343.5832	1394.0785	1413.1525	1444.1018	1478.531	1487.4904	1526.7676	1703.1823	3019.0547	3066.3564	3067.9667	3115.1965	3154.3863	3163.4915	3176.9824	3202.3223	3468.5553
CC1=CC2(CO2)C2NC12	CC1=C[C@]2(CO2)[C@H]2N[C@@H]12	
InChI=1S/C7H9NO/c1-4-2-7(3-9-7)6-5(4)8-6/h2,5-6,8H,3H2,1H3	InChI=1S/C7H9NO/c1-4-2-7(3-9-7)6-5(4)8-6/h2,5-6,8H,3H2,1H3/t5-,6-,7-/m0/s1
