21
gdb 42024	3.17588	1.40236	1.04102	2.1798	78.15	-0.2462	0.0893	0.3356	1168.3679	0.186293	-424.236618	-424.229036	-424.228092	-424.268714	30.223	
C	-0.0404318437	 1.4179103322	 0.0496507681	-0.072375
C	 1.4190746813	 1.9494636065	-0.0201915711	-0.302155
C	 2.2106641334	 0.7170000215	 0.4276786035	 0.050081
C	 3.6752563533	 0.490063943	 0.0732423028	-0.25709
C	 4.0325208921	-0.9377568676	 0.5316448327	-0.063276
O	 3.1586275947	-1.9287476841	 0.0078210773	-0.250084
C	 1.7909505726	-1.743298105	 0.3571093723	-0.128262
C	 1.3570560332	-0.3902404181	-0.1857607612	 0.15657
O	 0.0255253296	-0.0183223391	 0.1116769405	-0.284712
H	-0.5643447627	 1.7667055574	 0.946473805	 0.105637
H	-0.6264451059	 1.7247053072	-0.8257702563	 0.099914
H	 1.6840968135	 2.2268902691	-1.0463366173	 0.105354
H	 1.5710001472	 2.8268656348	 0.6132315285	 0.103395
H	 2.1040556404	 0.6249475235	 1.5193548831	 0.074463
H	 3.8300831816	 0.581413605	-1.0088285741	 0.1041
H	 4.3406618574	 1.2094731307	 0.5646553497	 0.096068
H	 5.0337279432	-1.2217000819	 0.1957603477	 0.108306
H	 4.0225689258	-0.9743682235	 1.6347073933	 0.086487
H	 1.2413652061	-2.5734909499	-0.0941291288	 0.112542
H	 1.6458694448	-1.7796254061	 1.4492160793	 0.09123
H	 1.5191912221	-0.4089455058	-1.278868705	 0.063809
95.3641	174.9578	205.691	329.7137	338.6288	351.9894	436.5603	495.2062	525.584	630.3387	689.9586	810.2302	837.9291	865.2366	909.3224	937.8345	960.6286	996.3828	1000.571	1009.1664	1073.3199	1099.1358	1122.5134	1149.7457	1158.4287	1172.2271	1197.3315	1215.8277	1227.0676	1262.8605	1288.127	1307.8543	1319.4844	1340.5541	1348.8997	1374.456	1385.911	1403.3507	1409.8249	1421.6347	1482.5412	1493.955	1498.7485	1505.7813	1526.7615	2936.0491	2958.731	2977.3875	2992.9556	3019.5174	3029.466	3047.7727	3060.3668	3074.0011	3088.9545	3095.663	3104.6183
C1CC2CCOCC2O1	C1C[C@@H]2CCOC[C@H]2O1	
InChI=1S/C7H12O2/c1-3-8-5-7-6(1)2-4-9-7/h6-7H,1-5H2	InChI=1S/C7H12O2/c1-3-8-5-7-6(1)2-4-9-7/h6-7H,1-5H2/t6-,7+/m0/s1
