23
gdb 42090	3.38291	1.19664	1.17091	0.1245	90.16	-0.2319	0.0295	0.2614	1210.3057	0.208898	-351.187491	-351.179176	-351.178232	-351.220836	32.825	
C	 0.2283580034	 1.6052767013	 0.4013739647	-0.206628
C	 1.6935833899	 1.8546043867	-0.0674358807	-0.206823
C	 1.9824298188	 0.7559004669	-1.1093830922	-0.238848
C	 1.084907775	-0.4375751389	-0.6877025004	 0.309191
C	-0.2178317381	 0.2960199525	-0.2924831328	-0.251025
C	 0.9053205157	-1.5401903325	-1.7678299598	-0.291008
C	 1.842929092	-2.7077101055	-1.3685169797	-0.260269
C	 2.1165755976	-2.432289919	 0.0908150009	-0.081841
C	 1.7067865511	-1.2196355643	 0.4560403613	-0.090522
H	 0.1854522962	 1.5052391479	 1.4901685815	 0.097579
H	-0.4317757966	 2.4378426053	 0.14277372	 0.095854
H	 1.835795032	 2.8576175146	-0.4789780221	 0.093417
H	 2.3828856883	 1.7654022366	 0.778277467	 0.098788
H	 1.6700432877	 1.092026727	-2.1063600451	 0.090082
H	 3.0419121741	 0.4903662097	-1.1710113438	 0.092347
H	-0.8669334112	-0.3223924417	 0.3350302313	 0.091392
H	-0.7799552996	 0.5253956096	-1.20622535	 0.091847
H	-0.1325276039	-1.8903462229	-1.7499619569	 0.098146
H	 1.0991004509	-1.1646477105	-2.7768170262	 0.0905
H	 1.3855688871	-3.6891140003	-1.5390784841	 0.099963
H	 2.7779343136	-2.7040138348	-1.9464557805	 0.103809
H	 2.6195366776	-3.1437562141	 0.7373866391	 0.0872
H	 1.8244453584	-0.7971557736	 1.4489239086	 0.08685
56.9807	90.1233	147.377	224.8983	293.5554	357.0179	425.2636	490.1932	624.0804	667.2996	700.4845	768.7586	779.9584	799.9183	828.8145	850.6548	890.2632	916.1695	940.1371	945.25	974.4057	980.6665	1001.787	1027.0829	1049.9312	1056.1626	1093.8161	1112.2968	1154.577	1190.0424	1220.4558	1226.9756	1232.9166	1256.2787	1277.1676	1304.919	1311.8097	1315.6032	1332.9344	1341.2095	1353.0599	1391.7295	1480.8731	1483.2349	1493.3591	1495.216	1498.8812	1517.99	1686.4079	3006.8437	3020.1462	3026.2138	3037.8067	3043.2375	3052.9258	3055.5065	3071.2344	3081.5274	3085.4229	3087.4667	3101.3955	3170.2207	3196.7677
C1CCC2(C1)CCC=C2	C1CCC2(C1)CCC=C2	
InChI=1S/C9H14/c1-2-6-9(5-1)7-3-4-8-9/h1,5H,2-4,6-8H2	InChI=1S/C9H14/c1-2-6-9(5-1)7-3-4-8-9/h1,5H,2-4,6-8H2
