17
gdb 79008	3.83492	1.65169	1.40504	1.3901	75.76	-0.2227	-0.0014	0.2213	926.0379	0.137157	-384.574627	-384.568209	-384.567264	-384.604978	27.444	
O	 0.325094422	 1.4301279344	-0.1843789691	-0.437467
C	 0.0955679997	 0.0552295769	-0.0702427213	 0.040927
C	 0.0838708791	-0.6386654324	 1.3387985372	-0.16244
C	-1.3881486336	-0.1911551254	 1.6104015803	-0.054907
C	-2.0621998014	-1.5934575792	 1.6915519443	-0.150268
C	-3.2321902733	-1.5052938101	 0.6819837823	-0.080832
C	-2.7714643893	-0.805588796	-0.3667405388	-0.257016
C	-1.347483272	-0.5030532748	 0.0681339588	 0.261314
C	-0.8046502665	-1.7875925628	 0.7916399646	-0.01945
H	-0.2070318759	 1.8834686148	 0.4789150657	 0.283726
H	 0.7209444921	-0.4238985764	-0.8299314254	 0.090618
H	 0.9035928545	-0.7106648846	 2.0532279265	 0.072232
H	-1.7394680866	 0.7403380289	 2.0634509739	 0.066445
H	-2.2207270003	-2.1326166669	 2.6269795953	 0.05904
H	-4.2170237881	-1.9311617768	 0.8198847236	 0.103149
H	-3.273401914	-0.5227197686	-1.2801011584	 0.111949
H	-0.4734893464	-2.6916030208	 0.2752749907	 0.072977
196.1639	238.5196	336.0899	392.009	488.6631	542.4309	560.6003	664.7467	704.2292	759.3146	777.2971	814.8949	852.5718	865.4637	889.1937	892.8303	899.0405	922.6299	933.9933	974.6907	1044.937	1051.3402	1103.9544	1115.7865	1126.843	1142.6438	1165.0361	1172.4852	1194.5263	1205.5927	1251.1587	1273.0111	1284.8023	1304.6145	1316.473	1444.0357	1588.2097	3067.4784	3071.051	3086.379	3100.2657	3119.25	3217.7433	3250.2258	3801.8635
OC1C2C3C4C=CC13C24	O[C@H]1[C@H]2[C@@H]3[C@H]4C=C[C@@]13[C@@H]24	
InChI=1S/C8H8O/c9-7-4-5-3-1-2-8(5,7)6(3)4/h1-7,9H	InChI=1S/C8H8O/c9-7-4-5-3-1-2-8(5,7)6(3)4/h1-7,9H/t3-,4+,5+,6-,7-,8-/m0/s1
