20
gdb 36906	3.63673	1.1685	1.02582	2.2227	78.88	-0.2231	0.0784	0.3015	1224.6017	0.171246	-403.067281	-403.059063	-403.058119	-403.100784	31.796	
C	 0.382398422	 1.168449924	-0.1113607223	-0.300165
C	 0.1599529382	 0.9880269736	 1.3798971721	-0.278758
C	 0.0965485872	-0.1879193694	 0.4455031923	 0.169062
O	-1.1560785523	-0.7167597991	 0.1097823673	-0.271429
C	-1.6069845341	-1.820362828	 0.8473378432	 0.154255
C	-0.9517722641	-3.249293832	 0.6895526953	-0.277965
C	-0.9546483983	-3.3443957075	 2.2172532592	-0.038002
N	-0.0315679499	-2.2850309699	 2.674157283	-0.329036
C	-1.4448532521	-1.9409264597	 2.3679960435	-0.094434
H	-0.4162736392	 1.6365743988	-0.6757232691	 0.118912
H	 1.3817882394	 1.3813667305	-0.4738338575	 0.109966
H	 1.005547793	 1.0688074238	 2.0541099283	 0.109416
H	-0.781676838	 1.3467814926	 1.7803206622	 0.108967
H	 0.9005730928	-0.9157505226	 0.4979440388	 0.100414
H	-2.6699708591	-1.9016350582	 0.6025907032	 0.089954
H	-1.6069105142	-3.9530139887	 0.173314429	 0.103079
H	 0.0454838449	-3.2774408158	 0.2458082368	 0.113604
H	-1.1670683992	-4.2089663958	 2.8326500543	 0.094714
H	 0.0332327431	-2.3486141679	 3.6897987163	 0.22819
H	-2.0763815601	-1.5010409685	 3.1307619041	 0.089258
60.1554	74.4534	137.8096	229.4469	308.4376	360.3568	437.363	466.384	635.3444	670.4756	746.4872	787.8529	809.2405	816.732	830.5193	859.5199	897.3157	953.3254	969.7404	976.4397	994.418	1003.0841	1045.4078	1052.5732	1066.2111	1094.067	1109.9598	1126.9543	1145.5903	1158.1454	1180.2561	1191.7271	1222.0561	1243.5167	1256.5835	1298.2073	1329.5925	1380.0489	1394.5506	1415.4782	1452.6579	1476.5146	1498.12	3067.9161	3075.9948	3133.1404	3133.9142	3137.9858	3153.4419	3180.5674	3201.7239	3217.0681	3231.8337	3471.7963
C1CC1OC1CC2NC12	C1CC1O[C@H]1C[C@H]2N[C@@H]12	
InChI=1S/C7H11NO/c1-2-4(1)9-6-3-5-7(6)8-5/h4-8H,1-3H2	InChI=1S/C7H11NO/c1-2-4(1)9-6-3-5-7(6)8-5/h4-8H,1-3H2/t5-,6+,7-/m1/s1
