19
gdb 81108	2.50805	1.67455	1.23834	0.7295	86.65	-0.229	0.0111	0.2401	1068.9517	0.158878	-348.690579	-348.682479	-348.681535	-348.722675	32.913	
C	-0.1887289219	 1.5344914578	-0.0132181907	-0.436171
C	 0.0150275066	 0.0274989285	-0.0110856328	 0.01742
C	 1.2035223382	-0.5935143207	-0.843012345	-0.115222
C	 2.1352123132	-0.2085901187	 0.3520326016	-0.258757
C	 0.8576020389	-0.6189166737	 1.1810750751	 0.242233
C	 0.7568198307	-2.1032853575	 0.7730785796	-0.137396
C	 0.983637106	-2.0805296982	-0.5423778094	-0.098881
C	 0.6611065712	-0.2410255361	 2.5553307353	 0.035952
C	 0.4884703882	 0.1002580395	 3.6963038641	-0.350778
H	 0.739853066	 2.1016342557	 0.0868889114	 0.11992
H	-0.6708988999	 1.8468610383	-0.9460721021	 0.11722
H	-0.8452571021	 1.825694881	 0.8137135125	 0.130031
H	-0.942501917	-0.4768685926	-0.1679195658	 0.074351
H	 1.4141944581	-0.2872805277	-1.8670727504	 0.063752
H	 3.0266446899	-0.8188049562	 0.5075864354	 0.100876
H	 2.3778655514	 0.853340959	 0.4201307798	 0.104707
H	 0.5372276794	-2.9194214255	 1.4455425881	 0.110144
H	 1.0008307381	-2.8919653704	-1.2558480027	 0.103866
H	 0.3396851751	 0.3953183174	 4.7052750659	 0.176733
123.1127	150.7627	190.6758	274.3428	294.1514	463.3234	476.8773	496.5751	535.7911	549.2995	579.3146	626.1043	630.846	683.213	714.1218	798.3689	837.9774	882.6626	901.599	909.1379	929.0954	988.295	1037.59	1050.7809	1063.4841	1081.9812	1112.9077	1135.6444	1178.0334	1220.0432	1229.2717	1245.0692	1265.6863	1321.6338	1372.4945	1410.88	1485.834	1494.4486	1510.0835	1622.1231	2232.4896	3035.684	3065.604	3074.5702	3095.8307	3119.1165	3123.3355	3140.0736	3223.9488	3252.2751	3502.6277
CC1C2CC1(C=C2)C#C	C[C@H]1[C@H]2C[C@@]1(C=C2)C#C	
InChI=1S/C9H10/c1-3-9-5-4-8(6-9)7(9)2/h1,4-5,7-8H,6H2,2H3	InChI=1S/C9H10/c1-3-9-5-4-8(6-9)7(9)2/h1,4-5,7-8H,6H2,2H3/t7-,8+,9-/m0/s1
