19
gdb 113009	2.37754	1.17894	1.07202	3.5149	72.96	-0.2397	-0.0168	0.2229	1243.5901	0.156489	-460.137079	-460.12733	-460.126386	-460.172305	34.566	
C	 0.4294976752	 0.6696847342	 0.6460516355	-0.23834
O	 0.1121295449	-0.5373754855	-0.012217989	-0.227783
C	 0.4477999595	-0.532752972	-1.376262621	 0.09987
C	 1.9405644142	-0.8950787952	-1.6435887358	-0.281601
C	 1.5388699525	-2.393031942	-1.8263726416	-0.160556
C	 1.6932880648	-3.2301161694	-0.5792465444	 0.16486
O	 2.0309952345	-4.3879613143	-0.5928341461	-0.264604
C	 0.0629484193	-1.8836746562	-2.0249873216	 0.116323
O	-1.0028871945	-2.5573844739	-1.4230257565	-0.412538
H	 1.5092530977	 0.8810865012	 0.6375710548	 0.106959
H	-0.0920300368	 1.5240656562	 0.1880402575	 0.109442
H	 0.1003391757	 0.5658734476	 1.6822048904	 0.134611
H	 0.0562577228	 0.3720561873	-1.8623936988	 0.067602
H	 2.3328728596	-0.4583789245	-2.564396661	 0.113573
H	 2.6298129303	-0.6736081385	-0.8255897759	 0.117025
H	 1.9751567581	-2.9366357524	-2.6664611386	 0.08436
H	 1.4585234903	-2.7047924961	 0.3692820155	 0.095942
H	-0.1046548934	-1.7224978876	-3.0997951968	 0.081188
H	-1.1511070047	-3.3806800489	-1.9000669066	 0.293666
57.8857	76.5432	120.556	175.026	204.2773	208.0844	268.9136	289.3867	323.1307	406.8834	455.2694	507.0052	600.4897	727.331	795.4976	861.6715	890.589	935.9675	1000.1665	1012.7565	1051.5389	1089.5893	1132.2926	1152.5595	1177.4177	1180.4655	1194.8147	1210.0485	1254.7032	1257.2946	1267.7669	1287.2927	1341.862	1385.1205	1430.0602	1436.5237	1470.428	1480.7554	1487.6903	1507.8248	1820.0064	2928.3605	2977.9736	2988.8394	3004.6245	3026.8707	3070.0289	3097.046	3121.8434	3125.7223	3815.9372
COC1CC(C=O)C1O	CO[C@H]1C[C@@H](C=O)[C@H]1O	
InChI=1S/C6H10O3/c1-9-5-2-4(3-7)6(5)8/h3-6,8H,2H2,1H3	InChI=1S/C6H10O3/c1-9-5-2-4(3-7)6(5)8/h3-6,8H,2H2,1H3/t4-,5-,6+/m0/s1
