16
gdb 44081	3.93951	1.45693	1.21618	1.0633	69.94	-0.263	0.0114	0.2744	999.4645	0.125313	-437.831915	-437.825075	-437.824131	-437.863164	27.081	
N	-0.0614304317	 1.2201595203	-0.0846213224	-0.537371
C	-0.0502678923	-0.0286068935	-0.0125010742	 0.39698
O	 1.0317861777	-0.9146761366	 0.1029044223	-0.2948
C	 0.1289631224	-2.016707821	 0.2325091704	 0.408982
C	 0.2424521141	-3.4669122198	-0.1709622888	-0.17864
O	-0.6635823917	-3.796246106	 0.92259919	-0.294205
C	-0.5007984512	-2.4961456295	 1.5580181505	 0.052395
C	-1.7083861561	-1.5485542737	 1.3629522975	-0.265456
C	-1.1039197643	-1.1235116564	-0.0171401246	-0.213617
H	 0.8819280603	 1.6096142415	-0.0454764862	 0.234435
H	-0.1507411082	-3.7670343254	-1.1475705272	 0.118665
H	 1.2368195397	-3.9065049917	-0.0166407602	 0.118318
H	 0.0066113155	-2.5626967081	 2.5233075211	 0.08924
H	-2.6629191298	-2.0719618339	 1.2872856675	 0.128462
H	-1.7902353343	-0.7429776713	 2.0959140125	 0.125978
H	-1.7239938101	-1.179062385	-0.9105796181	 0.110632
110.7122	193.1879	280.5952	329.1305	398.901	437.7913	486.0658	622.521	714.2323	751.9508	770.2408	825.7824	873.7408	901.0369	922.5986	947.7055	971.5198	986.2406	999.2558	1041.9297	1088.6933	1096.9067	1133.268	1145.3584	1166.6262	1216.6855	1248.0312	1267.3102	1280.7229	1305.6319	1313.8966	1366.6908	1458.3183	1517.6631	1828.7836	3016.2558	3074.2692	3080.5054	3087.3197	3128.7019	3139.4374	3479.7348
N=C1OC23COC2CC13	[NH][C]1O[C@@]23CO[C@@H]2C[C@@H]13	
InChI=1S/C6H7NO2/c7-5-3-1-4-6(3,9-5)2-8-4/h3-4,7H,1-2H2	InChI=1S/C6H7NO2/c7-5-3-1-4-6(3,9-5)2-8-4/h3-4,7H,1-2H2/t3-,4+,6+/m0/s1
