15
gdb 35463	3.44013	1.54226	1.43529	1.6661	69.42	-0.249	-0.0061	0.2429	928.5737	0.112977	-420.570992	-420.564148	-420.563204	-420.602156	27.502	
C	-0.0942264284	-1.2405930592	-0.1378668895	-0.454642
C	-0.0468740384	-0.0459197581	-0.0181361887	 0.326819
C	 0.005358885	 1.4046395786	 0.0772095993	-0.062517
O	-0.4944462399	 1.898365415	 1.3322111879	-0.286138
C	 0.5791196284	 2.7486393019	 1.8192505706	 0.131355
O	 1.1156313432	 3.3028954859	 0.6392754953	-0.224561
C	 1.4556196476	 2.0375545948	 0.0546245395	-0.033189
C	 2.2356180753	 1.3575515103	 1.1684288692	-0.091575
C	 1.6890707881	 1.8182461667	 2.2945506642	-0.070883
H	-0.1384861393	-2.297261929	-0.2353742692	 0.200704
H	-0.581584423	 1.8571137066	-0.7304806622	 0.119941
H	 0.164772862	 3.5021785028	 2.4847042017	 0.101594
H	 1.905147516	 2.1498733773	-0.9286204515	 0.103405
H	 2.9675604143	 0.575198425	 1.0328719054	 0.121777
H	 1.8623054093	 1.5156261214	 3.3170517881	 0.117911
115.6015	151.9943	298.7667	389.8141	472.1553	500.9225	547.7342	628.7184	641.1159	665.6828	715.7893	748.1485	804.4588	835.438	861.7192	863.1049	915.9593	935.3073	947.3129	968.6922	1010.0665	1050.1128	1079.6325	1149.5518	1212.3884	1243.3981	1270.0684	1309.8378	1331.3023	1337.1375	1357.5836	1635.5032	2239.9721	3038.3668	3159.9385	3163.9975	3233.0508	3257.7243	3503.046
C#CC1OC2OC1C=C2	C#C[C@H]1O[C@@H]2O[C@H]1C=C2	
InChI=1S/C7H6O2/c1-2-5-6-3-4-7(8-5)9-6/h1,3-7H	InChI=1S/C7H6O2/c1-2-5-6-3-4-7(8-5)9-6/h1,3-7H/t5-,6+,7-/m1/s1
