19
gdb 37705	2.65383	2.25139	2.05677	1.3993	75.72	-0.2197	0.085	0.3046	820.2328	0.164286	-385.879683	-385.873974	-385.87303	-385.909251	25.957	
C	-0.0350813439	 1.5473816016	 0.0112082842	-0.23251
C	 1.463080165	 1.8808563388	 0.0475893976	-0.044917
C	 2.125507196	 1.4674684337	 1.3738700438	-0.117738
C	 1.7200068692	 0.0495537854	 1.6481894873	 0.116831
O	 0.4718739944	-0.4747965262	 1.2679320392	-0.280491
C	 0.0160421456	 0.0063703047	-0.0043795614	 0.10332
C	 1.0739270155	-0.2981432482	-1.0840674431	-0.23251
C	 2.1896448532	 0.6717629514	-0.6699785647	-0.044917
C	 2.8349997048	 0.2867779962	 0.6731625088	-0.117739
H	-0.5864072738	 1.9289899341	 0.8751798788	 0.102303
H	-0.5133775104	 1.9182351095	-0.9020560072	 0.09228
H	 1.7370321618	 2.872189009	-0.3122696938	 0.065648
H	 2.4824021756	 2.139696365	 2.1457109971	 0.079985
H	 2.0010664632	-0.3549265787	 2.6143237136	 0.099945
H	-0.9493007162	-0.4761799499	-0.1687318413	 0.070295
H	 1.3823595839	-1.3472764333	-1.0692054555	 0.102303
H	 0.6771909471	-0.0630160014	-2.0778818571	 0.09228
H	 2.8936979308	 0.9473569346	-1.4546098572	 0.065648
H	 3.8343199984	-0.1100753763	 0.8105280209	 0.079985
320.7477	392.3772	400.5251	463.4058	536.9538	624.5498	647.0361	732.7488	780.175	806.1924	811.4816	834.6567	861.0247	869.3059	912.9554	933.1944	953.268	981.8092	996.6827	1017.4733	1025.8982	1042.2157	1062.8855	1082.8949	1096.0173	1138.0822	1147.0537	1163.5202	1218.1043	1230.369	1256.2472	1278.7652	1280.4355	1316.0871	1321.4241	1342.1613	1350.3626	1370.7317	1441.3653	1468.5846	1483.8075	3040.1778	3045.4332	3094.9581	3097.2776	3100.6754	3102.9795	3113.8073	3167.303	3171.3685	3185.5457
C1C2C3C4OC1CC2C34	C1[C@H]2[C@H]3[C@H]4O[C@@H]1C[C@@H]2[C@@H]34	
InChI=1S/C8H10O/c1-3-2-5-4(1)6-7(5)8(6)9-3/h3-8H,1-2H2	InChI=1S/C8H10O/c1-3-2-5-4(1)6-7(5)8(6)9-3/h3-8H,1-2H2/t3-,4+,5-,6+,7-,8+
