17
gdb 38195	3.29584	1.86448	1.8434	0.9251	71.51	-0.2312	0.0648	0.2961	833.2052	0.13719	-421.691371	-421.685289	-421.684345	-421.721303	26.561	
C	-0.0315329404	 1.5984796116	 0.0082630208	-0.29204
C	 1.4840434215	 1.2563247597	 0.0078424673	 0.070743
C	 1.7185514122	 0.624893759	 1.4396741222	-0.378809
C	 0.5499155383	-0.3524372517	 1.3192850467	 0.38572
C	 0.3723145406	-1.8386829948	 0.9351523387	-0.280087
C	-0.9149243478	-1.0684947912	 0.5414530996	-0.078144
O	-0.8502373067	-0.3545267644	 1.8576137527	-0.361374
C	-0.0289141992	 0.0732164642	-0.0182985032	 0.375861
O	 1.1692037211	 0.0964513123	-0.8591939205	-0.344082
H	-0.47097512	 2.1025250993	 0.8692447003	 0.118387
H	-0.3381241474	 2.0450675158	-0.937916522	 0.114358
H	 2.2449937373	 1.909016269	-0.4184655377	 0.089682
H	 2.6836178081	 0.1226549888	 1.5308840565	 0.124125
H	 1.6195311744	 1.3610959028	 2.2404992685	 0.127719
H	 1.0076170278	-2.2200687866	 0.1352234178	 0.123095
H	 0.2428537142	-2.5323825089	 1.7661906605	 0.108153
H	-1.896050154	-1.4400477649	 0.2444796717	 0.096695
250.565	308.627	399.1208	456.1312	470.0159	536.5315	579.2428	635.1261	701.3888	750.1428	782.3873	800.6433	854.865	865.4084	908.2194	928.7414	951.2622	959.8923	988.8286	1010.8	1062.1665	1076.5932	1089.4503	1139.3988	1152.0556	1166.0262	1188.9438	1193.7142	1216.7526	1243.5144	1250.1317	1268.9846	1314.0889	1326.9351	1462.5316	1476.6348	1490.2664	3078.2392	3084.2499	3088.8727	3116.8684	3132.6751	3136.1255	3160.6149	3165.667
C1C2CC34CC(O3)C14O2	C1[C@H]2C[C@@]34C[C@@H](O3)[C@@]14O2	
InChI=1S/C7H8O2/c1-4-2-7(8-4)5-3-6(1,7)9-5/h4-5H,1-3H2	InChI=1S/C7H8O2/c1-4-2-7(8-4)5-3-6(1,7)9-5/h4-5H,1-3H2/t4-,5-,6+,7+/m1/s1
