15
gdb 130981	4.18227	0.97333	0.8188	2.8672	67.62	-0.2212	-0.0368	0.1843	1312.4451	0.113805	-450.122973	-450.114771	-450.113827	-450.157203	28.793	
O	 0.8145943467	 1.0231865789	 1.2624671656	-0.233306
C	 0.530387752	 1.6899080841	 0.3038476995	 0.172155
C	 1.1563687189	 1.5115838169	-1.07752974	-0.265473
N	 1.2518559788	 2.77095697	-1.7858652114	-0.389081
C	 2.3032218801	 3.6211409587	-1.4870972607	 0.369994
N	 2.6877639961	 4.5815417653	-2.3305135089	-0.311841
N	 3.6756368448	 5.1823145598	-1.6612070193	-0.073005
N	 3.9679654554	 4.6983449013	-0.4713806579	-0.190639
C	 3.1048448559	 3.689831276	-0.3251596244	-0.126116
H	-0.2340713284	 2.4984277374	 0.3422267101	 0.093172
H	 2.1141959225	 0.9837338868	-0.964550667	 0.132058
H	 0.4802771572	 0.8542447833	-1.6381320575	 0.138559
H	 1.0401830117	 2.7402726446	-2.7713264372	 0.254321
H	 4.1731191067	 5.9640359707	-2.0536318458	 0.293369
H	 3.0967130218	 3.0869223762	 0.5678060949	 0.135833
48.2139	65.0005	105.2842	199.8984	293.6005	366.4961	412.7544	461.7346	499.0044	624.4715	677.2037	705.6384	739.76	780.3069	844.745	993.295	1014.4598	1038.9098	1097.3746	1133.0115	1179.523	1206.7248	1239.6087	1285.697	1330.4995	1350.9193	1397.9279	1410.6841	1452.3405	1486.0093	1523.6883	1610.7812	1840.5077	2889.3272	3005.1182	3067.5124	3277.2293	3619.2109	3679.9754
O=CCNC1=NNN=C1	O=CCNc1n[nH]nc1	
InChI=1S/C4H6N4O/c9-2-1-5-4-3-6-8-7-4/h2-3H,1H2,(H2,5,6,7,8)	InChI=1S/C4H6N4O/c9-2-1-5-4-3-6-8-7-4/h2-3H,1H2,(H2,5,6,7,8)
