25
gdb 121844	3.7712	0.71692	0.70514	0.2508	86.99	-0.2465	0.0822	0.3288	1798.6677	0.224606	-426.619512	-426.607499	-426.606554	-426.657241	42.579	
C	 0.021543816	 1.4657772095	 0.0098242204	-0.386846
C	-0.0101783387	-0.0529820745	 0.0019398211	-0.021714
O	-1.3574890707	-0.4779529983	 0.012433606	-0.249617
C	-1.502047286	-1.8804138639	 0.0062811378	-0.076959
C	-2.9959700681	-2.2439832539	 0.0185502902	 0.338722
C	-3.6555496127	-1.7052871129	 1.295452947	-0.423147
C	-3.6797100657	-1.6914735297	-1.2396122434	-0.423126
O	-2.9444500304	-3.6766281568	 0.010217936	-0.283327
C	-4.170392607	-4.3702052809	 0.0185638153	-0.242463
H	 1.0548430823	 1.8253296954	 0.0019152072	 0.114905
H	-0.4918291054	 1.8655007966	-0.869416974	 0.125629
H	-0.4749454789	 1.855959133	 0.9029373977	 0.125627
H	 0.5041233693	-0.4470438368	-0.8909901755	 0.08658
H	 0.5209336835	-0.4566006996	 0.8806464703	 0.08658
H	-1.0348556009	-2.3207732956	-0.8889029149	 0.089477
H	-1.0179369535	-2.3303180914	 0.8876213676	 0.089472
H	-3.4699548118	-0.6318351558	 1.3761447509	 0.134608
H	-4.7375562031	-1.8646987165	 1.2960934437	 0.108622
H	-3.2309187421	-2.1977479474	 2.175919892	 0.114478
H	-3.272029629	-2.1743496843	-2.1332981148	 0.114477
H	-4.7615623498	-1.8508845474	-1.2213552889	 0.108619
H	-3.4954985479	-0.6172028088	-1.3121766174	 0.134609
H	-3.9229700047	-5.4351408042	 0.0096345742	 0.124552
H	-4.7686500173	-4.163786924	 0.9170283587	 0.105123
H	-4.7868534175	-4.1530861517	-0.8649447673	 0.10512
55.9623	66.2619	78.2335	111.8852	149.0107	176.7675	236.9351	247.7184	255.6592	263.1197	307.8761	340.6201	350.6846	376.4693	456.7174	500.1855	566.4561	750.5403	820.9903	874.5678	902.1985	910.7451	963.2886	1002.858	1038.7705	1044.8464	1112.9052	1152.4267	1166.892	1179.5041	1182.1054	1200.8359	1210.5392	1215.5436	1289.8009	1293.2071	1296.4699	1377.8384	1390.9599	1401.0413	1409.9321	1447.0522	1475.0249	1480.0089	1484.0788	1485.5287	1499.0492	1499.9154	1501.3662	1505.28	1513.7149	1520.2795	1536.1937	2953.6831	2972.557	2979.6397	2994.3925	3006.0158	3038.1019	3044.3432	3046.1137	3046.7083	3104.9206	3110.4263	3114.2276	3118.8929	3120.1157	3129.7255	3134.011
CCOCC(C)(C)OC	CCOCC(C)(C)OC	
InChI=1S/C7H16O2/c1-5-9-6-7(2,3)8-4/h5-6H2,1-4H3	InChI=1S/C7H16O2/c1-5-9-6-7(2,3)8-4/h5-6H2,1-4H3
