22
gdb 13405	5.51502	0.95078	0.85595	1.7353	78.32	-0.2375	0.0823	0.3198	1407.4229	0.200971	-350.219236	-350.210139	-350.209195	-350.254258	32.426	
C	 0.0358220045	 1.5871246531	 0.1299857816	-0.379841
C	 0.0117724373	 0.0627822695	-0.0114235569	-0.170283
C	-1.4096017582	-0.5149001695	-0.0136472114	-0.191215
C	-1.4649565291	-2.0405728518	-0.1073135504	 0.009971
C	-2.8814796251	-2.6405530621	-0.0814496491	-0.247541
C	-2.6563378001	-4.0250641828	-0.693658145	-0.067077
O	-1.5723976228	-3.8871710073	-1.6127099874	-0.265246
C	-0.9262894858	-2.6311783136	-1.4216112886	-0.061713
H	 1.0600183215	 1.972816969	 0.1326046782	 0.112157
H	-0.4993675631	 2.0697602707	-0.6954141843	 0.114526
H	-0.4427960865	 1.9049983422	 1.0630569649	 0.113723
H	 0.5280695114	-0.2246093481	-0.9362472906	 0.101999
H	 0.5838362711	-0.3911096768	 0.8088149952	 0.0954
H	-1.9267656545	-0.1932604316	 0.900479383	 0.09261
H	-1.9774652142	-0.0843164274	-0.8509376498	 0.092547
H	-0.8914097809	-2.469491299	 0.7262005277	 0.073915
H	-3.3154672961	-2.6835028868	 0.921023047	 0.09986
H	-3.5501679225	-2.0441673664	-0.7139576566	 0.101858
H	-2.391306908	-4.7611027602	 0.0808644891	 0.089792
H	-3.5307215743	-4.4067711689	-1.2328089882	 0.09997
H	-1.1573470327	-1.9612121398	-2.2663746645	 0.084321
H	 0.157378358	-2.7925051024	-1.4099274039	 0.100265
36.8964	78.4217	95.4015	120.1853	199.3432	247.9035	306.72	361.4654	439.1605	599.8839	675.2092	745.05	845.5723	857.0501	894.9805	905.2611	922.2169	965.2528	977.3607	1022.3743	1041.1531	1078.6186	1083.1928	1129.2593	1149.709	1182.9715	1188.924	1233.7419	1244.968	1277.0164	1287.424	1321.8257	1325.5096	1351.5651	1356.6089	1382.2117	1395.477	1409.6001	1414.1676	1481.4238	1490.2649	1493.5763	1499.0439	1509.5329	1522.9163	1534.9082	2963.1717	2983.9443	3000.8277	3007.0801	3017.6358	3028.9291	3031.2729	3036.1933	3054.7407	3056.1883	3057.0185	3095.6436	3099.9344	3102.0906
CCCC1CCOC1	CCC[C@H]1CCOC1	
InChI=1S/C7H14O/c1-2-3-7-4-5-8-6-7/h7H,2-6H2,1H3	InChI=1S/C7H14O/c1-2-3-7-4-5-8-6-7/h7H,2-6H2,1H3/t7-/m0/s1
