14
gdb 49828	2.37654	1.54646	1.11825	3.2234	64.11	-0.2606	-0.0505	0.21	1058.2237	0.099135	-473.813676	-473.80561	-473.804666	-473.846865	28.7	
O	-0.0462387877	-0.0022173656	-0.2602259821	-0.240712
C	-0.0058466195	 1.1590005377	 0.054459152	 0.145203
C	 1.247504266	 1.9987102546	-0.000669679	-0.137243
N	 2.4445623757	 1.3103577729	-0.4812144696	-0.350025
C	 2.5963031286	 2.0471072862	-1.6463177767	 0.396905
O	 3.3516055845	 1.9831462816	-2.571900257	-0.34263
C	 1.387653255	 2.9156787776	-1.25547936	 0.257581
C	 0.3928820403	 3.5744587867	-2.1033938128	-0.252537
O	 1.3079974528	 4.3091350778	-1.2746476273	-0.246478
H	-0.9075188869	 1.7017816129	 0.4151517123	 0.090986
H	 1.3787410115	 2.5467970459	 0.9407331987	 0.125866
H	 2.6949376523	 0.3462193168	-0.3151242411	 0.269655
H	 0.5775403416	 3.6419105593	-3.1730848036	 0.151503
H	-0.6489264241	 3.6084838057	-1.790632004	 0.131926
84.32	91.3744	207.3036	216.7362	247.7267	260.3961	366.6419	438.632	510.6249	646.0503	712.8542	731.2676	774.0943	833.3977	907.2165	931.9544	960.4043	1062.4232	1090.5595	1101.8743	1122.9654	1156.6445	1169.1884	1240.9238	1329.9806	1363.9124	1414.8029	1430.7096	1528.8323	1828.2382	1911.4817	2890.5928	3038.7346	3097.4723	3194.2857	3620.6415
O=CC1NC(=O)C11CO1	O=C[C@H]1NC(=O)[C@]21CO2	
InChI=1S/C5H5NO3/c7-1-3-5(2-9-5)4(8)6-3/h1,3H,2H2,(H,6,8)	InChI=1S/C5H5NO3/c7-1-3-5(2-9-5)4(8)6-3/h1,3H,2H2,(H,6,8)/t3-,5-/m1/s1
