22
gdb 89303	1.95682	1.83313	1.13315	1.9646	83.4	-0.2094	0.0798	0.2892	1188.624	0.192369	-404.313011	-404.303548	-404.302604	-404.34673	35.99	
C	 0.2544833894	 1.561154264	-0.1191363178	-0.411301
C	 0.0378626043	 0.0767984627	 0.0626716975	 0.155416
O	 0.8378014465	-0.7379285526	-0.8470134332	-0.36172
C	 1.2786746283	-1.6077305248	 0.224218592	 0.45037
C	 0.9606679902	-3.0568651755	-0.0319855314	-0.476292
C	 2.6556829143	-1.1955312138	 0.7935326945	-0.220685
N	 1.9985093282	-0.1574677807	 1.6250662375	-0.064259
C	 2.3631004174	-0.0780390878	 3.0207924754	-0.326703
C	 0.6508709079	-0.6544560416	 1.2766935462	-0.129003
H	 1.2852822279	 1.8231973925	 0.1281584993	 0.133997
H	 0.0480563937	 1.8463111637	-1.1554122494	 0.122072
H	-0.422339136	 2.1276169216	 0.5304378846	 0.107779
H	-1.0246515859	-0.1817692094	-0.0611447294	 0.066917
H	 1.5192309751	-3.4141309382	-0.9048695657	 0.130283
H	 1.2319040951	-3.6801709712	 0.8255773507	 0.115734
H	-0.1052274024	-3.1893128087	-0.2396325985	 0.124285
H	 3.115961888	-1.9988474942	 1.3907244214	 0.082999
H	 3.385474235	-0.8123724376	 0.0727623862	 0.106726
H	 3.4028162359	 0.2542231652	 3.1118243715	 0.122632
H	 1.7330648825	 0.6593155788	 3.5292216284	 0.120838
H	 2.2685770327	-1.0398799801	 3.5618512134	 0.086529
H	 0.0091721318	-0.9530656623	 2.1099698068	 0.063386
94.0045	149.9323	193.9196	203.9731	206.6234	226.7965	298.4885	308.5548	329.3362	405.5244	417.7613	542.4795	607.469	679.212	747.3127	842.2302	877.2713	897.4096	939.0502	955.8948	965.5109	992.9065	1044.9508	1079.9274	1102.3966	1127.8077	1143.9584	1167.5611	1185.1834	1197.0647	1224.3909	1228.7171	1282.0403	1315.0446	1328.361	1360.192	1382.9446	1403.1185	1410.6064	1453.3426	1479.0716	1481.7469	1483.1996	1488.6732	1496.4084	1500.9182	1503.0953	2914.1463	2975.2418	2984.7804	3032.1722	3037.3553	3053.5471	3068.3051	3072.6746	3097.1214	3099.5296	3103.3554	3114.0776	3135.5933
CC1OC2(C)CN(C)C12	C[C@H]1O[C@@]2(C)CN(C)[C@@H]12	
InChI=1S/C7H13NO/c1-5-6-7(2,9-5)4-8(6)3/h5-6H,4H2,1-3H3	InChI=1S/C7H13NO/c1-5-6-7(2,9-5)4-8(6)3/h5-6H,4H2,1-3H3/t5-,6+,7+/m1/s1
