19
gdb 39120	3.81133	1.14675	1.07096	1.0178	75.54	-0.2465	0.0649	0.3114	1194.3975	0.159322	-422.966778	-422.958734	-422.95779	-423.000172	30.195	
C	 0.0443259558	 1.4479748462	-0.1941450788	-0.060414
C	 1.5328631365	 1.4689122039	 0.2004963125	-0.299701
C	 1.2695009978	 0.0280637944	 0.7057004813	 0.025403
O	-0.0752209531	 0.0530122314	 0.1653999775	-0.29387
C	 2.0790089541	-1.0829086022	 0.1325308756	 0.439206
C	 2.2519880526	-1.5002852428	-1.3380468082	-0.300769
C	 2.4902384861	-2.9701187264	-0.8401483173	-0.237307
C	 2.306740063	-2.4656975985	 0.5970521097	-0.048969
O	 3.2869905894	-1.4438749173	 0.8194765833	-0.297882
H	-0.6071781304	 2.0815503225	 0.4209082987	 0.103034
H	-0.189392705	 1.6185633164	-1.2508878041	 0.106891
H	 2.22360649	 1.5209100549	-0.6430619578	 0.116981
H	 1.8314821306	 2.1941529627	 0.9575989487	 0.116207
H	 1.2650312536	-0.0655003634	 1.7998346532	 0.080556
H	 1.328916156	-1.3979288977	-1.9113476686	 0.120886
H	 3.0778365744	-1.0184984094	-1.8666762829	 0.103753
H	 1.7002004436	-3.6531452847	-1.159770989	 0.110569
H	 3.4665534732	-3.4115870784	-1.0524433858	 0.111583
H	 1.9351071118	-2.9893322117	 1.470840342	 0.103842
64.1549	82.3735	139.5403	201.0306	264.2061	362.5279	475.4559	486.8879	634.7708	741.454	774.8971	779.731	842.0809	880.5121	909.9233	921.7386	932.1554	953.9407	966.4589	1006.9596	1023.1286	1027.7024	1058.4695	1100.4274	1146.5156	1165.6352	1203.7307	1212.4886	1217.2143	1220.0104	1256.2742	1263.4538	1267.5255	1301.7874	1346.4708	1355.5042	1461.8886	1463.398	1489.4963	1494.0458	1531.7624	3013.9996	3020.9334	3062.4452	3066.9231	3073.5929	3084.6023	3121.3082	3138.2974	3142.0999	3182.5322
C1CC(O1)C12CCC1O2	C1C[C@@H](O1)[C@]12CC[C@H]1O2	
InChI=1S/C7H10O2/c1-3-7(6(1)9-7)5-2-4-8-5/h5-6H,1-4H2	InChI=1S/C7H10O2/c1-3-7(6(1)9-7)5-2-4-8-5/h5-6H,1-4H2/t5-,6-,7-/m1/s1
