17
gdb 33628	3.06086	1.55165	1.35821	1.4674	87.59	-0.2161	-0.0384	0.1777	1001.8613	0.135708	-347.420779	-347.413522	-347.412577	-347.452126	29.683	
C	-0.3422766227	-1.3045312388	 0.0716938014	-0.358634
C	-0.189384901	-0.1128549201	-0.0046200506	 0.058135
C	-0.0039031381	 1.2888436187	-0.0962494394	 0.230726
C	-0.5295276761	 2.4279423737	 0.7562569401	-0.126167
C	 0.917606393	 2.7753787493	 1.2672438125	-0.263801
C	 1.3177084257	 2.106769979	-0.0539927891	-0.006871
C	 1.4209623237	 2.9103402201	-1.1298006896	-0.095508
C	 0.0925395016	 2.942927395	-1.8780764174	-0.267097
C	-0.8137152525	 2.33768036	-0.790095871	-0.10293
H	-0.4750129015	-2.3556937905	 0.1367092779	 0.178392
H	-1.3884191723	 2.3542237597	 1.4189651114	 0.105755
H	 1.2066057322	 3.8219610037	 1.3957942918	 0.104236
H	 1.1098406046	 2.2102289637	 2.1857024718	 0.116363
H	 2.0625105544	 3.7874752394	-1.128895933	 0.101383
H	-0.1362365501	 3.9850886369	-2.1310330684	 0.113409
H	 0.0098259867	 2.3620310122	-2.8073062107	 0.1188
H	-1.8619336476	 2.139503028	-1.0055620479	 0.093811
122.8527	151.1256	274.8805	377.1235	390.9737	507.2747	525.6344	533.1575	580.5783	610.3226	645.8965	678.3648	738.0305	796.695	835.0923	876.6286	895.8956	928.3113	951.5054	975.2582	991.9818	1019.522	1046.2074	1068.2438	1098.8453	1133.0535	1171.8056	1176.2198	1239.6827	1270.745	1293.4731	1299.5245	1415.589	1472.8607	1500.4949	1593.9483	2234.071	3007.3698	3036.3015	3056.0768	3100.1713	3136.199	3146.7434	3161.1634	3503.0887
C#CC12C3CC1=CCC23	C#C[C@@]12[C@H]3C[C]1[CH]C[C@@H]23	
InChI=1S/C9H8/c1-2-9-6-3-4-7(9)8(9)5-6/h1,3,7-8H,4-5H2	InChI=1S/C9H8/c1-2-9-6-3-4-7(9)8(9)5-6/h1,3,7-8H,4-5H2/t7-,8+,9-/m1/s1
