20
gdb 18362	3.10652	2.17599	1.56528	1.6907	73.66	-0.2417	0.078	0.3198	892.0195	0.179238	-349.009923	-349.002604	-349.00166	-349.041258	28.713	
C	-0.080029883	 1.5397979008	 0.048023157	-0.408109
C	 0.114204821	 0.0266580921	-0.0327488644	 0.029631
C	 1.0535156873	-0.4542786616	-1.1596476942	-0.219858
C	 1.4283734768	-1.8933167447	-0.7519076987	-0.229885
C	 1.5360038137	-1.8476014754	 0.7810646373	-0.06659
C	 2.7497217777	-1.0864687892	 1.3511138671	-0.075973
O	 1.9515540032	 0.0802219879	 1.6400980107	-0.298102
C	 0.7346977313	-0.5914383051	 1.2251355722	 0.128168
H	 0.86860628	 2.0285376439	 0.2873769653	 0.134472
H	-0.4465889574	 1.9421893368	-0.9018676088	 0.108216
H	-0.8027856449	 1.8097890862	 0.825516832	 0.109498
H	-0.8632930767	-0.460148149	-0.1689654818	 0.066347
H	 0.5913530247	-0.3981529509	-2.149280359	 0.092281
H	 1.9465601683	 0.1815022908	-1.1819224493	 0.10833
H	 0.627668087	-2.5841803518	-1.0415775487	 0.097757
H	 2.3478287578	-2.250216123	-1.2274693112	 0.095827
H	 1.3127450539	-2.7988434073	 1.2653099856	 0.071443
H	 3.1816649877	-1.5162385572	 2.2641527336	 0.096531
H	 3.5607573505	-0.8680550695	 0.6437263453	 0.096312
H	 0.0329454911	-0.6834805438	 2.06225437	 0.063702
116.2476	182.2183	214.4565	238.8437	321.2027	362.7525	503.9658	583.7554	589.287	785.9291	822.2113	848.33	875.6778	895.9803	932.2196	940.3811	952.5234	993.6148	1000.188	1028.3515	1070.8429	1081.0708	1136.6799	1149.1374	1163.9807	1196.2292	1201.2028	1253.6444	1264.4493	1304.7448	1308.4392	1330.9833	1336.7397	1358.7351	1370.4567	1379.2309	1406.5014	1484.5219	1494.0697	1497.0266	1504.1191	1523.7373	2993.3715	3002.4274	3033.01	3033.2531	3038.3633	3039.6403	3043.3759	3077.4097	3092.8838	3096.5018	3104.0909	3117.2267
CC1CCC2COC12	C[C@H]1CC[C@H]2CO[C@@H]12	
InChI=1S/C7H12O/c1-5-2-3-6-4-8-7(5)6/h5-7H,2-4H2,1H3	InChI=1S/C7H12O/c1-5-2-3-6-4-8-7(5)6/h5-7H,2-4H2,1H3/t5-,6-,7-/m0/s1
