22
gdb 118517	1.94656	0.8813	0.64514	3.4679	83.34	-0.276	0.0341	0.3101	1744.2729	0.192387	-404.367007	-404.355885	-404.35494	-404.404548	38.767	
C	 0.1456156686	 1.4818933586	-0.1250612887	-0.393809
C	 0.0193166062	-0.0441505666	-0.0905055064	-0.190594
C	-1.4213656109	-0.5604564623	 0.0924839406	 0.021881
C	-2.2851052363	-0.3263542162	-1.1587080743	-0.186928
C	-3.7887645289	-0.4603622539	-0.9366191687	-0.083747
O	-4.4244745888	-0.1551051323	-2.1676256063	-0.417887
C	-1.4119460643	-2.0674823443	 0.4621439148	-0.356415
C	-0.7705010467	-2.3415583946	 1.7462993165	 0.266123
N	-0.2674868645	-2.5420063043	 2.76753713	-0.315125
H	 1.1942278927	 1.7786377415	-0.2210516023	 0.120503
H	-0.3970098601	 1.926465795	-0.9648334361	 0.122707
H	-0.2417502674	 1.9286573702	 0.7971775962	 0.120899
H	 0.4355363558	-0.4738199397	-1.0121910946	 0.097043
H	 0.6349424071	-0.4267084706	 0.7316960693	 0.122305
H	-1.8707049826	-0.0185587852	 0.9362084046	 0.089505
H	-2.1079442366	 0.6827514353	-1.5429007241	 0.115349
H	-1.982236593	-1.0168312062	-1.956652677	 0.105989
H	-4.0506227612	-1.4776107153	-0.6039448205	 0.084687
H	-4.1051998411	 0.2322343669	-0.1392498517	 0.09111
H	-5.374768896	-0.238996476	-2.0467430532	 0.288345
H	-2.4310212854	-2.4648278871	 0.5059944734	 0.148048
H	-0.8876288864	-2.6346528531	-0.3171031415	 0.150011
48.0375	67.8884	80.9142	93.3278	147.2955	186.4389	236.5678	243.0018	271.5295	319.6408	390.6546	399.9818	425.8661	475.0605	585.1442	774.9451	784.2439	823.1306	918.9649	950.7923	966.3266	991.9767	1033.4096	1052.1018	1073.9685	1122.6976	1131.7778	1149.8213	1214.9944	1245.3322	1253.1547	1296.329	1306.0396	1323.8326	1336.5174	1352.7287	1391.1061	1392.0394	1416.3217	1464.5262	1465.9213	1486.2686	1491.7156	1501.3561	1507.1902	1527.5382	2358.8472	2961.8796	2986.822	3008.7599	3018.2305	3033.2364	3037.1117	3042.2657	3061.7313	3086.4431	3088.3282	3104.397	3110.5269	3831.0783
CCC(CCO)CC#N	CC[C@@H](CCO)CC#N	
InChI=1S/C7H13NO/c1-2-7(3-5-8)4-6-9/h7,9H,2-4,6H2,1H3	InChI=1S/C7H13NO/c1-2-7(3-5-8)4-6-9/h7,9H,2-4,6H2,1H3/t7-/m1/s1
