23
gdb 112042	2.21546	1.45159	1.11272	1.0291	87.21	-0.2412	0.0209	0.2621	1241.4037	0.204499	-388.297881	-388.288057	-388.287113	-388.332123	37.454	
C	 0.1125830303	 1.6153230215	-0.4970445672	-0.236626
O	-0.2796415505	 0.265291622	-0.5540608545	-0.24552
C	 0.7121063606	-0.6044751501	-1.0747146498	 0.088402
C	 1.8143235281	-0.9847887906	-0.1088489695	-0.106139
C	 2.1133507884	-2.2778385541	-0.2063263056	-0.067248
C	 1.2526215841	-2.9791378772	-1.2284394566	-0.291146
C	 0.0853003264	-1.9764395971	-1.4834425763	 0.260991
C	-1.0900032187	-2.3235067799	-0.552088536	-0.407875
C	-0.3888489796	-1.9682713376	-2.940469938	-0.445522
H	 0.9517227325	 1.782421326	 0.1951342457	 0.104717
H	 0.4076312211	 1.9953892685	-1.4883299137	 0.102918
H	-0.747716447	 2.1883531853	-0.1416024199	 0.125434
H	 1.1544921906	-0.1214735379	-1.966258275	 0.059614
H	 2.3108153232	-0.2641580349	 0.5308963813	 0.093074
H	 2.8987254482	-2.7841956259	 0.3449714926	 0.092645
H	 1.822893242	-3.1661965149	-2.1497071885	 0.100291
H	 0.8907333105	-3.9563975304	-0.8876040825	 0.098961
H	-0.7701834732	-2.3551915748	 0.4934468247	 0.11518
H	-1.8898103167	-1.5852476435	-0.63396784	 0.125112
H	-1.4942947641	-3.3063636241	-0.8171918765	 0.099305
H	-0.8158954098	-2.9366558749	-3.2235664292	 0.108676
H	-1.1616215654	-1.2065938826	-3.0906846542	 0.119264
H	 0.435918289	-1.7528940128	-3.6288258815	 0.105492
80.0556	98.0808	178.7037	209.9727	234.1078	259.4134	289.3935	305.9587	341.1737	345.1886	415.169	485.7686	528.5994	591.2438	712.2723	757.5898	818.0886	900.0334	932.7499	955.9089	965.5793	972.909	981.7553	1010.1488	1039.8011	1051.6393	1117.84	1131.888	1162.8758	1183.5254	1200.9951	1222.9042	1231.2999	1267.0394	1303.5664	1339.023	1361.1735	1388.1852	1396.8892	1419.0481	1479.4244	1480.2509	1487.1536	1489.2517	1494.6142	1502.4945	1509.9945	1511.7375	1685.8689	2915.7182	2971.6436	3002.4628	3017.4408	3023.5178	3038.517	3048.5725	3090.3893	3095.561	3105.924	3108.9533	3133.0912	3178.259	3206.4019
COC1C=CCC1(C)C	CO[C@H]1C=CCC1(C)C	
InChI=1S/C8H14O/c1-8(2)6-4-5-7(8)9-3/h4-5,7H,6H2,1-3H3	InChI=1S/C8H14O/c1-8(2)6-4-5-7(8)9-3/h4-5,7H,6H2,1-3H3/t7-/m0/s1
