19
gdb 75179	4.70648	0.97752	0.83789	1.5779	85.04	-0.2401	0.0197	0.2597	1380.8425	0.158109	-385.864822	-385.855903	-385.854959	-385.898222	33.869	
C	 0.0447971128	 1.5202152663	 0.0871525517	-0.480187
C	-0.0180969001	 0.0243613943	-0.0348658352	 0.294397
C	-0.0715232823	-0.6256923214	-1.1978175298	-0.168265
C	-0.079200634	-2.1282193351	-1.2863635894	-0.255109
C	 0.3822757555	-2.7293670534	 0.0534125556	-0.072439
O	-0.3257610653	-2.1182626157	 1.1280601841	-0.258574
C	-0.0096302681	-0.7462408526	 1.264375792	-0.146372
C	 0.1747907106	-4.1722316546	 0.1191366476	 0.296759
C	 0.0149977262	-5.3625178784	 0.1317552246	-0.408544
H	 0.9390455117	 1.838171063	 0.6390692174	 0.125315
H	 0.0670857716	 1.9999167345	-0.894748219	 0.125371
H	-0.8182796174	 1.9127616545	 0.6401645416	 0.126175
H	-0.1004845786	-0.0682667942	-2.131364262	 0.081996
H	-1.0802502103	-2.5079191893	-1.5272095951	 0.124139
H	 0.5860958586	-2.4742772874	-2.0863362239	 0.113023
H	 1.46075539	-2.522768	 0.1693232985	 0.094359
H	 0.9716318027	-0.6219913102	 1.7609707667	 0.095273
H	-0.7609890116	-0.3369365222	 1.9507837526	 0.117344
H	-0.1264963121	-6.4147375582	 0.1570065519	 0.195338
79.6503	138.7506	173.587	184.0057	256.4154	309.4313	320.8902	395.2625	433.1761	484.9779	535.2448	576.6248	621.6178	656.6391	672.0116	793.5261	830.6028	910.8337	947.415	994.2824	1025.0327	1046.2869	1048.0175	1076.8521	1101.6761	1127.166	1185.9238	1211.2395	1268.5494	1307.4115	1344.4717	1368.3813	1385.5015	1405.8452	1415.3525	1471.4206	1478.9863	1483.5331	1492.7392	1746.7067	2245.4499	2925.5192	2947.062	3015.0806	3026.3407	3047.0558	3060.585	3062.2754	3112.9679	3149.0706	3504.4714
CC1=CCC(OC1)C#C	CC1=CC[C@@H](OC1)C#C	
InChI=1S/C8H10O/c1-3-8-5-4-7(2)6-9-8/h1,4,8H,5-6H2,2H3	InChI=1S/C8H10O/c1-3-8-5-4-7(2)6-9-8/h1,4,8H,5-6H2,2H3/t8-/m0/s1
