15
gdb 45873	2.03698	1.84452	1.28196	4.7761	71.35	-0.2392	-0.0319	0.2073	1008.1969	0.114745	-416.86729	-416.859588	-416.858644	-416.899812	28.653	
O	 0.0112462686	-0.0542005942	-0.0276350184	-0.343904
C	-0.0102616962	 1.1539603515	 0.0000227202	 0.404736
N	-1.1672720387	 1.8882718295	 0.0696836302	-0.32089
C	-1.2319073566	 3.2868724531	-0.006975583	 0.027045
C	-0.1885766284	 4.0183352004	-0.396934797	-0.105787
C	 1.0948393678	 3.3374991581	-0.7894799268	-0.288975
C	 1.2766006119	 2.0179983041	 0.0000231862	-0.264062
C	 1.6589221655	 2.2820554889	 1.3903439121	 0.280166
N	 1.9643298248	 2.5044758525	 2.4825260574	-0.316834
H	-2.015029185	 1.348760248	 0.1630435548	 0.265976
H	-2.1885148492	 3.7102037215	 0.2728231442	 0.127434
H	-0.266960316	 5.0964213183	-0.441266306	 0.111519
H	 1.0886188882	 3.0972515782	-1.8621891156	 0.13097
H	 1.9600529243	 3.9834098169	-0.619173264	 0.13761
H	 2.053522419	 1.3953424531	-0.4506334042	 0.154996
81.8913	138.8802	149.3799	231.7578	380.2248	437.3616	468.1582	474.127	548.6294	584.4112	617.491	722.707	735.1299	804.7403	853.3407	913.4226	946.2539	954.8524	1031.6397	1045.2473	1099.6896	1159.8357	1225.165	1250.4576	1305.9034	1316.2274	1371.0267	1421.829	1465.75	1474.9283	1725.0448	1818.9724	2356.7533	3010.6543	3091.2886	3092.908	3207.5977	3228.5781	3624.9517
O=C1NC=CCC1C#N	O=C1NC=CC[C@H]1C#N	
InChI=1S/C6H6N2O/c7-4-5-2-1-3-8-6(5)9/h1,3,5H,2H2,(H,8,9)	InChI=1S/C6H6N2O/c7-4-5-2-1-3-8-6(5)9/h1,3,5H,2H2,(H,8,9)/t5-/m0/s1
