16
gdb 54671	2.81304	1.43622	0.96203	2.7151	74.69	-0.2537	-0.0694	0.1843	1167.5852	0.123796	-437.931449	-437.923108	-437.922164	-437.965266	30.194	
C	-0.0157520614	 1.5101985275	 0.0815645831	-0.470961
C	-0.0080859162	 0.0037969557	 0.0383242309	 0.29108
O	-0.0100242863	-0.6772405089	 1.0434366142	-0.304973
C	 0.0025603513	-0.6784484876	-1.2977969029	 0.135436
C	 0.0109552312	-2.0094812197	-1.4481941474	-0.159875
C	 0.0202464339	-2.3494985251	-2.9007090694	-0.141538
O	 0.0163938817	-1.0867236875	-3.5700005561	-0.247059
C	 0.0059107792	-0.0684002116	-2.6459874715	 0.348454
N	 0.0002498318	 1.1624168776	-2.9412859471	-0.554535
H	 0.855776193	 1.9103271312	-0.4453082959	 0.157346
H	-0.8821648431	 1.902454218	-0.4593108726	 0.157541
H	-0.0252089743	 1.8362531034	 1.1219867112	 0.129461
H	 0.0110473332	-2.7335625941	-0.6449161825	 0.151372
H	 0.9115768722	-2.9178523062	-3.1994606742	 0.140242
H	-0.8614496907	-2.9280032359	-3.2084281386	 0.14025
H	 0.0046122845	 1.2890733733	-3.9541017013	 0.227758
35.9378	142.5457	153.8446	206.6244	219.9316	352.0934	359.7217	378.0273	557.3543	581.309	609.7697	738.9323	759.2758	807.2274	854.7164	875.577	946.2708	979.2296	981.4316	1035.722	1053.3863	1066.2564	1115.164	1197.5816	1222.7021	1267.4341	1352.6098	1389.3719	1393.9139	1441.5341	1462.586	1491.5394	1662.7686	1756.9512	1780.0114	3013.215	3041.4458	3052.5626	3114.7982	3160.712	3243.1926	3485.1001
CC(=O)C1=CCOC1=N	CC(=O)C1=C(OC[CH]1)[NH]	
InChI=1S/C6H7NO2/c1-4(8)5-2-3-9-6(5)7/h2,7H,3H2,1H3	InChI=1S/C6H7NO2/c1-4(8)5-2-3-9-6(5)7/h2,7H,3H2,1H3
