17
gdb 15807	3.55522	1.28064	1.06921	2.5491	66.04	-0.2473	0.0175	0.2649	1143.1262	0.141521	-401.011428	-401.002799	-401.001855	-401.04582	30.12	
C	 0.0900377723	 1.3775244776	-0.1319542006	-0.3727
C	 0.1026310112	-0.1200950079	 0.1792574876	-0.1435
N	 1.0410696315	-0.8556690015	-0.6508054947	-0.318625
C	 0.6633784067	-1.8340089755	-1.5120341739	 0.375201
O	-0.479364251	-2.2159980717	-1.6952788481	-0.38366
C	 1.8105321066	-2.4388289172	-2.289942808	-0.015537
C	 2.610963576	-1.6129487673	-3.2092305987	-0.166951
O	 3.1382510743	-2.0258544884	-1.9474686719	-0.238452
H	 1.0769421854	 1.8260044276	 0.0263784917	 0.113775
H	-0.2016943418	 1.5556278008	-1.1710960759	 0.128726
H	-0.6205808199	 1.8959467399	 0.5193097135	 0.121709
H	 0.3453268569	-0.2833909583	 1.2369280068	 0.109306
H	-0.8777509766	-0.5645468956	-0.0068487673	 0.149775
H	 2.0345638078	-0.7051916726	-0.5519389531	 0.258041
H	 1.6836861898	-3.4964483452	-2.5082269864	 0.124938
H	 3.0702783488	-2.0754994974	-4.0805086223	 0.131655
H	 2.389803792	-0.5510106572	-3.2979282988	 0.1263
36.6775	80.332	107.6038	176.1533	243.9395	272.3805	319.2002	415.5928	482.283	601.5709	617.9067	745.4345	779.1523	856.4399	879.238	903.6479	944.0893	1009.5659	1082.2099	1097.5153	1139.7435	1155.0477	1167.8482	1177.3909	1251.8681	1270.176	1319.1956	1387.3877	1397.6945	1411.5614	1489.8778	1492.4418	1504.9002	1518.8546	1558.0194	1784.8313	3026.1534	3035.1077	3094.3448	3096.7815	3115.3717	3123.4789	3152.9045	3187.7084	3610.734
CCNC(=O)C1CO1	CCNC(=O)[C@H]1CO1	
InChI=1S/C5H9NO2/c1-2-6-5(7)4-3-8-4/h4H,2-3H2,1H3,(H,6,7)	InChI=1S/C5H9NO2/c1-2-6-5(7)4-3-8-4/h4H,2-3H2,1H3,(H,6,7)/t4-/m1/s1
