12
gdb 16923	4.06615	2.34168	2.13414	3.6401	52.73	-0.2628	-0.0398	0.223	658.0062	0.085656	-418.491224	-418.485917	-418.484973	-418.520555	21.118	
O	-0.0123862566	 0.0207838491	 0.0280298716	-0.337758
C	 0.0074988647	 1.2130627424	 0.0129305369	 0.479401
O	-1.0947797251	 2.0197931665	 0.0293001992	-0.252604
C	-0.5273080869	 3.3777785637	 0.0293462407	 0.143377
O	 0.5918022789	 3.2419937502	-0.8060737365	-0.217924
C	 1.2030270953	 2.2051367188	-0.0133016812	-0.158391
C	 1.1982993395	 2.8297349442	 1.3870674291	-0.089647
C	 0.1036903501	 3.5883169844	 1.41128334	-0.077885
H	-1.2697360088	 4.0686174371	-0.3592833881	 0.117997
H	 2.1270197665	 1.8321465809	-0.4429811582	 0.12274
H	 1.8949952369	 2.5925140423	 2.1769875704	 0.138213
H	-0.3314361344	 4.1548009605	 2.220821546	 0.13248
171.2666	393.5958	455.3889	492.5948	618.3386	674.696	713.7523	767.7118	779.2372	853.9289	864.5272	871.5598	902.3649	930.6404	939.6091	1000.764	1066.9877	1092.9222	1165.3311	1201.4025	1253.7603	1303.3319	1324.6306	1339.6758	1634.4477	1909.1812	3179.6053	3189.3721	3241.7617	3266.1521
O=C1OC2OC1C=C2	O=C1O[C@@H]2O[C@H]1C=C2	
InChI=1S/C5H4O3/c6-5-3-1-2-4(7-3)8-5/h1-4H	InChI=1S/C5H4O3/c6-5-3-1-2-4(7-3)8-5/h1-4H/t3-,4-/m0/s1
