15
gdb 36763	6.87057	0.45629	0.43128	4.5868	85.06	-0.2961	-0.0504	0.2457	2299.5791	0.112011	-379.678937	-379.669533	-379.668589	-379.714737	31.731	
N	-0.0934937502	-1.1779064865	-0.0035370303	-0.291661
C	-0.073064354	-0.0228812863	 0.002655225	 0.256309
C	-0.0245396669	 1.4370844461	 0.0102710264	-0.342148
C	 1.4203697377	 1.9719398676	-0.0008842514	-0.179718
C	 1.4402109646	 3.5149416626	 0.0072843783	-0.384702
C	 2.7881685389	 4.056607819	-0.0028187326	 0.034373
C	 3.9163154198	 4.4879649894	-0.0115034847	 0.113053
C	 5.189504138	 4.9811973962	-0.0211786365	 0.208816
N	 6.2724623479	 5.4011661265	-0.0294072692	-0.331892
H	-0.5758367091	 1.8079195494	-0.8620242224	 0.158661
H	-0.5586509499	 1.7981879921	 0.8972141974	 0.158663
H	 1.9607284314	 1.5925686332	 0.8707331411	 0.145812
H	 1.9436402095	 1.6020818024	-0.8868979745	 0.145814
H	 0.893758479	 3.9002008226	-0.8639173952	 0.154313
H	 0.9107604933	 3.8906896559	 0.8930180988	 0.154308
52.4476	68.132	81.4819	142.1273	162.393	237.6235	289.673	366.8842	396.7089	448.0061	557.1962	577.6488	588.3879	726.7852	737.4738	839.0142	946.7252	1026.095	1033.2665	1079.7239	1175.214	1178.194	1263.1805	1292.3171	1323.5185	1348.3712	1387.9237	1463.209	1470.0576	1499.4198	2269.0113	2366.8557	2405.1407	3016.9772	3038.0936	3049.3474	3069.801	3074.04	3118.5372
N#CCCCC#CC#N	N#CCCCC#CC#N	
InChI=1S/C7H6N2/c8-6-4-2-1-3-5-7-9/h1-2,4H2	InChI=1S/C7H6N2/c8-6-4-2-1-3-5-7-9/h1-2,4H2
