21
gdb 59888	4.34033	0.786	0.722	3.6031	81.06	-0.2496	-0.023	0.2266	1637.0377	0.180854	-424.243788	-424.23394	-424.232995	-424.27939	36.22	
C	 0.0800335686	 1.6045914336	 0.036843787	-0.384922
C	-0.0620108994	 0.0878768855	 0.0518963524	 0.139659
O	 0.3562185827	-0.3915693947	-1.2130776433	-0.443732
C	 0.7587449937	-0.5523561276	 1.1830639102	-0.322366
C	 0.6659031741	-2.0688180734	 1.226381996	 0.387221
O	 0.174250673	-2.7121585116	 0.3121354933	-0.357208
C	 1.2152424439	-2.7438477044	 2.4325621901	-0.101377
C	 0.5162292093	-4.0157713163	 2.9017252439	-0.247453
C	 1.8452760505	-4.1184874412	 2.2428255396	-0.246276
H	 1.1259579272	 1.8876033948	-0.1210501422	 0.118797
H	-0.5113009604	 2.0245555408	-0.7809666321	 0.125701
H	-0.2634756093	 2.0442140672	 0.9784646073	 0.105793
H	-1.1216618345	-0.1676060869	 0.2231702061	 0.067514
H	 0.2305350205	-1.3502959794	-1.1752217542	 0.293225
H	 1.8212374547	-0.2935794408	 1.0611019549	 0.133368
H	 0.4603782757	-0.1531784642	 2.1614797776	 0.114694
H	 1.6406224772	-2.0993869308	 3.1931468261	 0.091668
H	 0.4438678363	-4.1684560365	 3.9722106222	 0.121799
H	-0.352597098	-4.3088742031	 2.3240122176	 0.140924
H	 1.870692407	-4.4814702538	 1.2219713107	 0.141116
H	 2.717059227	-4.345092837	 2.8454619168	 0.121856
41.423	64.1709	124.798	145.1007	227.3824	255.6794	278.1483	289.858	353.1477	445.8236	456.588	596.8	606.7496	679.7977	787.468	821.2219	829.1872	854.2521	867.0181	919.2284	932.2487	957.9047	1049.8386	1063.7151	1089.9165	1097.0862	1103.9119	1113.8109	1129.1585	1172.298	1210.3445	1222.9443	1225.5842	1308.8241	1330.5749	1387.5862	1400.6857	1413.2202	1427.9831	1453.5683	1460.2165	1483.52	1485.3966	1500.7745	1756.571	2954.3009	3010.4355	3038.5144	3052.2897	3109.5465	3121.6897	3143.1763	3144.6515	3177.6094	3230.9546	3245.4497	3735.761
CC(O)CC(=O)C1CC1	C[C@@H](O)CC(=O)C1CC1	
InChI=1S/C7H12O2/c1-5(8)4-7(9)6-2-3-6/h5-6,8H,2-4H2,1H3	InChI=1S/C7H12O2/c1-5(8)4-7(9)6-2-3-6/h5-6,8H,2-4H2,1H3/t5-/m1/s1
