17
gdb 79548	4.03901	1.12664	1.00128	4.1567	78.58	-0.2426	0.0069	0.2495	1203.09	0.135931	-380.801788	-380.793887	-380.792943	-380.834006	30.557	
C	-0.0396611574	 1.4774769065	-0.0055412072	-0.418048
C	-0.0324318791	-0.0310723069	-0.0701768726	 0.005143
C	 0.7307867001	-0.6972077385	-1.144950492	-0.099009
N	 1.2873392695	-0.628756597	 0.2522004329	-0.151282
C	 1.2093909863	-2.1339317899	 0.3091160468	-0.037328
C	-0.0960204325	-2.8029913308	 0.0308849006	-0.350469
C	 0.7010396134	-2.2442592484	-1.1327711485	 0.177112
C	 1.1766781039	-3.0446378609	-2.2067472614	 0.199616
N	 1.5638847945	-3.6835922167	-3.0919050472	-0.350004
H	 0.8941130705	 1.8875665976	-0.3987606758	 0.135788
H	-0.8730782377	 1.8818382681	-0.5887103764	 0.125975
H	-0.1474618527	 1.8140701046	 1.0299570524	 0.132746
H	-0.9281114974	-0.4970480821	 0.3258226587	 0.094507
H	 1.2113335325	-0.1599068558	-1.9559224224	 0.116505
H	 2.0434538068	-2.6483664895	 0.7678703136	 0.134143
H	-0.0389616139	-3.8846982981	 0.0987416478	 0.14804
H	-1.0652296366	-2.4020964222	 0.3001238806	 0.136565
131.4281	137.6941	207.9802	258.248	271.0104	334.4221	435.6837	467.59	534.1743	562.9876	610.6417	736.1379	743.3361	793.0585	831.0306	893.6802	967.3268	981.8116	993.1898	1013.0028	1031.3477	1055.5299	1077.7904	1090.0833	1142.6209	1157.4137	1198.1176	1216.5577	1263.5248	1300.1383	1361.6302	1415.045	1437.2419	1488.3582	1492.543	1501.7055	2341.8315	3042.411	3111.4332	3123.1174	3141.0506	3168.1958	3173.191	3206.525	3225.1698
CC1C2N1C1CC21C#N	C[C@H]1[C@H]2N1[C@H]1C[C@@]21C#N	
InChI=1S/C7H8N2/c1-4-6-7(3-8)2-5(7)9(4)6/h4-6H,2H2,1H3	InChI=1S/C7H8N2/c1-4-6-7(3-8)2-5(7)9(4)6/h4-6H,2H2,1H3/t4-,5-,6+,7-,9?/m0/s1
