19
gdb 90750	3.21155	1.40675	1.11784	3.3784	77.64	-0.2253	0.026	0.2513	1125.1351	0.161143	-419.201682	-419.193738	-419.192794	-419.234309	30.323	
C	-0.0359380338	 1.5299713955	 0.0371466489	-0.327087
N	-0.0487466606	 0.0868213252	 0.1012139699	-0.070491
C	-1.3006880138	-0.6006879894	 0.4789565512	-0.170073
C	-0.4590546704	-1.604401401	 1.3045102041	-0.148172
C	 0.6996416109	-0.5901723475	 1.1793389133	-0.002733
C	 1.8972161581	-1.4081617633	 0.7062212751	-0.09323
O	 1.3526075046	-2.6254427903	 0.1717054434	-0.241114
C	 0.0421418063	-2.7983724665	 0.5252347728	 0.420135
N	-0.6492993795	-3.813552479	 0.2323936179	-0.546971
H	 0.9793522391	 1.886050963	-0.168061434	 0.121342
H	-0.6789697169	 1.8693215538	-0.7814834852	 0.127839
H	-0.3871905965	 2.0118528213	 0.96980231	 0.091894
H	-1.952675987	 0.0073067795	 1.1257501379	 0.089082
H	-1.8862201645	-1.0004041479	-0.3540116852	 0.12418
H	-0.8398844305	-1.8886524261	 2.2833045132	 0.108444
H	 0.9134693483	 0.0373943023	 2.0543391415	 0.068648
H	 2.459063375	-0.9085126702	-0.0875405731	 0.120653
H	 2.5762769912	-1.6569665825	 1.5313485797	 0.106682
H	-0.0928185599	-4.4856796369	-0.2987732815	 0.220974
83.017	134.6019	213.4988	216.29	291.9778	299.3913	405.1611	447.4004	581.2757	657.2148	716.5367	766.3042	796.2271	859.0102	886.3403	894.7245	963.7171	976.395	996.0742	1045.4703	1054.2893	1066.3757	1114.7007	1132.9037	1172.1936	1181.2981	1216.8162	1231.8563	1256.0154	1265.1573	1273.9717	1302.8047	1333.4275	1359.0617	1406.6748	1453.8836	1487.8269	1499.9099	1504.0012	1521.1532	1772.0705	2924.1167	2979.3575	3016.116	3032.7518	3057.3097	3080.7599	3097.3061	3099.6723	3138.1915	3471.0042
CN1CC2C1COC2=N	CN1C[C@@H]2[C@H]1CO[C]2[NH]	
InChI=1S/C6H10N2O/c1-8-2-4-5(8)3-9-6(4)7/h4-5,7H,2-3H2,1H3	InChI=1S/C6H10N2O/c1-8-2-4-5(8)3-9-6(4)7/h4-5,7H,2-3H2,1H3/t4-,5-/m1/s1
