19
gdb 52098	4.12625	0.90325	0.86666	3.9749	77.55	-0.2773	0.0084	0.2857	1379.6361	0.159449	-422.997657	-422.989378	-422.988433	-423.032042	30.583	
O	 0.349726592	 0.1239330056	-0.2771268294	-0.275793
C	 0.3903838572	 1.3153459028	-0.3430688686	 0.177543
O	 0.8750018252	 2.0851951013	 0.648010867	-0.171334
C	 0.9332644454	 3.5043582578	 0.4335547778	-0.240197
C	 2.3471948641	 3.9432917089	 0.1735084992	 0.347716
C	 3.2633472079	 3.5409098484	-1.0245624333	-0.257537
C	 4.1077137661	 4.5119516736	-0.1503927901	-0.039518
C	 2.8395181766	 5.4075802122	-0.0383923336	-0.26437
C	 3.5879344763	 3.737432487	 1.094506404	-0.243297
H	 0.0302220627	 1.9068661802	-1.2084293422	 0.075127
H	 0.2782935465	 3.7848320178	-0.4028162256	 0.110876
H	 0.5395618683	 3.9687031251	 1.3431675636	 0.125098
H	 3.592998929	 2.4994430049	-1.0599632003	 0.104728
H	 2.9645489556	 3.903589545	-2.0126201513	 0.089793
H	 5.1282439427	 4.8429479215	-0.3399719991	 0.078295
H	 2.5079187239	 5.9087827602	-0.9524454575	 0.092065
H	 2.781238684	 6.0726695572	 0.8279176578	 0.093814
H	 3.5845803672	 4.2792621623	 2.0445864029	 0.091376
H	 3.9347228391	 2.7090380379	 1.2184007087	 0.105615
37.7291	56.697	137.1041	202.8193	272.0756	362.183	389.9152	538.4743	542.0935	670.589	677.4356	772.6931	809.4608	886.5321	903.6028	955.2426	962.4992	977.9975	999.9408	1007.1789	1039.4047	1048.5625	1098.9337	1101.9864	1132.7235	1145.602	1151.6461	1165.3718	1204.5537	1231.8441	1239.0413	1245.0731	1313.693	1326.4642	1396.3313	1430.9832	1493.0838	1497.7653	1498.8324	1555.155	1866.1205	2938.1306	3013.8593	3043.2582	3047.4052	3055.1405	3081.2296	3109.2803	3115.4175	3118.3403	3122.6356
O=COCC12CC(C1)C2	O=COC[C@@]12C[C@@H](C1)C2	
InChI=1S/C7H10O2/c8-5-9-4-7-1-6(2-7)3-7/h5-6H,1-4H2	InChI=1S/C7H10O2/c8-5-9-4-7-1-6(2-7)3-7/h5-6H,1-4H2/t6-,7-
