14
gdb 26906	3.1412	1.44428	0.99048	4.7594	73.31	-0.189	-0.0486	0.1403	1094.3972	0.102377	-470.064944	-470.057152	-470.056207	-470.096914	30.016	
N	 0.0211364736	 1.4076136101	 0.1483481613	-0.578698
C	-0.0235797353	 0.0320522291	 0.0489131957	 0.330799
C	-1.1937437409	-0.6976135037	 0.030787782	 0.352744
O	-2.3816264432	-0.0144265311	 0.0534545979	-0.458632
N	-1.1998549584	-2.0310116366	-0.0083253919	-0.293086
C	-0.075714663	-2.7076798157	-0.0347556425	-0.153125
C	 1.2351135499	-2.0897982291	-0.0163456912	 0.378053
O	 2.3270702922	-2.635000641	-0.0314437729	-0.404761
N	 1.1380513438	-0.6788501277	 0.0279671307	-0.402754
H	 0.7587260877	 1.8664035884	-0.3692742851	 0.259482
H	-0.8817421661	 1.8361328104	-0.0030521405	 0.280153
H	-3.0754247939	-0.6832532667	 0.0036830103	 0.299833
H	-0.1169998	-3.7907651482	-0.0709830059	 0.129185
H	 2.0269241136	-0.198742878	 0.0844055221	 0.260805
128.7278	191.7498	266.4204	295.9228	328.4329	359.4636	365.3711	464.7125	498.4975	504.5453	593.7996	613.2126	651.2049	712.1599	737.1936	770.0051	814.6623	881.0694	946.9692	1106.6455	1123.4658	1190.4318	1307.5999	1316.1169	1365.183	1447.3557	1478.0516	1581.8401	1642.8562	1681.0706	1778.7923	3193.2107	3549.847	3592.7293	3655.0707	3803.7632
NC1=C(O)N=CC(=O)N1	Nc1c(O)ncc(=O)[nH]1	
InChI=1S/C4H5N3O2/c5-3-4(9)6-1-2(8)7-3/h1H,(H,6,9)(H3,5,7,8)	InChI=1S/C4H5N3O2/c5-3-4(9)6-1-2(8)7-3/h1H,(H,6,9)(H3,5,7,8)
