21
gdb 107839	3.38075	1.34407	1.2757	1.6399	81.02	-0.2341	0.0812	0.3152	1103.6605	0.184133	-387.05556	-387.047937	-387.046993	-387.087593	31.106	
C	-0.1173983587	 1.5150386281	 0.0567121561	-0.38167
C	 0.0857464153	-0.0050287428	 0.0051629912	-0.303758
C	 0.7364217502	-0.4932364484	-1.2700784696	 0.311392
C	 0.0483095672	-0.3893037162	-2.66585097	-0.292852
C	 0.9652634345	-1.5608268146	-3.0465363612	-0.079319
C	 2.4343507262	-1.2527625197	-2.5466827049	 0.066119
C	 2.1751916826	-0.0450556108	-1.6294648788	-0.248228
O	 2.3583747622	-2.3543278552	-1.5889216396	-0.298117
C	 0.9583138024	-2.0601731441	-1.5897711998	 0.062784
H	 0.8372949539	 2.0468819466	-0.009964116	 0.119293
H	-0.7478566196	 1.8591395377	-0.7701627536	 0.117835
H	-0.6012251795	 1.8153327886	 0.9912176671	 0.11263
H	 0.6995911616	-0.3213501854	 0.859153273	 0.10128
H	-0.8853540976	-0.5031777631	 0.1269892533	 0.091595
H	-0.9980924929	-0.7106405763	-2.6414098666	 0.096942
H	 0.1278892937	 0.557928707	-3.2074607257	 0.094045
H	 0.8376501596	-2.2068533794	-3.9131069581	 0.07517
H	 3.3153101294	-1.2864493316	-3.1862050411	 0.078173
H	 2.2043485846	 0.9255385363	-2.1323606479	 0.094291
H	 2.8722972424	-0.047441882	-0.7880749968	 0.103241
H	 0.3085086025	-2.8128957546	-1.144080521	 0.079155
82.4926	165.1236	212.2838	294.5956	335.0533	411.2917	467.8574	554.642	611.4947	672.4499	740.1371	783.8371	806.3517	836.1712	850.7921	881.3371	910.4097	929.8776	960.0529	972.9926	986.4342	1002.7793	1026.4397	1043.434	1071.4923	1089.8688	1114.8885	1145.2476	1190.205	1199.735	1217.7028	1224.5982	1236.4172	1266.1225	1278.2651	1314.4154	1334.0725	1345.6694	1375.1177	1410.7766	1476.5366	1483.669	1501.3064	1504.3012	1507.6729	3010.8338	3033.9208	3042.3504	3042.8668	3059.3577	3095.6235	3102.094	3104.9388	3114.816	3122.9679	3128.0926	3140.7685
CCC12CC3C(C1)OC23	CC[C@@]12C[C@H]3[C@@H](C1)O[C@@H]23	
InChI=1S/C8H12O/c1-2-8-3-5-6(4-8)9-7(5)8/h5-7H,2-4H2,1H3	InChI=1S/C8H12O/c1-2-8-3-5-6(4-8)9-7(5)8/h5-7H,2-4H2,1H3/t5-,6+,7+,8+/m0/s1
