19
gdb 126852	2.15903	1.52385	0.96211	5.6022	79.01	-0.211	0.0169	0.2279	1257.9884	0.16022	-415.383947	-415.374686	-415.373742	-415.418672	33.148	
C	 0.0019869221	 1.5269154313	 0.0586557925	-0.382028
C	 0.0275259848	 0.0005025982	-0.0547001729	-0.159002
N	 0.7497770683	-0.4717043825	-1.2208767191	-0.023797
N	 0.0959172599	-0.698352922	-2.3971770272	-0.167146
N	 0.9758077727	-1.108710168	-3.2558308576	-0.18962
C	 2.2061495639	-1.1394053519	-2.6718054103	-0.156751
C	 2.0766471276	-0.7271703602	-1.3588207787	 0.384555
N	 2.9711712356	-0.6352832164	-0.3046111631	-0.398289
C	 4.368717196	-0.9152231924	-0.6064628316	-0.327513
H	 1.0106462037	 1.9438387812	 0.1494780298	 0.115016
H	-0.4661226269	 1.9640035574	-0.8269167263	 0.151607
H	-0.5689874421	 1.8295109162	 0.9414946273	 0.126309
H	 0.4873480511	-0.4552164306	 0.8287916527	 0.12541
H	-0.9877959909	-0.3918421637	-0.1446139308	 0.146983
H	 3.0856963863	-1.451740981	-3.2089730737	 0.111706
H	 2.8520037942	 0.1984943272	 0.2548561403	 0.242736
H	 4.9543926499	-0.8213335204	 0.3104866678	 0.130475
H	 4.4610948492	-1.9445978284	-0.9648736532	 0.146635
H	 4.7949287345	-0.2467492039	-1.3694729557	 0.122715
51.1615	89.635	135.7294	175.4857	191.9223	228.8639	296.9169	316.5813	409.6185	481.6595	568.8031	656.5743	697.3744	719.3451	767.6162	789.44	794.2966	969.4653	985.1095	1037.2115	1085.2676	1101.421	1133.586	1150.3092	1169.6342	1216.804	1246.7626	1303.1883	1346.3368	1373.8388	1391.6333	1410.432	1445.2266	1459.6364	1480.9158	1486.6957	1489.8484	1504.1653	1516.9675	1531.0938	1621.1651	2992.6049	3039.4404	3054.8306	3083.4526	3101.3159	3120.7887	3128.8684	3132.962	3277.1229	3569.2996
CCN1N=NC=C1NC	CCn1nncc1NC	
InChI=1S/C5H10N4/c1-3-9-5(6-2)4-7-8-9/h4,6H,3H2,1-2H3	InChI=1S/C5H10N4/c1-3-9-5(6-2)4-7-8-9/h4,6H,3H2,1-2H3
