21
gdb 72659	2.00501	1.87862	1.54174	2.3452	77.09	-0.2415	0.0743	0.3158	1028.0685	0.182266	-424.225387	-424.216699	-424.215755	-424.258101	33.781	
C	-0.2617472896	 1.5162096977	 0.0653887962	-0.491784
C	-0.0288073583	 0.017915682	-0.0001936641	 0.204504
C	 1.1703342189	-0.4728363071	-0.8426878914	-0.112439
O	 1.7794170172	-1.1237580385	 0.2885797654	-0.330044
C	 0.7003567742	-0.7307330185	 1.1734005717	 0.389724
C	 1.212283761	 0.0030736227	 2.3945476829	-0.466658
C	-0.2223497201	-1.9185825533	 1.4663866961	-0.124251
O	-0.9939646981	-2.1148138264	 0.288740547	-0.252861
C	-1.2966652723	-0.8186992502	-0.2061265159	-0.140568
H	 0.6651623726	 2.0591649622	 0.2734480863	 0.124217
H	-0.6534748483	 1.8905670302	-0.8877679011	 0.122196
H	-0.9872682933	 1.7761649654	 0.8437732574	 0.119163
H	 0.9257877776	-1.1831283357	-1.6420556641	 0.103806
H	 1.8107795574	 0.3211457446	-1.2484231159	 0.092912
H	 1.8444689753	 0.8468102501	 2.1063828971	 0.124104
H	 0.3872086486	 0.3763394824	 3.0096479866	 0.116786
H	 1.8177343092	-0.6709317127	 3.0104370366	 0.130183
H	 0.3354660282	-2.8361770775	 1.668845602	 0.118656
H	-0.8738353545	-1.6922962333	 2.3277546052	 0.079995
H	-2.1389123768	-0.3716845226	 0.3505935277	 0.083227
H	-1.5919012491	-0.9205858615	-1.2548902257	 0.109132
112.7026	179.9486	205.8235	230.7491	237.417	288.5502	324.2661	350.0415	385.0301	459.1458	571.1481	630.6126	634.9981	731.8724	861.3511	873.2187	918.4048	940.8165	960.1623	970.2702	986.8345	1021.9642	1032.0877	1089.8006	1150.1653	1159.2569	1171.2016	1199.5379	1212.9488	1239.4303	1251.7791	1273.9885	1291.7515	1348.2378	1371.4968	1402.9365	1406.1853	1418.7068	1478.5322	1483.8659	1490.531	1495.4708	1500.7331	1508.8972	1520.9624	2950.5754	2962.5684	3005.9756	3026.7684	3036.8596	3052.9217	3079.954	3088.5237	3100.8054	3102.2393	3104.4039	3119.8835
CC12COC1(C)COC2	C[C@@]12CO[C@]1(C)COC2	
InChI=1S/C7H12O2/c1-6-3-8-5-7(6,2)9-4-6/h3-5H2,1-2H3	InChI=1S/C7H12O2/c1-6-3-8-5-7(6,2)9-4-6/h3-5H2,1-2H3/t6-,7-/m1/s1
