19
gdb 49307	3.07798	1.17871	0.89535	4.2028	80.94	-0.2442	-0.0554	0.1887	1289.2553	0.160123	-423.04442	-423.036062	-423.035118	-423.078	31.243	
O	-0.1158078031	-0.0236183887	-0.2336880731	-0.279109
C	 0.0115656683	 1.1797435343	-0.213411584	 0.105826
C	 1.27587788	 1.8933096215	 0.0683582364	 0.198964
C	 1.2357871289	 3.2342876968	 0.0230074653	-0.123711
C	 2.3682022187	 4.204998104	 0.2113433604	-0.268047
C	 3.3564399491	 3.8918811504	 1.3460583816	-0.197236
C	 4.1059216941	 2.5660442055	 1.2068013423	-0.065586
O	 3.2939940459	 1.4315753625	 1.4322135681	-0.230757
C	 2.4916720747	 1.031667278	 0.3417183474	-0.195525
H	-0.8529412172	 1.8514569204	-0.4181340145	 0.070855
H	 0.2687039921	 3.6815195243	-0.209865272	 0.10004
H	 2.9245193123	 4.264401246	-0.738306717	 0.125313
H	 1.9525287054	 5.2061979859	 0.3662808072	 0.112954
H	 4.0957787091	 4.7012723065	 1.3906497629	 0.099275
H	 2.8273852863	 3.8864956867	 2.3056039996	 0.11528
H	 4.5885025654	 2.5008198854	 0.2159053343	 0.082706
H	 4.8980571659	 2.5178626593	 1.9614722615	 0.108675
H	 2.1415628669	 0.0216011376	 0.56664053	 0.13991
H	 3.1028712569	 0.9671561535	-0.5757902064	 0.100172
47.1313	114.9138	199.1449	227.7762	290.1104	316.8037	366.2579	406.3577	468.8707	539.4516	545.567	692.2125	789.776	833.6343	844.1165	904.7262	926.9285	971.0853	1002.1061	1035.3507	1050.7067	1102.0684	1111.2725	1144.5914	1204.0805	1211.0848	1275.0159	1285.2308	1332.3432	1365.8371	1371.838	1394.9513	1402.8592	1421.6887	1438.1991	1470.0817	1474.1049	1482.6135	1496.5424	1706.2554	1789.0326	2870.2158	2950.1759	2957.1237	2985.3021	3029.0727	3064.5342	3069.5983	3079.5543	3107.1251	3120.4855
O=CC1=CCCCOC1	O=CC1=CCCCOC1	
InChI=1S/C7H10O2/c8-5-7-3-1-2-4-9-6-7/h3,5H,1-2,4,6H2	InChI=1S/C7H10O2/c8-5-7-3-1-2-4-9-6-7/h3,5H,1-2,4,6H2
