17
gdb 49992	3.39028	1.10307	1.02592	4.4396	74.58	-0.2479	-0.0193	0.2286	1194.7028	0.134456	-421.775843	-421.767978	-421.767034	-421.808637	29.835	
O	-0.0194544424	-0.0258611615	-0.3153531403	-0.26652
C	 0.0661109255	 1.1109284688	 0.0775328796	 0.171671
C	 1.3069405176	 1.9159472235	 0.0805801997	-0.160404
C	 1.1754163236	 3.425912248	-0.1331305877	-0.37008
C	 1.5341191067	 2.9066417644	 1.207996036	 0.339895
C	 0.7502639053	 3.1115290069	 2.5350917749	-0.347769
C	 2.1135657146	 3.3515785585	 3.209878179	 0.038793
O	 2.9029823318	 2.1770117502	 3.0082234942	-0.237247
C	 2.8396968628	 3.1360868291	 1.9455200065	-0.064029
H	-0.8260768305	 1.6516298821	 0.4753630001	 0.063072
H	 2.1757950816	 1.4132765133	-0.3307190122	 0.11114
H	 1.9398877136	 3.9006587698	-0.7390393541	 0.131174
H	 0.1742816721	 3.8210013112	-0.2802695189	 0.12614
H	 0.1120698299	 3.99865604	 2.5116344987	 0.115618
H	 0.1920730674	 2.2586662205	 2.9271659861	 0.12484
H	 2.3509595851	 3.9769583455	 4.0618415831	 0.113214
H	 3.7745482754	 3.5379666597	 1.5718331551	 0.110492
75.4478	128.7637	173.7838	222.8936	349.3566	354.6435	424.845	475.8034	509.2862	603.1403	785.2011	842.2438	849.9536	858.6699	865.3754	889.3377	946.207	970.1724	979.2798	1015.8158	1041.4733	1063.8268	1069.4996	1074.7361	1156.6868	1172.5388	1185.8657	1224.0769	1231.3798	1266.9694	1288.2332	1375.6429	1399.5695	1445.5854	1470.805	1485.8614	1820.59	2841.5347	3065.9097	3122.8409	3124.7388	3176.6502	3183.2279	3199.9661	3210.9446
O=CC1CC11CC2OC12	O=C[C@H]1C[C@]21C[C@H]1O[C@@H]21	
InChI=1S/C7H8O2/c8-3-4-1-7(4)2-5-6(7)9-5/h3-6H,1-2H2	InChI=1S/C7H8O2/c8-3-4-1-7(4)2-5-6(7)9-5/h3-6H,1-2H2/t4-,5-,6-,7-/m1/s1
