17
gdb 11850	6.52374	1.15728	1.0822	4.2784	71.71	-0.2392	0.026	0.2653	1100.4521	0.142278	-363.854438	-363.846654	-363.84571	-363.888249	27.934	
O	 0.0641997358	 0.0084447183	 0.6024997712	-0.333817
C	 0.0792313244	 1.2096856905	 0.4227823892	 0.13565
N	 1.1540509015	 1.9060515789	-0.001228567	-0.045171
C	 2.4764027125	 1.4357227213	-0.4214121879	-0.237072
C	 2.7837207511	 2.8883246176	-0.827744883	 0.336854
C	 4.06128911	 3.6423947698	-0.6364378174	-0.317475
C	 3.5364042453	 3.3646713857	-2.0291981602	-0.316886
C	 1.371461777	 3.3076380562	-0.3780488701	-0.248258
H	-0.7978689277	 1.8679006499	 0.5957287676	 0.065785
H	 3.0785595051	 1.026745612	 0.3976177931	 0.122494
H	 2.4402557391	 0.7045226823	-1.2368726982	 0.123637
H	 4.0038364189	 4.6593709207	-0.2615432818	 0.1189
H	 4.9324028792	 3.0908462734	-0.2975152336	 0.121823
H	 4.0522026582	 2.6251680518	-2.6333263985	 0.121894
H	 3.124396839	 4.1940071867	-2.5953385899	 0.118802
H	 0.709736031	 3.6654434816	-1.1765293419	 0.116499
H	 1.3322874095	 4.0098437431	 0.4636592386	 0.116341
13.6937	110.8319	163.1869	264.0469	318.7768	325.6671	382.8923	457.8469	632.1337	772.1058	809.6591	862.0036	875.5211	899.4809	934.7233	998.986	1020.6437	1035.4779	1057.7782	1082.0348	1122.639	1132.8161	1174.4332	1177.4921	1187.8117	1245.2096	1278.7777	1296.6793	1388.9938	1413.218	1455.9351	1465.3531	1505.961	1513.5451	1524.2957	1791.1616	2915.8822	3011.7909	3030.5315	3055.0001	3073.0392	3124.9405	3128.4761	3203.3913	3217.9715
O=CN1CC2(CC2)C1	O=CN1CC2(CC2)C1	
InChI=1S/C6H9NO/c8-5-7-3-6(4-7)1-2-6/h5H,1-4H2	InChI=1S/C6H9NO/c8-5-7-3-6(4-7)1-2-6/h5H,1-4H2
