21
gdb 35030	2.9664	1.39443	1.36336	0.6936	86.71	-0.2515	0.0554	0.3069	1077.2887	0.185525	-349.949623	-349.941869	-349.940925	-349.9815	31.884	
C	-0.0639293338	-1.205628396	-0.1123943413	-0.442577
C	-0.0224198144	-0.0059222861	-0.0311539023	 0.300439
C	 0.0220902785	 1.4435251514	 0.0610076648	-0.17709
C	-0.3660640951	 2.0506345493	 1.443334201	-0.004235
C	 0.7757672006	 1.5436903172	 2.3512372155	-0.209659
C	 2.0212593918	 1.5654554859	 1.4069881483	-0.209658
C	 1.4440513955	 2.0822700847	 0.071029914	-0.004222
C	 1.0917939786	 3.5773686595	 0.226315155	-0.221745
C	-0.1547321665	 3.5555797273	 1.1713301422	-0.221718
H	-0.1011889498	-2.2639362282	-0.1860385384	 0.18796
H	-0.5924671005	 1.872437126	-0.739718245	 0.092046
H	-1.3654207647	 1.7960331578	 1.7999134967	 0.064623
H	 0.8990368819	 2.1792746742	 3.2328166259	 0.091184
H	 0.5704586479	 0.5293496829	 2.701947926	 0.107786
H	 2.8225670086	 2.2128842093	 1.7745284549	 0.091185
H	 2.4367689061	 0.5619620369	 1.2870252011	 0.107778
H	 2.0625763422	 1.8559384777	-0.7989605918	 0.064618
H	 1.9275761249	 4.1472356687	 0.6421787356	 0.096234
H	 0.8452014916	 4.02450167	-0.7415380478	 0.095408
H	-1.0298462938	 3.991697589	 0.6799475868	 0.095409
H	 0.0074426705	 4.1137031427	 2.0978387188	 0.096236
136.6463	146.2167	163.9978	328.8934	363.0999	383.9826	485.266	518.4711	582.9031	615.5066	626.6928	757.8691	766.6885	797.9955	835.2245	837.977	882.7411	896.8331	909.5332	957.4259	962.1252	996.8635	1021.9654	1036.5558	1046.8445	1096.5176	1129.0794	1160.4744	1167.1274	1209.5114	1229.7711	1240.3412	1284.4151	1285.4168	1308.2006	1317.1523	1323.0878	1345.7837	1347.1955	1374.625	1480.6509	1494.2737	1497.5788	1516.5973	2229.9402	3033.6258	3043.8613	3053.1996	3054.5551	3062.7911	3079.2535	3090.6722	3099.7956	3100.4306	3103.6961	3112.1665	3506.0172
C#CC1C2CCC1CC2	C#C[C@H]1[C@H]2CC[C@@H]1CC2	
InChI=1S/C9H12/c1-2-9-7-3-4-8(9)6-5-7/h1,7-9H,3-6H2	InChI=1S/C9H12/c1-2-9-7-3-4-8(9)6-5-7/h1,7-9H,3-6H2/t7-,8+,9-
