18
gdb 79101	2.48243	1.99292	1.51599	2.9925	75.48	-0.2445	0.0243	0.2689	937.034	0.149658	-401.935878	-401.92873	-401.927785	-401.967237	28.886	
C	-0.1034282279	 1.5961343397	 0.0554994963	-0.416851
C	 0.0890525472	 0.0872216782	-0.0154994289	 0.019107
C	 0.7660637212	-0.5510174434	-1.2301178876	-0.121254
C	 2.2741276027	-0.5188888962	-1.0794890114	 0.086483
O	 2.8889028048	 0.4304932418	-0.2155723764	-0.248392
C	 2.3468130737	 0.2652922351	 1.0410787412	 0.434526
N	 2.74959094	 0.8434779783	 2.0871756413	-0.556468
C	 1.1573902392	-0.6455461575	 0.8986867187	-0.165477
C	 1.5113750619	-1.5405937271	-0.3208678014	-0.116962
H	 0.8290580299	 2.1329117242	-0.1358205558	 0.134536
H	-0.8358545832	 1.9180346045	-0.6930268769	 0.112395
H	-0.4748443845	 1.8986942751	 1.03999366	 0.126498
H	-0.8651873283	-0.4214536624	 0.1531356351	 0.087831
H	 0.3101943272	-0.7235790447	-2.1990631471	 0.088976
H	 2.8970929658	-0.7650397541	-1.928823095	 0.114719
H	 3.5524933353	 1.440942134	 1.8805733553	 0.221971
H	 0.8098014673	-1.0732723943	 1.8339206299	 0.09695
H	 1.6325873176	-2.6143908311	-0.3577378072	 0.101409
135.9448	168.2613	205.796	292.8649	416.3248	437.5294	548.8598	580.4022	700.7733	714.71	761.1563	773.4003	810.1975	854.8892	874.0178	899.2102	907.4092	942.5592	979.7938	1006.6189	1030.2992	1032.3464	1063.4217	1086.8303	1114.2349	1126.8892	1141.7406	1178.7931	1228.205	1244.3186	1259.3608	1315.3862	1342.4061	1375.3237	1410.2282	1414.8089	1487.8793	1499.317	1783.2295	3035.9132	3056.6807	3099.239	3124.3828	3169.7235	3170.5346	3205.3868	3217.3036	3467.2042
CC1C2C3OC(=N)C1C23	C[C@H]1[C@H]2[C@H]3O[C]([NH])[C@@H]1[C@@H]23	
InChI=1S/C7H9NO/c1-2-3-5-4(2)7(8)9-6(3)5/h2-6,8H,1H3	InChI=1S/C7H9NO/c1-2-3-5-4(2)7(8)9-6(3)5/h2-6,8H,1H3/t2-,3+,4-,5+,6+/m0/s1
