17
gdb 32863	6.35219	0.83901	0.74868	2.1982	72.59	-0.1894	0.0393	0.2288	1505.0439	0.135997	-455.172718	-455.163752	-455.162808	-455.206988	32.385	
C	 0.0050787744	 1.4396556018	 0.0530818194	-0.389719
C	 0.0028419336	-0.0754809891	 0.0094209333	-0.051323
O	 0.7223788785	-0.5368646332	 1.1681656974	-0.263953
C	 0.8500265296	-1.844950315	 1.3310747423	 0.505893
N	 1.4691834703	-2.4168321504	 2.3146236095	-0.407449
C	 1.3257568465	-3.7740700578	 2.0443959268	 0.280298
N	 1.937284091	-4.6975213574	 2.8818534194	-0.596215
C	 0.6156736949	-3.946228181	 0.9008140174	-0.14692
O	 0.3012542387	-2.6673971812	 0.4248196134	-0.199054
H	 1.0274038329	 1.8263284222	 0.0324571225	 0.136981
H	-0.5339555237	 1.8345748369	-0.8129290617	 0.123864
H	-0.4832835553	 1.8019862283	 0.9615830301	 0.136137
H	-1.0151983836	-0.4795614377	 0.0332922645	 0.121072
H	 0.4934515433	-0.4550079329	-0.8935673101	 0.122224
H	 2.0747017154	-4.3208315954	 3.810038517	 0.255589
H	 1.4780216958	-5.5965191838	 2.9149500394	 0.246406
H	 0.2744443577	-4.7754650741	 0.3102850495	 0.12617
56.7374	70.8739	147.9314	217.8079	249.2044	263.6422	344.5733	349.3112	366.2846	532.6872	563.5174	637.4151	681.0688	723.3741	759.3173	773.2688	815.8048	911.1739	994.9611	1025.9983	1070.7832	1091.4883	1130.4518	1144.0156	1181.7889	1256.1667	1296.0067	1375.4799	1390.6301	1417.0828	1434.0226	1483.8977	1498.3516	1520.6811	1628.5499	1661.1767	1682.6794	3037.2025	3050.0772	3078.0033	3125.505	3131.142	3313.7047	3556.1224	3655.7952
CCOC1=NC(N)=CO1	CCOc1nc(N)co1	
InChI=1S/C5H8N2O2/c1-2-8-5-7-4(6)3-9-5/h3H,2,6H2,1H3	InChI=1S/C5H8N2O2/c1-2-8-5-7-4(6)3-9-5/h3H,2,6H2,1H3
