17
gdb 16437	3.39907	2.29503	1.72357	1.501	67.88	-0.2206	0.0682	0.2888	807.4233	0.140585	-363.744602	-363.737424	-363.73648	-363.775464	28.081	
C	 0.0531536265	 1.530790631	-0.1527260014	-0.329181
N	 0.0453314936	 0.0747352396	-0.0394228685	-0.149531
C	-1.1075644158	-0.4972342428	 0.7129254712	-0.067196
C	-0.2623888573	-1.7079225971	 1.1903793822	 0.033103
O	-0.6283030356	-1.5817892986	 2.5927104956	-0.329749
C	-0.532727935	-0.2002264263	 2.1441448005	 0.026122
C	 0.7015823719	-0.4790929927	 1.1902451078	 0.325876
C	 2.1682207314	-0.4188358178	 1.4804723548	-0.538079
H	 1.0407879537	 1.864680148	-0.4866172121	 0.122319
H	-0.6734890062	 1.8368346255	-0.9122872515	 0.122625
H	-0.189270978	 2.0612628876	 0.7847367155	 0.09502
H	-2.1385971191	-0.4706883448	 0.3587216205	 0.088778
H	-0.1398041934	-2.6978581993	 0.7536653305	 0.10129
H	-0.7384344561	 0.5843364131	 2.8723696392	 0.09686
H	 2.3798168547	-0.9542809697	 2.411236523	 0.140977
H	 2.741960352	-0.8818915236	 0.671509164	 0.134282
H	 2.5110167425	 0.614874398	 1.5952053385	 0.126483
203.5852	212.7177	213.545	232.3403	276.5399	336.1423	548.7178	559.3173	668.7833	735.9856	757.1545	784.2123	800.5769	825.6241	883.7743	921.1729	937.2409	1004.7912	1075.0836	1103.8076	1118.1848	1130.4125	1150.6921	1163.3273	1168.0786	1188.8234	1206.0772	1270.7046	1295.176	1371.9992	1412.7236	1448.028	1481.5104	1489.9194	1494.2461	1496.6577	2954.069	3035.0763	3064.3608	3100.4302	3103.5026	3110.4564	3113.9365	3121.0603	3139.3138
CN1C2C3OC2C13C	CN1[C@H]2[C@@H]3O[C@H]2[C@]13C	
InChI=1S/C6H9NO/c1-6-4-3(7(6)2)5(6)8-4/h3-5H,1-2H3	InChI=1S/C6H9NO/c1-6-4-3(7(6)2)5(6)8-4/h3-5H,1-2H3/t3-,4-,5+,6+
