20
gdb 60943	2.52775	1.32675	1.0603	3.1197	78.82	-0.2321	-0.0244	0.2077	1208.2297	0.170222	-403.107158	-403.098178	-403.097234	-403.141542	33.089	
C	 0.5586388927	 0.3329180447	-1.3827855322	-0.4198
C	 0.0573232807	 0.0371365816	 0.0415822158	-0.108289
C	 0.1692549214	 1.278791423	 0.910492858	 0.18207
O	 0.7461413288	 1.3277947656	 1.9660614724	-0.25149
C	-1.4015368274	-0.4016521133	 0.0009288485	 0.002662
C	-1.8781962652	-1.802106215	 0.0153383893	-0.046832
C	-1.0297925896	-2.7121345442	 0.9008126682	-0.254265
C	-1.2860092038	-1.6910424632	 2.0373403192	-0.165282
N	-2.1922895834	-0.8498619332	 1.1663760332	-0.160434
H	 1.6185808172	 0.6028324421	-1.3808092583	 0.13006
H	 0.4294482686	-0.5455913923	-2.0213260806	 0.132101
H	-0.0006745762	 1.1596565774	-1.8349987666	 0.125077
H	 0.6880145823	-0.7271438095	 0.5002148867	 0.100619
H	-0.3468136934	 2.176889473	 0.495606262	 0.077467
H	-2.0149054765	 0.2627384972	-0.607850358	 0.096499
H	-2.6532875832	-2.1449439191	-0.6641383426	 0.095626
H	-1.506803058	-3.6753439737	 1.0887081208	 0.114988
H	 0.0016472225	-2.8937739801	 0.5829134242	 0.105685
H	-1.8709449109	-2.0992066791	 2.8630196929	 0.11423
H	-0.4301997468	-1.1483811621	 2.4469758172	 0.129307
53.5682	69.7658	159.4165	200.819	201.5258	288.2272	298.0578	351.7313	453.563	500.9088	575.212	752.475	777.6366	785.113	792.6464	885.87	904.908	955.6529	965.5354	973.273	1007.3328	1023.5427	1074.773	1101.575	1122.0769	1147.7917	1157.7114	1184.9895	1224.3288	1248.8214	1269.8477	1279.73	1301.0146	1327.3363	1363.7545	1402.6876	1421.4223	1443.1765	1492.0338	1496.8486	1497.247	1522.6612	1830.5829	2854.069	3034.7825	3052.2684	3072.136	3091.2064	3104.2761	3110.9702	3113.6083	3117.3642	3129.7254	3151.271
CC(C=O)C1C2CCN12	C[C@@H](C=O)[C@H]1[C@H]2CCN12	
InChI=1S/C7H11NO/c1-5(4-9)7-6-2-3-8(6)7/h4-7H,2-3H2,1H3	InChI=1S/C7H11NO/c1-5(4-9)7-6-2-3-8(6)7/h4-7H,2-3H2,1H3/t5-,6+,7-,8?/m0/s1
