21
gdb 115643	2.81479	1.15159	0.95653	2.6376	78.08	-0.2471	0.0678	0.3149	1319.349	0.181808	-424.188701	-424.17954	-424.178596	-424.223464	33.433	
C	-0.0046050194	 1.5902529863	-0.0031685264	-0.385983
C	-0.2114533611	 0.0883813432	-0.2271620988	-0.201134
C	 0.7461633663	-0.4876751541	-1.2630579299	-0.101643
C	 2.2256043148	-0.657330735	-0.8535628076	-0.091048
O	 2.1726168365	-2.0778400777	-1.1088478886	-0.307098
C	 0.7884472693	-2.0213114978	-1.4710167417	 0.352312
C	-0.1762559847	-3.0217808516	-0.8031658889	-0.130878
O	-0.6493883138	-3.47894722	-2.0867713745	-0.275208
C	 0.3522956749	-2.7061397241	-2.7792597261	-0.128849
H	 1.0122067431	 1.8053541357	 0.3432828584	 0.120237
H	-0.1649002786	 2.1533022119	-0.929101844	 0.118604
H	-0.6990915695	 1.9773165256	 0.7481692728	 0.118658
H	-0.0841802178	-0.4465039221	 0.7231023095	 0.102032
H	-1.2447717334	-0.0954210153	-0.5477458376	 0.107452
H	 0.6302442596	 0.0445499912	-2.2131748296	 0.078721
H	 2.9718775718	-0.1572761464	-1.480998861	 0.104781
H	 2.4438738732	-0.4428570544	 0.2008917489	 0.100028
H	 0.3566815785	-3.8047723552	-0.2477509278	 0.108306
H	-0.9858766262	-2.6188266214	-0.184168812	 0.102428
H	-0.0815246959	-2.0649956911	-3.5569723171	 0.099311
H	 1.1418433525	-3.3327933276	-3.2144977882	 0.10897
55.0072	76.8302	116.7997	160.8075	216.2515	259.3331	292.0791	357.6929	436.9584	475.9451	517.2665	762.6807	806.8013	819.4456	895.0117	910.7791	930.9621	963.2563	968.4167	996.1119	1026.8798	1028.3741	1034.3063	1092.0043	1140.1887	1148.8398	1151.1688	1162.2515	1193.8923	1201.178	1242.3402	1273.6266	1291.8388	1300.0349	1335.5996	1362.4913	1377.0782	1399.2459	1414.3385	1485.8358	1494.3286	1500.5118	1506.3344	1521.2472	1525.2183	3003.6612	3010.9883	3016.0268	3019.2211	3032.4588	3041.1096	3054.1579	3057.6801	3066.7753	3067.5609	3099.169	3108.0026
CCC1COC11COC1	CC[C@H]1COC21COC2	
InChI=1S/C7H12O2/c1-2-6-3-9-7(6)4-8-5-7/h6H,2-5H2,1H3	InChI=1S/C7H12O2/c1-2-6-3-9-7(6)4-8-5-7/h6H,2-5H2,1H3/t6-/m0/s1
