13
gdb 21937	3.33803	1.86316	1.2963	2.2491	55.77	-0.2396	-0.0077	0.2319	886.5495	0.097124	-431.912378	-431.905024	-431.90408	-431.944757	26.174	
O	 0.1959561931	 1.3746888335	-0.0311070828	-0.412389
C	 0.0974856322	-0.045924568	-0.0377897958	-0.16689
C	-1.3158561331	-0.5329184752	-0.0522500524	 0.203842
N	-1.9808975981	-0.8484747096	 1.0645655218	-0.256993
N	-3.1887319172	-1.1696273675	 0.640237996	-0.088036
N	-3.3939188736	-1.1021619596	-0.6805093979	-0.30353
C	-2.2141988663	-0.6937695494	-1.1301807812	 0.318281
O	-1.9457647379	-0.4874763881	-2.4297332443	-0.418428
H	-0.2681080854	 1.6868972154	 0.7529549532	 0.284535
H	 0.6104426127	-0.3701601438	-0.9473586701	 0.126797
H	 0.6161414303	-0.4900312799	 0.8229632232	 0.107846
H	-3.9128220714	-1.4727512175	 1.2694813089	 0.294195
H	-2.7432455453	-0.6910270903	-2.9337828086	 0.310771
39.0699	153.2532	227.2165	314.3058	351.1339	378.4025	413.4086	461.5154	489.9157	678.4584	706.3829	756.3772	812.158	946.7649	995.3623	1048.4567	1147.4809	1187.5968	1202.8254	1266.3806	1306.9791	1369.3467	1407.9985	1426.7974	1466.4751	1493.8206	1582.064	1599.8279	3012.6955	3096.4308	3680.4528	3801.7609	3811.1959
OCC1=NNN=C1O	OCc1n[nH]nc1O	
InChI=1S/C3H5N3O2/c7-1-2-3(8)5-6-4-2/h7H,1H2,(H2,4,5,6,8)	InChI=1S/C3H5N3O2/c7-1-2-3(8)5-6-4-2/h7H,1H2,(H2,4,5,6,8)
