19
gdb 39332	2.74701	1.85624	1.3414	1.4647	73.81	-0.2385	0.0793	0.3177	985.0386	0.16186	-423.021813	-423.014689	-423.013745	-423.053449	28.622	
C	-0.0122816003	 1.4330578815	-0.1667477655	-0.369116
C	 1.35811462	 0.7698530997	-0.0319557039	-0.124921
C	 1.9774862795	 0.692056167	 1.3650462986	-0.23966
C	 1.3163553806	-0.5409099607	 2.0426341379	-0.227682
C	-0.0501641861	-0.7357446188	 1.3484522252	 0.036072
O	-0.3532167547	-2.0849428733	 0.9793507091	-0.269152
C	-0.09008969	-2.1960700174	-0.4045684376	-0.003336
O	-0.3632969553	-0.9338839318	-0.9793399157	-0.274936
C	 0.0791803144	-0.0357155916	-0.0077400999	 0.426438
H	-0.3973374833	 2.036252155	 0.6518051135	 0.111076
H	-0.2724329979	 1.7960170059	-1.1557182134	 0.125875
H	 1.9971128764	 0.7812165098	-0.9071045079	 0.095605
H	 3.0639468505	 0.5809793084	 1.3165278295	 0.107207
H	 1.7819435604	 1.6076358916	 1.93561097	 0.102932
H	 1.9129016036	-1.4370706689	 1.8428138427	 0.112653
H	 1.2320366093	-0.442062357	 3.1281531767	 0.100338
H	-0.8858059742	-0.3743554908	 1.9567338758	 0.087618
H	 0.9651010636	-2.4723453755	-0.5805879699	 0.082727
H	-0.7573923365	-2.942611763	-0.8424782851	 0.120263
87.4033	177.7305	206.6958	379.1363	396.5741	435.4501	545.5726	569.5591	593.5295	740.1412	805.8336	818.5717	831.9072	851.2445	913.1999	940.761	953.4133	983.3658	993.8887	1028.3249	1054.9586	1060.895	1087.6204	1099.7836	1124.0883	1168.8565	1198.2653	1211.8904	1228.1864	1259.6074	1272.7954	1292.1257	1324.309	1341.2979	1368.4243	1389.5396	1433.543	1480.4332	1489.0575	1502.8208	1539.331	2938.8692	3034.3296	3049.3024	3052.1672	3088.6529	3098.5795	3105.7373	3111.9772	3181.9751	3206.4221
C1C2CCC3OCOC123	C1[C@H]2CC[C@@H]3OCO[C@]123	
InChI=1S/C7H10O2/c1-2-6-7(3-5(1)7)9-4-8-6/h5-6H,1-4H2	InChI=1S/C7H10O2/c1-2-6-7(3-5(1)7)9-4-8-6/h5-6H,1-4H2/t5-,6+,7-/m1/s1
