20
gdb 40441	3.54313	1.2056	1.09504	1.3664	78.47	-0.247	0.0733	0.3203	1186.7599	0.172842	-403.120342	-403.112392	-403.111448	-403.153167	31.056	
C	-0.0913753184	 1.4955877864	-0.0642583477	-0.241635
N	 1.2235478633	 0.835909435	-0.0287658638	-0.320103
C	 0.0017649146	 0.0169702545	 0.0586529931	-0.126418
C	-0.2315188665	-0.7113305707	 1.3396667885	 0.480753
C	 0.1245443456	-0.1087895587	 2.6883947688	-0.298778
C	-0.0376701315	-1.2840277774	 3.6828845133	-0.219336
C	 0.2258566294	-2.5682173012	 2.8587139909	-0.239159
C	-0.175668367	-2.1778228447	 1.4515987612	-0.01196
O	-1.4407668253	-1.4989768425	 1.3756841808	-0.315694
H	-0.317885522	 2.1025602441	 0.8072384429	 0.122102
H	-0.4523349454	 1.9025449083	-1.0050366594	 0.114346
H	 1.616769799	 0.7780813345	-0.9637806404	 0.235646
H	-0.2919895838	-0.55766592	-0.8175018197	 0.083933
H	 1.1574039482	 0.2515640729	 2.6390875869	 0.125828
H	-0.5119367716	 0.7421333906	 2.9506896474	 0.101871
H	 0.6281670153	-1.1961892303	 4.5445726736	 0.097071
H	-1.0624513215	-1.3012845694	 4.0595483524	 0.117774
H	 1.2898234191	-2.8362685651	 2.8569710496	 0.103411
H	-0.3298241236	-3.4322614072	 3.236387966	 0.10664
H	 0.0554633823	-2.820950969	 0.6047668456	 0.083708
57.3957	152.9715	182.1496	217.6717	304.5254	377.2586	414.0921	520.8444	568.6674	657.5086	695.7894	813.7691	852.222	868.4031	882.618	895.2565	904.2537	916.7877	947.7893	964.6198	971.0877	1034.4728	1042.5688	1080.107	1115.5513	1123.6747	1157.651	1170.6159	1207.4776	1241.8873	1255.1951	1273.498	1283.7165	1290.5905	1325.2849	1341.1226	1358.0743	1402.4064	1474.2838	1479.9625	1492.4572	1503.1914	1517.1546	3034.1088	3050.367	3071.6402	3082.3755	3090.8869	3111.9026	3119.8751	3127.8975	3134.2473	3197.4279	3511.3029
C1NC1C12CCCC1O2	C1N[C@H]1[C@]12CCC[C@H]1O2	
InChI=1S/C7H11NO/c1-2-6-7(3-1,9-6)5-4-8-5/h5-6,8H,1-4H2	InChI=1S/C7H11NO/c1-2-6-7(3-1,9-6)5-4-8-5/h5-6,8H,1-4H2/t5-,6-,7-/m1/s1
