22
gdb 109811	3.27368	0.85433	0.7813	4.1824	86.79	-0.278	0.0396	0.3176	1554.6239	0.193221	-367.224534	-367.214123	-367.213179	-367.260762	37.407	
C	 2.715216838	 1.787024957	-0.1088918996	-0.379422
C	 2.1669504988	 0.3868012175	 0.1947681796	-0.195217
C	 1.907187141	-0.4156000822	-1.0667435893	-0.037785
C	 2.960437934	-1.2679260465	-1.7508772218	-0.009559
C	 4.375729498	-1.4220183863	-1.2322852989	-0.417725
C	 1.764947286	-1.9242689752	-1.0914410411	-0.046896
C	 1.88830616	-2.7666720664	 0.1718872429	-0.365723
C	 2.2638094778	-4.1513582439	-0.1237334593	 0.265627
N	 2.5578714036	-5.2411314405	-0.3716616125	-0.310365
H	 3.6750063628	 1.7306064254	-0.6321240538	 0.122449
H	 2.0244321974	 2.3501844184	-0.7458193077	 0.11741
H	 2.8646631669	 2.3613065973	 0.8105041408	 0.113714
H	 2.8654792846	-0.1336758827	 0.8581401846	 0.093675
H	 1.2293682081	 0.4793015473	 0.7588854197	 0.099849
H	 1.2308352879	 0.099499972	-1.7464099841	 0.08608
H	 2.9142797029	-1.2610657351	-2.8369007993	 0.09001
H	 4.4425891934	-1.3767988979	-0.1423223975	 0.114329
H	 4.8012467891	-2.3810322479	-1.5460888144	 0.136489
H	 5.0184933809	-0.6282210634	-1.6274158361	 0.122838
H	 1.0116176625	-2.3161885641	-1.7687934964	 0.100772
H	 2.6278825972	-2.356583244	 0.8644604721	 0.147814
H	 0.9343111393	-2.7798897789	 0.712875162	 0.151638
40.574	74.2526	92.9081	148.8223	191.6584	206.0891	233.9826	281.1064	286.8646	386.2765	432.6731	497.2162	535.0008	575.8323	741.4704	771.6996	814.66	828.3418	912.0519	939.6246	960.8817	998.6328	1008.8124	1048.1205	1068.7872	1101.9712	1135.6652	1154.2842	1160.7504	1195.5664	1241.7755	1272.5202	1296.8371	1313.4725	1340.	1390.4908	1401.1497	1412.7003	1421.7912	1456.1729	1463.6452	1486.2743	1498.3972	1500.6846	1502.7369	1512.2362	2360.3605	3020.2792	3034.2546	3037.596	3043.2807	3062.9954	3095.7671	3097.2009	3102.2828	3108.8765	3112.2097	3118.5923	3135.0032	3150.2438
CCC1C(C)C1CC#N	CC[C@H]1[C@@H](C)[C@H]1CC#N	
InChI=1S/C8H13N/c1-3-7-6(2)8(7)4-5-9/h6-8H,3-4H2,1-2H3	InChI=1S/C8H13N/c1-3-7-6(2)8(7)4-5-9/h6-8H,3-4H2,1-2H3/t6-,7+,8-/m1/s1
