18
gdb 33095	6.30963	0.77436	0.69573	0.965	75.8	-0.1734	0.0702	0.2435	1594.6136	0.146747	-439.108984	-439.099522	-439.098578	-439.143382	34.49	
C	 0.0313702428	 1.5275152759	-0.0555250055	-0.391665
C	 0.0360418835	 0.0102651735	-0.0089896081	-0.038106
O	 0.6458031543	-0.4685940702	-1.1968500754	-0.273469
C	 0.7289551481	-1.8189089879	-1.3097525504	 0.378593
C	 0.3054655734	-2.7941411951	-0.4373622938	-0.236645
N	 0.6281217959	-4.0169098545	-1.0281027317	-0.312553
C	 1.2305083675	-3.7979678397	-2.2247885325	 0.416302
O	 1.6159709999	-4.8829969314	-2.9440485496	-0.436379
C	 1.3197738134	-2.4451450481	-2.4518518582	-0.442161
H	 1.0521888853	 1.913859026	-0.123694799	 0.12837
H	-0.5296255796	 1.8844743494	-0.9237657173	 0.128372
H	-0.4334630571	 1.9319859756	 0.8486131735	 0.114579
H	 0.5942511781	-0.355848854	 0.8664189123	 0.095892
H	-0.9886582547	-0.3852114068	 0.0657546305	 0.095876
H	-0.1807378036	-2.7502158845	 0.5198533419	 0.111898
H	 0.4508201378	-4.9269534825	-0.6431528213	 0.262858
H	 2.0221549294	-4.5735241829	-3.75889931	 0.307303
H	 1.7446297257	-1.9480389228	-3.3087128956	 0.090935
62.8484	103.8067	144.2021	199.3912	226.4152	247.8941	265.6159	344.7583	349.3247	416.878	491.5084	576.1532	646.8194	667.0809	674.4421	729.3866	751.3658	829.433	912.224	993.9498	1018.233	1082.623	1113.6457	1138.5777	1174.9644	1189.4531	1205.7553	1288.5449	1292.832	1332.8929	1397.1497	1414.1446	1450.2967	1483.9597	1501.5296	1527.5365	1558.841	1590.1319	1639.5868	2977.7937	3007.8558	3045.6003	3119.735	3123.1358	3259.2757	3296.4964	3698.6509	3851.5812
CCOC1=CNC(O)=C1	CCOc1c[nH]c(O)c1	
InChI=1S/C6H9NO2/c1-2-9-5-3-6(8)7-4-5/h3-4,7-8H,2H2,1H3	InChI=1S/C6H9NO2/c1-2-9-5-3-6(8)7-4-5/h3-4,7-8H,2H2,1H3
