19
gdb 111710	2.65251	1.25186	0.99608	4.9127	82.1	-0.2611	0.0107	0.2718	1251.5787	0.159317	-382.042374	-382.033647	-382.032703	-382.076001	32.697	
C	 0.2478422719	 1.475928991	 0.1535555671	-0.379339
C	-0.2531556671	 0.0558046092	-0.0958760242	-0.130339
N	 0.5421200479	-0.570659557	-1.1505296281	-0.10971
C	 1.7861119075	-1.2578982152	-0.9183122166	-0.093773
C	 1.8058886826	-2.0870857488	 0.3804411589	-0.246684
C	 0.533151105	-2.8487456147	-0.0988140513	-0.296691
C	 0.5384331696	-1.9983858448	-1.3923856591	 0.190495
C	 0.1842526696	-2.4888628168	-2.6910603402	 0.22444
N	-0.1063499853	-2.9227787943	-3.7234448411	-0.349456
H	 1.2803513717	 1.4692500062	 0.5179206471	 0.120724
H	 0.2183645259	 2.0618267255	-0.7688235795	 0.135248
H	-0.371920939	 1.9732509796	 0.9053400149	 0.119035
H	-0.2499621385	-0.5107655285	 0.846109132	 0.095127
H	-1.2882479636	 0.0763503227	-0.4530800061	 0.119073
H	 2.6527801647	-0.9633417681	-1.4997921705	 0.117632
H	 2.6790105493	-2.7390912802	 0.436365421	 0.121568
H	 1.7326198432	-1.5207508968	 1.3124179058	 0.114681
H	 0.7327039268	-3.9008104153	-0.305898112	 0.131861
H	-0.3693244221	-2.7739919238	 0.5125479519	 0.116108
65.9965	132.907	151.3592	209.9488	216.0267	287.2904	314.1945	415.6266	488.8983	538.0121	576.1154	620.7311	729.1555	783.9419	794.3745	819.6131	908.5419	941.0894	948.3696	959.9925	1021.7066	1055.8073	1076.7526	1113.36	1123.9798	1177.7339	1190.8751	1218.9076	1225.4934	1270.7506	1282.6596	1309.1548	1378.7249	1403.6598	1421.8522	1473.0612	1489.1015	1491.8871	1500.5471	1516.443	2351.4111	3007.1446	3042.1733	3068.2811	3068.5143	3075.0541	3111.8659	3120.1032	3126.0751	3138.034	3178.9585
CCN1C2CCC12C#N	CCN1[C@H]2CC[C@@]12C#N	
InChI=1S/C7H10N2/c1-2-9-6-3-4-7(6,9)5-8/h6H,2-4H2,1H3	InChI=1S/C7H10N2/c1-2-9-6-3-4-7(6,9)5-8/h6H,2-4H2,1H3/t6-,7-,9?/m0/s1
