16
gdb 121612	2.72684	1.25061	0.99957	7.6074	62.39	-0.2587	-0.0356	0.2231	1185.6951	0.123867	-512.204976	-512.195966	-512.195021	-512.239359	31.762	
N	-1.1134706023	 1.5894005095	-0.2880505861	-0.501311
H	-1.7570671625	 0.809452094	-0.3795031896	 0.254699
H	-0.226541693	 1.2819762772	-0.6792303986	 0.249154
H	-1.6870332314	 3.0737181853	-1.3912815743	 0.324875
C	-0.9565195439	 1.9442544873	 1.135083129	-0.189913
C	-0.067813077	 3.1852461498	 1.2891828759	-0.081835
O	-0.3695755282	 4.1221872397	 0.2458603755	-0.232836
C	-1.5991366556	 4.685705908	 0.2785838204	 0.317793
O	-2.2577131184	 4.8588710168	 1.2648547057	-0.337715
C	-2.0698870035	 4.9530546262	-1.1630546508	 0.365484
O	-2.4578789148	 6.0164965827	-1.5516140603	-0.317887
O	-2.041936247	 3.842916517	-1.9074285917	-0.381034
H	-1.9521259386	 2.1647644366	 1.5291840633	 0.151043
H	-0.5304699034	 1.1366866232	 1.74795972	 0.108466
H	-0.2061322268	 3.6357958967	 2.2752108728	 0.145562
H	 0.9887740363	 2.9464078901	 1.146436669	 0.125455
65.7951	88.2503	134.943	184.2191	209.1587	286.1528	297.0411	338.6915	385.2281	410.3955	565.9432	691.4716	724.8736	802.4025	831.8001	860.6449	884.8958	894.2823	961.5187	1013.8919	1063.9282	1096.4731	1151.2194	1228.3995	1283.5529	1287.888	1325.9794	1402.3845	1425.6152	1455.5416	1490.1213	1510.9732	1652.9094	1833.501	1884.6218	3003.5492	3072.3318	3096.6911	3128.4833	3281.0399	3491.7249	3572.6118
[NH3+]CCOC(=O)C([O-])=O	NCCOC(=O)C(=O)O	
InChI=1S/C4H7NO4/c5-1-2-9-4(8)3(6)7/h1-2,5H2,(H,6,7)	InChI=1S/C4H7NO4/c5-1-2-9-4(8)3(6)7/h1-2,5H2,(H,6,7)
