18
gdb 125898	3.64189	1.28453	1.00737	3.0695	80.78	-0.188	0.0372	0.2252	1191.3758	0.149664	-398.112133	-398.10374	-398.102795	-398.14555	31.28	
C	-0.2931081532	 1.6640241216	-0.2217665327	-0.401026
C	 0.0970239455	 0.215291578	 0.0025995268	 0.060689
C	 0.8135161961	-0.564915984	-1.1824868531	-0.412692
C	 1.9850189666	-0.7093467308	-0.2204070949	 0.34196
C	 3.1698801758	-1.163372008	 0.3370372826	-0.020601
N	 4.235993126	-1.8760440566	-0.24445956	-0.608471
C	 3.1024272308	-0.6361622672	 1.6608626134	-0.045629
N	 1.9755949249	 0.0601029597	 1.9165932345	-0.317719
N	 1.3571668856	-0.0048024383	 0.7410890099	 0.082402
H	 0.5315421969	 2.2244858572	-0.6719247595	 0.131098
H	-1.1611774367	 1.7223842445	-0.8863576932	 0.123585
H	-0.5573940113	 2.1427519208	 0.725797657	 0.141059
H	-0.7314096919	-0.3536689838	 0.438093988	 0.103886
H	 0.3128072037	-1.4912530121	-1.4766804615	 0.120532
H	 0.9909478367	 0.0453267558	-2.072562415	 0.122014
H	 3.9195680783	-2.5614700179	-0.9190798541	 0.239845
H	 4.7936617873	-2.3512313712	 0.4542764263	 0.24198
H	 3.851814519	-0.7360657376	 2.4341586255	 0.097089
46.2641	140.025	167.5671	212.5576	261.9302	299.9447	342.7847	430.0991	531.9007	636.7249	653.6559	657.6417	713.3241	751.5697	785.0979	829.819	873.7388	915.2685	986.8014	1057.8443	1066.7821	1088.4067	1110.385	1178.3292	1203.9105	1212.0718	1229.3406	1268.453	1331.6321	1368.5915	1379.9789	1409.252	1423.082	1476.2662	1486.5331	1496.7251	1513.0689	1639.8462	1659.3485	3039.6044	3051.5551	3056.3385	3103.7246	3113.0977	3120.5274	3230.1753	3528.3597	3614.824
CC1CC2=C(N)C=NN12	C[C@H]1Cc2c(N)cnn12	
InChI=1S/C6H9N3/c1-4-2-6-5(7)3-8-9(4)6/h3-4H,2,7H2,1H3	InChI=1S/C6H9N3/c1-4-2-6-5(7)3-8-9(4)6/h3-4H,2,7H2,1H3/t4-/m0/s1
