16
gdb 42218	3.3402	1.30601	1.10093	3.8981	77.84	-0.242	-0.0332	0.2088	1109.4427	0.123639	-400.661069	-400.653273	-400.652329	-400.69375	29.521	
O	-0.1715535264	 0.0502363251	 0.5521336383	-0.349003
C	-0.1212299187	 1.1902939408	 0.1298300142	 0.220371
C	 1.1010813905	 1.9840594379	 0.154448365	 0.254616
C	 2.1173234762	 2.6243893429	 0.2181122873	-0.425771
N	-1.1710300781	 1.8189727851	-0.5043592578	-0.093784
C	-1.6943977681	 3.2123855403	-0.2221978824	-0.032363
C	-2.9359044119	 2.8080272419	-1.0645914507	-0.218906
C	-2.6159988536	 1.6119888911	-0.1227997428	-0.022158
C	-2.4231251266	 2.6438541038	 1.0322279846	-0.220083
H	 3.0240031329	 3.1757532323	 0.2763394663	 0.209543
H	-1.0545399982	 4.0881496716	-0.3148585167	 0.107535
H	-3.8579004434	 3.3527067613	-0.859832614	 0.107384
H	-2.7613598223	 2.6428976908	-2.1276854455	 0.117378
H	-3.0559904683	 0.6182973866	-0.0917110441	 0.116569
H	-1.7909407254	 2.3245910388	 1.8620319172	 0.125254
H	-3.3134371586	 3.1788038597	 1.372040481	 0.103417
82.3283	121.6869	135.6122	237.7692	281.9774	449.5732	509.7725	564.5154	614.1563	655.7091	683.5271	698.4598	779.4538	791.2055	799.0407	894.1266	901.2784	918.795	992.5786	1006.2681	1021.4126	1076.0429	1107.8768	1118.6714	1130.5967	1187.6636	1193.5	1225.9823	1253.9219	1261.8368	1351.0522	1483.0835	1522.073	1740.9527	2221.1962	3064.6763	3087.7991	3140.7585	3143.7314	3158.7825	3165.8456	3495.9048
O=C(C#C)N1C2CC1C2	O=C(C#C)N1[C@H]2C[C@@H]1C2	
InChI=1S/C7H7NO/c1-2-7(9)8-5-3-6(8)4-5/h1,5-6H,3-4H2	InChI=1S/C7H7NO/c1-2-7(9)8-5-3-6(8)4-5/h1,5-6H,3-4H2/t5-,6+
