17
gdb 61977	3.95165	0.76188	0.66926	4.7565	70.17	-0.2715	-0.0029	0.2686	1622.2351	0.133969	-455.183841	-455.173562	-455.172618	-455.221161	34.585	
C	-0.192714439	 1.439918187	-0.0104435229	-0.480639
C	 0.0690962578	-0.0449976359	-0.0088565577	 0.428033
O	 1.1458544898	-0.5784933584	-0.0315253081	-0.333535
O	-1.100217759	-0.7371076081	 0.0245191838	-0.251614
C	-0.9779693381	-2.1648469709	 0.0343168638	-0.070642
C	-2.4192332459	-2.7032125235	-0.0273828348	-0.137725
N	-3.1890412938	-2.304904904	-1.2051654266	-0.503398
C	-2.3858138251	-4.1691600654	 0.0762243643	 0.2863
N	-2.3241025731	-5.3197638495	 0.1528085858	-0.307271
H	 0.7558682229	 1.9736238155	-0.0459909615	 0.156419
H	-0.8080320983	 1.7136722504	-0.8721563335	 0.150945
H	-0.7471487245	 1.7233807682	 0.8886871639	 0.155265
H	-0.3941414546	-2.4987382641	-0.8289972984	 0.135186
H	-0.4621630461	-2.4917385381	 0.942550492	 0.139948
H	-2.9509975739	-2.3242193788	 0.854833494	 0.14504
H	-3.1578268234	-1.2918942338	-1.2723035916	 0.246275
H	-2.7515146756	-2.6722960707	-2.0460163026	 0.241412
26.6609	54.6803	72.2706	100.2999	186.1166	198.421	239.1924	261.9899	312.4137	385.1981	460.1171	551.287	576.6057	603.26	652.2929	834.5188	872.5047	935.4685	951.6831	987.6649	1064.7333	1071.5052	1092.0732	1149.1649	1200.3468	1252.165	1264.8077	1313.7007	1383.1938	1399.5691	1419.7476	1468.8836	1475.7337	1501.8738	1658.7663	1837.6348	2368.6689	3037.8769	3053.8455	3058.1805	3106.1479	3122.7677	3172.7367	3491.1258	3577.6313
CC(=O)OCC(N)C#N	CC(=O)OC[C@@H](N)C#N	
InChI=1S/C5H8N2O2/c1-4(8)9-3-5(7)2-6/h5H,3,7H2,1H3	InChI=1S/C5H8N2O2/c1-4(8)9-3-5(7)2-6/h5H,3,7H2,1H3/t5-/m0/s1
