17
gdb 98627	4.22819	1.06927	0.98834	2.449	70.04	-0.2409	0.01	0.2509	1231.6411	0.135284	-458.941639	-458.933255	-458.932311	-458.975481	30.164	
C	 0.0997927263	 1.3685224266	 0.0436167803	-0.240194
O	-0.0519465886	-0.0554229205	 0.0629172049	-0.240438
C	-1.3111363363	-0.5018619364	-0.1529172413	 0.464414
O	-2.2504961859	 0.2327828359	-0.3389855442	-0.372257
C	-1.3294410235	-1.9889499223	-0.1342591047	-0.183196
C	-2.5761366446	-2.8417795868	 0.0500697286	-0.165477
C	-3.7498591248	-2.2662092249	-0.7453409152	-0.084127
O	-2.9447033644	-2.2314949143	-1.9619470457	-0.272713
C	-1.8693385099	-2.8397283413	-1.274969264	 0.091149
H	 1.1545818862	 1.5574594705	 0.2440252299	 0.13105
H	-0.1829164422	 1.7741785454	-0.9312074445	 0.141921
H	-0.5250601266	 1.8346818654	 0.8098113751	 0.139402
H	-0.4428056573	-2.4303888992	 0.3092278351	 0.113662
H	-2.6370409046	-3.5925505641	 0.8260836515	 0.10731
H	-4.5653199873	-2.9873567234	-0.8609530108	 0.110008
H	-4.1232452399	-1.2802584053	-0.4699929594	 0.144554
H	-1.2591669164	-3.5618536052	-1.8057131054	 0.11493
47.3713	119.4113	141.4772	168.4033	219.5663	299.3051	358.5344	423.1364	473.3546	694.7808	776.9232	787.564	803.7075	832.1137	908.2003	938.5498	965.0649	988.4975	1000.9457	1042.197	1060.2959	1088.7873	1101.2872	1155.5483	1170.1588	1179.3498	1195.7714	1216.1666	1262.7041	1310.1861	1369.4302	1434.133	1476.6488	1481.8256	1496.6889	1498.6314	1809.5496	3050.6911	3052.6936	3124.4493	3144.9702	3156.9777	3170.1425	3179.8974	3206.8676
COC(=O)C1C2COC12	COC(=O)[C@H]1[C@H]2CO[C@@H]12	
InChI=1S/C6H8O3/c1-8-6(7)4-3-2-9-5(3)4/h3-5H,2H2,1H3	InChI=1S/C6H8O3/c1-8-6(7)4-3-2-9-5(3)4/h3-5H,2H2,1H3/t3-,4+,5-/m1/s1
