19
gdb 91880	2.338	1.58998	1.07399	3.1773	75.51	-0.2436	-0.0261	0.2175	1148.7111	0.159849	-423.046047	-423.037918	-423.036974	-423.078743	31.394	
C	 0.0916733253	 1.5751019914	 0.0183067603	-0.405252
C	 0.0093956705	 0.0464541584	 0.0199344858	 0.016301
C	 0.5462966255	-0.5469725893	-1.2992311927	-0.226381
C	 0.8620671626	-2.0316032448	-1.2430488865	 0.029733
O	 2.0697255969	-2.3834873263	-0.5776848075	-0.241196
C	 0.836182113	-2.7905954164	 0.033349904	-0.057948
C	 0.4732580279	-2.0555916086	 1.2924056774	 0.386387
O	-0.0380015925	-2.6295200319	 2.226736931	-0.315967
C	 0.7322622969	-0.561945664	 1.2452355307	-0.316307
H	 1.1344420338	 1.9098094273	-0.0271295346	 0.120087
H	-0.4331056444	 1.9979026731	-0.8450817447	 0.116105
H	-0.3571608396	 1.9960697882	 0.9233792195	 0.120351
H	-1.0495917213	-0.2359063136	 0.1017558629	 0.087855
H	-0.1764561036	-0.3637485507	-2.1020911756	 0.107656
H	 1.4708545061	-0.0306439724	-1.5893405247	 0.11871
H	 0.685238986	-2.6019295645	-2.1552902694	 0.105263
H	 0.6393823993	-3.8606686706	 0.0412201573	 0.107686
H	 1.8109330463	-0.3824779252	 1.1626800269	 0.129205
H	 0.3718415414	-0.1208430698	 2.17763062	 0.117714
91.8421	125.4749	231.2534	246.6187	290.3604	357.0986	398.9175	411.9906	480.8218	502.7794	587.8901	698.5818	788.8188	812.0457	851.5412	885.2387	904.5593	943.5491	955.7181	1016.1382	1031.9166	1077.9738	1106.8653	1142.2351	1160.856	1175.1583	1258.5087	1264.4574	1283.6469	1296.5622	1333.2007	1357.0672	1374.0108	1386.0359	1414.5349	1432.6014	1462.6911	1478.3557	1497.141	1499.003	1812.6318	3003.4292	3024.7638	3029.3478	3044.7777	3070.6851	3096.184	3103.7725	3108.2061	3112.7174	3145.212
CC1CC2OC2C(=O)C1	C[C@H]1C[C@H]2O[C@H]2C(=O)C1	
InChI=1S/C7H10O2/c1-4-2-5(8)7-6(3-4)9-7/h4,6-7H,2-3H2,1H3	InChI=1S/C7H10O2/c1-4-2-5(8)7-6(3-4)9-7/h4,6-7H,2-3H2,1H3/t4-,6-,7+/m1/s1
