17
gdb 7470	3.99716	1.4059	1.31965	5.2603	68.14	-0.2611	0.0274	0.2885	988.4391	0.141261	-363.866899	-363.858614	-363.85767	-363.900159	29.748	
C	-0.1722339678	 1.6939923488	-0.1853725315	-0.442216
C	 0.0146299216	 0.1883384753	-0.0911781414	 0.426856
C	-1.3046137295	-0.5544096832	 0.2125806825	-0.379798
C	-1.9467148138	-0.107497363	 1.446670935	 0.275823
N	-2.4579577747	 0.2562267925	 2.416889973	-0.311082
C	 0.8414272066	-0.4802259934	-1.2206659719	-0.339688
C	 1.8364168381	-0.8262702161	-0.0964001553	-0.065867
O	 1.0215030212	-0.1603099624	 0.8916706011	-0.310951
H	 0.7856036297	 2.1773422656	-0.3936440063	 0.124756
H	-0.873297436	 1.9499875329	-0.987459432	 0.118023
H	-0.5618770654	 2.0923884608	 0.7556759027	 0.154851
H	-2.0048034904	-0.4138576172	-0.6196434808	 0.149337
H	-1.1024662021	-1.6273577092	 0.2931247479	 0.150685
H	 0.3661173736	-1.3301928901	-1.7141959663	 0.111428
H	 1.2120455677	 0.2114108999	-1.9786229761	 0.117496
H	 1.9549283607	-1.8940596711	 0.1226063973	 0.108459
H	 2.8296510705	-0.37095894	-0.1786157379	 0.111889
53.4444	85.4555	142.1808	224.2389	300.6045	331.3841	384.7785	398.6465	406.4795	521.4013	713.6567	783.9665	857.3471	867.2411	906.1493	930.1811	964.9119	988.4817	1002.095	1026.9759	1128.2673	1161.0505	1191.9452	1206.7129	1238.654	1265.0363	1293.0783	1334.6965	1357.845	1412.0912	1451.7168	1482.7419	1489.4437	1497.8091	1531.999	2363.0568	3024.5702	3037.7886	3043.4111	3065.2431	3077.9717	3088.9038	3112.3171	3126.3107	3133.9277
CC1(CC#N)CCO1	C[C@@]1(CC#N)CCO1	
InChI=1S/C6H9NO/c1-6(2-4-7)3-5-8-6/h2-3,5H2,1H3	InChI=1S/C6H9NO/c1-6(2-4-7)3-5-8-6/h2-3,5H2,1H3/t6-/m1/s1
