14
gdb 123979	3.85728	1.64212	1.15997	1.4631	67.56	-0.2228	0.0024	0.2251	962.8138	0.105503	-432.887426	-432.881059	-432.880115	-432.918357	24.587	
C	-0.0025602735	 1.5015318225	-0.0592411469	-0.27944
N	 1.3574195318	 2.0221416357	 0.1166709897	-0.260361
C	 2.3468713389	 1.2551161524	 0.2723454288	 0.118985
O	 2.4017147606	-0.1143373401	 0.3130588989	-0.244456
C	 1.1734607246	-0.7056458789	 0.1571548474	 0.247121
C	 0.0162066933	 0.0093287291	-0.0205263165	 0.258565
N	-0.9601302741	-0.9249385485	-0.1332052262	-0.294865
N	-0.4973517419	-2.1899872602	-0.0384623617	-0.217363
C	 0.8175634526	-2.0653803684	 0.140764468	-0.125298
H	-0.6383482565	 1.9326316954	 0.7272422462	 0.130197
H	-0.3977478863	 1.8906247799	-1.0084849154	 0.130198
H	 3.3482283248	 1.6567069124	 0.4014311981	 0.135099
H	-1.9457159897	-0.7812899921	-0.273274667	 0.276771
H	 1.4424063554	-2.9379390893	 0.2484853566	 0.124848
99.9972	224.3881	330.7421	401.5107	484.5978	485.8596	524.6501	635.9453	675.0225	695.9491	736.5351	869.9899	878.5043	948.9019	958.5652	962.0914	1032.378	1106.5381	1113.5151	1186.2705	1237.7925	1242.4152	1285.6554	1369.5415	1398.4376	1414.9751	1451.2562	1498.392	1548.9923	1645.0571	1739.5647	2995.971	3009.5098	3184.0435	3263.5403	3673.5509
C1N=COC2=C1NN=C2	C1N=COc2c1[nH]nc2	
InChI=1S/C5H5N3O/c1-4-5(2-7-8-4)9-3-6-1/h2-3H,1H2,(H,7,8)	InChI=1S/C5H5N3O/c1-4-5(2-7-8-4)9-3-6-1/h2-3H,1H2,(H,7,8)
