18
gdb 67574	2.96742	2.00129	1.5118	0.7821	74.24	-0.2317	0.0679	0.2996	899.8866	0.149751	-401.866077	-401.859495	-401.85855	-401.896478	28.214	
O	-0.0942145427	 1.383322398	 0.0938273558	-0.488713
C	-0.0367925161	-0.0050597005	 0.0603569295	 0.444363
C	 0.8482023058	-0.7466099241	 1.0592246254	-0.131995
C	 0.1941312379	-1.6805636059	 2.0109196915	-0.243399
N	 0.6292076764	-2.1550119139	 0.6824321054	-0.116311
C	-0.3937102044	-1.9687267652	-0.372337042	 0.017251
C	-1.3760616596	-0.7752659511	-0.0869309878	-0.12097
C	-1.3930080284	-0.4637903659	-1.6019949602	-0.272039
C	 0.0776546193	-0.8195202776	-1.3049029089	-0.121275
H	 0.8008109049	 1.7298453669	 0.0128181126	 0.284769
H	 1.8729393645	-0.4125504149	 1.2107313549	 0.083212
H	 0.7712211082	-2.0864140046	 2.8369954401	 0.116525
H	-0.8675361063	-1.5733095816	 2.2106656521	 0.118692
H	-0.7788323971	-2.8966248449	-0.7922630675	 0.081046
H	-2.2208731371	-0.7482602131	 0.6016963192	 0.076006
H	-1.9478839335	-1.1586953993	-2.2377948806	 0.090769
H	-1.5956407105	 0.5736795422	-1.8709519557	 0.110683
H	 0.9281109687	-0.8463001646	-1.9882028938	 0.071388
242.4183	275.8481	312.8342	339.2977	394.9914	446.7257	543.9229	642.6277	668.2471	684.0225	783.3658	825.1127	847.6317	865.9448	905.4591	922.2849	923.737	979.7875	998.6118	1028.5881	1055.9499	1059.1814	1084.7818	1098.2193	1109.057	1138.2837	1139.8599	1160.957	1184.7763	1207.3322	1233.8904	1242.2255	1256.6237	1273.7973	1303.0602	1345.66	1400.9534	1503.4026	1513.889	3063.0259	3100.688	3106.0653	3117.5712	3123.6471	3132.8055	3135.3813	3203.3965	3807.0533
OC12C3CN3C3C1CC23	O[C@@]12[C@H]3CN3[C@H]3[C@@H]1C[C@@H]23	
InChI=1S/C7H9NO/c9-7-3-1-4(7)6(3)8-2-5(7)8/h3-6,9H,1-2H2	InChI=1S/C7H9NO/c9-7-3-1-4(7)6(3)8-2-5(7)8/h3-6,9H,1-2H2/t3-,4+,5-,6-,7-,8?/m1/s1
