13
gdb 27937	2.57872	1.41225	0.91325	4.877	65.99	-0.214	-0.0331	0.1809	1161.6741	0.089274	-489.92635	-489.918424	-489.91748	-489.958852	29.046	
N	 0.1187286364	 1.3436612208	-0.0918851977	-0.591858
C	-0.0413384833	-0.0123966787	-0.0429086323	 0.329667
C	-1.1077476107	-0.8803422424	-0.0327746131	 0.096995
C	-2.5083761366	-0.532636009	 0.0332342229	 0.07027
O	-3.443258233	-1.3030864374	 0.0426880936	-0.284971
N	-0.5994852724	-2.1989608469	-0.0815307714	-0.4093
C	 0.6661783522	-2.0377968825	-0.1078851666	 0.467378
O	 1.648414262	-2.9318753421	-0.1453045067	-0.397736
O	 1.1090207907	-0.7426598791	-0.0894446053	-0.190992
H	 0.9751215949	 1.6881764566	 0.319057038	 0.274659
H	-0.6947521737	 1.8806777792	 0.1675361365	 0.276412
H	-2.681509028	 0.5718828579	 0.0815935734	 0.030689
H	 1.2310166915	-3.8033872965	-0.1495747713	 0.328788
133.1341	166.5939	202.2039	222.9016	277.7324	318.4179	407.239	443.4615	450.6689	560.8873	573.6957	667.9111	699.0468	709.1113	736.0642	880.0205	988.9323	1011.8708	1045.5428	1185.1507	1205.4943	1315.5191	1392.3731	1455.2663	1490.1435	1604.6925	1665.6312	1732.5609	1789.6395	2802.3335	3569.8203	3679.3237	3803.5827
NC1=C(C=O)N=C(O)O1	Nc1c(C=O)nc(O)o1	
InChI=1S/C4H4N2O3/c5-3-2(1-7)6-4(8)9-3/h1H,5H2,(H,6,8)	InChI=1S/C4H4N2O3/c5-3-2(1-7)6-4(8)9-3/h1H,5H2,(H,6,8)
