20
gdb 100082	3.37705	0.92951	0.87487	4.5183	71.57	-0.2336	0.0373	0.2709	1382.308	0.168677	-477.459267	-477.448754	-477.447809	-477.494673	38.992	
C	 0.2879715783	 1.3086558803	 0.6109794961	-0.42279
C	 0.0164741903	-0.0353085912	-0.0810465571	 0.330487
O	 0.636230341	-1.1033285369	 0.6496293944	-0.473091
C	-1.4915263053	-0.3271114773	-0.1195606519	-0.103617
O	-1.909183239	-0.4912305194	 1.2339975214	-0.43683
C	 0.5789694714	-0.0795054304	-1.5109461839	-0.309933
C	 2.062217721	 0.2789930356	-1.6656966087	 0.357248
N	 2.9077139983	-0.4295457718	-0.8645478601	-0.506075
O	 2.4448458538	 1.0956879728	-2.4821100375	-0.363872
H	 1.3626182833	 1.4605493027	 0.7335928779	 0.128645
H	-0.1128418245	 2.1404817979	 0.0229936844	 0.120455
H	-0.1843280358	 1.3272376452	 1.5964381588	 0.126916
H	 0.0911728325	-1.2350878421	 1.43626531	 0.289595
H	-2.0292809583	 0.4993330318	-0.6055462531	 0.0996
H	-1.6648299952	-1.2461215535	-0.6959551661	 0.096887
H	-2.7813175956	-0.8942336955	 1.2436534016	 0.298001
H	 0.4293006197	-1.091662554	-1.9050243609	 0.122007
H	 0.0316880928	 0.6180653369	-2.1483765823	 0.122292
H	 2.5361562184	-0.9612994504	-0.0910764824	 0.27233
H	 3.8816345331	-0.1735054508	-0.8783470305	 0.251746
51.5917	90.1832	147.5265	157.5256	232.9372	252.8692	270.3606	327.53	341.6417	385.2111	393.6718	418.6249	441.1279	454.9628	547.7505	574.8504	647.5297	719.1288	795.2435	865.6261	903.8553	928.3017	965.0678	983.8575	1064.7562	1105.9471	1142.1189	1153.6922	1187.5844	1230.4618	1244.7518	1310.2481	1321.6224	1368.6875	1397.1076	1408.0355	1445.1953	1458.1448	1492.6599	1502.5468	1511.1361	1619.5801	1798.394	2994.7706	3038.2318	3045.1013	3047.8292	3116.6521	3120.7789	3135.1829	3559.1751	3705.9409	3770.0095	3847.2829
CC(O)(CO)CC(N)=O	C[C@@](O)(CO)CC(=O)N	
InChI=1S/C5H11NO3/c1-5(9,3-7)2-4(6)8/h7,9H,2-3H2,1H3,(H2,6,8)	InChI=1S/C5H11NO3/c1-5(9,3-7)2-4(6)8/h7,9H,2-3H2,1H3,(H2,6,8)/t5-/m0/s1
