22
gdb 103842	3.75809	0.87694	0.85107	2.2213	84.52	-0.2317	0.076	0.3077	1472.7593	0.19241	-404.296032	-404.286034	-404.28509	-404.331069	37.106	
C	-0.1084360363	 1.602948269	 0.0717005977	-0.45952
C	-0.0771726293	 0.088020704	 0.0449686584	 0.332777
C	-1.3214632515	-0.5584287155	-0.51879917	-0.141162
O	-1.4413153427	-0.1898895108	-1.8880896085	-0.420307
C	 1.2398463517	-0.6097894752	-0.2240257319	-0.338273
C	 0.626472076	-0.6698075572	 1.1510691379	-0.009847
N	 1.2631425001	 0.0717825718	 2.2037991787	-0.059904
C	 0.6876761467	-0.0584403675	 3.5385060171	-0.223352
C	 1.9864993059	-0.7067821695	 3.2040572867	-0.219231
H	 0.8036838763	 2.0052219187	 0.5151758738	 0.128286
H	-0.2186944298	 1.9936654795	-0.9436820529	 0.128087
H	-0.9568852192	 1.9663809109	 0.6646603945	 0.102603
H	-1.2566016544	-1.6534406215	-0.4115484602	 0.075573
H	-2.2016629894	-0.2229940669	 0.0548980494	 0.081935
H	-2.2930254802	-0.5010664181	-2.2082088703	 0.285248
H	 1.240569228	-1.5073940514	-0.8328723704	 0.109066
H	 2.1179514332	 0.0166898353	-0.333954122	 0.116035
H	 0.1784957974	-1.6242733291	 1.4482061319	 0.061529
H	 0.6580912201	 0.8501512099	 4.1332090781	 0.116541
H	-0.1766690323	-0.7099032171	 3.6584447259	 0.108156
H	 1.9899843288	-1.7906122331	 3.100669048	 0.109728
H	 2.9237054306	-0.2794276862	 3.5492804279	 0.116032
64.6226	92.3498	125.8553	162.3146	206.2162	244.3297	258.0969	306.4018	356.5351	371.3028	381.5992	460.0424	609.7182	709.8901	752.5164	825.1572	882.9904	894.5764	918.7172	937.2029	984.2701	989.7427	1022.2064	1043.3081	1061.8166	1080.1993	1109.3169	1115.215	1116.5069	1123.7872	1133.6992	1174.4153	1204.5572	1241.441	1245.6691	1289.1906	1328.6663	1356.3719	1407.1984	1419.8114	1460.9105	1484.3438	1491.3622	1492.4298	1506.9209	1516.7067	1519.9777	2953.37	2983.6534	3028.2433	3030.7788	3093.356	3097.7093	3098.341	3134.1328	3140.6729	3175.795	3190.4561	3223.1061	3828.0944
CC1(CO)CC1N1CC1	C[C@@]1(CO)C[C@H]1N1CC1	
InChI=1S/C7H13NO/c1-7(5-9)4-6(7)8-2-3-8/h6,9H,2-5H2,1H3	InChI=1S/C7H13NO/c1-7(5-9)4-6(7)8-2-3-8/h6,9H,2-5H2,1H3/t6-,7+/m1/s1
