20
gdb 96467	2.17912	1.85423	1.28295	2.1067	74.48	-0.241	0.0595	0.3005	1046.3039	0.173393	-440.247992	-440.240024	-440.239079	-440.280017	31.933	
O	 0.1529538245	 1.3317041433	-0.3541827399	-0.411606
C	 0.0288311937	-0.050544606	-0.0535342834	 0.085946
C	 0.7556559771	-0.4262343535	 1.2557686694	-0.24228
C	 0.4798949718	 0.5089523296	 2.4454129072	-0.056692
O	-0.8390773542	 0.4913391324	 2.9574351621	-0.250422
C	-1.8115100123	 1.0898795802	 2.1079660259	-0.092955
C	-2.3448995054	 0.0960944524	 1.0956692416	-0.036205
N	-2.4810075972	 0.5605822188	-0.2975460205	-0.324857
C	-1.449754098	-0.4266835257	 0.0343860495	-0.011538
H	 1.0934958065	 1.5335433346	-0.399521283	 0.281507
H	 0.4680985375	-0.6444953428	-0.8718827661	 0.062154
H	 0.4941285713	-1.4560363453	 1.5280386362	 0.105939
H	 1.8413462439	-0.4149264827	 1.0793992125	 0.085201
H	 1.1198942467	 0.2066638937	 3.2811041714	 0.101166
H	 0.7590833715	 1.5362712724	 2.1656635947	 0.087545
H	-2.6157432165	 1.4375239996	 2.7651583648	 0.096402
H	-1.3949829709	 1.9527778777	 1.5759007509	 0.125325
H	-3.0953939019	-0.594587271	 1.4763884451	 0.081249
H	-3.2696601067	 0.1073752334	-0.7509373333	 0.231291
H	-1.6270491013	-1.4585340311	-0.2649664453	 0.08283
132.6385	204.1693	227.4946	279.8306	301.6248	325.4944	388.2584	429.469	451.584	513.2427	596.7756	723.6245	736.7278	817.9806	834.0405	901.9769	913.4519	953.7032	983.7754	1004.001	1008.7396	1025.8035	1072.3043	1105.61	1131.1809	1144.5953	1191.169	1219.3301	1241.4216	1250.9631	1287.135	1287.7717	1319.7136	1352.4583	1372.449	1392.7935	1413.3946	1427.5879	1449.9474	1466.351	1483.5162	1487.5582	1502.7672	2953.6271	2990.9463	3007.3172	3034.345	3060.6305	3071.9741	3084.3147	3111.5379	3124.1367	3505.8615	3811.4362
OC1CCOCC2NC12	O[C@H]1CCOC[C@H]2N[C@@H]12	
InChI=1S/C6H11NO2/c8-5-1-2-9-3-4-6(5)7-4/h4-8H,1-3H2	InChI=1S/C6H11NO2/c8-5-1-2-9-3-4-6(5)7-4/h4-8H,1-3H2/t4-,5+,6-/m1/s1
