17
gdb 90137	2.92003	1.67916	1.44114	1.956	72.25	-0.2286	0.0026	0.2311	954.789	0.136041	-421.772476	-421.765159	-421.764215	-421.803899	29.442	
O	 0.2306241335	 1.3843815287	-0.1210757892	-0.429879
C	 0.0852602262	-0.0142171309	-0.0636914639	 0.048129
C	 0.3588575789	-0.6479606703	 1.3611238415	-0.332753
C	-1.1370764922	-1.0090699498	 1.431109811	 0.299477
C	-2.2995232431	-0.7009040796	 2.3556402463	-0.366307
C	-3.2248814977	 0.0894041896	 1.4275859794	-0.061642
C	-2.7053352859	 0.3025435657	 0.2089857988	-0.16302
C	-1.3972773379	-0.3910510534	 0.121145082	 0.277301
O	-1.4368297904	-1.8201705249	 0.2931110691	-0.302756
H	 1.1711306998	 1.5883253662	-0.1357306826	 0.288813
H	 0.5792953893	-0.5157341071	-0.9058006942	 0.07565
H	 1.0607522548	-1.4828085529	 1.4322041487	 0.102971
H	 0.6337576925	 0.1431961654	 2.063453835	 0.109818
H	-2.7863088167	-1.5973814623	 2.7565112931	 0.125699
H	-1.9808245276	-0.0983528576	 3.2151039063	 0.119145
H	-4.2220535355	 0.3880399786	 1.7350281828	 0.101604
H	-3.181445548	 0.8455674746	-0.5969494541	 0.107749
121.9829	190.9589	263.4787	304.0717	356.7103	431.8399	485.7227	498.9547	554.1263	669.097	675.0153	742.3704	765.9604	828.05	868.5176	885.2082	916.8681	927.557	948.4748	959.7225	1026.08	1080.2518	1127.799	1161.8767	1173.6572	1187.0805	1200.5874	1228.6824	1249.682	1301.5111	1322.252	1368.0288	1391.7401	1423.0601	1458.7521	1464.9007	1628.5189	3015.8239	3033.9783	3057.4715	3069.442	3122.8325	3183.9894	3222.764	3819.4374
OC1CC23CC=CC12O3	O[C@H]1C[C@@]23CC=C[C@@]12O3	
InChI=1S/C7H8O2/c8-5-4-6-2-1-3-7(5,6)9-6/h1,3,5,8H,2,4H2	InChI=1S/C7H8O2/c8-5-4-6-2-1-3-7(5,6)9-6/h1,3,5,8H,2,4H2/t5-,6-,7+/m0/s1
