21
gdb 111099	2.71371	1.28111	1.06622	2.1277	78.51	-0.2339	0.0726	0.3065	1218.676	0.18314	-424.197176	-424.188564	-424.18762	-424.230415	33.478	
C	 0.2561770049	 1.6349724948	-0.1730050746	-0.414679
C	 0.1216782328	 0.1708591934	 0.2109759249	 0.147777
O	 0.6054158079	-0.7028171182	-0.8515052418	-0.30249
C	 1.533145272	-1.544814341	-0.1478748311	 0.0838
C	 0.7773568309	-1.8899104043	 1.1571195612	-0.257114
C	 0.9783142145	-0.3556516378	 1.3783015534	-0.071852
C	 2.3674496945	-0.5161956467	 0.6658533142	 0.048042
C	 3.5315182663	-0.996633082	 1.5103938662	-0.136795
O	 3.8773599558	 0.0699651021	 2.3881812513	-0.420035
H	 1.2999431507	 1.9408631371	-0.2792391556	 0.123845
H	-0.2488935705	 1.8167301817	-1.1264072109	 0.126225
H	-0.2143298851	 2.2679152647	 0.587168295	 0.112172
H	-0.9402639376	-0.0532834636	 0.3846093768	 0.069455
H	 1.9564677326	-2.2785511919	-0.8336126932	 0.073696
H	-0.2450091971	-2.2597640436	 1.0463977206	 0.098104
H	 1.3342728683	-2.5157752524	 1.8529236058	 0.101383
H	 0.8719832619	 0.1262137803	 2.3487330653	 0.079047
H	 2.7026842648	 0.3433410146	 0.0802330595	 0.079324
H	 3.2843869155	-1.9042825834	 2.0790748021	 0.086225
H	 4.3745039581	-1.2499049154	 0.8469165087	 0.087355
H	 4.6493448887	-0.1978944484	 2.8954792722	 0.286514
78.4012	131.3127	195.8302	221.9671	258.0694	290.099	332.7324	393.2601	496.3689	509.2795	550.3558	648.1373	801.5107	816.3763	837.4587	854.5021	899.3805	935.2249	960.0313	996.1033	1027.0818	1032.6292	1057.5824	1064.6622	1081.71	1119.0055	1120.8283	1124.3179	1154.957	1201.8275	1224.4728	1244.4457	1255.4913	1266.2414	1273.5247	1295.0176	1332.5832	1386.2747	1398.5894	1413.089	1461.5091	1487.2945	1495.2661	1497.9496	1528.4138	2968.7152	2996.808	3010.1812	3039.5973	3074.7657	3082.8541	3107.7997	3122.7571	3123.5062	3135.8745	3148.691	3826.4571
CC1OC2CC1C2CO	C[C@H]1O[C@@H]2C[C@H]1[C@H]2CO	
InChI=1S/C7H12O2/c1-4-5-2-7(9-4)6(5)3-8/h4-8H,2-3H2,1H3	InChI=1S/C7H12O2/c1-4-5-2-7(9-4)6(5)3-8/h4-8H,2-3H2,1H3/t4-,5-,6-,7-/m1/s1
