20
gdb 113106	5.99584	0.6664	0.65504	3.0614	79.9	-0.2558	0.0266	0.2824	1751.1311	0.169292	-440.258091	-440.248394	-440.24745	-440.29417	34.254	
C	-0.0919557008	 1.2770568825	-0.2028411754	-0.238383
O	-0.1602324753	-0.0067139567	 0.3765292456	-0.248805
C	-1.4030734989	-0.6447114106	 0.1799656283	 0.128933
C	-1.5480238428	-1.3177894403	-1.22059607	-0.28907
C	-1.0026350679	-2.6164181222	-0.5918786245	 0.15285
C	-1.3471892469	-2.0550136751	 0.8104803706	-0.277558
O	-1.6714354044	-3.7968557693	-1.0006693457	-0.186352
C	-0.9706272905	-4.9465515068	-1.0157975635	 0.116179
N	-1.549846384	-6.0395107736	-1.2665154825	-0.443349
H	 0.8961875843	 1.683335302	 0.025552019	 0.129322
H	-0.2179733801	 1.2498882732	-1.2954861982	 0.10711
H	-0.8587068006	 1.9487832678	 0.213665812	 0.107316
H	-2.2241039556	 0.0144007719	 0.4922561093	 0.069159
H	-2.5971646006	-1.4448238854	-1.4995380553	 0.123048
H	-0.9980458379	-0.8815862566	-2.0568754729	 0.108365
H	 0.0776668833	-2.7234559027	-0.7359080821	 0.093945
H	-0.6250519029	-2.1922316371	 1.6172866384	 0.113085
H	-2.3352372631	-2.3977751656	 1.1263638516	 0.121602
H	 0.0998335278	-4.8073543238	-0.8067624501	 0.08463
H	-0.8718741031	-6.7986329116	-1.2592150246	 0.227973
32.3307	59.3099	107.2155	123.7208	186.7411	242.2591	262.9774	318.2541	379.1643	459.7094	476.5133	546.9531	763.5166	799.4702	819.7514	833.4075	918.9356	935.0706	966.4444	1006.8889	1044.1716	1052.2848	1078.8633	1110.6874	1158.5291	1163.411	1184.565	1201.0536	1212.9979	1253.9569	1263.2495	1275.2085	1293.6379	1299.2998	1378.2916	1390.7965	1428.0733	1452.7056	1481.1826	1482.4036	1487.6711	1510.0384	1744.4978	2977.4434	3009.3621	3011.6317	3025.3783	3050.5593	3069.747	3076.4887	3116.6539	3130.2305	3138.7556	3517.9866
COC1CC(C1)OC=N	CO[C@H]1C[C@@H](C1)O[CH][NH]	
InChI=1S/C6H11NO2/c1-8-5-2-6(3-5)9-4-7/h4-7H,2-3H2,1H3	InChI=1S/C6H11NO2/c1-8-5-2-6(3-5)9-4-7/h4-7H,2-3H2,1H3/t5-,6-
