17
gdb 126774	2.71039	1.35596	0.97312	3.0593	73.28	-0.1905	0.0381	0.2286	1216.6393	0.136505	-451.343603	-451.334613	-451.333669	-451.378302	32.684	
C	-0.1110999924	 1.5951420523	-0.189856863	-0.37956
C	 0.0968066893	 0.0836517318	-0.0714596103	-0.139493
N	 0.7675957833	-0.4886914082	-1.2165000131	-0.058864
N	 0.115801974	-0.6156640574	-2.4491092448	-0.326206
C	 1.0494366227	-1.0204945583	-3.2325763891	 0.466196
N	 0.9829142193	-1.2419012269	-4.5833969898	-0.586287
O	 2.2669578936	-1.1805139833	-2.6475347969	-0.230804
C	 2.0910408349	-0.8052953282	-1.3063640777	 0.451091
N	 2.9753472316	-0.7809998585	-0.3997173635	-0.618045
H	 0.8498039127	 2.1130674389	-0.2587204117	 0.132671
H	-0.6998568174	 1.8334877829	-1.0799535026	 0.134057
H	-0.6442374837	 1.9727294056	 0.6882388132	 0.116561
H	 0.7221679372	-0.1588905407	 0.7912518275	 0.150587
H	-0.8640383536	-0.4284910375	 0.0477681206	 0.118516
H	 0.0340499652	-1.3156133123	-4.9221974052	 0.27377
H	 1.5781884203	-1.9909559174	-4.9088035483	 0.269449
H	 3.8790416432	-1.0790575628	-0.7525494252	 0.22636
32.1882	66.7924	190.568	205.8893	253.9554	290.0645	305.7158	348.1204	404.39	556.2355	615.6006	639.9135	667.5644	684.3316	703.3208	738.7747	789.8451	844.5313	951.7387	993.5739	1002.3959	1060.7735	1101.8096	1155.3239	1185.0951	1237.8293	1349.5346	1392.2322	1409.2793	1425.0581	1451.4911	1474.2194	1490.7296	1504.5116	1621.5653	1724.4775	1807.0695	3042.7107	3049.4412	3108.8539	3116.4649	3131.8077	3559.635	3563.6661	3669.4851
CCN1N=C(N)OC1=N	CCN1N=C(N)O[C@@H]1[NH]	
InChI=1S/C4H8N4O/c1-2-8-4(6)9-3(5)7-8/h6H,2H2,1H3,(H2,5,7)	InChI=1S/C4H9N4O/c1-2-8-4(6)9-3(5)7-8/h4,6H,2H2,1H3,(H2,5,7)/t4-/m1/s1
