18
gdb 31612	3.07665	1.1967	0.91208	2.4536	77.02	-0.1825	0.0209	0.2034	1274.3287	0.148943	-435.297831	-435.28856	-435.287616	-435.331792	33.945	
C	 0.1610794735	 1.4337813183	 0.0998329614	-0.357198
N	 0.09667588	-0.0148253085	 0.0448321172	-0.013491
C	 0.0976652739	-0.7835776054	-1.1089156384	-0.210642
C	-0.0153845332	-2.0866536249	-0.6809712125	 0.274715
N	-0.1191472183	-3.2612559099	-1.4326277922	-0.598725
N	-0.0837799024	-2.1333231715	 0.6851343742	-0.354717
C	-0.0254621142	-0.8737251513	 1.0931796797	 0.289171
C	-0.0769611971	-0.4495420997	 2.5262575302	-0.188062
O	 1.0775658189	 0.2805985206	 2.9484208106	-0.412213
H	 0.8507431223	 1.7989373449	-0.665856951	 0.137164
H	-0.8219675454	 1.8860591883	-0.0743368862	 0.135865
H	 0.5353508391	 1.733908912	 1.078768611	 0.171155
H	 0.1837661016	-0.3379609455	-2.0857054989	 0.111129
H	 0.453235614	-3.2604335699	-2.2661544152	 0.239047
H	 0.0969598949	-4.0676245937	-0.8605241136	 0.2464
H	-0.9194168659	 0.224866085	 2.7163987642	 0.117829
H	-0.2318853087	-1.3555694307	 3.1241398279	 0.126327
H	 1.843625837	-0.2785732179	 2.7787292916	 0.286244
79.2937	139.8903	159.0002	173.9004	221.6412	259.1726	290.1836	319.7626	376.0596	409.7963	502.2482	612.2748	636.8364	656.675	682.8807	764.1505	773.7676	817.7717	967.2004	1023.6223	1050.9525	1079.6139	1105.3008	1153.6055	1191.0655	1205.5627	1247.5258	1353.7716	1361.213	1415.6422	1423.8367	1448.5455	1492.1997	1495.9176	1506.9644	1529.0277	1536.8097	1616.6124	1647.3804	3032.0176	3033.9846	3075.4059	3100.0454	3154.7632	3269.3846	3541.6603	3637.5822	3805.8247
CN1C=C(N)N=C1CO	Cn1cc(N)nc1CO	
InChI=1S/C5H9N3O/c1-8-2-4(6)7-5(8)3-9/h2,9H,3,6H2,1H3	InChI=1S/C5H9N3O/c1-8-2-4(6)7-5(8)3-9/h2,9H,3,6H2,1H3
