16
gdb 124751	2.61042	1.50917	0.99231	3.7366	68.43	-0.2192	-0.0329	0.1863	1143.1023	0.123686	-471.179129	-471.170486	-471.169542	-471.212599	32.106	
C	 0.1170740889	 1.3112608496	 1.0250259658	-0.404379
C	-0.141134678	 0.4641758124	-0.2190782972	 0.000728
O	 0.8564898239	-0.5477581758	-0.4022474385	-0.420391
C	-1.4974316503	-0.1776086762	-0.2300845307	 0.323061
C	-1.977271172	-1.2675795137	-0.9018983944	 0.19557
N	-1.3784570306	-2.0783685863	-1.8493085827	-0.600557
N	-3.2891340181	-1.4216670096	-0.5247280563	-0.178168
N	-3.6213716716	-0.518948165	 0.3003431684	-0.023734
O	-2.5063403205	 0.3068165913	 0.5198825518	-0.220058
H	 1.1215100126	 1.7374842018	 0.9717297528	 0.131167
H	-0.6116273216	 2.1220867962	 1.1023440254	 0.145142
H	 0.0366406327	 0.7045956373	 1.9337127859	 0.122877
H	-0.0351815898	 1.096455211	-1.1100099765	 0.124288
H	 0.8872223826	-1.068608994	 0.4094683811	 0.285704
H	-0.3701250705	-2.0790270477	-1.7704512122	 0.260124
H	-1.7717040078	-3.0086030112	-1.8833730127	 0.258628
52.52	164.6676	168.955	246.8347	296.1669	316.3376	329.5325	359.0217	424.0804	457.8496	510.9703	632.2251	670.7513	705.6356	727.8993	775.1677	785.5485	895.4735	1010.9119	1029.7121	1067.2571	1089.4643	1117.1736	1235.0431	1271.1105	1287.795	1349.7923	1407.0495	1413.9714	1422.3959	1459.9336	1489.634	1494.7519	1622.2867	1686.4274	3028.2196	3042.8839	3116.2331	3137.3773	3550.3826	3656.012	3786.3546
CC(O)C1=C(N)N=NO1	C[C@@H](O)c1c(N)nno1	
InChI=1S/C4H7N3O2/c1-2(8)3-4(5)6-7-9-3/h2,8H,5H2,1H3	InChI=1S/C4H7N3O2/c1-2(8)3-4(5)6-7-9-3/h2,8H,5H2,1H3/t2-/m1/s1
