21
gdb 107559	2.123	1.61482	1.20791	1.785	83.5	-0.2313	0.0138	0.2451	1161.6453	0.181477	-387.096844	-387.087725	-387.086781	-387.130378	34.771	
C	 0.5185766474	-0.5006298014	 1.3646782082	-0.383743
C	-0.0470332766	-0.1194263985	-0.0101207274	-0.296319
C	 0.861437479	-0.4982624676	-1.1524643462	 0.335403
O	 0.2099798136	-0.7894740101	-2.4187849729	-0.31005
C	 0.938595732	-1.8359648475	-1.76843719	-0.022023
C	 2.3498949584	-2.0473701386	-2.2997880317	-0.293149
C	 3.0138179145	-0.7166272835	-2.0158304088	-0.177669
C	 2.2139698592	 0.1391588891	-1.3698578272	 0.290091
C	 2.5243065768	 1.5479644317	-0.9709243598	-0.510114
H	 0.66282441	-1.5829343845	 1.4434772652	 0.118902
H	 1.4871474002	-0.0258110914	 1.5502196486	 0.123412
H	-0.1617437489	-0.192365187	 2.1640326552	 0.116868
H	-1.0107922232	-0.6121844837	-0.1730675102	 0.112842
H	-0.2426246147	 0.9601425755	-0.0453426513	 0.102788
H	 0.3378105823	-2.6785437723	-1.4339461567	 0.087507
H	 2.8452506458	-2.8801272343	-1.7830578484	 0.107688
H	 2.3495152303	-2.2919483998	-3.3693034615	 0.121232
H	 4.0160590213	-0.4830663199	-2.3602801578	 0.090093
H	 3.5514555975	 1.8151555296	-1.2335103929	 0.124755
H	 1.8516148982	 2.2568446576	-1.470098871	 0.134411
H	 2.4009479468	 1.7067929766	 0.1071873467	 0.127077
96.4911	131.5898	173.9798	181.434	203.9465	260.5168	293.9528	370.9048	400.2744	476.4506	550.4418	611.2025	643.8003	753.5745	776.6041	811.2152	832.6237	888.6923	936.0888	949.77	960.4397	996.0204	1031.1105	1054.8244	1062.6128	1076.9787	1119.9586	1151.221	1185.4127	1233.6999	1273.9764	1299.7997	1312.1287	1351.0077	1364.4873	1406.9497	1414.5517	1439.2178	1462.374	1477.7235	1483.0743	1492.68	1496.8927	1507.9567	1704.2155	3019.8615	3021.0447	3027.4995	3038.0396	3055.929	3066.9006	3076.2662	3107.7635	3110.0136	3111.109	3138.2381	3183.6311
CCC12OC1CC=C2C	CC[C@]12O[C@H]1CC=C2C	
InChI=1S/C8H12O/c1-3-8-6(2)4-5-7(8)9-8/h4,7H,3,5H2,1-2H3	InChI=1S/C8H12O/c1-3-8-6(2)4-5-7(8)9-8/h4,7H,3,5H2,1-2H3/t7-,8+/m0/s1
