14
gdb 125797	3.49849	1.6221	1.11596	3.2878	69.62	-0.2485	-0.0316	0.2169	1010.7588	0.103625	-432.852499	-432.845603	-432.844659	-432.883785	26.176	
C	-0.017748274	 1.512324126	-0.060217927	-0.508374
C	-0.0089890265	 0.0230906978	 0.0531046074	 0.265883
N	-0.041922178	-0.7229767273	-1.0328093417	-0.190547
O	-0.0249041518	-2.0785119898	-0.6512394576	-0.245467
C	 0.0192319417	-2.1033649155	 0.6933087135	 0.330504
C	 0.0314769683	-0.8231371647	 1.1988240962	 0.212524
N	 0.0762777689	-0.9548068642	 2.5521835601	-0.368887
N	 0.0925905506	-2.2585350811	 2.9181142033	-0.195531
C	 0.0582273917	-2.9798843124	 1.7956778176	-0.155838
H	 0.8804413336	 1.945158571	 0.3929621717	 0.140453
H	-0.0542585019	 1.8016401627	-1.1116475385	 0.161002
H	-0.8860649856	 1.939331059	 0.4527533226	 0.140406
H	 0.0975314037	-0.2536220598	 3.2710292467	 0.279494
H	 0.0633964892	-4.0565091516	 1.8440547157	 0.134377
148.1981	179.2251	244.8354	277.394	376.4838	427.7578	517.9965	612.3188	625.1289	673.5906	681.4264	754.9939	812.3388	853.0362	920.5946	977.9392	1028.8476	1065.0843	1096.374	1118.8839	1247.4296	1291.4726	1352.4081	1403.8966	1417.1892	1461.2175	1479.5825	1481.4375	1514.1519	1597.2613	1603.665	3040.2147	3095.5172	3145.1041	3271.5403	3691.7629
CC1=NOC2=C1NN=C2	Cc1noc2c1[nH]nc2	
InChI=1S/C5H5N3O/c1-3-5-4(9-8-3)2-6-7-5/h2H,1H3,(H,6,7)	InChI=1S/C5H5N3O/c1-3-5-4(9-8-3)2-6-7-5/h2H,1H3,(H,6,7)
