15
gdb 34592	4.37053	1.105	0.95535	5.096	73.18	-0.2616	-0.0563	0.2054	1194.6543	0.113022	-416.811471	-416.803829	-416.802884	-416.844251	28.292	
N	 0.1332895703	-1.081391651	-0.21168716	-0.311241
C	 0.0340044775	 0.0629945998	-0.0925726826	 0.284454
C	-0.0829301922	 1.4871922032	 0.0570313049	 0.311796
N	-1.1571867742	 2.140219005	-0.1270528445	-0.304178
C	-0.8093199986	 3.5459417196	 0.134881257	-0.261456
C	 0.6800079267	 3.514827817	 0.4992157997	 0.393028
C	 1.7133244238	 4.5102170775	 0.0897144889	-0.326198
C	 1.3506941522	 4.3265223176	 1.5563708055	-0.326172
O	 1.0542677767	 2.1249646644	 0.417701798	-0.266502
H	-1.0161764035	 4.1457296727	-0.7584954991	 0.135334
H	-1.4374501903	 3.9325794883	 0.9452003759	 0.135339
H	 2.6727100573	 4.125932469	-0.237338423	 0.140133
H	 1.3779049859	 5.4048027575	-0.4251586942	 0.127769
H	 0.7654481301	 5.0945555864	 2.0518456835	 0.127763
H	 2.0730643186	 3.8221808928	 2.1879407499	 0.14013
51.5433	149.2303	156.6227	289.8764	304.1488	405.3137	476.7665	477.5472	563.2688	602.804	716.4232	763.2134	820.0905	871.2498	904.8585	940.5452	953.1376	987.133	1026.9004	1056.66	1071.4438	1081.669	1187.2235	1207.0952	1214.6231	1275.338	1323.1062	1389.4787	1452.1676	1492.8329	1500.3189	1697.2444	2374.9599	3036.1526	3069.1293	3132.9864	3134.9697	3219.7325	3232.9177
N#CC1=NCC2(CC2)O1	N#CC1=NCC2(CC2)O1	
InChI=1S/C6H6N2O/c7-3-5-8-4-6(9-5)1-2-6/h1-2,4H2	InChI=1S/C6H6N2O/c7-3-5-8-4-6(9-5)1-2-6/h1-2,4H2
