15
gdb 17648	3.52201	1.59082	1.34265	4.2598	57.62	-0.2606	0.0151	0.2756	930.1919	0.117669	-436.939646	-436.931411	-436.930467	-436.9729	29.488	
N	 0.0599656323	 1.211654486	 0.0890935218	-0.519399
C	-0.0065427529	-0.1402161179	 0.0443259568	 0.403738
O	 0.9717762281	-0.8644428999	 0.0945059684	-0.371334
C	-1.4109360709	-0.7671523762	-0.1017628899	-0.005597
O	-1.2554573254	-2.1431699274	-0.2757084444	-0.428947
C	-2.2767485038	-0.4349857626	 1.1104616592	 0.058128
C	-3.0621365651	-1.4694841865	 1.7898636854	-0.16485
O	-1.8458925294	-0.9672986865	 2.3566952684	-0.232264
H	 0.9527677486	 1.6424419091	 0.2675290186	 0.271804
H	-0.7647085147	 1.7844260272	 0.1290450572	 0.265601
H	-1.8974759127	-0.3251781844	-0.9874023781	 0.092428
H	-0.3066805559	-2.3023210932	-0.1217645059	 0.299648
H	-2.6319807982	 0.5981892423	 1.1558049577	 0.078244
H	-3.9722183867	-1.1907634414	 2.3188750833	 0.111799
H	-3.0060232933	-2.4871709986	 1.4155442413	 0.140999
50.5335	83.6837	179.5449	237.5612	247.3566	324.3223	391.0067	453.1612	511.9072	527.7934	617.0738	649.7963	728.2291	806.8258	865.8961	918.2377	965.8136	1013.8748	1094.1374	1100.7657	1159.6513	1165.4006	1179.5366	1245.5463	1292.3337	1349.0016	1369.5392	1418.6701	1461.759	1516.2453	1624.4591	1794.8855	2969.3463	3068.6034	3098.4062	3205.1048	3603.1468	3625.9604	3735.6444
NC(=O)C(O)C1CO1	NC(=O)[C@@H](O)[C@H]1CO1	
InChI=1S/C4H7NO3/c5-4(7)3(6)2-1-8-2/h2-3,6H,1H2,(H2,5,7)	InChI=1S/C4H7NO3/c5-4(7)3(6)2-1-8-2/h2-3,6H,1H2,(H2,5,7)/t2-,3+/m1/s1
