17
gdb 42994	2.2702	1.66425	1.30434	3.1648	77.84	-0.2364	-0.0187	0.2177	1035.5548	0.136182	-384.674868	-384.666986	-384.666042	-384.707279	30.662	
O	-0.1077865112	 0.3958406838	-1.1504754132	-0.323673
C	-0.0660470033	 1.3384700793	-0.405900074	 0.415868
C	-1.2121027168	 1.9963804659	 0.2767657203	-0.14297
C	-1.020508181	 2.2995241993	 1.7623030918	-0.292617
C	-0.7397444324	 3.3623828138	 0.756529145	-0.032573
C	 0.7157259326	 3.5597360666	 0.3364222223	-0.244774
C	 1.2358216236	 2.1541481397	-0.0849641566	-0.286951
C	 2.0407244472	 1.477413655	 0.9213640212	 0.350554
C	 2.696124813	 0.9173234489	 1.7600371634	-0.491002
H	-2.2082156074	 1.7973592673	-0.096592736	 0.108862
H	-1.9385421343	 2.3742202456	 2.3340890409	 0.126471
H	-0.1973792914	 1.8276901572	 2.2867747445	 0.14519
H	-1.4083384377	 4.2131477978	 0.6937768618	 0.098613
H	 0.7580364912	 4.2297747533	-0.5277678815	 0.113323
H	 1.3244327518	 4.0006135038	 1.129749978	 0.120609
H	 1.8077556419	 2.2067470788	-1.0163178494	 0.133229
H	 3.2824938141	 0.416109244	 2.4898757113	 0.201842
85.2578	136.6382	175.133	256.2765	353.942	393.6456	456.0991	502.2054	562.8997	620.1758	633.2968	668.3552	694.7498	789.8028	806.9172	844.7566	866.9672	932.8094	953.9874	968.0806	1035.0051	1070.004	1077.5249	1103.5086	1108.9315	1168.6036	1192.0365	1204.9352	1227.2195	1304.917	1320.1199	1339.7381	1382.3589	1489.2831	1499.6307	1842.5591	2229.8827	3053.3229	3066.9204	3103.4635	3141.2956	3177.5662	3203.0265	3230.7225	3502.4707
O=C1C2CC2CC1C#C	O=C1[C@H]2C[C@H]2C[C@H]1C#C	
InChI=1S/C8H8O/c1-2-5-3-6-4-7(6)8(5)9/h1,5-7H,3-4H2	InChI=1S/C8H8O/c1-2-5-3-6-4-7(6)8(5)9/h1,5-7H,3-4H2/t5-,6-,7+/m1/s1
