17
gdb 33044	3.8754	0.94345	0.87579	5.8043	71.17	-0.2006	0.0361	0.2367	1358.7562	0.13652	-455.189879	-455.181152	-455.180208	-455.224189	31.908	
C	-0.3825708826	 0.870154004	-0.8067578486	-0.378934
C	 0.0607913283	 0.1322356501	 0.4584746571	-0.160582
N	-0.9992006852	-0.6561958404	 1.1156537029	-0.391303
C	-1.4514292415	-1.7932606659	 0.4544474585	 0.312034
C	-2.6402057384	-2.1509548916	-0.0585666959	-0.118698
O	-2.5836224839	-3.4667928105	-0.503554143	-0.210851
C	-1.3141701927	-3.9487622929	-0.2829066634	 0.491666
O	-0.9459882921	-5.0609412608	-0.5438160589	-0.403565
N	-0.6102339243	-2.8985612362	 0.2773042501	-0.401231
H	 0.4576670373	 1.4109273757	-1.2536765355	 0.123995
H	-0.7743392415	 0.1704227414	-1.5510085301	 0.136706
H	-1.1682017669	 1.5996749101	-0.5801925756	 0.114966
H	 0.8846528878	-0.550276016	 0.2257335197	 0.117253
H	 0.4421894254	 0.839230433	 1.2020711764	 0.114324
H	-1.7794353729	-0.068948467	 1.3842418123	 0.238457
H	-3.5777723962	-1.636460111	-0.1660431986	 0.140168
H	 0.2831855993	-3.031905852	 0.7185811325	 0.275595
44.3863	80.609	138.1079	195.0681	249.1227	330.5616	381.5035	422.7569	464.3669	538.2531	605.4771	638.0479	690.9549	711.5644	757.9128	769.2696	823.4458	897.2304	933.8535	1004.9359	1054.6574	1093.0906	1121.3929	1151.3621	1171.8339	1275.7201	1302.2445	1334.4703	1381.6357	1407.3122	1429.1834	1483.0383	1486.9303	1498.0854	1504.9845	1717.5221	1896.033	3033.5585	3049.7008	3083.5376	3105.9706	3118.1459	3302.5543	3559.9768	3684.7987
CCNC1=COC(=O)N1	CCNc1coc(=O)[nH]1	
InChI=1S/C5H8N2O2/c1-2-6-4-3-9-5(8)7-4/h3,6H,2H2,1H3,(H,7,8)	InChI=1S/C5H8N2O2/c1-2-6-4-3-9-5(8)7-4/h3,6H,2H2,1H3,(H,7,8)
