18
gdb 54319	2.6661	1.37584	1.11053	2.1356	71.64	-0.2451	0.0189	0.264	1142.9117	0.147017	-439.086583	-439.077756	-439.076811	-439.120362	33.21	
N	 0.1195182899	 1.3123347494	 0.1604691604	-0.530337
C	 0.1927916389	-0.0389561081	 0.2874666804	 0.341559
O	 1.1679345141	-0.6440144723	 0.689085297	-0.368075
C	-1.0916369403	-0.7664006134	-0.083694043	 0.274678
C	-2.3027602635	-0.4446275981	 0.6965701546	-0.205251
O	-2.1308606975	 0.0585470079	-0.6342047785	-0.283335
C	-0.8905121981	-2.1117348386	-0.7092700203	-0.061179
C	-2.0136214239	-2.7936088953	-1.4405553443	-0.286023
C	-0.8442359247	-2.2350971241	-2.2129248205	-0.261329
H	 0.9508151628	 1.8548198045	 0.3259579263	 0.262929
H	-0.6630039316	 1.7191762253	-0.3249318551	 0.27288
H	-3.0703887274	-1.2076831969	 0.8048342657	 0.127547
H	-2.257295639	 0.3052964069	 1.4835300109	 0.126402
H	-0.1955039411	-2.7263403368	-0.1493074829	 0.115892
H	-2.1080699694	-3.8687738725	-1.339055561	 0.113157
H	-2.9535021725	-2.2594898294	-1.5268551045	 0.122401
H	-1.0240140836	-1.3383485895	-2.7955160054	 0.120771
H	-0.1240751731	-2.920419239	-2.6444968098	 0.117312
72.8728	75.8156	169.0296	203.2035	266.8553	304.0007	352.1569	375.2183	461.7688	505.1314	569.5727	631.6673	664.0912	766.3673	789.6153	826.7495	844.1519	874.5171	918.3852	953.1776	983.0676	1062.8051	1089.283	1090.3535	1102.5359	1133.1463	1136.8101	1157.389	1179.7874	1200.2966	1224.8152	1339.3859	1391.5353	1419.3063	1460.3433	1501.6549	1514.5889	1592.6383	1800.0257	3096.3664	3136.4349	3140.6328	3185.0588	3191.8397	3218.2765	3233.1351	3594.2793	3732.975
NC(=O)C1(CO1)C1CC1	NC(=O)[C@]1(CO1)C1CC1	
InChI=1S/C6H9NO2/c7-5(8)6(3-9-6)4-1-2-4/h4H,1-3H2,(H2,7,8)	InChI=1S/C6H9NO2/c7-5(8)6(3-9-6)4-1-2-4/h4H,1-3H2,(H2,7,8)/t6-/m0/s1
