22
gdb 15654	2.76445	1.74719	1.20447	0.1608	83.06	-0.234	0.0271	0.2611	1095.9511	0.201162	-313.091175	-313.082578	-313.081634	-313.124006	33.023	
C	 0.1803130507	 1.5423937527	 0.2320596902	-0.387852
C	 0.3243271411	 0.0178781435	 0.1788827822	-0.167415
C	 0.6102011153	-0.5228115398	-1.2392729091	-0.035685
C	 1.9480433962	-0.0465507187	-1.7716189628	-0.063947
C	 2.862750231	-1.0151684096	-1.780796414	-0.071215
C	 2.2951184686	-2.3271774915	-1.2965947475	-0.259214
C	 0.7649643523	-2.0771539891	-1.3435522803	 0.025063
C	-0.0467954744	-2.9228528958	-0.3636365602	-0.412188
H	 1.1068570799	 2.04669167	-0.0598400045	 0.117184
H	-0.6118798813	 1.8877499083	-0.4423564948	 0.111228
H	-0.0742130131	 1.8792282435	 1.2418882929	 0.109926
H	 1.1267405439	-0.2969032051	 0.8581762416	 0.094773
H	-0.5987905954	-0.4390521878	 0.5547816003	 0.093222
H	-0.2160316175	-0.1885620676	-1.8825595362	 0.063191
H	 2.1310224718	 0.9831079037	-2.0589670152	 0.08833
H	 3.9005260539	-0.8944282392	-2.07302467	 0.086958
H	 2.5924100326	-3.1827878147	-1.9142801361	 0.097563
H	 2.6412859803	-2.5527807799	-0.2763954516	 0.099289
H	 0.4421789132	-2.3390080887	-2.3591613379	 0.075182
H	 0.2506652471	-2.7448666033	 0.6749219443	 0.11602
H	-1.1197279666	-2.7165837613	-0.4443595113	 0.110864
H	 0.0980112203	-3.9894840796	-0.5670764701	 0.108722
89.4241	113.8256	200.1124	226.1612	255.6827	281.0391	304.7475	372.0854	492.4179	494.1084	624.5427	736.3046	747.9739	780.1712	822.5089	880.9657	925.9474	939.721	970.03	977.8136	986.3333	1035.1473	1056.4378	1096.4557	1107.5861	1125.8329	1139.2367	1170.2525	1197.5777	1272.9833	1288.4292	1304.6976	1336.1991	1350.4624	1369.8745	1375.5299	1381.4379	1411.3856	1414.658	1484.1894	1489.9691	1498.8134	1500.5734	1504.8337	1509.0404	1683.9603	2991.6783	2997.2856	3018.9301	3022.1918	3029.4168	3030.867	3050.9085	3058.9864	3090.7201	3096.1766	3100.6869	3104.8308	3176.7557	3202.798
CCC1C=CCC1C	CC[C@H]1C=CC[C@H]1C	
InChI=1S/C8H14/c1-3-8-6-4-5-7(8)2/h4,6-8H,3,5H2,1-2H3	InChI=1S/C8H14/c1-3-8-6-4-5-7(8)2/h4,6-8H,3,5H2,1-2H3/t7-,8+/m1/s1
