13
gdb 21515	3.72144	1.90875	1.26413	3.3775	69.47	-0.2042	0.0185	0.2227	887.4461	0.096973	-357.633152	-357.625856	-357.624912	-357.66438	27.447	
N	 0.0469345189	 1.3745625278	 0.1567230664	-0.616563
C	-0.0235387211	-0.0036547717	 0.0432620325	 0.281648
C	-1.1335114379	-0.8494311998	 0.0155437808	 0.071882
C	-0.5662494568	-2.155217293	-0.0246507222	-0.10817
N	 0.7531681563	-2.134403401	-0.0294956209	-0.227465
N	 1.0634484906	-0.8056478528	 0.0166660089	-0.245227
C	-2.4807347551	-0.4381422665	 0.0132757359	 0.186799
C	-3.6243073453	-0.0540735913	 0.0067876011	-0.436401
H	 0.7188966954	 1.8163614666	-0.4578306508	 0.254564
H	-0.865575508	 1.7995439281	 0.0486077654	 0.26635
H	-1.0958349715	-3.0956527689	-0.0588946612	 0.117192
H	 2.0289169238	-0.5309390333	 0.0767119946	 0.272589
H	-4.6360567792	 0.2666185059	 0.0090411895	 0.182803
130.2209	166.7933	236.5489	283.286	354.9054	456.2165	465.8866	511.6877	519.7093	607.1648	656.6891	671.5106	689.7426	733.5819	766.3421	891.1237	946.9667	1085.6614	1110.0833	1206.0426	1237.8557	1353.7673	1365.3172	1464.0669	1567.2772	1611.4172	1658.5393	2222.9952	3251.4619	3504.0599	3535.142	3627.432	3676.729
NC1=C(C=NN1)C#C	Nc1c(cn[nH]1)C#C	
InChI=1S/C5H5N3/c1-2-4-3-7-8-5(4)6/h1,3H,(H3,6,7,8)	InChI=1S/C5H5N3/c1-2-4-3-7-8-5(4)6/h1,3H,(H3,6,7,8)
