20
gdb 13435	3.27522	1.25707	1.11231	2.7002	75.72	-0.2429	-0.0173	0.2257	1159.0373	0.174813	-349.005448	-348.995963	-348.995018	-349.040529	33.5	
C	-0.2434478083	 1.233353657	-1.5288746134	-0.410035
C	-0.0261188926	-0.1057691901	-0.8543403363	-0.012867
C	 1.3471162183	-0.6418484205	-0.4996093675	-0.038285
C	 2.630890654	 0.1092957832	-0.784405239	-0.404679
C	 0.3824041842	-0.2436681429	 0.6011629727	-0.041966
C	 0.6145305379	 0.956898865	 1.5056647498	-0.301382
C	-0.685599863	 1.4392680651	 2.1148939706	 0.171893
O	-1.0905695334	 2.5721787694	 2.0731689551	-0.241374
H	 0.4701312696	 1.9953531084	-1.2076307839	 0.120655
H	-0.1492668369	 1.1365187353	-2.6160937281	 0.117717
H	-1.245910812	 1.6196451771	-1.3156471987	 0.127883
H	-0.7312217576	-0.8616643915	-1.1923632131	 0.082707
H	 1.4579572543	-1.7168628596	-0.622779031	 0.083742
H	 2.5253496546	 1.1909207466	-0.6756368274	 0.118488
H	 3.429433876	-0.2116826836	-0.1061192694	 0.117685
H	 2.9715025707	-0.0831448614	-1.8077282646	 0.119402
H	-0.0766973499	-1.0758688671	 1.1311874592	 0.083646
H	 1.275968854	 0.6606647219	 2.3340289023	 0.11838
H	 1.0817296439	 1.8012135495	 0.9964905445	 0.119915
H	-1.2757050838	 0.6401457681	 2.623920018	 0.068476
40.3881	60.0165	136.5045	163.9261	179.7882	226.2055	266.2888	286.1072	445.8921	458.4505	528.431	545.8746	727.7211	759.2047	787.6873	880.5104	931.221	945.7187	1018.0309	1039.0052	1044.8738	1067.041	1114.5013	1137.8355	1161.8477	1171.7784	1191.6012	1224.2944	1270.6223	1285.2642	1378.7244	1392.841	1420.1441	1425.2116	1430.4602	1453.2817	1461.312	1490.2018	1496.2911	1503.3219	1516.3237	1835.3203	2848.5591	3003.3069	3032.773	3036.9955	3087.3836	3091.9067	3107.8194	3109.3822	3121.2373	3125.9335	3126.607	3141.9721
CC1C(C)C1CC=O	C[C@H]1[C@@H](C)[C@H]1CC=O	
InChI=1S/C7H12O/c1-5-6(2)7(5)3-4-8/h4-7H,3H2,1-2H3	InChI=1S/C7H12O/c1-5-6(2)7(5)3-4-8/h4-7H,3H2,1-2H3/t5-,6+,7-
