17
gdb 64829	2.46481	1.34239	1.0243	0.8502	69.81	-0.2512	-0.1086	0.1426	1175.4586	0.132878	-458.962231	-458.953144	-458.9522	-458.996843	33.112	
O	 1.0693865734	 1.0453040792	 0.3401122233	-0.473117
C	 0.1879217209	 0.025900403	-0.0130435435	 0.408399
C	 0.8175028554	-1.1394530261	-0.786098341	-0.386334
C	 0.7751132833	-0.9626865906	-2.2893243037	 0.309743
O	 0.1969547196	-1.7096792793	-3.0456493546	-0.274891
C	 1.4773740995	 0.2397181507	-2.9421836537	 0.085897
O	 1.9719784689	 1.1655598171	-2.3481662664	-0.224247
C	-0.8587303623	-0.2640714828	 1.0188644235	-0.297224
C	-1.2573268489	 0.3936930414	-0.287408102	-0.326888
H	 1.4708902941	 1.3766207249	-0.4767304172	 0.295801
H	 1.8588408452	-1.2330537748	-0.4552070927	 0.137423
H	 0.3013003914	-2.0790479689	-0.5759414877	 0.131955
H	 1.4674976315	 0.1771108565	-4.0488140371	 0.125826
H	-1.1533947065	-1.2927702399	 1.1935798467	 0.115335
H	-0.8313699616	 0.3621646864	 1.9029779454	 0.130161
H	-1.5007386082	 1.4493092425	-0.2596409413	 0.123396
H	-1.8228097057	-0.1914970794	-1.0057134481	 0.118764
44.1904	81.5581	121.6619	179.7627	234.091	315.613	336.6468	406.4808	464.2085	478.8499	515.7277	558.8674	591.97	733.4283	777.5626	807.0861	903.1753	915.1592	940.0683	943.5142	993.2934	1037.388	1052.0973	1079.2193	1130.8575	1191.2053	1251.5476	1275.9026	1300.0173	1318.4699	1367.3849	1428.5619	1450.3842	1452.9938	1501.2168	1791.4	1810.8916	2950.7937	3042.5396	3113.129	3130.7368	3138.618	3220.6319	3234.6968	3713.062
OC1(CC(=O)C=O)CC1	OC1(CC(=O)C=O)CC1	
InChI=1S/C6H8O3/c7-4-5(8)3-6(9)1-2-6/h4,9H,1-3H2	InChI=1S/C6H8O3/c7-4-5(8)3-6(9)1-2-6/h4,9H,1-3H2
