13
gdb 129532	5.2847	1.05579	0.88012	2.8623	60.67	-0.2427	-0.0027	0.24	1202.4252	0.090601	-486.098305	-486.090527	-486.089583	-486.131553	27.722	
N	 0.2252325104	 1.2204107888	 0.2231171902	-0.563715
C	-0.2416182332	 0.0667173133	-0.3163361024	 0.49956
O	-0.5709885535	-0.1007801811	-1.4645108653	-0.378626
O	-0.2575610532	-0.8959410343	 0.6597365626	-0.263643
C	-0.6629171959	-2.158695286	 0.3534262624	 0.391509
C	-1.0794288439	-2.7496362609	-0.8180800631	-0.173083
N	-1.3292948736	-4.023251635	-0.4220833099	-0.161735
N	-1.089013149	-4.2073453223	 0.8831754073	-0.10814
N	-0.6797157504	-3.0627682929	 1.3603232434	-0.264423
H	 0.1727040735	 2.0503931	-0.3396704576	 0.277465
H	 0.3490541645	 1.3008411105	 1.2170731062	 0.278331
H	-1.2058484049	-2.3864634309	-1.8186701034	 0.180822
H	-1.6580312108	-4.7976046394	-0.9766888506	 0.285677
52.162	84.7656	185.6303	209.169	353.4938	381.3507	400.2355	532.4623	577.3311	628.8378	685.9912	735.8698	770.3833	776.0358	789.5654	968.3561	989.6981	1051.5502	1078.9517	1112.6622	1136.5793	1273.3791	1327.7816	1347.7108	1372.6159	1503.3184	1595.1181	1612.2297	1848.1105	3340.5858	3627.4314	3657.1684	3762.7528
NC(=O)OC1=CNN=N1	NC(=O)Oc1c[nH]nn1	
InChI=1S/C3H4N4O2/c4-3(8)9-2-1-5-7-6-2/h1H,(H2,4,8)(H,5,6,7)	InChI=1S/C3H4N4O2/c4-3(8)9-2-1-5-7-6-2/h1H,(H2,4,8)(H,5,6,7)
