14
gdb 15332	3.48433	1.14737	0.91819	3.034	68.5	-0.2561	-0.0419	0.2142	1228.2437	0.103787	-382.497412	-382.488779	-382.487835	-382.532369	28.752	
C	 0.076921402	 1.506801791	-0.0973760128	-0.502052
C	 0.0168541964	 0.0551338616	-0.0357349601	 0.130316
C	-0.0404020974	-1.1464842154	 0.0228973313	 0.070514
C	-0.0578021295	-2.5830128109	 0.0610163348	-0.155036
O	-0.3572851118	-3.2282930958	 1.2995033456	-0.22599
C	-1.3041394049	-3.3842912863	 0.2428653725	-0.044925
C	-2.6145375086	-2.6915926107	 0.4408838321	 0.148117
O	-3.6382698126	-3.0616822624	-0.0738265212	-0.245308
H	 0.8661741932	 1.8391615904	-0.7799710238	 0.157802
H	-0.8707556954	 1.9293025689	-0.4479312939	 0.158342
H	 0.2885704062	 1.9315982302	 0.8897366795	 0.160203
H	 0.7314801724	-3.0743010376	-0.5082994882	 0.127177
H	-1.3588895276	-4.3701663441	-0.2166109124	 0.120179
H	-2.5597840825	-1.807470399	 1.1091463167	 0.100661
27.7726	64.6027	121.576	134.1984	237.8644	295.8595	347.6065	365.3025	476.1542	511.0199	559.6387	747.908	853.8513	874.1181	1000.1015	1029.8043	1050.3102	1053.2158	1097.3763	1153.0155	1173.382	1262.2472	1332.4194	1396.3002	1413.1113	1433.1348	1473.9774	1475.4295	1826.9522	2370.6828	2928.187	3032.2102	3096.0404	3097.1909	3108.6554	3136.1043
CC#CC1OC1C=O	CC#C[C@H]1O[C@H]1C=O	
InChI=1S/C6H6O2/c1-2-3-5-6(4-7)8-5/h4-6H,1H3	InChI=1S/C6H6O2/c1-2-3-5-6(4-7)8-5/h4-6H,1H3/t5-,6+/m1/s1
