20
gdb 88559	3.49637	1.14216	1.07131	1.401	78.99	-0.2213	0.0715	0.2929	1206.1999	0.170649	-403.061975	-403.053543	-403.052598	-403.095298	32.305	
C	 3.0594434272	-0.7362247739	 0.3748702676	-0.316444
N	 1.6638645825	-1.1536711926	 0.322263861	-0.08322
C	 1.2250101333	-2.1270489242	 1.3111779673	-0.258268
C	 0.7503508202	-0.714464871	 1.3931812316	-0.133693
C	 1.1567975173	 0.2146342118	 2.4803669345	 0.289417
C	 1.9607832052	-0.1111414626	 3.7292229933	-0.34467
C	 0.5839298065	 0.4525129951	 3.8682531838	 0.038309
O	 0.592882833	 1.8718633864	 3.7301642669	-0.286003
C	 1.0709879539	 1.7414827535	 2.3648159681	-0.131724
H	 3.4890200044	-0.7024492485	 1.3867055582	 0.111604
H	 3.6528299052	-1.4333027023	-0.225391653	 0.12293
H	 3.1553545512	 0.2583516484	-0.0732038781	 0.121426
H	 0.5587592936	-2.9085313617	 0.953932383	 0.115242
H	 1.9484614568	-2.4567524006	 2.0552201464	 0.105918
H	-0.2469835901	-0.5043017935	 1.0058961885	 0.09103
H	 2.0528439904	-1.169463346	 3.9493570509	 0.117679
H	 2.8174562129	 0.4962436199	 4.0107978891	 0.114897
H	-0.2363628221	-0.0054434236	 4.4093286647	 0.109358
H	 2.0017268144	 2.2947719068	 2.1912974118	 0.10579
H	 0.3035336142	 2.0750775185	 1.6566000745	 0.110422
54.9176	128.8492	185.7772	221.9142	248.6474	354.7835	361.4632	405.5968	466.9733	489.1768	679.1045	758.5742	761.3989	843.8724	873.6517	909.6824	931.6266	974.6492	988.4013	1002.8923	1031.8244	1037.0908	1059.2383	1086.8619	1097.1804	1113.5798	1133.5591	1146.9102	1158.3239	1173.3904	1205.2752	1214.482	1277.3964	1301.5644	1338.4132	1389.4337	1431.6651	1448.4599	1481.2722	1492.4165	1498.2243	1511.3972	1515.4547	2994.6903	3019.8068	3069.9527	3070.454	3092.1097	3095.1944	3098.7822	3113.6975	3174.4267	3179.4604	3212.1534
CN1CC1C12CC1OC2	CN1C[C@H]1[C@]12C[C@H]1OC2	
InChI=1S/C7H11NO/c1-8-3-5(8)7-2-6(7)9-4-7/h5-6H,2-4H2,1H3	InChI=1S/C7H11NO/c1-8-3-5(8)7-2-6(7)9-4-7/h5-6H,2-4H2,1H3/t5-,6+,7+,8?/m0/s1
