19
gdb 80766	3.26656	1.03224	0.90847	4.1358	77.61	-0.2685	0.0112	0.2797	1325.4796	0.158651	-423.02046	-423.011752	-423.010807	-423.054646	32.076	
C	-0.0653660792	 1.5624143289	-0.0828863856	-0.419842
C	 0.0847479388	 0.065806214	 0.1019825935	 0.005041
C	 1.3191276514	-0.7426655461	-0.1699386486	-0.070518
C	 2.5873379752	 0.0115298823	 0.253327521	-0.28042
C	 2.0426113272	 0.0272484993	 1.7112522419	 0.127398
O	 1.9287546298	 1.3081739906	 2.3424815264	-0.188086
C	 2.5447163043	 1.5050779002	 3.5213002962	 0.165071
O	 2.5099510601	 2.5446572128	 4.1081501221	-0.277875
C	 0.7483821846	-0.6331871049	 1.2637767029	-0.106753
H	 0.8136508825	 2.1197648322	 0.2420060629	 0.141159
H	-0.2545663686	 1.7995554523	-1.1357823105	 0.113129
H	-0.9140447524	 1.93339456	 0.5009771968	 0.12366
H	-0.8094336512	-0.4826072415	-0.1916908307	 0.091445
H	 1.3137485908	-1.6100819129	-0.8176537571	 0.092647
H	 3.505133776	-0.5723684654	 0.1605721002	 0.110588
H	 2.745676115	 0.9911748948	-0.2039394319	 0.117433
H	 2.6257577606	-0.6358658071	 2.3593374569	 0.093848
H	 3.0790879262	 0.6028703568	 3.881074277	 0.073632
H	 0.2211875388	-1.3771652165	 1.8494501264	 0.088441
46.2966	97.7	148.6936	188.3856	250.6601	270.6759	347.1136	390.7727	432.8799	548.463	678.8922	721.6992	735.0946	797.9548	883.0918	887.7172	971.6758	982.9171	987.1115	1024.6591	1045.083	1058.8488	1068.9853	1072.6835	1102.0859	1142.0567	1163.7749	1202.8084	1218.345	1244.5334	1267.8058	1311.8188	1351.3086	1383.8273	1421.9312	1438.5587	1449.2365	1486.2418	1499.8007	1508.9885	1864.4268	2934.5659	3039.0558	3044.8249	3069.7877	3095.3908	3116.3434	3120.9953	3151.8569	3176.4636	3195.0274
CC1C2CC(OC=O)C12	C[C@H]1[C@H]2C[C@@H](OC=O)[C@@H]12	
InChI=1S/C7H10O2/c1-4-5-2-6(7(4)5)9-3-8/h3-7H,2H2,1H3	InChI=1S/C7H10O2/c1-4-5-2-6(7(4)5)9-3-8/h3-7H,2H2,1H3/t4-,5+,6+,7-/m0/s1
