16
gdb 27563	3.54371	1.18701	0.89408	1.4865	89.47	-0.2536	-0.0483	0.2053	1258.0679	0.124678	-363.650651	-363.642487	-363.641543	-363.68383	30.444	
C	-0.0227926109	 1.510033891	 0.031142376	-0.468832
C	 0.0210672117	 0.0047290429	-0.0085318519	 0.343665
C	-0.0336801941	-0.6932560776	-1.2142508373	-0.261414
C	 0.0098233529	-2.0936737168	-1.2085471301	 0.174605
C	 0.1080423721	-2.7364988081	 0.0314496373	-0.219602
C	 0.1563590901	-1.9524995273	 1.1774245941	 0.005152
N	 0.1152045195	-0.6194656744	 1.1759983861	-0.321535
C	-0.0441573701	-2.8352759278	-2.4233803799	 0.216729
C	-0.0897956845	-3.4619278268	-3.4503009047	-0.396407
H	 0.8773088015	 1.9026816307	 0.5146312522	 0.14216
H	-0.0995292411	 1.9410699112	-0.9697943708	 0.118826
H	-0.8770591055	 1.8486245272	 0.6258648505	 0.142161
H	-0.1095766057	-0.1607795042	-2.1549628249	 0.105771
H	 0.145169868	-3.8171891568	 0.0921361185	 0.109057
H	 0.23268502	-2.426234291	 2.1536491533	 0.110412
H	-0.130025644	-4.0151889521	-4.3559488583	 0.199251
56.0528	135.8388	141.5083	203.3259	344.437	366.5704	461.9125	464.8614	545.5708	556.4321	603.3013	629.9019	643.1651	753.0039	761.7518	866.8638	908.613	927.5257	992.946	1001.9795	1018.8402	1062.173	1131.6404	1180.7776	1275.1555	1289.4275	1325.2281	1408.1932	1417.5176	1475.5219	1487.9581	1511.0543	1580.4154	1633.0462	2229.4574	3042.5053	3103.4096	3127.41	3151.3842	3199.1949	3209.6592	3501.8966
CC1=CC(=CC=N1)C#C	Cc1cc(ccn1)C#C	
InChI=1S/C8H7N/c1-3-8-4-5-9-7(2)6-8/h1,4-6H,2H3	InChI=1S/C8H7N/c1-3-8-4-5-9-7(2)6-8/h1,4-6H,2H3
