16
gdb 127431	3.31074	1.23519	0.90983	2.5445	81.2	-0.2566	-0.0386	0.2179	1241.8305	0.124843	-396.978175	-396.969197	-396.968253	-397.01419	30.803	
C	-0.1383261756	 1.3689546625	-0.02417329	-0.334727
N	-0.0316552264	-0.0759332113	 0.0379150923	-0.043947
N	-0.127896709	-0.8057368761	-1.0786541201	-0.303021
C	-0.0104044119	-2.0842025649	-0.7015615591	 0.367244
C	-0.0689626574	-3.1853359003	-1.7123155216	-0.494789
C	 0.1638184631	-2.1775916394	 0.692255212	-0.403026
C	 0.1449538752	-0.8656375921	 1.1402806018	 0.312136
C	 0.2750839293	-0.336308787	 2.4451430137	 0.223443
N	 0.3807187875	 0.1105084124	 3.5090056876	-0.353901
H	 0.047638247	 1.7796535683	 0.9686024811	 0.168476
H	 0.5994710221	 1.7604652377	-0.7276992423	 0.159038
H	-1.1383587371	 1.658693619	-0.3570863563	 0.156588
H	 0.8563119005	-3.7709424123	-1.718029656	 0.136324
H	-0.8914052097	-3.8767294555	-1.501157416	 0.136229
H	-0.2178798322	-2.7656171791	-2.7089868335	 0.145725
H	 0.2892867419	-3.0599102316	 1.2980255861	 0.128208
10.0967	76.7708	132.7734	145.2826	181.0962	271.551	305.9958	406.8903	514.9858	531.3309	579.8836	659.7753	677.269	686.1582	797.1451	825.2274	994.1445	1030.1465	1066.6141	1084.5952	1151.9333	1166.0856	1188.2943	1325.6557	1396.1151	1410.031	1452.0646	1471.8576	1473.8378	1477.6757	1484.2429	1498.2821	1521.2326	1571.0045	2342.457	3040.4353	3057.2808	3094.0808	3127.8103	3137.2722	3160.5793	3273.6507
CN1N=C(C)C=C1C#N	Cn1nc(C)cc1C#N	
InChI=1S/C6H7N3/c1-5-3-6(4-7)9(2)8-5/h3H,1-2H3	InChI=1S/C6H7N3/c1-5-3-6(4-7)9(2)8-5/h3H,1-2H3
