14
gdb 5192	6.08773	1.17626	1.09015	4.9465	64.2	-0.2243	-0.0134	0.2109	1047.3785	0.108232	-378.769235	-378.762027	-378.761083	-378.802114	25.352	
O	-0.4414820474	 0.7913865779	 0.9135712197	-0.240693
C	 0.0815539205	 1.0695046628	-0.1338541923	 0.159974
C	 1.4372292581	 1.7506602947	-0.2658390808	-0.380011
C	 1.3885134121	 2.881507791	-1.2463616799	 0.258295
C	 1.3644407884	 4.2310202766	-0.9994159152	-0.17991
N	 1.2790254628	 4.8279248612	-2.2378836785	-0.226497
C	 1.2497281124	 3.8316498466	-3.1656131213	 0.013725
N	 1.3125515948	 2.6467808542	-2.6043147042	-0.30004
H	-0.4040418615	 0.8434957108	-1.1083910223	 0.094299
H	 1.7605886802	 2.0766616651	 0.7255029427	 0.121125
H	 2.143779376	 0.9922190086	-0.6298033697	 0.138308
H	 1.4027230167	 4.8047827552	-0.088585046	 0.136442
H	 1.2552911396	 5.8171607869	-2.4199367154	 0.270529
H	 1.1867950273	 4.0304720785	-4.2249822867	 0.134454
37.8144	69.1736	157.6049	312.1124	374.9157	452.8616	530.4587	657.5031	673.766	719.4737	753.0192	817.3489	823.3109	950.7067	976.024	1021.7373	1055.3314	1096.5632	1134.5145	1187.5432	1250.3024	1278.5573	1307.1571	1359.3367	1415.3005	1447.1585	1456.3838	1526.3161	1597.2791	1833.1829	2898.7485	3024.8757	3113.3021	3254.2094	3277.1067	3667.4599
O=CCC1=CNC=N1	O=CCc1c[nH]cn1	
InChI=1S/C5H6N2O/c8-2-1-5-3-6-4-7-5/h2-4H,1H2,(H,6,7)	InChI=1S/C5H6N2O/c8-2-1-5-3-6-4-7-5/h2-4H,1H2,(H,6,7)
