16
gdb 88419	2.66984	1.28108	0.97799	7.0539	67.23	-0.2439	-0.0284	0.2155	1185.7667	0.122072	-475.029039	-475.019978	-475.019034	-475.063333	31.978	
O	-0.0559077183	 1.0145415352	-0.8170319467	-0.408844
C	-0.0910027083	-0.2542891503	-0.2480577801	 0.093835
C	-0.3001007534	-0.3999995898	 1.2330018115	-0.34156
C	-1.4311103723	-0.7203601891	 0.272867637	-0.044131
N	-2.5616739316	 0.1692786548	 0.2018176805	-0.096145
C	-2.942128274	 0.6515561771	-1.0680750561	 0.17896
O	-3.8634791333	 1.3820113724	-1.2948821004	-0.269004
C	-3.2910274261	 0.4135955221	 1.3759520277	 0.16543
O	-4.283692311	 1.0781056841	 1.4758683431	-0.26551
H	 0.7456831684	 1.4621765734	-0.5272604007	 0.300649
H	 0.511181516	-1.0072793976	-0.7547555082	 0.105045
H	 0.171872347	-1.2188934731	 1.7631739026	 0.131601
H	-0.3929566417	 0.5239621214	 1.7929565406	 0.139206
H	-1.6632806531	-1.7718411382	 0.1242676141	 0.120461
H	-2.2656657016	 0.2542167491	-1.8451645395	 0.10123
H	-2.8184147867	-0.1082957315	 2.2307772745	 0.088776
58.3461	107.2575	155.0914	194.9727	232.1075	242.2109	266.1492	314.4871	372.8288	455.6833	523.9532	568.2601	693.3146	811.3525	840.6675	932.5327	955.1681	1020.2717	1029.9592	1042.493	1061.4776	1078.0882	1141.7532	1169.9169	1213.8177	1276.5368	1285.2796	1303.9125	1388.8289	1420.9272	1436.9672	1469.5811	1482.1435	1798.5977	1879.5176	2940.792	2980.6831	3111.0225	3133.6479	3142.7199	3235.3966	3814.6484
OC1CC1N(C=O)C=O	O[C@H]1C[C@H]1N(C=O)C=O	
InChI=1S/C5H7NO3/c7-2-6(3-8)4-1-5(4)9/h2-5,9H,1H2	InChI=1S/C5H7NO3/c7-2-6(3-8)4-1-5(4)9/h2-5,9H,1H2/t4-,5+/m1/s1
