17
gdb 34637	3.20915	1.35908	1.02012	0.8566	83.63	-0.2277	-0.0234	0.2043	1146.1765	0.13591	-384.644119	-384.636259	-384.635315	-384.676413	30.685	
C	 0.0644899093	-1.2105604327	-0.0719989754	-0.425847
C	-0.0129098242	-0.0095724706	-0.012545489	 0.234283
C	-0.0474905961	 1.4107695874	 0.0493936557	 0.152948
C	-1.1899265014	 2.1146409341	 0.0218919355	-0.17387
C	-1.1738670193	 3.6165039121	 0.1158462439	-0.123775
O	-0.0648126111	 4.119155555	 0.8481346437	-0.255573
C	 1.1769580819	 3.6051366936	 0.4596195029	 0.091491
C	 1.8337441481	 2.6457446607	 1.4147731114	-0.30088
C	 1.2515192254	 2.1482150684	 0.1009746841	-0.164504
H	 0.1169585451	-2.2698500126	-0.1212746696	 0.193768
H	-2.1505751364	 1.617793567	-0.0629186315	 0.10366
H	-1.2069420673	 4.0582218922	-0.8960947138	 0.107989
H	-2.0620753822	 3.9739330847	 0.6466921072	 0.121972
H	 1.7945655616	 4.3152124766	-0.0872852266	 0.090094
H	 2.9129638498	 2.6638086258	 1.519415595	 0.114545
H	 1.2794781004	 2.4257116046	 2.3197804848	 0.127891
H	 1.9679995163	 1.8547379436	-0.6600853582	 0.105808
102.8083	141.9137	193.8363	229.1607	363.9083	410.795	431.2586	508.3956	570.217	584.9901	634.2582	640.3379	685.5576	770.0047	810.3597	828.8597	851.595	950.3981	980.6703	1009.8055	1043.1063	1056.1716	1075.123	1100.7707	1124.0966	1170.2693	1188.0335	1232.5877	1266.1558	1303.6934	1363.7729	1396.6293	1416.394	1473.2378	1489.3075	1683.0076	2220.9121	2947.3318	3071.8477	3115.7663	3138.2579	3155.8754	3188.9296	3233.9806	3503.3293
C#CC1=CCOC2CC12	C#CC1=CCO[C@H]2C[C@@H]12	
InChI=1S/C8H8O/c1-2-6-3-4-9-8-5-7(6)8/h1,3,7-8H,4-5H2	InChI=1S/C8H8O/c1-2-6-3-4-9-8-5-7(6)8/h1,3,7-8H,4-5H2/t7-,8-/m0/s1
