21
gdb 123040	4.64961	0.56738	0.53666	2.5275	76.24	-0.2387	0.0718	0.3104	2051.6482	0.180104	-461.320281	-461.309813	-461.308869	-461.357088	37.198	
O	-0.1781569467	 1.3878112581	 0.1252890403	-0.416334
C	-0.2287977575	-0.0007692261	 0.4043394123	-0.055544
C	-1.4038062017	-0.6985763757	-0.2837961904	-0.21917
C	-1.4986325396	-2.1747885516	 0.0740202142	-0.056993
O	-2.5831258209	-2.7439203218	-0.6476909128	-0.267227
C	-2.7960529018	-4.0998013019	-0.396660026	 0.061163
C	-3.5297770793	-4.4973916798	 0.8718100885	-0.352119
C	-4.2406280472	-4.4938869432	-0.4671196406	 0.124424
O	-5.1786939498	-3.5060806415	-0.7534509358	-0.432271
H	-0.0508681984	 1.4932968852	-0.8229771969	 0.282058
H	 0.7168367477	-0.4987306404	 0.1336353029	 0.088342
H	-0.329112268	-0.0774788449	 1.4928318423	 0.11476
H	-2.3343344919	-0.1919211317	-0.0057671951	 0.116583
H	-1.3010840927	-0.6078542311	-1.3732097334	 0.100214
H	-0.5660040225	-2.6998452702	-0.1877492223	 0.093356
H	-1.655153869	-2.3083332132	 1.1549449152	 0.100497
H	-2.0243408945	-4.7598175009	-0.7926836126	 0.090081
H	-3.2815853227	-5.4423087226	 1.3434850933	 0.11301
H	-3.7997112776	-3.69589287	 1.5513931573	 0.121408
H	-4.4984439397	-5.4482856589	-0.91650573	 0.10125
H	-4.6773071561	-2.6907398277	-0.8885035406	 0.292513
47.9658	62.1118	85.0491	126.6293	139.8691	197.6474	265.6105	306.2241	338.5401	362.9451	387.5434	466.22	523.5167	640.331	756.249	772.9789	808.2539	879.1751	905.1124	988.6764	1007.5856	1030.8745	1055.3578	1074.5856	1082.3705	1091.8085	1117.6285	1133.2804	1135.4896	1187.2312	1212.7156	1242.6017	1281.8259	1301.0271	1312.6879	1349.3383	1362.8999	1397.8847	1425.7432	1426.65	1440.2035	1478.5641	1494.6615	1512.9163	1528.5894	2967.9192	2977.5393	3010.0106	3027.6453	3061.8286	3087.5324	3099.943	3130.1527	3153.687	3223.9975	3756.3841	3814.7803
OCCCOC1CC1O	OCCCO[C@H]1C[C@H]1O	
InChI=1S/C6H12O3/c7-2-1-3-9-6-4-5(6)8/h5-8H,1-4H2	InChI=1S/C6H12O3/c7-2-1-3-9-6-4-5(6)8/h5-8H,1-4H2/t5-,6+/m1/s1
