14
gdb 30011	3.32986	1.63864	1.14751	0.6331	68.01	-0.2176	-0.0376	0.18	987.4467	0.103081	-436.696055	-436.68931	-436.688365	-436.727305	26.023	
O	 0.1798560278	 1.4266526844	-0.2161739261	-0.411088
C	 0.004443873	 0.0338878758	-0.0530582678	-0.056684
C	 0.6085633662	-0.5539011465	 1.241310388	-0.136509
C	-0.2748108182	-1.3086581786	 1.9202008403	-0.192546
C	-1.5426701573	-1.2826036388	 1.1744999543	 0.239781
C	-1.3968902488	-0.4922376446	 0.088176902	 0.249042
O	-2.5509393091	-0.5108550181	-0.6241341012	-0.19046
C	-3.3554928897	-1.3315943021	 0.1215247109	 0.031643
N	-2.8157082495	-1.8241946801	 1.1960913342	-0.341157
H	-0.2181326636	 1.8600746489	 0.5474063639	 0.290252
H	 0.5011987123	-0.4233548954	-0.9192226586	 0.12949
H	 1.630854479	-0.3359844839	 1.5202099304	 0.114936
H	-0.0980178452	-1.8370550197	 2.8474250165	 0.120911
H	-4.3575971769	-1.4759015514	-0.2500268967	 0.152389
117.4592	174.4621	289.0532	340.0702	365.118	494.651	558.4742	620.1906	657.1249	702.4265	718.4609	783.3073	809.6821	850.0231	944.9771	946.5878	960.6836	1060.0923	1073.184	1081.0183	1156.1921	1208.6545	1247.0928	1268.9178	1301.8701	1373.1299	1418.0381	1427.3166	1508.876	1581.1233	1634.8131	3034.9295	3217.6349	3239.4091	3280.8551	3801.45
OC1C=CC2=C1OC=N2	O[C@H]1C=Cc2c1ocn2	
InChI=1S/C6H5NO2/c8-5-2-1-4-6(5)9-3-7-4/h1-3,5,8H	InChI=1S/C6H5NO2/c8-5-2-1-4-6(5)9-3-7-4/h1-3,5,8H/t5-/m0/s1
