25
gdb 115100	2.47566	1.2073	0.9781	0.2464	93.51	-0.2344	0.0336	0.268	1373.1772	0.230017	-352.385062	-352.375352	-352.374407	-352.41927	37.678	
C	 0.0522052611	 1.5847172659	 0.0844116244	-0.390741
C	 0.0094832825	 0.0588934077	-0.058062675	-0.193394
C	-1.408260061	-0.53645567	-0.0713388547	 0.04578
C	-2.2244727927	-0.1086022015	-1.3057840136	-0.254277
C	-3.5304717273	-0.8498060379	-1.4202332258	-0.054922
C	-3.8219121451	-1.9364166157	-0.7066188035	-0.042878
C	-2.8677696185	-2.559921421	 0.2802938083	-0.273242
C	-1.4157934877	-2.0780045945	 0.0846622571	 0.009191
C	-0.7411413108	-2.8238996161	-1.0783996357	-0.396687
H	 1.0844508699	 1.9434099068	 0.147696524	 0.110233
H	-0.4165980155	 2.088049391	-0.7668154475	 0.117758
H	-0.4691192143	 1.9120554852	 0.9912358774	 0.112437
H	 0.5414240434	-0.2308583711	-0.973105334	 0.095078
H	 0.5682219792	-0.3908219054	 0.7734497225	 0.088169
H	-1.933394466	-0.1407649112	 0.8115132139	 0.065912
H	-2.424138412	 0.9694378366	-1.2678137687	 0.101754
H	-1.631409867	-0.2573787545	-2.2220210654	 0.101789
H	-4.2578466109	-0.4564719818	-2.1271411552	 0.078658
H	-4.7929561954	-2.4127963317	-0.8223459351	 0.079607
H	-3.2033299733	-2.3328896483	 1.3032776874	 0.100957
H	-2.9125040425	-3.6539241353	 0.1971133173	 0.094386
H	-0.854720044	-2.3165660703	 0.9980261565	 0.061484
H	-1.2850671688	-2.6842294101	-2.0176565035	 0.123271
H	 0.2903754895	-2.494114136	-1.2318315775	 0.111524
H	-0.713868013	-3.8994260107	-0.8736452435	 0.108154
82.7955	118.5689	144.7453	198.5681	219.0647	230.957	299.9205	327.2988	392.6095	397.7049	441.5612	537.692	569.6761	674.8558	733.727	788.1374	808.4546	886.2717	897.0463	922.3416	935.2472	971.3154	996.4759	1005.3173	1017.0925	1047.5741	1056.1323	1104.7109	1112.299	1136.0394	1145.033	1201.4972	1231.9817	1245.9705	1289.3151	1300.8374	1325.5513	1342.1381	1360.2425	1367.4932	1392.1736	1400.776	1409.552	1414.5981	1419.6784	1475.0924	1477.532	1484.7658	1499.6896	1501.1875	1506.4741	1508.1706	1725.8998	2977.958	2989.712	2991.7713	3010.7204	3014.3418	3029.9678	3030.7861	3038.2053	3040.3092	3049.0857	3096.7172	3100.0973	3104.5744	3114.2869	3136.5548	3160.9333
CCC1CC=CCC1C	CC[C@H]1CC=CC[C@H]1C	
InChI=1S/C9H16/c1-3-9-7-5-4-6-8(9)2/h4-5,8-9H,3,6-7H2,1-2H3	InChI=1S/C9H16/c1-3-9-7-5-4-6-8(9)2/h4-5,8-9H,3,6-7H2,1-2H3/t8-,9+/m1/s1
