22
gdb 105087	2.82237	1.117	1.04377	2.6496	82.26	-0.2443	0.0715	0.3158	1314.2419	0.193081	-404.308042	-404.298281	-404.297337	-404.342745	36.575	
C	 0.5368583929	 1.7964149344	 2.6407171457	-0.398762
C	 0.6680190049	 0.4646944809	 1.899124852	-0.247838
C	 0.4422741314	-0.7799128234	 2.7469827887	 0.40699
C	 0.6994020411	-0.8092237644	 4.1971173169	-0.223173
O	-0.6341323331	-0.7074666638	 3.6854402973	-0.264083
C	 0.5694463435	-2.0658674043	 1.9673897867	-0.107862
N	 0.174687503	-3.3209278581	 2.6139163417	-0.341339
C	-0.5670595686	-2.8674826299	 1.4229185692	 0.011273
C	-2.0267889132	-2.5250515983	 1.6018749349	-0.409377
H	 1.3577380405	 1.951365292	 3.3477700584	 0.115361
H	 0.5522578012	 2.6305424418	 1.933553106	 0.112067
H	-0.4034389124	 1.8338682655	 3.1967995448	 0.139726
H	-0.057241828	 0.4328847016	 1.0749333226	 0.109564
H	 1.6575049145	 0.3880989373	 1.4297289726	 0.100019
H	 0.9330569034	-1.7653319577	 4.6603344848	 0.123018
H	 1.0644322002	 0.0758924892	 4.7132482037	 0.108102
H	 1.4788590271	-2.0802529304	 1.3649732398	 0.075828
H	 0.8265172751	-4.0633013335	 2.3771456241	 0.229279
H	-0.342124046	-3.3906037988	 0.4927440967	 0.078588
H	-2.1930262489	-2.0453459992	 2.5657424049	 0.161642
H	-2.3663176514	-1.851905582	 0.8066140866	 0.108355
H	-2.6354138474	-3.4346698287	 1.5508131218	 0.112621
61.4858	81.0811	164.6675	183.3052	225.1768	229.4015	282.837	322.5316	366.4897	383.3689	411.3925	527.5409	600.7836	703.2225	777.0943	792.2222	825.3317	873.5371	895.4604	947.328	951.5337	1006.1959	1025.9594	1030.5443	1080.1117	1083.3603	1117.9428	1141.4099	1148.3191	1172.0506	1186.164	1204.3738	1257.1756	1270.2015	1307.2181	1375.6609	1388.9674	1399.8726	1416.6513	1433.0939	1470.1388	1482.0304	1496.4096	1502.152	1503.1187	1509.7958	1522.8873	3016.609	3035.0506	3043.7318	3047.8208	3087.8497	3090.0561	3097.0381	3099.6597	3108.9923	3126.021	3164.8412	3189.4107	3508.1645
CCC1(CO1)C1NC1C	CC[C@]1(CO1)[C@H]1N[C@H]1C	
InChI=1S/C7H13NO/c1-3-7(4-9-7)6-5(2)8-6/h5-6,8H,3-4H2,1-2H3	InChI=1S/C7H13NO/c1-3-7(4-9-7)6-5(2)8-6/h5-6,8H,3-4H2,1-2H3/t5-,6-,7-/m0/s1
