17
gdb 51765	2.48232	1.17211	0.88259	4.036	76.02	-0.2646	0.0049	0.2695	1307.8609	0.133835	-421.800623	-421.791608	-421.790664	-421.835647	32.202	
O	-0.6834494269	 0.2836849404	-0.3967680553	-0.270305
C	-0.3767194158	 1.4197427808	-0.2027127805	 0.168115
O	 0.8684316288	 1.7888171584	 0.1621587004	-0.178719
C	 1.1414157403	 3.1670944502	 0.329378268	 0.15564
C	 2.1665889933	 3.5120112368	 1.4209847235	-0.251918
C	 2.7478012379	 4.5949168386	 0.4724461891	-0.228732
C	 2.050945981	 3.8768582158	-0.7376750916	-0.253611
C	 2.9164295145	 2.9841471466	-1.4809462012	 0.356732
C	 3.6404790838	 2.2469947867	-2.0950437243	-0.461589
H	-1.0704190968	 2.2797562651	-0.2885358579	 0.076411
H	 0.2049480699	 3.7244731782	 0.4491141521	 0.093253
H	 1.7843407434	 3.8196682078	 2.3957749367	 0.109797
H	 2.8636107312	 2.6810377189	 1.5500870358	 0.138688
H	 2.3167911185	 5.5833079926	 0.6465990269	 0.111997
H	 3.8323593176	 4.6790533206	 0.4167134503	 0.125388
H	 1.5097213267	 4.5332650846	-1.4256948849	 0.106116
H	 4.2717924226	 1.5892370779	-2.6395474072	 0.202734
35.4408	80.5768	122.9886	153.4849	200.3442	269.1092	339.8644	399.0848	473.2441	539.6592	633.7283	636.4059	664.1218	715.6846	786.2424	829.6204	900.3546	933.7809	976.8071	1025.7271	1043.8164	1091.069	1108.0459	1128.3514	1176.1543	1207.2783	1242.8153	1255.7329	1267.7684	1274.9965	1347.029	1385.0793	1440.574	1479.3897	1495.5212	1871.5	2238.0188	2938.9489	3033.8957	3059.1624	3077.4749	3081.0714	3132.8773	3149.694	3504.1166
O=COC1CCC1C#C	O=CO[C@H]1CC[C@H]1C#C	
InChI=1S/C7H8O2/c1-2-6-3-4-7(6)9-5-8/h1,5-7H,3-4H2	InChI=1S/C7H8O2/c1-2-6-3-4-7(6)9-5-8/h1,5-7H,3-4H2/t6-,7+/m1/s1
