18
gdb 105945	4.37628	1.37237	1.3043	0.4358	74.69	-0.2176	0.0788	0.2964	1024.543	0.148334	-401.833607	-401.826443	-401.825499	-401.865281	28.418	
C	 0.1182242211	 1.3071364585	 0.281500761	-0.260069
O	-0.0123784808	-0.0156588819	-0.2261188876	-0.283502
C	-1.279488269	-0.5051893723	-0.1485508005	 0.436689
C	-1.759482852	-1.9316566768	-0.0926735907	-0.176405
C	-2.1692631101	-0.8979150784	 0.9961953288	-0.130209
N	-3.4087119936	-0.2814164919	 0.4394038969	-0.149185
C	-4.1653568867	-1.4450543215	-0.1617562397	-0.179092
C	-2.940458319	-1.6981166942	-1.0619627439	-0.069315
C	-2.6155392207	-0.1743630135	-0.8824002805	-0.112642
H	 1.1708671112	 1.5795310294	 0.184493334	 0.130062
H	-0.4920970669	 2.0181096674	-0.2910458449	 0.119206
H	-0.1804413989	 1.3571563534	 1.3362889107	 0.121629
H	-1.2096788488	-2.8337553484	 0.1362942407	 0.096462
H	-1.9860862688	-1.0333870684	 2.0538900065	 0.09435
H	-4.4809458189	-2.2149700969	 0.5484843192	 0.101752
H	-5.0300568929	-1.0640599704	-0.7131678044	 0.106694
H	-2.9667921111	-2.2273238929	-2.0137208606	 0.072166
H	-2.8601269642	 0.6268117689	-1.5771086351	 0.081409
93.4604	161.6072	168.3777	321.8059	379.4105	467.8341	570.9337	620.3339	724.6173	763.5616	788.2977	822.5461	843.2693	858.4052	883.651	917.4184	933.111	962.8149	1009.2747	1018.3142	1041.6057	1057.7357	1069.1609	1108.3399	1125.5561	1148.7973	1178.4429	1190.8096	1200.6493	1209.8231	1217.3776	1234.3034	1258.7322	1291.3063	1434.3975	1486.4083	1499.1885	1503.4708	1509.0402	3005.1407	3049.1028	3064.2408	3108.0194	3121.6963	3131.0266	3136.2104	3201.7285	3219.5539
COC12C3C1N1CC3C21	CO[C@@]12[C@H]3[C@@H]1N1C[C@H]3[C@H]21	
InChI=1S/C7H9NO/c1-9-7-4-3-2-8(5(3)7)6(4)7/h3-6H,2H2,1H3	InChI=1S/C7H9NO/c1-9-7-4-3-2-8(5(3)7)6(4)7/h3-6H,2H2,1H3/t3-,4-,5-,6+,7-/m1/s1
