20
gdb 91639	2.81982	1.72034	1.50244	1.9345	76.51	-0.2242	0.0772	0.3014	962.7784	0.175126	-403.131801	-403.124824	-403.12388	-403.162733	29.734	
O	-0.0205533291	 1.4253131607	-0.0937586135	-0.444493
C	-0.0023932554	 0.0094351961	 0.0147523808	 0.149512
C	 0.6282752467	-0.5393407965	 1.3459090956	-0.253092
C	-0.5244833804	-1.3718721903	 1.9691412598	-0.027296
C	-1.2010018167	-1.9249260182	 0.6929632222	-0.233923
C	-1.4504886154	-0.5365383795	 0.064523625	-0.055062
C	-2.1379410474	 0.2186327697	 1.2043671834	-0.008693
N	-2.9527876276	-0.6295763403	 2.1073448392	-0.365358
C	-1.5420833616	-0.3337637638	 2.4457524696	-0.02373
H	 0.8894812435	 1.7363524768	-0.0946442748	 0.281224
H	 0.5182691667	-0.4216038592	-0.8526580838	 0.063173
H	 1.5057287654	-1.1616139636	 1.1450171374	 0.090269
H	 0.9417198769	 0.2902263109	 1.9884611351	 0.090388
H	-0.2102888064	-2.1086461476	 2.7108668837	 0.057865
H	-0.5215635793	-2.5389053886	 0.0947768121	 0.083099
H	-2.1176965757	-2.4761167671	 0.8910639063	 0.126651
H	-1.9636838602	-0.5174765751	-0.8981297381	 0.061872
H	-2.3744316806	 1.2687048855	 1.0941127773	 0.098061
H	-3.5469417536	-0.0177937241	 2.6617040683	 0.227525
H	-1.3166497498	 0.2898515944	 3.3048521942	 0.082006
150.4435	263.2991	271.0718	353.0785	412.6375	453.1456	482.7743	556.4879	576.7628	747.1377	775.0686	798.4916	842.4351	865.6756	887.2523	905.829	922.6306	941.0609	959.3537	965.6522	982.8821	997.3709	1061.9396	1076.2421	1090.5992	1106.8358	1151.1386	1157.7872	1187.3752	1201.171	1227.4003	1234.0069	1246.003	1294.3405	1300.8746	1316.299	1340.4726	1350.7932	1372.2398	1410.8273	1426.9532	1481.8756	1498.9464	2985.0671	3042.6811	3067.777	3087.1246	3093.8294	3102.383	3157.2088	3161.4839	3202.1489	3502.0331	3824.9946
OC1CC2CC1C1NC21	O[C@H]1C[C@@H]2C[C@H]1[C@H]1N[C@@H]21	
InChI=1S/C7H11NO/c9-5-2-3-1-4(5)7-6(3)8-7/h3-9H,1-2H2	InChI=1S/C7H11NO/c9-5-2-3-1-4(5)7-6(3)8-7/h3-9H,1-2H2/t3-,4+,5-,6-,7+/m0/s1
