23
gdb 123167	3.29313	0.66001	0.59455	1.0798	84.55	-0.241	0.0915	0.3325	1983.7221	0.203185	-425.393009	-425.382346	-425.381402	-425.430654	37.555	
C	-0.3141807087	 1.4603361118	 0.2600261611	-0.384105
C	-0.0001815345	-0.0202330842	 0.1268625965	-0.02398
O	 0.6547931179	-0.4489610064	 1.3018275074	-0.239047
C	 0.9888704712	-1.8165669223	 1.2857003369	-0.061784
C	 1.609960373	-2.1915728567	 2.6153215016	-0.067268
O	 0.5989247369	-2.2066569228	 3.6053112281	-0.246169
C	 1.0887981973	-2.41998732	 4.8901533987	 0.15219
C	 1.6293474211	-1.2491670105	 5.6726611477	-0.287413
C	 0.2792121045	-1.8537288406	 6.0094398194	-0.287111
H	 0.6053827545	 2.0370494541	 0.3946395609	 0.12471
H	-0.8252288615	 1.8248394984	-0.6361557557	 0.112749
H	-0.9590504476	 1.6377906935	 1.125279886	 0.128374
H	-0.9265861056	-0.5999710098	-0.0253442021	 0.086178
H	 0.6388954374	-0.2022695237	-0.7550259978	 0.081068
H	 0.0948168807	-2.4382520462	 1.1139282938	 0.095455
H	 1.7074799186	-2.034905888	 0.4764964714	 0.080797
H	 2.0817685998	-3.1846387832	 2.5288702829	 0.083087
H	 2.3950461512	-1.4654141541	 2.8720541022	 0.101081
H	 1.5656424607	-3.3912582938	 5.0352637149	 0.077793
H	 2.4601913225	-1.4097067343	 6.3509869451	 0.10956
H	 1.6236806687	-0.2870399454	 5.1726975182	 0.125435
H	-0.599135388	-1.2860915361	 5.7247451993	 0.126943
H	 0.1745248899	-2.4338354098	 6.9192859337	 0.111457
33.6679	54.0719	69.1549	111.4353	144.7423	198.3651	212.7943	245.3838	305.6145	398.3941	430.2528	444.9666	548.7249	756.4604	815.4932	819.6987	823.5173	857.3101	903.2692	951.791	978.7985	1003.4156	1050.7244	1066.4895	1071.9664	1109.4347	1130.1515	1134.9343	1163.2005	1174.411	1191.5932	1194.7937	1207.2389	1243.6495	1259.2275	1295.3793	1301.8498	1370.7947	1389.3686	1406.2321	1429.9624	1453.3829	1455.5314	1483.3163	1495.0689	1498.3788	1503.3077	1509.7229	1534.8383	2944.1166	2954.5017	2971.7267	2973.7112	2990.2392	3023.3762	3044.7892	3080.49	3118.6216	3121.7994	3134.9257	3141.7077	3220.4555	3234.9977
CCOCCOC1CC1	CCOCCOC1CC1	
InChI=1S/C7H14O2/c1-2-8-5-6-9-7-3-4-7/h7H,2-6H2,1H3	InChI=1S/C7H14O2/c1-2-8-5-6-9-7-3-4-7/h7H,2-6H2,1H3
