16
gdb 124549	3.94611	1.08891	0.90551	4.5648	66.75	-0.2832	-0.0147	0.2685	1266.5649	0.122981	-475.055128	-475.046655	-475.04571	-475.088807	30.492	
C	 0.079711674	 1.5467673097	-0.1228194747	-0.389266
C	-0.0355102902	 0.0226240904	-0.0024671136	-0.106549
C	 0.672723606	-0.5219619281	 1.2546761483	-0.397309
C	-1.461939334	-0.4167587236	-0.0213134494	 0.459909
N	-2.5033586352	 0.3313166432	-0.0295435679	-0.182273
O	-3.5956698063	-0.5784177873	-0.0394979333	-0.232065
C	-3.1185164483	-1.8470645356	-0.0371144256	 0.509115
O	-3.7421411026	-2.8544217052	-0.0439832883	-0.358259
O	-1.7372761191	-1.7473056192	-0.0255592532	-0.234509
H	 1.1345559258	 1.8317650765	-0.1531246413	 0.122617
H	-0.4066360462	 1.9154591669	-1.0288230985	 0.139441
H	-0.386272817	 2.0426391914	 0.7331104246	 0.141125
H	 0.4338174741	-0.4437340225	-0.8797577839	 0.120098
H	 0.2471567526	-0.0790568462	 2.1606119122	 0.134736
H	 0.5824791618	-1.6084296857	 1.3261590313	 0.142811
H	 1.7348788844	-0.2661032047	 1.2169176633	 0.130379
52.2763	126.1386	175.0646	215.7896	235.3747	272.5758	314.5749	402.045	438.7694	563.5102	622.6776	716.8824	767.2766	780.7774	870.4579	899.0414	938.0206	952.9927	974.0968	996.2151	1098.7049	1129.0393	1156.3883	1193.0339	1287.7667	1324.5794	1396.0193	1409.473	1427.6947	1486.788	1489.259	1500.6765	1513.5945	1682.2092	1950.5755	3018.5558	3045.3136	3052.111	3118.3991	3125.9324	3130.4118	3131.4806
CC(C)C1=NOC(=O)O1	CC(C)c1noc(=O)o1	
InChI=1S/C5H7NO3/c1-3(2)4-6-9-5(7)8-4/h3H,1-2H3	InChI=1S/C5H7NO3/c1-3(2)4-6-9-5(7)8-4/h3H,1-2H3
