18
gdb 12826	3.33902	1.99754	1.58277	0.5596	67.08	-0.2393	0.0752	0.3145	861.0979	0.15525	-384.926985	-384.919786	-384.918842	-384.957988	28.64	
O	-0.0527249445	 1.4046359163	 0.0435362559	-0.464061
C	-0.0064650857	 0.0049817667	-0.0262653111	 0.366017
C	-0.4659756305	-0.6757966364	-1.2845132354	-0.343492
C	-1.3352815641	-0.6984277604	-0.035796343	-0.061701
C	-1.5056744846	-2.0011564823	 0.7430000014	-0.236029
C	-0.2956802425	-2.2843555976	 1.6413769861	-0.069653
O	 0.9311393841	-2.0092354882	 0.9795757443	-0.241643
C	 1.1110408027	-0.6183125016	 0.7940907248	-0.15058
H	 0.6517169585	 1.7525014755	-0.5148745198	 0.282514
H	-0.78431414	-0.0424824082	-2.1052010498	 0.107741
H	 0.0249344197	-1.6017521072	-1.5681692032	 0.119052
H	-2.1939032534	-0.0362058076	-0.0643425578	 0.096378
H	-2.4044817256	-1.9526452922	 1.3672304208	 0.101534
H	-1.6511021984	-2.8342633194	 0.045648687	 0.106777
H	-0.357902245	-1.6799047116	 2.561309805	 0.090471
H	-0.2587467162	-3.3378753796	 1.9328680083	 0.105239
H	 2.0818629184	-0.495694485	 0.2988689478	 0.096568
H	 1.1536608472	-0.096900521	 1.7651776188	 0.094867
127.9108	209.4919	289.3982	338.0566	355.2462	394.4826	418.9624	472.6209	511.549	611.9064	731.527	785.2346	839.8159	892.529	929.588	941.991	965.2336	995.3292	1049.9615	1069.1269	1099.9586	1119.1764	1134.026	1140.3593	1216.984	1250.7904	1273.4882	1296.6998	1316.2462	1341.7757	1366.6418	1376.0699	1412.5723	1421.32	1476.2769	1490.0444	1497.7196	1503.6682	2965.6032	2971.5351	3032.7858	3050.5179	3072.9798	3087.2121	3125.1732	3167.1322	3219.7173	3790.6283
OC12CC1CCOC2	O[C@]12C[C@H]1CCOC2	
InChI=1S/C6H10O2/c7-6-3-5(6)1-2-8-4-6/h5,7H,1-4H2	InChI=1S/C6H10O2/c7-6-3-5(6)1-2-8-4-6/h5,7H,1-4H2/t5-,6+/m1/s1
