22
gdb 120863	4.45372	0.62127	0.58667	2.6211	79.89	-0.2296	0.074	0.3036	1918.5021	0.192705	-441.436558	-441.425942	-441.424997	-441.473689	37.647	
O	-4.7981192413	 0.0888246399	-0.4486455778	-0.420408
C	-4.1784343479	-1.1755897083	-0.2745547851	-0.075446
C	-2.7823104778	-1.0939033616	-0.8841031041	-0.201001
C	-2.0110861163	-2.3832161291	-0.6926175733	 0.00849
C	-2.050037177	-3.4703858116	-1.7108586974	-0.256854
N	-0.817520894	-2.717636816	-1.4730924748	-0.117527
C	-0.3560112885	-1.8094793743	-2.5235296308	-0.135873
C	 0.8484888286	-2.4373697147	-3.2235904363	-0.0617
O	 0.5413551135	-3.7008508759	-3.7868635351	-0.422915
H	-5.6820051607	 0.0458993168	-0.072539173	 0.286959
H	-4.1032680323	-1.4401544166	 0.7930823527	 0.086546
H	-4.7511995824	-1.9765281787	-0.7686541811	 0.0908
H	-2.8815744144	-0.8449794053	-1.9445979655	 0.110789
H	-2.2498265855	-0.260508745	-0.4086058071	 0.112261
H	-1.9158471413	-2.6820856812	 0.351884259	 0.088265
H	-2.0414379168	-4.5166760844	-1.4145489051	 0.11066
H	-2.5916950674	-3.2664387775	-2.6338841055	 0.115259
H	-1.1346269148	-1.5888653378	-3.269811547	 0.094358
H	-0.0501194584	-0.8608550179	-2.0651707435	 0.100779
H	 1.1723210603	-1.796937053	-4.0509882205	 0.102873
H	 1.680590221	-2.5137373455	-2.5075007122	 0.091508
H	 0.3112861035	-4.2746590622	-3.0481405965	 0.292176
33.1356	76.0806	87.3145	101.5049	122.9337	234.8881	250.9804	263.28	322.1908	383.0761	415.498	463.147	475.5381	576.649	735.3744	799.7546	846.5568	894.3075	917.1404	947.6252	978.9606	1021.8018	1049.1589	1074.8197	1084.6235	1108.1407	1123.8005	1136.0753	1163.9231	1178.7492	1224.9646	1230.6967	1247.9797	1277.6429	1307.7552	1327.4761	1335.2041	1380.1034	1396.1667	1423.0409	1427.3953	1462.5152	1476.9326	1490.419	1496.511	1511.9216	1528.3331	2962.6602	2977.5257	2990.7055	2993.0789	3034.8322	3055.5057	3075.7784	3084.0763	3086.5925	3101.9786	3170.1847	3811.7342	3830.8842
OCCC1CN1CCO	OCC[C@H]1CN1CCO	
InChI=1S/C6H13NO2/c8-3-1-6-5-7(6)2-4-9/h6,8-9H,1-5H2	InChI=1S/C6H13NO2/c8-3-1-6-5-7(6)2-4-9/h6,8-9H,1-5H2/t6-,7?/m0/s1
