18
gdb 90021	3.43806	1.09586	0.963	2.9056	73.02	-0.2466	0.0305	0.2771	1236.3262	0.14774	-439.091737	-439.083192	-439.082248	-439.125289	32.004	
O	 0.7979545621	 0.5281668334	-0.8928317238	-0.43177
C	 0.048906017	-0.2861877412	-0.0335172592	 0.174559
C	 0.1687816142	-0.1167768329	 1.5055861013	-0.339495
C	-1.3530698682	-0.3883070179	 1.612264931	 0.187347
C	-1.9049359818	-1.7091622439	 2.2265594426	-0.231429
N	-2.6752859126	-0.8698874636	 3.151489036	-0.338438
C	-2.2259317446	 0.3308161428	 2.658529097	 0.391018
O	-2.4421520342	 1.4787139435	 2.9463841061	-0.372663
C	-1.4846072849	-0.079730756	 0.0994636662	-0.339502
H	 0.6233493756	 1.4471873032	-0.661920145	 0.280478
H	 0.2786775258	-1.3139750599	-0.3307540099	 0.095137
H	 0.8523564578	-0.7705439707	 2.0522507861	 0.107258
H	 0.3809298248	 0.9247339268	 1.7726868025	 0.116098
H	-2.5211619391	-2.3153048408	 1.5539565924	 0.113356
H	-1.1579893446	-2.3440123493	 2.7150467249	 0.113331
H	-3.3115321081	-1.0955857279	 3.9014618721	 0.251366
H	-1.7550328207	 0.9725725828	-0.0440798224	 0.116067
H	-2.1505430084	-0.7033409086	-0.501498888	 0.107282
71.1387	93.1021	156.7441	250.8646	253.4448	316.9117	372.1415	395.6559	471.8852	473.4405	601.0397	699.732	729.0545	769.5137	821.0273	857.4894	907.5346	930.435	992.1162	1011.9285	1053.9462	1070.6168	1110.54	1141.3272	1165.0312	1168.1582	1197.2871	1219.6617	1234.5728	1279.2169	1294.9421	1302.4007	1339.5187	1392.1613	1437.9692	1461.8122	1488.9885	1524.8474	1889.5135	3032.4363	3042.1768	3047.5411	3066.4405	3079.2253	3108.6294	3112.1831	3612.2725	3801.8749
OC1CC2(CNC2=O)C1	O[C@H]1C[C@]2(CNC2=O)C1	
InChI=1S/C6H9NO2/c8-4-1-6(2-4)3-7-5(6)9/h4,8H,1-3H2,(H,7,9)	InChI=1S/C6H9NO2/c8-4-1-6(2-4)3-7-5(6)9/h4,8H,1-3H2,(H,7,9)/t4-,6+
