19
gdb 97108	2.96007	1.2576	1.03046	3.0982	79.42	-0.223	0.0181	0.241	1230.1142	0.158861	-419.17229	-419.163161	-419.162217	-419.20695	32.596	
C	-0.1891769574	 1.2311749108	-0.0261090965	-0.339659
N	-0.1966286269	-0.2064460982	 0.1995162304	-0.323618
C	 0.6523537668	-0.6785831967	 1.0028679467	 0.362833
N	 1.68551754	-0.1671352395	 1.7952238286	-0.364386
C	 1.9534215242	-1.4538663836	 2.4649519511	-0.225555
C	 0.9082634298	-2.1021743676	 1.5091041586	 0.342499
C	-0.2572235587	-3.0005689537	 1.9620148346	-0.35273
C	 0.2683222302	-3.9708624915	 0.8865489589	-0.071317
O	 1.3743441326	-3.0889498932	 0.5848694285	-0.307183
H	 0.8152837427	 1.6780572172	 0.030221067	 0.104265
H	-0.5996822089	 1.445390165	-1.0171263139	 0.125981
H	-0.8279551964	 1.7465920636	 0.7052672215	 0.114638
H	 1.7007906305	 0.7385438473	 2.2396652406	 0.243833
H	 2.9748341201	-1.8209650096	 2.3310934505	 0.121272
H	 1.6766685764	-1.488779537	 3.5251604267	 0.104916
H	-0.1866150553	-3.3595100471	 2.9904530939	 0.11093
H	-1.246036925	-2.5789112331	 1.7803045299	 0.133286
H	 0.6145455324	-4.9495778275	 1.2371871676	 0.103435
H	-0.3870003669	-4.1065730257	 0.0194924553	 0.11656
66.271	74.4326	120.904	132.2674	185.9255	264.7739	301.5819	347.9982	423.9287	487.8521	625.4418	695.0182	771.1927	786.2181	871.9755	889.7526	896.5501	977.8708	1000.8763	1026.3099	1039.4109	1110.2186	1128.8847	1134.8937	1157.6542	1166.3493	1168.5155	1196.8223	1221.5579	1227.1034	1272.611	1313.5254	1351.8192	1369.138	1436.1568	1478.9939	1488.7225	1505.4626	1509.0388	1528.0005	1812.305	2978.5829	3029.2749	3030.4521	3033.2433	3074.7087	3082.0236	3089.9388	3092.7662	3144.416	3612.3763
CN=C1NCC11CCO1	CN=C1NC[C@]21CCO2	
InChI=1S/C6H10N2O/c1-7-5-6(4-8-5)2-3-9-6/h2-4H2,1H3,(H,7,8)	InChI=1S/C6H10N2O/c1-7-5-6(4-8-5)2-3-9-6/h2-4H2,1H3,(H,7,8)/t6-/m0/s1
