17
gdb 67406	2.75348	1.56673	1.29963	5.2775	78.21	-0.2583	0.0147	0.273	1025.4617	0.136748	-380.826822	-380.819136	-380.818192	-380.858827	29.65	
C	-0.1018001152	 1.5249257679	 0.1185285431	-0.530206
C	-0.0226632012	 0.0493845453	-0.0600987691	 0.297883
C	 0.8635805537	-0.94748759	-0.9189177266	-0.137287
C	 1.1844167532	-1.6047922818	 0.4330428478	-0.154597
N	-0.0343627738	-0.9611385049	 1.0264907277	-0.202086
C	-1.0619559643	-1.0291401046	-0.0972002994	 0.192364
C	-0.4387016183	-1.6757970938	-1.3361964876	-0.298805
C	-2.4387803203	-0.9766936462	 0.2690216801	 0.199191
N	-3.5665875119	-0.92906559	 0.5232884139	-0.352294
H	 0.8547269063	 1.9297626492	 0.4659314006	 0.135349
H	-0.3610863335	 2.0226393277	-0.8214104203	 0.135306
H	-0.8664878641	 1.7679592243	 0.8619862569	 0.155361
H	 1.6237526869	-0.6966228158	-1.6553139141	 0.088728
H	 1.2129671629	-2.6982926861	 0.4864392973	 0.10962
H	 2.0589577206	-1.1824090042	 0.9330868815	 0.121286
H	-0.8779127565	-1.2568827735	-2.2438510622	 0.126338
H	-0.4138024045	-2.7679338535	-1.3984406897	 0.11385
118.6898	162.8844	199.396	226.679	286.0892	431.1186	438.4599	529.2823	541.4808	566.9119	669.6345	696.5108	752.4136	836.583	862.7527	921.7392	940.3657	989.9986	1005.605	1058.0356	1072.8028	1103.8407	1116.9083	1141.1424	1162.3512	1192.5782	1227.477	1256.7868	1300.183	1306.5968	1400.3143	1442.8859	1478.0331	1488.1798	1493.0078	1514.3881	2352.5992	3035.4511	3046.826	3058.0296	3100.8144	3114.0193	3118.4709	3123.0188	3144.1023
CC12C3CN1C2(C3)C#N	C[C@@]12[C@H]3CN1[C@@]2(C3)C#N	
InChI=1S/C7H8N2/c1-6-5-2-7(6,4-8)9(6)3-5/h5H,2-3H2,1H3	InChI=1S/C7H8N2/c1-6-5-2-7(6,4-8)9(6)3-5/h5H,2-3H2,1H3/t5-,6+,7+,9?/m1/s1
