16
gdb 127850	2.69755	1.54407	0.9886	1.8367	79.55	-0.216	-0.039	0.1769	1146.4583	0.124578	-434.050567	-434.042191	-434.041247	-434.083583	31.224	
C	-0.148349197	 1.3492350057	 0.0656708763	-0.329467
N	-0.0951047105	-0.0969760319	-0.0499307159	-0.334194
C	 0.5793354072	-0.6071620836	-1.0184765841	 0.281652
C	 1.3322122523	 0.0315216298	-2.0652234238	-0.279236
C	 1.9945825063	-0.742639313	-2.9491490183	 0.110457
O	 2.016243973	-2.0723004275	-2.9384317712	-0.227127
N	 1.2977834717	-2.791645043	-1.965503772	-0.214275
C	 0.6228169052	-2.0897154096	-1.0994419931	 0.381184
N	-0.126801242	-2.7444428266	-0.1812761919	-0.543529
H	 0.8507444658	 1.7978207705	 0.1710474481	 0.117495
H	-0.6271311701	 1.8169421863	-0.8073957253	 0.119581
H	-0.7313239119	 1.6197738076	 0.9493049814	 0.122981
H	 1.3816437954	 1.1072148634	-2.1562179769	 0.115703
H	 2.5909390488	-0.360800359	-3.7713904649	 0.141925
H	 0.0179360713	-3.7303002259	-0.0467886195	 0.263541
H	-0.4622802057	-2.1658404729	 0.5750743209	 0.27331
83.8989	117.9246	215.3036	219.0647	268.3457	323.9051	356.7647	446.1328	492.165	532.0137	553.0801	591.6588	601.4681	757.1608	771.27	829.5215	861.7951	929.8619	949.3707	1046.9447	1085.5745	1100.1066	1146.9604	1166.5553	1256.7579	1287.6545	1418.1286	1433.0043	1466.5908	1487.9773	1502.9217	1581.3915	1629.7566	1641.1456	1694.1011	2981.23	3030.0398	3103.6262	3194.0992	3235.5467	3571.7359	3721.0246
CN=C1C=CON=C1N	CN=c1cconc1N	
InChI=1S/C5H7N3O/c1-7-4-2-3-9-8-5(4)6/h2-3H,1H3,(H2,6,8)	InChI=1S/C5H7N3O/c1-7-4-2-3-9-8-5(4)6/h2-3H,1H3,(H2,6,8)
