14
gdb 27662	3.25742	1.23299	0.89948	5.5554	73.67	-0.2056	-0.0001	0.2055	1202.603	0.102042	-432.91262	-432.904222	-432.903278	-432.945576	30.962	
N	-0.0030462262	 1.3790221419	 0.0325033782	-0.599891
C	-0.1053591128	-0.0033489288	-0.001324597	 0.303489
C	-1.1579827991	-0.8443384421	 0.0601466998	-0.313548
C	-0.6411352988	-2.1924043728	-0.0081149598	 0.099966
C	-1.3284026485	-3.4207732238	 0.0355269482	 0.17162
N	-1.8614435061	-4.451216818	 0.0744656305	-0.365232
C	 0.7273016692	-2.05671075	-0.1212743549	 0.324273
N	 1.72249071	-2.976486005	-0.3002669331	-0.600428
O	 1.0798185167	-0.7652650016	-0.1160760229	-0.200836
H	 0.4805197927	 1.7253192302	 0.8549983065	 0.249426
H	 0.4470376022	 1.7642074949	-0.7914563113	 0.250434
H	-2.1921425308	-0.5552357244	 0.1486222051	 0.132444
H	 1.4656744776	-3.9257237927	-0.071094669	 0.280345
H	 2.6312357239	-2.7044767176	 0.0451889194	 0.267938
113.1032	127.5772	157.17	226.3992	282.7721	316.868	339.6174	443.1606	515.8348	534.7576	559.7708	605.259	621.4579	661.3731	732.5689	747.775	816.8183	844.627	925.4558	1074.2155	1160.7936	1179.7033	1212.0508	1226.7916	1340.686	1476.7181	1601.3395	1652.7739	1667.0456	1710.726	2326.679	3278.5858	3497.6985	3564.5242	3570.1688	3678.3148
NC1=CC(C#N)=C(N)O1	Nc1cc(C#N)c(N)o1	
InChI=1S/C5H5N3O/c6-2-3-1-4(7)9-5(3)8/h1H,7-8H2	InChI=1S/C5H5N3O/c6-2-3-1-4(7)9-5(3)8/h1H,7-8H2
