19
gdb 66575	3.25707	1.84122	1.53209	1.1481	85.63	-0.1912	-0.0298	0.1614	933.7785	0.159792	-348.637208	-348.630265	-348.62932	-348.6679	29.487	
C	 0.0365595806	 1.4590943599	-0.0953099643	-0.515522
C	 0.1189862071	-0.0352206751	-0.0960168764	 0.30875
C	-0.9506297728	-0.9277335913	 0.7011908053	-0.115905
C	 0.5407946447	-0.9924239141	 0.9755222205	-0.150669
C	 0.5361566585	-2.1173854987	-0.1006481422	-0.09119
C	-0.9832980326	-2.3518741628	 0.0350560562	-0.022314
C	-1.4266614968	-2.5476345182	-1.4588761477	-0.262465
C	-0.6253219501	-1.4113455662	-2.1035935597	-0.128534
C	 0.3174023766	-1.0525854636	-1.2100127685	 0.009104
H	 1.0071979457	 1.90836106	-0.3316746439	 0.126345
H	-0.6889349419	 1.8192115051	-0.8334006518	 0.124247
H	-0.2720165383	 1.8305865992	 0.8877466519	 0.120933
H	-1.7216280452	-0.4374035673	 1.2853054501	 0.081207
H	 1.1049553084	-0.8574270314	 1.8880490622	 0.086277
H	 1.2710955261	-2.9122352868	-0.2126052548	 0.070873
H	-1.3310449161	-3.1182595047	 0.736276412	 0.060123
H	-1.1984073316	-3.5780612379	-1.7680912262	 0.105604
H	-2.4936452765	-2.3904922851	-1.6586911337	 0.103936
H	-1.1113916657	-0.7095052009	-2.7748574889	 0.0892
195.3597	218.034	260.2305	325.2704	374.3496	503.2192	567.1328	583.3028	652.7355	699.3952	771.4812	779.5724	818.9834	829.625	868.6959	879.0813	894.076	898.9795	935.2189	950.8732	977.2261	1007.7679	1032.5254	1061.4673	1095.4803	1100.7008	1143.5247	1150.6223	1167.6911	1209.102	1226.4865	1259.7693	1264.2425	1281.7692	1315.3715	1390.5353	1422.1688	1466.6382	1481.9346	1498.8584	1588.0763	2997.5514	3025.8412	3053.1289	3056.5179	3088.1133	3096.3457	3131.5983	3162.6644	3173.5962	3207.7159
CC12C3C1C1C3CC=C21	C[C@]12[C@@H]3[C@H]1[C@H]1[C@@H]3C[CH][C]21	
InChI=1S/C9H10/c1-9-5-3-2-4-6(5)8(9)7(4)9/h3-4,6-8H,2H2,1H3	InChI=1S/C9H10/c1-9-5-3-2-4-6(5)8(9)7(4)9/h3-4,6-8H,2H2,1H3/t4-,6-,7-,8+,9-/m0/s1
