20
gdb 104694	2.59256	1.422	1.17284	2.6452	74.36	-0.2429	0.0734	0.3164	1128.1493	0.172136	-440.225686	-440.217135	-440.216191	-440.258756	33.198	
O	 0.3526131693	 1.0613056132	 0.6815353928	-0.430691
C	 0.1918766429	-0.1070928207	-0.1021391155	-0.137641
C	-1.2443718967	-0.6063695288	-0.1012775328	 0.267857
C	-2.1983378659	 0.3064509798	-0.8557361643	-0.129969
O	-2.3479212941	 1.5439203164	-0.1585878308	-0.422903
C	-1.6478388622	-2.0252725311	 0.0181058347	-0.085126
C	-0.7075072049	-2.850331733	 0.8970618562	-0.268351
C	-0.942624641	-1.7810015719	 1.9949730529	-0.163667
N	-1.9388068192	-1.0379724599	 1.1415024309	-0.185038
H	-0.3906370168	 1.64086424	 0.4591162504	 0.287862
H	 0.4863781084	 0.0654600904	-1.1513502874	 0.087383
H	 0.8873191011	-0.848974427	 0.2968603434	 0.104951
H	-1.8058508852	 0.556923312	-1.8461290098	 0.113649
H	-3.1720783604	-0.1849875802	-0.984326154	 0.101015
H	-2.6755791386	 1.2945507948	 0.7166151641	 0.298813
H	-2.4440110334	-2.4426997284	-0.5928073514	 0.091725
H	-1.1346664353	-3.8191014944	 1.1614273449	 0.115426
H	 0.3098721047	-3.0084076884	 0.5286947621	 0.110701
H	-1.4462075445	-2.1708074269	 2.8812760687	 0.112254
H	-0.0947885482	-1.1670903258	 2.3073755351	 0.131751
95.9258	109.6795	193.0529	218.2791	277.5717	333.56	369.5762	383.2746	458.694	529.4463	549.2936	649.4677	698.5144	787.2136	812.7324	842.2918	896.6983	937.0421	953.8954	985.4703	1003.6804	1026.1542	1030.4118	1065.1483	1075.3635	1110.2541	1148.3023	1188.1437	1202.8095	1216.9586	1257.8877	1273.5879	1299.3533	1318.9979	1364.1138	1385.7988	1425.3071	1430.9345	1470.4708	1490.8868	1497.1244	1508.3225	1530.5471	2961.0227	3013.3621	3061.2159	3072.8733	3087.7876	3098.362	3112.0528	3130.402	3143.8884	3715.1567	3760.7537
OCC1(CO)C2CCN12	OCC1(CO)[C@H]2CCN12	
InChI=1S/C6H11NO2/c8-3-6(4-9)5-1-2-7(5)6/h5,8-9H,1-4H2	InChI=1S/C6H11NO2/c8-3-6(4-9)5-1-2-7(5)6/h5,8-9H,1-4H2/t5-,7?/m1/s1
