21
gdb 85881	2.05874	1.54168	1.13556	1.0945	84.49	-0.2459	0.0406	0.2865	1200.194	0.178814	-387.058996	-387.048811	-387.047867	-387.093753	38.314	
C	-0.2109431561	 1.1949573107	-1.3253491187	-0.407905
C	 0.306778908	-0.1223427445	-0.7870370464	 0.158776
O	 1.6748672073	-0.3801489485	-1.1628093755	-0.337054
C	 2.1152536857	-0.5246072153	 0.2159060786	 0.424851
C	 2.5903272976	-1.9476831259	 0.482127763	-0.428415
C	 3.1796773692	 0.5073608519	 0.5523558216	-0.427854
C	 0.6573388142	-0.2372458623	 0.7318795538	-0.345963
C	 0.4289105725	 0.9088089384	 1.5841989814	 0.36398
C	 0.234925798	 1.8593440323	 2.2957840802	-0.473809
H	 0.3873146521	 2.0341449644	-0.962331902	 0.1291
H	-0.1708998279	 1.1835496827	-2.4190376738	 0.124134
H	-1.2501704552	 1.3532101528	-1.0189182512	 0.118994
H	-0.3435969202	-0.9434168182	-1.1180888513	 0.07601
H	 3.4887152558	-2.1608462073	-0.1058388522	 0.124683
H	 2.8319717283	-2.0859757273	 1.5415383882	 0.118022
H	 1.821725967	-2.6744208905	 0.203025898	 0.117066
H	 2.8195497018	 1.5207404541	 0.364616908	 0.127402
H	 3.473651328	 0.4366113765	 1.6043478947	 0.118563
H	 4.0646630762	 0.3324838206	-0.0677985892	 0.120303
H	 0.2120400602	-1.1248849786	 1.1900125111	 0.101791
H	 0.0630659175	 2.696565394	 2.9259989616	 0.197325
47.912	132.4557	160.2598	194.3974	209.5415	229.6997	262.4093	331.3663	336.658	365.8179	398.0011	454.1081	529.5095	555.2542	622.716	636.9211	671.5409	802.4697	817.6851	870.2685	927.4803	935.8641	981.6443	1001.7534	1004.6289	1090.3918	1096.3895	1148.6835	1171.8691	1186.7941	1246.7663	1265.5481	1310.1278	1350.8967	1387.9215	1400.3664	1409.9757	1415.9903	1471.8544	1477.8264	1481.5045	1487.5602	1494.1212	1500.8053	2230.2613	3002.7186	3031.8694	3040.6842	3042.8139	3063.8911	3103.9151	3110.2514	3110.4984	3113.0165	3128.2695	3133.8712	3502.5517
CC1OC(C)(C)C1C#C	C[C@H]1OC(C)(C)[C@H]1C#C	
InChI=1S/C8H12O/c1-5-7-6(2)9-8(7,3)4/h1,6-7H,2-4H3	InChI=1S/C8H12O/c1-5-7-6(2)9-8(7,3)4/h1,6-7H,2-4H3/t6-,7+/m1/s1
