20
gdb 93806	2.38105	1.51339	1.12021	2.0798	76.86	-0.2604	0.018	0.2784	1167.3062	0.171169	-440.312562	-440.30361	-440.302665	-440.346196	33.695	
C	 0.0234764929	 1.5148266836	 0.0421395236	-0.407632
C	 0.0116368189	 0.0075064174	-0.0623371775	 0.216337
O	 0.7443124333	-0.3860840915	-1.1779743508	-0.237127
C	 0.7776563834	-1.8048118045	-1.2887557956	-0.116111
C	 1.5151871327	-2.3995014443	-0.0840884384	-0.047879
C	 3.026762914	-2.1097697234	-0.1526902399	-0.39459
C	 0.9409574643	-1.8296409409	 1.1990305308	 0.363767
N	 0.9139299922	-2.5044626145	 2.268621342	-0.50442
O	 0.5627173667	-0.5130627074	 1.1638408906	-0.270132
H	 1.0545224589	 1.868693894	 0.1167138814	 0.138443
H	-0.44125176	 1.9501069804	-0.8454005217	 0.131295
H	-0.5282369895	 1.8313092901	 0.9297399545	 0.133028
H	-1.017241509	-0.386739483	-0.1392332637	 0.074407
H	-0.2498366188	-2.1969046843	-1.3534050041	 0.09928
H	 1.2934399574	-2.0345108389	-2.2244911931	 0.11452
H	 1.3565203081	-3.4805557902	-0.0508073816	 0.104613
H	 3.2125410426	-1.0337550155	-0.2034233892	 0.133872
H	 3.5330900916	-2.511456373	 0.7278311756	 0.137558
H	 3.4607007653	-2.5733138038	-1.0447507653	 0.113484
H	 0.5347219849	-1.9362692503	 3.0297017623	 0.217285
78.5297	104.7042	203.0147	214.1499	245.4862	252.8241	286.7443	357.1823	450.6846	470.7855	503.0065	596.3672	699.516	727.5703	779.412	861.0964	875.03	914.2137	942.2101	975.1273	1004.7933	1035.4741	1078.1105	1119.3489	1123.9273	1138.0205	1174.7202	1183.9041	1278.8062	1321.7294	1332.6507	1342.5715	1386.8473	1390.5746	1406.2209	1417.2449	1434.9569	1482.017	1487.084	1493.1201	1502.6822	1507.2213	1750.9402	2946.7691	2982.5114	3042.6434	3059.6412	3082.1165	3096.8785	3114.972	3134.9942	3141.5273	3144.7019	3457.1108
CC1OCC(C)C(=N)O1	C[C@H]1OC[C@@H](C)[C]([NH])O1	
InChI=1S/C6H11NO2/c1-4-3-8-5(2)9-6(4)7/h4-5,7H,3H2,1-2H3	InChI=1S/C6H11NO2/c1-4-3-8-5(2)9-6(4)7/h4-5,7H,3H2,1-2H3/t4-,5+/m1/s1
