15
gdb 47219	2.47467	1.57966	1.08311	6.5105	71.93	-0.265	-0.0165	0.2485	1082.5396	0.114589	-416.859719	-416.851836	-416.850892	-416.893169	28.607	
O	-0.0257070968	-0.0306415478	 0.3380186046	-0.358516
C	-0.049912285	 1.169917791	 0.1715594514	 0.410941
N	-1.2037875113	 1.8846355138	 0.1056432365	-0.329064
C	-1.3833074468	 3.3084286729	-0.1121494745	-0.202337
C	-0.0933732993	 4.0198149893	-0.362312448	-0.055182
C	 1.0949123495	 3.4328966944	-0.3163003212	-0.057641
C	 1.2657116437	 1.9661781466	 0.0054572622	-0.307179
C	 2.0922031166	 1.7970326853	 1.2078225958	 0.28555
N	 2.7560705633	 1.7127917439	 2.1494405374	-0.319656
H	-2.0316955261	 1.3166223834	 0.2185473236	 0.258633
H	-2.0571674481	 3.4648977761	-0.9675466217	 0.132563
H	-1.8870507022	 3.7626850164	 0.7551261154	 0.136557
H	-0.1768918879	 5.077521987	-0.5912453598	 0.116472
H	 2.0049313474	 3.9954237382	-0.4982858925	 0.124446
H	 1.7975239032	 1.4608989294	-0.8124376992	 0.164414
35.4796	120.4368	150.4978	204.3376	388.4558	401.438	458.1764	489.6769	537.6815	587.3585	601.3721	681.8272	728.959	816.0217	910.137	921.1375	993.3639	1007.1529	1028.2313	1039.4509	1126.3502	1182.7397	1249.9253	1280.915	1284.9789	1342.3923	1391.8351	1422.1543	1488.002	1523.6151	1749.8634	1804.5775	2361.8638	2986.5193	3004.3602	3023.5941	3174.1487	3194.3898	3605.3272
O=C1NCC=CC1C#N	O=C1NCC=C[C@H]1C#N	
InChI=1S/C6H6N2O/c7-4-5-2-1-3-8-6(5)9/h1-2,5H,3H2,(H,8,9)	InChI=1S/C6H6N2O/c7-4-5-2-1-3-8-6(5)9/h1-2,5H,3H2,(H,8,9)/t5-/m0/s1
