25
gdb 103596	2.61612	1.18367	1.01151	1.4033	88.93	-0.2374	0.0753	0.3126	1367.0123	0.225822	-389.505566	-389.494733	-389.493788	-389.540775	41.301	
C	-0.7406929575	 1.4990002673	-0.5424875801	-0.38865
C	-0.2131457007	 0.0990013985	-0.2138579097	-0.217267
C	 0.9714490466	-0.3402741651	-1.082886086	 0.449013
C	 2.2113387158	 0.5233964263	-0.8752814049	-0.441639
C	 1.2272050185	-1.8680575399	-1.1016963125	-0.400743
C	 0.801851143	-1.8036476572	-2.590735584	 0.44234
C	 1.8962070381	-2.1188304113	-3.6043001365	-0.42952
C	-0.5016783352	-2.5145640136	-2.9370340213	-0.430337
O	 0.5934922646	-0.3637592316	-2.4924156819	-0.367846
H	-0.0165070844	 2.2805743281	-0.2937100931	 0.113925
H	-0.9681579483	 1.573659363	-1.6097159473	 0.136073
H	-1.6563737862	 1.7094582808	 0.0182152702	 0.108249
H	 0.0855607412	 0.037984104	 0.8413492293	 0.090346
H	-1.0225620692	-0.6277165044	-0.3489233802	 0.093089
H	 2.5218742638	 0.5094830335	 0.1756158222	 0.110688
H	 3.0429061	 0.1577763709	-1.4835548861	 0.114744
H	 2.0180546364	 1.5606098904	-1.163232934	 0.125878
H	 2.2633097061	-2.1673706195	-0.9293915991	 0.097393
H	 0.5719480972	-2.4558007954	-0.4549447225	 0.097735
H	 2.1049015875	-3.1942002535	-3.6288399621	 0.111227
H	 1.5854367489	-1.8075644295	-4.6071026099	 0.120901
H	 2.822727113	-1.5932515473	-3.3581395866	 0.115717
H	-1.2842038944	-2.2750862714	-2.2121376543	 0.116577
H	-0.8501928281	-2.205474593	-3.9280454788	 0.120846
H	-0.3612324768	-3.60124469	-2.9471531305	 0.111261
64.9488	100.0212	162.2859	198.0002	207.7465	223.6703	242.2352	287.7651	311.0409	344.5303	365.6794	387.0193	404.1453	481.2587	511.0377	606.8131	728.9634	783.1867	862.2151	878.8696	893.6825	916.6567	921.057	946.4912	983.1067	996.1708	999.9486	1028.4401	1056.0278	1069.1409	1141.5723	1186.6455	1214.9384	1259.1738	1269.4064	1280.1096	1291.203	1323.86	1373.5303	1398.5738	1404.1941	1406.3196	1412.0945	1469.45	1476.6886	1479.7999	1484.0177	1490.7486	1492.4917	1497.0131	1504.0236	1507.1355	1511.4176	3018.1058	3028.8231	3034.5731	3036.012	3042.1454	3057.5134	3066.7027	3097.3156	3104.8417	3105.574	3107.3067	3112.4407	3115.7047	3117.7105	3120.4489	3122.6192
CCC1(C)CC(C)(C)O1	CC[C@@]1(C)CC(C)(C)O1	
InChI=1S/C8H16O/c1-5-8(4)6-7(2,3)9-8/h5-6H2,1-4H3	InChI=1S/C8H16O/c1-5-8(4)6-7(2,3)9-8/h5-6H2,1-4H3/t8-/m0/s1
