21
gdb 41576	2.76119	1.77972	1.72591	1.7335	79.44	-0.2422	0.0801	0.3223	935.6292	0.187654	-387.090037	-387.083469	-387.082525	-387.120749	28.244	
C	 0.0006861237	 1.5407758219	 0.2467177518	-0.103105
O	 1.4396385911	 1.5770184245	 0.1051168757	-0.296768
C	 1.5045245276	 0.1387305697	-0.0487544839	 0.137317
C	-0.0439999439	 0.025787257	-0.0424966958	-0.059737
C	-0.3532986777	-0.5505158577	-1.4473310094	-0.02905
C	-0.0415969133	 0.4639497432	-2.5707015523	-0.216564
C	 1.5173290134	 0.5810679616	-2.5356920831	-0.207109
C	 1.9214224242	-0.4185994963	-1.4307549515	-0.047604
C	 0.846646426	-1.5239670302	-1.5910454579	-0.216778
H	-0.303214295	 1.8042513586	 1.2677836505	 0.096816
H	-0.5015619142	 2.216482277	-0.453843474	 0.102978
H	 2.0637162594	-0.3202268616	 0.7744958997	 0.070446
H	-0.4992401689	-0.5791118485	 0.7437078464	 0.074553
H	-1.3449660257	-1.0002693376	-1.52768284	 0.055776
H	-0.3857314499	 0.0637010054	-3.5293155297	 0.093226
H	-0.5429061643	 1.4248088164	-2.4349478198	 0.097512
H	 1.9597704244	 0.2887302441	-3.4921175452	 0.088462
H	 1.8541265615	 1.591106281	-2.3003282402	 0.118102
H	 2.9613469454	-0.745781791	-1.4835560378	 0.056539
H	 0.8818955393	-2.2836357811	-0.8028099155	 0.091903
H	 0.8874776968	-2.0256383263	-2.5628492781	 0.093083
116.5613	284.1331	316.6845	401.1923	439.0798	506.294	554.1453	722.5305	727.2785	794.795	811.4562	840.65	863.4091	882.7271	899.4759	920.9777	946.0465	964.7416	970.7505	993.3396	1012.1592	1028.5002	1064.5527	1086.372	1102.5517	1116.6558	1149.6909	1164.1165	1167.8463	1216.0551	1230.5315	1257.6942	1260.081	1279.0654	1310.1914	1313.3705	1331.0817	1340.9166	1350.557	1363.1099	1370.0844	1483.1931	1492.7588	1511.7009	1534.1793	3016.1738	3035.0906	3045.3484	3051.206	3063.3386	3065.417	3083.7656	3093.7349	3095.2624	3098.1439	3100.6223	3129.2074
C1OC2C1C1CCC2C1	C1O[C@H]2[C@@H]1[C@H]1CC[C@@H]2C1	
InChI=1S/C8H12O/c1-2-6-3-5(1)7-4-9-8(6)7/h5-8H,1-4H2	InChI=1S/C8H12O/c1-2-6-3-5(1)7-4-9-8(6)7/h5-8H,1-4H2/t5-,6+,7-,8+/m0/s1
