17
gdb 46334	3.13898	1.31999	1.21546	4.6363	67.91	-0.2528	0.0022	0.255	1077.8348	0.137151	-458.992576	-458.984848	-458.983904	-459.02574	28.531	
O	-0.4297755579	 0.2456524231	-0.4317156181	-0.329206
C	-0.1798058197	 1.3403925754	-0.045184526	 0.409996
O	-1.0100628826	 2.2250260534	 0.5966207814	-0.243207
C	 0.0189114979	 3.2652542632	 0.6395190942	-0.126957
C	 1.0408759279	 2.2959073309	 2.0453*^-6	 0.232866
C	 2.2462021066	 1.7913352476	 0.8174032777	-0.307373
C	 3.4438652543	 2.3940729988	 0.0645095948	-0.227618
C	 2.9194976789	 2.3996446337	-1.3701876107	-0.07851
O	 1.5281850717	 2.7141270683	-1.2528318652	-0.294099
H	-0.2495005074	 4.1081988908	 0.0007092632	 0.133189
H	 0.2049170854	 3.5850900742	 1.6669772965	 0.119628
H	 2.190576307	 2.0815524407	 1.8681924673	 0.118812
H	 2.2770702465	 0.6979953227	 0.7709732527	 0.136357
H	 3.6393632077	 3.4174334213	 0.4005417838	 0.113522
H	 4.3599647037	 1.8116398852	 0.1838144983	 0.11443
H	 3.3759504693	 3.1574925266	-2.0119050814	 0.11683
H	 3.0452941406	 1.4164683142	-1.8452363238	 0.111339
41.7071	127.5701	161.7618	248.3145	272.7081	355.6325	440.5549	602.2245	621.5635	718.0461	735.4427	794.1963	863.1302	892.9815	907.0832	928.1054	944.2988	978.1257	1009.4764	1040.2901	1103.5637	1149.387	1153.8934	1167.3761	1181.4708	1208.9826	1248.4791	1274.309	1328.01	1338.1907	1353.0332	1389.4655	1484.4076	1495.2832	1507.8117	1523.7743	1939.0274	3008.4487	3055.6957	3060.4413	3072.0193	3097.8405	3113.7585	3123.0731	3141.4956
O=C1OCC11CCCO1	O=C1OC[C@]21CCCO2	
InChI=1S/C6H8O3/c7-5-6(4-8-5)2-1-3-9-6/h1-4H2	InChI=1S/C6H8O3/c7-5-6(4-8-5)2-1-3-9-6/h1-4H2/t6-/m0/s1
