19
gdb 34863	3.60509	1.26633	1.15957	5.027	78.9	-0.2307	0.021	0.2516	1112.3887	0.16285	-382.057581	-382.050115	-382.049171	-382.089461	29.517	
N	-0.0796567786	-1.1138993745	-0.1192685542	-0.328313
C	-0.0213119924	 0.0380345824	-0.045703266	 0.293796
C	 0.0134203236	 1.4940499194	 0.0740755058	-0.13115
C	-0.1462428948	 2.0478928943	 1.5199409873	-0.01856
C	 1.397230471	 1.9409317616	 1.5681287958	-0.198635
N	 1.4238227007	 2.0349955058	 0.059651063	-0.108047
C	 1.3410032917	 3.454916306	-0.3428825149	-0.165763
C	 0.496174996	 4.3352972169	 0.624008764	-0.219899
C	-0.5735878269	 3.5190766375	 1.3977532546	-0.220163
H	-0.6428087623	 1.9249418011	-0.6893793073	 0.111965
H	-0.7533594312	 1.4826120685	 2.2303097996	 0.087912
H	 1.9628010957	 2.7125338478	 2.0951475558	 0.109947
H	 1.7548229232	 0.9559650975	 1.8776475759	 0.131027
H	 2.3612978549	 3.8472220975	-0.4051971618	 0.111444
H	 0.9344067164	 3.4758117499	-1.3596503567	 0.111845
H	 1.1699356805	 4.7996058216	 1.3501645065	 0.113808
H	 0.0340243069	 5.1621179326	 0.0773738746	 0.106089
H	-1.5482006299	 3.5640819531	 0.8973327055	 0.106513
H	-0.7156450745	 3.9510441811	 2.3939224324	 0.106184
117.1818	148.0575	189.4706	309.348	357.2898	413.3037	472.2981	495.6334	554.5198	634.4957	776.984	818.3859	824.442	858.3029	885.4702	895.9283	925.0372	948.8986	959.376	1028.301	1048.2032	1085.05	1090.2795	1129.6844	1160.9344	1195.0919	1213.4169	1241.8798	1274.5844	1289.3225	1301.7471	1312.4438	1354.6497	1357.7363	1364.7244	1385.6559	1488.2732	1495.3672	1501.9564	1521.4627	2356.6419	3031.9937	3039.646	3051.0015	3055.4984	3067.4037	3070.8546	3076.9561	3087.2434	3098.6415	3121.7077
N#CC1C2CN1CCC2	N#C[C@H]1[C@H]2CN1CCC2	
InChI=1S/C7H10N2/c8-4-7-6-2-1-3-9(7)5-6/h6-7H,1-3,5H2	InChI=1S/C7H10N2/c8-4-7-6-2-1-3-9(7)5-6/h6-7H,1-3,5H2/t6-,7+/m1/s1
