17
gdb 79120	5.22259	1.20832	1.11823	4.6303	71.96	-0.2628	0.0042	0.267	1094.5088	0.137558	-421.821878	-421.814967	-421.814023	-421.85307	27.586	
C	-0.1300668302	 1.5854115007	-0.0213729389	-0.435864
C	 0.0165396015	 0.0711988387	 0.0211512184	 0.006113
C	 1.221029847	-0.6294947089	-0.6656052614	-0.081833
C	 2.1378988522	-0.2223242286	 0.5227090324	 0.114148
O	 3.11289449	-1.2484876075	 0.7579478501	-0.252642
C	 2.3783102342	-2.4004386149	 0.5908331124	 0.4504
O	 2.8205473821	-3.5035171697	 0.7009811121	-0.344609
C	 0.9974660852	-1.8807337739	 0.2626611799	-0.209596
C	 0.785905408	-0.6197430931	 1.1804910964	-0.081817
H	 0.8046667212	 2.1101889105	 0.1956575393	 0.120385
H	-0.4708640187	 1.9107540175	-1.010014111	 0.125885
H	-0.8749987424	 1.9198857966	 0.7084290531	 0.125886
H	-0.9401132349	-0.4124174663	-0.201774421	 0.08026
H	 1.4854736208	-0.6542350142	-1.7236539251	 0.090483
H	 2.595400868	 0.7566736367	 0.625381072	 0.104549
H	 0.1996798228	-2.5953589975	 0.0784057594	 0.09777
H	 0.5499437132	-0.6332594561	 2.2454559219	 0.090481
149.5788	192.6284	210.1938	299.3117	411.1695	429.7463	554.4276	617.1671	717.8629	735.5733	795.6766	811.4706	847.9482	884.506	886.8713	924.1238	941.9217	1006.5099	1022.9029	1056.5664	1072.34	1102.1547	1123.009	1130.5706	1154.081	1156.4991	1178.2193	1219.0156	1246.5794	1250.9238	1286.6499	1362.7793	1412.5084	1423.0455	1494.1673	1501.8869	1909.6197	3036.7448	3052.419	3098.3271	3109.2278	3109.4185	3112.5188	3164.8622	3177.2756
CC1C2C3OC(=O)C2C13	C[C@H]1[C@H]2[C@@H]3OC(=O)[C@H]2[C@H]13	
InChI=1S/C7H8O2/c1-2-3-5-4(2)6(3)9-7(5)8/h2-6H,1H3	InChI=1S/C7H8O2/c1-2-3-5-4(2)6(3)9-7(5)8/h2-6H,1H3/t2-,3+,4-,5+,6-
