19
gdb 91867	2.40121	1.61141	1.06874	2.116	76.43	-0.2378	-0.0146	0.2232	1144.3087	0.159446	-423.04251	-423.034351	-423.033406	-423.075173	31.725	
C	 0.0131819323	 1.5353633479	 0.084427898	-0.399718
C	 0.0121655043	 0.0174099099	 0.001861597	 0.123971
C	 0.6405336914	-0.5181843012	-1.2969494543	-0.316925
C	 0.5878115411	-2.0397705079	-1.3193596806	 0.381355
O	 0.2998302259	-2.6670842019	-2.3148103368	-0.327815
C	 0.8151371497	-2.7062436525	-0.005016205	-0.148294
C	 2.1095960735	-2.4893486425	 0.7855775974	-0.30893
C	 0.8461728266	-1.8474252804	 1.2482065718	 0.091666
O	 0.7622449127	-0.4595399338	 1.1200341075	-0.269757
H	 1.0359836609	 1.9197106423	 0.0239506712	 0.12538
H	-0.5701465346	 1.9625920655	-0.7361505206	 0.121047
H	-0.4219300031	 1.8645315141	 1.0316794901	 0.12764
H	-1.0233040118	-0.352710789	 0.0746207629	 0.078989
H	 0.1250582154	-0.1487745023	-2.1872589189	 0.123114
H	 1.6824066852	-0.1750541408	-1.3403276543	 0.123193
H	 0.3802633021	-3.6972551063	 0.0573204122	 0.112872
H	 2.5000113437	-3.3513476732	 1.3139887621	 0.127086
H	 2.8575262067	-1.8291985831	 0.3619208551	 0.131083
H	 0.344370988	-2.2329797947	 2.1328067954	 0.104044
95.9572	140.4947	199.0607	221.7972	285.8891	391.2229	432.4896	439.184	470.0834	493.3456	584.233	704.9775	755.3958	803.3484	839.0944	878.6294	892.9283	923.4926	977.1761	1007.825	1022.8473	1047.9736	1088.877	1117.4254	1121.7356	1160.4368	1173.6321	1208.683	1233.581	1258.9801	1288.428	1356.8608	1365.9303	1385.3747	1398.5917	1412.9801	1453.7557	1478.2459	1483.5506	1498.6387	1799.2999	2973.0823	3034.2453	3045.0532	3107.5117	3120.1536	3125.4646	3130.341	3143.4109	3181.0208	3236.0764
CC1CC(=O)C2CC2O1	C[C@H]1CC(=O)[C@H]2C[C@H]2O1	
InChI=1S/C7H10O2/c1-4-2-6(8)5-3-7(5)9-4/h4-5,7H,2-3H2,1H3	InChI=1S/C7H10O2/c1-4-2-6(8)5-3-7(5)9-4/h4-5,7H,2-3H2,1H3/t4-,5+,7+/m0/s1
