23
gdb 102573	2.18846	1.16741	0.88132	2.3374	82.72	-0.2398	0.0757	0.3155	1431.4891	0.203154	-425.400496	-425.389634	-425.38869	-425.436776	39.303	
C	-0.2277774262	 1.0783211633	 0.6652564055	-0.38636
C	-0.1158797654	-0.3232895289	 0.0619695609	-0.173582
C	 0.7131029008	-0.3581917004	-1.2260053799	 0.108178
O	 2.0272407317	 0.0566500966	-0.8718596762	-0.252993
C	 2.8096284806	 0.5492855772	-1.9386161738	-0.234605
C	 0.7260058728	-1.7474872486	-1.8436813536	-0.019552
C	-0.4818558582	-2.2499694045	-2.6139471312	-0.335779
C	 0.8142999097	-1.9712707	-3.3268959432	 0.079121
O	 0.919648941	-0.8363433634	-4.1404381225	-0.41819
H	 0.7645355031	 1.4842067254	 0.8756758693	 0.131858
H	-0.7334180894	 1.7654200183	-0.0231136979	 0.105799
H	-0.7994380767	 1.0624028324	 1.5983511955	 0.105204
H	 0.3492155975	-1.0054250722	 0.7848343418	 0.098585
H	-1.1115464449	-0.7254107589	-0.1562094724	 0.093286
H	 0.2875577687	 0.3500592745	-1.9542820122	 0.069884
H	 3.7718134561	 0.8468230191	-1.5127050593	 0.113832
H	 2.9788343883	-0.2009026371	-2.7207551175	 0.121221
H	 2.342728007	 1.4268949566	-2.4105292811	 0.102309
H	 1.2439845313	-2.4778255602	-1.2274850387	 0.091647
H	-0.8102380225	-3.2749259205	-2.4803139141	 0.111271
H	-1.2818307059	-1.5344602101	-2.7800960443	 0.113495
H	 1.4011885016	-2.8248483489	-3.6661500388	 0.086428
H	 0.4002288491	-0.9913869996	-4.9361964663	 0.288942
55.0322	84.6189	103.0791	135.3104	179.2032	198.4435	234.5251	260.3107	283.3921	307.2892	394.0988	422.2799	470.7942	491.0843	597.89	760.236	786.2204	845.9839	863.6704	911.9106	943.3432	1004.2465	1019.2115	1043.0847	1059.7011	1102.1837	1126.8299	1137.4096	1146.424	1171.0507	1177.1374	1188.1315	1228.3171	1236.2426	1278.7928	1301.2708	1312.4279	1352.7543	1390.0321	1403.9446	1410.68	1424.6509	1476.6172	1482.1202	1486.7811	1490.3435	1495.486	1505.2333	1511.4232	2984.2682	2991.1817	3030.0303	3034.0319	3055.9129	3070.8771	3096.2101	3097.2549	3107.5799	3124.7245	3126.5879	3144.8531	3213.1151	3806.385
CCC(OC)C1CC1O	CC[C@@H](OC)[C@H]1C[C@H]1O	
InChI=1S/C7H14O2/c1-3-7(9-2)5-4-6(5)8/h5-8H,3-4H2,1-2H3	InChI=1S/C7H14O2/c1-3-7(9-2)5-4-6(5)8/h5-8H,3-4H2,1-2H3/t5-,6+,7+/m0/s1
