23
gdb 120166	3.03789	1.0617	0.92331	0.8792	87.81	-0.2508	0.0861	0.3368	1399.5395	0.205399	-388.233525	-388.224105	-388.223161	-388.268015	35.569	
C	 0.9026892987	 1.3079314473	-0.0996116587	-0.221669
O	 0.9927513164	-0.0776474708	-0.3205734066	-0.231304
C	-0.098625503	-0.5902204454	-1.06510399	-0.123815
C	 0.0744798801	-2.0927755748	-1.1588841352	 0.014348
C	-0.6818235932	-2.9457108383	-2.2226043103	-0.074215
C	 0.2987389269	-2.4070676917	-3.3029233487	-0.267435
C	 1.1893089418	-2.7336993117	-2.0602406793	 0.347435
C	 2.6777160436	-2.557599081	-1.9208554097	-0.507856
C	 0.3687754101	-4.0586580867	-1.9479849163	-0.257169
H	 0.8890024477	 1.8754842885	-1.0443128768	 0.100765
H	-0.0031152888	 1.5738765539	 0.4690418311	 0.101479
H	 1.7812998845	 1.6071035201	 0.4776074397	 0.124989
H	-1.0489564301	-0.3564445061	-0.5529148889	 0.082015
H	-0.1430008151	-0.1032095538	-2.0510228687	 0.085585
H	 0.0450232389	-2.5115450128	-0.1460567665	 0.064366
H	-1.7614487389	-3.0726090058	-2.3156737238	 0.065945
H	 0.4477708536	-3.0470539414	-4.1778101767	 0.085245
H	 0.2082922328	-1.3625039713	-3.6059134359	 0.088703
H	 2.9514577926	-1.5002618012	-1.9860254995	 0.12659
H	 3.0247230124	-2.9283310561	-0.9502207626	 0.117893
H	 3.215527607	-3.1043198811	-2.7036208883	 0.109421
H	 0.3380853352	-4.5343169748	-0.9629560237	 0.084839
H	 0.5187660869	-4.7931759251	-2.7445162748	 0.083847
69.4127	90.6267	113.8407	194.9435	230.5857	257.1313	300.1236	338.1865	376.9893	406.0271	568.3642	607.1807	639.0755	755.7196	787.4398	851.2103	904.7087	907.4844	957.7729	983.4239	996.7605	1013.409	1024.0939	1057.8018	1088.5573	1114.0664	1140.5739	1150.2177	1165.9736	1176.2262	1187.312	1201.0473	1217.8604	1227.668	1235.0801	1249.0769	1270.4156	1322.2762	1389.9164	1410.1706	1443.3159	1480.5974	1485.2309	1486.2331	1490.5977	1497.3983	1507.9673	1525.4666	1548.5936	2946.8969	2965.8558	2995.7126	3006.9214	3028.3653	3037.9372	3043.449	3055.4722	3092.9753	3100.0836	3106.7105	3107.0866	3109.9562	3118.1684
COCC1C2CC1(C)C2	COC[C@H]1[C@H]2C[C@]1(C)C2	
InChI=1S/C8H14O/c1-8-3-6(4-8)7(8)5-9-2/h6-7H,3-5H2,1-2H3	InChI=1S/C8H14O/c1-8-3-6(4-8)7(8)5-9-2/h6-7H,3-5H2,1-2H3/t6-,7-,8+/m0/s1
