16
gdb 27072	3.08027	1.26229	0.89973	6.0147	76.12	-0.1898	0.0244	0.2141	1222.4644	0.126444	-434.120149	-434.111765	-434.110821	-434.153283	31.34	
N	-0.1338564182	 1.4051987314	 0.0038185149	-0.620181
C	-0.0375328215	 0.0002578388	-0.0131852524	 0.14128
C	-1.0756493345	-0.9099073022	 0.0035983455	 0.363579
N	-2.4159906646	-0.5106460301	 0.0415724887	-0.406496
C	-3.5117009895	-1.3171703236	 0.06036235	 0.140646
O	-3.506544694	-2.5307424019	 0.0473715443	-0.322481
C	-0.5253205504	-2.2225417117	-0.0236857773	-0.24627
C	 0.8419434149	-2.0733273542	-0.0569022033	-0.079245
N	 1.1350595214	-0.734662936	-0.0504493701	-0.283088
H	 0.2897890641	 1.8325807438	 0.8211344118	 0.242084
H	 0.2479667056	 1.8496278875	-0.8249333145	 0.242082
H	-2.5571984509	 0.4897409443	 0.0554989742	 0.251865
H	-4.4436299314	-0.7179936628	 0.0900502682	 0.069034
H	-1.0856331975	-3.14017592	-0.018938941	 0.134442
H	 1.6248941087	-2.8137063839	-0.0844061043	 0.1201
H	 2.057395418	-0.3369588194	-0.0697158348	 0.252648
67.6893	164.0646	196.0593	237.9587	251.4146	269.4476	376.4016	416.2165	452.9499	609.9179	626.6433	648.1401	684.1149	715.1725	725.0267	754.564	853.9907	872.8349	922.5014	1012.9067	1057.8033	1104.2473	1167.5588	1177.8061	1200.8377	1250.3047	1335.9701	1431.0651	1432.4028	1487.6031	1511.8149	1531.7585	1640.7067	1685.7405	1798.5493	2932.2082	3265.0351	3305.3393	3488.1046	3553.5297	3601.0208	3685.2104
NC1=C(NC=O)C=CN1	Nc1c(NC=O)cc[nH]1	
InChI=1S/C5H7N3O/c6-5-4(8-3-9)1-2-7-5/h1-3,7H,6H2,(H,8,9)	InChI=1S/C5H7N3O/c6-5-4(8-3-9)1-2-7-5/h1-3,7H,6H2,(H,8,9)
