17
gdb 67675	2.61344	1.85549	1.35758	2.7108	72.06	-0.2375	0.004	0.2415	963.3833	0.137178	-421.829656	-421.822349	-421.821405	-421.861225	29.078	
O	 0.2090066436	 1.3823280337	-0.2809664042	-0.456018
C	 0.1715871458	 0.0264607938	-0.136121654	 0.311001
C	-0.2667428318	-0.8654149655	-1.2712766841	-0.093683
C	 0.5502131169	-2.1240064902	-1.5763192086	-0.2442
C	 0.4665833242	-2.9578536547	-0.2674656923	-0.21833
C	-0.103858684	-1.9766055814	 0.7742705472	-0.15863
C	-1.0373373628	-1.0157904911	 0.0013385073	-0.166558
C	 0.7902488268	-0.7290752056	 0.9763801412	 0.329183
O	 1.4604546303	-0.332466911	 1.8992989277	-0.3668
H	 0.4307888503	 1.7487658608	 0.5862414944	 0.303497
H	-0.7167229381	-0.3014092526	-2.0825624455	 0.108292
H	 0.1201207039	-2.6649239545	-2.4244401988	 0.106837
H	 1.58180948	-1.8719571341	-1.8394232376	 0.114334
H	-0.2163758465	-3.8049115987	-0.3892499935	 0.10616
H	 1.4364254728	-3.3593386201	 0.0389055409	 0.115534
H	-0.4588013212	-2.4207085735	 1.7033750176	 0.093028
H	-2.0760970402	-0.7895724651	 0.1901848023	 0.116352
112.1706	198.4326	231.7584	253.3501	403.865	413.3756	452.6281	558.1889	634.5555	666.4874	708.2334	772.5544	804.9255	844.3294	866.6247	885.4837	902.5351	923.8402	946.3009	992.42	1036.5935	1048.521	1076.6204	1139.6729	1172.0967	1209.2246	1219.0842	1235.5188	1264.0451	1291.0634	1328.7619	1350.4021	1391.284	1462.8957	1488.7931	1506.6772	1830.5085	3046.6981	3056.6453	3086.6688	3104.7332	3131.6108	3170.777	3236.2136	3757.124
OC12C3CCC(C13)C2=O	O[C@]12[C@H]3CC[C@H]([C@@H]13)C2=O	
InChI=1S/C7H8O2/c8-6-3-1-2-4-5(3)7(4,6)9/h3-5,9H,1-2H2	InChI=1S/C7H8O2/c8-6-3-1-2-4-5(3)7(4,6)9/h3-5,9H,1-2H2/t3-,4+,5-,7-/m1/s1
