20
gdb 30251	2.53877	1.55992	1.03248	1.8632	88.33	-0.1913	0.0558	0.2471	1204.4537	0.171689	-366.02585	-366.016981	-366.016037	-366.059971	32.842	
C	-0.3838225812	 1.4699518187	 0.0723687563	-0.394881
C	-0.018154815	-0.0104225146	 0.0346933928	-0.159197
C	 1.147761216	-0.4244422873	-0.9546641507	-0.186398
N	 1.8928117548	-0.8599708245	 0.2340716469	 0.014319
C	 2.9228529708	-1.5122287719	 0.8482638086	-0.162595
C	 2.561738309	-1.5819432689	 2.1856921384	-0.208302
C	 1.2688746535	-0.9847085574	 2.3805416967	 0.062888
C	 0.5157199794	-0.8681014833	 3.6717301113	-0.501252
C	 0.9058540792	-0.5540068173	 1.1218238762	 0.290651
H	 0.5081207646	 2.090907059	 0.2031721632	 0.122712
H	-0.8858570003	 1.7757186539	-0.8522336955	 0.113484
H	-1.0622168347	 1.6797655015	 0.9053876257	 0.124604
H	-0.9174124352	-0.6157971578	-0.1244715734	 0.088894
H	 0.9064477152	-1.2335637222	-1.650797062	 0.120854
H	 1.6174913411	 0.4021040478	-1.4976441678	 0.117231
H	 3.8093576077	-1.8436609304	 0.3326601811	 0.114776
H	 3.1728296576	-2.0115330259	 2.9674302549	 0.086115
H	 1.0251159816	-0.2120422344	 4.3883182821	 0.121854
H	-0.4852085306	-0.4571615554	 3.5094244395	 0.112745
H	 0.3958318363	-1.8416885396	 4.1611531859	 0.121498
58.8213	81.2687	117.8743	191.7833	240.0944	264.3196	323.1407	420.6614	511.8236	605.8356	620.3012	668.8214	694.668	714.234	771.8229	788.5008	841.4186	915.1405	977.8452	1013.8236	1058.8981	1064.1728	1083.6418	1084.5297	1126.0111	1153.488	1176.2228	1226.5922	1237.3026	1273.5884	1329.93	1353.2119	1403.8272	1413.4485	1419.8067	1449.9514	1470.8642	1484.9344	1492.9961	1496.0336	1501.2307	1518.7835	1626.3911	3020.2432	3030.5476	3039.4141	3042.9087	3066.836	3093.2439	3098.9649	3100.1841	3108.5483	3226.499	3267.417
CC1CN2C=CC(C)=C12	C[C@H]1Cn2ccc(C)c12	
InChI=1S/C8H11N/c1-6-3-4-9-5-7(2)8(6)9/h3-4,7H,5H2,1-2H3	InChI=1S/C8H11N/c1-6-3-4-9-5-7(2)8(6)9/h3-4,7H,5H2,1-2H3/t7-/m0/s1
