16
gdb 83577	2.73409	1.79129	1.70642	1.9889	63.02	-0.2541	0.0113	0.2654	869.9513	0.127	-475.031071	-475.024195	-475.023251	-475.06208	27.158	
O	-0.1186876426	 1.4051363688	 0.0362252092	-0.437688
C	 0.0036867618	 0.00057868	 0.0061778215	 0.068587
C	 0.4712253381	-0.5921111968	 1.3453515312	 0.180509
O	-0.5761984339	-0.3923753772	 2.2339729307	-0.257774
C	-1.8111465016	-0.2969727533	 1.4756051412	-0.076287
C	-1.3935549206	-0.6307221091	 0.0387518025	-0.03401
N	-1.269925203	-2.0886709152	-0.1274794323	-0.274798
C	-0.2544490542	-2.616796372	 0.4163267792	 0.124718
O	 0.7203485575	-2.0083254583	 1.1414987012	-0.243205
H	 0.758627122	 1.7910753019	 0.1267173751	 0.29046
H	 0.6069881585	-0.3516031843	-0.8385881778	 0.09003
H	 1.395645913	-0.1989171669	 1.7712000593	 0.095647
H	-2.5288154175	-1.0155087162	 1.8774819105	 0.122246
H	-2.2038620303	 0.7200517525	 1.563762684	 0.122363
H	-2.072794371	-0.2262370575	-0.712005442	 0.096256
H	-0.0655159362	-3.6851969365	 0.3397975466	 0.132947
179.3608	220.0376	254.5668	305.813	328.802	406.7419	500.9596	528.7052	607.6891	774.879	785.2295	851.3545	887.5997	906.2391	925.6837	948.6043	970.1122	1001.3449	1033.4238	1083.7862	1088.6714	1137.6128	1154.731	1187.1124	1221.6167	1267.7673	1312.3505	1315.5721	1341.3067	1354.0098	1388.0413	1395.0663	1428.5735	1504.4048	1710.4886	3044.3	3060.2417	3112.3533	3115.7345	3119.572	3171.4328	3814.7578
OC1C2OCC1N=CO2	O[C@H]1[C@H]2OC[C@@H]1N=CO2	
InChI=1S/C5H7NO3/c7-4-3-1-8-5(4)9-2-6-3/h2-5,7H,1H2	InChI=1S/C5H7NO3/c7-4-3-1-8-5(4)9-2-6-3/h2-5,7H,1H2/t3-,4+,5-/m0/s1
