17
gdb 70954	1.91733	1.7077	0.95368	4.2405	78.47	-0.2447	-0.0575	0.1872	1207.1167	0.135003	-421.892279	-421.883863	-421.882919	-421.925686	31.218	
C	 0.4194913404	 1.6708032814	-0.1406198462	-0.47219
C	 0.5623599331	 0.1920197711	 0.0708247687	 0.301077
C	-0.4205650108	-0.6755139834	-0.6806840897	-0.398832
C	-0.5289637111	-2.0910398005	-0.1252888555	 0.37221
C	 0.7926065608	-2.7096209999	 0.2806162741	-0.410512
C	 1.658834313	-1.7715103086	 1.1299353675	 0.369953
O	 2.4436200125	-2.2106242596	 1.9436638997	-0.32506
C	 1.4952264942	-0.3293681663	 0.8857301007	-0.246895
O	-1.587601537	-2.6578827143	-0.0156453044	-0.296269
H	 1.1815492899	 2.2349494676	 0.4009939346	 0.137908
H	 0.4928447466	 1.918576421	-1.2070610375	 0.138588
H	-0.5692217263	 2.0135790098	 0.1888670682	 0.144235
H	-1.4193081795	-0.2276703337	-0.6912222302	 0.13842
H	-0.1053833407	-0.7459103955	-1.7338319897	 0.144557
H	 0.6424438238	-3.6583911451	 0.796897519	 0.14869
H	 1.3625111004	-2.9057063138	-0.6402098405	 0.147472
H	 2.1812663511	 0.3117069099	 1.4310810212	 0.106647
84.7139	97.4948	148.8623	200.0952	293.6143	380.2461	395.6552	428.4962	473.291	528.3251	555.1909	591.645	607.7871	798.4953	837.1508	882.8629	914.4283	925.5563	991.5341	1025.3334	1052.3313	1118.0072	1147.3329	1194.8488	1212.3142	1245.7183	1284.1178	1304.259	1361.6505	1410.4793	1430.0343	1444.3667	1476.0957	1481.0442	1690.2857	1776.4381	1832.0427	2997.7413	3015.312	3023.5049	3072.5181	3082.5918	3128.1535	3136.5033	3181.0198
CC12CC3(CC(=O)C13)O2	CC1=CC(=O)CC(=O)C1	
InChI=1S/C7H8O2/c1-6-3-7(9-6)2-4(8)5(6)7/h5H,2-3H2,1H3	InChI=1S/C7H8O2/c1-5-2-6(8)4-7(9)3-5/h2H,3-4H2,1H3
