19
gdb 111220	3.12521	1.07486	0.92228	2.7839	73.08	-0.236	0.069	0.305	1336.0779	0.156803	-460.057781	-460.048669	-460.047725	-460.092309	32.715	
C	 0.2790965122	 1.3396825113	 0.1065527139	-0.242954
O	-0.2171357954	 0.0566212599	-0.209871479	-0.247242
C	 0.4526175288	-0.5462508582	-1.2633123051	 0.187577
C	 1.7255088902	-1.4097168805	-0.9764055484	-0.058659
O	 0.8726253058	-2.3996588176	-0.2905170101	-0.305684
C	 0.1064307078	-2.0315774925	-1.5021548713	-0.063068
C	 1.4223794386	-2.2037070322	-2.2927310128	 0.144139
O	 1.5131036013	-1.6207326309	-3.5526854885	-0.246004
C	 2.810020163	-1.6985317259	-4.1120333192	-0.240626
H	 1.3169774422	 1.3005972238	 0.4690046768	 0.10825
H	 0.240761284	 2.0152896061	-0.7621109491	 0.106179
H	-0.3547697899	 1.7442092913	 0.8985282743	 0.132035
H	 0.5012948714	 0.0938781873	-2.1529333509	 0.085572
H	 2.6739043441	-1.1519027243	-0.5049263135	 0.091401
H	-0.8647006722	-2.5017119548	-1.6533969157	 0.099329
H	 1.8125057253	-3.2275604441	-2.2582797212	 0.091276
H	 2.7552569364	-1.2701962861	-5.1149909543	 0.132998
H	 3.5451267847	-1.1326966292	-3.5216081183	 0.111355
H	 3.1529449517	-2.7411044635	-4.1861483578	 0.114124
73.1767	77.6425	151.0072	167.5958	184.7703	216.6289	307.3377	339.4813	415.7795	459.37	574.4995	656.9143	784.3727	833.6827	863.8989	904.62	930.4209	958.1823	1037.8979	1056.4037	1073.75	1121.6765	1129.9015	1152.8651	1169.2954	1182.123	1183.8416	1202.623	1225.8474	1237.0739	1243.1989	1262.8279	1286.218	1370.2588	1415.0404	1483.5342	1484.3104	1489.4524	1490.7902	1507.773	1508.7681	2977.6916	2985.8858	3026.8619	3036.7585	3037.5539	3051.8924	3119.0222	3121.7729	3123.9275	3132.38
COC1C2OC1C2OC	CO[C@H]1[C@H]2O[C@@H]1[C@H]2OC	
InChI=1S/C6H10O3/c1-7-3-5-4(8-2)6(3)9-5/h3-6H,1-2H3	InChI=1S/C6H10O3/c1-7-3-5-4(8-2)6(3)9-5/h3-6H,1-2H3/t3-,4-,5-,6+
