20
gdb 23035	3.44066	1.00777	0.85807	0.4995	84.02	-0.2392	0.0134	0.2526	1389.3076	0.170263	-403.125272	-403.115963	-403.115019	-403.160058	34.417	
C	-0.0070974847	 1.5151798102	 0.0259175487	-0.471635
C	 0.0084993087	 0.0093941779	 0.0802126732	 0.354737
N	 0.0857410811	-0.651909103	 1.1695381626	-0.168812
O	 0.1347383628	 0.1970272777	 2.2904894709	-0.403526
C	-0.0582914199	-0.7614599591	-1.2222253475	-0.107194
C	 0.0464805647	-2.3042188763	-1.1185111899	-0.22541
C	-0.8773211074	-2.8609221037	-2.2304789995	-0.26073
C	-1.8031170221	-1.7030730809	-2.5151917319	-0.064316
C	-1.3669406534	-0.567098445	-1.976943043	-0.068316
H	 0.8452834767	 1.9224066102	 0.5780824267	 0.147149
H	 0.0253729832	 1.8786181834	-1.0031322229	 0.116917
H	-0.9067084971	 1.9081199698	 0.511413586	 0.146694
H	 0.2085387036	-0.4330440851	 3.01467993	 0.304042
H	 0.7588384294	-0.3630714294	-1.8483717988	 0.08659
H	 1.0778303011	-2.6546306565	-1.2020696584	 0.095429
H	-0.3217946535	-2.6108079245	-0.1378488021	 0.127765
H	-0.314693473	-3.1323273867	-3.1354373019	 0.103306
H	-1.4085086367	-3.7673943534	-1.9190038539	 0.103031
H	-2.6952154105	-1.7995686585	-3.1248386603	 0.091415
H	-1.8440822929	 0.4014826731	-2.076400648	 0.092864
54.4826	78.8228	100.0366	167.6682	219.3876	300.9746	333.6529	395.5284	399.0204	439.5258	532.9115	591.2049	684.2698	749.1298	770.6555	830.3544	855.828	920.6148	927.8415	970.9315	979.6442	1015.092	1020.1408	1027.8134	1053.9305	1086.6022	1132.8549	1173.9257	1221.1266	1229.6957	1273.4903	1295.1425	1319.0344	1347.7883	1382.9645	1396.7164	1400.7437	1475.6201	1484.4492	1485.3179	1501.586	1684.7571	1730.9145	2947.8922	3004.5271	3043.2161	3053.3843	3077.7701	3102.0065	3125.404	3132.1981	3179.8605	3206.1043	3822.2988
CC(=NO)C1CCC=C1	CC(=NO)[C@H]1CCC=C1	
InChI=1S/C7H11NO/c1-6(8-9)7-4-2-3-5-7/h2,4,7,9H,3,5H2,1H3	InChI=1S/C7H11NO/c1-6(8-9)7-4-2-3-5-7/h2,4,7,9H,3,5H2,1H3/t7-/m1/s1
