19
gdb 99654	2.46308	1.25327	0.9084	2.4173	78.77	-0.2584	0.0311	0.2895	1317.4745	0.155257	-422.951348	-422.94115	-422.940206	-422.98714	36.168	
C	 0.3656320796	 1.545899685	 0.0459747389	-0.24131
O	-0.1225110153	 0.2574451057	-0.273725613	-0.22066
C	 0.6639302917	-0.4310852846	-1.2201348239	-0.077088
C	 2.0037261338	-0.7534650819	-0.6986450051	 0.325614
C	 3.0968926338	-1.0195172523	-0.2763101063	-0.469576
C	-0.0275097571	-1.7122843415	-1.6827561359	 0.044698
O	-0.6917471573	-2.5216507655	-0.7267269888	-0.246097
C	-1.4742919902	-1.9638407652	-1.796876734	 0.072081
C	-2.5934855485	-1.0179094635	-1.4469266796	-0.429731
H	 1.3653872196	 1.4989480117	 0.4962299974	 0.126886
H	 0.4101830383	 2.1918390239	-0.84453462	 0.105688
H	-0.3335344743	 1.9774178024	 0.765008229	 0.13252
H	 0.7965496634	 0.1957013736	-2.1221386748	 0.097413
H	 4.0605578107	-1.2598218342	 0.1005581957	 0.202805
H	 0.6257591779	-2.2636869237	-2.3641221821	 0.098644
H	-1.7469376007	-2.7102506891	-2.5483531548	 0.085492
H	-2.2896584695	-0.3168938666	-0.672890062	 0.156334
H	-2.9021260651	-0.4582700081	-2.3373815507	 0.114162
H	-3.4611941608	-1.5890706159	-1.0997613298	 0.122124
36.0445	97.5954	126.0589	164.1709	172.2528	192.083	253.2547	258.3481	325.1539	367.7186	419.4748	524.5339	584.762	627.699	680.4982	685.0486	779.4537	833.0648	887.4723	974.0884	991.4693	1030.961	1077.1034	1099.5859	1148.3942	1177.6825	1184.1066	1190.8283	1219.9114	1302.4638	1327.108	1362.3349	1394.1154	1419.1048	1469.2086	1480.5273	1484.8334	1498.4546	1509.8312	1513.1949	2230.5808	2926.716	2985.3093	3037.7355	3053.2455	3063.1255	3079.0552	3092.4514	3127.2782	3183.3194	3501.1603
COC(C#C)C1OC1C	CO[C@@H](C#C)[C@H]1O[C@H]1C	
InChI=1S/C7H10O2/c1-4-6(8-3)7-5(2)9-7/h1,5-7H,2-3H3	InChI=1S/C7H10O2/c1-4-6(8-3)7-5(2)9-7/h1,5-7H,2-3H3/t5-,6-,7-/m0/s1
