25
gdb 114078	3.18321	1.09967	0.98499	0.058	92.75	-0.2846	0.0863	0.3709	1375.6225	0.230404	-352.363924	-352.35485	-352.353906	-352.397233	36.472	
C	-0.0444312602	 1.5820871201	 0.0597071242	-0.381238
C	 0.001724417	 0.0505490243	 0.0924252216	-0.200246
C	-1.3800386463	-0.5980405449	-0.0245765585	 0.062521
C	-2.0811382135	-0.4522149377	-1.4195638584	-0.262196
C	-2.3596240976	-1.9381287141	-1.7431895481	 0.356957
C	-3.0753689032	-2.2528535256	-3.0364909251	-0.497167
C	-2.8592358463	-2.4628500158	-0.3589034924	-0.265189
C	-1.4012063019	-2.1412599819	 0.0720069764	-0.03705
C	-0.9948371052	-2.5910299805	-1.3607328486	-0.260121
H	 0.9573594453	 2.0133287765	 0.151710811	 0.109111
H	-0.4791833014	 1.9500887189	-0.875896635	 0.117055
H	-0.6530324007	 1.9751764282	 0.8819993971	 0.111778
H	 0.652970287	-0.3118488836	-0.7129676659	 0.092836
H	 0.4686776543	-0.2757402196	 1.0313903607	 0.089468
H	-2.0172791312	-0.177412755	 0.7641880906	 0.058809
H	-3.0012373524	 0.139538714	-1.3776339722	 0.08841
H	-1.4257174125	 0.0072418721	-2.1686006942	 0.088606
H	-2.5103550938	-1.8861599859	-3.9018173676	 0.112124
H	-3.2166515248	-3.3316208795	-3.1632424137	 0.10963
H	-4.0646193331	-1.7807929501	-3.0662888866	 0.112221
H	-3.6747152571	-1.9236466826	 0.1350723437	 0.080718
H	-3.0717430026	-3.5352568075	-0.3744982053	 0.088052
H	-0.953618428	-2.5860181389	 0.9623064415	 0.051242
H	-1.0108433573	-3.678220265	-1.4756575618	 0.088939
H	-0.0819316546	-2.185070136	-1.8068642535	 0.084731
97.4168	143.2727	169.1601	216.7144	247.7271	290.8511	320.074	377.8886	430.2817	458.3248	523.3631	587.1415	674.4651	775.338	818.8276	823.8176	837.0702	869.0117	923.9527	927.8578	941.7476	959.99	986.0326	996.7599	1033.9146	1040.3801	1061.8551	1064.6807	1089.9672	1132.6477	1162.6685	1175.0677	1196.2724	1223.0829	1242.9668	1256.2921	1257.4484	1284.0265	1293.8674	1310.8885	1346.6524	1359.3743	1396.1125	1411.3323	1412.3251	1483.0381	1489.877	1490.6295	1493.5675	1495.8046	1500.1186	1507.2005	1529.2949	3010.1251	3015.4281	3018.8897	3028.6368	3032.1357	3038.7679	3048.1291	3053.69	3075.8296	3081.3592	3089.6308	3095.4526	3098.4692	3100.5757	3101.9785	3108.0306
CCC1CC2(C)CC1C2	CC[C@H]1C[C@]2(C)C[C@H]1C2	
InChI=1S/C9H16/c1-3-7-4-9(2)5-8(7)6-9/h7-8H,3-6H2,1-2H3	InChI=1S/C9H16/c1-3-7-4-9(2)5-8(7)6-9/h7-8H,3-6H2,1-2H3/t7-,8-,9+/m0/s1
