15
gdb 57249	1.92367	1.59253	1.28175	1.2895	68.45	-0.2512	-0.1088	0.1424	1067.836	0.107373	-457.737304	-457.727568	-457.726624	-457.7719	34.643	
C	-0.5137426734	 1.6936587166	 0.1082002681	-0.401087
C	 0.038567985	 0.2694501182	 0.0576323738	 0.084288
O	 0.8350348408	 0.0815077145	 1.2216605196	-0.446058
C	-1.0362028033	-0.7258408398	-0.0515914127	 0.310526
C	-1.8939725534	-1.5598766145	-0.1721655808	-0.480035
C	 0.9513150587	 0.0815676619	-1.1810127579	 0.286521
O	 1.0416811859	 0.8590094237	-2.0964029655	-0.275577
C	 1.8189069094	-1.1904310873	-1.2316674764	 0.098908
O	 1.8982863467	-2.0030929931	-0.3462367978	-0.233696
H	 0.3161697307	 2.3988426445	 0.1911084503	 0.13602
H	-1.0814257065	 1.9186566872	-0.7953426488	 0.141343
H	-1.1602837575	 1.794111109	 0.9815972072	 0.137342
H	 1.1255570778	-0.8415281517	 1.2222139387	 0.303367
H	-2.6577497996	-2.2931418744	-0.2628516935	 0.211363
H	 2.3783581386	-1.2771629048	-2.1855131143	 0.126774
65.374	113.4272	121.6742	179.4112	210.6231	215.9672	280.7539	288.862	386.9497	432.4625	505.0774	530.9549	558.3979	595.0186	643.8088	657.1394	675.5755	678.957	873.4326	946.2196	1009.2096	1074.7601	1149.1888	1172.7349	1214.4787	1367.0674	1396.1174	1415.3556	1476.1808	1486.603	1811.9227	1815.5327	2224.6375	2939.8164	3065.41	3146.9396	3158.622	3497.0375	3749.409
CC(O)(C#C)C(=O)C=O	C[C@@](O)(C#C)C(=O)C=O	
InChI=1S/C6H6O3/c1-3-6(2,9)5(8)4-7/h1,4,9H,2H3	InChI=1S/C6H6O3/c1-3-6(2,9)5(8)4-7/h1,4,9H,2H3/t6-/m1/s1
