17
gdb 28490	3.18652	1.39941	0.98132	3.2775	81.03	-0.2081	-0.0091	0.1989	1178.8712	0.138377	-414.262402	-414.253919	-414.252974	-414.295543	32.139	
C	 0.0136566888	 1.4816117499	 0.0248324155	-0.459612
C	-0.0060043455	-0.0224816415	-0.0088925496	 0.336171
N	-0.1312323235	-0.6174846104	-1.1931119311	-0.300875
C	-0.1148319188	-1.9596330192	-1.1887141216	-0.063084
C	 0.0053608795	-2.7176371715	-0.040306422	 0.195451
N	-0.0201151243	-4.1258734888	 0.0090985951	-0.613686
C	 0.0929832499	-1.9799407433	 1.1631295875	 0.334348
N	 0.2209990582	-2.6509089802	 2.3623574379	-0.577622
N	 0.0984949225	-0.6525421693	 1.1728168264	-0.349181
H	 0.9706153598	 1.8432086103	 0.4164282985	 0.131431
H	-0.1376607066	 1.8815738824	-0.978053953	 0.131926
H	-0.7661661128	 1.86092232	 0.6927625217	 0.130559
H	-0.2050332361	-2.4507397487	-2.1578286595	 0.09338
H	-0.0350018602	-4.5440967477	-0.9135143667	 0.246282
H	 0.7645058201	-4.5048073757	 0.5302915898	 0.250759
H	-0.2699472084	-3.5338137599	 2.4069468545	 0.25771
H	 0.0774541875	-2.0569413965	 3.1671243367	 0.256043
59.0413	129.7354	222.8304	242.5027	292.7947	305.404	373.5519	445.2196	477.4028	509.9659	533.4622	583.6112	640.1465	689.4694	752.1098	783.7863	800.5566	834.8871	947.5633	969.7781	1015.3507	1064.1614	1130.3686	1132.1834	1256.0981	1298.1579	1309.9723	1384.0528	1400.6565	1445.5472	1476.2785	1480.0717	1504.9172	1599.1747	1621.3729	1644.0506	1660.141	3042.6099	3097.6242	3123.4582	3152.5454	3500.8879	3547.634	3597.3342	3661.9159
CC1=NC=C(N)C(N)=N1	Cc1ncc(N)c(N)n1	
InChI=1S/C5H8N4/c1-3-8-2-4(6)5(7)9-3/h2H,6H2,1H3,(H2,7,8,9)	InChI=1S/C5H8N4/c1-3-8-2-4(6)5(7)9-3/h2H,6H2,1H3,(H2,7,8,9)
