16
gdb 34868	2.6864	1.65224	1.50426	3.1352	67.93	-0.2571	0.013	0.2701	932.5019	0.126314	-437.871453	-437.864369	-437.863425	-437.903002	27.235	
N	-0.1105063333	-1.2452656137	-0.141650597	-0.336674
C	-0.0323188681	-0.0967518231	-0.0366083154	 0.291785
C	 0.023806167	 1.3513912039	 0.0510061789	-0.171874
C	-0.0955197219	 2.1029997636	 1.4086964775	 0.051649
C	 0.6878591345	 1.3947487032	 2.5041525104	-0.080787
O	 1.8372418746	 0.7566212045	 1.9586151577	-0.261937
C	 2.43426003	 1.4268968031	 0.8539894011	-0.080787
C	 1.3711923807	 2.130000287	 0.022810167	 0.051647
O	 0.762977315	 3.145677739	 0.8682433784	-0.294833
H	-0.6665026222	 1.7910300186	-0.6709964653	 0.142803
H	-1.0711046867	 2.4749861908	 1.7282613985	 0.102395
H	 0.9661150524	 2.1432731376	 3.2610709957	 0.11378
H	 0.0970671552	 0.6066996636	 2.9821427955	 0.12833
H	 3.1595696955	 2.1836503779	 1.1884898858	 0.11378
H	 2.9600630273	 0.6594023235	 0.2769151455	 0.128329
H	 1.7380089601	 2.5266982805	-0.9260512644	 0.102394
136.7531	138.097	215.4973	321.6331	356.515	430.9044	495.8242	534.5272	614.4859	664.7263	829.1827	842.1198	863.2134	887.5989	901.8897	991.3129	1004.9081	1026.9724	1029.4445	1072.8417	1123.4073	1126.1344	1164.4463	1224.5916	1245.7231	1264.1344	1317.2691	1324.3279	1336.0954	1368.4749	1369.4688	1418.8444	1482.8739	1493.4041	2357.4852	2997.3192	3003.1768	3081.3892	3082.8982	3097.4479	3099.1298	3109.1191
N#CC1C2COCC1O2	N#C[C@H]1[C@H]2COC[C@@H]1O2	
InChI=1S/C6H7NO2/c7-1-4-5-2-8-3-6(4)9-5/h4-6H,2-3H2	InChI=1S/C6H7NO2/c7-1-4-5-2-8-3-6(4)9-5/h4-6H,2-3H2/t4-,5+,6-
