23
gdb 121565	5.93585	0.39736	0.38549	0.9048	94.41	-0.2407	0.0427	0.2833	2922.4948	0.202728	-388.258005	-388.24626	-388.245316	-388.297998	39.655	
C	-0.0827734753	 1.4844436938	-0.5534518254	-0.385573
C	-0.0567509454	 0.0604050046	 0.0079746493	-0.161007
C	-1.436410109	-0.6042247695	 0.0152522221	-0.150838
C	-1.4027804042	-2.0377982264	 0.5818697689	-0.362292
C	-2.7073991229	-2.6889134156	 0.5928689946	 0.097278
C	-3.7945076261	-3.2060575937	 0.5826371278	 0.05185
C	-5.1094980491	-3.8308155351	 0.6026900972	-0.203486
O	-5.3473907138	-4.5161649857	-0.6135251799	-0.227579
C	-6.6117117621	-5.1347769157	-0.6308330107	-0.217076
H	 0.9148221332	 1.9344401549	-0.5470469659	 0.112356
H	-0.4469506136	 1.495570119	-1.5866690303	 0.116289
H	-0.7434675665	 2.1299978023	 0.0357349406	 0.11524
H	 0.6384181842	-0.5535181681	-0.5802460937	 0.096174
H	 0.3441890432	 0.0760082583	 1.0303920616	 0.094961
H	-2.1371476936	-0.0033763486	 0.6075822651	 0.104191
H	-1.8423765294	-0.6342180018	-1.0029659956	 0.108397
H	-0.7006026026	-2.6450409955	-0.0053293152	 0.129241
H	-0.9972132777	-2.0168320852	 1.6026408738	 0.125478
H	-5.1801725733	-4.5309459579	 1.4542051918	 0.110941
H	-5.887848533	-3.0641205182	 0.7657588149	 0.110294
H	-6.714545005	-5.8827911444	 0.1720771261	 0.102945
H	-7.4289459729	-4.4033182933	-0.5217562159	 0.10279
H	-6.713627635	-5.6365078181	-1.5957259213	 0.129426
11.2664	58.0039	60.9975	97.4571	110.1468	124.8789	219.9464	231.2567	244.8082	286.8711	310.8466	355.621	401.7867	486.7372	543.8905	733.797	789.7626	818.1987	907.2916	931.4558	976.4792	1006.0311	1029.2658	1061.4769	1121.0385	1129.026	1136.8038	1178.339	1182.7663	1220.2547	1241.0912	1255.1239	1277.4824	1312.0581	1328.0025	1359.6278	1394.5765	1411.8061	1413.8311	1469.6421	1477.8488	1484.125	1485.7808	1496.341	1497.6493	1499.7985	1511.8953	1516.9576	2372.8102	2938.6738	2954.626	2965.2373	3006.3811	3008.4987	3011.378	3028.8036	3033.2295	3034.932	3038.9412	3075.9115	3097.3861	3102.1293	3118.0134
CCCCC#CCOC	CCCCC#CCOC	
InChI=1S/C8H14O/c1-3-4-5-6-7-8-9-2/h3-5,8H2,1-2H3	InChI=1S/C8H14O/c1-3-4-5-6-7-8-9-2/h3-5,8H2,1-2H3
