15
gdb 8378	5.13741	1.32739	1.21755	4.8409	63.15	-0.2399	0.0361	0.276	980.3309	0.117732	-399.792699	-399.78506	-399.784116	-399.824735	28.567	
O	-0.0576028604	 1.3930361396	-0.0943784042	-0.416319
C	-0.0080618117	 0.0009842978	-0.0158940267	 0.029406
C	-0.4327477306	-0.7101280467	 1.2659053722	-0.395722
C	-1.3168857163	-0.7037192877	 0.0521970668	 0.406404
C	-2.7138981693	-0.0947500883	-0.1288262623	-0.465371
C	-3.0074757034	-1.3564177513	-0.9859561511	 0.432515
O	-3.9303014638	-1.7802394292	-1.6250694413	-0.356173
N	-1.7404299202	-1.8441262252	-0.7361210575	-0.391121
H	 0.6699580326	 1.7510174009	 0.4258716278	 0.291392
H	 0.7868250486	-0.4728124901	-0.5949143762	 0.088903
H	 0.0884349066	-1.6234663383	 1.5356636849	 0.117227
H	-0.7385786346	-0.0904439741	 2.1030578522	 0.125681
H	-3.3186038775	-0.0143374826	 0.775903346	 0.133108
H	-2.7386988859	 0.8440494673	-0.6833915528	 0.150073
H	-1.2409987241	-2.6378509222	-1.1090616577	 0.249995
64.8161	167.9233	216.9191	281.0949	323.1231	368.0776	444.9255	476.0234	502.5598	560.6364	579.7104	774.3161	811.2999	886.0674	896.0357	953.9708	1004.4651	1016.226	1035.3368	1079.7586	1126.8082	1134.7245	1176.3646	1191.2407	1253.7134	1280.6733	1304.5274	1387.4794	1427.4847	1459.7625	1514.5446	1901.9634	3083.76	3091.7961	3122.7148	3152.2575	3214.5084	3612.6439	3798.2244
OC1CC11CC(=O)N1	O[C@H]1C[C@]21CC(=O)N2	
InChI=1S/C5H7NO2/c7-3-1-5(3)2-4(8)6-5/h3,7H,1-2H2,(H,6,8)	InChI=1S/C5H7NO2/c7-3-1-5(3)2-4(8)6-5/h3,7H,1-2H2,(H,6,8)/t3-,5+/m0/s1
