16
gdb 128399	6.34873	0.82379	0.74088	2.9162	78.92	-0.2043	0.004	0.2083	1485.8556	0.126548	-430.276272	-430.267656	-430.266712	-430.310593	29.942	
C	-0.1305705549	 1.4477692978	-0.0182674132	-0.311746
N	 0.1148815421	 0.0177611568	-0.0232837705	-0.282799
C	 0.7808926935	-0.5964050691	-1.0258610409	 0.111897
N	 1.1876183393	 0.0452016186	-2.061869023	-0.354224
C	 1.747761909	-0.6831881079	-3.0903675134	 0.414701
N	 1.4947880596	-1.9717412822	-3.3366080422	-0.30133
N	 2.2630138142	-2.2076291519	-4.4310362294	-0.184021
C	 2.9098703035	-1.0849549999	-4.7978533409	 0.019413
N	 2.6120494023	-0.0982341073	-3.9803763795	-0.314013
H	 0.7978028111	 2.0206546259	 0.093460512	 0.138904
H	-0.5902491354	 1.7452063899	-0.9638246104	 0.15701
H	-0.8053873749	 1.6896451484	 0.8052389983	 0.120286
H	-0.0373732986	-0.501290477	 0.8232741095	 0.253047
H	 0.9271478027	-1.6718738288	-0.8828895579	 0.118971
H	 2.2482457353	-3.1133390831	-4.869014974	 0.275156
H	 3.5714562612	-1.0364032402	-5.6501581346	 0.138747
56.8197	84.8636	113.5821	138.4035	226.0209	260.2512	392.8361	460.3798	487.6487	490.5733	600.7409	673.4095	793.1739	853.1402	869.6121	982.0336	994.7933	1008.0269	1014.0321	1103.7628	1156.2746	1170.3459	1186.4716	1251.6635	1301.3367	1334.138	1373.8731	1451.9579	1472.0025	1474.6769	1505.8646	1509.6429	1539.7507	1559.625	1713.3585	3031.4217	3077.3951	3099.8292	3139.0968	3252.4174	3667.705	3675.2967
CNC=NC1=NNC=N1	CNC=Nc1n[nH]cn1	
InChI=1S/C4H7N5/c1-5-2-6-4-7-3-8-9-4/h2-3H,1H3,(H2,5,6,7,8,9)	InChI=1S/C4H7N5/c1-5-2-6-4-7-3-8-9-4/h2-3H,1H3,(H2,5,6,7,8,9)
