19
gdb 11125	6.5583	0.97078	0.90629	4.4213	74.51	-0.2381	0.0284	0.2664	1301.3676	0.165248	-365.079259	-365.070452	-365.069508	-365.114166	30.588	
C	 0.1327996058	 1.4282876086	-0.2583971129	-0.383069
C	-0.0357112277	-0.0695549889	 0.0138284413	-0.192146
C	-1.4882228982	-0.4821771341	 0.2172042021	 0.020106
C	-2.3996861264	-0.4881772063	-1.0538618	-0.196107
N	-2.6179719442	-1.9183886881	-0.8329605333	-0.030878
C	-1.7669340965	-2.0117916814	 0.3509858078	-0.195981
C	-3.3285014523	-2.8676213773	-1.4755063026	 0.130411
O	-3.3809025431	-4.0345663691	-1.1410572644	-0.334032
H	 1.1851815261	 1.6881605115	-0.4054298346	 0.119995
H	-0.4119211243	 1.735095197	-1.1582326136	 0.119256
H	-0.2455705079	 2.0271178055	 0.5773323963	 0.118491
H	 0.3889841903	-0.6491513658	-0.8168040821	 0.102861
H	 0.5391937518	-0.3494792459	 0.9058875838	 0.104616
H	-1.9316312932	 0.093047855	 1.0344180304	 0.083636
H	-3.3075333247	 0.1219720902	-0.9933317915	 0.115583
H	-1.8774770491	-0.2546102464	-1.9901251906	 0.112295
H	-0.8926120145	-2.6581518272	 0.2118524901	 0.11931
H	-2.299227958	-2.3316239244	 1.2523381674	 0.121848
H	-3.8683993139	-2.4557147031	-2.3541430035	 0.063805
22.2931	80.586	103.8874	177.4219	215.3704	247.3177	317.7882	378.7094	421.002	540.5284	741.5934	790.6139	814.6999	889.9036	936.6392	953.3375	976.7796	996.5321	1034.8742	1081.3256	1126.2117	1144.8185	1159.7161	1195.0361	1213.7546	1263.1163	1287.6399	1295.3339	1319.669	1349.1368	1386.6968	1407.4132	1414.4409	1454.7326	1485.5874	1501.345	1505.6389	1507.0768	1524.7832	1791.2957	2912.0943	3015.0037	3016.751	3032.1395	3034.7613	3046.7336	3059.4336	3072.5438	3085.5178	3097.9549	3107.8794
CCC1CN(C1)C=O	CCC1CN(C1)C=O	
InChI=1S/C6H11NO/c1-2-6-3-7(4-6)5-8/h5-6H,2-4H2,1H3	InChI=1S/C6H11NO/c1-2-6-3-7(4-6)5-8/h5-6H,2-4H2,1H3
