14
gdb 15107	5.70034	0.83054	0.76505	2.4959	71.66	-0.2493	0.0093	0.2586	1418.1385	0.10723	-341.535706	-341.527574	-341.52663	-341.57031	27.662	
N	-0.1309635918	-0.6800344646	-1.1393141751	-0.298762
C	 0.008996771	 0.1577762151	-0.3574053551	 0.278971
C	 0.1738332482	 1.2242802665	 0.6400569631	-0.473265
C	 1.4134410425	 1.9777288423	 0.4707300239	 0.059356
C	 2.4401264779	 2.5911733561	 0.3326562468	 0.124974
C	 3.6513230778	 3.344467493	 0.1731155739	-0.160538
C	 4.5143546475	 3.1129193066	-1.0256091448	-0.225044
N	 3.759990782	 4.362620666	-0.9008477456	-0.304389
H	-0.698127252	 1.8886487191	 0.5781781587	 0.183182
H	 0.1385824517	 0.7687290584	 1.6382211613	 0.185524
H	 4.1323975107	 3.6474338324	 1.0994417552	 0.122822
H	 5.590793753	 3.2134436887	-0.9229245313	 0.13115
H	 4.1845540388	 2.3649053929	-1.7401232108	 0.132828
H	 2.9259789926	 4.3194628477	-1.4820138804	 0.243191
19.8329	66.453	132.0081	183.776	292.9884	334.0001	374.0151	453.2278	527.6999	590.7511	731.6218	816.3449	873.5099	926.9513	935.0366	960.5698	995.301	1088.5887	1119.3434	1157.0551	1217.8248	1233.9744	1256.8613	1297.5319	1337.3888	1396.9563	1446.8664	1505.6646	2368.1117	2375.131	3024.1372	3054.0294	3118.3501	3142.1116	3210.1325	3504.3572
N#CCC#CC1CN1	N#CCC#C[C@H]1CN1	
InChI=1S/C6H6N2/c7-4-2-1-3-6-5-8-6/h6,8H,2,5H2	InChI=1S/C6H6N2/c7-4-2-1-3-6-5-8-6/h6,8H,2,5H2/t6-/m0/s1
