16
gdb 47326	3.39481	1.1785	0.89495	3.3369	87.07	-0.2397	-0.0587	0.1809	1242.3626	0.124958	-400.743797	-400.735813	-400.734868	-400.776414	30.385	
N	-0.0413533562	 1.2865250061	 0.2318040456	-0.523054
C	 0.0038554657	 0.0436975435	-0.0386874935	 0.390545
O	 1.1920611266	-0.6131721952	-0.1939499058	-0.258332
C	 1.1543759039	-1.8697541663	-0.8812965592	-0.09566
C	 0.1048981461	-2.8095317312	-0.3025466055	-0.313962
C	-1.2232530553	-2.0854578583	-0.2143804155	 0.112583
C	-1.2287736093	-0.7413207895	-0.1251147628	-0.199749
C	-2.4127204281	-2.8564719904	-0.2089018486	 0.211993
C	-3.396129043	-3.5532733661	-0.2088834815	-0.379066
H	 0.9070570548	 1.6667386045	 0.2672529109	 0.221863
H	 0.949494967	-1.6907328118	-1.9453118886	 0.115499
H	 2.1612037528	-2.2821850765	-0.7884989472	 0.12288
H	 0.0151372958	-3.6962036686	-0.9378201623	 0.127723
H	 0.4027443917	-3.1602973241	 0.6938213027	 0.136123
H	-2.1471786224	-0.1736916277	-0.0524597991	 0.128735
H	-4.2736020699	-4.1517020084	-0.2057253095	 0.201878
107.6343	136.252	143.7442	252.3358	326.3483	402.0462	423.2102	482.9624	548.973	574.9024	615.9101	642.7131	645.2129	695.2378	799.8727	856.189	899.5184	926.9288	938.3297	1005.1431	1059.0245	1085.1008	1147.626	1154.2711	1231.2196	1283.6258	1294.7012	1355.024	1371.5297	1435.3408	1467.6516	1507.3529	1659.3996	1713.7432	2218.1699	3018.8884	3033.5502	3086.9209	3110.2283	3227.1703	3465.443	3500.8506
N=C1OCCC(=C1)C#C	[NH]C1=C[C](CCO1)C#C	
InChI=1S/C7H7NO/c1-2-6-3-4-9-7(8)5-6/h1,5,8H,3-4H2	InChI=1S/C7H7NO/c1-2-6-3-4-9-7(8)5-6/h1,5,8H,3-4H2
