23
gdb 102659	2.84558	0.87535	0.74193	1.8438	82.34	-0.2465	0.077	0.3235	1610.9223	0.204288	-425.39739	-425.386781	-425.385837	-425.43398	38.195	
C	-0.0556456151	 1.2250109975	-0.7593908651	-0.245477
O	 0.0518147887	-0.0201730195	-0.0969872963	-0.270916
C	-1.1943296445	-0.6871226737	 0.1451510923	 0.096748
C	-1.0369820037	-2.107899878	-0.4049968232	-0.063519
O	-0.611798404	-2.0956114772	-1.7516893202	-0.426812
C	-1.5319076895	-0.6821010517	 1.6389702828	-0.219986
C	-1.6929042941	 0.700005675	 2.235641386	 0.032747
C	-2.9992638044	 1.4457378858	 2.1036262082	-0.261313
C	-2.5630868516	 0.9119040372	 3.4468063337	-0.279208
H	 0.9609764454	 1.6065458067	-0.8892370893	 0.125105
H	-0.5242592189	 1.1189261082	-1.7484492386	 0.114461
H	-0.6348181771	 1.9541110313	-0.1772432853	 0.114772
H	-1.9885410385	-0.1799661198	-0.4202237505	 0.076974
H	-0.3306647842	-2.6635844947	 0.2341072174	 0.086608
H	-1.9982244406	-2.6311946192	-0.3730280527	 0.105463
H	 0.1749414312	-1.5365805476	-1.7564741825	 0.284702
H	-2.4584479449	-1.2538208392	 1.7849898452	 0.092018
H	-0.7407156383	-1.2235385075	 2.1737838971	 0.10447
H	-0.7921773927	 1.3048862923	 2.191986189	 0.092529
H	-2.974742968	 2.5178575762	 1.941904026	 0.110044
H	-3.8217054873	 0.9430662526	 1.6040912569	 0.109126
H	-3.0937208683	 0.0531146559	 3.8456869427	 0.109866
H	-2.2371653797	 1.6193217193	 4.2013555563	 0.111599
54.4994	64.2209	91.2384	127.8458	142.4824	184.3428	245.7142	306.8486	311.2116	354.0101	401.4064	484.8311	503.8267	575.8523	774.7666	799.1094	818.8915	837.5803	879.5282	926.533	979.426	1012.1695	1056.2056	1067.1035	1078.6521	1083.7845	1100.3884	1147.2514	1151.4514	1166.9885	1183.0864	1200.8582	1203.4243	1224.5589	1238.407	1270.1837	1287.2967	1363.0093	1384.6156	1405.4481	1418.288	1435.4909	1466.3559	1473.0993	1482.6045	1489.7672	1500.9491	1508.1024	1514.4248	2968.7922	2990.5849	3011.0937	3015.5622	3048.2836	3054.6215	3079.5947	3107.9709	3126.1533	3131.2826	3153.2295	3203.703	3219.3494	3783.5319
COC(CO)CC1CC1	CO[C@@H](CO)CC1CC1	
InChI=1S/C7H14O2/c1-9-7(5-8)4-6-2-3-6/h6-8H,2-5H2,1H3	InChI=1S/C7H14O2/c1-9-7(5-8)4-6-2-3-6/h6-8H,2-5H2,1H3/t7-/m1/s1
