15
gdb 48670	3.73636	1.26234	1.11538	2.7292	67.9	-0.2658	-0.0506	0.2152	1072.5863	0.112892	-453.938798	-453.931234	-453.93029	-453.971263	27.905	
N	-0.0806409892	 1.2384809974	 0.293460091	-0.531483
C	-0.0148868326	 0.0302688961	-0.0446144559	 0.441486
O	 1.1331003556	-0.6600190809	-0.3381562866	-0.247352
C	 0.8330069362	-1.9689080223	-0.838911812	-0.169095
C	-0.6596150105	-2.1207537751	-0.613747183	 0.196476
C	-1.1563106214	-1.9238396251	 0.7788980834	-0.284363
N	-1.1743654264	-0.8004893702	-0.1676874737	-0.162693
C	-1.4807718264	-2.8588253192	-1.6141159148	 0.096219
O	-1.0032144785	-3.5382096279	-2.4868292727	-0.249922
H	 0.8511893468	 1.6521955098	 0.311210436	 0.234937
H	 1.0666333549	-2.0277308399	-1.9059296575	 0.146928
H	 1.4428814215	-2.6983071334	-0.29941148	 0.133955
H	-2.1402582299	-2.2857358755	 1.0606475431	 0.14419
H	-0.4128888253	-1.9193349333	 1.5718600183	 0.149337
H	-2.576810575	-2.7349814704	-1.4863811657	 0.101381
83.826	128.8732	190.7532	204.0471	343.4045	369.0975	461.0184	480.0525	669.1566	688.4313	746.6831	782.7663	811.526	859.3548	872.2506	933.7792	977.0455	996.7101	1022.8182	1077.8635	1082.9452	1128.6531	1145.1516	1210.1613	1246.254	1314.0798	1349.3879	1401.4424	1425.0893	1498.6967	1525.8014	1789.0299	1822.0436	2918.0172	3061.437	3107.7826	3114.1547	3209.3905	3504.6771
N=C1OCC2(CN12)C=O	[NH][C]1OC[C@]2(CN12)C=O	
InChI=1S/C5H6N2O2/c6-4-7-1-5(7,2-8)3-9-4/h2,6H,1,3H2	InChI=1S/C5H6N2O2/c6-4-7-1-5(7,2-8)3-9-4/h2,6H,1,3H2/t5-,7?/m0/s1
