12
gdb 20498	9.6756	1.01055	0.92025	4.9998	71.38	-0.2549	-0.0585	0.1963	1187.4353	0.082929	-377.479547	-377.472201	-377.471257	-377.512823	24.771	
C	-0.0746154216	 1.4658390505	 0.0109010699	-0.509589
C	-0.0082888754	 0.0159646011	 0.0027911402	 0.199684
C	 0.0431229532	-1.1890916669	-0.0039289677	-0.042124
C	 0.1093255057	-2.5901716195	-0.0117657002	 0.298432
C	 1.1559781909	-3.4716502163	-0.0224552736	-0.243314
N	 0.6208090519	-4.7314343963	-0.0260668373	-0.108309
N	-0.6382900346	-4.6798089065	-0.0186376457	-0.021388
O	-1.0252430069	-3.310551616	-0.0091604316	-0.21327
H	 0.9283002785	 1.9052914411	 0.0025524816	 0.163523
H	-0.61417372	 1.8383379526	-0.866709369	 0.166121
H	-0.5954550281	 1.8293098148	 0.9034851057	 0.166106
H	 2.2162134963	-3.2903158686	-0.0275487424	 0.144128
23.8097	99.1213	110.0655	293.9361	316.8002	470.9249	478.8431	510.9928	691.7223	704.1307	729.0084	834.6331	955.0918	992.4492	1046.7038	1051.5716	1077.7365	1127.8122	1278.7716	1332.9399	1410.9328	1437.8833	1469.9514	1470.9202	1593.87	2363.2887	3031.7143	3095.0712	3100.0477	3300.8964
CC#CC1=CN=NO1	CC#Cc1cnno1	
InChI=1S/C5H4N2O/c1-2-3-5-4-6-7-8-5/h4H,1H3	InChI=1S/C5H4N2O/c1-2-3-5-4-6-7-8-5/h4H,1H3
