19
gdb 36371	2.31091	1.30408	0.907	3.9677	80.43	-0.243	0.0308	0.2738	1293.3417	0.159018	-382.035066	-382.0262	-382.025255	-382.069646	32.74	
N	-0.4225283395	-1.0663394754	-0.5954113192	-0.309861
C	-0.2811125793	 0.0537883712	-0.3500003774	 0.276689
C	-0.0945491646	 1.4748662613	-0.0497673609	-0.373666
C	 1.374957825	 1.8624191851	 0.0704440634	 0.019884
C	 1.770398834	 3.005773399	 0.9433913655	-0.269874
N	 2.1552654796	 1.6421972067	 1.2835762934	-0.073392
C	 1.5608983103	 1.0243871399	 2.4375499033	 0.062697
C	 1.8814601478	-0.4253511967	 2.6780719406	-0.265331
C	 2.4965653028	 0.6395987668	 3.5530458848	-0.279665
H	-0.5545940964	 2.0590140312	-0.8555554306	 0.157353
H	-0.6458731665	 1.714325374	 0.8639915422	 0.151925
H	 1.9381697913	 1.6832111725	-0.8432904605	 0.111179
H	 2.5722611415	 3.6787903108	 0.6516595036	 0.122735
H	 0.9796995422	 3.4725450158	 1.5314458916	 0.10989
H	 0.5702269004	 1.3712082869	 2.7378475445	 0.072284
H	 1.1044706374	-1.0590229089	 3.0892917772	 0.120261
H	 2.5225633768	-0.9064789472	 1.949294001	 0.130358
H	 3.545548448	 0.8649376267	 3.4017760625	 0.124186
H	 2.1457286092	 0.7435921004	 4.5736425948	 0.112348
47.4524	60.5493	139.8767	182.9244	243.6065	324.7278	361.8204	390.8763	425.716	512.7292	575.1579	703.8507	780.5561	795.3773	838.0079	877.043	914.5017	955.382	962.2596	973.9568	1036.5205	1062.0289	1074.7785	1080.6108	1103.489	1125.5969	1127.2887	1154.5808	1194.6644	1196.1949	1227.6223	1243.0586	1311.5465	1337.4345	1400.0621	1417.2533	1457.459	1459.0764	1496.1736	1512.9881	2363.2683	3047.6634	3066.728	3084.1063	3095.294	3126.6292	3140.9025	3148.7164	3174.1534	3227.1606	3241.3272
N#CCC1CN1C1CC1	N#CC[C@H]1CN1C1CC1	
InChI=1S/C7H10N2/c8-4-3-7-5-9(7)6-1-2-6/h6-7H,1-3,5H2	InChI=1S/C7H10N2/c8-4-3-7-5-9(7)6-1-2-6/h6-7H,1-3,5H2/t7-,9?/m0/s1
