14
gdb 104947	3.04072	0.85257	0.71637	5.2515	77.57	-0.2851	-0.0575	0.2276	1501.4949	0.099296	-436.635931	-436.62705	-436.626106	-436.670518	31.025	
O	 0.1606245086	 1.3098052933	 0.3065147266	-0.400365
C	 0.0344629804	 0.0110305967	-0.2223305537	-0.131722
C	-1.3929450609	-0.5039495569	-0.1156540282	 0.084477
C	-1.654537988	-1.913979843	 0.2478143472	-0.200252
O	-1.7687171361	-0.8881639729	 1.2257237647	-0.252119
C	-2.3966061413	 0.2333793074	-0.839722073	 0.109773
C	-3.214217606	 0.8579229865	-1.472823584	 0.115468
C	-4.146900078	 1.5575101098	-2.1825298528	 0.19907
N	-4.9418392049	 2.1493089872	-2.788601182	-0.329832
H	-0.0888220081	 1.2704812122	 1.2370408429	 0.299664
H	 0.3337171205	 0.069664058	-1.2733068983	 0.130899
H	 0.6909802674	-0.71141496	 0.2845705645	 0.104552
H	-2.5895322591	-2.3754188742	-0.061884108	 0.139041
H	-0.8068752845	-2.5877847542	 0.3638205143	 0.131347
61.8148	87.6	102.4261	196.0759	245.7619	268.9133	319.1823	413.9625	436.3053	507.9557	545.8442	574.4464	594.6262	649.0617	786.6123	899.7173	949.6845	983.5063	1049.499	1091.0732	1130.9538	1175.3453	1210.2178	1289.7375	1345.5573	1406.9238	1420.569	1485.7317	1518.2727	2266.5236	2398.5044	3000.586	3090.8866	3092.4211	3188.6939	3800.9409
OCC1(CO1)C#CC#N	OC[C@]1(CO1)C#CC#N	
InChI=1S/C6H5NO2/c7-3-1-2-6(4-8)5-9-6/h8H,4-5H2	InChI=1S/C6H5NO2/c7-3-1-2-6(4-8)5-9-6/h8H,4-5H2/t6-/m0/s1
