17
gdb 22197	1.6622	1.16761	0.69457	4.7616	72.26	-0.2651	-0.0078	0.2573	1531.6704	0.133195	-455.110105	-455.099908	-455.098964	-455.146688	35.169	
O	-0.4036380119	 1.4283949328	-0.3620913918	-0.422974
C	-0.0964866077	 0.0794529809	-0.0451608598	-0.08984
C	-1.345680438	-0.732589737	-0.3646149724	-0.249876
C	-1.2229480938	-2.2039314129	-0.0945575652	 0.335875
C	-2.391459843	-3.1428221595	-0.365004423	-0.419782
C	-3.5883186798	-2.4953585102	-0.889265122	 0.258084
N	-4.5418453874	-1.9927143205	-1.304788701	-0.30847
N	-0.1193012218	-2.6508374976	 0.3661567975	-0.157939
O	-0.1597272688	-4.0380532407	 0.5653135647	-0.401579
H	 0.3707080688	 1.9644661932	-0.1695141098	 0.288567
H	 0.7528821018	-0.2951084406	-0.633738739	 0.101269
H	 0.1660623065	-0.0412378246	 1.0153531267	 0.101246
H	-2.1927193895	-0.3291964687	 0.205606104	 0.143092
H	-1.6150777054	-0.5790219526	-1.4178249988	 0.143064
H	-2.0657298265	-3.9233532417	-1.0627562059	 0.182926
H	-2.6419543794	-3.6735613663	 0.5611851662	 0.182943
H	 0.7212240657	-4.2246772843	 0.9066231898	 0.313394
32.4105	89.622	100.2667	102.5888	177.7025	256.5754	264.5484	287.0993	370.0147	380.057	394.0079	397.7071	524.6693	586.0302	647.7109	784.9472	819.6623	918.533	985.0413	1004.8335	1033.5058	1078.2386	1084.0079	1194.362	1202.9876	1233.4475	1257.4382	1304.6045	1305.2493	1359.0418	1408.4119	1436.0545	1462.5408	1470.602	1522.6382	1727.3574	2367.3539	2995.8522	3024.1468	3030.1746	3046.5205	3061.6576	3074.6988	3823.782	3837.0192
OCCC(CC#N)=NO	OCCC(=NO)CC#N	
InChI=1S/C5H8N2O2/c6-3-1-5(7-9)2-4-8/h8-9H,1-2,4H2	InChI=1S/C5H8N2O2/c6-3-1-5(7-9)2-4-8/h8-9H,1-2,4H2
