17
gdb 38655	3.24899	1.9563	1.67777	2.1871	70.17	-0.2417	0.0165	0.2582	841.9674	0.141474	-417.989835	-417.984008	-417.983064	-418.019746	24.933	
C	 0.0392962539	 1.5961884427	 0.040323531	-0.210715
C	 1.5596842646	 1.8170940325	 0.0068382036	-0.058135
N	 1.9736221269	 0.8596912239	 1.1028756248	-0.323517
C	 1.5756849064	-0.1848909554	 0.0967251695	-0.078463
C	 2.0563012853	 0.7594999181	-1.0204284911	 0.127739
O	 1.46671837	 0.6377780717	-2.3147860623	-0.246722
C	 0.3148081799	-0.0910539546	-2.3442138364	 0.115416
N	-0.4041023636	-0.4425367581	-1.3653357163	-0.265562
C	 0.0500359606	 0.0316981979	-0.0541409735	 0.029405
H	-0.3820684789	 1.9617744419	 0.9783052414	 0.114191
H	-0.4923378192	 2.0493813651	-0.7980778114	 0.113745
H	 1.9438887233	 2.8361741217	 0.0460044981	 0.075161
H	 2.9937532398	 0.8598828166	 1.162106325	 0.218458
H	 1.9325541262	-1.2052759464	 0.2240297266	 0.081823
H	 3.1384005624	 0.7752445924	-1.161376989	 0.093383
H	 0.0575301617	-0.3518156636	-3.3680371834	 0.127718
H	-0.5368319992	-0.4497176266	 0.7270805335	 0.086075
216.3222	321.8909	383.8649	491.3756	502.0238	561.5468	610.8509	719.6007	796.4472	830.1948	846.1294	871.8867	895.9783	929.1755	956.158	961.7631	981.5439	991.9641	1020.3569	1026.84	1067.0856	1101.8949	1129.3714	1154.459	1168.5575	1197.923	1215.0231	1233.4876	1288.0535	1300.1338	1331.1471	1345.1862	1362.5104	1376.7023	1398.8725	1490.3219	1712.3441	3081.1168	3104.7653	3113.1417	3124.4429	3137.031	3140.2829	3173.1986	3437.0392
C1C2NC3C2OC=NC13	C1[C@H]2N[C@@H]3[C@H]2OC=N[C@H]13	
InChI=1S/C6H8N2O/c1-3-5-6(4(1)8-5)9-2-7-3/h2-6,8H,1H2	InChI=1S/C6H8N2O/c1-3-5-6(4(1)8-5)9-2-7-3/h2-6,8H,1H2/t3-,4-,5+,6+/m1/s1
