19
gdb 42106	2.38991	1.70501	1.09929	1.6363	86.04	-0.2147	-0.0175	0.1972	1117.2263	0.16072	-385.851204	-385.843032	-385.842087	-385.883548	31.787	
C	 0.0141038427	 1.4709219335	-0.0515173595	-0.054739
C	 1.2758297707	 2.3726354105	-0.0107954885	-0.276973
C	 2.0417017993	 2.4852204408	 1.2861345472	-0.035475
C	 2.931365109	 1.5756474304	 1.7258743608	-0.201779
C	 3.0651017145	 0.3621687998	 1.0102942775	 0.177996
C	 2.8619639079	-0.571173763	 0.2690760761	-0.050746
C	 2.0361425067	-1.4294507124	-0.5698559249	-0.335696
C	 0.8202505032	-0.5815716602	-1.0389663416	-0.064014
O	 0.2167788997	 0.0732206641	 0.0589786876	-0.230335
H	-0.6500998677	 1.7261901533	 0.7802782778	 0.110557
H	-0.5234178707	 1.7015672051	-0.9856827494	 0.086786
H	 1.9609596902	 2.0360724488	-0.7987368039	 0.118261
H	 0.9326014642	 3.3724005614	-0.3042408078	 0.097826
H	 1.8889747932	 3.3860187851	 1.8758041449	 0.095635
H	 3.4896040577	 1.7420484716	 2.6420048123	 0.105465
H	 2.5576676378	-1.8255491925	-1.449391685	 0.120376
H	 1.6829524779	-2.2943572657	 0.0050128159	 0.137748
H	 1.1603415577	 0.1382560991	-1.7939007656	 0.101166
H	 0.0830287659	-1.2440765996	-1.5148965838	 0.097941
145.1075	158.1485	176.763	243.4439	288.5037	344.4449	381.3606	390.352	455.1058	563.0249	581.1507	645.7935	741.3979	778.2337	799.4718	831.7983	902.9999	936.9355	977.4355	998.1969	1023.0086	1054.0516	1097.0683	1127.1482	1176.1143	1219.2668	1231.8514	1263.7727	1281.9153	1310.3438	1340.4797	1356.5308	1394.1139	1406.9066	1428.0923	1465.6761	1468.0077	1489.9034	1507.7673	1646.1662	2316.0534	2969.359	2997.351	3023.6675	3029.625	3046.5335	3061.415	3066.9352	3081.152	3152.0537	3176.0123
C1CC=CC#CCCO1	C1C[CH]C=C=[C]CCO1	
InChI=1S/C8H10O/c1-2-4-6-8-9-7-5-3-1/h1,3H,5-8H2/b3-1-	InChI=1S/C8H10O/c1-2-4-6-8-9-7-5-3-1/h1,3H,5-8H2
