20
gdb 22049	2.73365	1.0201	0.95071	2.6905	74.66	-0.249	-0.0029	0.246	1339.5458	0.167066	-477.384238	-477.373462	-477.372518	-477.420012	39.489	
C	 0.1311972272	 1.5260328721	 0.0774402339	-0.487576
C	 0.0345542845	 0.029492437	-0.0181666266	 0.330334
N	-0.0400366948	-0.741690523	 0.9963914182	-0.195009
O	-0.0110338981	-0.0522256776	 2.211567722	-0.401649
C	-0.0111011895	-0.6766597859	-1.365146087	 0.254594
C	 1.210809838	-0.3313110224	-2.2273377465	-0.412527
O	-0.0289958651	-2.0912959927	-1.1954827233	-0.482794
C	-1.3314355169	-0.3173606081	-2.100791536	-0.066966
O	-1.4844896853	-1.1209588592	-3.2475601942	-0.423902
H	 1.1145721311	 1.8174233285	 0.462853425	 0.153184
H	-0.0160866205	 2.0087521762	-0.8888657775	 0.13238
H	-0.608857541	 1.9035447832	 0.7882457441	 0.154168
H	-0.0848635016	-0.7627982976	 2.8577895347	 0.309737
H	 2.1210927564	-0.7054801731	-1.7526248265	 0.122378
H	 1.0956233769	-0.8092790277	-3.2025176926	 0.14061
H	 1.3073998339	 0.7467085348	-2.3839882272	 0.110533
H	-0.1658753748	-2.2485432973	-0.2486981986	 0.286956
H	-2.1674100755	-0.4546575656	-1.3958856106	 0.084481
H	-1.3333620682	 0.7253342722	-2.4341885166	 0.100835
H	-1.3140495165	-2.0223298137	-2.9412487146	 0.290235
49.2113	84.3265	126.7751	163.9761	228.7276	232.2342	277.7355	307.2608	340.669	352.7435	364.2488	395.9736	420.4388	474.8277	496.2217	551.2427	594.5737	680.4766	760.0389	878.1731	925.2567	971.9448	980.5943	1039.066	1050.2708	1089.8792	1122.1392	1146.2964	1185.1709	1239.7301	1277.0147	1357.8499	1391.227	1400.9689	1405.4629	1425.0538	1440.9105	1473.6609	1477.7357	1491.5078	1497.9605	1503.1048	1728.2847	2972.0986	3047.0103	3051.168	3075.6693	3106.2087	3125.0775	3138.656	3149.8786	3692.0003	3756.7158	3818.1597
CC(=NO)C(C)(O)CO	CC(=NO)[C@@](C)(O)CO	
InChI=1S/C5H11NO3/c1-4(6-9)5(2,8)3-7/h7-9H,3H2,1-2H3	InChI=1S/C5H11NO3/c1-4(6-9)5(2,8)3-7/h7-9H,3H2,1-2H3/t5-/m0/s1
