23
gdb 96336	1.92157	1.43917	0.89326	2.8388	81.11	-0.2564	0.0696	0.326	1347.5161	0.207203	-425.436271	-425.426863	-425.425919	-425.470088	36.662	
O	-0.1906929245	 1.480076291	 0.115596712	-0.441641
C	-0.0003527473	 0.0698185087	-0.0019314259	 0.11264
C	 0.807194993	-0.4686454401	 1.1916961164	-0.212254
C	 1.5131213276	-1.8248352117	 0.986877722	-0.199627
C	 0.7606325541	-2.8844223755	 0.1579247572	-0.201907
C	-0.7580077158	-2.9667109346	 0.384130163	-0.210546
C	-1.5565757311	-1.9693085294	-0.470910762	 0.111835
O	-2.9547231476	-2.2378808103	-0.396464582	-0.439072
C	-1.4186779219	-0.50154494	-0.0715512686	-0.161259
H	 0.6750790275	 1.8875285203	 0.2178489323	 0.27552
H	 0.5370850212	-0.1528645187	-0.9405307587	 0.058188
H	 1.5745015708	 0.2727542422	 1.4508958083	 0.079388
H	 0.1362255802	-0.5114711848	 2.0577706077	 0.104548
H	 2.485996709	-1.6560192742	 0.5094090954	 0.095901
H	 1.7379070878	-2.2369057495	 1.9777888035	 0.099275
H	 0.9360009073	-2.7040982827	-0.9108674327	 0.097147
H	 1.214518543	-3.8594275089	 0.3662498823	 0.094887
H	-1.0996959925	-3.9738670876	 0.1086477407	 0.07844
H	-1.0153492694	-2.836368459	 1.4427311837	 0.100975
H	-1.2111654719	-2.0820782724	-1.5144469022	 0.060044
H	-3.0928577677	-3.1547795392	-0.6545615956	 0.276566
H	-1.8969529146	-0.362484225	 0.9056326032	 0.107536
H	-1.9901934372	 0.0970621112	-0.7870691999	 0.113418
95.2878	124.8473	172.3188	244.0923	278.6278	298.6799	299.1182	328.3651	352.0947	400.973	454.5714	487.8924	506.2415	577.0283	745.984	816.5918	859.9636	866.1998	905.0978	951.3464	1016.9472	1034.8194	1039.9911	1045.6932	1060.9238	1096.1896	1111.5448	1135.9333	1194.5049	1211.627	1219.2037	1239.2996	1284.829	1298.7424	1299.8603	1330.1398	1340.9701	1349.2929	1386.0689	1390.5008	1398.713	1406.0355	1438.2678	1443.2743	1482.3188	1485.6906	1490.5501	1501.1019	1508.8527	2931.7324	2944.6964	3007.3745	3012.1892	3018.1857	3028.8341	3040.5454	3045.8675	3055.8787	3060.1348	3073.0575	3093.2368	3815.2442	3817.3826
OC1CCCCC(O)C1	O[C@H]1CCCC[C@@H](O)C1	
InChI=1S/C7H14O2/c8-6-3-1-2-4-7(9)5-6/h6-9H,1-5H2	InChI=1S/C7H14O2/c8-6-3-1-2-4-7(9)5-6/h6-9H,1-5H2/t6-,7+
