21
gdb 40850	4.65196	1.25013	1.15907	0.0495	86.94	-0.2659	0.0939	0.3598	1138.6365	0.184088	-349.866824	-349.859612	-349.858668	-349.898362	29.926	
C	 0.0992513658	 1.4163660584	-0.5806341639	-0.207437
C	 1.3589386577	 1.6930130621	 0.2873937233	-0.304735
C	 1.2611068688	 0.2389995148	 0.8132456543	 0.411088
C	-0.1970126501	 0.1662633204	 0.2947450055	-0.304735
C	 2.30819028	-0.8298895295	 0.4431714506	-0.115103
C	 3.2427743069	-0.4289692476	 1.6387935729	-0.038139
C	 3.348978611	-1.8824096846	 2.1401640341	-0.274626
C	 1.8954122198	-1.7510501293	 1.6451586623	-0.038139
C	 1.7711151848	-0.2742447861	 2.1669168364	-0.140202
H	-0.66544766	 2.1955122105	-0.6178993215	 0.093721
H	 0.3628216349	 1.1428168278	-1.6060226039	 0.100443
H	 2.2779244013	 1.9858256987	-0.2282916274	 0.093347
H	 1.1577674312	 2.4261885093	 1.0758122981	 0.096044
H	-0.9224441347	 0.3850178109	 1.0856404518	 0.096044
H	-0.509650523	-0.7494329039	-0.2151210815	 0.093347
H	 2.6349748441	-1.1676721765	-0.5432540483	 0.063363
H	 4.0033536913	 0.3529192792	 1.62376189	 0.068904
H	 4.0047663978	-2.5534570542	 1.57523687	 0.089163
H	 3.4922669774	-2.0232557289	 3.2166895612	 0.08968
H	 1.0992043014	-2.4967381343	 1.6374823828	 0.068904
H	 1.4784318635	 0.0288873626	 3.1751282033	 0.059068
101.5531	156.6576	231.3717	289.2229	413.6219	464.1383	525.5192	683.825	734.9702	795.2108	808.2747	833.6493	848.961	856.3434	872.6032	885.5684	912.7091	935.3393	959.3871	962.6762	1003.9402	1027.482	1034.4319	1066.9562	1071.3636	1081.2581	1143.1044	1152.9153	1153.1334	1164.6064	1175.4963	1181.2694	1203.1994	1205.4765	1243.6974	1252.6946	1254.0155	1275.4661	1283.1822	1313.5922	1358.6165	1472.0985	1482.2477	1504.7897	1510.3914	3031.4696	3038.8509	3043.0717	3058.6465	3079.5156	3080.2776	3086.5289	3087.6219	3090.869	3099.4223	3107.6195	3114.5432
C1CC2(C1)C1C3CC1C23	C1CC2(C1)[C@H]1[C@@H]3C[C@H]1[C@H]23	
InChI=1S/C9H12/c1-2-9(3-1)7-5-4-6(7)8(5)9/h5-8H,1-4H2	InChI=1S/C9H12/c1-2-9(3-1)7-5-4-6(7)8(5)9/h5-8H,1-4H2/t5-,6+,7-,8+
