19
gdb 89757	2.46792	1.55271	1.14439	1.8516	76.11	-0.2302	0.0624	0.2926	1110.475	0.159806	-419.132414	-419.124022	-419.123078	-419.165301	32.647	
O	 0.5719249726	 0.7313578011	-0.7777690434	-0.433018
C	 0.0704437575	-0.2883713341	 0.0471734357	 0.069349
C	 0.0483620337	-0.0924849932	 1.6014018752	-0.393226
C	-1.3737295638	-0.673215637	 1.6075725701	 0.309046
C	-1.9094960216	-1.7715180899	 2.438154479	-0.30159
N	-2.478122065	-0.4060109362	 2.5201205672	-0.365536
C	-1.4479561045	-0.5342383336	 0.1042988455	 0.254926
C	-2.4744330394	 0.1673503873	-0.6992063146	-0.310523
N	-2.3046744647	-1.2989711376	-0.7865309314	-0.375367
H	 0.0808797267	 1.536675815	-0.579931724	 0.279332
H	 0.6198265183	-1.1926939823	-0.2327007662	 0.100046
H	 0.816100121	-0.6119880335	 2.1788900087	 0.111313
H	 0.0650553962	 0.9723911087	 1.8607735719	 0.100579
H	-2.5669979758	-2.5067530547	 1.9837544242	 0.134756
H	-1.3031156156	-2.1354185687	 3.2641792571	 0.109125
H	-2.1331011893	 0.0628207845	 3.3551076496	 0.228955
H	-3.3922107973	 0.4916116589	-0.2181517123	 0.13615
H	-2.1366678523	 0.7770279097	-1.5342639632	 0.111637
H	-1.7971575866	-1.5384356844	-1.6363258689	 0.234045
73.0096	184.4268	193.3942	225.4858	252.0863	325.519	344.9232	425.5286	493.5776	521.0544	575.7818	630.3518	773.0496	847.1484	858.4879	876.7758	918.53	938.9374	968.0815	977.9567	979.2964	996.7435	1015.5332	1051.579	1110.3921	1118.6285	1132.7452	1153.4776	1195.1856	1241.1756	1255.2129	1265.9524	1267.5788	1291.7046	1315.8844	1380.3943	1430.5227	1448.5599	1478.287	1502.3546	1515.9992	3040.5446	3065.3757	3105.1235	3106.0533	3109.8652	3198.502	3200.2273	3481.7727	3486.9054	3800.8944
OC1CC2(CN2)C11CN1	O[C@H]1C[C@]2(CN2)[C@]21CN2	
InChI=1S/C6H10N2O/c9-4-1-5(2-7-5)6(4)3-8-6/h4,7-9H,1-3H2	InChI=1S/C6H10N2O/c9-4-1-5(2-7-5)6(4)3-8-6/h4,7-9H,1-3H2/t4-,5-,6+/m0/s1
