21
gdb 117928	2.76435	0.7489	0.66267	4.0922	76.01	-0.2624	-0.024	0.2384	1739.0822	0.179272	-461.373437	-461.362339	-461.361395	-461.411031	38.566	
C	 0.1881573452	 1.8407046372	 0.0138490136	-0.395282
C	 0.0069292052	 0.3181596614	 0.1063939128	-0.096185
C	 0.5980037421	-0.4409799442	-1.1050652379	-0.16452
C	-0.1160112222	-0.1569394912	-2.4228002555	-0.087477
O	 0.4462664684	-1.0225597769	-3.3958464518	-0.418545
C	 0.6852773776	-0.2182169555	 1.3583645131	 0.363178
O	 1.7941240851	 0.1332269509	 1.7054082056	-0.339604
C	-0.0561356947	-1.2508002528	 2.1935462419	-0.138326
O	 0.7251919583	-1.7154518176	 3.2505920716	-0.419795
H	 1.2511918022	 2.09120159	-0.0257989843	 0.143552
H	-0.3028195879	 2.2459924293	-0.8742327609	 0.118279
H	-0.24024646	 2.3402138407	 0.8881796496	 0.120915
H	-1.0628879654	 0.077023131	 0.1725975448	 0.080777
H	 1.6600242072	-0.1925116235	-1.2048559264	 0.127084
H	 0.542762059	-1.5224794383	-0.9318810246	 0.113813
H	-1.1980260714	-0.3365860354	-2.3043181758	 0.084971
H	 0.0113091875	 0.8971256147	-2.7105033117	 0.093474
H	 0.0553442256	-0.8131796413	-4.2490568865	 0.288232
H	-0.9871631864	-0.7758271182	 2.5521175718	 0.11414
H	-0.3726735708	-2.0756859833	 1.5337201003	 0.117263
H	 1.5467173755	-1.1999222669	 3.1967347403	 0.294058
32.4397	66.2967	94.8811	100.2306	167.1987	199.1747	236.7476	257.3039	267.6596	308.2116	350.1356	377.1986	435.8553	499.3859	574.4508	697.5772	793.2107	841.6984	883.4866	972.251	980.8714	1028.4718	1042.172	1067.5792	1096.3443	1124.0916	1150.7926	1183.1125	1232.3679	1242.4827	1248.3895	1303.846	1311.1289	1325.2206	1353.642	1383.7937	1409.9849	1451.3486	1460.0212	1487.3325	1488.8348	1496.2434	1505.3	1528.4209	1793.3253	2954.5122	2958.3658	2984.4467	3001.8696	3014.9381	3037.6965	3048.1262	3088.2833	3114.4348	3132.5381	3674.1615	3831.6198
CC(CCO)C(=O)CO	C[C@@H](CCO)C(=O)CO	
InChI=1S/C6H12O3/c1-5(2-3-7)6(9)4-8/h5,7-8H,2-4H2,1H3	InChI=1S/C6H12O3/c1-5(2-3-7)6(9)4-8/h5,7-8H,2-4H2,1H3/t5-/m0/s1
