13
gdb 48221	3.08691	0.74973	0.61943	3.3899	84.49	-0.2544	-0.0741	0.1802	1665.367	0.084218	-419.376861	-419.367268	-419.366324	-419.413304	32.048	
O	-0.0417556597	 0.0129515254	-0.3332035534	-0.215071
C	 0.0158011224	 1.1476020736	 0.0424603679	 0.162923
C	 1.3353792005	 1.9622458629	 0.0576779952	-0.369149
C	 1.3793273311	 2.8281617636	-1.2280448133	 0.162941
O	 1.9749236453	 2.4984557876	-2.2121595135	-0.215109
C	 1.4081039589	 2.7965577843	 1.239577599	 0.423806
C	 1.4373356309	 3.5111967338	 2.2163845332	-0.297444
C	 1.4746152673	 4.311562722	 3.3151951465	 0.301775
C	 1.507262363	 5.0222310098	 4.2904872613	-0.539444
H	-0.8698833296	 1.7085715881	 0.4045336981	 0.112008
H	 2.1573017814	 1.243812006	-0.0105137086	 0.15855
H	 0.8073912962	 3.7759425688	-1.1586075949	 0.111988
H	 1.5371979423	 5.646915854	 5.1489829924	 0.202226
36.7517	49.0115	87.1618	104.4534	215.4315	228.0043	276.5107	386.6962	444.8467	455.0523	512.9875	546.2559	548.0364	606.4422	613.8014	788.4379	842.0841	982.6382	1030.897	1073.3886	1180.6225	1198.0387	1287.9714	1398.2601	1419.3758	1819.8035	1856.1767	2183.5687	2358.8377	2920.7302	2929.7989	3083.6072	3501.8631
O=CC(C=O)C#CC#C	O=CC(C=O)C#CC#C	
InChI=1S/C7H4O2/c1-2-3-4-7(5-8)6-9/h1,5-7H	InChI=1S/C7H4O2/c1-2-3-4-7(5-8)6-9/h1,5-7H
