18
gdb 71671	2.92883	1.99607	1.79405	1.2078	72.46	-0.2223	0.0846	0.3069	859.6068	0.150112	-401.910467	-401.904067	-401.903123	-401.94082	27.197	
C	 0.0510946331	 1.5095273566	-0.0945508555	-0.516138
C	-0.0469951588	 0.0134293182	-0.0168664475	 0.428489
O	 0.4105945391	-0.7023986674	-1.2118776583	-0.333893
C	-0.3332359696	-1.8176544809	-0.6442126333	 0.057609
C	 0.418199697	-2.1493317121	 0.6691856541	-0.059227
C	 0.6383935541	-0.7585557318	 1.14660096	-0.100389
N	-0.3168071048	-1.6421034921	 1.8493137423	-0.131516
C	-1.6685092867	-1.2650200278	 1.3770694332	-0.184015
C	-1.3658189898	-0.8281878339	-0.0352799849	-0.127034
H	 1.0988112788	 1.8219949264	-0.1587705756	 0.1335
H	-0.474047051	 1.8882399902	-0.9752244547	 0.130762
H	-0.384989469	 1.9683592602	 0.7985423241	 0.127117
H	-0.5616913197	-2.6103804457	-1.3542348709	 0.080528
H	 1.0918002266	-2.9862286891	 0.7968414512	 0.097596
H	 1.5031515281	-0.3922504251	 1.6854377374	 0.094284
H	-2.3365098145	-2.1305765805	 1.4393615227	 0.109335
H	-2.0705876059	-0.4657863249	 2.0089477739	 0.108737
H	-2.152709207	-0.4751758104	-0.6973917982	 0.084255
191.6593	237.3105	276.7763	411.7324	520.5002	537.7152	598.3128	677.9514	742.2952	754.1197	789.1593	822.967	850.589	860.2942	869.1276	883.5151	938.8108	963.686	979.907	980.7977	1019.1568	1039.1606	1067.6135	1125.3299	1140.8147	1184.8753	1205.7327	1213.224	1221.397	1238.9345	1261.2147	1290.2565	1305.3197	1328.3485	1385.625	1417.9424	1479.5945	1492.6056	1496.6851	3038.5184	3044.2896	3089.8922	3106.1086	3120.8819	3138.6808	3156.1882	3190.6131	3205.4392
CC12OC3C4C1N4CC23	C[C@@]12O[C@H]3[C@H]4[C@@H]1N4C[C@@H]23	
InChI=1S/C7H9NO/c1-7-3-2-8-4(6(7)8)5(3)9-7/h3-6H,2H2,1H3	InChI=1S/C7H9NO/c1-7-3-2-8-4(6(7)8)5(3)9-7/h3-6H,2H2,1H3/t3-,4+,5-,6+,7+,8?/m1/s1
