19
gdb 87725	2.34418	1.43596	1.27984	2.4304	71.51	-0.2445	0.0635	0.308	1089.6481	0.158235	-460.122637	-460.113731	-460.112786	-460.155977	34.545	
O	-0.1347265313	 1.3054089157	-0.2661291496	-0.431604
C	-0.074405076	-0.0772795385	-0.0471451912	 0.043562
C	-0.4723576477	-0.672995102	 1.2848128266	-0.42736
C	-1.3837743235	-0.7785399429	 0.0948381854	 0.28263
C	-2.7262589513	-0.0936327738	-0.1840558343	-0.338901
C	-2.8389697152	-0.9774398036	-1.4510794024	 0.089195
O	-2.2938785751	-0.371400795	-2.6194959933	-0.452089
C	-1.7874821854	-1.9523430909	-0.8226661497	 0.065456
O	-0.8470661296	-2.4945551013	-1.7003490906	-0.433446
H	 0.6484250095	 1.7103414453	 0.1207777405	 0.292333
H	 0.6926732746	-0.6036572407	-0.6148700893	 0.098724
H	 0.0552380064	-1.5573533416	 1.6296104154	 0.118188
H	-0.7705273938	 0.0192173122	 2.0667044056	 0.113125
H	-3.4926015864	-0.3372587281	 0.5578039448	 0.109731
H	-2.7131314849	 0.9876542448	-0.3426605585	 0.11974
H	-3.8147243092	-1.3825524951	-1.7271856823	 0.081653
H	-1.7432284047	 0.3722141675	-2.3461643923	 0.303373
H	-2.2582904268	-2.7676324653	-0.2620218591	 0.082055
H	-0.8621403595	-1.9058889968	-2.4709085658	 0.283636
70.2308	139.177	208.9484	222.9112	269.3025	291.994	330.772	396.6165	423.3149	489.0142	510.8255	555.1245	584.7996	660.7687	779.935	822.2565	843.3743	857.8279	878.1996	950.6381	999.6852	1021.3289	1037.2463	1073.7184	1098.6506	1125.8727	1151.8336	1166.5845	1178.2619	1225.0924	1236.5164	1267.6098	1285.3926	1316.7169	1339.8602	1345.2658	1413.5313	1427.7316	1440.8429	1482.61	1494.8918	3047.8101	3056.8274	3091.1454	3107.8376	3112.1588	3117.5512	3206.5813	3703.65	3790.0141	3808.141
OC1CC11CC(O)C1O	O[C@H]1C[C@]21C[C@@H](O)[C@H]2O	
InChI=1S/C6H10O3/c7-3-1-6(5(3)9)2-4(6)8/h3-5,7-9H,1-2H2	InChI=1S/C6H10O3/c7-3-1-6(5(3)9)2-4(6)8/h3-5,7-9H,1-2H2/t3-,4+,5-,6+/m1/s1
