19
gdb 63097	2.58096	1.39476	1.21246	2.3328	75.91	-0.2339	-0.013	0.2209	1109.6735	0.158591	-423.047268	-423.038667	-423.037722	-423.080202	33.339	
C	-0.1749487674	 1.5326059883	 0.1913176618	-0.468624
C	 0.0134137067	 0.0440581786	 0.0113462741	 0.406129
O	-1.0012263431	-0.7139845113	 0.6169587374	-0.4595
C	 0.5262311189	-0.6115752193	-1.220013305	-0.09598
C	 1.2526190928	 0.2302806125	-2.2760612408	-0.248607
C	 2.5150088357	 0.8084110268	-1.5972083675	-0.335909
C	 2.6227895855	 0.140909079	-0.212912378	 0.404316
O	 3.5838401033	 0.2122305481	 0.5144397287	-0.333196
C	 1.3873256085	-0.6565874369	 0.0425666584	-0.237924
H	 0.5839759797	 2.1242711884	-0.3221840309	 0.128591
H	-1.1583242837	 1.8264004451	-0.1895165556	 0.132788
H	-0.131206572	 1.7974257233	 1.2545255131	 0.120266
H	-0.9864749984	-0.5291612096	 1.5631646225	 0.284517
H	-0.0063300661	-1.499534954	-1.5405191956	 0.104985
H	 1.5350534604	-0.420728845	-3.1078038474	 0.1152
H	 0.6045227738	 1.0084811899	-2.6912031326	 0.109435
H	 3.4310017755	 0.589943968	-2.1528766424	 0.133655
H	 2.4904818964	 1.8958006902	-1.4730789957	 0.132291
H	 1.4599969034	-1.5241765121	 0.6861451554	 0.107569
92.3239	159.4753	186.0892	208.724	247.7783	327.5468	392.8964	408.2704	438.9139	489.922	548.5069	603.9666	662.0018	698.7018	790.6509	825.5832	860.8344	903.1314	942.8588	970.9941	1011.2415	1025.6765	1037.4749	1070.3174	1097.7861	1158.908	1164.0228	1190.7036	1242.0103	1259.6833	1265.5303	1284.3968	1323.5262	1340.1383	1420.4061	1445.1864	1458.8	1483.9815	1500.2185	1507.9814	1820.4786	3034.2845	3050.7692	3062.3517	3084.9926	3094.7072	3105.2367	3142.4327	3180.7738	3199.9937	3790.1657
CC1(O)C2CCC(=O)C12	C[C@@]1(O)[C@H]2CCC(=O)[C@@H]12	
InChI=1S/C7H10O2/c1-7(9)4-2-3-5(8)6(4)7/h4,6,9H,2-3H2,1H3	InChI=1S/C7H10O2/c1-7(9)4-2-3-5(8)6(4)7/h4,6,9H,2-3H2,1H3/t4-,6-,7+/m0/s1
