22
gdb 121044	3.23211	0.86683	0.77738	2.4676	82.7	-0.2098	-0.0168	0.193	1569.3613	0.19391	-404.367742	-404.358196	-404.357252	-404.403026	35.238	
C	-0.3684571673	 1.588244029	-0.311442013	-0.381614
C	-0.1105087176	 0.1032129784	-0.0427266342	-0.168991
C	-1.3943241569	-0.7297400274	-0.0903312095	-0.133451
N	-1.1538285702	-2.143915976	 0.215984228	-0.071005
C	-2.3725342848	-2.8899735067	 0.5931749125	-0.185463
C	-2.9911580753	-3.4153475127	-0.7148207967	-0.328024
C	-1.7647232627	-3.6029791603	-1.6121271971	 0.399201
O	-1.7099423611	-4.1957476027	-2.6569796707	-0.305897
C	-0.5900839124	-2.8966166111	-0.9072070063	-0.29541
H	 0.5598826322	 2.1652246074	-0.2679183712	 0.116552
H	-0.8097532037	 1.7443354322	-1.3021760421	 0.116215
H	-1.0580717055	 2.0123918107	 0.4270383176	 0.114691
H	 0.6097831539	-0.2791965824	-0.7764394116	 0.098356
H	 0.3517303821	-0.0356848456	 0.9410326748	 0.106763
H	-2.0863403562	-0.3444427844	 0.6672820394	 0.098988
H	-1.8895638511	-0.5791543575	-1.0700264217	 0.076685
H	-2.0832233752	-3.7332357954	 1.2334911851	 0.108041
H	-3.0427347943	-2.2529195088	 1.1732397979	 0.108783
H	-3.5608610991	-4.3430823606	-0.627612657	 0.129649
H	-3.6449131111	-2.6679733392	-1.1807036753	 0.134452
H	-0.03793537	-2.2652576669	-1.6066529666	 0.132663
H	 0.1059499261	-3.6718755401	-0.5548278125	 0.128816
49.4199	83.2455	112.3783	117.6061	222.0894	235.0831	318.8821	402.0228	420.2171	455.5149	475.4199	583.9291	651.0891	744.9636	755.021	830.4477	843.721	891.9722	901.8964	913.8231	960.1973	1040.4931	1051.2708	1071.5765	1080.8103	1132.4383	1137.7202	1183.6426	1206.0449	1228.106	1268.2357	1284.7111	1290.2633	1331.7098	1338.3223	1347.7965	1361.7235	1410.5674	1420.0862	1447.3096	1458.1412	1488.6805	1496.7326	1499.9079	1505.1563	1514.7086	1852.2275	2905.4213	3006.107	3021.5792	3029.8492	3031.3689	3045.4048	3049.8081	3069.9534	3097.7555	3106.5928	3108.6474	3111.5484	3115.4387
CCCN1CCC(=O)C1	CCCN1CCC(=O)C1	
InChI=1S/C7H13NO/c1-2-4-8-5-3-7(9)6-8/h2-6H2,1H3	InChI=1S/C7H13NO/c1-2-4-8-5-3-7(9)6-8/h2-6H2,1H3
