16
gdb 50300	3.28725	1.46252	1.10963	5.5963	71.3	-0.2463	-0.0231	0.2232	1058.7586	0.126907	-434.077664	-434.070272	-434.069328	-434.109727	28.019	
N	-0.1549333764	 1.2392851587	-0.3638967777	-0.544004
C	-0.0594065678	 0.0024966658	-0.1232580121	 0.446655
C	-1.2052959751	-0.8904816859	 0.2164007865	-0.122185
N	-1.3208200764	-2.029802697	-0.7353632197	-0.330539
C	-0.6639725417	-2.2268005623	 0.5627753974	-0.058096
C	 0.8477164321	-2.168894372	 0.4465095392	-0.18183
N	 1.104006041	-0.8228147002	-0.0938573534	-0.128665
C	 2.3561870939	-0.4257332729	-0.4812206932	 0.161178
O	 2.6571099189	 0.6836727597	-0.8658175791	-0.315252
H	 0.7633638952	 1.6381545841	-0.5634824324	 0.253503
H	-2.0927596561	-0.4536426756	 0.6544020536	 0.11976
H	-2.2727566898	-2.3872541771	-0.6905537297	 0.243552
H	-1.1122763179	-2.8616394452	 1.3176935461	 0.108827
H	 1.3164830028	-2.2873071135	 1.4306256345	 0.124366
H	 1.2366843504	-2.9388853958	-0.2270619131	 0.135432
H	 3.0921878068	-1.2495122206	-0.4012496068	 0.087297
81.2867	186.0789	243.1868	251.6178	288.3883	381.7821	436.3472	511.4474	619.2906	713.2047	759.0704	773.4757	837.7658	872.8419	891.6609	955.9232	981.567	996.8054	1028.4247	1053.8579	1101.0367	1125.6975	1160.1096	1206.5884	1224.4994	1247.7455	1302.7262	1320.0736	1377.2684	1415.6538	1418.2502	1447.5647	1506.1356	1735.8592	1811.3007	2941.5425	3031.471	3082.2734	3186.2327	3214.7037	3485.8819	3498.91
N=C1C2NC2CN1C=O	[NH][C]1[C@H]2N[C@H]2CN1C=O	
InChI=1S/C5H7N3O/c6-5-4-3(7-4)1-8(5)2-9/h2-4,6-7H,1H2	InChI=1S/C5H7N3O/c6-5-4-3(7-4)1-8(5)2-9/h2-4,6-7H,1H2/t3-,4-/m0/s1
