15
gdb 75327	2.55125	1.71436	1.42857	2.2274	67.45	-0.2391	-0.0307	0.2084	945.6988	0.114068	-453.942024	-453.934846	-453.933902	-453.973497	28.117	
N	 0.03989103	 1.3160805645	-0.1748027129	-0.563863
C	-0.00778745	-0.0439364558	-0.0052069147	 0.401112
N	-1.1095848218	-0.6902913238	 0.0301506565	-0.29281
C	-1.0154768802	-2.1493414571	 0.0282288706	-0.165655
C	 0.4429122399	-2.6396692995	 0.0203796199	-0.061248
O	 1.1741726777	-1.8553222738	 1.0186977154	-0.281706
C	 1.3294535104	-0.7850191334	 0.0548751024	-0.154513
C	 1.2405260214	-1.8677936945	-1.043549319	 0.446435
O	 1.6776362874	-2.0579768015	-2.1332251012	-0.299683
H	 0.8123712968	 1.8101934148	 0.2439061789	 0.257029
H	-0.8534122521	 1.7827759964	-0.1015877046	 0.26142
H	-1.5332494362	-2.5433594098	 0.9119500547	 0.12006
H	-1.53832806	-2.5479094656	-0.8513375271	 0.122061
H	 0.5677993741	-3.7183762005	 0.1375953542	 0.108479
H	 2.2190595726	-0.1710048704	 0.205434767	 0.102882
125.6491	163.8784	276.5981	344.9021	400.5036	430.3072	455.129	516.2084	550.3134	565.6211	672.627	724.3493	780.9053	831.0332	876.3254	906.4988	950.4201	992.6867	1002.7977	1054.9866	1078.6384	1135.7583	1179.9765	1208.104	1237.8755	1262.5179	1300.6085	1361.9264	1397.4111	1483.328	1626.2547	1728.7032	1925.1415	3016.9744	3047.925	3100.32	3107.7138	3565.4088	3683.8059
NC1=NCC2OC1C2=O	NC1=NC[C@@H]2O[C@H]1C2=O	
InChI=1S/C5H6N2O2/c6-5-4-3(8)2(9-4)1-7-5/h2,4H,1H2,(H2,6,7)	InChI=1S/C5H6N2O2/c6-5-4-3(8)2(9-4)1-7-5/h2,4H,1H2,(H2,6,7)/t2-,4-/m0/s1
