18
gdb 52892	1.94934	1.2175	0.83802	0.9611	89.82	-0.2312	0.0198	0.251	1437.6322	0.144053	-364.730603	-364.720217	-364.719273	-364.766839	36.797	
C	 0.0817214036	 1.4962396324	 0.0552316955	-0.504172
C	 0.0428808494	 0.0419596331	 0.0264736788	 0.105872
C	 0.0175484945	-1.1615638085	 0.0131602242	 0.037055
C	-0.003870099	-2.6032980873	-0.0375238731	-0.040276
N	-0.5198366969	-3.3012784099	 1.1847373574	-0.357007
C	-1.3153934601	-3.3640479565	-0.0372438661	-0.023532
C	-2.6476720961	-2.6609829244	-0.030958338	-0.402525
C	 1.1016252248	-3.2181692747	-0.7332320922	 0.264561
C	 2.0238268397	-3.74711357	-1.295475317	-0.456818
H	 1.0790705514	 1.8685117715	-0.2032231112	 0.152703
H	-0.630047766	 1.9301875974	-0.6556743962	 0.148943
H	-0.167161215	 1.8781361583	 1.0514027106	 0.152852
H	 0.015204107	-4.1578506956	 1.3097928482	 0.241441
H	-1.2805252834	-4.2926589351	-0.6044854294	 0.097572
H	-2.5799255683	-1.7125157187	 0.5049159433	 0.140516
H	-2.9846729291	-2.4637225375	-1.0536651882	 0.122329
H	-3.4000080545	-3.2852179593	 0.4626791347	 0.122839
H	 2.839993618	-4.203675325	-1.7983707212	 0.197645
34.417	79.7396	108.3567	145.7756	165.8973	186.071	252.1526	309.2521	350.2838	397.1997	457.6307	511.4527	542.3233	578.6076	587.7884	606.5295	658.7185	765.1644	860.2619	912.6597	998.2448	1043.0146	1051.9123	1052.3433	1055.2007	1122.2973	1137.5026	1238.8997	1250.0787	1355.9783	1402.495	1414.0372	1440.2589	1476.721	1477.8055	1486.6855	1491.7592	2234.5768	2373.664	3028.0198	3040.3371	3088.937	3091.1543	3103.5591	3120.4151	3142.9931	3499.4675	3503.1666
CC#CC1(NC1C)C#C	CC#C[C@]1(N[C@H]1C)C#C	
InChI=1S/C8H9N/c1-4-6-8(5-2)7(3)9-8/h2,7,9H,1,3H3	InChI=1S/C8H9N/c1-4-6-8(5-2)7(3)9-8/h2,7,9H,1,3H3/t7-,8+/m0/s1
