21
gdb 63043	2.56674	1.97334	1.52884	1.2841	81.31	-0.2524	0.0784	0.3308	964.0565	0.184186	-387.056547	-387.049037	-387.048093	-387.087713	31.996	
C	-0.0556320956	 1.5122446142	 0.0147848388	-0.474607
C	 0.0628117891	-0.0127805706	-0.0034004433	 0.465378
O	-1.2495634398	-0.5655681304	-0.118712433	-0.491902
C	 1.0492300068	-0.6340491255	-1.0308983489	-0.106339
C	 2.398805666	 0.0371099023	-0.6712696336	-0.255465
C	 2.2452716369	-0.7758937665	 0.6238103893	-0.023633
C	 1.5240542647	-1.9000704839	-0.1850234851	-0.022199
C	 0.5790001885	-2.1415852112	 1.000600278	-0.24155
C	 0.7753396207	-0.619897742	 1.2289306032	-0.085065
H	 0.8641700562	 2.0121790078	 0.3242552163	 0.123582
H	-0.329725142	 1.8999689767	-0.9748487061	 0.102563
H	-0.8447924829	 1.7921844782	 0.7187002816	 0.123658
H	-1.6440743358	-0.2042509501	-0.9192160456	 0.271885
H	 0.6973393413	-0.7162956986	-2.0610326259	 0.047981
H	 3.2240731672	-0.3674791162	-1.2659802175	 0.095045
H	 2.4709724457	 1.1268831136	-0.6589894762	 0.087872
H	 3.0550224079	-0.9701055416	 1.3268819482	 0.06416
H	 2.0586205458	-2.6846144827	-0.720615758	 0.061433
H	-0.4332172071	-2.5099834967	 0.839695	 0.114148
H	 1.0867036528	-2.7324249415	 1.7694195261	 0.086025
H	 0.5911446937	-0.1490465351	 2.1950068416	 0.057027
191.7761	227.8852	249.4842	271.3876	389.7042	397.1274	449.8749	462.0647	532.3557	586.4352	717.8307	756.3019	776.5355	812.8929	836.491	858.2366	922.8288	927.1467	951.5427	956.4202	997.7232	1006.6726	1012.7913	1033.2681	1047.788	1065.8429	1111.9153	1124.1207	1144.0287	1176.4906	1184.5908	1202.437	1207.6554	1230.5809	1244.2242	1268.4576	1277.1466	1286.4789	1320.3994	1387.16	1406.2597	1489.2569	1490.8692	1495.7199	1517.0729	3024.791	3050.3813	3058.7836	3093.0279	3095.23	3100.8661	3106.6393	3111.236	3121.8386	3129.8337	3142.1307	3810.4261
CC1(O)C2CC3C2CC13	C[C@@]1(O)[C@H]2C[C@@H]3[C@H]2C[C@H]13	
InChI=1S/C8H12O/c1-8(9)6-2-4-5(6)3-7(4)8/h4-7,9H,2-3H2,1H3	InChI=1S/C8H12O/c1-8(9)6-2-4-5(6)3-7(4)8/h4-7,9H,2-3H2,1H3/t4-,5-,6+,7+/m1/s1
