19
gdb 107953	2.85004	1.57695	1.33104	1.3441	79.61	-0.2176	0.0077	0.2253	1025.6514	0.160273	-385.827784	-385.820221	-385.819277	-385.859762	30.372	
O	-0.0760659956	 1.4329005746	 0.1088412091	-0.42241
C	-0.0220469313	 0.016841669	-0.0152375016	-0.230658
C	-1.4301009265	-0.5014170813	-0.0115059846	 0.378245
C	-2.5679319837	-0.196572357	-1.0140100209	-0.289556
C	-3.1949789363	-1.162510159	 0.0167782523	-0.053914
C	-1.8727101633	-2.0163737899	 0.0331327046	-0.110458
C	-1.6696469888	-2.4955130646	 1.4619909359	-0.115094
C	-2.0523492929	-1.4532477583	 2.2050748472	-0.110997
C	-2.462030914	-0.405700828	 1.1838039323	-0.082527
H	 0.8260947012	 1.7639446104	 0.1426377644	 0.288152
H	 0.4792033671	-0.2855707536	-0.9496736997	 0.08436
H	 0.5290828149	-0.4417463717	 0.8216209262	 0.090829
H	-2.9439905155	 0.8293470784	-1.0247435126	 0.098911
H	-2.4387806025	-0.5786432549	-2.0314847155	 0.083635
H	-4.2148077777	-1.5553752092	 0.0428965447	 0.066375
H	-1.6403665323	-2.6695143051	-0.8099545386	 0.057961
H	-1.3004519546	-3.4642372685	 1.7684796027	 0.099096
H	-2.0737475524	-1.3448768818	 3.2804669913	 0.099772
H	-2.8169893257	 0.5742636804	 1.5023804127	 0.068277
85.8989	163.4545	215.3142	263.3114	345.794	427.0802	464.6417	536.0405	640.5461	696.8422	722.8636	785.6285	791.8334	820.9688	897.5614	909.4252	911.6764	922.7818	954.1668	967.1498	991.3865	1043.3889	1063.0316	1067.0125	1093.097	1124.1274	1135.2486	1137.7296	1197.2627	1200.5382	1210.7988	1241.9426	1254.7431	1267.3294	1307.9104	1329.2649	1336.3134	1463.2755	1510.5527	1519.6533	1629.4491	2960.1034	2991.5904	3046.0974	3079.373	3103.2132	3109.6235	3123.7707	3217.3129	3244.4317	3829.0694
OCC12CC3C1C=CC23	OC[C@@]12C[C@H]3[C@@H]1C=C[C@@H]23	
InChI=1S/C8H10O/c9-4-8-3-5-6(8)1-2-7(5)8/h1-2,5-7,9H,3-4H2	InChI=1S/C8H10O/c9-4-8-3-5-6(8)1-2-7(5)8/h1-2,5-7,9H,3-4H2/t5-,6-,7+,8-
