17
gdb 18515	5.38759	1.09968	1.03038	1.4554	77.68	-0.2248	0.0573	0.2821	1194.4775	0.142033	-326.653199	-326.645064	-326.64412	-326.687813	29.058	
C	-0.0122626475	 1.5326899457	-0.0579711759	-0.497385
C	-0.0275871019	 0.0772431552	-0.035512941	 0.046264
C	-0.0487734682	-1.1268468773	-0.0100734873	 0.114525
C	-0.0660542405	-2.5763166276	 0.0163255807	-0.176754
C	 0.3282515554	-3.339321906	 1.3495635403	-0.234139
C	-1.0252178502	-4.0520013022	 1.2907230281	-0.044102
N	-2.048264914	-2.9808202877	 1.3695965218	-0.320622
C	-1.4257555324	-3.3067257454	 0.0685825531	-0.053113
H	 0.6735614819	 1.9352150205	 0.6961445214	 0.145199
H	 0.3083100024	 1.9164262152	-1.0331854646	 0.142601
H	-1.0066674202	 1.9438631134	 0.1491230843	 0.147287
H	 0.5296961573	-2.9776981219	-0.8101328234	 0.097816
H	 1.1881857983	-3.9957332612	 1.2047552781	 0.1035
H	 0.47837086	-2.708254267	 2.2269686092	 0.115724
H	-1.2562166763	-5.0652333887	 1.5946373537	 0.093137
H	-2.9610883039	-3.4356756275	 1.3794522368	 0.227472
H	-2.02974857	-3.6053259576	-0.7795480851	 0.09259
11.8444	86.0796	110.231	218.4219	290.7035	344.3398	427.5834	472.9472	545.0529	673.9161	755.6412	810.72	833.7191	904.0845	921.3406	963.7477	975.4512	990.0817	1043.5818	1052.4991	1054.6046	1097.2417	1117.9006	1155.1368	1184.9589	1202.9066	1245.5422	1279.8443	1319.0079	1357.6495	1381.9529	1414.6246	1474.4631	1478.6767	1479.2419	2369.1613	3023.1339	3047.7523	3076.1495	3081.7589	3083.5461	3138.0326	3181.7855	3196.5468	3471.6553	11.8452	86.0791	110.2305	218.4216	290.7025	344.3384	427.5825	472.9463	545.0524	673.9158	755.641	810.7198	833.719	904.0843	921.3405	963.7477	975.4509	990.0817	1043.5818	1052.4989	1054.6044	1097.2419	1117.9009	1155.1369	1184.9588	1202.9067	1245.5424	1279.8445	1319.0082	1357.6496	1381.953	1414.6246	1474.4635	1478.6768	1479.2418	2369.161	3023.1339	3047.7523	3076.1495	3081.7589	3083.5462	3138.0325	3181.7854	3196.5467	3471.655
CC#CC1CC2NC12	CC#C[C@H]1C[C@H]2N[C@@H]12	
InChI=1S/C7H9N/c1-2-3-5-4-6-7(5)8-6/h5-8H,4H2,1H3	InChI=1S/C7H9N/c1-2-3-5-4-6-7(5)8-6/h5-8H,4H2,1H3/t5-,6+,7-/m0/s1
