19
gdb 47675	2.08986	1.64668	0.9903	1.9194	78.92	-0.2523	-0.0203	0.2319	1195.1313	0.162367	-419.264462	-419.256258	-419.255314	-419.297685	31.331	
N	-0.1161244075	 1.2313703081	-0.6886889676	-0.481598
C	-0.0441880818	 0.0960324471	-0.112692737	 0.353649
C	-1.3181402275	-0.6934653801	 0.084850867	-0.23458
C	-1.6649747644	-1.1425136529	 1.5101783883	-0.205133
C	-0.7299060741	-2.2136277098	 2.0733084517	-0.206838
C	 0.6925833118	-1.7192977095	 2.3628718357	-0.293921
C	 1.6095088305	-1.3941989251	 1.1942382249	 0.372823
O	 2.7519501093	-1.8042643484	 1.15369423	-0.344148
N	 1.1867789931	-0.5105818779	 0.2059726908	-0.361606
H	 0.8087676072	 1.6546038164	-0.7998997092	 0.207793
H	-2.1131747956	-0.058839849	-0.3096558552	 0.134438
H	-1.2557822435	-1.5832132721	-0.5573485271	 0.116829
H	-1.6810361247	-0.2730361627	 2.1799749035	 0.107417
H	-2.6871285472	-1.5361329194	 1.492236631	 0.107179
H	-1.1441509685	-2.5879454068	 3.0158850746	 0.108656
H	-0.694950939	-3.0731328852	 1.3915386423	 0.10786
H	 0.6350564295	-0.8109170168	 2.9798283561	 0.125793
H	 1.2430531259	-2.4627593794	 2.942437889	 0.134137
H	 1.9741638866	-0.1993221764	-0.3497988389	 0.25125
73.1134	97.6631	147.6387	293.7819	313.6019	346.2237	422.6662	464.8514	534.9739	554.672	595.2537	627.1305	685.9651	785.6286	853.1129	858.1388	886.3202	919.6873	930.2111	975.6458	1046.4677	1091.8875	1104.2352	1149.9185	1163.4179	1220.4676	1267.1894	1279.3106	1334.2517	1363.3908	1364.4089	1389.5385	1390.8652	1403.1158	1438.0092	1469.3894	1473.2513	1492.0485	1496.355	1709.9203	1782.5704	3016.2724	3017.2791	3026.6534	3029.2897	3069.2755	3073.6542	3115.2532	3121.1229	3434.624	3571.0922
N=C1CCCCC(=O)N1	[NH][C]1CCCCC(=O)N1	
InChI=1S/C6H10N2O/c7-5-3-1-2-4-6(9)8-5/h1-4H2,(H2,7,8,9)	InChI=1S/C6H10N2O/c7-5-3-1-2-4-6(9)8-5/h1-4H2,(H2,7,8,9)
