17
gdb 117913	1.92948	1.35637	0.85764	3.0622	72.69	-0.2632	-0.0712	0.192	1333.3036	0.131664	-458.920501	-458.91028	-458.909336	-458.95688	35.233	
C	 0.9349183024	 1.1789617911	-0.1032304225	-0.228904
O	 0.9586823995	-0.2229048188	-0.2421215099	-0.227221
C	-0.0613782336	-0.7098635987	-1.0756860487	-0.085463
C	 0.077924811	-2.2377736982	-1.2096187732	 0.007517
O	-1.1069514165	-2.7585656114	-1.7417500678	-0.433862
C	 1.2504732632	-2.6337602308	-2.1109644624	 0.188044
O	 1.0251431347	-3.2090289433	-3.1605476243	-0.319969
C	 2.5912465401	-2.3306023424	-1.6806799487	 0.327258
C	 3.7220725339	-2.1223109214	-1.3261689021	-0.408142
H	 1.0758522402	 1.6863732483	-1.0701481976	 0.109244
H	-0.0138752176	 1.5276483018	 0.3332514682	 0.109664
H	 1.7543432573	 1.4541788442	 0.5646620897	 0.129756
H	-1.0586868838	-0.5142901983	-0.6523541307	 0.111411
H	-0.028700438	-0.2397582186	-2.073069066	 0.095852
H	 0.2723065392	-2.6402669783	-0.2033227927	 0.108048
H	-0.8522421944	-3.1739330713	-2.582490293	 0.29733
H	 4.7182890723	-1.9292928237	-1.0092408384	 0.219436
34.5167	69.4377	101.0009	138.3553	180.8338	205.8558	230.89	296.3841	349.0437	382.1436	445.6189	466.2516	534.5039	609.8611	641.8012	714.6833	736.4538	803.5014	997.4648	1028.9202	1076.0941	1105.8656	1165.7854	1171.2672	1182.3308	1228.1643	1232.8594	1292.5431	1322.2083	1405.2924	1443.9642	1481.0325	1485.9005	1502.4782	1526.3177	1739.4352	2218.0089	2961.7243	2977.4015	2993.7827	3009.9243	3022.4563	3118.6579	3495.4699	3667.2694
COCC(O)C(=O)C#C	COC[C@@H](O)C(=O)C#C	
InChI=1S/C6H8O3/c1-3-5(7)6(8)4-9-2/h1,6,8H,4H2,2H3	InChI=1S/C6H8O3/c1-3-5(7)6(8)4-9-2/h1,6,8H,4H2,2H3/t6-/m1/s1
