18
gdb 37321	2.36731	2.31803	1.50635	2.9743	73.67	-0.2416	0.0599	0.3015	908.0457	0.150992	-401.894578	-401.888081	-401.887137	-401.925127	27.544	
C	-0.0298447087	 1.534950656	 0.0470782787	-0.307513
C	 1.2847771133	 0.8087938855	-0.0276405268	-0.027145
C	-0.0322144093	 0.0291657063	-0.0302947927	-0.054576
C	-0.4617322222	-0.674117521	-1.2806972505	 0.024883
O	-0.8308905806	 0.116608758	-2.4124964295	-0.240033
C	 0.3723689489	-0.6420552793	-2.5059037679	 0.055207
C	 1.6828042537	 0.0906068711	-2.5032214796	-0.067556
N	 1.6529499565	 1.5592282147	-2.4446570095	-0.324802
C	 2.1278551647	 0.8188450281	-1.2690215379	-0.049461
H	-0.3068684066	 1.9957561741	 0.9883138786	 0.106678
H	-0.3390254024	 2.060482637	-0.8480769508	 0.157456
H	 1.8616350228	 0.741761535	 0.8887244711	 0.080945
H	-0.2685357612	-0.5154395428	 0.8778332023	 0.080625
H	-1.0997785741	-1.5434736244	-1.1225287691	 0.087357
H	 0.3193000722	-1.4850428007	-3.1951052717	 0.085035
H	 2.4536042294	-0.3799747687	-3.109007168	 0.078708
H	 2.4356508312	 1.9458576865	-2.9638792334	 0.233369
H	 3.1984490923	 0.8184586747	-1.0788691334	 0.080822
181.9889	206.3344	321.5657	449.8984	466.2075	482.583	592.0332	619.0332	724.9627	752.4541	754.0219	830.5147	851.0949	864.0847	872.5388	892.1049	908.4367	947.3142	1014.2356	1043.4	1048.8286	1073.719	1086.3017	1101.3722	1121.9115	1125.2254	1140.8572	1169.3883	1195.229	1219.8006	1252.1915	1294.179	1359.7697	1400.4661	1408.96	1419.2506	1441.6184	1467.2067	1485.9972	3097.5289	3108.7109	3125.5121	3136.3994	3142.6953	3156.7978	3166.3641	3242.6196	3514.0841
C1C2C1C1OC1C1NC21	C1[C@H]2[C@@H]1[C@H]1O[C@H]1[C@H]1N[C@@H]21	
InChI=1S/C7H9NO/c1-2-3(1)6-7(9-6)5-4(2)8-5/h2-8H,1H2	InChI=1S/C7H9NO/c1-2-3(1)6-7(9-6)5-4(2)8-5/h2-8H,1H2/t2-,3+,4-,5-,6+,7-/m0/s1
