22
gdb 100114	3.65747	0.87499	0.86559	2.8593	79.	-0.238	0.051	0.289	1457.452	0.191983	-441.446078	-441.435871	-441.434927	-441.481219	38.305	
C	 0.0384611514	 1.5592633886	 0.1336829563	-0.388309
C	-0.0555609265	 0.0500584651	-0.0792715167	 0.292929
O	 0.5877742844	-0.5460690734	 1.0664327635	-0.465596
C	-1.5247306435	-0.4225746751	-0.0699350779	-0.068291
O	-2.1229222721	-0.2056491356	 1.1886173926	-0.425956
C	 0.6260537465	-0.3988705319	-1.3807228771	-0.185149
N	 1.9858017487	 0.1000940513	-1.504704537	-0.052894
C	 3.0527274434	-0.7435206316	-0.9846429178	-0.205302
C	 2.8529891088	-0.5907754875	-2.4519998792	-0.225039
H	 1.0813957566	 1.8605040049	 0.2342882534	 0.135792
H	-0.3935873762	 2.0888500353	-0.7204809724	 0.111459
H	-0.5161890115	 1.8409206207	 1.0311213748	 0.124795
H	 0.6474303443	-1.4960536827	 0.909694451	 0.277704
H	-2.1119494664	 0.125961431	-0.8144061974	 0.105959
H	-1.5581676116	-1.4929209007	-0.3469661378	 0.066593
H	-1.4357076921	-0.4243449449	 1.8332134	 0.282739
H	 0.583665188	-1.5056664552	-1.4415034509	 0.064936
H	 0.0467824794	-0.0156580493	-2.2301880145	 0.109131
H	 3.8598045408	-0.228062548	-0.4730703901	 0.121786
H	 2.7808807181	-1.7029081754	-0.5471165698	 0.095939
H	 2.4444021863	-1.4467111372	-2.9880158247	 0.107301
H	 3.5091774133	 0.0433199916	-3.0411373183	 0.119473
56.2637	95.4532	137.1316	156.6244	220.9823	253.2554	309.7495	335.1652	342.8338	366.0091	388.817	428.6382	455.5226	537.5897	656.8584	767.718	779.1734	837.6847	900.6115	905.4169	921.8067	970.0516	1003.2474	1031.6602	1048.2561	1090.9614	1115.3193	1117.2781	1123.7614	1160.876	1170.1213	1193.5822	1196.8348	1237.1102	1288.8763	1330.8329	1346.5198	1384.7623	1393.942	1425.9164	1444.9016	1479.0044	1487.5549	1490.1495	1494.6344	1511.4326	1520.3927	2888.2196	2928.8741	3043.828	3056.9415	3068.7	3091.2211	3096.4654	3128.3786	3155.9255	3177.3416	3191.6765	3746.778	3785.3634
CC(O)(CO)CN1CC1	C[C@@](O)(CO)CN1CC1	
InChI=1S/C6H13NO2/c1-6(9,5-8)4-7-2-3-7/h8-9H,2-5H2,1H3	InChI=1S/C6H13NO2/c1-6(9,5-8)4-7-2-3-7/h8-9H,2-5H2,1H3/t6-/m0/s1
