20
gdb 95217	2.53243	1.70405	1.21144	3.3828	74.46	-0.2381	0.0614	0.2995	1073.6461	0.172718	-440.265584	-440.257443	-440.256499	-440.297907	32.391	
C	-0.0404055967	 1.5532624399	-0.047802325	-0.399987
C	-0.0088002683	 0.0351044488	 0.005876085	 0.104849
O	 0.6503834003	-0.4215182734	-1.1747600966	-0.258718
C	 0.4664410794	-1.800051589	-1.4074339961	-0.087221
C	 0.8691445507	-2.6511561284	-0.2210498982	-0.028734
N	 2.1733557612	-2.3461587939	 0.3817711471	-0.339618
C	 0.9392086997	-2.018538126	 1.1231765508	-0.086237
C	 0.7104698025	-0.5074202043	 1.2594565495	 0.129147
O	 1.9364625193	 0.1511850485	 1.5035466112	-0.43513
H	 0.9780124248	 1.9448379708	-0.0246306032	 0.139828
H	-0.5367765612	 1.8882765843	-0.9619145299	 0.114411
H	-0.5815302397	 1.9547118882	 0.8145858501	 0.110454
H	-1.0406675019	-0.3615795946	 0.0160387914	 0.053052
H	-0.5903765607	-2.0152442073	-1.6466409349	 0.086391
H	 1.0705198525	-2.050781523	-2.2857173165	 0.112471
H	 0.5665938069	-3.6951981812	-0.2811729993	 0.088075
H	 2.6063347564	-3.1840649062	 0.7576373527	 0.238145
H	 0.7033951894	-2.6267206657	 1.9917530484	 0.089236
H	 0.0707078125	-0.3148197926	 2.1289101986	 0.076708
H	 2.5730804127	-0.2967464751	 0.926141045	 0.292878
97.1127	200.7677	218.0447	276.0879	296.4164	319.5758	366.8291	441.3605	466.3503	490.3858	600.2691	709.6567	741.7671	768.3595	808.1972	850.0587	899.4004	910.0344	961.2306	1000.9373	1011.464	1043.3436	1075.7199	1109.3228	1126.4807	1147.0338	1168.0664	1175.3571	1207.8093	1251.5363	1288.7071	1300.7905	1331.2946	1363.3984	1374.7825	1392.8144	1407.4649	1414.253	1454.4658	1459.6242	1483.1415	1487.9863	1496.4955	2934.2673	2951.2457	3040.1149	3051.2675	3071.0394	3120.4333	3123.0816	3145.6689	3146.6613	3521.6371	3714.636
CC1OCC2NC2C1O	C[C@H]1OC[C@H]2N[C@H]2[C@H]1O	
InChI=1S/C6H11NO2/c1-3-6(8)5-4(7-5)2-9-3/h3-8H,2H2,1H3	InChI=1S/C6H11NO2/c1-3-6(8)5-4(7-5)2-9-3/h3-8H,2H2,1H3/t3-,4-,5-,6+/m1/s1
