17
gdb 62223	4.06583	0.66612	0.61289	3.6302	70.84	-0.25	-0.0507	0.1993	1732.279	0.133434	-455.137935	-455.127814	-455.12687	-455.174834	34.269	
O	-0.8026589341	 1.1166873235	-0.1123325283	-0.423927
C	 0.094822347	 0.0219376975	-0.1990522404	 0.014597
C	 1.2268589709	 0.270702999	-1.2172086013	-0.177359
N	 0.7832368323	 0.5571915735	-2.5736701191	-0.285589
C	 0.2746224835	-0.6039950438	-3.295823859	-0.274902
C	-0.109157058	-0.2368224102	-4.6622587014	 0.263748
N	-0.4337208838	 0.0518658351	-5.7322278204	-0.294995
C	 0.641870219	-0.3657794516	 1.1718111058	 0.124234
O	 1.5844713902	-1.0946011013	 1.3388620072	-0.235401
H	-0.311630279	 1.8917540223	 0.1854422517	 0.288641
H	-0.521944246	-0.8246433573	-0.5317750389	 0.127299
H	 1.8221602036	 1.1253157893	-0.868924858	 0.108886
H	 1.8966696783	-0.594588931	-1.2198388694	 0.137202
H	 0.0720819085	 1.2817922938	-2.5490156068	 0.236968
H	 1.0707951586	-1.356549367	-3.3523303231	 0.161549
H	-0.5954479331	-1.1017767446	-2.8318401344	 0.136038
H	 0.0835362321	 0.0920456127	 2.0210633959	 0.093012
44.0053	49.1377	76.2595	103.676	162.6703	215.0269	237.9646	332.0998	371.3444	388.7815	439.4958	472.2671	544.523	631.3319	750.934	824.7326	870.7151	951.6276	987.6765	1034.2289	1051.0896	1111.2988	1125.3385	1153.2794	1213.5571	1267.7808	1275.5865	1322.5522	1372.6837	1388.7962	1394.0491	1406.3882	1473.9626	1488.4651	1510.3048	1829.2994	2370.115	2873.1244	2945.3886	3017.5034	3031.5205	3051.9304	3096.7023	3522.5166	3789.2085
OC(CNCC#N)C=O	O[C@@H](CNCC#N)C=O	
InChI=1S/C5H8N2O2/c6-1-2-7-3-5(9)4-8/h4-5,7,9H,2-3H2	InChI=1S/C5H8N2O2/c6-1-2-7-3-5(9)4-8/h4-5,7,9H,2-3H2/t5-/m0/s1
