21
gdb 120188	3.88961	0.80343	0.74725	1.6775	79.56	-0.2357	0.0747	0.3105	1585.794	0.181326	-424.148124	-424.138827	-424.137882	-424.182756	34.712	
C	-0.0831823236	 1.6191035579	 0.2948335213	-0.430033
C	-0.0721227408	 0.1039143739	 0.2126159829	 0.032773
C	 1.1338576556	-0.6060786611	-0.466810439	 0.018639
O	 1.9879602622	-0.1944059133	 0.6725606582	-0.31172
C	 0.7312055035	-0.7048378073	 1.2724283339	 0.001669
C	 0.8266012495	-1.922734801	 0.3110428411	 0.038409
C	-0.3346386541	-2.8558089619	 0.0032830927	-0.242063
C	-0.0545065952	-3.7407285715	-1.2077961265	-0.063246
O	-1.1675989204	-4.6038364508	-1.3792948964	-0.420159
H	 0.9095554694	 1.9965370423	 0.5467097984	 0.138654
H	-0.3930088643	 2.0576320335	-0.6601133551	 0.112906
H	-0.7922236485	 1.9617784454	 1.0563636891	 0.113647
H	-1.0571284643	-0.2973075225	-0.0382764543	 0.070804
H	 1.5439737813	-0.4680282014	-1.4690050318	 0.086373
H	 0.6557106635	-0.6894773258	 2.3613098628	 0.087698
H	 1.7507291945	-2.4792645374	 0.4938558646	 0.081924
H	-0.5118855546	-3.507404464	 0.8678439447	 0.111387
H	-1.2695137987	-2.3169220791	-0.175080919	 0.11177
H	 0.1044739789	-3.1124295972	-2.0996707575	 0.086627
H	 0.8738784505	-4.3118231794	-1.0440163824	 0.087808
H	-0.9957758542	-5.1708551193	-2.1366338079	 0.286135
60.1328	84.94	127.2884	217.4976	242.6853	268.7105	271.4775	320.0363	381.4731	394.9236	609.2338	661.4412	740.0936	765.9759	794.3177	802.5496	869.752	890.8603	906.1086	1011.771	1025.7507	1045.8371	1058.9702	1074.6878	1097.054	1109.5431	1148.147	1156.2455	1158.0586	1203.685	1211.5877	1229.1731	1252.0497	1263.8821	1275.3388	1314.4517	1328.2245	1393.5713	1408.8406	1410.4525	1462.2048	1491.5447	1495.6137	1506.3498	1527.584	2960.3657	2986.1597	3035.3215	3038.9455	3066.768	3076.651	3091.0369	3096.9471	3097.4367	3105.3628	3137.668	3830.1274
CC1C2OC1C2CCO	C[C@H]1[C@H]2O[C@@H]1[C@H]2CCO	
InChI=1S/C7H12O2/c1-4-6-5(2-3-8)7(4)9-6/h4-8H,2-3H2,1H3	InChI=1S/C7H12O2/c1-4-6-5(2-3-8)7(4)9-6/h4-8H,2-3H2,1H3/t4-,5-,6+,7-
