17
gdb 109063	4.08846	1.3912	1.25428	1.1387	72.3	-0.2363	0.0234	0.2597	1033.1627	0.137929	-417.966006	-417.958904	-417.95796	-417.997591	27.651	
C	-0.0781502078	 1.3582247007	 0.0814308231	-0.234776
O	 0.0066918093	-0.0702107633	 0.1081090062	-0.245277
C	 0.724998605	-0.5714812353	 1.1026425916	 0.456895
N	 1.3482378322	 0.0793226338	 2.0085447403	-0.334803
C	 1.8209515741	-0.969482822	 2.9194973132	-0.035565
C	 0.5555869589	-1.579940979	 3.6186009555	-0.236223
C	 0.497669897	-2.5997006759	 2.4802633034	-0.049693
C	 1.8859448187	-2.2834371481	 2.0607840957	-0.05179
N	 0.797612352	-2.0013509643	 1.120651162	-0.1907
H	 0.9179886625	 1.7982587	-0.0178478459	 0.142676
H	-0.6947253535	 1.6029939637	-0.7835950091	 0.133292
H	-0.535320306	 1.7322253519	 1.0016581159	 0.138749
H	 2.6594410305	-0.6605655096	 3.538843614	 0.081033
H	 0.8144450015	-2.0939075391	 4.5481895527	 0.111917
H	-0.2858985782	-0.9010686592	 3.7812735422	 0.105197
H	-0.0550005351	-3.5302533236	 2.4528405477	 0.10783
H	 2.7232321789	-2.9034021605	 1.7618433215	 0.10124
113.0082	148.3446	234.2581	249.7813	387.0441	464.1125	470.8825	669.0456	694.5978	712.3944	794.531	823.8783	846.6839	877.8652	921.2985	932.3871	954.3292	982.2002	1020.997	1040.7631	1067.5922	1102.1566	1136.0519	1165.3386	1182.3384	1199.2789	1219.3891	1234.8183	1260.9262	1291.9658	1328.2302	1371.1373	1474.752	1477.6954	1483.0178	1498.0491	1694.1119	3046.356	3056.0054	3115.1131	3119.6019	3146.5607	3156.9734	3178.7864	3199.2175
COC1=NC2CC3C2N13	CO[C]1[N][C@H]2C[C@@H]3[C@H]2N13	
InChI=1S/C6H8N2O/c1-9-6-7-3-2-4-5(3)8(4)6/h3-5H,2H2,1H3	InChI=1S/C6H8N2O/c1-9-6-7-3-2-4-5(3)8(4)6/h3-5H,2H2,1H3/t3-,4+,5-,8?/m0/s1
