18
gdb 74209	2.2551	1.5933	0.97037	5.021	86.11	-0.2123	-0.0498	0.1625	1191.5498	0.14962	-401.990993	-401.982816	-401.981872	-402.023733	31.881	
N	 0.0554593024	 1.3769070434	 0.4382369043	-0.557953
C	-0.0224324306	 0.0580606262	 0.0233419262	 0.349049
C	-1.2464450051	-0.5186983937	-0.1556421011	-0.285279
C	-1.6141400706	-1.9026756473	-0.4183068777	 0.359873
O	-2.7944403239	-2.2155365965	-0.498211969	-0.357462
C	-0.5497345041	-2.9868092529	-0.5774830496	-0.304566
C	 0.6381561405	-2.5986131893	-1.4712590983	-0.277621
C	 1.6109109013	-1.6758441329	-0.7961203949	-0.069547
C	 1.3003573046	-0.5585049132	-0.1296452326	-0.109426
H	 0.8799930672	 1.8929850301	 0.1733103932	 0.254555
H	-0.7949148106	 1.9167817942	 0.3874499446	 0.258849
H	-2.1195441655	 0.1194451065	-0.0369137186	 0.076857
H	-0.1802552349	-3.2599202056	 0.4200683693	 0.11651
H	-1.0676285841	-3.8599647041	-0.9814261193	 0.119135
H	 1.1639865331	-3.5042769855	-1.7878587541	 0.109326
H	 0.260774378	-2.1264047544	-2.3906340218	 0.125519
H	 2.6624859989	-1.9470896748	-0.8483327631	 0.102021
H	 2.1105488835	 0.00854664	 0.3238221825	 0.090161
71.6749	164.6842	194.0976	292.1868	338.3013	366.8881	393.2019	419.4906	511.2706	522.6453	548.918	638.5826	647.0897	699.2982	791.2856	813.3586	863.401	883.1918	914.3446	968.6931	1002.3533	1038.3636	1070.6751	1121.6123	1173.7991	1221.3587	1260.92	1278.6397	1303.6536	1341.0347	1376.5817	1388.7286	1457.1472	1470.3667	1474.9739	1626.9339	1658.5754	1715.1	1724.0043	3002.2933	3027.7972	3075.4096	3104.5534	3140.1662	3148.1116	3165.7756	3577.285	3686.7013
NC1=CC(=O)CCC=C1	NC1=CC(=O)CCC=C1	
InChI=1S/C7H9NO/c8-6-3-1-2-4-7(9)5-6/h1,3,5H,2,4,8H2	InChI=1S/C7H9NO/c8-6-3-1-2-4-7(9)5-6/h1,3,5H,2,4,8H2
