16
gdb 9500	3.04988	1.70872	1.51536	1.0653	67.09	-0.2477	0.0241	0.2718	907.2232	0.128352	-383.689716	-383.681419	-383.680475	-383.722096	31.384	
O	 0.3989886451	 0.9002819736	-0.6605155762	-0.431013
C	 0.1712453919	-0.2092091975	 0.1509527102	 0.122148
C	 0.0831207872	-0.0305726119	 1.6935073447	-0.276059
C	-1.1568805273	-0.9633881685	 1.7033609666	-0.253763
C	-1.3114110814	-0.7613974325	 0.1703243344	 0.198595
O	-2.2130674322	 0.3276586502	-0.0537020003	-0.476852
C	-1.6333952509	-1.9034436273	-0.6639215539	 0.238621
C	-1.8822546477	-2.836222692	-1.3819725826	-0.445269
H	-0.3634260828	 1.479558628	-0.5251070222	 0.279008
H	 0.8832513749	-0.9852349377	-0.1396033964	 0.098983
H	 0.9526836505	-0.3349512248	 2.278667902	 0.104706
H	-0.174321843	 0.9995139979	 1.9527330419	 0.110251
H	-0.915256189	-1.9991804536	 1.9471820401	 0.118042
H	-2.025877096	-0.6456887904	 2.2811257551	 0.120757
H	-2.4370458433	 0.3231051846	-0.991040016	 0.292057
H	-2.1039232762	-3.6655635581	-2.0075388573	 0.199786
93.8423	139.8427	175.0547	213.9796	274.0589	365.8768	374.6389	486.752	521.7612	539.9786	582.5681	615.2397	624.8556	668.6887	730.4012	777.1802	903.1914	939.2424	957.7605	998.1089	1071.9061	1100.1654	1144.6285	1158.7847	1220.6829	1227.7354	1254.3949	1276.2155	1334.4312	1372.2715	1439.6795	1467.5633	1486.031	2227.4588	3069.2011	3082.9548	3090.1097	3124.3149	3145.8939	3499.9573	3752.0353	3810.6051
OC1CCC1(O)C#C	O[C@H]1CC[C@]1(O)C#C	
InChI=1S/C6H8O2/c1-2-6(8)4-3-5(6)7/h1,5,7-8H,3-4H2	InChI=1S/C6H8O2/c1-2-6(8)4-3-5(6)7/h1,5,7-8H,3-4H2/t5-,6+/m0/s1
