17
gdb 113033	3.98952	1.02549	0.87346	0.7776	77.	-0.2631	-0.0001	0.263	1322.284	0.133971	-421.780965	-421.772118	-421.771174	-421.815034	32.207	
C	 0.1770915017	 1.3090368199	 0.3341921429	-0.241782
O	 0.2149883737	-0.0994681952	 0.1806603291	-0.242296
C	 0.3714781514	-0.5136422502	-1.1481235669	 0.184786
O	 1.6554867842	-0.1896760174	-1.6699592779	-0.279032
C	 2.4508524253	-1.3732094858	-1.8008488536	-0.085685
C	 1.4845988675	-2.5084520226	-1.5332021277	-0.093308
C	 0.3029705225	-2.0161466205	-1.193713597	-0.113003
C	 3.0665441853	-1.4334034875	-3.1271162587	 0.322455
C	 3.5914859367	-1.5086283069	-4.2048585094	-0.45839
H	 1.1259025555	 1.7702575738	 0.0360288588	 0.128374
H	-0.6341477808	 1.7546819698	-0.2615594057	 0.105647
H	-0.0075707318	 1.5097472898	 1.3915927312	 0.126812
H	-0.3714082483	 0.0029492168	-1.7781829322	 0.077147
H	 3.2523531289	-1.3639307877	-1.0446739781	 0.121211
H	 1.7763876967	-3.5463485302	-1.6182140259	 0.125279
H	-0.5884918552	-2.5641669816	-0.9217386897	 0.120525
H	 4.0500301167	-1.5671963843	-5.161080879	 0.201258
61.7087	104.748	124.8644	177.1366	208.0462	258.3443	352.4305	458.0872	473.1462	533.0131	588.3422	621.9239	670.3212	735.1189	782.6778	830.1777	910.4519	944.9202	961.2338	991.5415	1006.708	1050.9543	1069.5621	1121.7442	1142.893	1179.2329	1215.9154	1272.7911	1327.8843	1342.663	1378.6302	1401.4344	1476.9048	1485.0186	1513.0473	1696.5291	2240.4004	2968.3276	2973.346	2990.5492	3064.0712	3125.7996	3223.476	3247.6881	3502.5078
COC1OC(C=C1)C#C	CO[C@H]1O[C@@H](C=C1)C#C	
InChI=1S/C7H8O2/c1-3-6-4-5-7(8-2)9-6/h1,4-7H,2H3	InChI=1S/C7H8O2/c1-3-6-4-5-7(8-2)9-6/h1,4-7H,2H3/t6-,7+/m1/s1
