13
gdb 25394	3.02948	1.40049	0.95774	2.9854	72.98	-0.2515	-0.1078	0.1437	1111.993	0.090901	-452.813076	-452.806009	-452.805065	-452.844951	26.036	
O	 0.0386321299	-0.0419527346	-0.0012471312	-0.275585
C	 0.0007260976	 1.1674698435	 0.0090906475	 0.104978
C	 1.2202583234	 1.9960456256	 0.0019063492	 0.276754
C	 1.2069280359	 3.3598085796	 0.0134861357	-0.096275
N	 2.3641760396	 4.0945312227	 0.0062716352	-0.222968
C	 3.4913141341	 3.4518308362	-0.0121405359	-0.075213
C	 3.6482792154	 1.9819986387	-0.0263043918	 0.39627
O	 4.7069004094	 1.3882757342	-0.0434608461	-0.37115
N	 2.4137200562	 1.3353831057	-0.0174452544	-0.411758
H	-0.9503063311	 1.7335424164	 0.0249905357	 0.108471
H	 0.2716861963	 3.9069793377	 0.0288885237	 0.135063
H	 4.4185236644	 4.0207066202	-0.0180738139	 0.149695
H	 2.3921073187	 0.320341234	-0.025664144	 0.281716
125.061	154.6692	181.6945	269.6542	423.846	453.3361	471.1688	552.4657	582.0578	656.6255	737.9959	746.8588	781.1926	867.2386	960.8071	962.4402	1018.4959	1056.6999	1122.6077	1218.5629	1256.2277	1341.5985	1378.3227	1409.7424	1503.5476	1558.7752	1650.1317	1782.8325	1798.0712	2955.3348	3166.9361	3203.6699	3552.4284
O=CC1=CN=CC(=O)N1	O=Cc1cncc(=O)[nH]1	
InChI=1S/C5H4N2O2/c8-3-4-1-6-2-5(9)7-4/h1-3H,(H,7,9)	InChI=1S/C5H4N2O2/c8-3-4-1-6-2-5(9)7-4/h1-3H,(H,7,9)
