18
gdb 81922	2.19538	1.95633	1.27896	3.1046	70.73	-0.2551	-0.0174	0.2376	1014.0375	0.148157	-439.090314	-439.082154	-439.08121	-439.122966	31.345	
C	 0.1852615907	 1.6199970399	 0.0831378879	-0.394927
C	 0.0208430772	 0.1004960891	 0.0103990055	-0.068087
C	 0.7532904429	-0.6012878867	-1.1546426843	-0.039658
C	 2.120156673	-0.1805034816	-1.5707867446	-0.247034
N	 1.9484073412	-1.3111161869	-0.6416821089	-0.114322
C	 2.0384747429	-0.9837661258	 0.7262934752	 0.337592
O	 3.0378682113	-0.9264318481	 1.3973218711	-0.339855
C	 0.6366112445	-0.6410902558	 1.235579266	 0.053517
O	 0.6837943147	 0.0736455535	 2.4346285668	-0.434303
H	 1.2294148112	 1.9178051754	 0.2195411056	 0.121025
H	-0.1871091064	 2.0921712527	-0.8309989165	 0.115478
H	-0.370986158	 2.0157406874	 0.9355525555	 0.140727
H	-1.0446281024	-0.1302821735	-0.065082316	 0.090326
H	 0.1544257425	-1.1665020178	-1.8624142897	 0.106527
H	 2.4947312936	-0.4581730741	-2.551491108	 0.134345
H	 2.5397859604	 0.7363004765	-1.1685359833	 0.139062
H	 0.0928056511	-1.5915971862	 1.36841709	 0.104284
H	 1.5999663696	 0.0016040819	 2.7448821578	 0.295303
70.6791	183.2265	200.6067	244.9533	277.3501	298.705	401.0625	442.9421	518.6558	547.4007	563.9378	676.2242	715.2848	766.1772	850.9952	860.3422	901.2393	934.5082	999.9344	1060.6212	1064.0106	1086.9229	1124.1425	1135.7097	1148.5792	1166.3451	1182.9231	1228.9055	1292.0832	1301.4327	1353.2122	1363.3464	1385.4266	1416.0038	1424.771	1487.678	1493.0387	1516.5909	1837.1724	2962.7528	3044.0311	3071.6312	3110.559	3122.4365	3130.9149	3154.2105	3210.5469	3702.9702
CC1C2CN2C(=O)C1O	C[C@H]1[C@H]2CN2C(=O)[C@H]1O	
InChI=1S/C6H9NO2/c1-3-4-2-7(4)6(9)5(3)8/h3-5,8H,2H2,1H3	InChI=1S/C6H9NO2/c1-3-4-2-7(4)6(9)5(3)8/h3-5,8H,2H2,1H3/t3-,4+,5-,7?/m0/s1
