20
gdb 93544	3.02514	1.27558	0.96258	2.9917	82.51	-0.2477	0.0051	0.2528	1253.6144	0.171916	-403.160879	-403.152156	-403.151212	-403.194562	33.112	
C	 0.0935009542	 1.6255736377	-0.0432372721	-0.413838
C	-0.0196567111	 0.0956279307	 0.0115809866	-0.038247
C	 0.6709456795	-0.516411229	-1.2163916277	-0.069174
O	 0.3197842807	-1.8690440162	-1.5320234438	-0.263151
C	 0.5959609763	-2.9111660728	-0.6826482668	 0.35889
N	 1.1686511359	-3.960663518	-1.0993650039	-0.473876
C	 0.0434527499	-2.8467345591	 0.7243575565	-0.309654
C	 0.6020926567	-1.747223066	 1.6022484244	-0.09705
C	 0.555023975	-0.4527699519	 1.3004038434	-0.040107
H	 1.1430150132	 1.9421341642	-0.0479962555	 0.122541
H	-0.3850205585	 2.0305502228	-0.9398539714	 0.118081
H	-0.3846570734	 2.0796980262	 0.8296635239	 0.123676
H	-1.0837103493	-0.1774387083	-0.0542615322	 0.09595
H	 0.3812756896	 0.0378958757	-2.1141166548	 0.111303
H	 1.7611801446	-0.4391483665	-1.104179802	 0.105863
H	 1.4398275287	-3.8329048683	-2.0775599801	 0.216816
H	-1.0465312757	-2.7216393452	 0.6395714052	 0.129044
H	 0.2252953924	-3.8238089865	 1.1713953799	 0.134878
H	 1.0421253299	-2.0612313205	 2.5443243382	 0.100343
H	 0.9614628315	 0.271518131	 2.0030286121	 0.087712
57.8208	92.1677	192.6216	229.7654	278.6623	311.3734	326.6086	382.6186	445.348	509.8482	555.3143	619.6188	714.0568	719.4737	846.2989	854.1963	913.407	944.8041	958.1509	972.1759	990.7189	997.1666	1041.8983	1092.2264	1118.1647	1139.5848	1159.244	1218.9978	1253.5514	1274.0824	1314.3249	1320.2583	1338.4845	1356.2831	1407.6025	1411.6907	1435.9066	1467.1872	1493.9656	1500.106	1504.1845	1723.2353	1739.1838	2991.1879	3002.4465	3013.4016	3032.9813	3084.4282	3100.0304	3112.5562	3132.0169	3144.5213	3175.1895	3451.3773
CC1COC(=N)CC=C1	C[C@H]1CO[C]([NH])CC=C1	
InChI=1S/C7H11NO/c1-6-3-2-4-7(8)9-5-6/h2-3,6,8H,4-5H2,1H3	InChI=1S/C7H11NO/c1-6-3-2-4-7(8)9-5-6/h2-3,6,8H,4-5H2,1H3/t6-/m1/s1
