22
gdb 14973	4.02631	1.33948	1.07613	0.2492	83.43	-0.2344	0.0336	0.2679	1173.0969	0.202108	-313.098611	-313.090329	-313.089385	-313.131151	32.069	
C	 0.097782965	 1.5638281666	 0.0210578284	-0.390523
C	 0.0034694728	 0.0345457503	-0.0106589497	-0.181567
C	-1.4278007192	-0.5228827763	 0.0253187615	 0.047227
C	-1.439563575	-2.0519810599	-0.1309761735	-0.201149
C	-2.8679252222	-2.6045246482	-0.2359475391	-0.263035
C	-3.7835751935	-1.9903973303	 0.7902035659	-0.03909
C	-3.4705903798	-0.8988003106	 1.4866365344	-0.060443
C	-2.1867277697	-0.129438363	 1.3064565538	-0.241903
H	 1.1373574586	 1.8940083187	-0.0704068087	 0.110341
H	-0.4661258825	 2.0118218504	-0.8052296268	 0.112391
H	-0.2961574673	 1.9788713355	 0.9539726723	 0.118037
H	 0.497156546	-0.3344798857	-0.9191354373	 0.088997
H	 0.5702718284	-0.3848831317	 0.8325207434	 0.090571
H	-1.9779420094	-0.0978464708	-0.8284591166	 0.067352
H	-0.8552626499	-2.3467565031	-1.0104931634	 0.086204
H	-0.941864125	-2.5002664028	 0.7400289877	 0.094147
H	-3.271095083	-2.4233659598	-1.2440024868	 0.104078
H	-2.8593685434	-3.6961112858	-0.1206427008	 0.098677
H	-4.7406090984	-2.4801284634	 0.955866078	 0.079223
H	-4.1674549097	-0.5164034841	 2.2294638647	 0.078867
H	-1.5372561565	-0.2858955136	 2.1830519339	 0.099871
H	-2.4088659463	 0.9447897875	 1.3011574787	 0.101722
94.1743	125.2922	186.0207	214.8962	252.5417	366.6659	392.2043	429.0734	464.5228	508.8135	671.4929	730.0531	774.6144	819.3507	875.1792	920.1122	923.2872	940.2072	975.4485	1005.4642	1022.2851	1044.8973	1060.8479	1097.199	1131.2068	1136.7194	1164.7054	1215.1841	1243.3172	1272.2409	1297.3958	1318.0582	1335.1112	1366.9278	1370.0871	1383.698	1397.9128	1412.3125	1419.6423	1474.223	1478.6672	1484.7609	1496.396	1502.3909	1508.3586	1727.6196	2975.7098	2986.5371	2992.7465	3006.1857	3014.5654	3031.1212	3036.08	3038.0858	3043.3153	3059.9638	3096.4046	3105.2318	3136.5662	3161.0611
CCC1CCC=CC1	CC[C@H]1CCC=CC1	
InChI=1S/C8H14/c1-2-8-6-4-3-5-7-8/h3-4,8H,2,5-7H2,1H3	InChI=1S/C8H14/c1-2-8-6-4-3-5-7-8/h3-4,8H,2,5-7H2,1H3/t8-/m1/s1
