19
gdb 66228	2.33961	1.3241	1.12628	3.2134	75.07	-0.2511	0.017	0.2682	1177.4815	0.158408	-419.180895	-419.171381	-419.170437	-419.215636	34.349	
C	-0.6799444736	 1.6563618209	 0.0373914549	-0.466452
C	-0.4655890566	 0.1619739758	 0.1500378577	 0.31293
C	-1.692562979	-0.7002682815	-0.0641773488	-0.125549
O	-2.7641203427	-0.4243088099	 0.8363335949	-0.235681
C	-2.5548119471	-0.8334156929	 2.168404166	-0.189117
C	-1.9700841113	 0.2241358593	 3.0163584655	 0.281096
N	-1.5338998396	 1.0622448933	 3.681750246	-0.328966
C	 0.8569263756	-0.4131534559	-0.2125181778	-0.290923
N	 0.4319660212	-0.370861094	 1.1963938205	-0.342457
H	 0.2569068053	 2.198194717	 0.2002993827	 0.115298
H	-1.0539446777	 1.922577402	-0.9576695968	 0.121196
H	-1.4084131785	 2.0055002512	 0.7738717635	 0.150883
H	-2.1155415483	-0.5201323512	-1.0578898044	 0.114703
H	-1.408387583	-1.7595143904	 0.0081520338	 0.100463
H	-3.5348681757	-1.0926413164	 2.5844913937	 0.153083
H	-1.9062004998	-1.7165017472	 2.2289934136	 0.154948
H	 0.9310469008	-1.4105715866	-0.6391381393	 0.115711
H	 1.6261534379	 0.2772009015	-0.5484938013	 0.116444
H	 0.8854767218	 0.3941763551	 1.6893992058	 0.242388
64.3869	82.6511	106.0127	179.8431	203.3562	268.9634	321.9767	356.7009	370.566	387.7436	413.4957	535.1843	586.1274	734.1375	843.1714	887.763	902.9986	934.0733	948.517	960.1418	997.1811	1028.7439	1038.4906	1096.4436	1115.2174	1130.911	1160.2335	1259.0899	1276.5559	1321.9415	1351.8487	1375.8819	1396.5592	1414.1763	1430.8222	1457.5842	1477.6969	1486.9699	1501.5285	1516.5701	2355.7289	3007.819	3028.4118	3034.9982	3077.9153	3083.2178	3099.623	3104.5681	3121.851	3188.197	3508.3621
CC1(COCC#N)CN1	C[C@@]1(COCC#N)CN1	
InChI=1S/C6H10N2O/c1-6(4-8-6)5-9-3-2-7/h8H,3-5H2,1H3	InChI=1S/C6H10N2O/c1-6(4-8-6)5-9-3-2-7/h8H,3-5H2,1H3/t6-/m0/s1
