20
gdb 93514	2.79322	1.34468	0.94742	4.6867	76.37	-0.2318	0.0148	0.2466	1245.2182	0.171237	-440.314651	-440.305744	-440.3048	-440.348206	33.415	
C	-0.2148901217	 1.5116087272	-0.058023247	-0.422382
C	 0.0103340023	-0.0001665912	 0.0110012651	 0.039305
C	 0.8476972402	-0.4272035421	-1.1890910895	-0.058807
O	 1.187903829	-1.8201555221	-1.210857441	-0.22655
C	 1.3346130728	-2.5125972683	-0.0627632111	 0.4054
O	 1.7539025792	-3.636989113	-0.0914204275	-0.32801
C	 0.8698219404	-1.8652001176	 1.2338900058	-0.294166
N	 0.7390993957	-0.4155143123	 1.2089016373	-0.084285
C	 0.1769234883	 0.0576134629	 2.4657702862	-0.324902
H	 0.7259915896	 2.0486367958	 0.0987577544	 0.132284
H	-0.6101200896	 1.7861109354	-1.0408098198	 0.123978
H	-0.9355331698	 1.8504349834	 0.6890047603	 0.129544
H	-0.9753334759	-0.5073598369	-0.0461570023	 0.063133
H	 0.306167575	-0.2461128255	-2.1212371168	 0.120062
H	 1.7787151689	 0.1519436195	-1.2039519087	 0.118663
H	-0.0895899183	-2.365880936	 1.481082785	 0.113676
H	 1.5820183588	-2.1643392361	 2.0073777913	 0.142676
H	 0.779500087	-0.3304449944	 3.2925441591	 0.126832
H	 0.2054290382	 1.1475240941	 2.5177766258	 0.127053
H	-0.8668968802	-0.2740751626	 2.6255204634	 0.096495
81.979	114.6037	190.8765	222.3316	245.514	288.8619	330.7408	360.1232	409.8467	453.1957	491.2237	542.6053	587.7306	719.8687	757.4232	840.329	921.7385	953.8706	1000.3643	1051.3088	1083.9382	1106.2102	1113.2704	1145.9546	1163.6638	1195.8222	1243.1715	1269.2192	1274.7406	1303.3639	1355.1451	1375.0806	1393.6309	1410.9101	1439.0152	1458.1355	1476.7746	1489.5204	1498.0219	1504.6323	1506.0703	1513.8572	1849.1514	2884.1085	2895.6655	2928.983	3037.0892	3045.5165	3076.9937	3092.2019	3099.9199	3114.2151	3123.9091	3131.8794
CC1COC(=O)CN1C	C[C@H]1COC(=O)CN1C	
InChI=1S/C6H11NO2/c1-5-4-9-6(8)3-7(5)2/h5H,3-4H2,1-2H3	InChI=1S/C6H11NO2/c1-5-4-9-6(8)3-7(5)2/h5H,3-4H2,1-2H3/t5-/m0/s1
