17
gdb 20546	4.4468	1.35687	1.34369	0.5254	69.2	-0.2574	0.0006	0.258	1000.8932	0.143954	-360.059737	-360.051881	-360.050937	-360.092834	28.425	
C	-0.0251660554	 1.5794128589	 0.1771653652	-0.38696
C	-0.0383023096	 0.048402635	 0.0187015171	-0.079716
C	 0.8470362024	-0.6277331082	 1.0807733727	-0.387057
C	-1.4398461066	-0.4929542433	 0.0488631516	 0.320279
N	-1.9758065392	-1.1257854742	-0.999425998	-0.280137
N	-3.197061454	-1.4395646359	-0.5827819871	-0.073654
N	-3.5179942751	-1.0714803005	 0.6484800275	-0.194136
C	-2.4100196634	-0.4638239825	 1.0731358914	-0.130415
H	 0.9972109438	 1.9643765505	 0.105376897	 0.114141
H	-0.6280891163	 2.0629607485	-0.5967773567	 0.123095
H	-0.426351937	 1.8789272754	 1.1517591676	 0.115329
H	 0.3630117048	-0.1977638718	-0.9705754457	 0.096213
H	 0.4812083119	-0.4174520732	 2.0919110948	 0.11533
H	 0.864230399	-1.7134334615	 0.9493495027	 0.123037
H	 1.8755410756	-0.2583633894	 1.0152981897	 0.114182
H	-3.8461980636	-1.9333096273	-1.1732606177	 0.290961
H	-2.3596553172	-0.0451307506	 2.065622378	 0.119509
26.4467	149.3284	198.7245	226.3308	264.5179	318.1268	421.134	484.2022	512.8927	640.7509	723.5331	755.8935	883.4637	891.6961	931.4697	965.5071	995.6764	1019.2472	1071.2497	1123.8816	1166.8752	1179.856	1209.8267	1244.847	1315.2099	1345.6335	1373.9827	1398.226	1419.7061	1423.401	1473.3296	1486.084	1490.5886	1502.4052	1510.7539	1566.7317	3030.4502	3033.8518	3048.4802	3096.5476	3104.0945	3111.0906	3113.1168	3268.0265	3671.4298
CC(C)C1=NNN=C1	CC(C)c1n[nH]nc1	
InChI=1S/C5H9N3/c1-4(2)5-3-6-8-7-5/h3-4H,1-2H3,(H,6,7,8)	InChI=1S/C5H9N3/c1-4(2)5-3-6-8-7-5/h3-4H,1-2H3,(H,6,7,8)
