21
gdb 99875	2.00168	1.43553	1.0605	4.119	79.29	-0.2467	0.0399	0.2867	1248.0983	0.180014	-420.41008	-420.399071	-420.398127	-420.44551	39.959	
C	-0.0595936148	 1.4798003758	 0.0912543258	-0.33742
N	-0.006400509	 0.0238644409	-0.0505696166	-0.302296
C	 0.652637062	-0.4886276994	-1.2564300183	 0.105818
C	-0.040036824	 0.0265570999	-2.5306958856	-0.420216
C	 2.0821366545	-0.0677237037	-1.2855314632	 0.282865
N	 3.1696936577	 0.3207283811	-1.223831929	-0.360317
C	 0.6239132566	-2.0442996168	-1.184561997	 0.109117
C	-0.7857995238	-2.6298913419	-1.1550162978	-0.418914
O	 1.3647923129	-2.4995818708	-2.3055711313	-0.430314
H	 0.91819649	 1.9742661508	-0.0157642845	 0.128122
H	-0.7449388742	 1.9056952924	-0.6462204922	 0.131885
H	-0.4575522102	 1.712885312	 1.0821187225	 0.126044
H	 0.4656217499	-0.3647260589	 0.7605422657	 0.227007
H	 0.1645958976	 1.0864409286	-2.6925150719	 0.133456
H	 0.3282230886	-0.531092631	-3.3928431164	 0.153921
H	-1.1199133903	-0.1106605162	-2.4397195994	 0.129461
H	 1.1444957699	-2.3213408008	-0.2522230276	 0.074875
H	-0.732460487	-3.7129503015	-0.9974632546	 0.108103
H	-1.3709548108	-2.190831334	-0.3444892876	 0.13876
H	-1.3016829109	-2.4525912075	-2.1022772815	 0.129667
H	 1.4050366952	-3.4599213189	-2.2725787196	 0.290377
85.5119	106.3106	146.3824	166.2768	208.1546	210.049	222.0689	244.4466	289.4601	298.1189	332.3075	365.0362	424.3759	438.1824	509.9393	578.1917	634.6487	692.7791	793.2837	882.2292	908.8982	932.848	1015.9175	1068.0144	1088.7085	1117.7564	1148.6972	1156.0341	1186.2554	1195.3861	1223.8522	1298.3691	1374.8896	1393.9713	1402.5414	1420.2274	1459.1535	1485.3128	1487.1195	1496.8156	1501.4153	1502.5457	1512.2065	1526.1552	2339.3597	2955.6771	2990.0905	3040.9879	3063.5387	3086.498	3109.9567	3121.0779	3138.9883	3142.4355	3154.9889	3508.8583	3833.7925
CNC(C)(C#N)C(C)O	CN[C@@](C)(C#N)[C@@H](C)O	
InChI=1S/C6H12N2O/c1-5(9)6(2,4-7)8-3/h5,8-9H,1-3H3	InChI=1S/C6H12N2O/c1-5(9)6(2,4-7)8-3/h5,8-9H,1-3H3/t5-,6+/m1/s1
