12
gdb 62427	2.4677	1.58441	1.37908	2.1684	59.64	-0.2672	-0.0701	0.1971	943.0006	0.074849	-472.581497	-472.573522	-472.572577	-472.614245	28.303	
O	-0.1198619827	 1.4423233196	 0.1561010008	-0.440975
C	-0.0254395902	 0.0583428348	 0.037392484	 0.135721
C	 0.8978099283	-0.5433419275	 1.011167829	 0.219486
N	 1.6358074846	-1.0138260296	 1.7665724708	-0.312728
C	-1.3806376785	-0.6770042696	-0.0036037614	 0.009156
O	-2.0432163383	-0.229253966	-1.1664755294	-0.217933
C	-1.1052063161	-1.3184353782	-1.3159635301	-0.09323
C	 0.2351212611	-0.6080950423	-1.4027807254	 0.367139
O	 1.1555538868	-0.5751912167	-2.1528332401	-0.273201
H	 0.7297010555	 1.8309569093	-0.0859347378	 0.30977
H	-1.9602884766	-1.0498959123	 0.8307797017	 0.149258
H	-1.4606916039	-2.2461570217	-1.7450647121	 0.147538
100.0091	132.2779	175.5916	185.843	257.4493	272.5258	404.1541	491.7469	513.5366	576.9594	681.2102	719.2053	764.5921	830.7528	858.6546	933.3799	972.6178	1027.1087	1059.5515	1062.8535	1172.9969	1214.378	1246.7736	1340.4797	1364.9191	1920.245	2345.0499	3210.466	3222.6938	3796.9207
OC1(C#N)C2OC2C1=O	O[C@@]1(C#N)[C@H]2O[C@H]2C1=O	
InChI=1S/C5H3NO3/c6-1-5(8)3(7)2-4(5)9-2/h2,4,8H	InChI=1S/C5H3NO3/c6-1-5(8)3(7)2-4(5)9-2/h2,4,8H/t2-,4-,5+/m0/s1
