22
gdb 97926	3.36423	0.69026	0.66927	1.4175	91.67	-0.2394	0.051	0.2903	1845.5418	0.192473	-367.1714	-367.160704	-367.15976	-367.210036	38.203	
C	-0.0331710129	 0.9706065437	-0.8886594631	-0.364128
C	-0.2333799228	 0.4198289003	 0.5350795374	-0.313293
C	-1.4862259389	-0.3120236717	 0.6954740564	 0.087116
C	-2.5281287373	-0.9067669815	 0.8069822076	 0.054
C	-3.7844986714	-1.6436447937	 0.9319096921	-0.438409
C	-3.8266381672	-2.9227366948	 0.093261583	 0.361863
C	-2.8353959369	-3.9928354957	 0.4959284669	-0.44116
C	-5.1341979983	-3.2997464599	-0.5022062457	-0.288469
N	-4.0420773575	-2.7910280443	-1.3566279961	-0.340574
H	 0.9176357882	 1.5072254385	-0.9606484697	 0.113165
H	-0.0281769644	 0.1591386311	-1.6213420076	 0.130686
H	-0.8389995428	 1.6599721431	-1.1552276974	 0.125723
H	 0.6075069309	-0.2361663758	 0.794710147	 0.128107
H	-0.200718693	 1.2472927961	 1.2557092528	 0.127242
H	-3.9559560986	-1.9015187409	 1.9863272393	 0.128851
H	-4.6220834572	-0.9957998226	 0.6404400207	 0.116728
H	-3.0362328402	-4.3500034791	 1.512473138	 0.109563
H	-2.8935798632	-4.840600512	-0.1903552418	 0.12505
H	-1.8145103079	-3.5990607904	 0.4694808966	 0.130442
H	-5.3811047983	-4.3473214303	-0.6536338603	 0.114513
H	-5.9925834229	-2.6596412254	-0.3118195268	 0.105109
H	-4.2132392973	-1.8177150947	-1.5990516694	 0.227875
6.0191	44.9067	80.2359	137.9568	201.9411	208.9633	282.5305	306.0184	329.2665	352.1917	389.768	403.9457	474.5154	546.4691	726.1114	750.3099	785.1893	833.1006	900.69	912.6497	930.3862	966.9649	979.6989	1045.4886	1076.7263	1079.3885	1104.4404	1110.8877	1145.7909	1162.9203	1213.0655	1254.776	1286.2652	1309.6065	1345.5988	1352.3236	1390.592	1408.4823	1423.3203	1463.1014	1475.5846	1485.3404	1494.6839	1498.7805	1505.8567	1516.2885	2364.8083	3004.2089	3017.9526	3033.8819	3036.2283	3043.2807	3044.588	3099.4876	3100.3367	3116.3216	3123.0305	3126.8036	3183.3015	3492.4377
CCC#CCC1(C)CN1	CCC#CC[C@@]1(C)CN1	
InChI=1S/C8H13N/c1-3-4-5-6-8(2)7-9-8/h9H,3,6-7H2,1-2H3	InChI=1S/C8H13N/c1-3-4-5-6-8(2)7-9-8/h9H,3,6-7H2,1-2H3/t8-/m0/s1
