20
gdb 22406	6.50421	0.64358	0.61111	1.3829	81.58	-0.2415	0.0071	0.2486	1832.4955	0.168203	-440.22762	-440.217723	-440.216779	-440.263339	35.669	
C	 0.5682035493	 1.2883639748	-0.1304762394	-0.385208
C	 0.1026248643	-0.1173784977	 0.2082024599	-0.041651
O	-1.2079720735	-0.2915603589	-0.3024899592	-0.249801
C	-1.7361787173	-1.5659960831	-0.0791766136	 0.14656
C	-2.267810809	-1.8984851801	 1.3630842129	-0.342411
C	-3.5529169312	-2.334691134	 0.6943424138	 0.40902
C	-3.1700910145	-1.7398685015	-0.64500421	-0.347842
N	-4.4972715824	-3.0519834956	 1.1367040415	-0.232268
O	-5.468725667	-3.2722522786	 0.1395506496	-0.394812
H	 1.5813845007	 1.4555418234	 0.2469074683	 0.115883
H	 0.5700115453	 1.4408087382	-1.2134054237	 0.128191
H	-0.0967553114	 2.0314919611	 0.3186098735	 0.127647
H	 0.7795672586	-0.8683540671	-0.2324905859	 0.088556
H	 0.1125397031	-0.2747293821	 1.2988734504	 0.091955
H	-1.0481814469	-2.3447717978	-0.4399558872	 0.073538
H	-1.733825973	-2.6421958759	 1.9585023099	 0.118534
H	-2.3920742322	-0.9822865266	 1.9511578858	 0.125211
H	-3.6400222569	-0.7674207482	-0.8255260867	 0.135693
H	-3.306071958	-2.3708157953	-1.5254365938	 0.127649
H	-6.1026608581	-3.8346359552	 0.5971408739	 0.305554
41.3505	74.6352	89.3689	163.5366	211.6878	246.0151	263.431	328.1197	362.4621	421.5487	460.2376	473.4518	541.2372	693.6707	780.8933	788.9821	821.2786	899.4433	929.8398	967.6374	974.8167	1036.251	1055.6524	1075.6406	1140.3002	1162.4594	1177.5574	1187.8133	1199.2098	1219.4083	1248.2556	1284.6311	1297.6266	1368.639	1402.1468	1404.5674	1438.4161	1441.9002	1465.4093	1483.7324	1499.4524	1528.2893	1789.0465	2960.9975	2989.4713	2993.8949	3045.5874	3046.6038	3060.3735	3112.8247	3120.3117	3120.9918	3122.7577	3818.577
CCOC1CC(C1)=NO	CCO[C@H]1CC(=NO)C1	
InChI=1S/C6H11NO2/c1-2-9-6-3-5(4-6)7-8/h6,8H,2-4H2,1H3	InChI=1S/C6H11NO2/c1-2-9-6-3-5(4-6)7-8/h6,8H,2-4H2,1H3/t6-
