17
gdb 80880	2.28373	1.99328	1.56292	3.5044	66.64	-0.2429	0.0526	0.2955	924.3148	0.134865	-458.897796	-458.890113	-458.889169	-458.929521	30.263	
C	 0.0041884975	 1.467560991	-0.025529379	-0.515481
C	-0.0587510062	-0.0303627202	 0.0310622023	 0.339564
O	 0.4190239886	-0.730449694	-1.1557398553	-0.293926
C	-0.2693788952	-1.886850973	-0.623608453	-0.045548
C	 0.5151216794	-2.1757399655	 0.6839050963	 0.037832
O	 1.8027728539	-1.5521045589	 0.7154886069	-0.234033
C	 0.6686572006	-0.809789283	 1.1725455325	-0.004615
C	-1.3594233243	-0.8803510704	-0.1152527435	 0.073567
O	-2.1011155188	-1.1215684537	 1.0469954313	-0.431035
H	 1.0434605812	 1.802910405	-0.0965051583	 0.141928
H	-0.5442781153	 1.850996167	-0.8904372985	 0.127026
H	-0.4326640111	 1.8959307791	 0.8823189191	 0.130447
H	-0.4457999837	-2.6807827201	-1.3481395443	 0.082088
H	 0.3630538746	-3.0565461882	 1.2957890012	 0.105285
H	 0.6527608956	-0.4948143604	 2.2092222076	 0.107045
H	-1.9725473018	-0.5141214001	-0.9463791433	 0.086435
H	-2.961980965	-1.4710374247	 0.800206698	 0.293421
181.7656	191.325	207.0546	223.5806	267.9247	313.0223	433.6973	505.7335	594.579	608.7329	695.0487	778.2763	786.7345	832.2692	849.3895	872.0713	895.9694	896.7387	942.3344	988.1536	997.9452	1061.6	1116.299	1127.0241	1150.0818	1199.526	1206.766	1236.5432	1260.7269	1266.8832	1303.9924	1318.0546	1396.2051	1411.7882	1441.0576	1479.4156	1492.8965	3040.1147	3049.7265	3112.5488	3117.4844	3131.1324	3183.543	3196.7441	3836.6104
CC12OC(C3OC13)C2O	C[C@@]12O[C@@H]([C@H]3O[C@@H]13)[C@H]2O	
InChI=1S/C6H8O3/c1-6-4(7)2(9-6)3-5(6)8-3/h2-5,7H,1H3	InChI=1S/C6H8O3/c1-6-4(7)2(9-6)3-5(6)8-3/h2-5,7H,1H3/t2-,3+,4+,5+,6-/m0/s1
