23
gdb 81779	2.09448	1.66593	1.28322	1.7424	85.09	-0.2415	0.0814	0.3228	1154.2125	0.202895	-388.275303	-388.265283	-388.264339	-388.309032	38.786	
C	-0.0587046539	 1.5769478578	-0.1292377319	-0.412667
C	 0.0231973042	 0.0612021734	-0.0077364729	-0.049028
C	 1.0574581639	-0.6549806565	-0.8849883586	-0.066256
O	 2.3563098626	-0.216275714	-0.4521252996	-0.302696
C	 1.7162945574	-1.2819334229	 0.2717155403	 0.413855
C	 2.4732826802	-2.561334093	 0.4322831092	-0.513216
C	 0.7222007805	-0.6107864284	 1.2603113801	 0.24442
C	 1.3648841238	 0.3213659373	 2.2836987661	-0.451515
C	-0.2039612384	-1.6247437152	 1.9326901415	-0.453251
H	 0.9372276058	 2.0257428194	-0.1026882246	 0.132879
H	-0.5320067732	 1.8622702243	-1.0755319488	 0.110698
H	-0.6542444688	 2.012519184	 0.6800818917	 0.111974
H	-0.9689336953	-0.3829612858	-0.1443922863	 0.067779
H	 0.972793082	-0.9856537202	-1.9155407248	 0.092111
H	 2.9590974299	-2.8338694857	-0.5085048499	 0.132889
H	 3.2515233608	-2.4612304938	 1.1976875531	 0.129015
H	 1.8100556874	-3.3779866272	 0.7333936613	 0.125037
H	 2.0886825876	 0.9867099553	 1.8087473394	 0.132836
H	 0.6105332308	 0.9349179789	 2.7889638096	 0.109564
H	 1.8879935609	-0.2544600121	 3.0562511791	 0.106637
H	 0.329747309	-2.2107259963	 2.6897384584	 0.112229
H	-1.0352210697	-1.116032485	 2.4335339752	 0.115667
H	-0.6320088975	-2.3252669641	 1.2068436527	 0.111039
118.6317	188.0462	199.5518	217.1362	221.0936	226.0779	252.4461	264.9745	292.2175	345.3245	378.3169	456.8499	526.5535	557.7432	641.6188	656.501	738.6339	810.4141	858.4372	893.2436	950.8558	959.9828	985.1272	1006.0718	1018.8864	1041.895	1069.8372	1099.6451	1119.8319	1164.7082	1201.8016	1215.1643	1252.7708	1279.6123	1298.8838	1365.1839	1394.5191	1398.9572	1406.1418	1415.8816	1460.4799	1480.7228	1484.1685	1489.3997	1492.5984	1496.5458	1501.5868	1504.0249	1516.7527	3019.7296	3027.6101	3032.3683	3034.4411	3046.1022	3082.6622	3088.6113	3089.9314	3091.7709	3096.7166	3120.1795	3120.7605	3129.5583	3164.4172
CC1C2OC2(C)C1(C)C	C[C@H]1[C@H]2O[C@@]2(C)C1(C)C	
InChI=1S/C8H14O/c1-5-6-8(4,9-6)7(5,2)3/h5-6H,1-4H3	InChI=1S/C8H14O/c1-5-6-8(4,9-6)7(5,2)3/h5-6H,1-4H3/t5-,6+,8+/m0/s1
