20
gdb 107178	3.45237	1.21721	1.12012	1.1945	78.65	-0.2177	0.0624	0.28	1180.5013	0.17013	-403.053331	-403.044668	-403.043724	-403.086431	33.808	
C	-0.122362106	 1.5716039107	 0.0594666691	-0.37975
C	-0.0295416549	 0.0462600508	-0.0760961223	-0.279172
C	-1.3545291153	-0.6624814006	 0.0315633832	 0.331143
C	-1.7754109423	-1.769339482	-0.8534476229	-0.304527
N	-2.4441462986	-0.4413238871	-0.9831881221	-0.189964
C	-3.4044660927	-0.2081997278	 0.1544585704	-0.069468
C	-3.5482329731	-1.2096755418	 1.2680716331	 0.091526
O	-3.5940055912	-2.6098659002	 1.2072314774	-0.420049
C	-2.3050568657	-0.3911827791	 1.2211023313	-0.178066
H	 0.8572762215	 2.0339411475	-0.0936511078	 0.11169
H	-0.813606029	 1.977110966	-0.6850538946	 0.134681
H	-0.4770972299	 1.8740489733	 1.0498977433	 0.113831
H	 0.4127199832	-0.2045061077	-1.0469018567	 0.104935
H	 0.6472227681	-0.3605440878	 0.68835532	 0.100896
H	-1.1360917879	-1.9594634197	-1.7121031394	 0.111089
H	-2.3166924141	-2.6213758026	-0.4723457171	 0.145485
H	-4.1196198702	 0.5939931989	 0.0102548541	 0.098258
H	-4.2258033905	-0.8027033187	 2.0246034577	 0.096412
H	-4.4494869544	-2.8557849152	 0.8373238591	 0.287631
H	-2.0205045671	 0.2588392431	 2.0389273844	 0.093419
81.5916	122.3997	188.0878	222.4497	266.4614	304.8109	335.7804	443.2623	450.0011	549.8772	575.8346	647.1928	719.2291	721.5019	745.5608	804.6225	838.3066	911.2146	923.0325	979.0896	990.0849	995.9201	1037.5279	1049.2758	1071.1874	1097.0835	1100.5298	1137.2036	1139.6192	1212.4058	1241.5726	1275.5579	1292.1559	1317.0792	1335.637	1361.5545	1402.6052	1407.1062	1461.4297	1471.5438	1497.7221	1500.5579	1508.7146	3014.4556	3040.536	3058.6295	3062.3499	3106.8698	3117.8806	3125.1013	3168.1678	3188.5048	3264.1675	3797.2478
CCC12CN1C1C(O)C21	CC[C@]12CN1[C@H]1[C@@H](O)[C@@H]21	
InChI=1S/C7H11NO/c1-2-7-3-8(7)5-4(7)6(5)9/h4-6,9H,2-3H2,1H3	InChI=1S/C7H11NO/c1-2-7-3-8(7)5-4(7)6(5)9/h4-6,9H,2-3H2,1H3/t4-,5+,6-,7+,8?/m0/s1
