17
gdb 19983	3.63568	1.51263	1.20135	0.8356	75.98	-0.2309	0.0344	0.2653	1025.7219	0.140883	-326.641267	-326.633359	-326.632415	-326.673702	29.965	
C	-0.27470364	-1.2285693951	 0.0678711193	-0.473695
C	-0.1355912679	-0.0335650002	 0.0597902914	 0.345387
C	 0.0110800246	 1.395046442	 0.0105189234	-0.175017
C	 0.5372465786	 2.136499991	 1.2065263639	-0.244154
N	 1.3402802064	 2.0410734655	 0.0010109499	-0.09507
C	 2.5094673816	 1.203991146	 0.0447098263	 0.082689
C	 3.3443039691	 1.1364548159	-1.2030912988	-0.272085
C	 3.8386091173	 1.9072323406	-0.001241517	-0.281562
H	-0.4000723068	-2.2829225993	 0.0812922994	 0.199939
H	-0.7125508226	 1.9003554876	-0.6249949798	 0.117062
H	 0.1412443876	 3.120208996	 1.4446276082	 0.120068
H	 0.8231080447	 1.5308774917	 2.0642906128	 0.12172
H	 2.4410253931	 0.2981146732	 0.6472283327	 0.089014
H	 3.8175955159	 0.1933168346	-1.451070389	 0.112747
H	 2.9960949664	 1.7119169084	-2.0527339233	 0.121111
H	 3.8169997999	 2.98911089	-0.0607767805	 0.120805
H	 4.6545778921	 1.497130212	 0.5832224911	 0.111042
67.2494	121.9219	182.2749	245.5721	277.3031	363.8247	446.4204	532.3657	594.7615	625.8108	663.0081	703.0275	778.8975	796.622	834.9614	879.829	929.1505	965.9752	1016.3738	1043.1735	1058.6838	1076.1552	1089.6789	1117.2696	1130.1539	1147.0307	1189.5805	1196.8564	1230.0639	1322.5894	1368.8288	1398.4353	1457.1057	1495.1923	1504.7747	2232.3614	3095.8618	3098.3553	3128.9141	3138.987	3143.8039	3187.4411	3223.2583	3237.0812	3503.4449
C#CC1CN1C1CC1	C#C[C@H]1CN1C1CC1	
InChI=1S/C7H9N/c1-2-6-5-8(6)7-3-4-7/h1,6-7H,3-5H2	InChI=1S/C7H9N/c1-2-6-5-8(6)7-3-4-7/h1,6-7H,3-5H2/t6-,8?/m0/s1
