18
gdb 85191	2.66923	1.15675	0.90373	6.0429	76.64	-0.2544	-0.0329	0.2215	1299.0329	0.14626	-401.975066	-401.965895	-401.964951	-402.009855	33.008	
C	-0.2348123642	 1.5417951777	-0.0699392969	-0.397957
C	 0.0178935044	 0.0369963905	-0.0385335532	-0.040757
C	 1.2219372587	-0.4090995849	-0.9323123729	-0.345227
C	 2.0539923444	-0.5082226193	 0.3541288558	 0.391308
O	 3.2206581662	-0.4420902702	 0.6049740987	-0.281891
C	 0.7865588626	-0.4956583044	 1.2272978319	-0.09643
C	 0.7992514817	 0.2952539089	 2.5415235878	-0.370593
C	 1.4849933682	-0.4207724846	 3.6155438268	 0.271184
N	 2.0051135611	-1.0011947941	 4.4682667472	-0.301868
H	 0.6884022999	 2.1115944889	 0.0871711372	 0.125864
H	-0.6397794156	 1.8392452515	-1.0420749376	 0.127684
H	-0.954107593	 1.8489900886	 0.6961588866	 0.122608
H	-0.9104841217	-0.5035143123	-0.2338646128	 0.086752
H	 1.0769699118	-1.3906261028	-1.3943029549	 0.13569
H	 1.5830787375	 0.2896545223	-1.6910349626	 0.131488
H	 0.4865306789	-1.5312764169	 1.4236832293	 0.125805
H	 1.2858063335	 1.2662933984	 2.4036561238	 0.159653
H	-0.2280463246	 0.4949846128	 2.8683146757	 0.156687
52.6783	67.8941	114.632	190.7462	216.7594	261.9516	353.5468	380.6233	409.1092	456.0999	503.69	557.3219	708.2514	742.9651	829.9973	841.2376	876.2825	938.0738	959.5605	1012.0232	1028.4457	1082.4031	1094.3372	1132.3293	1144.903	1203.6598	1214.3974	1248.0573	1270.1771	1316.9297	1362.3972	1369.3446	1416.0228	1444.0924	1460.108	1497.8666	1502.0801	1894.1944	2365.7836	3029.5811	3043.6698	3051.1771	3060.1736	3080.9349	3088.3956	3101.141	3105.5289	3119.2254
CC1CC(=O)C1CC#N	C[C@H]1CC(=O)[C@H]1CC#N	
InChI=1S/C7H9NO/c1-5-4-7(9)6(5)2-3-8/h5-6H,2,4H2,1H3	InChI=1S/C7H9NO/c1-5-4-7(9)6(5)2-3-8/h5-6H,2,4H2,1H3/t5-,6-/m0/s1
