19
gdb 86228	2.17331	1.42982	1.0709	3.7991	75.15	-0.2485	0.0251	0.2736	1189.459	0.160218	-419.221394	-419.21236	-419.211415	-419.255699	33.623	
C	 0.1473141827	 1.4293394428	-0.0507694941	-0.422706
C	 0.1343781997	-0.0756185527	 0.1806830679	 0.066934
C	 0.3432326519	-0.9359076191	-1.1070724467	-0.247233
C	 1.4629439494	-1.9300473659	-0.7617924729	 0.115338
O	 2.6788235014	-1.3999399353	-1.2728659355	-0.436882
C	 1.500267663	-1.871683926	 0.8007434767	-0.199994
N	 1.1902870474	-0.4804547531	 1.1383294597	-0.290967
C	 0.5142627985	-2.7930152208	 1.3876339116	 0.305678
N	-0.2594347219	-3.5431631594	 1.8047584285	-0.326448
H	 1.0843698377	 1.7420519113	-0.5271115009	 0.120724
H	-0.6755079355	 1.725728696	-0.7076277355	 0.125273
H	 0.0413067414	 1.9695201639	 0.8945029209	 0.130825
H	-0.8242459728	-0.3541741965	 0.6340192809	 0.101979
H	-0.5724495487	-1.458733347	-1.392432787	 0.117156
H	 0.6662143029	-0.3306011861	-1.9574543872	 0.121118
H	 1.2782032512	-2.9409598761	-1.143803586	 0.089468
H	 3.3711792788	-2.0593284526	-1.1574267039	 0.286996
H	 2.4883268367	-2.1472235705	 1.1825353561	 0.114614
H	 2.0297261562	 0.0568976571	 0.9335713474	 0.228126
41.6083	95.9705	149.7416	227.4982	249.4791	313.624	334.2369	380.1088	397.7056	424.4517	525.3663	565.2684	654.6442	788.0287	810.1581	819.3745	879.6927	890.3817	920.5104	974.8043	983.2231	1031.8775	1077.5446	1108.8449	1138.1394	1153.0877	1199.3869	1214.816	1261.0714	1289.4457	1316.1653	1343.9519	1355.9431	1380.2029	1410.3398	1422.8185	1473.9205	1483.6728	1496.6568	1499.4074	2357.1836	3028.1202	3034.5171	3036.2757	3069.0874	3073.3666	3101.2527	3117.5217	3122.2001	3494.7601	3810.2246
CC1CC(O)C(N1)C#N	C[C@H]1C[C@@H](O)[C@@H](N1)C#N	
InChI=1S/C6H10N2O/c1-4-2-6(9)5(3-7)8-4/h4-6,8-9H,2H2,1H3	InChI=1S/C6H10N2O/c1-4-2-6(9)5(3-7)8-4/h4-6,8-9H,2H2,1H3/t4-,5-,6+/m0/s1
