16
gdb 5530	3.26127	1.79296	1.24615	2.7326	67.59	-0.1913	0.0325	0.2238	971.1036	0.131854	-379.969148	-379.961293	-379.960349	-380.001735	28.828	
C	 0.0617326652	 1.5841807388	 0.3383972326	-0.365632
C	 0.0090301492	 0.1004280555	-0.0700625269	-0.309494
C	-1.3654602194	-0.4788049676	-0.1028320536	 0.215343
C	-2.1698746692	-0.8993511057	-1.1338184996	 0.269645
O	-1.853774517	-0.8854381351	-2.4516009832	-0.442018
N	-3.3785303121	-1.3578610885	-0.6948459624	-0.339847
C	-3.3358567435	-1.2242909799	 0.6163946589	 0.003637
N	-2.1533948008	-0.7004687154	 1.023885993	-0.300286
H	 1.0920513222	 1.9538615343	 0.3335289447	 0.113827
H	-0.5275584242	 2.1970586485	-0.3497502592	 0.128647
H	-0.3407316423	 1.7376111317	 1.3458531277	 0.103718
H	 0.4328491391	-0.0172431477	-1.0721464412	 0.131496
H	 0.654003467	-0.4822946991	 0.6030125358	 0.10108
H	-2.615144091	-1.2569482113	-2.9125810339	 0.298507
H	-4.1240153854	-1.4901425057	 1.303947082	 0.128897
H	-1.8822620677	-0.5129986928	 1.9743264052	 0.262481
48.9271	141.7742	191.9603	277.3025	293.4262	342.0005	392.9743	475.204	493.9608	629.957	674.1546	731.1902	747.0222	778.0325	784.4899	954.192	969.6186	1041.038	1079.3171	1109.9513	1140.6613	1232.3873	1273.3639	1308.9223	1339.8363	1365.705	1400.0429	1411.7086	1478.277	1493.6155	1498.397	1505.3087	1520.3234	1687.7765	3003.7487	3032.5876	3079.0394	3101.6	3115.5223	3256.6404	3666.6624	3808.6347
CCC1=C(O)N=CN1	CCc1c(O)nc[nH]1	
InChI=1S/C5H8N2O/c1-2-4-5(8)7-3-6-4/h3,8H,2H2,1H3,(H,6,7)	InChI=1S/C5H8N2O/c1-2-4-5(8)7-3-6-4/h3,8H,2H2,1H3,(H,6,7)
