19
gdb 9268	2.61529	1.3915	1.07475	3.2891	71.94	-0.2825	0.0126	0.295	1171.5494	0.163294	-365.074865	-365.06524	-365.064296	-365.110194	33.61	
C	 0.0109814809	 1.4689667327	 0.7308805404	-0.388044
C	-0.1587901084	 0.1190085923	 0.030564321	-0.175718
C	-1.5762152049	-0.4445893102	 0.1252804031	 0.133152
C	-1.745507812	-1.7394305318	-0.668950443	-0.403838
O	-1.8297847026	-0.6655161037	 1.5262076091	-0.242562
C	-3.1776459719	-0.7436875438	 1.8971074304	-0.194354
C	-3.8929443868	 0.5439280627	 1.7653817327	 0.251868
N	-4.447092231	 1.5516252684	 1.6534521024	-0.306474
H	 1.0402925497	 1.8286208347	 0.6421318106	 0.11204
H	-0.6475263714	 2.2272785795	 0.293472578	 0.120711
H	-0.2324507146	 1.3877076501	 1.7929440962	 0.132353
H	 0.0978338592	 0.2089130007	-1.0316186073	 0.098949
H	 0.5308333327	-0.6192436042	 0.4587909462	 0.105369
H	-2.2853456806	 0.3126712812	-0.2430681935	 0.091357
H	-2.7570670284	-2.1476755945	-0.580319448	 0.1151
H	-1.560754226	-1.5578334122	-1.732095824	 0.124365
H	-1.038142736	-2.4970289681	-0.3176660557	 0.127404
H	-3.7358969541	-1.4999933969	 1.3259758906	 0.138562
H	-3.200986954	-1.0464296572	 2.9487128808	 0.159762
29.6728	79.6912	106.3208	197.502	216.0245	227.9742	266.0315	295.0488	370.7664	386.6046	447.3357	490.0769	623.1149	755.6836	822.4476	884.82	898.3192	971.6764	1000.5087	1031.3622	1039.0286	1121.157	1131.1074	1147.4587	1199.7997	1282.6183	1309.2478	1330.0579	1375.2687	1396.3433	1402.7334	1411.2007	1412.9583	1470.2176	1475.5951	1495.7748	1496.6518	1499.6385	1509.0157	2356.0723	2990.1398	3005.524	3028.8749	3040.1645	3040.72	3067.3498	3084.8343	3105.8192	3107.0295	3117.3184	3127.0369
CCC(C)OCC#N	CC[C@@H](C)OCC#N	
InChI=1S/C6H11NO/c1-3-6(2)8-5-4-7/h6H,3,5H2,1-2H3	InChI=1S/C6H11NO/c1-3-6(2)8-5-4-7/h6H,3,5H2,1-2H3/t6-/m1/s1
