14
gdb 28994	3.16537	1.49563	1.01571	3.1204	81.18	-0.2356	-0.0517	0.1839	1082.3521	0.102023	-399.579205	-399.571842	-399.570898	-399.610903	28.546	
O	 0.0698653272	 1.3321909305	-0.0226278984	-0.430977
C	 0.0489399252	-0.0169406252	 0.0107843964	 0.265643
C	 0.0327219445	-0.7203123021	-1.1976481725	-0.048734
N	 0.0116826709	-2.0469478896	-1.2724782914	-0.264326
C	 0.0057869996	-2.7419893771	-0.1278439131	-0.004543
C	 0.0205183752	-2.1458324574	 1.1239524327	-0.2043
C	 0.0427344415	-0.7478519321	 1.2131837381	 0.057867
C	 0.0591110188	-0.0415494514	 2.4472945602	 0.171255
C	 0.0738279159	 0.6224330948	 3.4537486569	-0.393188
H	 0.0789549693	 1.6621284526	 0.887460558	 0.299755
H	 0.0374453589	-0.1596579845	-2.1287562508	 0.121633
H	-0.0115087882	-3.8240064635	-0.2203693002	 0.110922
H	 0.0150854498	-2.7443272195	 2.0272137837	 0.111771
H	 0.0863879313	 1.1783894646	 4.3590807104	 0.207224
130.5308	137.774	237.0769	378.4527	384.3002	460.9964	466.4055	491.4893	562.5829	579.043	614.265	618.1631	676.5879	754.1815	781.312	851.6577	861.9988	947.1431	974.4286	1077.2041	1153.1448	1230.6972	1246.7454	1279.2164	1325.5093	1360.2119	1475.6715	1515.199	1585.8557	1638.1021	2215.8104	3165.7519	3170.2769	3206.1184	3495.7006	3733.2651
OC1=CN=CC=C1C#C	Oc1cnccc1C#C	
InChI=1S/C7H5NO/c1-2-6-3-4-8-5-7(6)9/h1,3-5,9H	InChI=1S/C7H5NO/c1-2-6-3-4-8-5-7(6)9/h1,3-5,9H
