23
gdb 120323	2.87092	1.1031	1.043	0.9247	85.65	-0.2327	0.0782	0.3109	1331.7724	0.207046	-388.287861	-388.278773	-388.277828	-388.32217	34.456	
C	 0.1105135957	 1.5316541977	-0.2951668878	-0.389273
C	-0.1070810455	 0.0424684208	-0.5001362544	-0.033602
O	 1.1021966248	-0.529054346	-0.9758846992	-0.248394
C	 1.0167745774	-1.9081601575	-1.1612021878	 0.130156
C	 0.5428242624	-2.5330690152	-2.4548000157	-0.096518
C	 0.4597639503	-1.6699396504	-3.7082982604	-0.210884
C	 1.8089721889	-0.9162784145	-3.8012843059	-0.21094
C	 2.8280550879	-1.7852511798	-3.0260753736	-0.203804
C	 2.0112372666	-2.6062756319	-2.0358731419	-0.107437
H	 0.9208469248	 1.7055935844	 0.4184985887	 0.127178
H	 0.3754849234	 2.0181189007	-1.2383962577	 0.126453
H	-0.7999554356	 1.9996980465	 0.0911905628	 0.114225
H	-0.3971583137	-0.4386010522	 0.4488832422	 0.086587
H	-0.9223819848	-0.1413363906	-1.2164923949	 0.093601
H	 0.7277649195	-2.4429157184	-0.253275772	 0.076943
H	-0.1077486629	-3.3993999441	-2.3878795314	 0.075066
H	 0.3254169782	-2.3309942642	-4.5728861956	 0.096362
H	-0.3927245543	-0.9817944946	-3.7029292072	 0.094361
H	 2.114680467	-0.7494482911	-4.8381763953	 0.08651
H	 1.7220264529	 0.0583503248	-3.3200856284	 0.117121
H	 3.345565778	-2.4756752623	-3.7025342453	 0.094518
H	 3.5956310164	-1.1754499756	-2.5389501756	 0.103115
H	 2.4483856626	-3.5251073466	-1.6587169535	 0.078655
64.9732	90.9069	113.6764	200.3162	221.0937	247.169	270.7431	384.6281	497.7447	537.8313	666.3447	709.8892	758.2957	795.1985	814.3585	819.6886	883.8079	886.9917	896.5166	946.4774	983.6839	1032.9105	1045.3725	1050.1291	1088.2165	1093.1534	1115.2906	1125.9201	1155.0233	1187.8007	1189.7677	1215.7165	1242.0731	1260.5552	1292.8572	1317.033	1322.0462	1333.8425	1361.8048	1363.4702	1398.0135	1414.5984	1460.6522	1483.2142	1486.9927	1490.4513	1499.4893	1511.7703	1528.8654	2964.9004	3000.3977	3029.661	3033.8403	3043.961	3063.1952	3066.2913	3068.2865	3075.4295	3117.4878	3120.668	3128.176	3151.1355	3161.9837
CCOC1C2CCCC12	CCO[C@H]1[C@H]2CCC[C@@H]12	
InChI=1S/C8H14O/c1-2-9-8-6-4-3-5-7(6)8/h6-8H,2-5H2,1H3	InChI=1S/C8H14O/c1-2-9-8-6-4-3-5-7(6)8/h6-8H,2-5H2,1H3/t6-,7+,8-
