17
gdb 52200	3.35987	0.76048	0.66743	3.6841	75.29	-0.2603	-0.0323	0.228	1619.2299	0.134141	-417.99192	-417.982642	-417.981698	-418.027596	32.006	
O	-0.136240401	-0.1288230624	-0.1738650936	-0.229348
C	 0.065415904	 1.0324595849	 0.0657870143	 0.157662
C	 1.3496664533	 1.7686150265	-0.2491914564	-0.274865
C	 1.0952655154	 3.0511933044	-1.0496036103	-0.162229
N	 2.3337726887	 3.8255260848	-1.1361229766	-0.075271
C	 3.205924462	 3.5653559714	-2.2660149333	-0.23971
C	 2.4417624443	 4.8542794492	-2.179503869	-0.148041
C	 1.3602167856	 5.0898782208	-3.1057536375	 0.285118
N	 0.4825413846	 5.3016251628	-3.8289969428	-0.330709
H	-0.7124894262	 1.6588427818	 0.5627400381	 0.077922
H	 1.8196662798	 2.0488665604	 0.7036646305	 0.137225
H	 2.0241768528	 1.0892340323	-0.7774106878	 0.126591
H	 0.68365336	 2.804280484	-2.0406564632	 0.125549
H	 0.3523774667	 3.6731668596	-0.5371073485	 0.12583
H	 4.2729724974	 3.5717674946	-2.0651129573	 0.139441
H	 2.8751283526	 2.8540661456	-3.0208237122	 0.139906
H	 2.95466865	 5.7593309495	-1.8668647744	 0.144928
50.1017	71.0587	87.3651	113.588	198.5766	220.899	311.0011	361.6775	400.7812	517.5617	558.012	638.6119	757.5818	780.1099	829.9386	868.7555	909.1644	1004.9794	1027.1737	1038.2289	1091.3642	1114.9225	1123.6929	1134.9765	1161.3267	1236.6243	1277.2531	1314.9096	1323.658	1368.6437	1399.9726	1430.7854	1465.2752	1493.1874	1512.1902	1840.0614	2351.1978	2857.3425	2986.1068	3027.8529	3062.4434	3102.9471	3107.0073	3153.3595	3198.6237
O=CCCN1CC1C#N	O=CCCN1C[C@H]1C#N	
InChI=1S/C6H8N2O/c7-4-6-5-8(6)2-1-3-9/h3,6H,1-2,5H2	InChI=1S/C6H8N2O/c7-4-6-5-8(6)2-1-3-9/h3,6H,1-2,5H2/t6-,8?/m1/s1
