19
gdb 98796	2.88003	1.12924	0.89784	2.164	77.8	-0.2445	-0.0384	0.206	1342.5931	0.156603	-423.063559	-423.053967	-423.053023	-423.099315	33.984	
C	 0.286190978	 1.5348409603	 0.1377133469	-0.380999
C	 0.3070672323	 0.0172687066	-0.0244632495	-0.286312
C	 0.5878721733	-0.4419162447	-1.4435677354	 0.365868
O	 0.7215878358	 0.3189405496	-2.3741621053	-0.29788
C	 0.753795668	-1.9480981213	-1.6156015957	-0.216343
C	 1.1298593904	-2.4827997685	-3.0219215956	-0.252515
C	 2.4606186255	-3.0825883674	-2.4715318653	-0.332562
C	 2.1228345646	-2.4845342681	-1.1020235132	 0.391565
O	 2.6825890921	-2.4113437153	-0.048315203	-0.283886
H	 1.249704932	 1.9700129571	-0.1399278897	 0.131949
H	-0.4724404351	 1.9868702603	-0.5061648108	 0.130638
H	 0.0703637673	 1.8081827968	 1.1741408912	 0.112481
H	 1.0607200988	-0.455635463	 0.6208983216	 0.151776
H	-0.6492844592	-0.4289984326	 0.2836788105	 0.120017
H	-0.069879314	-2.4672057226	-1.113386885	 0.115948
H	 0.4332590119	-3.210443967	-3.4384771228	 0.111183
H	 1.2711494408	-1.6665982079	-3.7309386489	 0.140352
H	 2.514288051	-4.1755125577	-2.450237393	 0.137165
H	 3.3895602066	-2.7040362345	-2.908041977	 0.141556
47.9304	64.6088	72.6037	131.1211	191.156	202.2207	297.9598	364.3057	427.6868	464.6051	574.4723	608.1453	675.1601	728.063	743.7154	805.0318	882.5693	928.44	955.1196	991.5505	1015.2454	1025.3752	1058.4626	1100.0975	1109.5584	1135.0833	1165.3937	1212.8292	1227.3565	1266.8526	1278.8259	1304.5414	1379.0597	1414.0117	1435.2182	1455.0343	1490.7436	1493.1029	1498.0235	1800.2074	1882.9551	3014.9316	3044.8309	3051.8768	3058.1072	3061.9349	3094.2758	3107.7214	3123.4185	3126.9362	3152.3007
CCC(=O)C1CCC1=O	CCC(=O)[C@H]1CCC1=O	
InChI=1S/C7H10O2/c1-2-6(8)5-3-4-7(5)9/h5H,2-4H2,1H3	InChI=1S/C7H10O2/c1-2-6(8)5-3-4-7(5)9/h5H,2-4H2,1H3/t5-/m1/s1
