18
gdb 57321	3.00889	1.02588	0.91815	1.5802	71.59	-0.2739	-0.0228	0.2511	1334.6084	0.143539	-476.254262	-476.243879	-476.242934	-476.290009	36.615	
C	 0.0535987112	 1.5359273995	-0.0658279961	-0.425691
C	 0.0244329222	-0.0026478657	-0.0070530772	 0.222895
C	 0.8333689016	-0.5360347305	 1.1897955171	-0.425802
O	-1.3087139753	-0.4805862434	 0.0320590993	-0.448449
C	 0.6043274908	-0.5710666773	-1.305623636	 0.471743
O	 0.0410578609	-1.2634568705	-2.0998984323	-0.329837
O	 1.9144022176	-0.1576969336	-1.4359809444	-0.216565
C	 2.6124127388	-0.5661387805	-2.5444702751	 0.116887
N	 3.8060347954	-0.187282534	-2.6595039419	-0.423452
H	 1.0720312061	 1.9137511128	-0.175172174	 0.146412
H	-0.5530778554	 1.893359172	-0.902196203	 0.136159
H	-0.3665540559	 1.9411277799	 0.8614277284	 0.112291
H	 0.4138191174	-0.1328060895	 2.1181932294	 0.112288
H	 0.7720092487	-1.6268471493	 1.2310328363	 0.13615
H	 1.8820737028	-0.2386189041	 1.1293578753	 0.146468
H	-1.7091178959	-0.143443708	 0.84008572	 0.281799
H	 2.019041576	-1.1912615054	-3.2117648859	 0.146235
H	 4.202807833	-0.5584827823	-3.52166599	 0.240468
45.735	100.0783	109.6502	153.973	213.7024	229.5878	257.3711	266.3408	299.0805	337.5588	360.6161	432.1297	450.4214	555.2239	618.2946	759.5486	833.3703	853.3083	918.8339	927.4252	990.0889	1012.5574	1020.9949	1072.537	1107.439	1183.048	1199.3763	1229.2162	1267.8745	1377.1197	1388.8413	1389.3392	1412.8771	1479.1012	1484.2411	1496.9985	1514.1561	1745.9244	1863.5477	3036.3623	3040.2087	3108.8202	3112.0514	3139.0051	3141.1176	3143.2112	3506.7615	3821.4146
CC(C)(O)C(=O)OC=N	CC(C)(O)C(=O)O[CH][NH]	
InChI=1S/C5H9NO3/c1-5(2,8)4(7)9-3-6/h3,6,8H,1-2H3	InChI=1S/C5H9NO3/c1-5(2,8)4(7)9-3-6/h3,6,8H,1-2H3
