21
gdb 57336	2.03198	1.44694	1.29267	2.4443	79.81	-0.2608	0.0357	0.2965	1154.1229	0.176335	-424.193199	-424.181803	-424.180859	-424.228481	42.869	
C	-0.1658016655	 1.5471549853	 0.0184677637	-0.454859
C	-0.0067243441	 0.0203965795	 0.0555369083	 0.363958
C	 0.7409703311	-0.4111184047	 1.3264080657	-0.434188
O	-1.2931804801	-0.5974161603	 0.0189408719	-0.472929
C	 0.7097094033	-0.4888949151	-1.2530847773	 0.186629
C	 0.6521250592	-2.018801908	-1.3811127283	-0.417499
O	 0.0295049623	 0.0052853073	-2.4114455236	-0.4555
C	 2.1074118843	-0.0274496101	-1.2772873673	 0.310735
C	 3.2407276245	 0.3697795062	-1.3462627463	-0.493122
H	 0.8024881788	 2.050315419	-0.061540441	 0.125759
H	-0.797881817	 1.8393112223	-0.8228971759	 0.126984
H	-0.6460260227	 1.8963690104	 0.9393895044	 0.104676
H	 0.2065704604	-0.0401573786	 2.2086495278	 0.101615
H	 0.7912867181	-1.4995672932	 1.4016217499	 0.125681
H	 1.7563346323	-0.0085093096	 1.3557211112	 0.130679
H	-1.7933963514	-0.2734491148	 0.7746360753	 0.276279
H	-0.3909333949	-2.335230577	-1.3787413072	 0.148715
H	 1.1193698718	-2.3102984201	-2.3235788399	 0.125666
H	 1.1806504817	-2.5096405665	-0.562100379	 0.118506
H	 0.323394075	 0.9083376678	-2.5668517413	 0.283412
H	 4.244704433	 0.7121844201	-1.4034098111	 0.198802
63.4729	148.0484	165.1617	194.4165	206.5052	230.3452	237.5589	257.281	289.8544	301.6922	361.4807	363.5322	374.9997	423.7953	467.6831	492.2723	566.392	586.7343	635.3688	662.9426	665.7907	836.8403	900.5597	921.8855	946.542	971.0635	1002.9472	1067.1248	1113.6164	1153.4683	1187.9928	1216.9755	1223.055	1349.7422	1369.7787	1388.859	1398.5342	1409.6099	1479.2416	1483.9857	1488.325	1491.5569	1499.9026	1515.3143	2224.8689	3033.464	3039.254	3067.7659	3099.3328	3107.2102	3130.7985	3135.6122	3144.8924	3162.8969	3498.7871	3818.8362	3826.2344
CC(C)(O)C(C)(O)C#C	CC(C)(O)[C@@](C)(O)C#C	
InChI=1S/C7H12O2/c1-5-7(4,9)6(2,3)8/h1,8-9H,2-4H3	InChI=1S/C7H12O2/c1-5-7(4,9)6(2,3)8/h1,8-9H,2-4H3/t7-/m0/s1
