16
gdb 132538	3.16483	1.32868	0.94204	3.6048	76.79	-0.212	-0.0157	0.1963	1186.5245	0.124887	-442.105706	-442.097536	-442.096591	-442.138563	30.873	
C	-0.0125556661	 1.5182056663	-0.0034872177	-0.496411
C	-0.0009152625	 0.011030448	 0.0038559033	 0.282748
C	-0.0839116384	-0.719279247	-1.1761823475	-0.099047
N	-0.0808976486	-2.061839228	-1.2114536304	-0.318545
C	 0.0098148748	-2.6933398233	-0.0796881682	 0.29242
F	 0.0033430089	-4.0371214469	-0.1151716066	-0.092768
C	 0.1062029291	-2.0997263247	 1.1919511437	 0.16521
N	 0.2585937836	-2.8872170484	 2.3255118972	-0.597023
C	 0.0938245389	-0.7083684505	 1.2014698701	-0.234516
H	 0.9059677967	 1.9284111933	 0.4310727324	 0.133004
H	-0.1013271315	 1.9051358872	-1.0219367724	 0.12885
H	-0.8505789431	 1.9161917958	 0.5797388049	 0.13086
H	-0.1597047965	-0.2152354643	-2.1354921573	 0.103437
H	-0.0459201153	-3.842096376	 2.207874121	 0.2597
H	-0.0709373596	-2.4758325968	 3.1859831636	 0.25102
H	 0.1625311496	-0.1816627948	 2.149883074	 0.091061
67.7618	144.0592	213.8865	278.2097	312.7762	328.1769	387.8344	468.2694	477.1987	503.5895	576.508	603.0323	627.6345	723.425	770.3925	794.9875	892.9408	917.7709	995.9214	1016.6703	1065.1049	1103.376	1193.2852	1257.0894	1293.7216	1332.4056	1363.1797	1415.3125	1462.8727	1484.1148	1499.7621	1522.8337	1626.8928	1633.4452	1661.8955	3030.5227	3083.3149	3115.2944	3160.2653	3166.2388	3571.2192	3676.0233
CC1=CN=C(F)C(N)=C1	Cc1cnc(F)c(N)c1	
InChI=1S/C6H7FN2/c1-4-2-5(8)6(7)9-3-4/h2-3H,8H2,1H3	InChI=1S/C6H7FN2/c1-4-2-5(8)6(7)9-3-4/h2-3H,8H2,1H3
