23
gdb 116151	3.03492	0.99841	0.79487	2.5617	82.2	-0.2396	0.0738	0.3134	1489.9337	0.206486	-425.436572	-425.42701	-425.426066	-425.470725	36.337	
C	-0.0188990631	 1.5519168555	-0.0195279516	-0.406151
C	 0.0186747385	 0.0224569763	 0.0068816886	 0.011816
C	 0.7193726784	-0.5415655974	-1.2369761823	-0.068283
O	 0.7717473921	-1.9550653737	-1.2321087375	-0.249441
C	 1.4844038283	-2.4649582191	-0.1193170777	-0.073147
C	 0.8425954041	-2.0526249048	 1.2120010299	 0.007686
C	 1.6279229747	-2.5936360925	 2.4009245013	-0.095377
O	 1.6219252008	-4.0131525839	 2.3329441821	-0.424454
C	 0.7131046396	-0.5228223487	 1.2652564959	-0.214083
H	 0.9935754757	 1.9727545279	-0.0257506981	 0.113469
H	-0.5396808421	 1.9242154592	-0.9083392878	 0.113313
H	-0.5358840693	 1.9483601475	 0.8604971431	 0.11383
H	-1.0119978582	-0.3580230576	-0.0056114104	 0.079007
H	 0.1841948993	-0.2575864107	-2.148896006	 0.100879
H	 1.7409766296	-0.1225428542	-1.302457998	 0.075549
H	 1.4935427159	-3.551111882	-0.2242343618	 0.122238
H	 2.531806237	-2.1099847786	-0.144560848	 0.072184
H	-0.1613781454	-2.49604776	 1.2456033921	 0.087293
H	 2.6581422777	-2.1995526941	 2.373408978	 0.082999
H	 1.1679914152	-2.2376550772	 3.3370687937	 0.084789
H	 2.1570373934	-4.3536548516	 3.055341782	 0.287509
H	 1.7168762118	-0.0762387472	 1.3390730924	 0.087958
H	 0.1678791959	-0.212489163	 2.1654654303	 0.090417
90.0275	134.72	157.2791	199.0499	226.6305	257.8008	290.2966	316.6551	364.2896	415.1743	435.702	452.4006	507.0604	599.6176	847.1611	859.2281	877.1536	926.6566	928.1456	979.4368	982.7699	1031.6265	1044.0457	1070.7729	1116.3851	1127.7141	1148.2789	1171.8954	1186.5975	1211.1135	1243.1805	1252.7226	1295.4553	1308.702	1325.7068	1336.3108	1344.7253	1373.2015	1382.3231	1404.1219	1415.0933	1421.3172	1457.5455	1484.3095	1490.2832	1498.3676	1500.9577	1502.8346	1519.7058	2928.9591	2936.3706	2954.2326	2983.1493	2991.8489	3014.17	3025.8136	3027.9285	3049.1739	3072.2743	3092.0329	3097.9551	3116.6753	3833.8623
CC1COCC(CO)C1	C[C@H]1COC[C@@H](CO)C1	
InChI=1S/C7H14O2/c1-6-2-7(3-8)5-9-4-6/h6-8H,2-5H2,1H3	InChI=1S/C7H14O2/c1-6-2-7(3-8)5-9-4-6/h6-8H,2-5H2,1H3/t6-,7-/m1/s1
