18
gdb 96537	2.46731	1.61844	1.11493	3.0152	69.26	-0.2545	0.0112	0.2656	1090.7066	0.148929	-476.222588	-476.214288	-476.213344	-476.255801	31.235	
O	 0.0018534344	 1.3652678777	 0.1986016107	-0.448807
C	-0.0138748813	-0.0205216956	-0.0182380176	 0.075348
C	-1.4680269121	-0.5432466089	 0.0007815091	-0.22973
C	-1.5516041395	-2.0635471437	-0.2349805062	-0.098881
O	-0.3104283892	-2.6820529598	 0.1213775621	-0.227161
C	 0.6003359516	-2.7831569685	-0.917731692	 0.002368
O	 0.7053879977	-1.6375052266	-1.7764494451	-0.255771
C	 0.6805624349	-0.3537267987	-1.3317726631	 0.373706
N	 1.1378963939	 0.5985680857	-2.0306046216	-0.532324
H	 0.4360736001	 1.742247755	-0.5852961573	 0.29474
H	 0.5339212827	-0.5226606293	 0.7909378719	 0.106449
H	-1.8820024355	-0.2770695236	 0.9772837295	 0.120221
H	-2.0488069627	-0.0018422094	-0.7526127541	 0.116108
H	-2.3130738873	-2.5244216721	 0.3987577017	 0.120767
H	-1.7966289155	-2.2939667301	-1.2789517568	 0.112835
H	 1.5733244997	-2.9899723933	-0.4581581831	 0.126117
H	 0.3346071212	-3.5828037671	-1.6228215292	 0.114843
H	 1.5651368969	 0.2683538284	-2.8950355389	 0.229173
60.6186	141.3851	142.7798	277.0564	302.8733	341.338	387.7808	405.6128	428.0031	520.128	606.9259	672.5414	689.7066	772.9277	868.0422	893.8777	903.8735	953.7203	1014.1955	1064.0168	1081.0811	1100.1597	1137.5993	1152.7045	1174.9992	1230.5196	1269.3183	1286.4917	1307.9985	1333.7459	1344.1783	1373.4355	1403.4353	1462.0095	1476.9991	1490.2623	1508.3555	1521.9335	1736.6556	3008.9398	3011.0589	3030.2681	3057.7883	3070.9828	3092.4274	3110.8445	3501.0156	3649.6838
OC1CCOCOC1=N	O[C@H]1CCOCO[C]1[NH]	
InChI=1S/C5H9NO3/c6-5-4(7)1-2-8-3-9-5/h4,6-7H,1-3H2	InChI=1S/C5H9NO3/c6-5-4(7)1-2-8-3-9-5/h4,6-7H,1-3H2/t4-/m0/s1
