15
gdb 30024	3.31249	1.67325	1.13185	3.9986	67.45	-0.1792	0.027	0.2062	1016.445	0.114311	-453.933505	-453.925923	-453.924979	-453.965934	27.372	
C	 0.0343832086	 1.465508563	 0.0246029234	-0.345519
N	-0.0364197311	 0.0189559737	 0.0431696893	-0.136371
C	 0.0207327315	-0.8378071254	-1.0499667095	-0.036706
N	-0.0279195009	-2.1240606773	-0.7190786693	-0.358332
C	-0.0912370319	-2.0792010371	 0.6283145667	 0.28994
C	-0.0843039648	-0.823642439	 1.1144408051	 0.319841
O	-0.3529348269	-0.7550309547	 2.4528541242	-0.299282
C	-0.1619030137	-2.1629980184	 2.8062465264	 0.009103
O	-0.3514786043	-2.9803873967	 1.645392965	-0.276595
H	 0.955932227	 1.8215074433	 0.4954462279	 0.149517
H	 0.0142463656	 1.8014216096	-1.0135198286	 0.149795
H	-0.8207863731	 1.9002177333	 0.5498534158	 0.153543
H	 0.1526345606	-0.4487066936	-2.0474377283	 0.130498
H	 0.8717365916	-2.2749375588	 3.166702178	 0.112504
H	-0.8930313481	-2.4320105519	 3.5689684339	 0.138063
87.2334	137.9136	177.9491	227.9558	244.4799	322.8119	526.5317	606.3795	613.6138	657.9603	678.4172	702.7307	776.2233	813.7252	871.9066	1047.6351	1057.2951	1101.816	1132.061	1153.0493	1220.2402	1238.3238	1243.3081	1338.3002	1385.153	1442.7125	1459.9222	1471.1095	1481.5073	1513.8384	1520.7645	1573.3969	1674.0402	2988.0792	3043.5719	3106.7943	3134.1396	3142.2598	3261.4074
CN1C=NC2=C1OCO2	Cn1cnc2c1OCO2	
InChI=1S/C5H6N2O2/c1-7-2-6-4-5(7)9-3-8-4/h2H,3H2,1H3	InChI=1S/C5H6N2O2/c1-7-2-6-4-5(7)9-3-8-4/h2H,3H2,1H3
