15
gdb 123629	4.23624	1.56679	1.37568	2.5162	70.37	-0.2236	-0.0141	0.2095	913.307	0.116841	-416.727023	-416.721165	-416.720221	-416.757284	23.954	
C	-0.037938049	 1.5751323886	-0.0687314095	-0.194715
C	 1.5135758651	 1.3196420917	 0.0128271865	-0.160782
N	 1.1419594029	 0.2278489561	 0.9882252876	-0.285179
C	-0.0312040378	 0.0082999465	 0.0544576519	-0.161134
C	 0.6575435354	-0.373193717	-1.2638891498	 0.192407
C	 1.6865255613	 0.5166028127	-1.2732550252	 0.401051
O	 2.4186476927	 0.4453678042	-2.370268203	-0.235318
N	 1.8521266814	-0.5820343744	-3.1752906191	-0.150125
C	 0.8055419925	-1.0330930934	-2.4999222102	-0.174646
H	-0.4178641783	 2.0709686852	 0.8262400114	 0.122422
H	-0.4356783259	 2.0125084641	-0.9843950085	 0.114607
H	 2.2388854506	 2.0708666258	 0.316033611	 0.097757
H	 1.802340267	-0.5508897387	 0.9649694158	 0.213511
H	-0.8786556035	-0.5605558511	 0.4303559338	 0.086786
H	 0.2257418656	-1.8266214303	-2.9505650927	 0.133358
127.409	300.9319	395.3012	485.7882	533.726	619.9087	679.1249	698.2571	752.4219	797.331	816.2891	840.9392	902.421	906.0314	909.0046	966.2352	1019.1096	1040.3413	1047.4038	1116.0173	1126.5137	1139.6583	1190.3022	1215.9322	1249.4592	1262.8787	1266.4203	1340.5011	1375.6872	1380.8839	1481.2362	1489.1024	1591.3022	3082.5148	3147.7785	3154.6699	3158.702	3240.7501	3438.7729
C1C2NC1C1=C2ON=C1	C1[C@H]2N[C@@H]1c1c2onc1	
InChI=1S/C6H6N2O/c1-4-3-2-7-9-6(3)5(1)8-4/h2,4-5,8H,1H2	InChI=1S/C6H6N2O/c1-4-3-2-7-9-6(3)5(1)8-4/h2,4-5,8H,1H2/t4-,5+/m0/s1
