18
gdb 99328	4.64925	0.66454	0.60222	5.0804	74.58	-0.2401	-0.0278	0.2123	1830.7752	0.143349	-476.210234	-476.19968	-476.198736	-476.247208	35.561	
C	 0.1424658791	 0.9127773969	 0.2660558354	-0.313874
N	-0.5657389753	 0.1167439325	-0.7139678543	-0.21103
C	-1.3873487445	-0.7290612553	-0.2866628901	 0.152655
O	-2.1001885579	-1.4841128653	-1.1619276852	-0.18794
C	-2.9467143834	-2.4598094402	-0.6075047679	-0.210305
C	-2.1861077811	-3.666588695	-0.0419341993	 0.371502
O	-1.0344174237	-3.5916133013	 0.2941615028	-0.262305
C	-3.0152119443	-4.9399486066	 0.068965688	-0.174698
O	-2.3350764071	-5.8801642687	 0.8528066032	-0.39016
H	 1.2211273262	 0.754361819	 0.1557349494	 0.130815
H	-0.0440775782	 1.976664908	 0.0797799826	 0.125003
H	-0.1327024823	 0.6903520655	 1.3100755748	 0.096621
H	-1.6188007012	-0.9179075106	 0.7709995219	 0.079922
H	-3.5711858324	-2.0482960646	 0.2026850717	 0.1303
H	-3.6262531575	-2.7741510094	-1.4059419669	 0.137172
H	-4.0066659141	-4.6729650611	 0.4774894732	 0.107574
H	-3.1923267735	-5.2886487069	-0.9647193513	 0.121269
H	-2.8366163188	-6.7006019967	 0.8429435622	 0.297479
41.7468	58.5467	90.4342	113.9117	198.0958	209.9303	221.1017	235.4416	284.5294	326.4694	351.3094	447.6031	464.8116	582.864	697.2256	801.6102	905.8873	965.545	1001.2765	1048.4838	1080.532	1095.2699	1141.6242	1153.8029	1163.557	1223.41	1233.3509	1263.9209	1311.0281	1387.9424	1409.8121	1444.4459	1450.911	1470.2451	1480.7783	1493.6709	1505.4776	1785.227	1847.1799	2942.6975	2962.8607	2969.0607	2980.3221	3019.1346	3059.0009	3078.9527	3085.6013	3836.317
CN=COCC(=O)CO	CN=COCC(=O)CO	
InChI=1S/C5H9NO3/c1-6-4-9-3-5(8)2-7/h4,7H,2-3H2,1H3	InChI=1S/C5H9NO3/c1-6-4-9-3-5(8)2-7/h4,7H,2-3H2,1H3
