15
gdb 133827	3.36333	1.66761	1.17333	2.9472	89.71	-0.1811	-0.0886	0.0925	983.1255	0.112513	-383.402375	-383.395337	-383.394393	-383.433536	28.	
O	 10.6549591099	-1.4272106414	-0.0019243812	-0.40592
C	 9.5996456851	-0.5971147257	-0.0626087652	 0.337735
C	 7.2992417913	-1.7618114049	 0.6327704997	-0.1182
C	 8.2005650858	-0.9995698499	-0.3660114244	-0.235816
C	 7.458899488	 0.3513108779	-0.3253892741	 0.257758
C	 8.3830121477	 1.3501521499	-0.1660671478	-0.195247
C	 9.6914355801	 0.7734078701	-0.026831784	-0.17819
C	 6.0701735058	-1.1872070598	 0.6765636385	-0.161974
C	 6.1012332888	 0.0379425123	-0.0169634094	-0.178165
H	 10.3514321317	-2.339246931	-0.0662812881	 0.314221
H	 7.7021140868	-2.5039450966	 1.3147798484	 0.101057
H	 8.1596379328	-1.4251471204	-1.381393109	 0.123448
H	 8.1623081479	 2.3966358667	 0.0078952403	 0.115905
H	 10.6161310457	 1.3252920399	 0.0815611216	 0.113458
H	 5.2399872924	 0.6360415127	-0.2955510252	 0.109931
148.812	172.355	264.8857	346.8471	397.7968	463.2099	489.7582	560.4843	578.1089	607.6788	711.2988	735.8533	754.4148	815.6394	866.341	879.0746	922.479	947.0673	1009.6274	1047.5197	1102.202	1130.8377	1180.9671	1199.9115	1219.3249	1243.5573	1285.8194	1317.9101	1353.4988	1422.0877	1457.521	1535.2645	1627.6102	2988.1552	3173.8352	3184.7164	3203.4708	3222.0698	3819.5488
OC12C3C1C1=CC2C3=C1	OC1=C[CH][C]2[C@@H]1[CH][C][CH]2	
InChI=1S/C8H6O/c9-8-5-2-3-1-4(5)7(8)6(3)8/h1-2,5-7,9H	InChI=1S/C8H6O/c9-8-5-4-6-2-1-3-7(6)8/h2-5,7,9H/t7-/m0/s1
