19
gdb 32736	3.05232	1.00603	0.79762	1.5409	79.61	-0.1956	0.0245	0.22	1463.0123	0.158461	-423.058744	-423.049293	-423.048348	-423.093934	34.055	
C	 0.0260658718	 1.5913731707	-0.2057520585	-0.380604
C	 0.0419609157	 0.0630380211	-0.1354926156	-0.156343
C	-1.3541390326	-0.5324060865	 0.1350341715	-0.3077
C	-1.3805823858	-2.0172023458	 0.1875325774	 0.28064
C	-1.6075432137	-2.9132001223	 1.1907274966	 0.196292
O	-1.8898659054	-2.5677949748	 2.4803738084	-0.446144
C	-1.4825676614	-4.2273162518	 0.6304006887	-0.307829
C	-1.1850040484	-4.0335425186	-0.6812008844	-0.003439
O	-1.1169085473	-2.7132233142	-0.9683889607	-0.185166
H	 1.0259202874	 1.9915582349	-0.4003818166	 0.111295
H	-0.6352990197	 1.9446052525	-1.0049964218	 0.11356
H	-0.3304728401	 2.0282592581	 0.7339450295	 0.114061
H	 0.4267885221	-0.350390338	-1.074890768	 0.107256
H	 0.7283711477	-0.2699566545	 0.652091008	 0.100858
H	-1.7353041209	-0.1638580568	 1.0939190026	 0.120415
H	-2.0497283575	-0.1742745655	-0.6370838087	 0.107962
H	-2.0924900427	-3.3654605143	 2.9763794028	 0.298765
H	-1.5992949115	-5.1737996123	 1.1365495799	 0.104444
H	-1.0018451177	-4.7064492718	-1.5026173009	 0.131676
46.5388	85.0103	107.4484	140.503	237.2802	252.181	281.9947	312.8972	364.9582	475.4925	622.701	655.1789	683.7345	726.198	745.1608	774.1422	785.5011	865.821	891.136	909.396	1033.0216	1042.2526	1078.5205	1108.5277	1112.3282	1193.4888	1227.8405	1268.2981	1287.0206	1312.4602	1324.661	1336.371	1386.6548	1412.1098	1462.7655	1474.6661	1492.6163	1499.1322	1509.6081	1543.6481	1706.0971	3006.7437	3028.0522	3034.6327	3059.3288	3078.7866	3098.1561	3101.9638	3241.8622	3280.0916	3851.3298
CCCC1=C(O)C=CO1	CCCc1c(O)cco1	
InChI=1S/C7H10O2/c1-2-3-7-6(8)4-5-9-7/h4-5,8H,2-3H2,1H3	InChI=1S/C7H10O2/c1-2-3-7-6(8)4-5-9-7/h4-5,8H,2-3H2,1H3
