17
gdb 34589	4.48355	0.99802	0.8825	5.1525	81.55	-0.2555	-0.0424	0.2131	1290.7586	0.137563	-380.875811	-380.867963	-380.867019	-380.908709	29.769	
N	 0.015121425	-1.1421700691	 0.0062946603	-0.333851
C	-0.026158748	 0.015116414	 0.0407367593	 0.203889
C	-0.0359872599	 1.4359957383	 0.0838429192	 0.198259
C	-1.1341233727	 2.20351492	 0.0350050281	-0.152444
C	-0.8004486828	 3.6682417913	 0.0713549174	-0.345238
C	 0.7058471748	 3.680514076	 0.3755007002	 0.325069
C	 1.5366827854	 4.8930851309	 0.2020257531	-0.292589
N	 1.2246237857	 4.39009031	 1.5539186904	-0.338615
C	 1.2370822513	 2.2576187974	 0.1605866194	-0.37085
H	-2.1462698531	 1.8258078907	-0.043032522	 0.123706
H	-1.0341168965	 4.1429867559	-0.8921563989	 0.129949
H	-1.3817475929	 4.210040865	 0.8290449988	 0.119064
H	 2.5800000129	 4.8025723497	-0.0894910823	 0.122327
H	 1.0500725572	 5.80170203	-0.1454848324	 0.112435
H	 0.4930154503	 4.9586811118	 1.9747925295	 0.228697
H	 1.8903147069	 1.9560137035	 0.9844203262	 0.143276
H	 1.8140676566	 2.1622786347	-0.7678163564	 0.126915
50.4767	146.7463	161.6898	295.3065	355.0981	389.9762	396.0554	451.7286	568.4249	573.083	598.3867	784.5553	816.4137	858.5138	873.9838	909.2254	938.2768	950.6156	992.4223	1005.0979	1027.0831	1078.1848	1131.2277	1152.0959	1181.6991	1203.4064	1256.4329	1270.401	1288.1158	1303.8863	1331.3527	1405.0308	1470.0774	1479.7829	1516.1609	1676.5347	2338.3821	3007.8804	3032.1026	3038.581	3090.5398	3100.0119	3183.832	3215.232	3488.8583
N#CC1=CCC2(CN2)C1	N#CC1=CC[C@]2(CN2)C1	
InChI=1S/C7H8N2/c8-4-6-1-2-7(3-6)5-9-7/h1,9H,2-3,5H2	InChI=1S/C7H8N2/c8-4-6-1-2-7(3-6)5-9-7/h1,9H,2-3,5H2/t7-/m1/s1
