20
gdb 110983	2.3843	1.32104	1.15695	2.5568	76.9	-0.2331	0.0708	0.3039	1196.8882	0.169154	-440.2009	-440.191454	-440.19051	-440.235077	34.979	
C	 0.198099748	 1.3324314226	 0.201011371	-0.240127
O	-0.2906967966	 0.0882455169	-0.2462004459	-0.248573
C	 0.4994394889	-0.4901020688	-1.2321363167	 0.176569
C	 1.7301280895	-1.3705325766	-0.8490924139	-0.147344
N	 0.7478322879	-2.3630059957	-0.2664435305	-0.343222
C	 0.1363882197	-1.9522859939	-1.6058141932	 0.250959
C	-1.1767478899	-2.4817031458	-2.0984775277	-0.526626
C	 1.5514176525	-2.0729145586	-2.2339638577	 0.078123
O	 1.7705772129	-1.4062988816	-3.451849582	-0.434769
H	 1.1716172286	 1.2346433056	 0.7041787253	 0.106634
H	 0.3092273812	 2.0490658267	-0.6284431669	 0.101686
H	-0.527758532	 1.7284757734	 0.9149893109	 0.127318
H	 0.6629218526	 0.1891843051	-2.0754388394	 0.081032
H	 2.6498828017	-1.097144139	-0.3301993287	 0.074002
H	 1.134241913	-3.3110977748	-0.3549090859	 0.197818
H	-1.978227355	-2.1990199556	-1.410200028	 0.14373
H	-1.4035969989	-2.0710787423	-3.0874116551	 0.131936
H	-1.1577376462	-3.5738122507	-2.1795196127	 0.117185
H	 1.9350852508	-3.1032898799	-2.249928326	 0.066348
H	 2.7116786413	-1.4364693567	-3.651169517	 0.28732
68.2265	143.7159	167.7909	180.8194	199.6628	250.2751	251.6604	293.922	357.607	413.996	484.3773	591.475	632.4028	665.0975	780.179	835.2137	877.3227	895.4371	941.0921	969.5853	1044.7415	1054.9127	1106.6305	1124.0608	1138.0285	1151.7607	1174.2105	1182.8217	1203.5662	1208.5149	1239.5211	1262.9475	1289.4032	1304.4654	1345.8027	1403.5748	1406.8506	1453.406	1483.0594	1484.2576	1487.4433	1490.4584	1508.9861	2972.7544	3001.8986	3021.5129	3036.3218	3057.6668	3104.0097	3106.4331	3116.0684	3119.6456	3347.0143	3817.5545
COC1C2NC1(C)C2O	CO[C@H]1[C@H]2N[C@]1(C)[C@H]2O	
InChI=1S/C6H11NO2/c1-6-4(8)3(7-6)5(6)9-2/h3-5,7-8H,1-2H3	InChI=1S/C6H11NO2/c1-6-4(8)3(7-6)5(6)9-2/h3-5,7-8H,1-2H3/t3-,4-,5-,6+/m0/s1
