19
gdb 113909	4.04296	0.75243	0.72481	3.0487	72.7	-0.2387	0.0305	0.2692	1578.6148	0.15965	-456.346612	-456.336958	-456.336014	-456.382308	35.021	
N	-0.3509079826	 0.2825052497	 1.1165963087	-0.504787
C	-0.0030268215	 0.0330059713	-0.178855637	 0.369052
O	 0.9380242613	 0.5620209932	-0.7361574897	-0.358332
C	-0.9442881456	-0.9517916345	-0.8865266871	-0.311359
C	-1.0015634322	-2.3062538547	-0.2044876085	-0.024593
N	-1.6901423395	-2.3845057165	 1.1029036962	-0.356919
C	-2.2240795474	-3.1421626655	-0.050853976	-0.043792
C	-3.6168225508	-2.752693548	-0.4876730493	-0.066609
O	-4.5830515011	-3.2098533897	 0.4435780203	-0.418613
H	 0.2655033471	 0.8566198368	 1.6683235305	 0.2548
H	-1.0377308338	-0.300721601	 1.5723092895	 0.266588
H	-1.9400770801	-0.5015594308	-0.9268136349	 0.12293
H	-0.5791645075	-1.0633061447	-1.909565506	 0.130758
H	-0.0698893306	-2.8645785868	-0.2820887211	 0.102813
H	-1.1845753647	-3.0007809141	 1.7325591566	 0.240896
H	-2.0655664614	-4.2190854469	-0.0289445778	 0.099319
H	-3.6875529145	-1.6659849573	-0.6306272194	 0.093423
H	-3.8586635578	-3.2310092124	-1.4425022353	 0.116188
H	-4.3487382073	-2.8154373382	 1.2916328303	 0.288239
48.9231	55.5862	86.0744	153.8324	202.1188	260.1152	358.7777	389.2553	413.4567	437.9401	479.6822	529.031	568.6884	622.3868	721.8277	789.3992	859.7412	869.9458	907.3429	954.6873	981.7482	1007.622	1029.5725	1070.515	1117.0377	1144.9399	1172.7168	1204.1652	1254.9094	1271.2967	1284.1498	1303.7465	1355.6993	1367.0573	1401.1365	1436.3839	1465.9642	1474.646	1497.7243	1617.4035	1807.6951	3011.6147	3069.8355	3079.2907	3113.3443	3125.8424	3133.2957	3512.8316	3554.6207	3705.1628	3797.677
NC(=O)CC1NC1CO	NC(=O)C[C@H]1N[C@H]1CO	
InChI=1S/C5H10N2O2/c6-5(9)1-3-4(2-8)7-3/h3-4,7-8H,1-2H2,(H2,6,9)	InChI=1S/C5H10N2O2/c6-5(9)1-3-4(2-8)7-3/h3-4,7-8H,1-2H2,(H2,6,9)/t3-,4+/m1/s1
