19
gdb 68693	2.62616	1.81686	1.51471	0.5699	74.6	-0.235	0.0134	0.2484	948.5763	0.161475	-423.028194	-423.020924	-423.01998	-423.059216	30.364	
O	-0.0639274221	 1.4049958509	-0.0610436707	-0.492265
C	 0.0113558438	-0.0023485076	 0.0324839253	 0.341588
C	-1.3887437235	-0.6292741566	 0.0600752035	-0.244012
C	-0.9961300829	-2.0588355049	 0.4943953938	-0.094059
C	-0.2910001438	-2.7180080456	-0.717114456	-0.069219
O	 0.8866225885	-2.0186801923	-1.0954043394	-0.246971
C	 0.7462331787	-0.6094073395	-1.192441782	-0.118879
C	 0.0309062448	-1.7515303243	 1.5773716891	-0.061416
C	 0.6087109648	-0.5806135495	 1.3132674633	-0.126557
H	 0.8325707189	 1.7577310374	-0.072578595	 0.27675
H	-2.0062840177	-0.1310114693	 0.8115285907	 0.105883
H	-1.8951668515	-0.5865138583	-0.909349467	 0.092378
H	-1.8368479878	-2.679571485	 0.8169676254	 0.068701
H	 0.0384160375	-3.7352914885	-0.4847453704	 0.106693
H	-1.000440346	-2.7720782409	-1.5600061463	 0.087492
H	 0.1974995479	-0.3196787233	-2.1034341663	 0.094075
H	 1.7671375522	-0.2162559421	-1.2700015991	 0.092232
H	 0.2958809023	-2.4396128155	 2.3716303962	 0.097388
H	 1.4351005859	-0.121562495	 1.8444046748	 0.090199
233.2764	249.2057	259.9078	304.1393	361.3606	383.688	417.9833	459.2125	561.3838	605.5837	635.4532	743.34	799.2232	830.7038	839.3003	921.6227	926.2304	949.3051	953.7974	985.6404	997.57	1046.4705	1081.8481	1098.4828	1114.9524	1140.5145	1183.0779	1215.0322	1233.0606	1264.9638	1276.0088	1307.6664	1322.8508	1341.6363	1368.7921	1396.0166	1409.8154	1491.1435	1496.0575	1511.0067	1664.5299	2963.767	2974.1396	3052.056	3053.5799	3069.5875	3079.6543	3109.157	3183.4861	3209.659	3802.4519
OC12CC(COC1)C=C2	O[C@@]12C[C@@H](COC1)C=C2	
InChI=1S/C7H10O2/c8-7-2-1-6(3-7)4-9-5-7/h1-2,6,8H,3-5H2	InChI=1S/C7H10O2/c8-7-2-1-6(3-7)4-9-5-7/h1-2,6,8H,3-5H2/t6-,7-/m0/s1
