13
gdb 133514	2.82052	1.33688	1.11152	3.6058	53.05	-0.2736	-0.0294	0.2442	1053.5215	0.084862	-584.237506	-584.229275	-584.22833	-584.271656	28.559	
F	 0.0248084429	 0.1623695561	-0.0155066858	-0.041905
C	-0.0198150749	 1.4819342017	 0.0715728234	 0.228876
F	 1.2402220502	 1.9397009056	 0.2195660982	-0.085618
F	-0.4951659627	 1.976457405	-1.0750307182	-0.06566
C	-0.8589661855	 1.9315229058	 1.2967494992	 0.220653
O	-1.1051574054	 1.1679358427	 2.1955760999	-0.313757
N	-1.2985796668	 3.2295820562	 1.2030478263	-0.071809
C	-0.4885087212	 4.4279182151	 1.0685139063	-0.230719
C	-1.314364166	 4.1702381276	 2.2971894981	-0.223077
H	 0.588435136	 4.315117956	 1.144644855	 0.150415
H	-0.8311868153	 5.1436729569	 0.3275613972	 0.142786
H	-2.244067145	 4.7122816108	 2.4397218125	 0.141133
H	-0.8037937763	 3.8712835105	 3.2084436078	 0.148682
34.9045	96.5301	166.8397	184.4254	271.33	282.362	379.9469	411.3423	520.9585	562.5662	660.0713	752.0017	780.3677	813.5518	902.4738	980.9784	1048.2213	1097.5219	1128.102	1141.1956	1163.4536	1173.5557	1183.9182	1248.588	1302.0966	1439.0041	1498.1051	1525.8019	1822.0427	3121.26	3125.9069	3208.4691	3222.1596
FC(F)(F)C(=O)N1CC1	FC(F)(F)C(=O)N1CC1	
InChI=1S/C4H4F3NO/c5-4(6,7)3(9)8-1-2-8/h1-2H2	InChI=1S/C4H4F3NO/c5-4(6,7)3(9)8-1-2-8/h1-2H2
