20
gdb 13868	3.99941	1.26501	1.23344	1.8727	77.57	-0.2241	0.025	0.2491	1110.5297	0.176626	-349.014872	-349.006138	-349.005194	-349.048561	31.696	
C	-0.0020637546	 1.5575919434	 0.0160614372	-0.388576
C	 0.0469082208	 0.0174815857	 0.0049841594	-0.081742
C	 0.6834544859	-0.5000732352	-1.2994060474	-0.388599
C	 0.7497289127	-0.5253017391	 1.2203118221	 0.33891
C	 0.2504631556	-1.3030565203	 2.1781327812	-0.234863
C	 1.2968447419	-1.6127411551	 3.2076182373	-0.102324
O	 2.4696514768	-0.9372554262	 2.7600837119	-0.265865
C	 2.2018240801	-0.2489161646	 1.5433246594	-0.156275
H	 1.0026650225	 1.9894932136	-0.0461600291	 0.118425
H	-0.5744968833	 1.9287522471	-0.8402036403	 0.11328
H	-0.4730554087	 1.9320121886	 0.9297925786	 0.119037
H	-0.9866549345	-0.349409841	 0.0402558171	 0.078199
H	 1.7133482655	-0.1437119539	-1.4098990685	 0.118431
H	 0.7015442524	-1.5936827991	-1.3242054713	 0.119038
H	 0.1173914528	-0.1479001457	-2.1678376004	 0.113279
H	-0.7648230809	-1.6770128969	 2.2352433168	 0.094755
H	 1.0211315937	-1.2558884815	 4.2134610663	 0.100952
H	 1.4986772965	-2.6928056296	 3.2959010662	 0.100962
H	 2.8829271181	-0.6095594636	 0.7559294114	 0.101495
H	 2.4056168566	 0.8260815834	 1.6730433223	 0.101481
50.3191	98.3677	147.8202	207.3162	233.9365	257.9519	315.4414	322.4877	472.1094	542.3161	589.8452	772.8133	831.5427	860.52	912.9265	927.8589	929.4745	963.2841	973.9295	1026.0314	1043.151	1063.0531	1119.0757	1121.4636	1171.532	1175.7504	1226.4948	1227.0923	1291.16	1340.0933	1355.3968	1374.2826	1395.2045	1396.8359	1418.1142	1488.2986	1491.3957	1502.0192	1509.5869	1519.8514	1531.6335	1724.53	2962.6697	2971.4396	2977.4315	2982.549	3021.9433	3030.7688	3034.9779	3097.1433	3103.9585	3108.3372	3110.4042	3205.718
CC(C)C1=CCOC1	CC(C)C1=CCOC1	
InChI=1S/C7H12O/c1-6(2)7-3-4-8-5-7/h3,6H,4-5H2,1-2H3	InChI=1S/C7H12O/c1-6(2)7-3-4-8-5-7/h3,6H,4-5H2,1-2H3
