18
gdb 71065	2.41827	1.79426	1.51827	4.0594	77.54	-0.2101	-0.0479	0.1622	983.6011	0.145178	-401.825338	-401.816991	-401.816047	-401.857654	32.128	
C	-0.0703600109	 1.4425046155	-0.1218720813	-0.499582
C	-0.0927445849	-0.0482180692	-0.0450216053	 0.387153
O	 0.6894859666	-0.7515553775	-1.1381583235	-0.302617
C	 0.0922667245	-1.8618062183	-0.537452453	 0.228632
N	 0.750272332	-2.6981721104	 0.1510359445	-0.240803
C	 0.3115293287	-2.3033874519	 1.5395527082	-0.176473
C	-0.3536991604	-0.920831093	 1.3106434472	-0.181726
C	-1.1318593665	-1.0723138345	 0.0437679048	 0.157731
C	-2.5893742766	-1.1507741253	-0.2880987525	-0.520735
H	 0.9383513694	 1.827410722	 0.053493933	 0.147611
H	-0.4026128074	 1.7783633885	-1.1088526122	 0.14176
H	-0.7357495459	 1.8646008966	 0.6365065195	 0.133252
H	-0.3762783006	-3.0026728516	 2.0396583609	 0.1078
H	 1.2350763468	-2.25717552	 2.1245255691	 0.131413
H	-0.7368276941	-0.3388989428	 2.1478633927	 0.088224
H	-3.1466466549	-0.3642118848	 0.2313653371	 0.1269
H	-2.7600653705	-1.0326532954	-1.3631425425	 0.135177
H	-3.0109414654	-2.1142655681	 0.0165008634	 0.136283
159.8393	181.4661	188.2758	203.889	236.6684	272.6312	293.7	467.8217	498.4301	574.307	582.7728	647.2494	675.7465	710.9929	805.0914	867.9968	891.749	932.7141	951.157	958.6319	1025.3305	1035.3525	1087.6445	1109.598	1139.1842	1172.7673	1181.3619	1241.9971	1257.0034	1298.1609	1404.9837	1412.0283	1467.0567	1481.3535	1485.6956	1491.232	1494.366	1514.7832	1623.9024	2983.2397	3031.6713	3042.6527	3077.6309	3099.7909	3100.6215	3114.014	3121.48	3129.858
CC12OC3=NCC1C23C	C[C@@]12O[C]3[N]C[C@@H]1[C@@]23C	
InChI=1S/C7H9NO/c1-6-4-3-8-5(6)9-7(4,6)2/h4H,3H2,1-2H3	InChI=1S/C7H9NO/c1-6-4-3-8-5(6)9-7(4,6)2/h4H,3H2,1-2H3/t4-,6-,7-/m1/s1
