19
gdb 104622	2.36585	1.3251	1.02126	2.7074	78.06	-0.254	0.0245	0.2785	1238.184	0.15652	-422.97394	-422.964294	-422.96335	-423.00876	35.776	
C	 0.626187603	 1.5059930444	 0.1397132965	-0.403404
C	 0.0586975973	 0.1060575518	 0.0320605996	 0.173117
C	 0.3714039032	-0.7247993339	-1.2309042101	-0.366716
C	 1.0297820565	-1.7351612141	-0.2518149471	 0.171209
C	 2.5505698712	-1.9040384757	-0.368181845	-0.090659
O	 3.0933271979	-2.3772069889	 0.8403356635	-0.415425
O	 0.7595146143	-0.8483766286	 0.8789742874	-0.338726
C	 0.3420062653	-3.0128207669	-0.114371072	 0.351963
C	-0.235166495	-4.0638679787	-0.0330767663	-0.468598
H	 1.6844289595	 1.5250140496	-0.1384929088	 0.120578
H	 0.0799553948	 2.188823633	-0.5203906705	 0.121029
H	 0.5332835836	 1.8775435127	 1.1650847076	 0.131308
H	-1.0083011431	 0.109498277	 0.2886966234	 0.086881
H	-0.4876596866	-1.1037599827	-1.78217111	 0.123748
H	 1.0781736703	-0.2582996405	-1.9213533993	 0.11205
H	 2.7960066638	-2.6307114088	-1.1492551802	 0.116324
H	 2.9792802191	-0.9298741499	-0.653955411	 0.080459
H	 2.7458910326	-1.7977960449	 1.5306375506	 0.294946
H	-0.7365695877	-4.9962278047	 0.0532805618	 0.199915
42.6601	97.4906	151.26	164.3151	215.1952	243.4364	332.5599	352.5702	408.6856	432.1817	472.2544	532.1669	565.2668	625.7534	664.0935	682.6534	774.8771	867.6754	895.5715	909.5048	927.8077	991.9343	1032.0318	1067.1201	1091.4178	1111.1807	1171.4332	1189.0706	1210.2303	1259.3136	1277.6726	1312.4666	1377.701	1391.1573	1409.154	1430.1471	1481.8048	1487.7991	1493.659	1496.0703	2233.8252	2971.105	3020.8184	3033.2887	3077.8265	3082.2744	3105.972	3112.9929	3150.5506	3500.5377	3775.6815
CC1CC(CO)(O1)C#C	C[C@H]1C[C@@](CO)(O1)C#C	
InChI=1S/C7H10O2/c1-3-7(5-8)4-6(2)9-7/h1,6,8H,4-5H2,2H3	InChI=1S/C7H10O2/c1-3-7(5-8)4-6(2)9-7/h1,6,8H,4-5H2,2H3/t6-,7-/m0/s1
