20
gdb 94816	2.72985	1.49145	1.12336	4.0152	73.98	-0.2439	0.0631	0.307	1118.0044	0.17283	-440.270243	-440.262101	-440.261157	-440.303308	32.59	
O	 0.0425620186	 1.4369198804	 0.0859627606	-0.447031
C	 0.0990338303	 0.0378064097	 0.0058751045	 0.137157
C	 0.7073658665	-0.6494660875	 1.2493607332	-0.242748
C	 0.1209923212	-2.0689924185	 1.1927391372	-0.305375
C	-1.3233055102	-1.8103181351	 0.7966649399	 0.30583
C	-2.4000169086	-2.8200584012	 0.8335836739	-0.30154
N	-2.3751624814	-1.7303382236	 1.8313211552	-0.368132
C	-1.3301536436	-0.5982479914	-0.1561694259	 0.035599
O	-2.3348157016	 0.3344307053	 0.1903921216	-0.446348
H	-0.8861996715	 1.6326758445	 0.2900694001	 0.28647
H	 0.7009064813	-0.2313706532	-0.8731360924	 0.0719
H	 1.7994625383	-0.6231529804	 1.2552348202	 0.101635
H	 0.3543338353	-0.1269613522	 2.1461663348	 0.101449
H	 0.6228368986	-2.6599843755	 0.4154519695	 0.111145
H	 0.2061168463	-2.6301105347	 2.1290523739	 0.095508
H	-3.2225593955	-2.7651492307	 0.1252810559	 0.129546
H	-2.155499557	-3.8248558057	 1.1690253231	 0.118393
H	-2.0314044316	-2.0611644973	 2.7284041026	 0.237908
H	-1.4966797754	-0.9096837124	-1.1939942925	 0.080549
H	-2.7265374398	-0.0157341604	 1.0130859946	 0.298084
35.1002	171.3736	249.9319	289.6869	342.6431	374.1658	420.0443	451.0042	481.4474	536.2082	565.8883	648.0664	678.7174	762.9352	791.3766	871.8169	881.5112	919.1187	948.8828	966.3379	977.526	994.7855	1052.3601	1082.2156	1117.0428	1137.3118	1144.5182	1171.6059	1187.6065	1251.3278	1262.6615	1279.1892	1295.2465	1317.5017	1326.158	1353.9233	1385.8381	1400.817	1449.6645	1454.2948	1484.617	1495.8352	1509.5146	3000.8172	3024.2811	3034.2418	3044.8196	3075.7562	3105.3056	3108.0918	3191.3174	3512.5339	3570.39	3678.4052
OC1CCC2(CN2)C1O	O[C@H]1CC[C@]2(CN2)[C@H]1O	
InChI=1S/C6H11NO2/c8-4-1-2-6(3-7-6)5(4)9/h4-5,7-9H,1-3H2	InChI=1S/C6H11NO2/c8-4-1-2-6(3-7-6)5(4)9/h4-5,7-9H,1-3H2/t4-,5-,6-/m0/s1
