18
gdb 26205	3.96527	1.05636	0.85305	2.7082	77.19	-0.1712	0.0442	0.2155	1336.534	0.146521	-439.094125	-439.08473	-439.083786	-439.128371	34.169	
C	 0.0005401269	 1.3957532361	 0.0360784213	-0.328083
N	-0.2825067935	-0.0250956021	-0.0045875635	-0.162472
C	 0.1330426531	-0.7825980271	 1.1689752623	-0.342725
C	-0.1336039276	-0.6231361907	-1.2384950367	 0.497375
C	 0.1165831219	-0.1194742422	-2.4878832552	-0.477917
C	 0.0598732497	-1.2534101587	-3.3703624494	 0.320069
O	 0.2452161426	-1.258739607	-4.7185325339	-0.444143
C	-0.2012832886	-2.3478384857	-2.6138208431	-0.13889
O	-0.3230968901	-1.9585350512	-1.2891449427	-0.204038
H	 1.0687771707	 1.6286707617	-0.1119670208	 0.109885
H	-0.5744358365	 1.9095481045	-0.7394396832	 0.135034
H	-0.3063038546	 1.7921573181	 1.0073581539	 0.126029
H	-0.3162794337	-0.3324014937	 2.0586383235	 0.122301
H	-0.2172769431	-1.8108260036	 1.0847117873	 0.154538
H	 1.2276581599	-0.7956028368	 1.3006235732	 0.110757
H	 0.3325477902	 0.9027577963	-2.751812736	 0.095689
H	 0.3925856762	-0.3548275766	-5.009616332	 0.298517
H	-0.3136360537	-3.3963260214	-2.8177904049	 0.128075
60.3082	126.7243	178.9758	185.0791	194.0055	230.695	275.7919	354.7056	383.3569	392.3869	534.858	571.0802	584.2613	647.0056	681.8912	715.5226	718.4454	918.1316	994.6401	1014.3255	1083.4511	1119.427	1128.9486	1165.4545	1175.515	1177.1425	1251.7421	1294.6521	1300.5448	1382.8486	1443.2345	1455.2791	1472.7063	1484.9762	1493.6281	1504.5014	1513.8643	1632.0339	1689.737	2961.4038	2970.9112	3074.132	3083.8235	3118.7276	3155.0336	3259.8411	3309.3219	3850.2085
CN(C)C1=CC(O)=CO1	CN(C)c1cc(O)co1	
InChI=1S/C6H9NO2/c1-7(2)6-3-5(8)4-9-6/h3-4,8H,1-2H3	InChI=1S/C6H9NO2/c1-7(2)6-3-5(8)4-9-6/h3-4,8H,1-2H3
