15
gdb 80745	4.49599	1.18149	1.1634	2.1786	66.	-0.2382	0.0181	0.2563	1063.1897	0.111099	-457.680335	-457.672518	-457.671574	-457.712826	29.658	
O	-0.0612584339	 1.4881396384	 0.0572743522	-0.423096
C	-0.030358369	 0.1126155676	-0.0700913615	 0.104628
C	-0.4010832667	-0.7651384451	 1.1065835267	-0.03892
O	-1.0961384433	-0.0414748747	 2.1096143148	-0.26188
C	-2.4726153261	-0.0859493881	 1.7265942062	-0.05143
O	-2.4820527716	-0.0647873481	 0.3097699039	-0.23271
C	-1.3034921635	-0.7273226825	-0.0982905595	-0.004732
C	-3.1454730118	-1.2739555517	 2.2688221079	 0.368008
C	-3.7081577014	-2.2370586272	 2.7142542655	-0.43272
H	-0.409508691	 1.6755300559	 0.9392214889	 0.298418
H	 0.7781969479	-0.2299540715	-0.7102470134	 0.112686
H	 0.1685103881	-1.6180388002	 1.4573387728	 0.113106
H	-2.94934295	 0.8305364415	 2.086172523	 0.128205
H	-1.4476047034	-1.5536547552	-0.785041061	 0.112912
H	-4.2076228343	-3.0877389789	 3.1091228236	 0.207523
78.2747	125.9857	192.1024	237.5371	295.8316	365.8412	508.6668	511.0439	601.8772	667.6342	675.1773	704.5412	746.5444	761.8932	772.4826	798.7027	920.441	940.2526	974.1807	1044.8095	1050.8832	1087.7023	1091.4279	1100.5037	1129.2725	1200.7821	1268.8901	1322.3991	1339.7207	1349.5665	1385.4521	1442.321	2237.6322	3079.3929	3150.4333	3169.4633	3179.0998	3499.8163	3758.4593
OC1C2OC(OC12)C#C	O[C@H]1[C@H]2O[C@@H](O[C@@H]12)C#C	
InChI=1S/C6H6O3/c1-2-3-8-5-4(7)6(5)9-3/h1,3-7H	InChI=1S/C6H6O3/c1-2-3-8-5-4(7)6(5)9-3/h1,3-7H/t3-,4-,5+,6-
