19
gdb 71035	3.75927	1.6122	1.33916	1.3577	79.17	-0.2483	0.0822	0.3306	982.1651	0.16108	-385.813072	-385.806194	-385.805249	-385.843776	29.197	
O	 0.0213949321	 1.3645027292	 0.0089459118	-0.471571
C	 0.0359371335	-0.0172209434	 0.0422824028	 0.367914
C	 0.6592806022	-0.9539650517	 1.1400826671	-0.424948
C	-0.0454150782	-1.8891337341	 0.137306738	 0.347227
C	-0.4542054835	-3.2732492532	-0.3192848878	-0.348442
C	-1.2423796747	-2.825986959	-1.6138309082	-0.223506
C	-1.0868181509	-1.2790048114	-1.5782853769	-0.07258
C	-1.2325226554	-0.8889960472	-0.0910700518	-0.092698
C	 0.361814895	-1.0262039406	-1.10508669	-0.132033
H	 0.9312340394	 1.6789887754	-0.0267315965	 0.28158
H	 1.7526035545	-1.0083734147	 1.1866341662	 0.087238
H	 0.2295859305	-0.8833329592	 2.1442835573	 0.097649
H	 0.3937058456	-3.9239451322	-0.553060561	 0.099644
H	-1.0943012897	-3.7967572221	 0.3970678215	 0.100868
H	-0.8096477835	-3.2578247258	-2.5220532776	 0.098026
H	-2.2931814188	-3.1310022023	-1.5755392158	 0.099
H	-1.5537902973	-0.7143004003	-2.3868054834	 0.061599
H	-2.1264663553	-0.8448683163	 0.5343024461	 0.065938
H	 1.3019657647	-1.1407770611	-1.6501697117	 0.059093
227.5273	240.9667	259.2747	301.685	388.6443	468.7552	481.1644	585.8965	712.0532	716.4819	728.8891	822.8819	824.0405	857.8211	862.7404	904.6657	933.819	954.5719	974.6806	998.7294	1005.0126	1025.4701	1071.2843	1090.8227	1093.4758	1135.5657	1153.4999	1160.1417	1181.7331	1211.794	1226.1294	1237.9308	1249.0558	1265.106	1297.026	1323.4851	1339.6201	1401.3321	1487.9165	1510.264	1510.6239	3032.8349	3041.9713	3053.3933	3078.6187	3080.4747	3091.5388	3095.4929	3098.5671	3105.4821	3805.089
OC12CC34CCC(C13)C24	O[C@@]12C[C@@]34CC[C@@H]([C@H]13)[C@@H]24	
InChI=1S/C8H10O/c9-8-3-7-2-1-4(5(7)8)6(7)8/h4-6,9H,1-3H2	InChI=1S/C8H10O/c9-8-3-7-2-1-4(5(7)8)6(7)8/h4-6,9H,1-3H2/t4-,5-,6+,7-,8-
