14
gdb 24834	2.57301	1.77395	1.15121	7.7425	75.11	-0.2365	-0.0598	0.1767	1008.4327	0.103463	-432.894567	-432.887219	-432.886275	-432.926866	27.37	
N	-0.1502275992	 1.3839053443	 0.3293176527	-0.454128
C	-0.0492959068	 0.1500902365	 0.0418364283	 0.219762
N	 1.1825057634	-0.4730502262	-0.193198313	-0.274615
C	 1.4688741479	-1.2737927409	-1.137390452	 0.088358
N	 0.6591919511	-1.8091099246	-2.1195192832	-0.303694
C	-0.714610831	-1.9356614458	-2.0971409412	 0.016246
C	-1.5798126003	-1.5153487642	-1.1555436906	-0.188741
C	-1.3312203848	-0.6793791664	 0.0268700583	 0.3285
O	-2.143223458	-0.5843683578	 0.9217711032	-0.313839
H	 0.7812520886	 1.8097492089	 0.3221398282	 0.221756
H	 2.5034047495	-1.6058565074	-1.235888003	 0.132199
H	 1.1384738837	-2.3290906191	-2.8382115284	 0.267866
H	-1.0878811038	-2.502966998	-2.943487749	 0.135132
H	-2.6198002903	-1.7945134094	-1.2832026303	 0.125198
65.3158	112.6273	284.7175	328.0545	332.0821	418.7253	462.0844	497.8677	570.0449	630.9523	677.283	754.9562	792.6349	853.4173	903.096	941.9752	949.4137	967.6957	983.9276	1008.3446	1137.0256	1236.6328	1292.3179	1342.3709	1429.6115	1456.8208	1530.4526	1679.6525	1698.4841	1739.3578	1767.1838	3121.6768	3183.7107	3204.1804	3433.9979	3626.2665
N=C1N=CNC=CC1=O	[NH][C]1N=CNC=CC1=O	
InChI=1S/C5H5N3O/c6-5-4(9)1-2-7-3-8-5/h1-3H,(H2,6,7,8,9)	InChI=1S/C5H5N3O/c6-5-4(9)1-2-7-3-8-5/h1-3H,(H2,6,7,8,9)
