18
gdb 8525	4.39928	1.876	1.59552	2.0589	70.59	-0.2281	0.0705	0.2987	853.5102	0.152572	-347.712072	-347.704935	-347.703991	-347.742807	28.648	
C	-0.1185933748	 1.5654673494	-0.001915165	-0.450779
C	-0.0655779335	 0.0388445202	-0.0063753068	 0.293141
C	-1.4277910761	-0.5615159523	-0.3489400486	-0.450778
C	 1.1669019639	-0.6067061235	-0.6993026076	-0.124971
C	 2.0983648953	-0.3258695165	 0.522672727	 0.079853
O	 2.5848955754	-1.6958888906	 0.626826993	-0.33491
C	 1.1755768307	-1.8250703225	 0.2780593309	 0.079854
C	 0.7073411785	-0.6281308299	 1.1656448694	-0.124973
H	 0.8503171767	 2.0117371653	 0.2421184705	 0.113586
H	-0.4244508941	 1.9490196759	-0.9821635397	 0.115393
H	-0.8470870873	 1.9293414389	 0.7318694432	 0.115391
H	-1.7647527822	-0.2280628077	-1.337278627	 0.115391
H	-1.4069264531	-1.6555930343	-0.3564907264	 0.113586
H	-2.18704587	-0.247943451	 0.3768369538	 0.115393
H	 1.4550560459	-0.6123329468	-1.7518207848	 0.076099
H	 2.7986861251	 0.4879496621	 0.7045944489	 0.096313
H	 0.7595296691	-2.8249474122	 0.1640508593	 0.096313
H	 0.4735696206	-0.6580939044	 2.2311550599	 0.076099
196.2481	220.1932	226.6937	245.743	331.5355	346.7098	534.8063	561.7313	607.7239	767.4033	799.3896	804.4756	812.0431	864.6148	882.2211	910.1243	952.6716	963.2891	967.3004	1022.0918	1029.0632	1114.2415	1122.202	1136.739	1149.0751	1159.5842	1183.2374	1212.171	1227.9549	1236.0884	1330.8538	1343.6788	1406.8578	1424.6853	1479.85	1489.7239	1502.9848	1508.6641	3023.3383	3027.8723	3082.877	3087.2867	3100.1071	3100.9787	3104.5815	3105.136	3127.0655	3137.4085
CC1(C)C2C3OC2C13	CC1(C)[C@H]2[C@@H]3O[C@H]2[C@H]13	
InChI=1S/C7H10O/c1-7(2)3-5-4(7)6(3)8-5/h3-6H,1-2H3	InChI=1S/C7H10O/c1-7(2)3-5-4(7)6(3)8-5/h3-6H,1-2H3/t3-,4+,5-,6+
