18
gdb 98552	3.60622	1.15483	0.96518	3.1487	73.97	-0.2598	0.0036	0.2635	1248.9196	0.147477	-439.072838	-439.064119	-439.063175	-439.107069	31.441	
C	-0.0506807796	 1.3506235344	 0.0612023938	-0.239843
O	-0.0853953748	-0.0763500774	 0.1790250309	-0.239112
C	 0.853705956	-0.6047513419	 0.9977919015	 0.374002
O	 1.6693309358	 0.0496065112	 1.5935154505	-0.368184
C	 0.7023122735	-2.0824294547	 1.0666226436	 0.211265
C	-0.4259755998	-2.9453074951	 0.479586427	-0.304467
C	-0.3563072911	-3.8563329879	 1.7511123887	-0.240406
C	 0.7737479045	-2.9709304211	 2.2958235805	-0.06844
N	 1.8862979647	-2.8806099721	 1.3773698108	-0.330016
H	 0.9136048061	 1.6814924931	-0.3327303026	 0.142772
H	-0.8549686901	 1.6122166895	-0.626634655	 0.130814
H	-0.2096911689	 1.8222427387	 1.0344106665	 0.140307
H	-1.372367017	-2.4094821545	 0.4023164159	 0.125494
H	-0.2052351917	-3.4099104814	-0.4866741482	 0.100998
H	-1.2705289448	-3.8067312538	 2.3463248448	 0.115075
H	-0.091662769	-4.9082143315	 1.6023563543	 0.104293
H	 0.9446814897	-2.6779178528	 3.3251857596	 0.115302
H	 1.9631953166	-3.6898803826	 0.7627957174	 0.230145
45.8803	107.534	127.8992	159.1887	211.809	312.3002	324.0365	401.8032	446.296	508.7694	734.3118	762.8168	782.6485	797.5254	844.4893	904.5946	938.1814	950.9223	993.8345	1050.0003	1060.3685	1092.2939	1109.916	1162.6039	1179.4222	1187.325	1211.7642	1221.1315	1228.3995	1257.9855	1297.1974	1301.9735	1429.3238	1474.1226	1480.2992	1480.6846	1497.3103	1499.4434	1827.2657	3049.5028	3050.9988	3058.1161	3109.8788	3125.1797	3134.7069	3156.9714	3188.3649	3457.7309
COC(=O)C12CCC1N2	COC(=O)[C@]12CC[C@H]1N2	
InChI=1S/C6H9NO2/c1-9-5(8)6-3-2-4(6)7-6/h4,7H,2-3H2,1H3	InChI=1S/C6H9NO2/c1-9-5(8)6-3-2-4(6)7-6/h4,7H,2-3H2,1H3/t4-,6+/m1/s1
