12
gdb 21517	3.79983	1.90141	1.2683	3.3907	66.09	-0.2135	0.0003	0.2138	872.6626	0.083714	-377.489699	-377.48263	-377.481686	-377.520749	26.581	
N	 0.0142298588	 1.3517517419	-0.1582808014	-0.602364
C	-0.0487201321	-0.0024568877	-0.061961341	 0.406734
C	-1.1259367831	-0.8686231245	-0.0189686854	-0.02481
C	-0.4852486285	-2.1426722508	 0.0104323432	-0.048471
N	 0.8175734419	-2.0713301091	-0.0068218186	-0.153938
O	 1.0990946072	-0.6770614931	-0.0543788784	-0.211226
C	-2.4902653188	-0.5260887546	-0.0016923467	 0.177925
C	-3.6526203594	-0.2057683342	 0.0189279651	-0.422482
H	 0.8732496604	 1.7843444282	 0.1446503997	 0.274909
H	-0.8289158555	 1.8428198667	 0.0966432795	 0.277686
H	-0.9578940232	-3.1142533966	 0.0473369755	 0.138446
H	-4.6792757676	 0.0635104638	 0.0278254785	 0.187592
128.1116	166.6877	277.7697	330.7861	373.0043	467.4359	481.8659	517.7844	521.7532	599.4387	623.2065	678.6559	740.133	750.6872	870.0144	918.9807	942.8585	1060.9266	1194.7798	1230.0022	1332.1257	1438.8868	1554.0371	1619.7858	1669.4011	2226.941	3245.0046	3504.3296	3583.9377	3696.9237
NC1=C(C=NO1)C#C	Nc1c(cno1)C#C	
InChI=1S/C5H4N2O/c1-2-4-3-7-8-5(4)6/h1,3H,6H2	InChI=1S/C5H4N2O/c1-2-4-3-7-8-5(4)6/h1,3H,6H2
