20
gdb 122661	5.28125	0.64494	0.60422	2.4535	76.32	-0.2478	0.0221	0.2699	1813.7491	0.171393	-440.293482	-440.284023	-440.283079	-440.329278	33.194	
O	-0.0355265306	 1.4440641203	 0.0393993299	-0.420376
C	 0.0240961257	 0.0269598171	 0.1000133454	-0.075397
C	-1.3991015573	-0.5071536577	 0.0116490529	-0.165876
C	-1.4582513194	-2.036026334	 0.0324444763	-0.197802
C	-2.8874168632	-2.5872856613	-0.0154849022	 0.011448
C	-2.9571779709	-4.1401086881	-0.0361436572	-0.126016
O	-3.7814283352	-4.4787513875	 1.1061487373	-0.221248
C	-4.072588034	-3.2947675914	 1.6955469626	 0.123486
N	-3.657374819	-2.2111585158	 1.1906302379	-0.267365
H	 0.8596486953	 1.7863126552	 0.1164501851	 0.284304
H	 0.6297390428	-0.3810464259	-0.7271579836	 0.078179
H	 0.4906437491	-0.3127865026	 1.0396618026	 0.08344
H	-1.9857078797	-0.104602657	 0.8427766227	 0.133637
H	-1.8551674046	-0.1259048787	-0.910570202	 0.101708
H	-0.9008246795	-2.444918418	-0.8219525483	 0.093057
H	-0.9704460512	-2.4213966653	 0.9381246054	 0.098874
H	-3.3975586514	-2.1619174439	-0.8888906654	 0.089512
H	-3.430836241	-4.5503443639	-0.9311768905	 0.120497
H	-1.978259986	-4.611975478	 0.0990705941	 0.114663
H	-4.6706884698	-3.3825338735	 2.596185977	 0.141274
50.5134	72.2054	84.4769	122.8722	153.7609	261.2849	283.0489	296.3614	384.3233	484.7877	588.0268	723.1742	762.1768	829.7104	875.9509	891.7434	962.6606	964.6756	974.4415	996.2444	1035.6265	1067.6639	1079.8635	1104.0953	1132.8317	1158.316	1208.4085	1225.5596	1238.6485	1291.6782	1296.25	1310.9628	1317.6564	1331.8747	1358.1932	1381.1432	1397.3531	1464.4291	1481.0322	1502.2156	1518.5368	1529.3282	1708.9084	2951.475	2976.6834	3005.1068	3019.2738	3035.5918	3046.8653	3049.283	3099.5616	3102.4133	3212.9508	3830.4914
OCCCC1COC=N1	OCCC[C@H]1COC=N1	
InChI=1S/C6H11NO2/c8-3-1-2-6-4-9-5-7-6/h5-6,8H,1-4H2	InChI=1S/C6H11NO2/c8-3-1-2-6-4-9-5-7-6/h5-6,8H,1-4H2/t6-/m0/s1
