18
gdb 9355	7.51963	0.76802	0.71135	4.6302	66.7	-0.2442	-0.01	0.2342	1577.7295	0.149586	-422.067589	-422.057558	-422.056614	-422.103796	33.322	
C	-0.0135406902	 1.4595917429	 0.0992969998	-0.384574
C	-0.0351678374	-0.0520284707	-0.0446675346	-0.028037
O	-1.3794248401	-0.4883214251	 0.0314941778	-0.221225
C	-1.5190186201	-1.8681504649	-0.0954800354	-0.163368
C	-2.9979037107	-2.2538188908	-0.0778517746	 0.356912
O	-3.8869690796	-1.4588326082	-0.2133918589	-0.256794
C	-3.2398192317	-3.7492766925	 0.125455784	-0.176105
O	-4.5789831408	-4.0515151653	-0.1602118941	-0.393475
H	 1.0135061335	 1.8322762537	 0.0426682764	 0.114293
H	-0.5998925455	 1.9272586508	-0.6961981207	 0.134026
H	-0.4409587993	 1.7585954507	 1.0602821523	 0.131107
H	 0.4076064173	-0.3582991384	-1.0078439111	 0.087238
H	 0.5647787036	-0.527462336	 0.7502573087	 0.085336
H	-1.0913991476	-2.2383988148	-1.0474716812	 0.108654
H	-0.9884366255	-2.4146655574	 0.7070150586	 0.097173
H	-2.5291980419	-4.3087385243	-0.5085623686	 0.102169
H	-2.966219044	-3.9763082061	 1.1716607818	 0.112994
H	-4.7248030701	-4.9805708835	 0.03984852	 0.293678
44.2701	62.229	83.2335	118.7191	130.8952	228.3477	244.0112	251.047	318.67	332.2638	468.2218	492.5511	682.8108	819.213	827.8242	878.6734	925.4333	1005.7148	1067.1387	1084.984	1148.747	1157.581	1187.7693	1196.4324	1230.7059	1244.6553	1275.9472	1297.1863	1381.4459	1404.92	1437.3756	1445.6463	1482.8498	1487.8087	1495.9536	1500.0136	1532.0548	1853.8937	2920.6174	2939.355	2945.8788	2953.2996	2966.7109	2976.5541	3046.9733	3121.3456	3126.0465	3836.7964
CCOCC(=O)CO	CCOCC(=O)CO	
InChI=1S/C5H10O3/c1-2-8-4-5(7)3-6/h6H,2-4H2,1H3	InChI=1S/C5H10O3/c1-2-8-4-5(7)3-6/h6H,2-4H2,1H3
