17
gdb 51680	3.41957	1.06403	0.84224	4.9915	75.2	-0.2404	-0.057	0.1834	1311.8796	0.135209	-421.871076	-421.862557	-421.861613	-421.905627	30.353	
O	-0.6799810875	 0.9147341527	 1.0014531988	-0.245344
C	-0.063959902	 1.0271616742	-0.0287244592	 0.142634
C	 1.3048884301	 1.6833014035	-0.1109670012	-0.292369
C	 1.404047408	 2.7667198079	-1.2027039877	-0.116643
C	 2.6633401708	 3.6598194598	-1.1208698747	-0.295452
C	 3.1766234023	 3.7120907241	-2.5371694017	-0.049235
C	 2.5010003063	 2.9123639625	-3.3706667973	-0.162259
C	 1.4340108157	 2.1980073563	-2.637865557	 0.375386
O	 0.718098691	 1.318186194	-3.0628150659	-0.336353
H	-0.4615726426	 0.6539998894	-0.9928194104	 0.116207
H	 1.5304631619	 2.1019178721	 0.8744982275	 0.120743
H	 2.0422894152	 0.894806627	-0.3186487826	 0.125513
H	 0.513568785	 3.4065210755	-1.1465988136	 0.118398
H	 2.4517091571	 4.6603435499	-0.727371436	 0.126472
H	 3.4246108269	 3.2284040709	-0.4573441412	 0.128876
H	 4.0232510211	 4.3316483283	-2.8143080777	 0.121754
H	 2.6914640003	 2.7494113419	-4.4234169302	 0.121672
43.1439	70.9531	100.0348	186.551	247.5174	318.7258	347.9012	455.9006	514.7957	615.8928	674.5702	756.3513	770.2736	798.6229	818.269	929.6644	958.5922	991.618	1008.9303	1029.6419	1089.1687	1106.8187	1118.595	1177.9786	1185.8293	1200.0614	1274.6537	1284.1174	1330.7632	1344.6334	1367.2726	1418.271	1461.4732	1474.8409	1650.3813	1802.7334	1825.3606	2954.8374	3014.3539	3025.5855	3028.4587	3064.6399	3091.2924	3189.5132	3230.3288
O=CCC1CC=CC1=O	O=CC[C@H]1CC=CC1=O	
InChI=1S/C7H8O2/c8-5-4-6-2-1-3-7(6)9/h1,3,5-6H,2,4H2	InChI=1S/C7H8O2/c8-5-4-6-2-1-3-7(6)9/h1,3,5-6H,2,4H2/t6-/m1/s1
