18
gdb 111124	3.5115	1.33918	1.22761	1.361	70.75	-0.2329	0.0728	0.3057	1070.1171	0.148577	-438.992627	-438.985238	-438.984294	-439.024631	29.025	
C	-0.0026753766	 1.325591166	-0.2070608915	-0.245726
O	-0.0747925001	 0.0316724798	 0.3498053148	-0.256849
C	-1.3307504616	-0.5552906764	 0.2060758663	 0.212037
C	-1.6038423981	-1.2938984474	-1.1521748524	-0.116274
N	-0.673049434	-2.3597153674	-0.6266202478	-0.299234
C	-1.3354453662	-2.02650424	 0.689949166	-0.109603
C	-2.8092840286	-2.4527241881	 0.4426731153	 0.02586
O	-3.7474794778	-1.3863357584	 0.2112770537	-0.246593
C	-3.0053370995	-1.9147255068	-0.9050652656	 0.024642
H	 0.9916517023	 1.7172766872	 0.0185627962	 0.129743
H	-0.137866288	 1.3142019219	-1.2988169558	 0.106828
H	-0.7591759018	 1.9979160125	 0.2272183958	 0.106015
H	-2.1247870118	 0.0990714088	 0.5708893654	 0.095392
H	-1.3855485062	-0.8669765813	-2.1307158733	 0.073451
H	-0.9300801671	-3.2918956435	-0.960901105	 0.20292
H	-0.8367751402	-2.3420049449	 1.6057137756	 0.079236
H	-3.2216571427	-3.3794233135	 0.8283758333	 0.109222
H	-3.5934569222	-2.3698362385	-1.695732261	 0.108931
84.8851	177.2385	180.242	313.8361	368.4659	389.4736	452.2362	559.0022	598.8973	693.9944	786.0458	827.0783	858.2975	878.0082	894.179	911.4902	943.9426	968.9966	986.9921	1026.1168	1048.7811	1084.9796	1115.9059	1134.8741	1172.8138	1183.2881	1209.16	1215.1643	1235.4529	1246.7746	1269.7822	1282.679	1292.5188	1334.2209	1381.2368	1418.2383	1482.2081	1489.0106	1508.372	2976.3243	3024.4947	3091.9344	3119.6889	3123.7407	3129.5602	3162.6813	3175.4661	3408.8701
COC1C2NC1C1OC21	CO[C@H]1[C@H]2N[C@@H]1[C@H]1O[C@@H]21	
InChI=1S/C6H9NO2/c1-8-4-2-5-6(9-5)3(4)7-2/h2-7H,1H3	InChI=1S/C6H9NO2/c1-8-4-2-5-6(9-5)3(4)7-2/h2-7H,1H3/t2-,3+,4+,5+,6-
