20
gdb 35430	3.66852	1.17949	1.07438	4.3405	82.27	-0.2943	0.0391	0.3333	1174.9973	0.174928	-366.032517	-366.025061	-366.024116	-366.064409	30.089	
N	 0.0408414623	-1.1826963188	 0.029496713	-0.326476
C	 0.004156861	-0.0274791113	-0.0006618723	 0.251596
C	-0.0345731558	 1.4328989917	-0.0256297373	-0.135106
C	-0.8376139868	 2.0095486011	 1.179362239	-0.217627
C	-0.4387195345	 3.4718359203	 1.4355445876	-0.014793
C	 0.0053273978	 4.1754948161	 0.1174969719	-0.232842
C	 1.3915614365	 3.5018550269	 0.3501516477	-0.014792
C	 1.0523472748	 3.5316851883	 1.8652640137	-0.212666
C	 1.3935008496	 2.0461398324	-0.1437317268	-0.217634
H	-0.5785201936	 1.7090049552	-0.9352473024	 0.13077
H	-1.9064489091	 1.9215817348	 0.9592738649	 0.112103
H	-0.6503114605	 1.416052429	 2.080586694	 0.12119
H	-1.1763662696	 3.9730662206	 2.0662108782	 0.068838
H	-0.5401577167	 3.969587241	-0.8080398221	 0.092346
H	 0.0677386298	 5.2578747094	 0.2526841038	 0.101645
H	 2.2862683385	 4.0298597702	 0.0128014974	 0.068838
H	 1.3058134707	 4.4932957524	 2.3192798435	 0.09872
H	 1.4379656652	 2.7220441204	 2.493136404	 0.092601
H	 2.1087403102	 1.461304806	 0.4444184649	 0.121188
H	 1.7149126401	 1.9809706842	-1.1882572224	 0.112101
93.1579	158.3225	281.7534	292.3529	362.4894	410.0419	481.1409	522.156	549.9534	550.6012	757.6812	826.3153	826.4277	859.014	865.5753	908.4529	932.6604	932.7175	984.3061	1006.5617	1038.903	1061.4028	1085.3235	1100.9226	1117.8728	1127.0899	1168.7424	1223.199	1225.258	1256.3389	1265.7395	1301.4196	1317.4468	1330.2624	1333.3501	1355.5027	1356.3943	1389.6118	1484.572	1494.1376	1498.025	1518.6828	2354.4494	3042.3202	3043.0778	3044.595	3045.9434	3056.1584	3078.0804	3081.0613	3084.549	3088.9779	3104.0711	3109.4904
N#CC1CC2CC(C2)C1	N#C[C@H]1C[C@@H]2C[C@@H](C2)C1	
InChI=1S/C8H11N/c9-5-8-3-6-1-7(2-6)4-8/h6-8H,1-4H2	InChI=1S/C8H11N/c9-5-8-3-6-1-7(2-6)4-8/h6-8H,1-4H2/t6-,7+,8-
