14
gdb 25165	3.06865	1.52119	1.01703	3.1064	83.69	-0.2149	-0.0569	0.1581	1083.935	0.102859	-395.736667	-395.729217	-395.728273	-395.768587	28.538	
N	-0.0380376531	 1.2858973158	 0.4034851616	-0.541452
C	-0.016440524	 0.0574251746	 0.0574218188	 0.311015
N	 1.1383988108	-0.6536742428	-0.3417448367	-0.350573
C	 1.1426954132	-1.9615956166	-0.7069115528	 0.113495
N	 0.0934216341	-2.7162483193	-0.7345262086	-0.284117
C	-1.0812837177	-2.1070851994	-0.3603166658	-0.078243
C	-1.206714016	-0.8006938842	 0.0255168482	 0.023981
C	-2.4621916415	-0.2572748543	 0.3954890801	 0.273851
C	-3.5432497378	 0.1738680243	 0.7037535701	-0.383376
H	 0.887615549	 1.7141835204	 0.3616922428	 0.19915
H	 2.0100929358	-0.1428191964	-0.3511472568	 0.259555
H	 2.1119859138	-2.3660995016	-0.9883474225	 0.137205
H	-1.9621443294	-2.7402101874	-0.3833871702	 0.125506
H	-4.4887322371	 0.5707481369	 0.9787291818	 0.194003
108.1491	146.6793	190.6943	337.1001	386.8525	465.1408	465.2871	568.5623	568.9577	586.6913	594.2136	653.991	657.5773	739.5922	780.3153	809.2478	906.0753	937.0198	983.5354	1051.7268	1107.5369	1199.766	1220.2974	1302.0551	1392.9448	1414.725	1476.352	1572.1267	1646.5003	1724.5774	2227.6991	3166.9295	3190.0315	3464.521	3505.148	3601.2689
N=C1NC=NC=C1C#C	[NH]C1=C(CN=CN1)C#C	
InChI=1S/C6H5N3/c1-2-5-3-8-4-9-6(5)7/h1,3-4H,(H2,7,8,9)	InChI=1S/C6H6N3/c1-2-5-3-8-4-9-6(5)7/h1,4,7H,3H2,(H,8,9)
