20
gdb 35273	3.33066	0.88267	0.79357	1.6711	85.84	-0.2423	0.0376	0.28	1503.9392	0.170058	-365.935496	-365.92625	-365.925306	-365.970397	34.723	
C	-0.1382340212	-1.1903444195	 0.1739882539	-0.450561
C	-0.0165026166	 0.0056413027	 0.2017844466	 0.38353
C	 0.0987408849	 1.4383508833	 0.1979522831	-0.258039
N	 0.9435061144	 2.0668887207	 1.2456335782	-0.31992
C	 1.3708023677	 2.1495199318	-0.153771913	 0.010803
C	 2.6396785249	 1.4164696012	-0.528000014	-0.233876
C	 3.8854210213	 2.2403991696	-0.2685355716	 0.030122
C	 4.456161651	 2.3286612148	 1.1245229278	-0.248785
C	 5.1930130381	 1.5625187049	 0.0530630053	-0.279681
H	-0.2402976924	-2.2471142995	 0.1607747999	 0.197193
H	-0.820447359	 1.9560135615	-0.0694956215	 0.108349
H	 0.5119135844	 2.9367876209	 1.5468625312	 0.234977
H	 1.2301466135	 3.10578134	-0.6585935488	 0.08502
H	 2.6825304761	 0.4839292925	 0.0437062156	 0.114284
H	 2.5893775954	 1.1358366329	-1.5887161013	 0.09998
H	 3.9583392878	 3.1445083124	-0.8693688244	 0.075163
H	 4.870634159	 3.2745133872	 1.4560676765	 0.10465
H	 3.9537892284	 1.7652644712	 1.9027546241	 0.128459
H	 5.1983954745	 0.4790743692	 0.1155226455	 0.110808
H	 6.1068082679	 1.9865349521	-0.3486743133	 0.107523
47.5809	77.2843	94.7532	178.3649	219.7941	308.7541	339.544	369.1211	458.9249	550.7258	590.4112	613.4838	656.5873	774.472	799.6226	805.2216	816.3634	843.4909	891.0907	911.745	944.631	968.1287	1013.8916	1029.9589	1054.2321	1075.7202	1088.3639	1136.4159	1144.4093	1197.872	1198.8618	1224.0309	1236.2479	1249.845	1284.3343	1323.4972	1401.5672	1413.8606	1459.3244	1468.5497	1475.4487	1509.2508	2238.9876	3021.6928	3079.6101	3101.8311	3122.902	3126.2826	3129.6573	3137.9549	3208.5777	3225.5484	3503.0831	3504.8133
C#CC1NC1CC1CC1	C#C[C@H]1N[C@H]1CC1CC1	
InChI=1S/C8H11N/c1-2-7-8(9-7)5-6-3-4-6/h1,6-9H,3-5H2	InChI=1S/C8H11N/c1-2-7-8(9-7)5-6-3-4-6/h1,6-9H,3-5H2/t7-,8+/m1/s1
