20
gdb 95703	2.9073	1.26685	0.9641	2.498	76.19	-0.2198	-0.0207	0.199	1246.579	0.171428	-440.294868	-440.286017	-440.285073	-440.328717	33.543	
C	 0.3154180395	 1.6634604998	 0.0745405691	-0.393394
C	 0.010780515	 0.1706847254	 0.0380229098	 0.114534
C	 0.1008404278	-0.3997809638	-1.3890047792	-0.154262
N	-0.1744060392	-1.8193379495	-1.5501980278	-0.294727
C	 0.6929238366	-2.751239818	-0.8305621725	-0.243628
C	 0.3321336095	-2.8821747336	 0.6484518922	 0.328538
O	-0.1168884213	-3.9002805828	 1.1225893954	-0.299896
C	 0.5041752318	-1.6403714934	 1.5358345118	-0.17933
O	 0.9561426753	-0.4759046312	 0.8918197013	-0.250535
H	 1.3331996317	 1.851337158	-0.2819984022	 0.128098
H	-0.3811563428	 2.219591993	-0.5601869874	 0.115934
H	 0.2373928094	 2.0441979919	 1.0958401346	 0.124658
H	-1.0050147048	-0.0072592708	 0.4303671779	 0.062809
H	-0.5904035317	 0.1520682827	-2.0372804581	 0.102587
H	 1.1153848425	-0.207846684	-1.7629435553	 0.111865
H	-1.1509353034	-2.0320392089	-1.3778154536	 0.223784
H	 0.6118147607	-3.7484111052	-1.2738576983	 0.12084
H	 1.7269895502	-2.4026128798	-0.932526462	 0.12381
H	-0.4448999874	-1.4738272445	 2.0693667785	 0.119519
H	 1.2543986304	-1.8946116353	 2.2937028058	 0.1388
43.9706	121.1088	211.515	221.0681	275.6366	319.8247	333.9367	338.6457	453.2939	469.8667	501.4912	579.8087	608.7409	691.6341	768.8346	824.7859	893.7651	901.7796	946.2844	972.7029	1041.2312	1086.0334	1121.99	1146.584	1160.6832	1175.4793	1206.9184	1263.3538	1279.3402	1318.9791	1337.6285	1348.4592	1364.2544	1392.0027	1396.7585	1409.6671	1451.0353	1454.3018	1466.9415	1484.8493	1497.9538	1504.556	1806.4439	2958.6736	2989.2963	3018.9409	3039.8883	3042.838	3067.6306	3067.9531	3097.8902	3114.699	3124.3639	3531.9582
CC1CNCC(=O)CO1	C[C@H]1CNCC(=O)CO1	
InChI=1S/C6H11NO2/c1-5-2-7-3-6(8)4-9-5/h5,7H,2-4H2,1H3	InChI=1S/C6H11NO2/c1-5-2-7-3-6(8)4-9-5/h5,7H,2-4H2,1H3/t5-/m0/s1
