18
gdb 101520	2.46997	1.01996	0.76928	6.6463	75.92	-0.2688	-0.0423	0.2265	1463.8202	0.147463	-435.300565	-435.290597	-435.289653	-435.335984	35.255	
C	 0.1227447721	 1.6140301412	 0.0604804605	-0.39971
C	 0.0532806316	 0.0856990437	 0.0158150916	 0.062243
C	 0.7401217313	-0.5369525181	 1.2420257372	-0.180734
N	 0.4742838006	-1.9755124326	 1.3197340971	-0.520204
H	 1.0064207125	-2.4795917958	 0.6165767916	 0.23864
H	 0.7564291572	-2.3430281668	 2.2214697956	 0.243555
H	-1.4758606719	-1.2332191514	 0.5690188099	 0.272214
N	-1.3222479316	-0.4139229754	-0.0100925767	-0.324176
C	-2.1774677735	-0.1661658481	-1.0261211015	 0.342571
O	-1.999457682	 0.5918194272	-1.9584949162	-0.355114
C	-3.4426476714	-0.9289113432	-0.9002208569	 0.218221
N	-4.4368695664	-1.5146203935	-0.839826778	-0.31774
H	 1.1676985227	 1.9355639105	 0.1138317265	 0.11631
H	-0.3312736365	 2.0442172924	-0.8320869745	 0.162353
H	-0.4025991195	 1.9967845823	 0.941445283	 0.121048
H	 0.5638582148	-0.2606758161	-0.8956048337	 0.098246
H	 1.806855033	-0.2703551153	 1.2042827753	 0.103427
H	 0.3246535369	-0.075724581	 2.1457587292	 0.118849
62.7732	88.8887	115.3347	145.1858	223.6228	230.9099	249.7203	293.032	317.874	364.0131	456.8154	495.9911	550.7013	605.465	646.3091	771.269	836.6677	867.7712	903.3014	950.1923	972.0024	1053.2714	1079.2491	1126.4655	1164.3381	1226.4922	1264.864	1320.8304	1346.2353	1382.4858	1403.5347	1426.9136	1481.4042	1503.7895	1510.1822	1523.9022	1658.6577	1779.8474	2348.3316	2988.2521	2994.4218	3043.7006	3062.8663	3110.3635	3157.1017	3503.0896	3533.6478	3586.5963
CC(C[NH3+])[N-]C(=O)C#N	C[C@@H](CN)NC(=O)C#N	
InChI=1S/C5H9N3O/c1-4(2-6)8-5(9)3-7/h4H,2,6H2,1H3,(H,8,9)	InChI=1S/C5H9N3O/c1-4(2-6)8-5(9)3-7/h4H,2,6H2,1H3,(H,8,9)/t4-/m0/s1
