19
gdb 88449	2.94668	1.15797	1.0385	2.3453	72.48	-0.2373	0.0735	0.3108	1231.609	0.156655	-460.119386	-460.110064	-460.109119	-460.15321	35.512	
C	-0.4096917901	 1.4346391119	 0.0542666797	-0.439713
C	 0.039958697	-0.0031884574	 0.0960733486	 0.079746
O	 1.4380933124	-0.2944733021	-0.1145532358	-0.280889
C	 0.8537816342	-0.6104696909	 1.1622543508	-0.036682
C	 1.4510748849	 0.1525705977	 2.3111343761	 0.385362
O	 2.0787565234	 1.3489472862	 1.9534907363	-0.468548
C	 0.7754933031	 0.1579867456	 3.6579520956	-0.377761
C	 2.0593549234	-0.6219251034	 3.4564643626	 0.029674
O	 2.0148809312	-2.0176091774	 3.4004535674	-0.418341
H	 0.231526334	 2.0726901012	 0.6621690395	 0.150181
H	-0.4084021642	 1.8009625664	-0.9779969713	 0.124408
H	-1.4365033824	 1.5076935434	 0.4293988169	 0.121104
H	-0.6061964779	-0.6916522795	-0.4529120121	 0.091609
H	 0.7404030059	-1.6749466168	 1.3564932372	 0.113482
H	 2.4518536315	 1.1858489364	 1.0748636391	 0.291094
H	 0.8181664249	 1.0818895582	 4.2240104319	 0.127974
H	-0.142282336	-0.4125354318	 3.7600044575	 0.116526
H	 2.96962025	-0.1923568036	 3.8724968597	 0.099829
H	 1.7820699545	-2.345275234	 4.2756719204	 0.290947
65.6152	147.8275	196.1293	214.8832	226.2435	269.8323	307.9762	352.5505	401.7041	449.7038	463.6431	479.5393	515.6032	611.5895	737.8892	791.4697	826.5821	870.011	916.3785	938.9026	965.8076	989.1649	1037.0348	1050.4453	1088.9549	1105.9635	1158.282	1164.6162	1186.5395	1229.7069	1270.1231	1296.2846	1326.9523	1358.0039	1402.3401	1411.1477	1434.3682	1460.1574	1498.9632	1505.5481	1512.5485	3038.6429	3084.0951	3096.0301	3116.6484	3129.9463	3142.3478	3157.7161	3225.871	3735.202	3800.1429
CC1OC1C1(O)CC1O	C[C@H]1O[C@H]1[C@@]1(O)C[C@H]1O	
InChI=1S/C6H10O3/c1-3-5(9-3)6(8)2-4(6)7/h3-5,7-8H,2H2,1H3	InChI=1S/C6H10O3/c1-3-5(9-3)6(8)2-4(6)7/h3-5,7-8H,2H2,1H3/t3-,4-,5-,6-/m1/s1
