19
gdb 50096	4.06729	0.79049	0.73045	2.5767	78.38	-0.2409	-0.0284	0.2125	1559.4635	0.158519	-419.149566	-419.140587	-419.139642	-419.18443	32.498	
O	-0.1912501969	 0.3881168701	 0.8950594043	-0.258071
C	 0.2783208979	 0.7259703202	-0.1626291319	 0.173258
C	 1.4358507419	 1.6552683632	-0.2916572692	-0.135877
N	 2.1652368519	 1.5962140962	-1.5769599968	-0.33085
C	 1.4376620048	 2.8148806166	-1.2496157932	 0.003064
C	 0.265316232	 3.1934445906	-2.1261202047	-0.16191
N	 0.7311061462	 4.0376622037	-3.2198696835	-0.071587
C	 1.1636947744	 3.3388158217	-4.4290377444	-0.21589
C	-0.1230870695	 4.0865513309	-4.4020672393	-0.223322
H	-0.1186426025	 0.3523621543	-1.1312491752	 0.084498
H	 1.9895778974	 1.7950512319	 0.6336537145	 0.107442
H	 3.1630037037	 1.7027063799	-1.4178820703	 0.245268
H	 2.018300189	 3.6744000549	-0.9181225215	 0.107793
H	-0.2444712243	 2.2835406782	-2.4841757231	 0.089487
H	-0.4582135748	 3.7704211017	-1.5370943639	 0.11429
H	 2.0320474847	 3.7580682081	-4.9288724655	 0.116413
H	 1.1153384122	 2.2522621363	-4.4305742981	 0.1255
H	-1.0400373266	 3.4992951943	-4.3930827862	 0.11146
H	-0.2101232116	 5.057367247	-4.8811808221	 0.119034
55.8594	73.2744	92.8743	152.6322	252.9247	285.3095	354.0609	373.4834	441.9535	472.6045	531.9736	765.2378	816.5882	840.4067	853.7089	903.4066	925.1379	966.5456	1003.6454	1014.7054	1040.141	1051.9904	1063.5161	1113.337	1118.473	1136.2517	1169.8918	1174.2969	1209.2901	1234.3243	1246.8381	1294.9852	1321.2308	1350.2983	1374.3001	1420.9971	1474.6507	1481.0114	1494.4024	1522.3019	1822.0565	2901.2141	2966.0545	3051.2287	3097.239	3106.9881	3124.5943	3148.2736	3181.3855	3196.9185	3516.9768
O=CC1NC1CN1CC1	O=C[C@H]1N[C@H]1CN1CC1	
InChI=1S/C6H10N2O/c9-4-6-5(7-6)3-8-1-2-8/h4-7H,1-3H2	InChI=1S/C6H10N2O/c9-4-6-5(7-6)3-8-1-2-8/h4-7H,1-3H2/t5-,6+/m0/s1
