19
gdb 111200	2.72633	1.27013	1.0128	2.4504	77.15	-0.2447	-0.0291	0.2156	1222.6942	0.158251	-422.966472	-422.957864	-422.956919	-423.000364	31.578	
C	-0.0089119003	 1.3033270495	-0.0032106971	-0.246766
O	-0.1018272955	-0.0215735939	 0.4749931368	-0.256548
C	-1.3363455016	-0.6189770857	 0.2055716194	 0.188696
C	-1.540256339	-1.3574628198	-1.1628319287	-0.121756
C	-0.508029434	-2.4082315303	-0.6554672179	-0.233651
C	-1.4363543951	-2.1224958046	 0.568778083	-0.103306
C	-2.6312675655	-2.2226048158	-0.4228587477	-0.07202
C	-3.9847898641	-1.6486803464	-0.1124912962	 0.118708
O	-4.2969306891	-1.0684041046	 0.8987659599	-0.247497
H	 0.9609617349	 1.6945088002	 0.312290743	 0.129249
H	-0.0706070983	 1.3509437558	-1.1007024392	 0.106658
H	-0.8031059062	 1.9402238745	 0.4150349947	 0.112166
H	-2.1571532255	 0.0211634001	 0.5417538463	 0.09115
H	-1.6281024943	-0.9321858388	-2.1634064472	 0.078095
H	-0.5758151813	-3.4060816861	-1.0960978785	 0.090256
H	 0.5205543501	-2.0649951049	-0.5661358473	 0.119935
H	-1.3845797382	-2.5579107898	 1.5660118788	 0.085727
H	-2.7640714492	-3.2039444037	-0.8930545811	 0.086877
H	-4.735402338	-1.8161737057	-0.9211685009	 0.074026
66.0539	95.4605	156.8733	171.7699	201.2247	287.8823	342.4445	412.2855	462.8604	570.3503	714.5104	761.0076	804.3172	839.3376	888.0544	907.9275	939.5367	1006.2642	1013.4644	1026.9275	1051.9924	1078.2977	1089.2508	1107.39	1128.6203	1162.1123	1184.1099	1195.7323	1208.6666	1228.4588	1231.7756	1249.9481	1265.8453	1385.8582	1423.1127	1430.6118	1482.9608	1489.6075	1506.3352	1516.6755	1817.5573	2849.4996	2980.1124	3028.9022	3044.5593	3069.4848	3073.6483	3106.1188	3118.8339	3125.9334	3163.5144
COC1C2CC1C2C=O	CO[C@H]1[C@H]2C[C@@H]1[C@H]2C=O	
InChI=1S/C7H10O2/c1-9-7-4-2-5(7)6(4)3-8/h3-7H,2H2,1H3	InChI=1S/C7H10O2/c1-9-7-4-2-5(7)6(4)3-8/h3-7H,2H2,1H3/t4-,5+,6-,7-
