15
gdb 68120	3.07158	1.2773	1.08533	3.3406	68.69	-0.2501	-0.0391	0.211	1099.936	0.110392	-457.733663	-457.725314	-457.72437	-457.766944	30.252	
O	-0.065718711	 1.3612678921	 0.0666027467	-0.454021
C	 0.02803095	-0.0005607699	 0.0265460967	 0.281075
C	 0.7026411484	-0.9904322442	 1.0682717214	-0.34386
C	 0.0256853594	-1.9413227133	 0.0227359614	 0.097962
C	-1.1953640345	-0.9689862116	 0.0380298938	-0.300456
C	 0.0203978598	-3.4211969087	 0.0077184116	 0.040407
O	-0.9709994237	-4.0915400188	-0.1481659343	-0.247193
C	 0.6289974275	-0.940634185	-1.0282696545	 0.346486
O	 1.2434178687	-0.9324814557	-2.044474175	-0.3107
H	 0.7644742117	 1.7439485576	-0.2402144843	 0.302702
H	 1.7916366164	-1.0014796776	 1.1422898395	 0.120194
H	 0.2161936441	-0.9924595781	 2.045787683	 0.127557
H	-1.7529154086	-0.9737280154	 0.9764578659	 0.124426
H	-1.8509873934	-0.9668319248	-0.8326360902	 0.131854
H	 1.0218892853	-3.8882023665	 0.1354489382	 0.083565
73.9991	147.4574	155.6629	184.7827	225.0499	271.0278	374.5539	446.9222	512.8256	547.197	643.2167	686.386	754.5525	799.5867	818.778	849.2981	939.5959	997.6278	1027.3816	1036.1966	1065.3109	1112.0448	1131.1663	1141.6655	1156.3076	1303.3464	1311.1836	1414.7958	1430.5463	1490.0385	1537.5949	1803.9469	1920.4471	2887.816	3069.448	3080.9613	3147.3651	3157.9127	3802.7024
OC12CC(C1)(C=O)C2=O	O[C@@]12C[C@](C1)(C=O)C2=O	
InChI=1S/C6H6O3/c7-3-5-1-6(9,2-5)4(5)8/h3,9H,1-2H2	InChI=1S/C6H6O3/c7-3-5-1-6(9,2-5)4(5)8/h3,9H,1-2H2/t5-,6-
