16
gdb 24523	3.84521	1.65787	1.15842	3.2675	90.88	-0.1723	-0.0373	0.135	1002.3679	0.129166	-363.68117	-363.674918	-363.673974	-363.711437	26.445	
N	 0.0032927767	 1.3460974595	 0.0094295358	-0.384927
C	 1.1392211737	 2.0851630703	 0.0028426475	-0.024084
C	 2.3726391268	 1.4725833391	-0.0124732009	-0.147141
C	 2.464445165	 0.0654670644	-0.0214706972	-0.209372
C	 1.3195735874	-0.7033469819	-0.0149763456	 0.27424
C	 1.0360703546	-2.0934353727	-0.0203575053	-0.287036
C	-0.3444624971	-2.2330459112	-0.0078713798	-0.074241
C	-0.9953559284	-0.9602810173	 0.0056998096	-0.310302
C	 0.0134387668	-0.0213230009	 0.0014441249	 0.328896
H	-0.8864004707	 1.8233568242	 0.0206929045	 0.266438
H	 1.0062692068	 3.1586808011	 0.0103084063	 0.127288
H	 3.2628409909	 2.0877886159	-0.0174350484	 0.100454
H	 3.4437725549	-0.4043921862	-0.0335625404	 0.102907
H	 1.7680369807	-2.8876177507	-0.0319959561	 0.078192
H	-0.8728988566	-3.1788889478	-0.0082644175	 0.084794
H	-2.0610766915	-0.783084466	 0.0169373025	 0.073895
209.9934	245.8693	401.6454	410.1257	555.0924	560.5482	593.0168	606.3394	682.2795	702.1871	731.4029	744.6964	749.7897	783.772	857.406	881.9537	902.7755	904.2335	957.5078	1040.1321	1054.2562	1082.9141	1113.6595	1209.462	1226.7428	1281.1323	1308.4351	1358.2741	1396.8517	1423.4846	1491.9333	1509.4203	1539.256	1628.7925	1657.5948	3171.2128	3201.9434	3211.9054	3228.833	3229.4218	3239.5448	3611.2775
N1C=CC=C2C=CC=C12	[nH]1cccc2cccc12	
InChI=1S/C8H7N/c1-3-7-4-2-6-9-8(7)5-1/h1-6,9H	InChI=1S/C8H7N/c1-3-7-4-2-6-9-8(7)5-1/h1-6,9H
