17
gdb 24162	5.4101	0.93875	0.83019	1.5183	74.54	-0.1993	0.0132	0.2125	1353.2885	0.13783	-418.013894	-418.006139	-418.005195	-418.046971	29.235	
C	-0.3436456317	 1.089965917	-0.2815665576	-0.251787
C	 1.0721960612	 1.1251878027	 0.2369529783	-0.287022
C	 0.3691800747	-0.1929131446	 0.0770331387	 0.031771
N	-0.0365782149	-0.8742452531	 1.2675610551	-0.386244
C	-1.0843891976	-1.7726814798	 1.1886780788	 0.305206
C	-2.0728690549	-1.9104141838	 0.2616289883	-0.12399
O	-2.8939830143	-2.9363231915	 0.6900206028	-0.14283
C	-2.3390345596	-3.3509774959	 1.8374035921	 0.082682
N	-1.2698213806	-2.7137703728	 2.1941298971	-0.326523
H	-1.1280672564	 1.4167393671	 0.3904246604	 0.127809
H	-0.5176083065	 1.3012599792	-1.3306275544	 0.114148
H	 1.8749031297	 1.3600923458	-0.4523934845	 0.116808
H	 1.2215838848	 1.4820822714	 1.2494991414	 0.12266
H	 0.6786899582	-0.8235087219	-0.7589786508	 0.08778
H	 0.7155952673	-1.2181236341	 1.8491024409	 0.244511
H	-2.3412205229	-1.4223957262	-0.6559577188	 0.137777
H	-2.8240268465	-4.1667289494	 2.3505292823	 0.147241
70.6901	82.6152	124.8203	299.5748	344.6812	378.1962	487.986	575.9051	633.8366	648.5843	737.3278	754.139	776.6934	841.7763	844.6377	846.8396	935.3107	963.4438	1013.6099	1034.4146	1059.6848	1076.8183	1080.9183	1131.9597	1164.7651	1194.4147	1197.064	1244.233	1249.7041	1290.4477	1346.7934	1404.5507	1458.2409	1481.0666	1500.8409	1565.4618	1662.5185	3072.3221	3140.3485	3145.0277	3224.7593	3238.8506	3273.2326	3319.236	3581.8933
C1CC1NC1=COC=N1	C1CC1Nc1cocn1	
InChI=1S/C6H8N2O/c1-2-5(1)8-6-3-9-4-7-6/h3-5,8H,1-2H2	InChI=1S/C6H8N2O/c1-2-5(1)8-6-3-9-4-7-6/h3-5,8H,1-2H2
