14
gdb 18665	3.56666	2.37367	1.59828	1.4704	63.05	-0.2415	-0.0157	0.2258	767.9337	0.11046	-378.760636	-378.75455	-378.753606	-378.790769	23.822	
O	-0.0069243019	-0.0298315304	-0.2084787385	-0.362088
C	 0.0281626444	 1.1651341182	-0.0073937871	 0.425408
N	-1.1459662555	 1.8994807027	 0.1766855162	-0.343426
C	-1.2177868887	 3.2833621191	 0.0638349228	 0.081504
N	-0.2319006354	 4.0767737314	-0.0527823111	-0.232915
C	 1.0772803168	 3.5181086378	-0.0000875756	 0.010669
C	 1.5427054137	 2.8484258344	 1.2562200251	-0.298168
C	 1.2600389103	 1.985829053	 0.0399435649	-0.16743
H	-1.9965121363	 1.3572139841	 0.119018173	 0.260618
H	-2.2327098172	 3.6769174574	 0.0678852817	 0.129007
H	 1.8131117332	 4.0872999399	-0.5575412	 0.11044
H	 2.5839341905	 2.9584189883	 1.5351008448	 0.133158
H	 0.8490584433	 2.8017296685	 2.0883952012	 0.13535
H	 2.1037572127	 1.5272066258	-0.4607997774	 0.117873
137.3825	234.1387	327.265	433.6378	522.4876	540.4592	586.6543	651.7694	752.007	769.3676	771.5517	837.9071	911.6	937.373	970.918	988.5044	1039.2086	1066.1038	1101.2532	1122.3295	1171.2356	1205.6925	1267.3058	1358.9655	1390.9897	1425.6726	1449.7499	1477.8278	1731.6094	1808.9003	3141.328	3150.1958	3168.8965	3193.0933	3233.5267	3609.2221
O=C1NC=NC2CC12	O=C1NC=N[C@H]2C[C@@H]12	
InChI=1S/C5H6N2O/c8-5-3-1-4(3)6-2-7-5/h2-4H,1H2,(H,6,7,8)	InChI=1S/C5H6N2O/c8-5-3-1-4(3)6-2-7-5/h2-4H,1H2,(H,6,7,8)/t3-,4+/m1/s1
