19
gdb 52842	2.25266	1.12098	1.00382	2.4766	80.31	-0.2396	0.0301	0.2697	1334.1356	0.156621	-422.990152	-422.979974	-422.97903	-423.026464	36.64	
C	-0.1044043471	 1.43629172	-0.0619437728	-0.501976
C	-0.0366650558	-0.0181050805	-0.0228274828	 0.044313
C	 0.0597431849	-1.220028323	 0.0264306611	 0.009677
C	 0.1103801124	-2.6804705209	 0.0232636228	 0.210277
O	 1.0557103848	-3.1825662874	-0.8990837412	-0.465277
C	 0.2512380254	-3.3057264688	 1.4394868184	-0.26095
C	-1.2942733665	-3.3961013293	 1.534014083	-0.265512
C	-1.3466225223	-3.2824200535	-0.013667935	 0.103119
O	-2.3755959984	-2.5880636557	-0.653284956	-0.432839
H	 0.8937972509	 1.8791894217	 0.0226201344	 0.1568
H	-0.5498061556	 1.7917585867	-0.9973466788	 0.152975
H	-0.7103960657	 1.825032583	 0.7636254871	 0.154295
H	 0.9502894807	-2.6990011236	-1.7258617279	 0.282243
H	 0.7200505847	-4.2879565937	 1.3450965288	 0.118971
H	 0.7821894741	-2.7174667347	 2.1876600134	 0.110254
H	-1.7305177365	-4.2863279521	 1.9893182538	 0.104584
H	-1.723694526	-2.5072843776	 2.0052233501	 0.103565
H	-1.2852415483	-4.2693835247	-0.4814241843	 0.098763
H	-2.2856129258	-1.658126136	-0.4071478841	 0.276718
20.167	87.1108	89.9743	157.0622	239.6926	244.4601	285.1857	309.4143	343.1521	380.3621	415.9756	463.8272	513.8861	599.12	625.8354	658.0044	795.9123	850.4683	925.6584	958.729	990.1352	1043.2033	1051.2782	1054.2096	1085.8303	1122.2339	1157.8551	1162.6971	1218.7878	1239.6513	1253.0176	1296.9898	1335.0382	1368.2973	1413.6706	1437.7744	1475.8034	1478.338	1480.0474	1494.8242	2349.3186	3030.3376	3065.4155	3076.9114	3081.0727	3092.4893	3093.6671	3125.1192	3144.6496	3758.051	3807.7808
CC#CC1(O)CCC1O	CC#C[C@@]1(O)CC[C@H]1O	
InChI=1S/C7H10O2/c1-2-4-7(9)5-3-6(7)8/h6,8-9H,3,5H2,1H3	InChI=1S/C7H10O2/c1-2-4-7(9)5-3-6(7)8/h6,8-9H,3,5H2,1H3/t6-,7-/m1/s1
