18
gdb 57981	3.54715	0.80267	0.67908	7.3192	75.7	-0.2659	0.0069	0.2729	1611.6668	0.147033	-435.288094	-435.278232	-435.277288	-435.324554	34.901	
C	 0.1489072895	 1.2803805976	-0.6276498942	-0.387004
C	 0.0470861132	-0.0562111389	 0.1048058048	-0.083175
N	 0.3401277864	-0.0067404345	 1.5520576021	-0.538427
H	 1.3385132208	-0.0354343475	 1.7224008275	 0.249643
H	-0.0051853768	 0.8613581305	 1.9526954455	 0.245285
H	-1.0063062748	-1.308215499	 1.6627893142	 0.305875
C	-1.3246041136	-0.7189730752	-0.061846465	 0.438484
O	-1.6887250777	-1.4913529867	 0.9766075569	-0.405853
N	-2.0087761044	-0.5606385401	-1.1172406472	-0.318872
C	-3.2750206667	-1.2769642228	-1.1884084844	-0.284613
C	-4.1568625405	-0.6775082797	-2.1979587297	 0.270033
N	-4.8738078107	-0.2237679289	-2.9814377095	-0.312357
H	 1.1686797228	 1.6725400375	-0.5685930243	 0.108439
H	-0.131555999	 1.1605805474	-1.6751048304	 0.160977
H	-0.5335645661	 2.0142631584	-0.1854117419	 0.12185
H	 0.7711026891	-0.7585775928	-0.3287621484	 0.12094
H	-3.1121789376	-2.3280697848	-1.4655504992	 0.153997
H	-3.808217214	-1.2951322605	-0.2280753768	 0.154778
17.2073	69.9114	100.0777	185.5653	231.9161	245.9375	292.5685	314.5019	370.4729	383.1135	438.1781	453.2424	575.1936	590.641	735.6591	832.6608	850.1001	884.7624	943.1355	950.1781	987.7074	1017.4332	1032.0858	1096.6051	1155.5332	1219.0516	1244.5924	1250.651	1327.8058	1365.4456	1396.1505	1408.4176	1425.0156	1456.8574	1486.2516	1497.1523	1657.3547	1783.8432	2368.8629	3007.9287	3028.2208	3038.7667	3041.1069	3107.9003	3147.4016	3433.8917	3501.5648	3591.6138
CC([NH3+])C(=O)[N-]CC#N	C[C@@H](N)C(=NCC#N)O	
InChI=1S/C5H9N3O/c1-4(7)5(9)8-3-2-6/h4H,3,7H2,1H3,(H,8,9)	InChI=1S/C5H9N3O/c1-4(7)5(9)8-3-2-6/h4H,3,7H2,1H3,(H,8,9)/t4-/m1/s1
