20
gdb 5956	4.26727	1.06115	1.05789	3.2112	71.71	-0.2415	-0.0197	0.2217	1216.0471	0.173064	-386.157611	-386.147614	-386.14667	-386.192374	35.943	
C	-0.1119549191	 1.5684743402	 0.1220000616	-0.394224
C	 0.0028113549	 0.0476776783	-0.0163230517	-0.198791
C	 0.7378596905	-0.4368764296	-1.2849101305	 0.327653
C	 0.043315847	 0.0267158257	-2.5687061415	-0.400273
O	 2.0550070166	 0.1272454744	-1.3419704406	-0.456454
C	 0.8402381736	-1.9826475337	-1.25115959	-0.303948
C	 1.598289474	-2.5674660815	-2.424207933	 0.152241
O	 1.2302769291	-3.520015797	-3.064714926	-0.248128
H	 0.8657326623	 2.0430926436	 0.0015065484	 0.126312
H	-0.7859748908	 1.9963860327	-0.6256455452	 0.122246
H	-0.5042849425	 1.835424478	 1.1076557829	 0.11363
H	 0.5418819412	-0.3550566264	 0.8537985059	 0.083756
H	-0.9929360436	-0.4113168736	 0.0118129691	 0.102046
H	 0.0148795477	 1.1168864563	-2.6188219498	 0.129452
H	 0.5821253547	-0.3329349752	-3.4498321177	 0.131021
H	-0.9801959006	-0.3562895625	-2.6138387948	 0.119908
H	 2.4986597439	-0.0677617645	-0.5086806715	 0.277158
H	 1.3850282155	-2.2707496637	-0.3385102086	 0.105999
H	-0.1471598026	-2.451274401	-1.2042250998	 0.11921
H	 2.5535979881	-2.0500014305	-2.6554595969	 0.091186
62.228	93.4759	109.9498	172.7953	197.3975	244.6526	285.5587	324.9634	350.1007	356.5602	393.1044	432.3502	484.6685	584.9676	729.3431	785.4013	826.6667	900.7016	930.9328	965.7074	1004.5142	1038.8016	1071.3674	1077.1	1144.675	1170.2364	1192.6082	1231.9823	1286.9052	1312.3708	1368.9619	1386.9421	1408.5685	1420.2662	1423.0083	1451.8617	1478.0416	1486.3266	1494.0695	1505.8534	1514.3121	1827.6509	2909.9002	2996.3722	3003.2005	3045.3432	3050.2427	3053.0184	3095.3557	3110.8771	3119.4847	3121.8479	3136.912	3795.7395
CCC(C)(O)CC=O	CC[C@@](C)(O)CC=O	
InChI=1S/C6H12O2/c1-3-6(2,8)4-5-7/h5,8H,3-4H2,1-2H3	InChI=1S/C6H12O2/c1-3-6(2,8)4-5-7/h5,8H,3-4H2,1-2H3/t6-/m1/s1
