15
gdb 74237	2.69527	1.38706	0.99376	3.4822	73.5	-0.2456	-0.0177	0.2278	1168.6607	0.111547	-416.826663	-416.818135	-416.81719	-416.860045	31.222	
C	-0.0638512392	 1.5084483674	 0.0275347649	-0.489426
C	 0.0027615282	 0.0193213946	-0.0265207126	 0.379373
N	 0.0398567829	-0.6743188845	-1.1010869735	-0.273725
C	 0.0909177343	-2.0903139534	-0.6858998505	-0.291823
C	 1.2334600675	-2.8039829497	-1.2356098023	 0.362754
C	 2.1827884955	-3.3948902721	-1.6720924056	-0.458047
C	 0.0931567027	-2.0771544274	 0.8715245757	 0.410651
O	 0.1268175624	-2.987533839	 1.6545854186	-0.347178
N	 0.0226392812	-0.722422169	 1.1583545644	-0.371638
H	 0.7959939558	 1.9156448752	 0.5709304176	 0.145507
H	-0.0663518852	 1.9032498904	-0.9881774636	 0.165985
H	-0.9700780901	 1.8397616032	 0.5463475642	 0.144564
H	-0.8368791339	-2.584454201	-1.0073847468	 0.150255
H	 3.0184649583	-3.9209361599	-2.0628578632	 0.203613
H	 0.0207544196	-0.3539085847	 2.0960322529	 0.269135
77.7315	133.1678	145.6638	159.9468	288.6794	300.5443	392.9299	443.7119	496.9687	540.2959	614.5211	619.9341	629.22	657.4175	699.7249	728.6522	886.0393	961.297	983.2546	1018.8336	1064.8136	1082.2639	1178.9896	1229.0448	1257.5091	1286.9675	1399.9669	1434.7763	1479.551	1480.0161	1708.2596	1866.6746	2247.3678	3015.5978	3040.8782	3097.0121	3162.1731	3504.6218	3648.6119
CC1=NC(C#C)C(=O)N1	CC1=N[C@@H](C#C)C(=O)N1	
InChI=1S/C6H6N2O/c1-3-5-6(9)8-4(2)7-5/h1,5H,2H3,(H,7,8,9)	InChI=1S/C6H6N2O/c1-3-5-6(9)8-4(2)7-5/h1,5H,2H3,(H,7,8,9)/t5-/m0/s1
