17
gdb 77109	3.35331	1.11477	0.9309	1.5303	75.95	-0.2494	0.043	0.2924	1248.0991	0.133489	-421.753519	-421.74472	-421.743776	-421.786986	33.188	
O	 0.3369671706	 0.88075686	-0.5564888357	-0.425853
C	-0.1128721199	-0.3932924797	-0.1959513586	 0.036587
C	-0.0575701943	-0.8245118004	 1.3220250004	-0.210869
C	-1.5094034773	-1.3966532185	 1.1611121694	-0.340743
C	-1.6251437719	-0.5507616433	-0.1067110182	 0.429803
C	-2.6264806444	 0.4522996176	-0.4643604545	-0.260454
O	-2.4866658185	-0.7789777835	-1.1967957685	-0.27919
C	 1.004065923	-1.7073658451	 1.7476298468	 0.292772
C	 1.8932521212	-2.4519194978	 2.0678836305	-0.437682
H	 1.2764492087	 0.8334557665	-0.759091635	 0.294886
H	 0.3209437542	-1.1837563991	-0.8227451105	 0.093583
H	-0.0805574552	 0.0860061732	 1.9287889025	 0.112958
H	-1.4985037984	-2.4664287644	 0.9393534347	 0.128171
H	-2.2095435387	-1.1998786484	 1.9738816978	 0.120061
H	-3.5361689025	 0.5394489304	 0.1281497229	 0.116042
H	-2.3160032298	 1.3472151815	-0.9987106079	 0.134445
H	 2.6740943033	-3.1080270889	 2.362939314	 0.195482
68.2048	130.8337	195.7235	213.0435	250.9344	285.0296	342.4547	381.6673	450.9085	507.0095	550.5197	584.141	623.525	628.3499	738.5184	836.7215	871.2875	893.5227	930.477	954.3097	1049.7828	1066.5097	1096.4631	1129.5272	1139.3666	1158.6312	1185.9858	1203.2881	1225.4812	1240.8615	1267.0997	1352.9608	1421.4801	1457.5912	1489.8396	1536.9302	2232.5892	3021.5353	3064.2867	3076.9594	3089.9875	3136.5773	3185.8293	3504.6273	3823.4675
OC1C(CC11CO1)C#C	O[C@H]1[C@@H](C[C@]21CO2)C#C	
InChI=1S/C7H8O2/c1-2-5-3-7(4-9-7)6(5)8/h1,5-6,8H,3-4H2	InChI=1S/C7H8O2/c1-2-5-3-7(4-9-7)6(5)8/h1,5-6,8H,3-4H2/t5-,6+,7-/m1/s1
