17
gdb 77547	3.0788	1.2922	1.07464	2.6228	76.54	-0.2424	0.0429	0.2853	1131.4897	0.133753	-421.739247	-421.730537	-421.729593	-421.772087	33.907	
O	 0.2196636914	 1.379893615	-0.16322559	-0.440312
C	 0.0581922003	 0.007494896	-0.0179693646	 0.113972
C	-0.025644848	-0.6674132579	 1.3740397534	 0.316685
O	 0.9968298134	-0.621930177	 2.2948010798	-0.466342
C	-1.4858073774	-0.117042567	 1.5125822011	-0.362441
C	-1.37699542	-0.6650153217	 0.0511226783	 0.224646
C	-0.6383558313	-1.9045309236	 0.6493602808	-0.326056
C	-2.3932548482	-0.6604883397	-0.9522014233	 0.041666
C	-3.2415382358	-0.6434855798	-1.8053267038	-0.351113
H	-0.1883938887	 1.8375832023	 0.5786326509	 0.289102
H	 0.7348824789	-0.4640527641	-0.7346446589	 0.095106
H	 0.7325680258	-1.1117265368	 3.0811335863	 0.287206
H	-2.1566451169	-0.6684027153	 2.1763504992	 0.101713
H	-1.63201512	 0.9597310918	 1.632982877	 0.09117
H	 0.0147076736	-2.4589527766	-0.0286599613	 0.106879
H	-1.2595545415	-2.5663468108	 1.2563418995	 0.100791
H	-3.9894994557	-0.6299637347	-2.5586168743	 0.177326
120.8446	139.0117	164.1327	251.3615	267.6044	310.465	380.5709	400.2428	507.8209	525.8755	539.195	565.3048	614.692	630.152	640.4095	669.9633	737.275	841.2015	887.2707	975.6219	1009.3012	1018.909	1092.207	1094.1969	1111.506	1125.699	1134.6468	1151.5549	1188.5204	1273.7656	1290.8062	1326.0925	1386.1928	1457.7065	1500.8202	1551.1713	2235.2505	3054.846	3063.7446	3093.1201	3114.4408	3134.9634	3502.8413	3808.206	3821.4383
OC1C2(O)CC1(C2)C#C	O[C@H]1[C@@]2(O)C[C@@]1(C2)C#C	
InChI=1S/C7H8O2/c1-2-6-3-7(9,4-6)5(6)8/h1,5,8-9H,3-4H2	InChI=1S/C7H8O2/c1-2-6-3-7(9,4-6)5(6)8/h1,5,8-9H,3-4H2/t5-,6-,7-/m1/s1
