13
gdb 123274	9.47484	0.68103	0.63536	1.386	97.87	-0.2289	-0.0507	0.1782	1629.2782	0.090392	-378.442212	-378.434514	-378.43357	-378.47489	28.373	
C	 0.1503136496	-3.7526529918	-0.0200729267	-0.598784
C	 0.077096646	-2.5463328717	-0.012402433	 0.262509
C	-0.0011641043	-1.1920184064	-0.0038443833	-0.09368
C	-0.0794587045	 0.0195584376	 0.0039177477	 0.432777
C	-0.1451561026	 1.4206100935	 0.0125472147	 0.104649
C	-1.2208566483	 2.3032192061	 0.031603378	-0.319911
C	-0.6372062181	 3.5807500129	 0.0309947575	-0.022473
N	 0.6956015674	 3.5201709554	 0.0131199024	-0.197795
N	 0.9716313836	 2.2122933405	 0.0022334994	-0.284947
H	 0.2117678216	-4.8126747473	-0.0267713527	 0.196216
H	-2.2644301514	 2.0372053349	 0.0438681512	 0.119973
H	-1.1279142956	 4.5424843247	 0.0427845372	 0.119462
H	 1.9295547066	 1.9025857316	-0.0120730723	 0.282004
76.1863	85.9981	225.6894	230.7299	434.4041	438.4228	481.7555	511.8756	532.7431	549.0688	592.8171	616.0524	680.4592	709.4127	818.2333	898.7273	929.7253	945.065	1057.577	1088.2355	1151.9565	1266.4738	1292.5163	1366.5944	1427.0708	1464.6359	1586.2194	2179.539	2336.0556	3251.7856	3282.8326	3503.2388	3665.3969
C#CC#CC1=CC=NN1	C#CC#Cc1ccn[nH]1	
InChI=1S/C7H4N2/c1-2-3-4-7-5-6-8-9-7/h1,5-6H,(H,8,9)	InChI=1S/C7H4N2/c1-2-3-4-7-5-6-8-9-7/h1,5-6H,(H,8,9)
