15
gdb 29400	4.61509	0.93554	0.78338	4.1365	70.71	-0.2214	-0.0135	0.2079	1383.6082	0.112407	-454.010946	-454.002437	-454.001493	-454.045209	29.781	
C	 0.0151919231	 1.5201835186	-0.0207760074	-0.485205
C	 0.0153815664	 0.0280021514	-0.040900268	 0.28559
C	-0.1173069648	-0.8155362693	-1.1083450275	-0.183993
N	-0.0468017598	-2.1009823548	-0.585276614	-0.323831
C	 0.1243481284	-1.952226338	 0.7487148738	 0.482386
O	 0.2373892059	-3.0726183771	 1.5107573405	-0.236143
C	 0.0952046692	-2.9422839398	 2.8736648242	 0.161354
O	 0.2338056252	-3.8834597028	 3.5874873928	-0.255368
N	 0.1729732201	-0.7074826976	 1.1291180293	-0.39686
H	 0.9530939452	 1.9086949343	 0.3902739543	 0.136771
H	-0.110505764	 1.9241104137	-1.0287508024	 0.120953
H	-0.7955252652	 1.9062497331	 0.6065110468	 0.135205
H	-0.2435431394	-0.638800276	-2.1628619719	 0.135099
H	-0.1100210248	-2.9747118789	-1.079718413	 0.27756
H	-0.1472243756	-1.9126352666	 3.1672330225	 0.146481
40.3875	113.3629	131.128	146.698	230.6049	324.728	352.3605	443.0021	495.5404	524.1594	654.0101	667.3734	700.2644	732.645	853.0684	988.465	1010.5615	1047.531	1065.5487	1066.2348	1092.7192	1105.9745	1248.9221	1290.9672	1369.8024	1398.6569	1418.4006	1475.1001	1488.7354	1516.5159	1584.2431	1616.4967	1875.71	3035.0211	3074.1707	3089.3562	3118.7744	3281.1469	3672.7219
CC1=CNC(OC=O)=N1	Cc1c[nH]c(OC=O)n1	
InChI=1S/C5H6N2O2/c1-4-2-6-5(7-4)9-3-8/h2-3H,1H3,(H,6,7)	InChI=1S/C5H6N2O2/c1-4-2-6-5(7-4)9-3-8/h2-3H,1H3,(H,6,7)
