16
gdb 49578	2.15818	1.74929	1.23972	1.6121	74.19	-0.2408	-0.0317	0.2091	1032.1147	0.122562	-400.665038	-400.656788	-400.655844	-400.698266	30.495	
O	-0.5013247703	 0.6617569096	-0.8029893905	-0.240931
C	 0.1306055581	 0.9914536221	 0.1675267865	 0.142155
C	 1.2837534662	 1.9656533865	 0.147455684	-0.136024
C	 1.5208781986	 2.8096371228	-1.0942800968	-0.024355
C	 0.4367910028	 3.7839428917	-1.3023895195	-0.23673
N	 1.4825281886	 4.1208095096	-0.3167464271	-0.132206
C	 1.1587894862	 3.3284089863	 0.9368036337	-0.185891
C	-0.0939339676	 3.6368708896	 1.5985598769	 0.364758
C	-1.1406814323	 3.8791038115	 2.1388853384	-0.454542
H	-0.101362313	 0.580250864	 1.1757333026	 0.085444
H	 2.1774977183	 1.4338540872	 0.4908932913	 0.113178
H	 2.2883622814	 2.618139058	-1.835251288	 0.107449
H	 0.4964378307	 4.4070254573	-2.188715499	 0.12926
H	-0.5713470816	 3.573329915	-0.9594831142	 0.138804
H	 1.990219185	 3.4550723688	 1.633540794	 0.120716
H	-2.0610760112	 4.10184193	 2.6204956978	 0.208914
70.0765	117.5678	134.8576	188.7425	252.6209	337.7105	401.2166	521.817	559.9128	638.4317	664.1677	682.3407	731.6911	752.7988	792.7319	813.6648	921.1855	955.0704	987.443	1044.4669	1051.154	1071.7404	1083.0922	1113.766	1141.2479	1192.9484	1224.6867	1255.4716	1342.768	1350.2497	1367.9195	1424.8973	1505.0626	1825.6744	2230.5669	2881.1289	3057.314	3083.7569	3128.8745	3179.506	3217.7248	3500.5103
O=CC1C2CN2C1C#C	O=C[C@H]1[C@H]2CN2[C@H]1C#C	
InChI=1S/C7H7NO/c1-2-6-5(4-9)7-3-8(6)7/h1,4-7H,3H2	InChI=1S/C7H7NO/c1-2-6-5(4-9)7-3-8(6)7/h1,4-7H,3H2/t5-,6+,7-,8?/m1/s1
