18
gdb 26255	3.95062	1.08558	0.87224	2.3245	76.28	-0.1685	0.0625	0.231	1313.0207	0.147599	-435.287811	-435.278267	-435.277323	-435.32403	34.162	
C	 0.0785188935	 1.2871729281	 0.3239087609	-0.336065
N	-0.0327920759	-0.0006015536	-0.3434855633	-0.166375
C	 1.1967779457	-0.781363612	-0.3491577222	-0.316946
C	-1.1810738366	-0.7451322587	-0.1031082585	 0.480347
N	-1.2486787142	-2.0470206556	 0.0039154342	-0.344538
C	-2.6030910856	-2.3493932796	 0.1374104162	-0.241527
C	-3.3314307141	-1.2007893706	 0.125974901	 0.35492
O	-4.6461095178	-0.877249095	 0.2316284181	-0.441347
N	-2.429160099	-0.1649509546	-0.0188508499	-0.388992
H	 0.9521349414	 1.8134632586	-0.0699108164	 0.129918
H	-0.7935426507	 1.9145419239	 0.117606597	 0.112463
H	 0.1898981274	 1.2021229484	 1.4180373567	 0.115355
H	 1.4993278366	-1.105577654	 0.6589414528	 0.110946
H	 1.0507969564	-1.6749589553	-0.955692685	 0.154455
H	 1.9970343346	-0.1722077464	-0.7793806773	 0.110238
H	-2.9483867757	-3.3653988113	 0.2476260855	 0.093626
H	-5.1467694639	-1.6905760584	 0.3467069206	 0.308276
H	-2.6802012721	 0.7989175262	-0.1517072604	 0.265246
6.3487	135.7802	175.6915	186.3578	208.5599	223.7776	276.0164	360.2671	374.3869	395.1113	415.2785	534.1471	608.4273	644.6508	709.4344	733.0099	753.3641	937.3094	1010.2281	1053.4043	1079.018	1123.6687	1149.1008	1163.7527	1177.0077	1205.8713	1269.0139	1277.6902	1327.2025	1444.4408	1461.8155	1465.2124	1479.0361	1490.9395	1498.0766	1503.7218	1513.6233	1625.9717	1649.1504	2964.3252	2985.2938	3072.1617	3080.8373	3111.3801	3152.5493	3249.3685	3680.1464	3846.5765
CN(C)C1=NC=C(O)N1	CN(C)c1ncc(O)[nH]1	
InChI=1S/C5H9N3O/c1-8(2)5-6-3-4(9)7-5/h3,9H,1-2H3,(H,6,7)	InChI=1S/C5H9N3O/c1-8(2)5-6-3-4(9)7-5/h3,9H,1-2H3,(H,6,7)
