19
gdb 37974	2.60517	1.96699	1.41206	2.5267	74.16	-0.2322	0.0834	0.3156	958.2844	0.161791	-422.980332	-422.97336	-422.972416	-423.011491	28.471	
C	-0.0961641507	 1.3909047255	 0.0075859985	-0.070973
C	 1.2984460452	 2.0251654473	 0.0233476573	-0.232345
C	 2.0619783033	 1.9496198256	-1.2951154317	-0.048912
C	 3.0015695227	 0.846019863	-1.6688338302	 0.087798
O	 2.592241263	-0.4049965723	-1.1119580732	-0.293773
C	 1.3876347208	-0.3821357295	-1.9293919299	 0.120796
C	 0.1052397691	-0.6883744814	-1.1686155763	-0.109445
O	-0.0628219263	-0.0236204396	 0.0588337368	-0.231803
C	 1.7170646043	 1.0213789299	-2.4485868878	-0.194646
H	-0.6425685889	 1.7020442485	 0.9048623644	 0.102593
H	-0.6674931851	 1.7356388242	-0.8696003154	 0.085839
H	 1.1853241604	 3.0791335866	 0.3038657948	 0.093268
H	 1.8730747073	 1.5413552012	 0.8203210802	 0.123176
H	 2.4111793471	 2.907697594	-1.6755987009	 0.090413
H	 4.0462329391	 0.9593715294	-1.9357285027	 0.100813
H	 1.4857438131	-1.117596948	-2.7412449138	 0.083178
H	-0.7391482321	-0.4879881856	-1.8539657456	 0.085529
H	 0.0842541863	-1.7556122318	-0.9213529617	 0.115218
H	 1.5451893315	 1.363578643	-3.4602618126	 0.093276
144.0127	184.2721	277.6252	332.2806	374.3767	393.0404	551.7384	600.949	670.8616	717.5898	772.2039	787.2919	823.7399	860.3484	919.9837	943.6576	957.209	993.71	1022.9358	1045.6845	1050.7844	1054.8537	1062.8589	1101.658	1132.0832	1174.5981	1193.7759	1238.0105	1259.4961	1277.9616	1307.7308	1331.913	1350.3357	1369.4036	1376.1766	1399.3284	1426.284	1436.1672	1464.6039	1475.1419	1494.1867	2941.3943	2976.4021	2999.0054	3032.4542	3064.0407	3068.2262	3081.3971	3129.2554	3174.9192	3199.8863
C1CC2C3OC(CO1)C23	C1C[C@H]2[C@H]3O[C@@H](CO1)[C@@H]23	
InChI=1S/C7H10O2/c1-2-8-3-5-6-4(1)7(6)9-5/h4-7H,1-3H2	InChI=1S/C7H10O2/c1-2-8-3-5-6-4(1)7(6)9-5/h4-7H,1-3H2/t4-,5+,6-,7-/m1/s1
