18
gdb 68340	2.86872	1.51208	1.17453	4.5311	84.01	-0.2461	-0.047	0.1991	1076.6991	0.148931	-364.809715	-364.80197	-364.801025	-364.841754	30.554	
C	-0.0513315812	 1.547192936	 0.0307834683	-0.510178
C	 0.0153907319	 0.0391683956	 0.0325857403	 0.229308
C	 0.9501519258	-0.7896959643	-0.9208014756	-0.244236
C	 0.6209697367	-1.9290863949	 0.1053383708	-0.074876
C	 0.6633755867	-0.7998526153	 1.1927514589	-0.244237
C	-0.8856637426	-2.051742293	-0.0995117237	-0.187047
C	-1.2960582517	-0.7731901372	-0.1494191111	 0.22136
C	-2.5869190951	-0.2343991554	-0.3221530951	 0.165023
N	-3.6320163569	 0.2490137869	-0.4620640003	-0.361115
H	 0.9443826795	 1.9797262132	 0.1679187812	 0.118326
H	-0.4568942354	 1.924531282	-0.9138197592	 0.134184
H	-0.6943373627	 1.9161163028	 0.8367485893	 0.134176
H	 0.6261922397	-0.92832247	-1.9549108921	 0.104295
H	 1.9935499399	-0.4625215266	-0.8786290851	 0.101877
H	 1.2094062367	-2.8412814863	 0.1808054771	 0.075586
H	 1.6798839735	-0.4736798839	 1.4332125555	 0.101879
H	 0.075756628	-0.9478037747	 2.101796961	 0.10429
H	-1.4671224327	-2.958468035	-0.1826236002	 0.131384
120.9771	135.9583	194.1076	288.81	305.8339	441.4775	469.1345	491.5929	539.7667	579.9866	637.5268	663.5365	766.3338	817.8992	838.2947	875.2585	878.7218	910.4054	946.7872	991.2124	1027.499	1056.1473	1074.3397	1112.3459	1169.1434	1184.8454	1188.4039	1226.6773	1228.7424	1254.979	1287.2769	1323.7119	1419.0361	1481.4804	1489.3563	1491.8913	1519.2249	1641.7355	2327.3857	3034.7935	3048.2997	3058.1291	3102.2727	3107.1696	3119.0541	3124.0834	3139.0621	3242.3872
CC12CC(C1)C=C2C#N	C[C@@]12C[C@@H](C1)C=C2C#N	
InChI=1S/C8H9N/c1-8-3-6(4-8)2-7(8)5-9/h2,6H,3-4H2,1H3	InChI=1S/C8H9N/c1-8-3-6(4-8)2-7(8)5-9/h2,6H,3-4H2,1H3/t6-,8+
