21
gdb 41784	2.28461	1.82633	1.4028	1.36	82.14	-0.2354	0.0099	0.2454	1033.8036	0.185883	-387.078824	-387.071082	-387.070138	-387.110848	30.904	
C	 0.2748348265	 1.6528772233	 0.1148178194	-0.084683
O	 1.4860103126	 1.4541430943	-0.64226092	-0.293926
C	 1.1841064112	 0.050317067	-0.8391652228	 0.140585
C	 2.3266426375	-0.9103580232	-0.5362353631	-0.230498
C	 3.2096755438	-0.5791016683	 0.6824783557	-0.180327
C	 2.4739525182	-0.0371087379	 1.9298095537	-0.256838
C	 1.1452220976	-0.6943796884	 2.2227224526	-0.065006
C	 0.0616615162	-0.6058880039	 1.4464697686	-0.066298
C	-0.0313705188	 0.129460132	 0.1372652984	-0.106943
H	 0.4635457612	 2.1237944945	 1.0855142111	 0.10621
H	-0.4579084297	 2.2541952525	-0.4392533498	 0.097427
H	 0.8440784113	-0.1169599885	-1.8714517287	 0.069201
H	 1.8654526016	-1.8977753387	-0.4060528165	 0.105496
H	 2.9720099101	-0.9926671052	-1.4185891209	 0.099695
H	 3.7637332538	-1.487521392	 0.9461366662	 0.093769
H	 3.9578978467	 0.1651775423	 0.39180432	 0.107867
H	 3.1334617998	-0.13674321	 2.7975850454	 0.092974
H	 2.3215318746	 1.0367131063	 1.7869530912	 0.128485
H	 1.0703893671	-1.274797754	 3.1395265256	 0.086335
H	-0.8436262789	-1.1162332595	 1.7670086027	 0.082565
H	-0.9755995026	-0.1194554726	-0.3508803091	 0.073911
113.5761	165.1446	195.579	265.869	290.003	350.9964	399.1118	565.3491	636.3672	663.7862	716.791	745.3083	780.8511	816.2536	843.8791	894.6281	919.0646	950.101	992.7241	996.9751	1010.1579	1053.355	1063.4805	1086.6311	1089.9234	1159.6142	1169.5555	1196.6532	1220.1251	1236.5183	1267.021	1288.1786	1308.7636	1327.1516	1358.5379	1361.7633	1375.1511	1395.3214	1409.8261	1427.2808	1470.9073	1487.8587	1502.2145	1527.0968	1711.5957	2985.5848	3010.2606	3025.9712	3036.4629	3051.866	3057.7827	3063.8415	3077.0121	3084.2963	3093.1353	3137.889	3161.9917
C1OC2CCCC=CC12	C1O[C@H]2CCCC=C[C@@H]12	
InChI=1S/C8H12O/c1-2-4-7-6-9-8(7)5-3-1/h2,4,7-8H,1,3,5-6H2	InChI=1S/C8H12O/c1-2-4-7-6-9-8(7)5-3-1/h2,4,7-8H,1,3,5-6H2/t7-,8-/m0/s1
