20
gdb 12774	3.4191	1.48997	1.26906	1.2424	75.01	-0.2424	0.079	0.3214	1046.2499	0.176695	-348.974087	-348.965601	-348.964657	-349.006786	32.128	
C	-0.0779419053	 1.5167410754	 0.0080510961	-0.497624
C	 0.0241483888	 0.0172077161	 0.0156014894	 0.343485
C	-0.8181954624	-0.8518129275	 0.9154969339	-0.329623
C	 0.6786325954	-0.9275284833	 1.033241672	-0.090676
C	 1.2416700063	-1.7994314682	-0.0953610179	-0.240172
C	 0.6180383945	-0.813925888	-1.1382015351	-0.01772
C	-0.3106565428	-1.3574541959	-2.2081676744	-0.099714
O	 0.4747949703	-2.1359866657	-3.1029992337	-0.422443
H	 0.8605216489	 1.9783913263	-0.3208724909	 0.114989
H	-0.8703914064	 1.8638694675	-0.6667502259	 0.11661
H	-0.3078137682	 1.9025663498	 1.0069383063	 0.115745
H	-1.3220607545	-0.3150859415	 1.7139902853	 0.105119
H	-1.3833413904	-1.7003700581	 0.5361844543	 0.1001
H	 1.1912067924	-0.6768020839	 1.9548975281	 0.080113
H	 2.3319455323	-1.822011362	-0.1410095095	 0.102657
H	 0.8727461681	-2.8303719167	-0.1277517232	 0.094601
H	 1.4138073474	-0.2507428824	-1.6371396709	 0.076769
H	-1.1061510447	-1.9664289376	-1.7514147005	 0.081569
H	-0.8011735707	-0.5205138341	-2.733113831	 0.081247
H	-0.1129816592	-2.5314726502	-3.7530842625	 0.284969
89.2416	156.5709	167.8455	206.4186	260.6632	278.6693	316.2296	399.3583	455.2928	488.8693	608.1647	726.4736	805.8233	835.1153	872.0424	890.8657	965.5392	973.1682	998.9349	1024.1139	1041.906	1067.3256	1082.744	1096.9556	1108.941	1145.7563	1173.4892	1202.3442	1243.882	1254.4316	1266.4643	1276.0273	1306.7657	1368.6122	1392.0766	1420.5996	1461.0222	1485.5157	1486.966	1498.5052	1505.4615	1520.1939	2958.2035	2991.864	3016.6685	3044.7368	3052.2423	3073.1243	3091.9113	3102.514	3111.4809	3172.7348	3189.9009	3829.3973
CC12CC1CC2CO	C[C@]12C[C@H]1C[C@H]2CO	
InChI=1S/C7H12O/c1-7-3-5(7)2-6(7)4-8/h5-6,8H,2-4H2,1H3	InChI=1S/C7H12O/c1-7-3-5(7)2-6(7)4-8/h5-6,8H,2-4H2,1H3/t5-,6+,7+/m1/s1
