19
gdb 9287	5.72245	0.90935	0.83046	4.6186	70.91	-0.25	0.0324	0.2824	1398.4539	0.163532	-402.194991	-402.185386	-402.184442	-402.229926	33.681	
C	 0.1166208925	 1.5686865985	 0.327140927	-0.378634
C	-0.0114591526	 0.0555474919	 0.1330043352	-0.202493
C	 0.9190334211	-0.7465450758	 1.0496126537	 0.131945
O	 0.696738053	-0.4607889515	 2.427781029	-0.425944
C	 0.8178051227	-2.2513298917	 0.7847233562	-0.105151
O	 1.835825162	-2.9795062896	 1.4560060263	-0.179013
C	 1.5983830572	-3.3582125103	 2.7286821013	 0.14879
N	 2.5169736065	-3.8971379388	 3.4047432957	-0.44524
H	 1.1227936601	 1.9120566441	 0.0646760803	 0.122748
H	-0.5975838442	 2.1086897687	-0.3009279542	 0.114444
H	-0.0630915437	 1.8435653774	 1.3697285496	 0.127411
H	-1.0496053576	-0.260097966	 0.3183381745	 0.0885
H	 0.2034569269	-0.2094786774	-0.9095072808	 0.105556
H	 1.9590544251	-0.448417227	 0.8703146229	 0.108267
H	-0.2477409655	-0.5523248368	 2.6000240906	 0.277831
H	-0.1782098632	-2.6189578112	 1.0766698044	 0.093174
H	 0.9544116217	-2.4602840072	-0.2804636468	 0.120284
H	 0.5686419356	-3.1682754338	 3.056325274	 0.071509
H	 2.1649796426	-4.1483430835	 4.326006951	 0.226017
60.2683	72.0102	106.2536	153.5738	197.3666	222.3993	298.1332	330.9507	337.8649	378.6288	465.8477	524.8356	653.5605	782.2502	812.5416	871.5549	917.4316	983.2657	998.1057	1030.2279	1033.0545	1093.4922	1104.9091	1148.9617	1158.0786	1234.5636	1263.8848	1290.2184	1322.6032	1369.0426	1381.5433	1403.0747	1409.4302	1421.0246	1428.6232	1479.8791	1491.4251	1496.3025	1508.4738	1745.6439	2987.8966	2997.2603	3036.8254	3041.8152	3047.0185	3057.9391	3091.5136	3108.5928	3123.6804	3519.1366	3789.1265
CCC(O)COC=N	CC[C@@H](O)CO[CH][NH]	
InChI=1S/C5H11NO2/c1-2-5(7)3-8-4-6/h4-7H,2-3H2,1H3	InChI=1S/C5H11NO2/c1-2-5(7)3-8-4-6/h4-7H,2-3H2,1H3/t5-/m1/s1
