16
gdb 37818	3.08749	2.03957	1.74879	0.8828	73.12	-0.23	-0.0033	0.2267	828.667	0.12579	-400.615672	-400.609586	-400.608642	-400.645723	25.857	
C	-0.029046839	 1.4805376467	-0.2205477392	-0.406213
C	 1.4349170456	 1.8736425709	 0.0234820663	-0.041576
C	 2.1830703385	 0.9236227175	 0.6095300573	-0.204427
C	 1.3291557331	-0.2635221353	 0.8726372435	 0.215005
N	 0.5307354957	-0.5376158777	 2.1312656397	-0.379563
C	-0.307602778	-1.1482355481	 1.0522481773	-0.159718
C	 0.9012287798	-1.5908615249	 0.1395461771	 0.014526
O	 0.4224549758	-0.9091222591	-1.0432824425	-0.347903
C	 0.052266125	-0.0051044282	 0.050262751	 0.440094
H	-0.7017360356	 2.0042125437	 0.4680228948	 0.135423
H	-0.3644311765	 1.6930306093	-1.2405836382	 0.131
H	 1.8057842683	 2.8567669373	-0.251391839	 0.103907
H	 3.226682179	 1.0350104814	 0.8777076122	 0.104804
H	 0.9791263787	-1.2704003285	 2.6862515437	 0.211673
H	-1.2554503054	-1.6562746034	 1.2371558597	 0.090111
H	 1.3904784951	-2.5609115917	 0.0279432663	 0.092858
212.0084	242.9983	415.5709	441.479	484.4841	533.9774	622.9841	729.0674	750.5366	754.9554	787.12	823.8492	841.5491	881.1352	904.0884	941.3789	949.0422	959.9355	966.3008	1001.5303	1047.7933	1092.0045	1108.3356	1125.7354	1168.4403	1175.4608	1201.0369	1252.1994	1262.3644	1285.133	1302.1701	1364.294	1370.1613	1455.267	1623.3407	3046.336	3089.2329	3093.4079	3111.7877	3177.0386	3209.1363	3410.6669
C1C=CC23NC4C2OC134	C1C=C[C@]23N[C@@H]4[C@H]2O[C@]134	
InChI=1S/C7H7NO/c1-2-6-5-4(8-6)7(6,3-1)9-5/h1-2,4-5,8H,3H2	InChI=1S/C7H7NO/c1-2-6-5-4(8-6)7(6,3-1)9-5/h1-2,4-5,8H,3H2/t4-,5-,6+,7+/m1/s1
