17
gdb 64515	4.40316	1.11288	1.09307	2.0572	68.66	-0.2345	0.0601	0.2946	1140.5777	0.135053	-458.877482	-458.869668	-458.868724	-458.909854	30.059	
O	 0.0275834356	 1.3707934167	-0.1145813122	-0.468175
C	-0.0044335515	-0.0188750897	-0.0631904855	 0.393356
C	 1.1513695842	-0.622845083	 0.677641285	 0.006949
C	 2.45372615	 0.0489523866	 0.7326060754	-0.190394
O	 1.5451737157	 0.1141739154	 1.8446851856	-0.25439
C	-1.3167397035	-0.7817665579	 0.0684232842	-0.230687
C	-2.372981257	-0.0587314736	-0.7614696587	-0.095915
O	-1.5238449938	-0.0705909641	-1.942089551	-0.283085
C	-0.5222451549	-0.7884161245	-1.2369614577	 0.041656
H	 0.1798536514	 1.6623052786	 0.7949988208	 0.292078
H	 1.1143186048	-1.7034027291	 0.8170471832	 0.09959
H	 3.354138197	-0.536638879	 0.9078045517	 0.120758
H	 2.5868267795	 0.9826279545	 0.1924963551	 0.132069
H	-1.4948990215	-1.5495438361	 0.8105229629	 0.102071
H	-3.2763898594	-0.6508566595	-0.9388618362	 0.111797
H	-2.6339742283	 0.9579155344	-0.4518925242	 0.117385
H	 0.0280001917	-1.5518982896	-1.7783763384	 0.104938
90.0961	162.4029	182.5131	268.6018	282.5894	362.7645	409.075	448.2777	552.1582	609.6514	717.7167	774.8755	821.3144	847.0388	901.3268	915.8444	958.1115	971.7734	1009.0067	1014.4072	1044.2402	1065.5051	1100.7608	1111.4242	1131.8279	1162.4454	1164.7682	1171.1861	1246.8835	1273.3332	1292.7757	1307.3269	1347.1459	1408.6072	1473.7642	1505.2521	1520.3384	3041.676	3096.0875	3099.6942	3113.3186	3156.9516	3192.431	3197.1175	3756.9182
OC1(C2CO2)C2COC12	O[C@@]1([C@H]2CO2)[C@H]2CO[C@@H]12	
InChI=1S/C6H8O3/c7-6(4-2-8-4)3-1-9-5(3)6/h3-5,7H,1-2H2	InChI=1S/C6H8O3/c7-6(4-2-8-4)3-1-9-5(3)6/h3-5,7H,1-2H2/t3-,4+,5+,6+/m0/s1
