18
gdb 10963	5.26806	1.31275	1.19287	1.3026	68.48	-0.2421	0.0799	0.322	1043.0844	0.152621	-384.893629	-384.885503	-384.884559	-384.925941	30.545	
C	 0.1353374984	 1.2700508761	 0.144063387	-0.234973
O	-0.2931668907	-0.022793376	-0.2169427403	-0.241116
C	 0.4799557581	-0.5975401073	-1.2397943879	 0.149578
C	 1.9035587681	-1.1609003778	-0.8671380971	-0.342055
C	 1.4029528408	-2.5477952441	-1.2866529074	 0.397752
O	 2.1435206751	-3.4481053156	-2.031688916	-0.46173
C	 0.2065653597	-2.9467486941	-0.4747624351	-0.334422
C	 0.0284249217	-1.9944874656	-1.640938002	-0.141669
H	 1.164871777	 1.2716079703	 0.5333540081	 0.106216
H	 0.0912032034	 1.9659616848	-0.7088856484	 0.103323
H	-0.5364198079	 1.6298752144	 0.9271948861	 0.126163
H	 0.5396907516	 0.0859685567	-2.0992196909	 0.069052
H	 2.6869950245	-0.7816799924	-1.5269496019	 0.106984
H	 2.2136088815	-1.0466989997	 0.1769905443	 0.092399
H	 2.614908427	-4.0276335037	-1.4232644104	 0.285707
H	-0.15110635	-3.9515318007	-0.6756801702	 0.111103
H	 0.0632417132	-2.5979953769	 0.5439000566	 0.116062
H	-0.6223024116	-2.2318209283	-2.4728097246	 0.091626
100.8146	130.3165	182.9938	231.3526	259.5811	344.3469	387.4799	409.66	461.7987	526.2888	631.9231	704.271	832.0306	853.6323	929.5594	955.5675	960.0327	981.3469	1026.6789	1051.7356	1072.0643	1094.4219	1124.043	1161.4482	1184.6948	1211.8843	1225.6525	1238.3905	1260.7692	1311.8648	1322.1649	1382.2352	1409.2536	1470.4466	1482.1319	1487.3914	1505.1787	1510.2318	2971.8868	2992.9607	3018.9052	3044.6757	3113.3974	3113.7038	3119.7165	3194.348	3212.1476	3795.2704
COC1CC2(O)CC12	CO[C@H]1C[C@@]2(O)C[C@@H]12	
InChI=1S/C6H10O2/c1-8-5-3-6(7)2-4(5)6/h4-5,7H,2-3H2,1H3	InChI=1S/C6H10O2/c1-8-5-3-6(7)2-4(5)6/h4-5,7H,2-3H2,1H3/t4-,5-,6-/m0/s1
