16
gdb 74374	2.72031	1.36642	1.09183	5.2427	71.71	-0.2487	0.0021	0.2508	1116.6476	0.126108	-434.084011	-434.075905	-434.074961	-434.116864	30.345	
N	 0.0296446985	 1.3414273847	-0.1376715656	-0.538067
C	-0.0409585774	-0.0238119871	-0.0052858495	 0.345157
N	-1.1817665885	-0.601735531	 0.0108137596	-0.291322
C	-1.1948208124	-2.0641286731	 0.0312486537	-0.124179
C	 0.134782475	-2.6903671984	-0.4186047503	-0.109572
O	 1.2035271748	-2.099177164	 0.2925181817	-0.234967
C	 1.3080728637	-0.7247260354	 0.0132925485	-0.152508
C	-1.5618585446	-2.5354393006	 1.3803737487	 0.290296
N	-1.8494795205	-2.9174412016	 2.4320579563	-0.327171
H	 0.8278867488	 1.8122302218	 0.2589871301	 0.257499
H	-0.8507887922	 1.8208794792	-0.0136862593	 0.263959
H	-1.9883326273	-2.4028304658	-0.6484482484	 0.128143
H	 0.1674349502	-3.7613981528	-0.2083753515	 0.135546
H	 0.2489272563	-2.5353207516	-1.5033036211	 0.103138
H	 1.8029043806	-0.5496065102	-0.9577967328	 0.121956
H	 1.945681385	-0.2912398741	 0.7917637599	 0.132091
78.5854	117.2898	182.1885	284.8278	344.3837	363.9802	399.1994	441.1797	461.722	500.7629	565.2888	606.943	632.0044	782.7528	809.1055	889.9924	932.6312	970.741	1023.1601	1050.7558	1090.9707	1162.5754	1210.492	1252.096	1294.8236	1305.3834	1335.5977	1344.2062	1392.6117	1435.9538	1478.9329	1492.5934	1632.1396	1728.2863	2358.7518	2961.8532	2983.9504	3020.2914	3067.2892	3112.6033	3569.813	3686.4316
NC1=NC(COC1)C#N	NC1=N[C@@H](COC1)C#N	
InChI=1S/C5H7N3O/c6-1-4-2-9-3-5(7)8-4/h4H,2-3H2,(H2,7,8)	InChI=1S/C5H7N3O/c6-1-4-2-9-3-5(7)8-4/h4H,2-3H2,(H2,7,8)/t4-/m1/s1
