16
gdb 30850	2.4555	1.39443	0.93211	1.3181	69.39	-0.1866	0.0381	0.2247	1223.9567	0.125271	-471.229558	-471.220811	-471.219867	-471.262994	32.322	
C	 0.3691510103	 1.2269194772	 0.3368807012	-0.325518
N	-0.3314379937	 0.0888987736	-0.2663609228	-0.393338
C	 0.3673836717	-0.6853256456	-1.1643074172	 0.2216
C	 0.7225966498	-1.9954267655	-1.1953905939	 0.246448
N	 0.4037703601	-3.0053182814	-0.3008556487	-0.596465
N	 1.4422706322	-2.2826816738	-2.3528467666	-0.434821
C	 1.4807512558	-1.1396885292	-2.964995283	 0.477077
O	 2.0712016004	-0.8745186301	-4.1301804572	-0.402094
O	 0.879246434	-0.1171736893	-2.3808186051	-0.210493
H	 1.2760877861	 0.8653005172	 0.8297008244	 0.128149
H	 0.6593223698	 1.9995709859	-0.3890368884	 0.120774
H	-0.2751996783	 1.6848612358	 1.0935052741	 0.117188
H	-1.2571497639	 0.3537610724	-0.5867346566	 0.232528
H	 0.1353022847	-2.6511011764	 0.6071900858	 0.250018
H	 1.1283134398	-3.707291229	-0.2338944039	 0.251171
H	 2.4553884013	-1.7062156619	-4.4363375321	 0.317776
92.3136	124.3033	168.9359	230.9476	249.4596	292.2233	328.7645	357.7177	444.023	462.8953	588.482	614.4845	646.9192	654.049	720.1132	743.0814	771.8512	823.431	992.7327	1033.9839	1075.4675	1110.4099	1144.0431	1174.4547	1220.2262	1329.7286	1415.7168	1453.2978	1472.1999	1489.5823	1513.8	1526.1656	1624.873	1643.6822	1754.0713	3002.7657	3076.7856	3115.0368	3499.8674	3549.0003	3652.1136	3803.4431
CNC1=C(N)N=C(O)O1	CNc1c(N)nc(O)o1	
InChI=1S/C4H7N3O2/c1-6-3-2(5)7-4(8)9-3/h6H,5H2,1H3,(H,7,8)	InChI=1S/C4H7N3O2/c1-6-3-2(5)7-4(8)9-3/h6H,5H2,1H3,(H,7,8)
