19
gdb 76447	2.92947	0.99179	0.93638	4.5541	73.15	-0.2607	0.0068	0.2674	1343.2721	0.155474	-460.16819	-460.157984	-460.15704	-460.203199	36.464	
C	-0.0718572515	 1.5233844615	-0.0205324674	-0.431526
C	 0.0858136327	 0.0203208702	 0.0415165746	-0.101301
C	 1.4356358623	-0.6517000139	-0.1658064998	 0.013422
O	 2.5978559233	 0.1149649738	-0.2708271188	-0.41526
C	 0.7751236495	-0.6777579746	 1.1892542195	 0.353176
C	 1.3430693816	 0.0672939822	 2.3714742529	-0.447788
O	 0.1302011594	-1.8987734272	 1.5524875292	-0.225922
C	 0.9248749155	-2.9645233725	 1.7889796321	 0.152552
O	 0.492826746	-4.01852818	 2.1488042714	-0.276542
H	 0.8637008114	 2.0372787788	 0.2121677405	 0.12914
H	-0.3787570435	 1.8327441245	-1.0252797749	 0.121841
H	-0.8364987204	 1.8738440983	 0.6800073888	 0.130703
H	-0.7515832959	-0.5474202099	-0.3549040124	 0.106606
H	 1.442804982	-1.5839526683	-0.7301299249	 0.101403
H	 2.6150752014	 0.5180632103	-1.1456816142	 0.295989
H	 1.8586970872	 0.972727501	 2.0512588692	 0.143892
H	 0.5451897782	 0.3365833478	 3.0703651103	 0.132843
H	 2.0682677191	-0.5535975415	 2.9075674692	 0.125904
H	 1.9946306121	-2.7548355704	 1.6039358649	 0.090867
91.3987	124.0134	147.949	158.8194	173.2276	196.1382	222.9077	271.3092	303.6239	335.8078	395.0332	426.8852	522.9968	580.6224	631.0321	750.8262	833.7083	878.591	957.053	997.1862	1031.4916	1052.8956	1062.8172	1102.9396	1132.058	1158.033	1175.9376	1179.2427	1224.0058	1275.8492	1320.7111	1377.751	1409.7721	1419.2692	1424.2921	1459.9271	1482.7543	1491.4765	1503.2746	1513.2011	1862.9782	2969.1639	3038.5412	3045.526	3096.8019	3102.3257	3105.0357	3120.2975	3151.5974	3155.0272	3801.1772
CC1C(O)C1(C)OC=O	C[C@H]1[C@@H](O)[C@]1(C)OC=O	
InChI=1S/C6H10O3/c1-4-5(8)6(4,2)9-3-7/h3-5,8H,1-2H3	InChI=1S/C6H10O3/c1-4-5(8)6(4,2)9-3-7/h3-5,8H,1-2H3/t4-,5+,6+/m0/s1
