19
gdb 48725	2.95365	1.6396	1.33677	3.0839	79.94	-0.2437	-0.0129	0.2308	1002.1708	0.161488	-385.867298	-385.860293	-385.859349	-385.898595	28.908	
O	-0.03858697	 0.014755549	-0.0120020542	-0.279976
C	 0.0695551688	 1.2160160845	-0.1031281031	 0.086948
C	 1.3317511685	 1.9567474532	 0.0276980112	 0.261206
C	 1.2817601537	 3.4572104306	 0.2888468693	-0.369301
C	 1.7505578719	 2.9947275175	-1.0471138442	-0.067352
C	 3.2100774471	 2.5480897318	-1.2604078399	-0.040609
C	 3.7511195916	 2.2834083426	 0.1708977843	-0.248345
C	 2.6561312635	 1.1828969771	 0.1723544803	-0.086607
C	 3.0297527774	 0.9911643089	-1.3393795363	-0.212069
H	-0.8209079928	 1.8591904792	-0.3021885143	 0.057327
H	 0.281844014	 3.8816301488	 0.316758788	 0.119715
H	 1.9571400572	 3.8975852653	 1.0108766777	 0.127216
H	 1.1279810806	 3.1676734012	-1.9183826049	 0.10213
H	 3.7855972985	 3.1047158886	-2.0004632448	 0.068755
H	 4.7502866402	 1.8450602395	 0.1401996602	 0.104349
H	 3.7352620154	 3.0768687355	 0.9193246237	 0.094221
H	 2.6571808032	 0.3551059013	 0.878411008	 0.081212
H	 2.2567028481	 0.5980739947	-2.0036186756	 0.104477
H	 3.971476393	 0.4563404307	-1.4870728655	 0.096704
106.919	192.8421	249.9096	373.1824	424.0155	468.3005	542.1985	573.0606	635.6944	726.8863	762.8926	810.9853	838.9237	848.6061	891.2759	901.5281	943.9173	978.2055	999.4026	1007.4733	1027.1765	1046.201	1064.3494	1073.9736	1087.3546	1099.6542	1110.5955	1132.7064	1219.5858	1230.9645	1234.8467	1248.6821	1265.4918	1297.6223	1327.6817	1372.267	1437.1635	1474.0648	1502.2952	1541.9996	1798.343	2843.7013	3061.8713	3079.3992	3111.8487	3123.649	3127.4703	3134.2722	3142.2752	3171.6583	3219.7955
O=CC12CC1C1CC2C1	O=C[C@]12C[C@H]1[C@H]1C[C@@H]2C1	
InChI=1S/C8H10O/c9-4-8-3-7(8)5-1-6(8)2-5/h4-7H,1-3H2	InChI=1S/C8H10O/c9-4-8-3-7(8)5-1-6(8)2-5/h4-7H,1-3H2/t5-,6+,7-,8-/m0/s1
