16
gdb 52348	3.16918	0.60584	0.51886	2.3736	87.47	-0.2466	-0.0328	0.2138	1992.9643	0.121055	-400.683245	-400.67328	-400.672336	-400.719923	34.206	
O	-0.246212379	 0.2475413437	-1.0011886072	-0.232703
C	 0.2978101038	 1.1069448044	-0.3600036532	 0.150815
C	 1.2835660472	 2.1113393242	-0.9354157726	-0.226401
N	 1.2312098828	 3.3605257539	-0.1868357222	-0.283967
C	 2.3311517887	 4.2867577248	-0.4648965838	-0.350488
C	 2.4069623989	 4.7761282487	-1.8451968058	 0.422157
C	 2.4184818707	 5.1626553561	-2.9929006261	-0.30524
C	 2.4393175552	 5.6000972365	-4.2812671359	 0.286806
C	 2.4564646151	 5.9877837935	-5.4246559805	-0.531639
H	 0.1289350457	 1.2281270868	 0.7338781674	 0.086754
H	 2.2843665288	 1.6745966382	-0.7957059778	 0.135256
H	 1.1214947972	 2.1977844925	-2.0196687479	 0.129242
H	 0.3510621848	 3.8323965913	-0.3712765781	 0.232444
H	 2.2381981755	 5.1407291237	 0.2170629653	 0.14581
H	 3.2721721643	 3.7859404839	-0.2024515169	 0.145851
H	 2.4729414602	 6.3282296878	-6.4302326547	 0.195303
38.2247	64.8793	83.9477	117.1952	151.3672	235.3106	249.3351	348.5021	367.9612	506.2675	513.9832	533.3161	564.4446	592.6072	605.6332	703.2881	742.8745	821.0863	939.7714	1001.4497	1071.1182	1131.6787	1137.8264	1161.1637	1221.9717	1299.2098	1342.5849	1359.295	1405.0684	1456.5262	1472.8793	1504.7467	1841.0534	2179.4081	2357.073	2885.6349	2994.4917	3022.8665	3033.5913	3058.2016	3504.3922	3514.9284
O=CCNCC#CC#C	O=CCNCC#CC#C	
InChI=1S/C7H7NO/c1-2-3-4-5-8-6-7-9/h1,7-8H,5-6H2	InChI=1S/C7H7NO/c1-2-3-4-5-8-6-7-9/h1,7-8H,5-6H2
