21
gdb 116283	1.76815	1.51499	0.88318	1.7303	78.98	-0.2467	-0.0216	0.2251	1331.4838	0.182517	-424.244098	-424.23463	-424.233686	-424.279395	34.486	
O	-0.2107828208	 1.514205288	 0.0915703663	-0.427829
C	-0.0473483914	 0.1134865346	 0.258109193	-0.117867
C	-1.3806939302	-0.5401127255	-0.0807404309	 0.035981
C	-1.8464401342	-0.3706542849	-1.5363182451	-0.203116
C	-2.9628697729	-1.413081841	-1.6669187367	-0.206977
C	-2.4049162574	-2.6416989115	-0.9188351849	-0.238258
C	-1.4565155901	-2.0876251422	 0.187545487	-0.091488
C	-0.098537719	-2.7537859382	 0.1210545462	 0.155514
O	 0.5200000538	-3.1583599141	 1.0723895393	-0.259606
H	 0.6189574452	 1.9434831144	 0.3194364337	 0.288471
H	 0.7458212799	-0.2719604362	-0.4043196955	 0.086054
H	 0.2416037352	-0.1382310595	 1.2902902393	 0.103692
H	-2.1307004584	-0.0697631504	 0.5667963838	 0.093405
H	-2.1669840565	 0.6510747078	-1.7496955387	 0.114716
H	-1.023233715	-0.6061871394	-2.2248555286	 0.092438
H	-3.8691780381	-1.0472342056	-1.1698371625	 0.102635
H	-3.2310198011	-1.6385215566	-2.702814695	 0.097451
H	-3.1855845946	-3.280205148	-0.4987863722	 0.109825
H	-1.8320790829	-3.2667433914	-1.6159244562	 0.102149
H	-1.8379703417	-2.2709384467	 1.1947277079	 0.092649
H	 0.3165574002	-2.8557560836	-0.9110844202	 0.07016
49.6415	57.116	118.2985	174.5589	219.2411	264.3572	294.652	340.2936	403.8489	425.0326	461.1263	566.5134	668.8786	812.7504	841.5144	871.2197	909.4303	913.0019	970.1847	1017.6134	1026.3671	1030.2869	1042.9008	1084.132	1094.4662	1139.5635	1186.0005	1201.3586	1234.9314	1250.244	1260.8314	1293.8037	1301.7945	1319.5261	1330.3168	1345.9945	1351.1083	1386.6717	1431.1621	1463.368	1488.244	1493.2672	1507.7418	1520.3743	1825.0194	2835.2954	2960.2533	2997.4373	3016.9902	3025.4615	3034.2167	3040.4735	3080.2753	3091.5042	3101.7441	3111.5953	3831.5254
OCC1CCCC1C=O	OC[C@H]1CCC[C@H]1C=O	
InChI=1S/C7H12O2/c8-4-6-2-1-3-7(6)5-9/h4,6-7,9H,1-3,5H2	InChI=1S/C7H12O2/c8-4-6-2-1-3-7(6)5-9/h4,6-7,9H,1-3,5H2/t6-,7+/m0/s1
