16
gdb 45444	2.63909	1.7615	1.73469	4.4043	63.15	-0.2414	0.0065	0.248	879.041	0.127844	-475.051492	-475.044789	-475.043844	-475.082623	26.377	
O	-0.0194302129	-0.0121631352	-0.0408436422	-0.338013
C	 0.0135722044	 1.1810320267	 0.0135408944	 0.485142
O	-1.1232346791	 1.9339505127	 0.0652430451	-0.237712
C	-0.8379925154	 3.350105145	 0.0561592302	 0.195028
C	-0.0164417346	 3.6788125831	 1.3017422225	-0.194488
N	 1.2114879673	 2.8566724759	 1.2525681326	-0.302731
C	 1.2452023673	 2.083329975	 0.0006700478	-0.191544
C	 1.1007069007	 3.0101040213	-1.2203829019	-0.083167
O	-0.1562367167	 3.6976882757	-1.1155654307	-0.257555
H	-1.8047673905	 3.851144577	 0.0308111089	 0.11205
H	 0.2017870937	 4.7521212852	 1.3031374249	 0.115915
H	-0.6031370059	 3.4480168637	 2.1991301669	 0.124893
H	 2.0372721989	 3.441572869	 1.307541347	 0.230195
H	 2.1460441393	 1.4722910217	-0.047379139	 0.109576
H	 1.9165335461	 3.7449843885	-1.2324336646	 0.104737
H	 1.1158056474	 2.4571636646	-2.1674410118	 0.127676
115.239	181.4654	296.7627	382.8939	397.1238	451.5276	533.8086	604.1747	651.6755	718.4822	795.3252	833.4946	867.061	886.7122	917.8109	952.3777	1003.3243	1011.1536	1050.7214	1068.4943	1133.9377	1142.707	1200.3565	1226.4784	1234.0132	1282.5944	1303.8136	1348.1077	1383.4543	1392.8631	1407.8329	1458.9554	1507.0479	1519.2054	1888.905	3010.9271	3027.178	3057.278	3071.5445	3127.0948	3136.0467	3537.0475
O=C1OC2CNC1CO2	O=C1O[C@H]2CN[C@@H]1CO2	
InChI=1S/C5H7NO3/c7-5-3-2-8-4(9-5)1-6-3/h3-4,6H,1-2H2	InChI=1S/C5H7NO3/c7-5-3-2-8-4(9-5)1-6-3/h3-4,6H,1-2H2/t3-,4+/m1/s1
