23
gdb 87726	3.11797	1.10461	0.94379	0.1779	93.51	-0.2156	0.0284	0.244	1375.1194	0.205871	-351.16577	-351.156515	-351.155571	-351.199721	36.079	
C	-0.0854479382	 1.5421624126	-0.007121576	-0.408412
C	-0.0156723609	 0.0315569215	 0.0293546629	-0.042972
C	 1.2688061502	-0.6924920227	-0.2808906505	-0.343889
C	 0.7187048578	-0.6983722265	 1.1366116352	 0.338341
C	 1.4173849593	 0.0220832649	 2.3006658639	-0.317615
C	 1.5606184333	-1.0418738574	 3.429910203	-0.019116
C	 1.258319605	-0.4969116036	 4.8308748506	-0.394342
C	 0.6251599897	-2.1428134213	 2.9746108984	-0.089668
C	 0.1837428525	-1.9510743554	 1.7321353094	-0.138836
H	 0.8536098081	 1.9953582197	 0.3253612214	 0.116017
H	-0.2823930714	 1.9007661851	-1.0236153903	 0.115141
H	-0.8839760353	 1.9229550731	 0.6398891868	 0.116232
H	-0.9227648038	-0.4605585508	-0.3161175136	 0.077756
H	 1.2292115386	-1.6125192838	-0.8553441607	 0.105584
H	 2.1543766769	-0.090620255	-0.4647856089	 0.105696
H	 2.3803738079	 0.4555074711	 2.0175581353	 0.095393
H	 0.7885707707	 0.8456454719	 2.6612166774	 0.098967
H	 2.5890619458	-1.4343119562	 3.4408372804	 0.077023
H	 0.2373789474	-0.102775227	 4.883043905	 0.11411
H	 1.3553966165	-1.2792454735	 5.5914870657	 0.109465
H	 1.9471170971	 0.3124977743	 5.0960120559	 0.110967
H	 0.3862720361	-2.9954254607	 3.6016351503	 0.085818
H	-0.4701897635	-2.6192949502	 1.1808424385	 0.088339
50.9854	148.6096	168.4238	196.0254	250.0208	273.7483	294.1362	386.4632	411.1291	426.2094	492.1589	577.5213	683.6377	755.9091	788.5554	827.2054	843.9452	871.5426	903.9102	926.9109	939.8398	949.9511	964.9923	1016.8918	1036.4995	1059.8269	1082.261	1114.6086	1126.0932	1132.6939	1145.6807	1186.3318	1212.3511	1260.038	1288.048	1309.6165	1320.0582	1342.1693	1382.6274	1404.4796	1410.7418	1430.3161	1483.8552	1486.8653	1493.4819	1497.4884	1500.2761	1503.6056	1678.7005	2978.1487	3024.0738	3025.6873	3029.5142	3084.688	3085.5353	3094.7513	3097.1809	3097.8432	3115.6478	3125.0574	3171.818	3197.6903	3202.0617
CC1CC11CC(C)C=C1	C[C@H]1C[C@]21C[C@@H](C)C=C2	
InChI=1S/C9H14/c1-7-3-4-9(5-7)6-8(9)2/h3-4,7-8H,5-6H2,1-2H3	InChI=1S/C9H14/c1-7-3-4-9(5-7)6-8(9)2/h3-4,7-8H,5-6H2,1-2H3/t7-,8-,9+/m0/s1
