16
gdb 14197	3.81499	2.27181	2.11506	0.5219	63.01	-0.24	0.0717	0.3117	724.9866	0.131244	-383.692346	-383.68626	-383.685315	-383.722159	24.989	
C	 0.0532523173	 1.4850159162	-0.051559478	-0.508623
C	 0.0005722164	-0.0101213087	 0.0372475194	 0.380532
C	-1.3137774942	-0.8028102711	-0.1390458281	-0.239746
C	-0.6913637893	-2.0981713216	 0.4055872952	 0.02387
O	-0.3966795234	-1.7192640825	 1.7856996524	-0.295034
C	 0.626800849	-0.9004046367	 1.2227709759	 0.015771
C	 0.8317602541	-1.7992359641	 0.0071396447	 0.065233
O	 0.8657679692	-0.7185082547	-0.9177537459	-0.326092
H	 1.0760705647	 1.8483162528	 0.0839104691	 0.129295
H	-0.3055041435	 1.8301606978	-1.0268900553	 0.133051
H	-0.5801217764	 1.9296254714	 0.7224596385	 0.12906
H	-2.1423215759	-0.4754666747	 0.4920039844	 0.109575
H	-1.6063546055	-0.8330652761	-1.1904852181	 0.10948
H	-1.195067073	-3.0573566832	 0.3070237417	 0.086545
H	 1.3648178723	-0.4941078912	 1.9125502754	 0.092094
H	 1.5568479681	-2.5961682437	-0.1440500313	 0.094989
196.7208	251.9043	285.2692	448.6866	521.2952	534.1036	622.4241	700.7994	747.1393	777.1546	834.7984	850.9779	861.7093	898.8454	935.1757	973.2615	983.2183	1023.4896	1041.4539	1050.4625	1125.5867	1144.1685	1161.7892	1183.475	1212.2718	1233.2696	1273.3815	1289.7624	1323.7199	1360.8514	1415.8586	1461.4677	1479.2419	1493.8923	3037.4956	3077.3198	3106.7722	3115.4237	3134.8864	3140.3585	3145.117	3154.6577
CC12CC3OC1C3O2	C[C@]12C[C@@H]3O[C@H]1[C@@H]3O2	
InChI=1S/C6H8O2/c1-6-2-3-4(8-6)5(6)7-3/h3-5H,2H2,1H3	InChI=1S/C6H8O2/c1-6-2-3-4(8-6)5(6)7-3/h3-5H,2H2,1H3/t3-,4+,5-,6-/m0/s1
