18
gdb 112065	2.01704	1.68523	1.00823	4.8955	78.17	-0.2624	-0.0073	0.2551	1185.9483	0.147787	-401.960755	-401.951963	-401.951018	-401.994883	31.712	
C	 0.2737347361	 1.1319265735	 0.4240410352	-0.239087
O	 0.1847697749	-0.2390691673	 0.1055468488	-0.237366
C	 0.5089829834	-0.5467824702	-1.2385032272	 0.090882
C	 2.0041500688	-0.5507957341	-1.4949916435	-0.092269
C	 2.5040883274	-1.7847919629	-1.4792510709	-0.061129
C	 1.4449608251	-2.8376802933	-1.2714133089	-0.267873
C	 0.1357083285	-2.0331929527	-1.5145131941	-0.197192
C	-1.0208145865	-2.5117413833	-0.7657815254	 0.291886
N	-1.9404650053	-2.9259532264	-0.2022627236	-0.332866
H	 1.3064106451	 1.5066580643	 0.3749917059	 0.108054
H	-0.3510064329	 1.7430896174	-0.2458012032	 0.10811
H	-0.0907889647	 1.2451407434	 1.4472570868	 0.138175
H	-0.044096948	 0.1303191507	-1.9071712952	 0.076553
H	 2.5785047943	 0.3606928694	-1.6078477762	 0.105811
H	 3.5539781425	-2.037576305	-1.5784428408	 0.109078
H	 1.5305147765	-3.6837493562	-1.9599354875	 0.122921
H	 1.485998379	-3.2474871994	-0.2554466297	 0.143217
H	-0.107662904	-2.1066814379	-2.5798741506	 0.133095
63.8521	87.2485	130.2593	188.0893	203.784	282.332	324.4086	383.3919	479.5063	527.8931	566.4651	686.4207	748.4009	795.1543	843.5689	917.2748	969.9294	976.368	988.2392	1027.1845	1047.3647	1083.6994	1130.436	1153.4497	1169.7487	1181.7205	1214.5093	1284.1495	1299.7056	1303.7615	1352.1282	1360.5103	1382.0378	1478.0304	1484.4542	1489.7381	1508.0494	1683.0485	2364.0088	2977.85	2987.1888	3029.5816	3044.551	3056.3433	3087.1914	3122.48	3189.5437	3216.1161
COC1C=CCC1C#N	CO[C@H]1C=CC[C@H]1C#N	
InChI=1S/C7H9NO/c1-9-7-4-2-3-6(7)5-8/h2,4,6-7H,3H2,1H3	InChI=1S/C7H9NO/c1-9-7-4-2-3-6(7)5-8/h2,4,6-7H,3H2,1H3/t6-,7-/m0/s1
