21
gdb 65808	2.77695	1.12337	0.98679	3.0024	82.19	-0.2396	0.0274	0.267	1295.97	0.182735	-383.26626	-383.256828	-383.255884	-383.300873	35.516	
C	 0.2140507327	 1.5014499256	-0.4420482533	-0.434852
C	-0.1367184034	 0.0922062879	 0.0345755005	 0.342406
C	 0.5401401327	-1.0181147387	-0.851120065	-0.247402
C	 1.686486613	-1.1004207949	 0.1904764242	-0.224428
C	 0.7734114709	-0.3694461404	 1.2100425723	-0.257252
N	-1.5595211616	 0.0012613927	 0.3616630396	-0.323567
C	-2.530553779	 0.3436585843	-0.6646955261	-0.307359
C	-2.5051911286	-0.486746912	-1.8918399393	 0.25961
N	-2.4754137122	-1.1590313461	-2.8320834688	-0.31897
H	 1.2979762212	 1.6117831446	-0.5342131579	 0.123056
H	-0.2120028835	 1.7201166377	-1.426842989	 0.119943
H	-0.1470258513	 2.2493407056	 0.2713648216	 0.122304
H	-0.0608921773	-1.9314288929	-0.8697497316	 0.10337
H	 0.7976682555	-0.7568900052	-1.8801561205	 0.105321
H	 2.0363933174	-2.0966561403	 0.4672363587	 0.101424
H	 2.5548768791	-0.5016514838	-0.0955072123	 0.106033
H	 1.2094090654	 0.4137872711	 1.8357535753	 0.09994
H	 0.2464828867	-1.0751392166	 1.8605789545	 0.093988
H	-1.7631944768	-0.9248017423	 0.7227278016	 0.223161
H	-3.5346309904	 0.2655185264	-0.2341276731	 0.153802
H	-2.4039849907	 1.3888768973	-0.9616602513	 0.159472
44.1512	85.2671	153.008	198.3126	238.2443	282.3784	327.2114	372.4069	380.7828	414.577	428.3305	593.8003	634.4484	703.4289	756.8733	793.9432	870.963	886.9681	896.7523	923.6432	928.3567	941.5023	993.0481	1031.4216	1050.2113	1104.3311	1162.6277	1189.7086	1207.1148	1219.8171	1250.7744	1257.5874	1271.7912	1296.8755	1332.1878	1365.7464	1409.0364	1456.0926	1471.8852	1480.9684	1494.671	1503.2828	1508.669	1517.8276	2345.1537	3034.8282	3047.5889	3055.3722	3060.4542	3067.743	3094.3873	3098.4236	3103.1392	3109.4644	3114.1331	3125.0633	3524.4519
CC1(CCC1)NCC#N	CC1(CCC1)NCC#N	
InChI=1S/C7H12N2/c1-7(3-2-4-7)9-6-5-8/h9H,2-4,6H2,1H3	InChI=1S/C7H12N2/c1-7(3-2-4-7)9-6-5-8/h9H,2-4,6H2,1H3
