20
gdb 89528	2.50929	1.56663	1.18802	0.935	75.25	-0.2188	0.0745	0.2934	1108.7587	0.171303	-440.256037	-440.247595	-440.246651	-440.288772	32.697	
C	-0.030295616	 1.5079223335	 0.0285029718	-0.32312
N	-0.0476107877	 0.0650468961	 0.1192590746	-0.080885
C	-1.3105878043	-0.6003492516	 0.5044007599	-0.225479
C	-0.486669281	-1.6097056957	 1.3211243738	 0.389441
O	-1.0419405285	-1.9392006283	 2.563583836	-0.480323
C	 0.117839154	-2.7973946129	 0.5540793795	-0.160391
O	 1.5031506366	-2.7781559576	 0.8825051169	-0.261888
C	 1.9261067653	-1.4092654054	 0.8482124064	-0.091731
C	 0.6866558688	-0.5877739052	 1.228312389	-0.064946
H	 0.9866521664	 1.8548104749	-0.1842554013	 0.12035
H	-0.6736153602	 1.8347379986	-0.7954125289	 0.122707
H	-0.377769839	 2.0086168171	 0.9519852713	 0.093656
H	-1.9395616384	 0.0034732843	 1.175381843	 0.099151
H	-1.9168840205	-0.9692428882	-0.3304128454	 0.100615
H	-0.4345933431	-2.5410005504	 3.0094211079	 0.284415
H	-0.2954903714	-3.7583467452	 0.8725368186	 0.107905
H	-0.0326970522	-2.6801066732	-0.5297319075	 0.100943
H	 2.7584983002	-1.3100694791	 1.550877494	 0.1036
H	 2.2666248355	-1.1307068015	-0.1593299362	 0.097514
H	 0.8091056056	 0.0429982296	 2.1185392064	 0.068466
97.1795	174.281	217.7042	224.1294	267.7509	318.9027	349.6802	361.8152	401.9598	480.8149	578.0823	652.626	687.7589	804.9666	838.0317	911.9503	934.1859	972.3829	990.0573	1028.6296	1044.9802	1062.5681	1086.027	1107.5142	1132.0471	1153.9909	1174.8847	1213.4287	1231.7472	1244.6083	1264.1565	1294.2079	1315.4659	1339.9442	1353.4076	1391.1005	1410.2066	1454.0398	1486.603	1494.3197	1500.0441	1507.9406	1515.4208	2928.9912	2990.2058	2993.5024	3003.5511	3020.2445	3055.2783	3059.1571	3085.963	3093.6665	3096.9027	3794.1286
CN1CC2(O)COCC12	CN1C[C@@]2(O)COC[C@@H]12	
InChI=1S/C6H11NO2/c1-7-3-6(8)4-9-2-5(6)7/h5,8H,2-4H2,1H3	InChI=1S/C6H11NO2/c1-7-3-6(8)4-9-2-5(6)7/h5,8H,2-4H2,1H3/t5-,6-/m1/s1
