21
gdb 83157	2.38086	1.48443	1.30277	2.9319	81.29	-0.2332	-0.0092	0.224	1107.2371	0.184125	-387.115939	-387.107507	-387.106563	-387.148971	32.872	
C	-0.2969933698	 1.4607034085	 0.1659388542	-0.424835
C	-0.0461576287	-0.0227214305	 0.0004615719	-0.010156
C	 0.6506088709	-0.6108072731	-1.2120586064	-0.053852
C	 1.2177205102	 0.2732423081	-2.3214004296	-0.241469
C	 2.7191332207	 0.5780455799	-2.1260845496	-0.285005
C	 2.9691338214	 1.1329804284	-0.7359134267	 0.39178
O	 3.4606542623	 2.2206584338	-0.5379723648	-0.324145
C	 2.5656678401	 0.2058759928	 0.4067305268	-0.315736
C	 1.324664713	-0.6414527048	 0.1507895924	-0.060307
H	 0.5437472911	 2.0792914362	-0.1588585787	 0.13659
H	-1.1772724756	 1.7761800332	-0.4057399314	 0.118695
H	-0.4840557162	 1.703207575	 1.217696096	 0.121069
H	-0.8576402882	-0.6341816803	 0.3876247949	 0.082168
H	 0.2552739987	-1.560810435	-1.5577068968	 0.084256
H	 1.0793829035	-0.2205868628	-3.2876798801	 0.106457
H	 0.6693420919	 1.2197499141	-2.3858710276	 0.115918
H	 3.2861065051	-0.3568473914	-2.2298380957	 0.111844
H	 3.0882247278	 1.2930483887	-2.8646606286	 0.115843
H	 3.4214292128	-0.4714150395	 0.5423630974	 0.12475
H	 2.4923229285	 0.800667303	 1.3224461509	 0.12199
H	 1.3472565904	-1.6062122143	 0.6489273717	 0.084146
76.8629	120.9437	174.2374	214.5975	257.6026	381.359	411.6563	450.8924	493.0329	530.9329	558.6225	686.7081	741.6003	760.8112	778.147	824.0726	887.0293	919.1951	955.1211	963.4668	994.2692	1056.061	1066.5634	1105.3859	1117.6469	1133.4748	1151.3859	1165.4968	1213.8882	1228.1667	1251.8473	1259.963	1320.2614	1329.9668	1359.8369	1379.3947	1382.5436	1425.7401	1440.8102	1462.1741	1471.0616	1489.9549	1504.4199	1506.9073	1812.0347	3012.5287	3024.5066	3032.4656	3042.1144	3079.794	3080.4996	3087.9403	3111.0282	3112.0959	3130.4139	3138.2221	3153.8901
CC1C2CCC(=O)CC12	C[C@H]1[C@H]2CCC(=O)C[C@@H]12	
InChI=1S/C8H12O/c1-5-7-3-2-6(9)4-8(5)7/h5,7-8H,2-4H2,1H3	InChI=1S/C8H12O/c1-5-7-3-2-6(9)4-8(5)7/h5,7-8H,2-4H2,1H3/t5-,7+,8-/m0/s1
