20
gdb 80871	2.55383	1.75848	1.45108	1.3325	77.88	-0.221	0.0696	0.2905	996.235	0.172022	-403.086018	-403.078196	-403.077252	-403.117568	32.258	
C	-0.0027712211	 1.5213270178	 0.0809094881	-0.512699
C	 0.0442516266	 0.0126781256	 0.0798270264	 0.318504
C	 0.8579767661	-0.8328060806	-0.9818602318	-0.249348
C	 0.6748198539	-1.9344833052	 0.1025416512	-0.054003
C	 0.855497162	-0.7836789208	 1.1410989432	 0.088609
O	 2.1710289825	-0.2703913342	 1.2409876806	-0.452896
N	-0.7923456935	-2.1943234394	-0.0425699102	-0.115204
C	-1.6583408472	-1.7492372815	 1.0688888172	-0.25898
C	-1.2718327667	-0.7800421764	 0.0089901184	-0.072733
H	 1.0074459184	 1.9357461576	 0.1377652167	 0.134797
H	-0.4783736486	 1.902126409	-0.8299093354	 0.115384
H	-0.5728661663	 1.8995659469	 0.9370404337	 0.116151
H	 0.376408869	-1.0243059802	-1.9431756318	 0.097394
H	 1.8851696993	-0.4944264222	-1.1017413316	 0.112897
H	 1.2674390185	-2.8496395065	 0.1354542483	 0.064625
H	 0.4334411707	-0.8976348688	 2.1433681623	 0.057746
H	 2.7028877048	-0.912069347	 1.7219500471	 0.28512
H	-2.6540929855	-2.1813937848	 1.0095526559	 0.115418
H	-1.2854610271	-1.6710376406	 2.0826382015	 0.118416
H	-2.0012999759	-0.4738142387	-0.7383210298	 0.090804
201.6015	215.191	230.9221	253.114	307.43	362.6416	377.7289	431.1313	541.4912	566.5103	614.7012	640.6429	761.4122	793.6145	834.1795	856.3969	894.8383	908.9633	958.704	987.6982	1010.0815	1022.7767	1079.48	1088.484	1093.4017	1108.9333	1119.3721	1161.3488	1183.8767	1206.0134	1229.5438	1242.9452	1244.5059	1252.0078	1273.5677	1319.3898	1383.137	1411.319	1434.0754	1486.4917	1490.5461	1496.584	1518.7953	3028.8886	3050.0614	3081.0752	3089.0431	3108.5223	3114.0185	3119.7599	3127.352	3166.3209	3209.528	3818.9896
CC12CC(C1O)N1CC21	C[C@@]12C[C@@H]([C@H]1O)N1C[C@@H]21	
InChI=1S/C7H11NO/c1-7-2-4(6(7)9)8-3-5(7)8/h4-6,9H,2-3H2,1H3	InChI=1S/C7H11NO/c1-7-2-4(6(7)9)8-3-5(7)8/h4-6,9H,2-3H2,1H3/t4-,5-,6+,7-,8?/m0/s1
