19
gdb 43667	5.2105	0.80223	0.73529	2.9569	77.03	-0.2401	-0.0208	0.2193	1529.4506	0.157119	-423.006236	-422.997486	-422.996542	-423.040731	32.654	
O	 0.3437038292	 0.2687803253	-0.4776433824	-0.288316
C	 0.1298993592	 1.380636925	-0.0917565064	 0.39491
C	-1.1121494487	 2.0972235795	 0.4600743122	-0.37266
C	-0.1668052103	 3.2006137772	 0.9972728464	 0.137655
C	 1.013973797	 2.613869565	 0.1530149029	-0.366151
O	-0.6207906824	 4.4954520273	 0.6945803363	-0.25378
C	 0.1233920296	 5.5146910481	 1.2933757703	 0.139817
C	 1.3160087371	 6.1039537558	 0.5817662195	-0.287393
C	 0.0099692569	 6.8695757896	 0.6790157454	-0.291598
H	-1.7364046346	 2.4896263059	-0.3504122842	 0.144714
H	-1.7408056382	 1.5491529288	 1.1645413433	 0.13053
H	 0.0210042815	 3.0995883477	 2.0746192474	 0.080655
H	 1.9825530698	 2.4468844672	 0.6289547641	 0.126913
H	 1.1577533275	 3.1806026953	-0.7729188509	 0.13628
H	 0.167849229	 5.4432603242	 2.3808593917	 0.087753
H	 2.1632991461	 6.432590263	 1.1736499267	 0.115507
H	 1.5710575631	 5.6927213957	-0.3877380514	 0.119804
H	-0.5871192113	 6.9391862245	-0.2230127423	 0.12778
H	-0.0500553704	 7.731896865	 1.3329426614	 0.117581
56.9544	64.3843	89.2951	179.0134	297.9652	348.414	406.7348	435.7565	457.0531	507.3057	657.9274	672.9545	748.1205	769.031	816.797	837.5528	904.653	936.8149	966.6568	987.6729	1005.1364	1049.2991	1061.0488	1073.6419	1110.7482	1124.7235	1135.3418	1174.8259	1191.7329	1197.5258	1216.7348	1239.2592	1247.7124	1276.5754	1365.9657	1418.7334	1419.8917	1444.7877	1454.2393	1499.6508	1897.1298	3013.8345	3057.0166	3062.4479	3093.0136	3125.4677	3126.5624	3138.9828	3143.9975	3223.1557	3236.9515
O=C1CC(C1)OC1CC1	O=C1CC(C1)OC1CC1	
InChI=1S/C7H10O2/c8-5-3-7(4-5)9-6-1-2-6/h6-7H,1-4H2	InChI=1S/C7H10O2/c8-5-3-7(4-5)9-6-1-2-6/h6-7H,1-4H2
