20
gdb 64050	2.24951	1.76036	1.27007	2.8332	80.61	-0.2163	-0.0022	0.2141	1073.6518	0.171583	-403.210069	-403.201224	-403.20028	-403.242969	34.46	
C	-0.0003752987	 1.5525973033	-0.0241259901	-0.411916
C	 0.0159531833	 0.0193743074	-0.0139395105	 0.123481
C	-1.4315538877	-0.520446504	 0.0764210204	-0.413699
C	 0.7073111751	-0.5239367687	-1.2886963718	-0.287368
C	 1.062142964	-1.9820489609	-1.1794355886	-0.127733
C	 1.3448736999	-2.5022693144	 0.0147819145	 0.020961
N	 1.2755300541	-1.7335712164	 1.1808782966	-0.342231
C	 0.7315531351	-0.4685051012	 1.2595808089	 0.413822
O	 0.7676373411	 0.1648562748	 2.2960613428	-0.377249
H	 1.0146935249	 1.9578055536	-0.0825066849	 0.11503
H	-0.5636808156	 1.9170330921	-0.8895610843	 0.103687
H	-0.4605876703	 1.9399917516	 0.8864481095	 0.136312
H	-2.0203706639	-0.1446817086	-0.767304938	 0.113372
H	-1.4561211039	-1.6133802568	 0.0450336974	 0.125468
H	-1.9091871727	-0.1880722568	 1.0023294162	 0.130644
H	 0.0490931143	-0.344875339	-2.1469197589	 0.105644
H	 1.6191518244	 0.0616694773	-1.4852891884	 0.110279
H	 1.1230258671	-2.5997305546	-2.066648238	 0.095945
H	 1.6412736221	-3.5334112395	 0.1669183739	 0.113772
H	 1.6585475074	-2.0871423393	 2.0447019434	 0.25178
97.8506	156.8858	205.2362	237.1651	252.6796	300.1591	337.2596	356.7243	447.0124	481.5743	512.0815	556.6552	577.3586	673.8623	732.5285	763.2549	834.6091	865.1872	913.0286	941.0661	958.2403	998.5491	1005.7486	1033.6853	1085.1593	1144.5977	1181.4241	1200.0781	1237.1342	1268.1182	1310.9337	1370.2637	1396.0364	1413.0856	1425.1098	1465.3105	1472.1717	1484.7583	1488.571	1499.8886	1510.4457	1725.4894	1788.183	2983.3943	3034.6304	3039.9928	3051.1443	3103.1418	3106.0172	3120.4447	3137.027	3194.6348	3216.1466	3624.3009
CC1(C)CC=CNC1=O	CC1(C)CC=CNC1=O	
InChI=1S/C7H11NO/c1-7(2)4-3-5-8-6(7)9/h3,5H,4H2,1-2H3,(H,8,9)	InChI=1S/C7H11NO/c1-7(2)4-3-5-8-6(7)9/h3,5H,4H2,1-2H3,(H,8,9)
