22
gdb 116605	2.90527	0.9696	0.90101	2.0185	86.36	-0.2453	0.035	0.2803	1476.1035	0.192255	-404.359197	-404.348772	-404.347828	-404.395415	37.441	
C	 0.1028046972	 1.5071468166	 0.1673490671	-0.358677
C	 0.0801584998	-0.0072167056	-0.0443443875	-0.150429
N	 0.9043960232	-0.3702753833	-1.1949663533	-0.340607
C	 1.7736443418	-1.2608401618	-1.0805570173	 0.448974
O	 2.1326564389	-2.0439604544	 0.0072147624	-0.276217
C	 3.1657242774	-2.7172499339	-0.7728127348	-0.112062
C	 2.798033069	-1.8753692245	-2.0247618182	 0.136154
C	 2.1808237949	-2.6592328643	-3.1834200935	-0.440752
C	 3.8714765699	-0.8962243179	-2.5000123466	-0.440993
H	 1.1124241078	 1.8501442898	 0.414430036	 0.11521
H	-0.2158802596	 2.0260419432	-0.7412655676	 0.12275
H	-0.5653001476	 1.7928377554	 0.9861634484	 0.106811
H	 0.3911373554	-0.5235457268	 0.8733031195	 0.108716
H	-0.9484169645	-0.3244307152	-0.2602265416	 0.105315
H	 4.1567014068	-2.5384308216	-0.3462217941	 0.113372
H	 2.9683912402	-3.7908852334	-0.8374533834	 0.11349
H	 1.422603164	-3.3649941872	-2.8307691764	 0.12206
H	 1.6995267612	-1.9749093253	-3.8880952885	 0.137498
H	 2.9494877676	-3.2226564902	-3.7237063411	 0.115155
H	 4.6720212602	-1.4245605868	-3.0293399821	 0.115072
H	 3.4359897987	-0.1616797936	-3.1836107625	 0.137652
H	 4.3160439677	-0.3511934691	-1.6617703149	 0.121506
29.1875	96.5215	104.6745	149.639	204.6884	221.8351	236.9339	273.9303	289.3314	342.1839	364.7744	444.2614	552.4857	655.8791	714.5036	768.3997	821.3782	871.9442	912.2937	932.3901	966.7136	973.7309	1004.3107	1037.8798	1067.4498	1089.552	1122.4933	1156.4303	1171.0524	1226.8072	1250.1579	1269.9035	1302.5971	1358.2544	1381.2641	1400.3451	1406.1678	1422.2715	1481.4089	1486.0649	1488.4408	1493.051	1502.1078	1503.0462	1510.2803	1520.0496	1840.4616	3008.6676	3030.879	3034.3159	3036.8637	3043.8345	3050.7114	3100.3943	3103.6968	3106.725	3107.6339	3114.0397	3116.1163	3116.6006
CCN=C1OCC1(C)C	CCN=C1OCC1(C)C	
InChI=1S/C7H13NO/c1-4-8-6-7(2,3)5-9-6/h4-5H2,1-3H3	InChI=1S/C7H13NO/c1-4-8-6-7(2,3)5-9-6/h4-5H2,1-3H3
