19
gdb 124588	3.533	1.00069	0.94028	3.4863	78.59	-0.2067	0.0285	0.2352	1336.2896	0.159197	-419.22791	-419.218642	-419.217698	-419.26291	34.128	
C	-0.0742950576	 1.581255241	 0.1755994806	-0.386766
C	-0.0627637339	 0.0556498848	 0.0254255926	 0.062449
C	 0.8443827803	-0.6263036591	 1.056051476	-0.386737
N	-1.4184100105	-0.4907441915	 0.0699959567	 0.054947
C	-2.3101667343	-0.449113608	 1.1034984068	-0.184993
C	-3.4456442421	-1.0997062421	 0.6577204264	 0.219039
O	-4.6277452272	-1.338498052	 1.2913160288	-0.44121
C	-3.1459546423	-1.5006274488	-0.6578900515	-0.065707
N	-1.9133306997	-1.1253719777	-1.0025377731	-0.258181
H	 0.9372830841	 1.9789345362	 0.0501758551	 0.120803
H	-0.7228646848	 2.039522009	-0.575458222	 0.134446
H	-0.4303814756	 1.8811940342	 1.1668181072	 0.116267
H	 0.280335977	-0.2024179078	-0.9796149908	 0.11413
H	 0.5211221996	-0.4057756009	 2.0788616661	 0.116266
H	 0.8379880228	-1.7108510951	 0.9202009466	 0.134456
H	 1.8726362967	-0.2686371834	 0.9467749646	 0.120788
H	-2.0798235741	 0.0228981641	 2.0450598798	 0.11889
H	-4.590458901	-0.9683447053	 2.1781055479	 0.297362
H	-3.7738128376	-2.0388512774	-1.3510677179	 0.113749
20.9568	98.1229	186.1418	220.7187	235.7053	255.1603	310.3144	318.8096	408.795	435.5241	507.3185	605.9253	647.8901	672.3609	728.2021	730.2672	848.4416	893.4192	932.9806	949.444	992.1139	1036.2679	1098.0948	1144.7597	1150.7755	1169.8093	1205.3299	1243.5681	1309.3516	1353.6082	1394.3149	1399.8475	1408.2699	1419.2712	1449.463	1484.2027	1487.3853	1498.946	1506.2233	1509.8707	1628.7078	3036.8568	3040.9417	3083.3588	3103.983	3116.3164	3123.1447	3125.5082	3256.6067	3257.4573	3838.4667
CC(C)N1C=C(O)C=N1	CC(C)n1cc(O)cn1	
InChI=1S/C6H10N2O/c1-5(2)8-4-6(9)3-7-8/h3-5,9H,1-2H3	InChI=1S/C6H10N2O/c1-5(2)8-4-6(9)3-7-8/h3-5,9H,1-2H3
