20
gdb 103692	2.24383	1.34586	0.99135	3.1642	80.41	-0.2746	0.0355	0.3101	1255.3102	0.168681	-403.154218	-403.143892	-403.142947	-403.189091	37.599	
C	-0.0902354703	 1.5738077592	 0.0390299391	-0.470777
C	-0.0480139035	 0.0566536615	 0.0255178174	 0.313985
C	-1.3198353247	-0.5694332276	-0.5140469455	-0.157205
O	-1.4568335153	-0.1552490188	-1.8675247564	-0.422366
C	 1.2414172085	-0.6526665333	-0.2763453515	-0.340345
C	 0.6919073721	-0.690456679	 1.1472459021	 0.10179
C	 1.4109974458	 0.058617284	 2.2627010397	-0.459818
C	 0.132749028	-1.9444579995	 1.5951639065	 0.250583
N	-0.3055211818	-2.9422887669	 1.9858299756	-0.363855
H	 0.8778390689	 2.0214252617	 0.271394697	 0.116166
H	-0.3952093326	 1.923736683	-0.9504658928	 0.150382
H	-0.8210260107	 1.9426616726	 0.7676742271	 0.120141
H	-1.2697902204	-1.6634879215	-0.4373039067	 0.111783
H	-2.1772179468	-0.2351391519	 0.0919674512	 0.09488
H	-2.2961219371	-0.4888807545	-2.1977420193	 0.291725
H	 1.2039616776	-1.5650017627	-0.8602432261	 0.136426
H	 2.1361067818	-0.057092846	-0.4238524205	 0.121621
H	 1.898160839	 0.9581165259	 1.8838337323	 0.126591
H	 0.7151658407	 0.351686348	 3.0545143993	 0.137435
H	 2.180529841	-0.5781873143	 2.7086616014	 0.140859
89.7537	124.926	136.3405	169.0751	177.8593	215.1477	238.9487	287.6145	313.7059	358.2115	370.8122	401.0918	472.0607	579.9933	620.5797	684.1652	716.7242	866.3571	916.5146	945.2858	956.7302	979.8443	1029.9584	1062.6536	1073.0477	1099.024	1109.5593	1177.4367	1219.1702	1245.246	1273.038	1321.5052	1385.5612	1408.8879	1420.4205	1464.9866	1481.147	1487.3214	1493.4066	1496.3771	1515.0058	1521.7646	2341.0325	2975.8851	3034.1938	3040.1408	3049.2526	3110.1632	3112.6471	3131.1391	3136.4183	3144.0319	3227.5092	3832.6641
CC1(CO)CC1(C)C#N	C[C@@]1(CO)C[C@]1(C)C#N	
InChI=1S/C7H11NO/c1-6(4-8)3-7(6,2)5-9/h9H,3,5H2,1-2H3	InChI=1S/C7H11NO/c1-6(4-8)3-7(6,2)5-9/h9H,3,5H2,1-2H3/t6-,7+/m1/s1
