15
gdb 129479	4.50771	1.05054	0.92576	1.1358	66.98	-0.2544	-0.01	0.2444	1207.6429	0.115316	-450.181692	-450.17386	-450.172916	-450.21532	28.174	
N	 0.5788943484	 0.063050912	-0.6430341995	-0.511527
C	-0.2912997956	 0.2221867758	 0.3802548679	 0.387073
O	-0.2923749674	 1.1564268402	 1.1560551366	-0.351685
C	-1.3777093648	-0.8665543804	 0.5042924133	-0.270986
N	-0.9971044716	-2.2025292955	 0.0840923369	 0.056199
C	-0.8553307858	-3.3216190259	 0.8221156956	 0.028068
N	-0.4902172816	-4.3395172449	 0.0627246836	-0.272421
C	-0.414022765	-3.7742601988	-1.1688202645	 0.039909
N	-0.7149409873	-2.4844628013	-1.2150276123	-0.26465
H	 1.2621439105	 0.7855818376	-0.8002882316	 0.265579
H	 0.4700490849	-0.6920748031	-1.3049882123	 0.280992
H	-1.6683941853	-0.9062067188	 1.5538863177	 0.158824
H	-2.2462467066	-0.5469312671	-0.0806513058	 0.162121
H	-1.0321637198	-3.3446654571	 1.8870415146	 0.155143
H	-0.136862243	-4.3217133629	-2.0573423603	 0.137361
46.7516	61.8736	145.1464	296.0441	331.1995	386.9644	393.9819	514.7474	580.3863	660.8996	688.7813	695.4241	801.6636	863.1964	869.2997	912.316	968.8936	974.2063	1036.2658	1119.782	1173.6528	1192.3678	1241.8656	1311.7556	1333.5846	1349.8834	1368.9663	1387.6354	1461.9008	1475.3914	1547.9273	1621.52	1811.796	3065.4856	3149.8645	3258.6505	3262.6646	3550.2874	3705.0609
NC(=O)CN1C=NC=N1	NC(=O)Cn1cncn1	
InChI=1S/C4H6N4O/c5-4(9)1-8-3-6-2-7-8/h2-3H,1H2,(H2,5,9)	InChI=1S/C4H6N4O/c5-4(9)1-8-3-6-2-7-8/h2-3H,1H2,(H2,5,9)
