15
gdb 128923	6.72599	0.77682	0.73844	3.6726	72.37	-0.2759	-0.0219	0.2541	1457.5237	0.115064	-413.007713	-412.999799	-412.998855	-413.041994	27.371	
N	-0.0277568665	-1.1350084499	-0.0038791394	-0.293883
C	-0.0320458908	 0.0202160224	 0.0025624334	 0.257382
C	-0.0051349642	 1.4793603049	 0.0102651273	-0.337094
C	 1.441510281	 2.0203658865	-0.0012765025	-0.140189
N	 1.4515891734	 3.4681412892	 0.0064971408	 0.145711
N	 1.3927620646	 4.1792704484	-1.1157672849	-0.229658
C	 1.3344331169	 5.4392784584	-0.682653208	-0.056808
C	 1.3512340826	 5.4316694444	 0.7196080101	-0.056838
N	 1.4197716382	 4.1670459964	 1.1375063939	-0.229586
H	-0.5420591452	 1.8565224499	-0.8661148529	 0.174837
H	-0.5243813213	 1.8468704946	 0.9012719971	 0.174765
H	 1.9839329615	 1.6810372887	 0.8816973504	 0.162774
H	 1.9661090133	 1.6904321798	-0.8984794485	 0.162725
H	 1.2922199018	 6.263825793	-1.3759533946	 0.13293
H	 1.3257464746	 6.2486344233	 1.4226318378	 0.132932
38.4165	65.1483	89.7212	179.8442	356.9527	360.2405	408.3823	505.0265	680.7253	694.4922	777.121	786.4905	852.7821	903.6348	959.593	980.9611	995.8264	1024.2037	1037.5811	1097.612	1157.6466	1228.3457	1293.5273	1298.2743	1304.5753	1386.5259	1394.5227	1408.0829	1444.2176	1467.7307	1478.9536	1509.0337	2366.5898	3058.1731	3100.8379	3102.6234	3162.1822	3266.8932	3283.8485
N#CCCN1N=CC=N1	N#CCCn1nccn1	
InChI=1S/C5H6N4/c6-2-1-5-9-7-3-4-8-9/h3-4H,1,5H2	InChI=1S/C5H6N4/c6-2-1-5-9-7-3-4-8-9/h3-4H,1,5H2
