17
gdb 53398	2.18012	1.22079	0.86166	4.1855	81.57	-0.2471	0.0107	0.2578	1364.2584	0.135485	-380.831527	-380.822045	-380.8211	-380.867934	32.582	
C	 0.0429766223	 1.5361552392	-0.0712945732	-0.498786
C	 0.0774335878	 0.082936979	-0.009272409	 0.056028
C	 0.0942136079	-1.1200041462	 0.0384974146	 0.126614
C	 0.1012189122	-2.5644401367	 0.0905926897	-0.219402
C	 0.0700275383	-3.2014346877	 1.5182402005	-0.167853
N	-1.3766604035	-3.4606284099	 1.357316431	-0.291945
C	-1.2951114032	-3.2791364616	-0.1032803856	-0.13751
C	-2.3940267586	-2.5271184202	-0.7068427904	 0.317704
N	-3.2625568667	-1.9499924976	-1.2044429288	-0.327368
H	 0.8118400589	 1.9247085665	-0.7479011909	 0.149289
H	-0.9292818606	 1.8870002234	-0.4334007694	 0.162247
H	 0.2111200087	 1.9802642938	 0.9158488054	 0.150156
H	 0.8719593326	-2.9737018642	-0.5662789548	 0.114249
H	 0.6974601589	-4.1008543981	 1.5765054869	 0.099388
H	 0.3142506106	-2.5335677439	 2.3474992167	 0.125479
H	-1.7133563058	-4.3664122383	 1.6626289534	 0.230363
H	-1.1644260999	-4.2085939075	-0.675597816	 0.111347
20.0079	63.2034	79.7326	148.7407	170.7114	241.8139	305.146	316.5522	435.9039	472.8223	558.6399	574.6369	648.8742	724.4253	808.7711	919.6122	961.2501	992.6764	1010.2599	1050.44	1052.7514	1061.1872	1097.3225	1136.9319	1168.0924	1214.0457	1241.6359	1311.4581	1354.1074	1365.0318	1396.0293	1413.5404	1476.4181	1476.9682	1521.169	2359.8	2373.8108	2997.6687	3011.4053	3030.133	3080.5632	3091.3351	3095.1638	3098.1216	3542.0774
CC#CC1CNC1C#N	CC#C[C@H]1CN[C@H]1C#N	
InChI=1S/C7H8N2/c1-2-3-6-5-9-7(6)4-8/h6-7,9H,5H2,1H3	InChI=1S/C7H8N2/c1-2-3-6-5-9-7(6)4-8/h6-7,9H,5H2,1H3/t6-,7-/m0/s1
