19
gdb 55640	2.8147	1.0855	0.94497	3.0984	78.3	-0.2485	0.0403	0.2889	1310.6592	0.156648	-419.218023	-419.207585	-419.206641	-419.252824	39.084	
C	 0.0672264163	 1.5821605778	 0.0191421885	-0.402184
C	 0.0318335141	 0.0377853907	 0.0437057111	 0.100852
C	 0.8251996404	-0.5053192246	 1.2553954315	-0.405554
N	-1.3704789786	-0.4364503658	 0.0591794331	-0.372932
C	-2.2364368302	-0.1987875057	 1.1010066292	 0.465766
N	-3.4394176901	-0.8920502872	 0.990039646	-0.566344
O	-1.9917598617	 0.5257689854	 2.0507149828	-0.397228
C	 0.6231904684	-0.4827717262	-1.1964324896	 0.308606
C	 1.111013012	-0.918402813	-2.204618724	-0.467259
H	 1.1025226364	 1.9280859642	-0.0358617153	 0.118339
H	-0.47339198	 1.9577914411	-0.8528766392	 0.118843
H	-0.3989227089	 1.9681987404	 0.9259894567	 0.157288
H	 0.3646458491	-0.1445522768	 2.1759827037	 0.156441
H	 0.8213464541	-1.5985724956	 1.2541511239	 0.114637
H	 1.8627154048	-0.1639474274	 1.2080306074	 0.11934
H	-1.5512385457	-1.242573286	-0.5176243832	 0.244787
H	-3.7935125436	-1.0662219653	 0.060990774	 0.247802
H	-4.1360747056	-0.5400023525	 1.6296032647	 0.259862
H	 1.550068589	-1.2948682936	-3.0955631513	 0.198938
83.456	104.7576	128.2888	189.1778	228.5713	238.1556	272.2927	325.8949	363.2679	383.4899	400.241	422.489	447.7037	556.3884	565.5735	580.3206	619.965	638.7956	667.3033	771.885	783.2003	890.5427	936.0362	994.5944	1030.9651	1050.901	1112.4013	1169.49	1217.7888	1241.1373	1341.2456	1387.1505	1408.9534	1474.761	1489.5012	1494.5191	1513.2238	1530.6185	1626.8232	1788.6406	2237.1407	3049.6825	3056.2417	3122.0568	3129.6579	3152.5377	3159.3952	3499.371	3570.3153	3629.9802	3683.5946
CC(C)(NC(N)=O)C#C	CC(C)(NC(=O)N)C#C	
InChI=1S/C6H10N2O/c1-4-6(2,3)8-5(7)9/h1H,2-3H3,(H3,7,8,9)	InChI=1S/C6H10N2O/c1-4-6(2,3)8-5(7)9/h1H,2-3H3,(H3,7,8,9)
