23
gdb 115706	2.67643	1.01301	0.88391	2.3278	81.73	-0.2402	0.0668	0.307	1443.6289	0.204264	-425.402746	-425.392157	-425.391212	-425.439163	38.053	
C	 0.8744845327	-1.3222443884	-2.1426787396	-0.400498
C	 0.2841921079	-0.3818241219	-1.0820755559	 0.013845
C	 0.3043295562	 1.0671083648	-1.6001000708	-0.394451
C	-1.1505597697	-0.7388853373	-0.6618650461	 0.122395
O	-2.0091176085	-1.0479696794	-1.7892444681	-0.296018
C	-2.3601963985	-2.3368187777	-1.2419366984	-0.075081
C	-1.5369881533	-2.0779945305	 0.0343633689	-0.039659
C	-0.5058220769	-3.1060736595	 0.4580394647	-0.11116
O	-1.2225457412	-4.1547797589	 1.0997859408	-0.425322
H	 1.8564037852	-0.9618322837	-2.4651657158	 0.108093
H	 1.0067652849	-2.3434095228	-1.7780521791	 0.109419
H	 0.218722462	-1.3581822547	-3.0167624847	 0.136192
H	 0.9016271543	-0.4271423321	-0.1730407889	 0.071347
H	-0.3494547933	 1.1689555721	-2.4730195909	 0.133456
H	-0.0429585448	 1.770931373	-0.8365977599	 0.108873
H	 1.3143311419	 1.3645784372	-1.8989156977	 0.107697
H	-1.5558084353	 0.1212835027	-0.1099823126	 0.069525
H	-3.4424928311	-2.4449657563	-1.1103239239	 0.104417
H	-1.9940873011	-3.1607461575	-1.8694018054	 0.096887
H	-2.1733293414	-1.8949097649	 0.9043049724	 0.09243
H	 0.0485094996	-3.4913444201	-0.4085103419	 0.091959
H	 0.2254113785	-2.6460075193	 1.1427327339	 0.088395
H	-0.6000596982	-4.854100335	 1.3195933691	 0.28726
40.8768	75.8963	84.0947	147.0387	202.0752	217.6084	246.0433	273.4302	276.1538	317.289	377.7607	418.5914	525.212	580.2128	760.8483	806.183	880.9492	909.4164	926.5162	929.2224	963.4493	968.5314	1018.5063	1047.1823	1066.8581	1111.9363	1114.289	1142.0427	1158.5109	1170.0637	1205.1701	1231.5578	1260.982	1284.0476	1291.0872	1324.3212	1333.5353	1369.8004	1386.5075	1387.496	1402.4057	1426.8335	1462.5297	1488.997	1495.4958	1505.7922	1514.9654	1518.6874	1533.3422	2967.4245	2988.3024	3002.9753	3009.6326	3019.6514	3031.3193	3048.2039	3056.8726	3079.3707	3101.2059	3104.3583	3112.8707	3130.0355	3828.8803
CC(C)C1OCC1CO	CC(C)[C@H]1OC[C@H]1CO	
InChI=1S/C7H14O2/c1-5(2)7-6(3-8)4-9-7/h5-8H,3-4H2,1-2H3	InChI=1S/C7H14O2/c1-5(2)7-6(3-8)4-9-7/h5-8H,3-4H2,1-2H3/t6-,7-/m1/s1
