20
gdb 15902	2.71876	1.75582	1.21412	2.6988	70.1	-0.2533	0.0579	0.3112	1040.8963	0.176935	-386.125854	-386.117156	-386.116212	-386.158679	33.056	
C	-0.8256702667	 1.2903068372	-0.1407291239	-0.411397
C	 0.0108464007	 0.0190652083	-0.0731829518	 0.025846
C	 1.4347108026	 0.0194554215	-0.7018943297	-0.28448
C	 1.905401975	-0.8706566868	 0.4692482308	 0.144665
O	 3.1918762723	-0.6532451535	 1.0350259971	-0.438545
C	 0.6416731762	-0.4465529715	 1.2827723574	-0.073879
C	 0.9451129415	 0.6395586358	 2.3130646872	-0.072598
O	 1.7035870493	 0.1233763688	 3.3914095999	-0.431404
H	-0.2860375456	 2.1563263618	 0.2558412518	 0.116896
H	-1.0984061396	 1.5187214918	-1.1769992859	 0.115761
H	-1.7550752754	 1.1864397712	 0.4297126267	 0.11996
H	-0.5677427915	-0.8108626862	-0.4926404401	 0.078683
H	 1.5604736456	-0.3578148023	-1.7193485597	 0.104639
H	 1.887685193	 1.0175456941	-0.6452560844	 0.09115
H	 1.8715826649	-1.9326455815	 0.2111688817	 0.094562
H	 3.426304252	 0.2701122741	 0.8960570764	 0.287988
H	 0.1231391846	-1.2620646959	 1.7948880108	 0.073805
H	 1.4576903863	 1.4959993509	 1.8395087672	 0.063478
H	 0.0165845023	 1.0335925965	 2.7397394558	 0.108133
H	 2.4746337225	-0.2999602241	 2.9902534827	 0.286735
95.498	159.5561	178.3582	212.0203	238.4841	298.7963	327.5716	366.461	413.0993	464.6409	572.4658	594.6015	628.6255	770.8702	845.8147	884.5848	902.2115	947.6287	990.4495	1007.0837	1063.5716	1073.121	1085.4032	1137.6504	1158.4595	1166.1839	1197.9844	1234.6622	1260.0768	1276.8843	1291.3659	1320.0737	1340.6049	1374.1888	1399.7228	1409.5144	1428.5408	1449.8541	1482.0774	1494.9617	1497.5177	1516.5704	2937.5891	3025.6866	3029.8995	3042.7899	3059.6657	3067.5138	3077.2432	3092.6806	3099.4629	3106.196	3749.5756	3819.4624
CC1CC(O)C1CO	C[C@H]1C[C@@H](O)[C@H]1CO	
InChI=1S/C6H12O2/c1-4-2-6(8)5(4)3-7/h4-8H,2-3H2,1H3	InChI=1S/C6H12O2/c1-4-2-6(8)5(4)3-7/h4-8H,2-3H2,1H3/t4-,5-,6+/m0/s1
