19
gdb 96398	2.04992	1.73286	1.21629	4.4048	75.62	-0.2404	0.0223	0.2628	1098.0509	0.16104	-419.216409	-419.207925	-419.206981	-419.249281	32.279	
C	-0.0427040158	 1.5370829247	-0.0363303663	-0.428892
C	 0.0299708091	 0.014115332	-0.0110811145	 0.03891
N	 0.6939724606	-0.4969610472	-1.2045325224	-0.300599
C	 0.709045386	-1.9576282721	-1.2373607247	-0.167756
C	 1.4622189318	-2.4519093184	-0.008026908	-0.071063
O	 0.8688366713	-1.9442026145	 1.1891834812	-0.256108
C	 0.7977264964	-0.5316047827	 1.2133678839	-0.020654
C	 2.1478606989	 0.0693397419	 1.3349509546	 0.28895
N	 3.1955490686	 0.5399429937	 1.4613676571	-0.340479
H	 0.9554881681	 1.9728312909	-0.1281703893	 0.155318
H	-0.6443271329	 1.8718310698	-0.8877553908	 0.118237
H	-0.5139109614	 1.9226195264	 0.873047313	 0.123689
H	-0.9919032299	-0.3972127504	 0.101119886	 0.070414
H	 0.2565269279	-0.1182237424	-2.0368811569	 0.22369
H	-0.3051617593	-2.397511707	-1.2359023828	 0.08844
H	 1.22425303	-2.2947795327	-2.1427000411	 0.109029
H	 1.4153617776	-3.5397703599	 0.0788651728	 0.1155
H	 2.5149226841	-2.1421509155	-0.0649967861	 0.123282
H	 0.2436521088	-0.2794721766	 2.1237745843	 0.13009
104.5124	143.839	182.4823	223.2732	283.2279	298.6432	354.4914	397.8736	439.1747	455.9161	570.8631	630.0346	655.4704	759.4345	832.3708	880.2942	901.6417	937.1399	972.596	1017.355	1056.0321	1104.1436	1121.7022	1131.7027	1148.9776	1195.216	1261.1996	1272.7043	1310.737	1333.4761	1364.7943	1368.3295	1404.4366	1414.0553	1416.3054	1474.6855	1490.479	1496.1657	1501.1159	1502.4475	2353.6377	2912.0228	2937.1169	3019.5313	3040.1477	3064.206	3074.9945	3105.7287	3110.2488	3128.653	3532.9466
CC1NCCOC1C#N	C[C@H]1NCCO[C@H]1C#N	
InChI=1S/C6H10N2O/c1-5-6(4-7)9-3-2-8-5/h5-6,8H,2-3H2,1H3	InChI=1S/C6H10N2O/c1-5-6(4-7)9-3-2-8-5/h5-6,8H,2-3H2,1H3/t5-,6+/m1/s1
