20
gdb 91338	3.05645	1.31243	1.09416	1.0624	81.2	-0.2112	0.0278	0.239	1181.1137	0.171617	-403.132835	-403.124383	-403.123439	-403.1658	32.57	
C	-0.1622684235	 1.5270980185	-0.0173134288	-0.491962
C	-0.0062653458	 0.0404508798	-0.0565346083	 0.317551
C	-0.0777302127	-0.7682169244	-1.1163081021	-0.170239
C	 0.0668783442	-2.2085376996	-0.7118979096	-0.060254
C	 1.4051261335	-2.9165399568	-1.032911565	 0.116116
O	 2.0772183141	-2.3931201293	-2.1522343505	-0.425177
C	 1.861082602	-2.4795381137	 0.3839384965	-0.216808
N	 0.4522062018	-2.1523262453	 0.7387297403	-0.098664
C	 0.2294224465	-0.7753144316	 1.2042516862	-0.267076
H	 0.7412084744	 2.0102991267	 0.3762916511	 0.125619
H	-0.3631047261	 1.9401931007	-1.0091969001	 0.125996
H	-0.9850757597	 1.8209177797	 0.6473003679	 0.125643
H	-0.2640638182	-0.4558188636	-2.1366399196	 0.096165
H	-0.8349184121	-2.7955544166	-0.9316195859	 0.075712
H	 1.2804589752	-4.0040937818	-1.1135814027	 0.071869
H	 2.876912882	-2.9088410511	-2.2949309366	 0.285179
H	 2.3208896333	-3.2352015658	 1.0297511978	 0.093326
H	 2.5164944972	-1.5996750479	 0.3267650736	 0.096268
H	 1.0966647247	-0.4245981271	 1.7812322274	 0.100131
H	-0.6373982706	-0.716114281	 1.8808174484	 0.100605
93.5563	125.3211	176.3831	240.4089	249.3224	306.6503	370.1244	422.0067	447.5939	545.0985	581.7972	662.718	745.5555	824.6864	843.8236	879.1202	887.0776	953.1475	959.5229	999.1797	1029.4551	1060.2521	1065.535	1083.6364	1111.6334	1174.0102	1177.5184	1186.2341	1200.9262	1233.3651	1258.1422	1285.1477	1305.5817	1314.788	1342.9401	1344.6253	1413.1478	1434.6567	1480.3757	1488.3868	1493.4053	1504.852	1713.872	2980.5636	3001.361	3007.8095	3016.2656	3019.069	3021.5456	3061.0956	3067.3765	3112.4384	3207.7231	3820.2134
CC1=CC2C(O)CN2C1	CC1=C[C@H]2[C@@H](O)CN2C1	
InChI=1S/C7H11NO/c1-5-2-6-7(9)4-8(6)3-5/h2,6-7,9H,3-4H2,1H3	InChI=1S/C7H11NO/c1-5-2-6-7(9)4-8(6)3-5/h2,6-7,9H,3-4H2,1H3/t6-,7-/m0/s1
