23
gdb 112712	3.18478	0.95118	0.80841	0.7362	81.34	-0.251	0.0654	0.3165	1500.1315	0.205949	-425.444081	-425.434098	-425.433154	-425.479606	37.38	
C	-0.024976899	 1.594147049	 0.1486198995	-0.385533
C	 0.0293598354	 0.0754173838	-0.0471606418	-0.18789
C	-1.3458386194	-0.597325411	-0.0778599408	 0.044654
C	-2.2467863889	-0.1739507958	-1.2660893219	-0.226925
C	-3.1954350017	-1.3562839517	-1.5478511926	 0.082706
O	-3.0154740767	-1.7690906396	-2.9030335115	-0.443529
C	-2.7477700229	-2.4941097859	-0.5753503701	 0.117263
O	-2.9293773815	-3.7839361781	-1.1261206534	-0.446559
C	-1.3042781351	-2.1279842873	-0.2053205171	-0.262696
H	 0.9808776898	 2.0234365092	 0.1896123093	 0.11208
H	-0.5611508288	 2.0866355865	-0.6690704527	 0.119555
H	-0.5350347344	 1.8540201559	 1.0832460184	 0.112284
H	 0.5575607954	-0.1566493893	-0.982235506	 0.09415
H	 0.6257963963	-0.3712567798	 0.758845182	 0.092605
H	-1.8662897004	-0.3501480795	 0.8596541019	 0.067239
H	-2.7851038763	 0.7583908368	-1.0809257193	 0.099494
H	-1.6369306521	-0.0241445031	-2.1642663691	 0.114619
H	-4.2479104259	-1.0919689271	-1.3828216761	 0.063907
H	-3.6840163068	-2.4416374727	-3.0764214564	 0.281949
H	-3.3746940889	-2.4688865767	 0.3231670481	 0.085922
H	-2.4047342621	-3.7987978511	-1.9359586933	 0.274355
H	-0.6375699192	-2.4124617327	-1.0322942719	 0.092401
H	-0.9513811667	-2.6376174899	 0.6952737048	 0.09795
39.6137	83.6554	122.6037	149.4723	198.734	247.1721	292.1298	332.0196	390.6635	429.3344	441.7699	536.3585	567.1509	590.3723	662.4218	779.5962	805.8234	845.6729	894.4657	937.3267	966.5793	985.2897	1019.3562	1037.825	1058.3954	1073.7174	1111.0525	1137.1375	1143.7918	1177.3799	1226.8577	1246.5399	1269.4265	1281.2682	1304.4723	1311.5518	1331.6362	1345.1998	1354.1326	1372.1487	1394.8061	1412.6012	1422.7067	1440.8038	1478.9585	1483.9965	1494.5892	1501.1636	1507.8425	2986.3888	3006.4049	3008.7717	3014.4418	3030.7184	3044.4078	3047.5299	3049.6662	3093.0151	3096.7321	3101.4104	3105.1079	3780.9658	3797.839
CCC1CC(O)C(O)C1	CC[C@H]1C[C@@H](O)[C@@H](O)C1	
InChI=1S/C7H14O2/c1-2-5-3-6(8)7(9)4-5/h5-9H,2-4H2,1H3	InChI=1S/C7H14O2/c1-2-5-3-6(8)7(9)4-5/h5-9H,2-4H2,1H3/t5-,6+,7-
