20
gdb 61945	5.54336	0.58585	0.55208	3.6393	86.28	-0.2703	0.0342	0.3045	1937.8725	0.168468	-366.005017	-365.994502	-365.993557	-366.041386	37.402	
C	-0.0223705775	 1.6149094997	-0.0587342698	-0.398522
C	 0.0106516964	 0.0829024516	 0.0025391234	 0.021229
C	 0.7557919229	-0.4511254537	 1.2373637456	-0.182725
C	 2.2495846504	-0.067219768	 1.2690701017	-0.359433
C	 2.9492421232	-0.6647584689	 2.4043796908	 0.260289
N	 3.4857436558	-1.1451973201	 3.3081127841	-0.303685
C	-1.4237159316	-0.5052912001	-0.0145667776	-0.36769
C	-2.1688023665	-0.1934319645	-1.2279497887	 0.295813
C	-2.7631853018	 0.0661675507	-2.2401496685	-0.434577
H	 0.9787785136	 2.0431593661	-0.1621200327	 0.11578
H	-0.6143103271	 1.9507040506	-0.9139779927	 0.139432
H	-0.4748107863	 2.0324094683	 0.8490113775	 0.116868
H	 0.5225310911	-0.2898615857	-0.8950496328	 0.089599
H	 0.2738317137	-0.0822064301	 2.1510728838	 0.119368
H	 0.6806268104	-1.5438867765	 1.2658039306	 0.119049
H	 2.7440735915	-0.3938022374	 0.346330071	 0.152557
H	 2.3736264966	 1.0189981989	 1.3251992054	 0.156729
H	-1.3688806692	-1.5951127302	 0.1023116958	 0.131191
H	-1.9749400232	-0.1327266184	 0.8599930459	 0.131308
H	-3.2999361222	 0.2889912277	-3.1288489029	 0.197419
49.2841	71.4892	95.5366	105.279	157.8933	234.6575	262.3538	315.4484	349.6221	378.3544	390.8131	420.6566	515.7853	585.2521	619.9588	644.5352	762.872	842.077	890.258	923.882	945.4829	956.924	986.2759	1037.5612	1106.9191	1123.4645	1142.0898	1202.9778	1254.8513	1275.422	1316.1111	1321.9236	1363.5287	1380.2109	1389.3365	1417.1941	1466.1022	1470.828	1492.5351	1496.8923	1508.0455	2237.5625	2362.7726	3009.6564	3017.2585	3029.8566	3034.8698	3045.7841	3049.5998	3069.994	3093.8425	3100.7251	3120.6577	3505.6994
CC(CCC#N)CC#C	C[C@@H](CCC#N)CC#C	
InChI=1S/C8H11N/c1-3-5-8(2)6-4-7-9/h1,8H,4-6H2,2H3	InChI=1S/C8H11N/c1-3-5-8(2)6-4-7-9/h1,8H,4-6H2,2H3/t8-/m1/s1
