17
gdb 117531	1.93475	1.4272	1.10688	6.898	68.99	-0.262	-0.0016	0.2604	1169.1576	0.136531	-455.191445	-455.182318	-455.181373	-455.226051	32.508	
N	 0.1784289773	 0.3098575079	 1.1727931879	-0.514097
H	 0.3712255395	-0.1965319243	 2.7797007072	 0.333527
H	 1.1388677649	 0.4202565518	 0.8598216108	 0.255526
H	-0.2723991203	-0.3294323773	 0.5270043328	 0.260891
C	-0.5187924886	 1.6109984559	 1.1997249345	-0.173292
C	-0.2757862785	 2.3656746878	 2.511163088	-0.229983
C	-0.8201031932	 1.6854446341	 3.8060273943	-0.253479
C	-2.1151181156	 1.0476131635	 3.5674981712	 0.27211
N	-3.1318542573	 0.5435211792	 3.3451149272	-0.329574
C	 0.1571073434	 0.6815263507	 4.4973252936	 0.396457
O	 0.6340336766	-0.2976406292	 3.7449824546	-0.377221
O	 0.4401131967	 0.822721245	 5.6566799394	-0.323663
H	-0.2234484703	 2.2553941405	 0.3616593806	 0.110475
H	-1.5890271686	 1.4139915152	 1.0937268029	 0.15223
H	 0.7941392774	 2.5571802096	 2.6515914913	 0.127788
H	-0.757955644	 3.3442375612	 2.4212774278	 0.13265
H	-0.9677580893	 2.4587703784	 4.5637576759	 0.159654
56.5169	73.0381	142.1672	178.5714	243.6916	253.3676	313.5437	342.6729	415.0101	449.0404	479.0318	606.5216	684.5754	754.0218	785.0943	883.1457	891.0206	916.5433	987.217	1003.5778	1042.6435	1064.2399	1104.9062	1172.6031	1225.0379	1292.1405	1309.1203	1314.0001	1350.375	1384.1807	1426.7932	1479.749	1501.153	1511.4523	1652.1789	1860.3357	2348.9597	2994.0701	3024.139	3046.7826	3084.5488	3092.6203	3102.8598	3502.7072	3584.2929
[NH3+]CCC(C#N)C([O-])=O	NCC[C@@H](C#N)C(=O)O	
InChI=1S/C5H8N2O2/c6-2-1-4(3-7)5(8)9/h4H,1-2,6H2,(H,8,9)	InChI=1S/C5H8N2O2/c6-2-1-4(3-7)5(8)9/h4H,1-2,6H2,(H,8,9)/t4-/m0/s1
