17
gdb 7860	4.73571	1.14537	1.06022	3.5275	65.33	-0.2402	0.0311	0.2714	1137.739	0.141164	-401.020609	-401.011946	-401.011002	-401.054575	31.144	
C	 0.0814265822	 1.600692323	-0.0002490544	-0.421157
C	 0.4629354286	 0.1441824646	-0.0229568981	 0.075956
O	 1.7877386014	-0.205255494	 0.4077786418	-0.26863
C	 0.6693861317	-0.7028867748	 1.1667693019	 0.048701
C	 0.5389377855	-0.2332170203	 2.5990686079	-0.330507
C	 1.663448404	-0.7431973581	 3.5140225483	 0.375805
N	 2.917276186	-0.4609690473	 3.0591294302	-0.507669
O	 1.4424735509	-1.3058253073	 4.5676406655	-0.358524
H	 0.399009278	 2.0961696805	 0.9190365307	 0.131488
H	 0.5482863214	 2.1221364526	-0.8421264517	 0.135196
H	-1.0038279803	 1.7089956967	-0.100354481	 0.130203
H	 0.1665812981	-0.3793892239	-0.9341108596	 0.096334
H	 0.5150742341	-1.7756342845	 1.0377825845	 0.10456
H	 0.5327885338	 0.8596735992	 2.6475133924	 0.12249
H	-0.3998200043	-0.5966237962	 3.0231153695	 0.132895
H	 3.0573152477	-0.1311467781	 2.1165962483	 0.275977
H	 3.6974478413	-0.833364512	 3.5754991637	 0.256883
45.7122	66.5175	148.4595	194.776	239.8398	343.4799	389.1931	403.3934	473.19	486.3041	566.7357	596.8866	717.3205	760.5291	830.8865	870.6677	914.1744	960.2213	999.3013	1073.7319	1098.2105	1132.2906	1173.4431	1180.5627	1224.3789	1293.36	1311.6632	1356.9033	1396.6293	1419.0575	1458.9211	1465.0153	1489.0183	1507.3715	1622.5594	1807.388	3042.3563	3064.7592	3085.395	3098.765	3104.2834	3124.0444	3137.3092	3574.2575	3714.5794
CC1OC1CC(N)=O	C[C@H]1O[C@H]1CC(=O)N	
InChI=1S/C5H9NO2/c1-3-4(8-3)2-5(6)7/h3-4H,2H2,1H3,(H2,6,7)	InChI=1S/C5H9NO2/c1-3-4(8-3)2-5(6)7/h3-4H,2H2,1H3,(H2,6,7)/t3-,4+/m1/s1
