20
gdb 103326	2.12568	1.89835	1.20873	3.5395	75.41	-0.2429	0.0538	0.2967	1073.2814	0.170941	-440.195616	-440.186943	-440.185999	-440.228335	34.268	
C	 0.2946520017	 1.3431206213	-0.75231838	-0.481255
C	-0.0411105245	 0.0317189617	-0.0432411922	 0.391575
C	-1.4431654525	-0.4620518247	-0.4870059235	-0.159256
O	-2.4292483181	-0.3870949007	 0.5260481419	-0.42604
C	 1.1320266599	-1.0027813516	 0.1174066723	-0.142701
N	 1.7933968555	 0.0042388937	 1.0369075658	-0.323446
C	 0.337397892	-0.0533675877	 1.4798038076	-0.103554
C	 0.4427092964	-1.5948183908	 1.393744944	 0.110066
O	-0.7412617034	-2.3633643509	 1.3770337218	-0.435559
H	 1.2653091175	 1.7365891525	-0.4546580075	 0.141017
H	 0.2934425046	 1.1947643704	-1.838808945	 0.107883
H	-0.4768132631	 2.0890685531	-0.5291070594	 0.120362
H	-1.796431044	 0.1896490111	-1.2919573779	 0.09766
H	-1.37790404	-1.4761450574	-0.9033059772	 0.076034
H	-2.2552858044	-1.1396769458	 1.1047721043	 0.293015
H	 1.6964287222	-1.5214308412	-0.6614489216	 0.074296
H	 2.3765136819	-0.4863737022	 1.7231938032	 0.206651
H	-0.0367652832	 0.554574444	 2.3041421419	 0.089103
H	 1.1582569864	-2.0243951493	 2.1087624665	 0.071102
H	-0.5239538449	-3.2720204555	 1.146706725	 0.293046
118.8071	153.4811	216.4529	248.9066	261.8053	280.525	353.9706	385.5563	395.29	480.8403	572.5728	602.7896	657.9774	672.9648	769.6587	827.3621	869.2513	891.4176	912.5457	938.8076	960.5368	1044.1712	1075.1533	1080.9749	1115.524	1121.3514	1143.4656	1152.4127	1159.3128	1167.0682	1234.916	1253.726	1267.2995	1289.127	1306.9809	1332.9374	1396.0421	1402.685	1438.2973	1453.97	1488.8817	1502.8948	1511.7195	3004.0303	3005.967	3028.5653	3073.766	3082.1559	3085.035	3115.31	3158.3337	3372.5398	3775.4725	3822.8498
CC1(CO)C2NC1C2O	C[C@@]1(CO)[C@H]2N[C@@H]1[C@H]2O	
InChI=1S/C6H11NO2/c1-6(2-8)4-3(9)5(6)7-4/h3-5,7-9H,2H2,1H3	InChI=1S/C6H11NO2/c1-6(2-8)4-3(9)5(6)7-4/h3-5,7-9H,2H2,1H3/t3-,4-,5+,6+
