18
gdb 104565	2.7193	1.22343	1.0103	0.9305	74.42	-0.2625	-0.0467	0.2158	1224.2883	0.145291	-439.100404	-439.091191	-439.090247	-439.134794	33.371	
C	-0.2410792377	 1.6713823012	 0.1309529443	-0.397108
C	 0.1549607972	 0.1967693343	 0.2619033534	-0.24172
C	 0.6230091395	-0.4194877512	-1.0450137858	 0.311495
C	 0.5877814541	-1.9736298862	-1.1556025168	-0.422767
C	-0.473222631	-1.7221078535	-2.2031390438	 0.436177
N	-1.1849950271	-2.4510314153	-2.9290701854	-0.534687
O	-0.3987739031	-0.3440538921	-2.1058015313	-0.285691
C	 1.9277483703	 0.1553130577	-1.5736491397	 0.125792
O	 2.7676083775	 0.670814879	-0.8845024921	-0.244008
H	 0.6157045533	 2.2867208846	-0.155880702	 0.137255
H	-1.0248114526	 1.7962440471	-0.6214863806	 0.134249
H	-0.6212050824	 2.0494013439	 1.0838110638	 0.120493
H	 0.9714145372	 0.0854804011	 0.9837774312	 0.127517
H	-0.693231282	-0.3887601434	 0.6336873787	 0.105776
H	 1.4923950955	-2.454047322	-1.5349488861	 0.146282
H	 0.25295027	-2.48938791	-0.2546782371	 0.149534
H	-1.7967307873	-1.899587838	-3.5329798252	 0.233302
H	 2.0545644588	 0.0296433127	-2.6721304855	 0.09811
78.8111	85.0097	106.1182	195.6162	205.9489	279.7635	287.2592	377.4212	410.7897	444.3825	498.8443	533.8368	706.6576	777.4442	802.1545	865.1968	889.3982	903.9195	948.6785	977.8791	1011.7703	1029.9879	1049.0175	1090.2073	1126.9606	1164.6227	1228.367	1259.4993	1286.4325	1330.701	1367.7221	1409.9905	1414.0717	1461.0122	1468.5414	1501.7519	1510.3227	1832.4033	1834.2209	2891.8478	3041.4522	3050.2375	3082.9254	3084.85	3120.9553	3128.7666	3140.5586	3480.8852
CCC1(CC(=N)O1)C=O	CC[C@]1(C[C]([NH])O1)C=O	
InChI=1S/C6H9NO2/c1-2-6(4-8)3-5(7)9-6/h4,7H,2-3H2,1H3	InChI=1S/C6H9NO2/c1-2-6(4-8)3-5(7)9-6/h4,7H,2-3H2,1H3/t6-/m0/s1
