16
gdb 80844	2.69283	1.72375	1.32424	2.04	64.43	-0.2541	0.0126	0.2666	958.4395	0.124708	-475.026105	-475.018322	-475.017378	-475.057885	30.682	
O	 0.1112108985	 1.4423475112	 0.1683740599	-0.444937
C	 0.0528788352	 0.0449005312	 0.0812796667	 0.10876
C	 0.0330622013	-0.6516088399	 1.473434291	-0.049329
C	-1.4639893572	-0.2401647496	 1.591923825	-0.292543
C	-1.4004306228	-0.5613954623	 0.0513001711	 0.256794
O	-2.3546412219	-0.2083462513	-0.8724456959	-0.4899
C	-1.0661602208	-2.0538606396	 0.1187670802	 0.367028
O	-1.6118088754	-2.9449016483	-0.4921539731	-0.404094
N	-0.0337692695	-2.063562657	 1.0268711431	-0.322796
H	-0.3530749048	 1.8013732503	-0.5964683901	 0.29906
H	 0.7738911495	-0.3602163626	-0.6407423197	 0.081245
H	 0.7813862503	-0.4524807759	 2.2349831731	 0.099648
H	-2.1104360097	-0.8595025804	 2.2175570275	 0.104487
H	-1.6016325941	 0.8216207125	 1.7895333224	 0.130156
H	-2.6471626405	-1.0366521977	-1.2859152226	 0.296169
H	 0.1898659719	-2.8553104707	 1.6090430316	 0.260253
143.1862	185.5861	262.1237	311.5987	314.8841	348.3888	389.9286	440.7277	473.0573	504.7464	598.5704	639.3613	706.3525	735.5779	839.5887	874.9806	937.3042	957.7756	965.813	982.2361	1061.1998	1088.6753	1138.0023	1147.9153	1187.1595	1208.8845	1221.0982	1287.395	1319.8403	1349.4322	1379.4612	1395.1856	1425.9014	1491.9053	1855.1644	3025.0181	3081.1789	3165.1919	3170.468	3637.9139	3690.8825	3800.6684
OC1C2CC1(O)C(=O)N2	O[C@H]1[C@H]2C[C@]1(O)C(=O)N2	
InChI=1S/C5H7NO3/c7-3-2-1-5(3,9)4(8)6-2/h2-3,7,9H,1H2,(H,6,8)	InChI=1S/C5H7NO3/c7-3-2-1-5(3,9)4(8)6-2/h2-3,7,9H,1H2,(H,6,8)/t2-,3+,5-/m1/s1
