18
gdb 88335	3.8455	0.90569	0.88034	3.31	76.49	-0.2318	-0.0322	0.1996	1376.1323	0.147653	-435.261426	-435.25233	-435.251386	-435.295958	32.874	
C	-0.6243014892	 1.4285688862	 0.4761562226	-0.325058
N	-0.0197235459	 0.1551740435	 0.0924897792	-0.087518
C	 1.1214605156	 0.1942964251	-0.802956007	-0.238881
C	 1.3121985787	-0.2104883884	 0.6189335827	-0.08683
C	 2.0741749749	 0.6795292074	 1.5500238779	 0.384222
N	 2.4375204532	 1.8540123242	 1.2311148846	-0.500855
N	 2.3029128079	 0.0584648919	 2.803483859	-0.356516
C	 2.9621364174	 0.5940337841	 3.8818415724	 0.168797
O	 3.4556472637	 1.6979731386	 3.9335185544	-0.296841
H	 0.092119676	 2.252544137	 0.5791945506	 0.144327
H	-1.3597675081	 1.6899330557	-0.2907212666	 0.125215
H	-1.1564730853	 1.2995279726	 1.4243265213	 0.116354
H	 1.1460419153	-0.5650741638	-1.5805032665	 0.114499
H	 1.5328524563	 1.1651345821	-1.0695953105	 0.14521
H	 1.3895520363	-1.2726035989	 0.8506846959	 0.08302
H	 2.9086067018	 2.3145107777	 2.0100632813	 0.25459
H	 1.9343451232	-0.8731620155	 2.9242719805	 0.259685
H	 2.9952810483	-0.1176725796	 4.7289995281	 0.096582
45.8114	82.1178	177.7934	188.3229	239.5811	260.9119	291.0017	346.2096	393.0628	426.3942	565.4718	594.8711	686.8932	735.3932	806.3369	876.5011	923.1347	958.927	990.3837	1025.2818	1042.9873	1048.5096	1110.5371	1128.1162	1137.8558	1172.0871	1189.6908	1217.2665	1304.992	1332.2658	1431.5199	1440.2579	1445.9435	1487.5308	1499.6963	1506.5948	1511.0977	1720.7746	1810.5656	2950.5822	3017.9292	3089.2681	3097.9761	3100.9292	3103.668	3193.6197	3489.4942	3615.8431
CN1CC1C(=N)NC=O	CN1C[C@H]1C(=N)NC=O	
InChI=1S/C5H9N3O/c1-8-2-4(8)5(6)7-3-9/h3-4H,2H2,1H3,(H2,6,7,9)	InChI=1S/C5H9N3O/c1-8-2-4(8)5(6)7-3-9/h3-4H,2H2,1H3,(H2,6,7,9)/t4-,8?/m0/s1
