12
gdb 133470	3.56479	1.17295	1.04299	3.0132	52.36	-0.2699	0.0003	0.2702	1066.376	0.076306	-563.194643	-563.187438	-563.186494	-563.230007	25.735	
F	-0.7046556209	 0.3817264806	-0.5702674038	-0.075172
C	-0.0301075716	 1.393476479	 0.0033298896	 0.219776
F	 1.2099074832	 0.9337566018	 0.2458214099	-0.075136
F	 0.075191462	 2.3758151102	-0.9076404374	-0.080197
C	-0.6967777745	 1.8784250058	 1.2387165043	 0.038776
C	-1.1616668013	 3.1540831436	 1.4798910097	-0.126537
N	-1.6861237623	 3.1264002226	 2.7235854604	-0.181397
N	-1.5976737277	 1.9184869136	 3.316886028	-0.215781
C	-0.9952894005	 1.1541205436	 2.4158118703	-0.085003
H	-1.1529671727	 4.0427757119	 0.8707000485	 0.161947
H	-2.1163873735	 3.8845330572	 3.2262845157	 0.284505
H	-0.7936410203	 0.1159551801	 2.6320461949	 0.134218
2.4469	145.05	173.3444	374.661	397.6522	410.7987	544.6772	562.3539	582.5036	680.0975	709.0113	742.3107	822.1822	894.8288	953.4332	977.7375	1052.5146	1151.7141	1169.7919	1171.0246	1186.3175	1259.3442	1355.8102	1413.9753	1431.5494	1499.1242	1620.2456	3257.8757	3278.3984	3673.572
FC(F)(F)C1=CNN=C1	FC(F)(F)c1c[nH]nc1	
InChI=1S/C4H3F3N2/c5-4(6,7)3-1-8-9-2-3/h1-2H,(H,8,9)	InChI=1S/C4H3F3N2/c5-4(6,7)3-1-8-9-2-3/h1-2H,(H,8,9)
