19
gdb 85284	2.45262	1.62296	1.19369	5.0267	75.64	-0.2507	0.0358	0.2865	1094.927	0.15959	-419.239521	-419.230847	-419.229903	-419.272545	33.085	
C	-0.1645787539	 1.574601365	 0.0326910572	-0.400339
C	 0.04799382	 0.0601462279	 0.0130115415	-0.020476
N	 0.9158685024	-0.3947163238	-1.0568744177	-0.330403
C	 1.8829940471	-1.2952712684	-0.6790139309	 0.405654
O	 2.6522885577	-1.8724738849	-1.4021205406	-0.369732
N	 1.8298713007	-1.4410384548	 0.7600033549	-0.188942
C	 2.1950929429	-0.1622335134	 1.4253165424	-0.295968
C	 0.7696938925	-0.5258746801	 1.2379189386	 0.32588
C	-0.0789718291	-0.9834553758	 2.3966500373	-0.481609
H	 0.7880930745	 2.1056666677	 0.1069747718	 0.126107
H	-0.6739133854	 1.9096077969	-0.8768702117	 0.120104
H	-0.7904258133	 1.8588542475	 0.8845441232	 0.126333
H	-0.937466418	-0.4264677592	-0.0578465165	 0.085199
H	 0.7368428435	-0.22623125	-2.0332666264	 0.254337
H	 2.6523302755	-0.2818365823	 2.4028849825	 0.126354
H	 2.6360612702	 0.6128872968	 0.8045212651	 0.130517
H	-0.6015784701	-0.1363001431	 2.8550824372	 0.122431
H	-0.8305024266	-1.7088911296	 2.0677084018	 0.128635
H	 0.5385309297	-1.4586648663	 3.1624504703	 0.13592
93.4455	148.0167	183.627	217.3009	237.1597	294.8217	333.8798	394.7126	457.162	511.9114	531.1586	599.0085	682.4504	702.8967	791.7534	826.9974	834.2045	920.6578	958.3495	965.3326	1032.6933	1046.923	1081.9348	1122.1426	1131.1832	1139.6203	1152.9529	1200.0595	1298.0607	1317.1967	1386.5084	1395.6985	1409.366	1422.4277	1429.7957	1485.4261	1491.0883	1493.8843	1495.7099	1509.064	1863.4275	2973.2964	3033.6004	3038.8143	3096.3396	3105.0758	3112.8227	3122.7472	3124.8714	3202.2442	3652.23
CC1NC(=O)N2CC12C	C[C@H]1NC(=O)N2C[C@@]12C	
InChI=1S/C6H10N2O/c1-4-6(2)3-8(6)5(9)7-4/h4H,3H2,1-2H3,(H,7,9)	InChI=1S/C6H10N2O/c1-4-6(2)3-8(6)5(9)7-4/h4H,3H2,1-2H3,(H,7,9)/t4-,6+,8?/m1/s1
