14
gdb 55576	2.62334	1.12256	0.79492	2.6451	64.74	-0.266	-0.0249	0.241	1326.0899	0.100163	-470.082195	-470.072965	-470.07202	-470.117788	31.806	
N	-0.4209554841	 0.7062412783	-1.1965734462	-0.56686
C	-0.1194502587	-0.0309643008	-0.0702049957	 0.476805
O	 0.6178125459	 0.3362638408	 0.8056406463	-0.325084
N	-0.8468526043	-1.2494571803	-0.0462897804	-0.422091
C	-0.6594032688	-2.2872594585	 0.8429817578	 0.44716
O	 0.2031405292	-2.3692406545	 1.6748677296	-0.303
C	-1.6971372323	-3.4391591027	 0.7180731674	-0.460596
C	-2.5923074773	-3.3703304402	-0.4278050724	 0.264848
N	-3.2682203825	-3.245033846	-1.3579408543	-0.309609
H	 0.161497744	 1.5207078707	-1.3151592057	 0.274034
H	-0.6854908989	 0.2365720592	-2.0485125754	 0.262987
H	-1.6109009914	-1.3429552403	-0.7007417341	 0.274812
H	-1.1300541827	-4.3738495823	 0.7006657558	 0.192652
H	-2.280982858	-3.4407129834	 1.6445768172	 0.193941
40.7528	53.756	108.5946	116.637	201.259	339.3887	371.4991	392.1789	417.176	499.6503	522.4308	557.1859	566.13	628.6252	690.1934	769.9647	925.1194	943.6218	973.1696	980.693	1111.4663	1203.2483	1217.6694	1293.2586	1324.4614	1437.0073	1534.8983	1630.5218	1818.7677	1882.2728	2352.4893	3068.0619	3113.4303	3582.282	3596.0818	3702.3715
NC(=O)NC(=O)CC#N	NC(=O)NC(=O)CC#N	
InChI=1S/C4H5N3O2/c5-2-1-3(8)7-4(6)9/h1H2,(H3,6,7,8,9)	InChI=1S/C4H5N3O2/c5-2-1-3(8)7-4(6)9/h1H2,(H3,6,7,8,9)
