17
gdb 45372	2.99914	1.63145	1.42391	4.8269	66.65	-0.2609	0.0089	0.2697	950.2923	0.138933	-459.018865	-459.012048	-459.011104	-459.050359	26.953	
O	 0.0620357923	 0.0711644933	 0.7231418499	-0.323323
C	 0.0101281457	 1.1275117014	 0.1586046133	 0.413641
C	-1.3179324549	 1.8337084756	-0.1363081501	-0.351745
C	-1.1992553961	 3.1051727782	-0.9897873177	-0.062745
C	-0.726263428	 2.7820532548	-2.4152659724	-0.079581
O	 0.7055659171	 2.6458656558	-2.3121777356	-0.253436
C	 1.0905417637	 2.9521629503	-1.0027515996	 0.220578
C	 0.0152149646	 3.8944197058	-0.4732747552	-0.269092
O	 1.1621503204	 1.7577800178	-0.1954383132	-0.233724
H	-1.9819684658	 1.0912973557	-0.5889612282	 0.140997
H	-1.7494048266	 2.0714200874	 0.8429140921	 0.141626
H	-2.1349927424	 3.6677916761	-0.9864997082	 0.085685
H	-1.1465608769	 1.8516362508	-2.8107754675	 0.116559
H	-0.9541075768	 3.5942826517	-3.1162789841	 0.109176
H	 2.1135066035	 3.3268740543	-1.0160994893	 0.106957
H	 0.1062066978	 4.8745024705	-0.9496798247	 0.118114
H	 0.0473086224	 4.0150227407	 0.6111850007	 0.120315
87.2088	139.8719	345.0892	383.1989	439.7905	464.5174	511.4512	570.5442	613.7259	736.4581	784.5331	855.341	869.7412	904.8734	922.2096	935.3634	964.0739	991.6654	1029.4821	1073.3752	1074.5648	1101.5565	1161.3926	1176.6267	1201.3833	1220.9909	1276.6466	1313.0868	1323.9475	1342.8349	1366.2638	1396.5809	1408.8119	1457.816	1490.3473	1526.3219	1853.3211	3027.2968	3050.5589	3068.3868	3076.0499	3093.6512	3095.3298	3127.1115	3131.3292
O=C1CC2COC(C2)O1	O=C1C[C@@H]2CO[C@@H](C2)O1	
InChI=1S/C6H8O3/c7-5-1-4-2-6(9-5)8-3-4/h4,6H,1-3H2	InChI=1S/C6H8O3/c7-5-1-4-2-6(9-5)8-3-4/h4,6H,1-3H2/t4-,6+/m0/s1
