17
gdb 35092	3.10984	1.53664	1.18339	4.0763	76.96	-0.2364	-0.0073	0.229	1037.909	0.13828	-380.861892	-380.854555	-380.853611	-380.893883	28.251	
N	-0.002040887	-1.175672399	-0.0441414391	-0.328792
C	 0.0043042473	-0.0201876073	-0.0312854403	 0.279361
C	-0.0209343079	 1.4481083395	-0.0183508329	-0.167951
C	-0.7291673494	 2.0337794453	 1.2029307524	-0.075785
C	 0.0076996043	 3.0004218501	 1.7421207226	-0.094083
C	 1.2929776266	 3.192032238	 0.9821040105	-0.019483
C	 2.6015690311	 2.675711487	 1.6335195	-0.251085
C	 2.368868988	 1.3699942636	 0.8359703545	-0.169367
N	 1.3272927349	 2.0530605189	 0.0067516824	-0.105453
H	-0.5451783353	 1.7522933183	-0.9377720595	 0.135942
H	-1.7094793025	 1.7022462681	 1.5209261957	 0.123958
H	-0.2765408578	 3.6113503859	 2.5910506335	 0.113956
H	 1.347368685	 4.1870329513	 0.5225171804	 0.090254
H	 3.4834324033	 3.2338665204	 1.3152171435	 0.116537
H	 2.6019769282	 2.5882308662	 2.7208004127	 0.111638
H	 3.2059302484	 0.9894263499	 0.2453636931	 0.1174
H	 1.9762127029	 0.554287664	 1.4526170703	 0.122953
90.0878	148.0927	183.3813	264.442	358.3729	439.6181	507.209	557.8775	687.5543	698.9543	753.4298	768.5311	823.5342	868.9715	913.0021	921.0866	961.0793	965.8864	1010.1242	1035.1218	1069.4059	1088.4674	1115.342	1146.0937	1181.387	1214.0507	1244.7786	1266.3184	1268.1289	1308.8038	1326.3885	1339.7287	1354.0316	1484.7969	1515.0179	1674.0654	2357.931	2980.2456	3020.1564	3043.2016	3082.4247	3095.1555	3138.9102	3199.472	3227.4142
N#CC1C=CC2CCN12	N#C[C@H]1C=C[C@H]2CCN12	
InChI=1S/C7H8N2/c8-5-7-2-1-6-3-4-9(6)7/h1-2,6-7H,3-4H2	InChI=1S/C7H8N2/c8-5-7-2-1-6-3-4-9(6)7/h1-2,6-7H,3-4H2/t6-,7+/m0/s1
