17
gdb 67732	2.99669	1.88468	1.3365	2.7305	71.9	-0.2281	-0.0101	0.218	950.9596	0.134188	-421.744939	-421.737352	-421.736408	-421.776242	30.939	
C	-0.0041687705	 1.530932503	 0.0015043778	-0.514079
C	 0.0519277087	 0.0252969836	-0.0482696197	 0.293876
C	 0.471841736	-0.7211357756	-1.3056227495	-0.160674
C	 0.3888096917	-2.0130963028	-0.9862299854	-0.202015
C	-0.0797554351	-2.010937625	 0.4624103645	 0.36536
O	-0.35749054	-3.1922142133	 1.1250362576	-0.478417
C	 0.6194916952	-0.7846029592	 1.1785610139	-0.041651
O	-0.5825783735	-0.5137320748	 1.9715953968	-0.32308
C	-1.0888353037	-0.8306611764	 0.6317349116	-0.000557
H	 0.9789882181	 1.970489326	-0.1988329184	 0.117995
H	-0.7029106388	 1.9262319872	-0.7437585487	 0.119
H	-0.333394679	 1.8566458904	 0.9917432419	 0.140075
H	 0.7623295494	-0.2623135944	-2.2413822052	 0.110289
H	 0.5813502918	-2.8937859515	-1.583886969	 0.110129
H	 0.4438595306	-3.7251332333	 1.156482472	 0.285659
H	 1.591391347	-0.7104161013	 1.6756816893	 0.086296
H	-2.170204228	-0.8122759727	 0.4718292104	 0.091795
200.3081	224.3616	242.5563	267.6461	331.4883	349.8534	395.4043	523.5192	526.9015	584.1014	658.6926	710.2717	723.6464	750.2695	769.9201	821.2195	881.0294	911.5521	916.426	928.6521	1041.0545	1067.2811	1075.1287	1096.2071	1132.4738	1133.7616	1146.4806	1205.3569	1240.2183	1278.1058	1312.639	1356.7816	1384.346	1409.4744	1493.4642	1499.266	1642.1403	3033.1947	3075.8007	3090.6925	3092.5724	3120.5679	3208.5537	3235.974	3812.1755
CC12C=CC3(O)C1OC23	C[C@@]12C=C[C@@]3(O)[C@@H]1O[C@@H]23	
InChI=1S/C7H8O2/c1-6-2-3-7(8)4(6)9-5(6)7/h2-5,8H,1H3	InChI=1S/C7H8O2/c1-6-2-3-7(8)4(6)9-5(6)7/h2-5,8H,1H3/t4-,5+,6-,7-
