20
gdb 86368	2.31012	1.19348	0.93836	2.588	77.15	-0.2525	0.0219	0.2744	1321.0304	0.169648	-440.302162	-440.292325	-440.291381	-440.338452	35.039	
C	 0.2761264726	 1.5011906327	-0.4934816294	-0.404509
C	 0.0326927181	 0.0716202898	-0.0539017368	 0.138947
O	 0.7761320591	-0.8884539455	-0.8403469312	-0.312537
C	 1.3486117808	-1.5119814285	 0.3328633733	 0.138947
C	 2.8594129816	-1.6075834424	 0.2657794149	-0.404506
C	 0.6792127611	-0.4559503325	 1.2602857987	-0.06491
N	 1.5307835319	 0.4337284217	 2.0056805074	-0.276547
C	 1.3933240296	 0.6470025114	 3.3467733437	 0.153121
O	 0.561271953	 0.129406778	 4.0586636213	-0.31649
H	 1.3398965184	 1.7573344237	-0.4714264454	 0.104073
H	-0.0752401407	 1.6341382899	-1.5211071259	 0.134876
H	-0.2671632701	 2.2014644339	 0.1491631697	 0.12604
H	-1.0429686268	-0.1493659471	-0.0950317699	 0.082108
H	 0.9214238076	-2.513352953	 0.482327342	 0.082108
H	 3.3219012423	-0.6278434114	 0.111130355	 0.104072
H	 3.2607526853	-2.0441117515	 1.1860559911	 0.12604
H	 3.1498763881	-2.24701036	-0.5732152407	 0.134876
H	-0.0268963704	-0.8669912686	 1.9797415066	 0.126627
H	 2.2670860675	 0.9294333431	 1.5299784648	 0.250301
H	 2.1478730207	 1.3658731963	 3.7228724008	 0.077364
28.3984	35.4617	162.1296	181.249	203.7114	224.3306	244.8819	280.1983	387.0882	389.3217	491.7813	534.6581	548.676	723.8276	752.0192	810.0992	875.7788	925.679	939.0326	1008.74	1010.6912	1031.663	1075.2371	1111.2934	1139.0648	1152.1368	1164.3677	1230.5393	1252.5158	1283.0567	1330.7618	1363.6535	1364.1882	1400.5691	1404.8764	1416.7467	1434.4197	1476.8823	1482.3648	1495.0777	1497.224	1538.4165	1809.6611	2938.4939	3001.129	3006.6739	3037.3101	3038.2995	3109.2626	3111.387	3115.0619	3115.3108	3138.7559	3642.6567
CC1OC(C)C1NC=O	C[C@H]1O[C@@H](C)[C@H]1NC=O	
InChI=1S/C6H11NO2/c1-4-6(7-3-8)5(2)9-4/h3-6H,1-2H3,(H,7,8)	InChI=1S/C6H11NO2/c1-4-6(7-3-8)5(2)9-4/h3-6H,1-2H3,(H,7,8)/t4-,5+,6+
