18
gdb 13936	3.37686	1.79806	1.45884	2.5675	67.1	-0.2476	0.0673	0.3149	919.8977	0.153336	-384.900518	-384.892706	-384.891762	-384.933256	28.562	
C	-0.2750934263	 1.4843392327	-0.0513199004	-0.414663
C	 0.0561873891	 0.0010254904	-0.1086944915	-0.103477
C	 1.3820104322	-0.4100966905	-0.7840962598	-0.088172
O	 1.8424700437	-1.0540160912	 0.4241029135	-0.307228
C	 0.6639237846	-0.6770905834	 1.1442947412	 0.367729
C	 0.8358984223	 0.0145631958	 2.51129738	-0.130843
O	-0.0170026582	-0.957031909	 3.1509305968	-0.274795
C	-0.0720573888	-1.7600712497	 1.9540270656	-0.129542
H	 0.5755277396	 2.0706518811	 0.3126467326	 0.122841
H	-0.535997891	 1.8601137887	-1.0463530878	 0.121519
H	-1.1262960499	 1.678630702	 0.6096306443	 0.127735
H	-0.8010430418	-0.5621211873	-0.4897807828	 0.083586
H	 1.3097824272	-1.1138340661	-1.6210648437	 0.10482
H	 2.0337534782	 0.4244500781	-1.0731733814	 0.100897
H	 1.8711389412	-0.0304267041	 2.874393302	 0.108808
H	 0.4522483948	 1.0356091154	 2.6196577923	 0.101896
H	-1.1023444381	-1.991491447	 1.6556905934	 0.099533
H	 0.5045842412	-2.6901482558	 2.0437579658	 0.109353
56.2753	84.554	211.8295	235.8386	271.3661	350.4615	393.7279	485.8874	503.6534	747.3226	816.7461	893.8441	899.2754	916.8702	926.4626	991.3488	995.5739	1025.2016	1030.4421	1097.7776	1135.0972	1149.0648	1151.8995	1158.0037	1194.2405	1196.4801	1244.8364	1283.4737	1296.7631	1341.7996	1376.4725	1385.1943	1413.6766	1491.0309	1497.7992	1498.3789	1521.3427	1527.104	3003.6937	3013.4628	3017.1088	3030.6983	3051.5379	3057.9503	3064.9847	3068.0869	3099.761	3102.4172
CC1COC11COC1	C[C@H]1COC21COC2	
InChI=1S/C6H10O2/c1-5-2-8-6(5)3-7-4-6/h5H,2-4H2,1H3	InChI=1S/C6H10O2/c1-5-2-8-6(5)3-7-4-6/h5H,2-4H2,1H3/t5-/m0/s1
