12
gdb 25048	5.71779	1.07131	0.90226	3.801	74.44	-0.2588	-0.0974	0.1613	1165.4783	0.078926	-431.693302	-431.686265	-431.685321	-431.725207	25.785	
N	-0.0450994251	 1.2334733685	 0.5093169948	-0.504448
C	-0.0236687462	 0.0693528381	 0.0213540479	 0.37435
O	 1.1679933743	-0.5417566943	-0.3818172427	-0.215663
C	 1.1385540214	-1.7810283775	-0.8947851366	 0.025505
C	-0.0137801972	-2.4727267465	-1.0396595629	 0.121156
N	-1.2445940084	-1.9304154386	-0.6603394753	-0.27077
C	-1.22782978	-0.7454034237	-0.1684139692	-0.019931
C	 0.0032003028	-3.7896111902	-1.5907460473	 0.234477
N	 0.0384035588	-4.8557410169	-2.0395676308	-0.321585
H	 0.8882229835	 1.6429102231	 0.5638026769	 0.241912
H	 2.119188445	-2.1483634035	-1.1700228739	 0.174391
H	-2.161127139	-0.2822731686	 0.1408309192	 0.160605
72.8604	157.1884	212.1704	368.1135	400.7936	444.0777	461.9675	553.5062	570.9579	638.3575	735.04	758.5238	791.9787	876.244	910.546	942.6178	967.2753	1057.5772	1205.4737	1248.4927	1293.7701	1327.7589	1382.6393	1611.2548	1662.207	1744.9487	2350.6668	3178.817	3226.0331	3492.7974
N=C1OC=C(N=C1)C#N	[NH]C1=C[N]C(=CO1)C#N	
InChI=1S/C5H3N3O/c6-1-4-3-9-5(7)2-8-4/h2-3,7H	InChI=1S/C5H3N3O/c6-1-4-3-9-5(7)2-8-4/h2-3,7H
