16
gdb 50113	3.88128	0.69124	0.61908	3.2315	71.39	-0.2737	-0.0551	0.2186	1696.019	0.122085	-437.883553	-437.874393	-437.873449	-437.919141	31.372	
O	-0.2911746487	 0.3240020763	 0.785501514	-0.235151
C	 0.3249232585	 0.7894743738	-0.137615064	 0.137947
C	 1.2049579155	 1.9920381892	-0.0008172764	-0.052339
O	 2.2191602534	 2.1495443965	-1.0016422946	-0.242645
C	 1.172879725	 3.1103151431	-0.9755201716	 0.059324
C	 0.26405715	 3.1873304789	-2.1798440039	-0.233341
C	 1.0050739536	 3.84118177	-3.3672061397	-0.333649
C	 0.1578079206	 3.9639235603	-4.5501922028	 0.257298
N	-0.5284720671	 4.0533499861	-5.4753070701	-0.296431
H	 0.2987029439	 0.3473107861	-1.1563127611	 0.09777
H	 1.5067290861	 2.212752278	 1.0221042177	 0.125043
H	 1.4812715672	 4.0807761362	-0.5785892712	 0.112797
H	-0.0812513406	 2.1947927916	-2.4761723867	 0.134276
H	-0.6215458494	 3.7792118072	-1.9254836256	 0.138978
H	 1.3648646285	 4.8391454295	-3.090208915	 0.156563
H	 1.8876153834	 3.2443644972	-3.621640479	 0.173559
58.9054	62.0238	75.5527	125.5023	209.6094	259.5397	316.106	393.9096	437.7831	452.0292	530.8032	552.8847	763.2219	822.1435	870.3203	944.5382	963.6763	1004.0418	1024.9658	1057.0153	1089.1236	1133.3532	1169.1108	1216.1943	1266.9919	1288.5973	1315.0404	1342.9701	1375.2941	1412.7446	1465.0721	1472.3746	1483.7912	1827.1644	2365.698	2909.4635	3043.8401	3062.5913	3080.6371	3086.1832	3123.0755	3135.3811
O=CC1OC1CCC#N	O=C[C@H]1O[C@H]1CCC#N	
InChI=1S/C6H7NO2/c7-3-1-2-5-6(4-8)9-5/h4-6H,1-2H2	InChI=1S/C6H7NO2/c7-3-1-2-5-6(4-8)9-5/h4-6H,1-2H2/t5-,6+/m0/s1
