17
gdb 33847	4.07244	1.32992	1.18789	1.7854	78.73	-0.2317	0.0307	0.2624	1060.1669	0.135538	-384.617828	-384.610402	-384.609458	-384.649365	30.308	
C	-0.0296882345	-1.1606388515	-0.0246088949	-0.424936
C	-0.0112633229	 0.0415518356	 0.0008401991	 0.262048
C	 0.0181971167	 1.4721835894	 0.0137266411	 0.233909
C	 0.4134586964	 2.2647920721	-1.217364247	-0.344761
C	 1.2917190438	 2.3144923471	 0.0093636118	-0.122359
C	 1.0826099956	 3.3671802791	 1.0723072249	-0.070836
C	-0.0043895031	 4.4136976652	 0.9072368846	-0.329767
C	-0.301735545	 3.1196304239	 1.6160734858	 0.094335
O	-0.9120082231	 2.0775147626	 0.891576735	-0.28902
H	-0.0480117493	-2.2221770314	-0.0404093733	 0.193098
H	 0.7845019277	 1.6933148796	-2.0607643148	 0.126296
H	-0.2025386477	 3.1154013216	-1.4819497496	 0.125542
H	 2.2608851388	 1.8340355245	-0.0333120388	 0.108229
H	 1.9211971822	 3.5800282489	 1.7235588903	 0.09764
H	 0.080375331	 5.3008435471	 1.5264269603	 0.115879
H	-0.4397772411	 4.5923871981	-0.0684130972	 0.122599
H	-0.5565503855	 3.1070976584	 2.6702830927	 0.102106
121.2587	149.2776	270.4862	285.1612	439.2861	460.8248	502.0207	540.8702	567.5881	604.1832	681.2687	699.9082	718.8962	778.4921	794.0924	853.4486	859.3159	927.3609	958.6352	967.2508	988.9022	1028.9795	1044.8909	1062.1745	1086.0332	1097.2546	1108.5767	1151.691	1197.5295	1204.5424	1270.4867	1340.1361	1359.0813	1383.7365	1465.3635	1490.6373	2237.2709	3137.0981	3145.2557	3167.4414	3184.2818	3198.2154	3226.1999	3236.4666	3502.2409
C#CC12CC1C1CC1O2	C#C[C@]12C[C@H]1[C@H]1C[C@H]1O2	
InChI=1S/C8H8O/c1-2-8-4-6(8)5-3-7(5)9-8/h1,5-7H,3-4H2	InChI=1S/C8H8O/c1-2-8-4-6(8)5-3-7(5)9-8/h1,5-7H,3-4H2/t5-,6+,7-,8+/m1/s1
