19
gdb 82338	2.29192	1.68406	1.32638	1.5444	79.36	-0.2346	0.0366	0.2712	1052.6303	0.158738	-385.840948	-385.832557	-385.831612	-385.873584	32.952	
C	 0.0291160611	 1.585088345	-0.0746108869	-0.404409
C	 0.0999701645	 0.0596772003	-0.0191068973	-0.009789
C	 0.7500460126	-0.6244591371	-1.2144481591	-0.078947
C	 2.2687670502	-0.6117946541	-1.3097749684	-0.334477
C	 1.546513638	-1.7588419265	-0.6532052205	 0.111046
O	 1.4426642022	-1.7838599059	 0.7512818151	-0.250343
C	 0.8939121658	-0.536354623	 1.1966854073	-0.115446
C	 1.9399197552	 0.3391447322	 1.7365156733	 0.390156
C	 2.786272957	 1.0435132527	 2.2197431193	-0.507059
H	 1.0225607875	 2.0253561831	-0.1894846853	 0.131119
H	-0.5858672639	 1.901999162	-0.9226736742	 0.112744
H	-0.4177441891	 1.9984053179	 0.8353912458	 0.117825
H	-0.9209398507	-0.3341905472	 0.057021666	 0.085217
H	 0.1640689809	-0.7270598813	-2.1206922563	 0.089175
H	 2.6963176778	-0.7951193992	-2.29002354	 0.111445
H	 2.8378788347	 0.0694978016	-0.6882801885	 0.134515
H	 1.5727344002	-2.7594443134	-1.0675521098	 0.101091
H	 0.2068316589	-0.774573735	 2.0165999186	 0.1152
H	 3.540001527	 1.6603132879	 2.6437377609	 0.200936
96.5625	151.0555	184.3238	226.4261	262.5508	318.2994	395.2817	477.2204	478.7226	579.9269	623.7615	655.2258	665.4259	720.9822	756.4216	797.6961	850.7279	894.3231	943.09	971.984	986.0773	1000.8711	1044.2105	1059.0288	1079.8489	1097.8858	1132.0984	1153.3272	1165.7105	1204.4239	1261.653	1315.612	1336.588	1352.7327	1372.2527	1391.1782	1416.5401	1481.4848	1493.8597	1497.6038	2227.9218	3023.397	3039.7103	3044.3155	3103.1293	3125.2968	3135.9483	3169.7802	3187.8944	3227.3978	3499.9405
CC1C2CC2OC1C#C	C[C@H]1[C@H]2C[C@H]2O[C@H]1C#C	
InChI=1S/C8H10O/c1-3-7-5(2)6-4-8(6)9-7/h1,5-8H,4H2,2H3	InChI=1S/C8H10O/c1-3-7-5(2)6-4-8(6)9-7/h1,5-8H,4H2,2H3/t5-,6+,7-,8+/m0/s1
