21
gdb 57307	3.0829	0.95382	0.87723	2.7896	85.	-0.2423	-0.0144	0.2279	1440.3684	0.177513	-387.082225	-387.071245	-387.070301	-387.118545	40.179	
C	-0.0186451275	 1.546821215	 0.1236003996	-0.399557
C	-0.0143310606	 0.0149934349	 0.0020782381	 0.15398
C	 0.6314763252	-0.6093175442	 1.254997383	-0.420499
C	-1.46869778	-0.4939282124	-0.1446494622	-0.411323
C	 0.7416298707	-0.3814605988	-1.2839694395	 0.375901
O	 0.9576891548	 0.4101902701	-2.1662629889	-0.291759
C	 1.2058483874	-1.8502269343	-1.4028977036	-0.505193
C	 1.5969762584	-2.2416782815	-2.7459073306	 0.323111
C	 1.9149305672	-2.5805333493	-3.8529170559	-0.413194
H	 0.9974510993	 1.9361535197	 0.2368019331	 0.117503
H	-0.4490812153	 2.0093363187	-0.7663257844	 0.13379
H	-0.6022361452	 1.8519295495	 0.9980516321	 0.104307
H	 0.0950032414	-0.2759826724	 2.1492271324	 0.119453
H	 0.5969988664	-1.7026214046	 1.2446146574	 0.117904
H	 1.6766794423	-0.3006372308	 1.3638223791	 0.121637
H	-1.9471072607	-0.0656327808	-1.0305042356	 0.133089
H	-1.521611757	-1.5844828408	-0.2217582951	 0.115792
H	-2.0527771582	-0.1968488437	 0.7326584073	 0.12221
H	 2.051695954	-1.972509497	-0.711883501	 0.15883
H	 0.4243649845	-2.5164785471	-1.0192828786	 0.147469
H	 2.1974157531	-2.86968301	-4.8346177468	 0.19655
32.4179	63.3295	126.6645	193.5097	220.9325	239.8695	259.0054	283.2142	322.0903	332.6803	352.9397	368.2409	397.9076	461.4271	567.4716	591.7844	625.712	641.4252	780.7467	836.829	918.9947	940.9759	946.5054	951.7686	964.1404	1031.8964	1042.7	1074.9514	1205.3268	1231.8946	1245.0323	1269.4538	1329.2056	1397.4882	1400.5579	1431.7262	1439.5771	1477.9444	1483.2013	1486.2146	1500.6268	1507.4824	1518.7602	1814.3476	2249.3848	3019.9382	3031.2068	3033.8728	3043.8837	3058.8672	3098.9681	3100.2007	3108.3119	3109.9137	3112.	3135.6709	3507.9967
CC(C)(C)C(=O)CC#C	CC(C)(C)C(=O)CC#C	
InChI=1S/C8H12O/c1-5-6-7(9)8(2,3)4/h1H,6H2,2-4H3	InChI=1S/C8H12O/c1-5-6-7(9)8(2,3)4/h1H,6H2,2-4H3
