18
gdb 13251	7.18396	0.83114	0.79361	3.6246	69.73	-0.2469	-0.0177	0.2291	1412.673	0.15252	-384.931555	-384.922988	-384.922044	-384.966235	29.361	
O	-0.2480373314	 0.1143391547	 0.0998644541	-0.238593
C	-0.0363894872	 1.2966519879	 0.0168954319	 0.156702
C	 1.326145724	 1.9304643678	-0.1244030033	-0.270434
C	 1.4168099433	 2.8270895688	-1.3717473376	-0.218185
C	 2.7128958718	 3.6206661922	-1.4013903264	 0.165567
C	 2.8180947762	 4.8060162987	-2.3873855366	-0.302254
C	 3.0298759147	 5.6562386396	-1.1191725955	-0.057865
O	 2.831313757	 4.510112516	-0.2631983104	-0.293292
H	-0.8782807546	 2.0299180483	 0.0354971649	 0.068523
H	 1.4975685821	 2.5644963964	 0.7565846855	 0.142717
H	 2.0831486328	 1.1408885122	-0.1362045424	 0.118686
H	 1.3483943236	 2.2201505086	-2.2836729535	 0.111231
H	 0.5733798064	 3.5295245812	-1.3850415348	 0.102398
H	 3.5713866263	 2.9344799698	-1.4403135877	 0.077091
H	 3.6521799825	 4.7730290078	-3.0892122852	 0.114323
H	 1.8961922174	 5.016655333	-2.9337416709	 0.111397
H	 4.0357642066	 6.0785547956	-1.0038496895	 0.105251
H	 2.2920862486	 6.4437604115	-0.9273682924	 0.106738
53.2895	61.0955	94.12	121.4987	154.2284	305.0677	359.6794	463.1017	526.2494	735.4283	769.7954	811.0181	848.3171	889.1744	939.665	980.2091	998.9139	1028.1891	1035.0249	1094.0316	1107.1628	1154.1744	1170.9494	1204.5868	1221.0929	1252.4223	1262.5153	1286.864	1313.7846	1350.8488	1371.2943	1404.0369	1431.9665	1462.8185	1482.1588	1491.3892	1533.0525	1836.4092	2844.8681	2994.9476	3018.111	3019.76	3027.3534	3059.9779	3062.7415	3078.1296	3102.0488	3134.98
O=CCCC1CCO1	O=CCC[C@H]1CCO1	
InChI=1S/C6H10O2/c7-4-1-2-6-3-5-8-6/h4,6H,1-3,5H2	InChI=1S/C6H10O2/c7-4-1-2-6-3-5-8-6/h4,6H,1-3,5H2/t6-/m0/s1
