17
gdb 20138	5.38914	1.39778	1.27159	1.5337	68.16	-0.2333	0.0709	0.3043	982.3796	0.143202	-363.781924	-363.77497	-363.774026	-363.813464	26.686	
C	 0.0250536984	 1.512608616	 0.0120717566	-0.236687
N	 1.2446728359	 0.6928072707	 0.0889215205	-0.318633
C	-0.0673361894	 0.0325854017	-0.0489287762	-0.027622
C	-0.4941920983	-0.7663797155	 1.1469296815	 0.15703
O	-1.9417123169	-0.940333314	 1.2548073208	-0.31087
C	-1.7692024311	-2.35005194	 1.4269619463	 0.113192
C	-1.1967256748	-2.9678320706	 0.1939239343	-0.30056
C	-0.2803251516	-2.2810566244	 1.1911444708	-0.154122
H	-0.2340935215	 2.0309506463	 0.9311844354	 0.123845
H	-0.1782818137	 2.0729707345	-0.8963461092	 0.113987
H	 1.7250853774	 0.6962347088	-0.8064188977	 0.23472
H	-0.3177908345	-0.4027089216	-1.0136071296	 0.08398
H	-0.11323374	-0.2831633487	 2.0548041821	 0.08719
H	-2.3770679122	-2.8499967269	 2.1716534804	 0.102861
H	-1.1219625569	-4.051025853	 0.2012871951	 0.114479
H	-1.4160160354	-2.5308581919	-0.7761080233	 0.1141
H	 0.5408124047	-2.7846669613	 1.6816850522	 0.103111
70.4065	156.2648	186.9166	315.0512	421.128	453.5958	516.8707	735.3211	772.4023	804.6457	871.9758	878.7051	895.5169	933.9725	952.9484	972.5331	994.0803	999.3048	1037.0296	1041.1377	1050.9264	1083.1104	1084.1266	1118.484	1145.6999	1197.3752	1235.5352	1247.0465	1253.1377	1285.8814	1291.4789	1331.648	1359.3194	1465.0392	1475.8328	1515.3909	3035.9874	3110.6201	3117.5933	3136.0427	3182.9993	3195.8207	3204.2411	3213.9377	3511.3288
C1NC1C1OC2CC12	C1N[C@H]1[C@H]1O[C@H]2C[C@@H]12	
InChI=1S/C6H9NO/c1-3-5(1)8-6(3)4-2-7-4/h3-7H,1-2H2	InChI=1S/C6H9NO/c1-3-5(1)8-6(3)4-2-7-4/h3-7H,1-2H2/t3-,4-,5+,6+/m1/s1
