19
gdb 61550	3.35868	0.86882	0.75336	2.9163	72.88	-0.2648	-0.0294	0.2354	1513.3515	0.156156	-460.158728	-460.14887	-460.147926	-460.194596	34.925	
C	-0.2066057307	 1.4268926636	-0.0342312837	-0.482305
C	 0.1050627108	-0.0511251244	-0.0171990033	 0.362132
O	 0.4677346253	-0.6276562092	 0.9873830703	-0.318467
C	-0.0412439922	-0.8528104163	-1.3123458182	 0.04376
O	 0.3471074419	-2.1822432011	-1.0928577044	-0.442138
C	-1.4822190158	-0.7997668965	-1.863544986	-0.252754
C	-1.5856976147	-1.5559546682	-3.1658486133	 0.102518
C	-2.4935270589	-1.135182389	-4.2382729792	-0.182209
O	-1.0917730636	-0.8704224329	-4.322823895	-0.240801
H	 0.1358155087	 1.8993140759	-0.9593431406	 0.14534
H	-1.2919377705	 1.5712040117	 0.0225540928	 0.156053
H	 0.2509181589	 1.908285461	 0.8310919417	 0.151762
H	 0.6196132883	-0.3850268832	-2.0622325123	 0.106358
H	 0.5732925724	-2.2245325712	-0.1485112199	 0.292703
H	-2.156734175	-1.2471415675	-1.1228674868	 0.111626
H	-1.7896592661	 0.2379899272	-2.0302622762	 0.102385
H	-1.2948099113	-2.6038045891	-3.1123222914	 0.117428
H	-2.875476676	-1.869300657	-4.9462423595	 0.11734
H	-3.1267193515	-0.2598986738	-4.094227385	 0.10927
61.0719	63.3265	94.3603	126.6939	138.032	224.6456	313.2847	339.1963	409.7571	434.9892	465.5767	496.9297	585.9231	635.4912	788.3849	817.0332	855.143	912.5502	956.1545	975.1172	987.8195	1050.4455	1096.2483	1113.6629	1150.5241	1159.4717	1174.4707	1208.9101	1246.7239	1265.8943	1292.9023	1315.1221	1366.3123	1387.603	1434.0282	1446.5676	1457.5379	1466.2114	1477.4418	1530.2287	1793.3196	2966.6848	3031.5577	3042.1972	3079.9629	3086.8043	3107.451	3134.3339	3153.0377	3166.5034	3660.8578
CC(=O)C(O)CC1CO1	CC(=O)[C@@H](O)C[C@H]1CO1	
InChI=1S/C6H10O3/c1-4(7)6(8)2-5-3-9-5/h5-6,8H,2-3H2,1H3	InChI=1S/C6H10O3/c1-4(7)6(8)2-5-3-9-5/h5-6,8H,2-3H2,1H3/t5-,6-/m0/s1
