20
gdb 86674	2.23176	1.42155	1.08686	2.7549	79.85	-0.2466	-0.0216	0.225	1196.8935	0.169745	-403.12291	-403.113767	-403.112823	-403.157406	33.814	
C	-0.5211385588	 1.0789064622	-1.2571065473	-0.412325
C	 0.2454314932	-0.1507334641	-0.7932799837	-0.045128
C	 1.7511267768	-0.2830203379	-1.1739277153	-0.260672
C	 2.0772693184	-0.7557573589	 0.2643391663	-0.142463
C	 3.2369068342	-0.1169776243	 0.9770430803	 0.131279
O	 3.9202564815	 0.7669331786	 0.5224325073	-0.245678
C	 0.6633792304	-0.2724286604	 0.6837487287	 0.32505
C	 0.2853928579	 0.6290655068	 1.7963690004	-0.301783
N	-0.0904488135	-0.8006846678	 1.8060777035	-0.364552
H	 0.0096048308	 1.9981691536	-0.9891025661	 0.124172
H	-0.648419583	 1.0690621705	-2.3448779599	 0.12152
H	-1.522075959	 1.1236719488	-0.8119215639	 0.111086
H	-0.294692452	-1.059745869	-1.087968556	 0.076844
H	 1.9969495899	-0.9710102751	-1.9841119385	 0.104329
H	 2.2196194953	 0.6843108068	-1.3709262171	 0.126952
H	 2.1421580455	-1.8442027356	 0.3743766926	 0.096486
H	 3.4197062051	-0.5055668084	 2.0048548731	 0.082992
H	 1.0107439282	 0.9168656989	 2.5526661685	 0.123794
H	-0.4846532618	 1.3726212784	 1.6077011405	 0.116592
H	-1.0706051593	-0.9129871431	 1.5549194767	 0.231505
48.23	70.0033	195.7517	206.8883	221.7171	231.6888	278.6469	353.5788	425.4548	475.5206	527.486	641.2307	717.5026	807.0771	840.8824	870.7076	915.7212	921.6684	943.0019	962.594	981.7627	1013.0698	1065.3349	1074.8307	1116.0148	1132.0089	1136.9982	1167.5774	1207.866	1231.2183	1256.2563	1278.0619	1290.0951	1342.8886	1376.2792	1391.8448	1410.0265	1421.6526	1490.8324	1494.4027	1495.3393	1512.9506	1819.5105	2871.381	3019.6386	3025.6953	3051.0391	3074.9684	3088.7011	3103.4476	3106.059	3132.1303	3189.1121	3484.9016
CC1CC(C=O)C11CN1	C[C@H]1C[C@@H](C=O)[C@]21CN2	
InChI=1S/C7H11NO/c1-5-2-6(3-9)7(5)4-8-7/h3,5-6,8H,2,4H2,1H3	InChI=1S/C7H11NO/c1-5-2-6(3-9)7(5)4-8-7/h3,5-6,8H,2,4H2,1H3/t5-,6-,7+/m0/s1
