15
gdb 73949	3.27542	1.25029	0.91001	1.5516	74.51	-0.2307	-0.0594	0.1713	1186.1353	0.113282	-454.017798	-454.009184	-454.00824	-454.051311	30.813	
N	 0.1140615289	 1.3616407344	 0.0065077166	-0.600511
C	-0.0495277063	 0.0311634836	 0.0005158824	 0.172902
C	-1.1244223084	-0.8095875238	 0.0024720661	 0.114891
C	-0.6323093659	-2.2404889105	-0.0078149024	-0.255456
N	 0.8121116607	-2.0798749263	-0.0155361482	-0.360687
C	 1.2183604104	-0.7828300269	-0.0109989337	 0.430772
O	 2.3457774794	-0.3264810225	-0.0155979408	-0.39982
C	-2.5275494952	-0.4880748149	 0.0123064129	 0.065599
O	-3.422848662	-1.3144037318	 0.013319048	-0.300812
H	 1.0667746964	 1.6955937308	 0.0022646322	 0.280722
H	-0.6460341068	 2.0162375321	 0.0136910043	 0.273842
H	-0.9724458409	-2.7965881633	 0.8748069388	 0.137559
H	-0.982899253	-2.7874496401	-0.8920553497	 0.137563
H	 1.468841358	-2.8422210659	-0.0234328419	 0.263759
H	-2.7655631751	 0.6014884853	 0.0193895954	 0.039677
82.4011	126.342	166.427	186.2411	204.5629	281.7154	330.0906	414.3884	457.1883	523.9793	560.4007	600.7709	667.9609	724.4403	798.5298	800.0057	898.4177	998.206	1041.6662	1057.0223	1177.4255	1178.1772	1215.7298	1258.8448	1343.4631	1413.7951	1433.6123	1469.7508	1510.6845	1605.1041	1712.4004	1754.4691	1822.4919	2844.1055	3024.5681	3051.1183	3583.7943	3666.1171	3738.778
NC1=C(CNC1=O)C=O	NC1=C(CNC1=O)C=O	
InChI=1S/C5H6N2O2/c6-4-3(2-8)1-7-5(4)9/h2H,1,6H2,(H,7,9)	InChI=1S/C5H6N2O2/c6-4-3(2-8)1-7-5(4)9/h2H,1,6H2,(H,7,9)
