14
gdb 12059	4.55055	1.61886	1.50379	2.9867	58.3	-0.2579	-0.0471	0.2108	839.5593	0.105343	-419.636223	-419.629225	-419.628281	-419.667422	26.35	
O	-0.0736974256	 1.4534524875	-0.0418175635	-0.472142
C	-0.0498900502	 0.0722120705	 0.0233606852	 0.325279
C	 0.2451370476	-0.615515216	 1.4320139522	-0.333121
C	-1.0894498992	-1.348922259	 1.2952314268	 0.04034
O	-2.0957478104	-0.3389524639	 1.2247290182	-0.229113
C	-1.4104778734	-0.6754639918	 0.0226510586	-0.038248
C	 0.8834810863	-0.4965425971	-1.018925553	 0.106374
O	 1.5047303434	 0.2162140521	-1.7705126982	-0.276051
H	 0.5483667388	 1.6980731923	-0.7467422784	 0.293442
H	 1.1315381347	-1.2550868285	 1.4361976076	 0.114167
H	 0.2896351512	 0.1016686981	 2.2525193376	 0.138763
H	-1.3777009406	-2.3277924965	 1.6567239038	 0.114563
H	-2.0152108413	-0.9753925587	-0.8259466452	 0.113607
H	 0.9738889589	-1.600841229	-1.0525548417	 0.102139
111.3188	138.2087	287.7388	307.4296	384.9882	416.4648	438.9618	507.9497	598.6821	782.0644	826.3575	837.4124	860.693	877.1067	900.2819	957.5972	1001.4077	1040.8346	1074.6334	1081.2386	1127.9964	1214.2737	1231.7621	1260.1394	1299.5976	1372.135	1387.3365	1438.091	1461.2423	1807.1885	2935.5783	3070.3287	3141.3856	3179.4261	3207.1624	3675.0607
OC1(CC2OC12)C=O	O[C@]1(C[C@H]2O[C@@H]12)C=O	
InChI=1S/C5H6O3/c6-2-5(7)1-3-4(5)8-3/h2-4,7H,1H2	InChI=1S/C5H6O3/c6-2-5(7)1-3-4(5)8-3/h2-4,7H,1H2/t3-,4-,5-/m1/s1
