16
gdb 33740	3.32265	1.55092	1.31302	5.0346	73.3	-0.2385	0.0077	0.2462	967.615	0.127295	-396.85803	-396.851433	-396.850489	-396.888901	27.035	
N	 0.0471349765	-1.1356466376	-0.0292735831	-0.337713
C	 0.0418314081	 0.020408872	-0.0242053997	 0.152137
C	 0.0142294509	 1.4653381048	 0.0114714516	 0.234015
C	-0.3194411674	 2.2758682868	 1.3153261483	-0.258063
C	 0.4822032647	 3.3395371927	 0.4994749497	-0.048828
N	 1.3180628135	 2.2266178332	-0.0881767653	-0.31818
C	-0.513119161	 3.6162950692	-0.6501242297	-0.028528
N	-0.102396182	 3.0641637285	-1.9581838246	-0.30193
C	-0.8672859295	 2.2287439668	-1.018898258	-0.085982
H	-1.3721654043	 2.460826061	 1.554329478	 0.10594
H	 0.220870437	 1.9012661519	 2.1881154479	 0.116187
H	 1.0060973834	 4.1743083969	 0.9608713102	 0.088987
H	 1.9101343919	 1.8761277886	 0.6663367824	 0.228361
H	-1.2307886947	 4.4240818935	-0.5779984485	 0.104338
H	-0.7484549374	 3.4078425383	-2.6675177063	 0.236939
H	-1.8641589098	 1.8724039833	-1.2443930629	 0.112322
145.0472	168.5749	374.7543	389.1644	506.4155	518.9763	529.8692	552.4267	647.4627	688.6504	793.4287	810.1123	860.5554	871.6137	906.6024	925.0577	946.1181	953.8335	960.3018	1022.1333	1059.3968	1085.5412	1101.3584	1135.3597	1171.6761	1206.4207	1213.4447	1224.4031	1241.228	1292.6374	1316.1601	1369.7088	1398.5918	1497.5833	2355.7803	3043.3743	3120.4449	3142.2544	3190.7085	3202.2939	3452.0035	3484.381
N#CC12CC(N1)C1NC21	N#C[C@@]12C[C@@H](N1)[C@H]1N[C@@H]21	
InChI=1S/C6H7N3/c7-2-6-1-3(9-6)4-5(6)8-4/h3-5,8-9H,1H2	InChI=1S/C6H7N3/c7-2-6-1-3(9-6)4-5(6)8-4/h3-5,8-9H,1H2/t3-,4-,5-,6-/m1/s1
