18
gdb 80309	3.57355	1.14385	1.0987	1.2896	88.13	-0.2137	-0.0271	0.1865	1178.5079	0.147419	-364.76597	-364.757764	-364.75682	-364.798469	32.088	
C	-0.1908872374	 1.535912362	 0.0670682469	-0.426638
C	 0.0212660167	 0.044584013	-0.0246556271	 0.021613
C	 0.5950677423	-0.6720399236	-1.2147692508	-0.093029
C	 1.361481132	 0.1212627686	-2.2020578648	-0.188907
C	 2.4425581924	 0.6772845254	-1.6281447343	 0.173847
C	 2.509703076	 0.2558020516	-0.1617410153	-0.274526
N	 1.3364555457	-0.6091108121	 0.0749733881	-0.123317
C	 3.3959214839	 1.5371170531	-2.2164903362	 0.214076
C	 4.2445606566	 2.266900485	-2.6646205924	-0.422539
H	 0.4468863489	 2.1012691718	-0.6146731504	 0.132905
H	-1.2330056524	 1.7748156194	-0.1686101421	 0.123279
H	 0.0028812367	 1.8855306344	 1.0878303868	 0.125743
H	-0.7247155961	-0.5240397277	 0.5301806401	 0.093867
H	 0.1802501152	-1.632138667	-1.5136841939	 0.095416
H	 1.0769495491	 0.2298245999	-3.240587145	 0.108862
H	 3.4249807261	-0.3114707769	 0.0450591038	 0.123361
H	 2.5086655278	 1.1193699388	 0.5147195193	 0.121496
H	 4.9833944665	 2.9086910242	-3.0763514827	 0.19449
97.6297	154.7402	189.9894	239.0599	258.5604	358.2699	470.1738	508.1045	521.5082	541.6389	592.1096	607.9929	639.3245	718.8311	756.643	765.2436	882.0436	899.0057	905.7904	975.9089	1008.1854	1025.7903	1064.1924	1082.8509	1137.4346	1164.267	1187.6736	1210.858	1272.3111	1292.7049	1327.3297	1363.3422	1401.4014	1422.1196	1487.1103	1497.4818	1502.8804	1657.0922	2218.564	3026.337	3035.8519	3057.1113	3092.8442	3101.9517	3129.8844	3135.3442	3221.0928	3502.968
CC1C2C=C(CN12)C#C	C[C@H]1[C@H]2C=C(CN12)C#C	
InChI=1S/C8H9N/c1-3-7-4-8-6(2)9(8)5-7/h1,4,6,8H,5H2,2H3	InChI=1S/C8H9N/c1-3-7-4-8-6(2)9(8)5-7/h1,4,6,8H,5H2,2H3/t6-,8+,9?/m0/s1
