23
gdb 122366	4.88301	0.71687	0.70286	0.8652	88.25	-0.2483	0.0907	0.339	1744.8615	0.206017	-388.230335	-388.221132	-388.220188	-388.265527	34.326	
C	-0.1350392709	 1.501793938	 0.1423699709	-0.384
C	-0.0208715305	-0.0092066511	 0.2562049128	-0.020852
O	-1.3082230168	-0.5707933818	 0.1162452428	-0.24591
C	-1.3174652656	-1.982457084	 0.2080679047	-0.119426
C	-2.7582546703	-2.4405118733	 0.1055146646	 0.057227
C	-3.5231355053	-2.4643565989	-1.2580009648	-0.035641
C	-2.7226546868	-3.7434167669	-1.6428126085	-0.225174
C	-3.1324911034	-3.9352427643	-0.1516841392	-0.063392
C	-4.5416832983	-3.4163014081	-0.5647354858	-0.217922
H	 0.8488413328	 1.9688773757	 0.2473341929	 0.112529
H	-0.5514573841	 1.7825201507	-0.8292597635	 0.125563
H	-0.7924018068	 1.8961894738	 0.9224960053	 0.125585
H	 0.6555704739	-0.4051948687	-0.5211803533	 0.082026
H	 0.4146031542	-0.2919477243	 1.2304538062	 0.082127
H	-0.6757031877	-2.4165689074	-0.5736978031	 0.084803
H	-0.8971474668	-2.303304457	 1.1781592607	 0.08062
H	-3.3288345412	-1.9724101473	 0.9156224874	 0.06778
H	-3.7488378474	-1.608526631	-1.8946862206	 0.073151
H	-3.2044498408	-4.4122157062	-2.3615384649	 0.088094
H	-1.6620435801	-3.6341527057	-1.8728835538	 0.091792
H	-2.9092488117	-4.7890765647	 0.4909751418	 0.065758
H	-5.158888149	-2.9846610213	 0.2281867778	 0.088291
H	-5.1254489573	-4.0675775863	-1.2206533704	 0.086971
42.5464	75.3783	101.7197	124.9455	245.1945	261.4279	312.7448	361.6988	471.9998	566.2127	605.9127	766.2035	792.7483	820.6655	833.3658	874.1865	900.6751	904.6427	927.9951	1000.3558	1007.9988	1030.2378	1032.1945	1046.7066	1092.8002	1111.9468	1122.6685	1139.5832	1145.1316	1158.2452	1177.3965	1189.5879	1192.0036	1215.0483	1242.5196	1246.4332	1262.4992	1278.977	1295.4464	1370.0571	1400.4741	1420.9266	1458.2822	1483.3822	1498.8709	1501.6207	1513.7427	1534.3392	1545.8023	2939.9365	2951.1603	2969.064	2992.5849	3043.4096	3043.7166	3048.3563	3059.6893	3091.4426	3109.6963	3113.5495	3117.8653	3120.1427	3124.9891
CCOCC1C2CC1C2	CCOC[C@H]1[C@H]2C[C@@H]1C2	
InChI=1S/C8H14O/c1-2-9-5-8-6-3-7(8)4-6/h6-8H,2-5H2,1H3	InChI=1S/C8H14O/c1-2-9-5-8-6-3-7(8)4-6/h6-8H,2-5H2,1H3/t6-,7+,8-
