16
gdb 22874	2.29975	1.67295	1.02428	3.3936	76.85	-0.2321	-0.0711	0.161	1128.4851	0.123737	-437.873783	-437.865466	-437.864521	-437.906803	31.003	
C	-0.071115135	 1.5705633462	 0.0529188588	-0.390663
C	 0.0209838885	 0.0349889246	 0.045046833	-0.125321
C	 0.7963770477	-0.5151462187	-1.1292416975	-0.067912
C	 1.8369447253	-1.27948554	-0.7751578607	-0.173027
C	 1.9357135527	-1.3845301852	 0.7009085397	 0.313075
O	 2.7536150862	-2.0042152547	 1.3415245568	-0.3215
C	 0.7855885149	-0.5458292109	 1.2214923802	 0.271743
N	 0.4172289026	-0.285921559	 2.4164900119	-0.212167
O	 1.2001247263	-0.8719279381	 3.3895349432	-0.344425
H	 0.926273122	 2.0204021885	 0.0582737001	 0.125844
H	-0.6065598388	 1.9316246489	-0.8309653586	 0.11616
H	-0.6044494754	 1.908096799	 0.9445330163	 0.140423
H	-1.0017696979	-0.3674324945	 0.028760099	 0.112744
H	 0.5083719121	-0.2808206634	-2.1489342489	 0.118212
H	 2.5363554087	-1.7788439998	-1.4330951935	 0.122901
H	 0.7800636201	-0.5671336332	 4.2025090903	 0.313911
66.1005	179.1673	207.2654	223.9915	247.0201	306.726	334.7236	434.7653	499.227	506.8757	546.3651	668.7264	718.3367	738.6067	749.0077	864.1379	894.2859	994.7163	1001.0185	1034.9134	1079.7597	1087.859	1102.7309	1147.168	1226.244	1292.8795	1316.023	1363.8776	1403.5419	1424.9164	1493.6273	1499.8548	1643.218	1710.2726	1803.7265	3009.1382	3040.3208	3111.099	3129.5953	3187.3256	3227.9348	3797.0763
CC1C=CC(=O)C1=NO	C[C@H]1C=CC(=O)C1=NO	
InChI=1S/C6H7NO2/c1-4-2-3-5(8)6(4)7-9/h2-4,9H,1H3	InChI=1S/C6H7NO2/c1-4-2-3-5(8)6(4)7-9/h2-4,9H,1H3/t4-/m0/s1
