16
gdb 81877	3.11272	1.31431	1.01797	2.832	72.32	-0.2498	-0.0529	0.1969	1149.3203	0.122666	-437.867668	-437.859187	-437.858243	-437.900954	30.651	
C	 0.0054804963	 1.6512731616	-0.0875117617	-0.415125
C	 0.0429108815	 0.132709532	 0.0198041102	-0.108639
C	 0.6429758677	-0.6881165355	-1.1411456801	-0.097124
N	 2.01819193	-0.2954587951	-1.2895907154	-0.344806
C	 1.7104486971	-1.3123830605	-0.2241652069	 0.105212
C	 2.2694887376	-2.6675824245	-0.3441075945	 0.050611
O	 2.7319693448	-3.0947898331	-1.3799420753	-0.279832
C	 1.1054398123	-0.5495602668	 0.933833236	 0.369159
O	 1.2581001099	-0.6012206079	 2.1188546648	-0.30317
H	 0.9630900675	 2.0341209728	-0.4470724174	 0.14824
H	-0.781179571	 1.9783640633	-0.7746744484	 0.122259
H	-0.198463295	 2.0903697695	 0.8934717051	 0.138069
H	-0.9340286364	-0.2696634554	 0.3142922368	 0.112228
H	 0.1072701946	-1.2314444316	-1.9102058738	 0.130947
H	 2.4380494751	-0.850194916	-2.0412008138	 0.262752
H	 2.224903718	-3.282829163	 0.5754867645	 0.109219
96.4839	134.5307	152.547	200.3114	204.9834	272.4784	298.8883	359.4623	531.3745	576.2718	632.5739	721.333	749.8817	777.5241	843.6728	879.4987	922.9748	977.54	1023.4006	1046.7307	1073.9177	1104.4622	1137.1763	1154.6655	1222.046	1277.2435	1317.1472	1361.9074	1378.3207	1405.7045	1432.5082	1491.6442	1502.5318	1776.4055	1888.8068	2948.0443	3043.4087	3048.9533	3110.5128	3134.623	3199.854	3431.6342
CC1C2NC2(C=O)C1=O	C[C@H]1[C@H]2N[C@@]2(C=O)C1=O	
InChI=1S/C6H7NO2/c1-3-4-6(2-8,7-4)5(3)9/h2-4,7H,1H3	InChI=1S/C6H7NO2/c1-3-4-6(2-8,7-4)5(3)9/h2-4,7H,1H3/t3-,4+,6+/m0/s1
