18
gdb 63331	2.54474	1.48732	1.17824	0.9322	75.13	-0.2352	0.0008	0.236	1104.8476	0.148007	-435.338977	-435.330038	-435.329094	-435.372233	33.996	
C	-0.1054608413	 1.5787453052	 0.0564822476	-0.405403
C	 0.0146107605	 0.0517205482	-0.0213289702	 0.123532
C	-1.3723939284	-0.6134871326	-0.0742526358	-0.416841
N	 0.8883924324	-0.3800282482	-1.111302607	-0.333376
C	 1.8681033964	-1.2592824883	-0.7007542391	 0.426493
N	 2.6238066933	-1.9209559384	-1.4797757381	-0.575388
N	 1.8244821054	-1.2297995108	 0.7054361541	-0.38436
C	 0.7820064376	-0.4823719754	 1.2051177581	 0.429073
O	 0.5151474059	-0.2930270679	 2.366582905	-0.376295
H	 0.8832367578	 2.0443575286	 0.0519084107	 0.128788
H	-0.6698533186	 1.9613333004	-0.7996546902	 0.115545
H	-0.6240986641	 1.8636438378	 0.9754286687	 0.141933
H	-1.9275006996	-0.2614861365	-0.9500637822	 0.119008
H	-1.2850082488	-1.7022069482	-0.1345933902	 0.128738
H	-1.9434915705	-0.3597642414	 0.8225369854	 0.146155
H	 0.5405755205	-0.4894886033	-2.0504731346	 0.25436
H	 3.2841959366	-2.4971413006	-0.9643290214	 0.211713
H	 2.4831231748	-1.7135316888	 1.2944089591	 0.266325
85.7268	135.0809	211.7293	214.8258	239.7229	293.2523	323.3943	380.5297	433.2557	440.9116	534.0723	573.6252	625.1226	641.388	718.8229	750.3812	758.6459	760.9156	929.3651	942.8076	968.8242	1011.9937	1020.7932	1110.3746	1177.7497	1182.5643	1236.1191	1287.7418	1351.0589	1391.3138	1397.9088	1414.7837	1430.7996	1479.9906	1481.9372	1499.7748	1507.4664	1778.0283	1851.7814	3037.2151	3044.3802	3109.7775	3117.7435	3126.4614	3133.8106	3523.7578	3645.4126	3654.6416
CC1(C)NC(=N)NC1=O	CC1(C)N[C]([NH])NC1=O	
InChI=1S/C5H9N3O/c1-5(2)3(9)7-4(6)8-5/h1-2H3,(H3,6,7,8,9)	InChI=1S/C5H9N3O/c1-5(2)3(9)7-4(6)8-5/h1-2H3,(H3,6,7,8,9)
