18
gdb 63767	2.89131	1.40649	1.16391	3.0911	75.81	-0.2657	0.0269	0.2926	1086.6498	0.146838	-401.934848	-401.926316	-401.925372	-401.967521	33.046	
C	-0.2610498056	 1.5759221296	 0.0004969403	-0.477365
C	 0.0156757268	 0.0810155489	 0.003792117	 0.399773
O	-1.1901972279	-0.6511820533	-0.1799618916	-0.474293
C	 1.1621904645	-0.5002275529	-0.9100103408	-0.305217
C	 1.7252810262	-1.2370738403	 0.3125046098	-0.060939
C	 2.1607253397	-0.2478840494	 1.371531903	-0.191893
C	 2.7717290438	 1.017917665	 1.0589311174	 0.304477
N	 3.281347505	 2.024838892	 0.8023243142	-0.357367
C	 0.6894497702	-0.5838931724	 1.2147510507	-0.086858
H	 0.6406053145	 2.1669751436	 0.1701569114	 0.156624
H	-0.6732527675	 1.8768898684	-0.9714212646	 0.108037
H	-0.9976669532	 1.8220275677	 0.77143202	 0.126331
H	-1.6275384957	-0.3018612914	-0.9642945371	 0.278049
H	 0.7420559463	-1.1740519913	-1.6575720677	 0.112386
H	 1.8394430489	 0.2133474134	-1.3876748316	 0.118236
H	 2.1081997977	-2.2495713173	 0.3283533154	 0.103696
H	 2.5975836804	-0.7131768073	 2.2508636782	 0.138487
H	 0.1372645259	-0.997391793	 2.0500558459	 0.107836
121.7622	133.5602	211.1242	236.683	277.5423	287.8193	376.0882	390.6188	418.0513	459.8409	574.3005	634.7879	650.1137	755.1952	783.7611	843.037	852.0444	922.7954	962.5765	969.6962	985.3443	990.7061	1021.4308	1075.125	1116.286	1133.3862	1160.5056	1196.4721	1229.2568	1257.667	1272.5009	1328.0849	1390.4688	1407.8486	1415.7442	1472.887	1490.9736	1499.6034	2346.8016	3025.6602	3063.4278	3094.777	3133.7455	3141.6098	3155.1406	3187.0416	3198.5126	3802.1499
CC1(O)CC2C(C#N)C12	C[C@@]1(O)C[C@H]2[C@@H](C#N)[C@@H]12	
InChI=1S/C7H9NO/c1-7(9)2-4-5(3-8)6(4)7/h4-6,9H,2H2,1H3	InChI=1S/C7H9NO/c1-7(9)2-4-5(3-8)6(4)7/h4-6,9H,2H2,1H3/t4-,5+,6-,7+/m0/s1
