22
gdb 70299	3.42763	1.27178	1.15679	1.4347	85.72	-0.2238	0.0936	0.3174	1180.3296	0.195222	-367.191875	-367.183545	-367.1826	-367.22422	33.821	
C	-0.3595296511	 1.4624420411	 0.3380701017	-0.474487
C	 0.0151405014	 0.0489604255	-0.0313425437	 0.352891
C	-0.5794753688	-1.1166796748	 0.6773976036	-0.295568
N	 0.8191603621	-0.7321557234	 0.9410207934	-0.134971
C	 1.7928532896	-1.5218120072	 0.1670358465	-0.230745
C	 1.346332435	-1.501927601	-1.2984136464	 0.356474
C	 2.2123641622	-2.0429946986	-2.3991809845	-0.34252
C	 0.9476305333	-2.7715295363	-2.0132447129	-0.3013
C	 0.5325301723	-0.2190930688	-1.4427046931	-0.354666
H	 0.469979845	 2.1517430779	 0.1429285846	 0.115644
H	-1.2225340428	 1.8030418104	-0.2456974847	 0.113849
H	-0.6147468956	 1.5313277377	 1.3985625433	 0.125759
H	-1.2544181599	-0.9472963371	 1.512209026	 0.106817
H	-0.7736346134	-2.0274929784	 0.1168630395	 0.115433
H	 2.7699582916	-1.035598443	 0.2808092671	 0.103517
H	 1.8774210453	-2.535344705	 0.5744750662	 0.101433
H	 2.2290899007	-1.5129126034	-3.3461696591	 0.111102
H	 3.1636752989	-2.4900263629	-2.1269069175	 0.111172
H	 1.0437178344	-3.712859135	-1.480452032	 0.109918
H	 0.1068842085	-2.7330602146	-2.6991382086	 0.109337
H	-0.2706178043	-0.3054568109	-2.182150755	 0.1014
H	 1.1717917055	 0.6182640479	-1.7533654745	 0.09951
108.6473	181.5441	203.278	244.8705	303.5459	367.3011	383.9186	393.2978	421.5532	508.4801	598.8049	716.7467	771.5444	784.616	791.3277	867.7704	891.7311	909.8874	923.9099	939.8638	984.6201	986.8045	1002.4761	1026.3128	1056.2255	1078.4292	1087.7037	1104.4779	1114.2258	1175.1964	1189.2481	1194.619	1231.2651	1249.8471	1276.699	1312.408	1334.2075	1372.5302	1393.8945	1418.4026	1466.2291	1484.9773	1490.4059	1493.7729	1494.7158	1506.3528	1512.2036	3014.9965	3021.9624	3027.9385	3066.6137	3068.2327	3086.9252	3105.2569	3116.5362	3117.445	3122.2211	3189.371	3194.3336	3209.7732
CC12CN1CC1(CC1)C2	C[C@]12CN1CC1(CC1)C2	
InChI=1S/C8H13N/c1-7-4-8(2-3-8)6-9(7)5-7/h2-6H2,1H3	InChI=1S/C8H13N/c1-7-4-8(2-3-8)6-9(7)5-7/h2-6H2,1H3/t7-,9?/m0/s1
