22
gdb 109722	1.90527	1.12723	0.84726	1.6954	92.49	-0.2123	0.0429	0.2552	1516.8975	0.191437	-367.164405	-367.153274	-367.152329	-367.202166	38.788	
C	-1.7739684537	-0.2793818174	 0.5810117031	-0.380707
C	-0.340836471	-0.459382036	 0.06581784	-0.206988
C	 0.6049573042	-0.8464375643	 1.1843844768	 0.012482
C	 0.9092785713	-2.2886165211	 1.510059383	-0.21864
C	 0.3553651399	-3.3530910927	 0.7181236574	 0.12223
C	-0.0917840335	-4.2756817383	 0.0826473889	 0.039312
C	-0.6359828098	-5.3902369444	-0.6796590181	-0.499538
N	 1.9455898367	-1.3770736998	 0.9799014792	-0.116619
C	 2.4564080149	-1.5848397503	-0.3686372959	-0.312714
H	-1.81953555	 0.4748189441	 1.374400241	 0.114813
H	-2.4434678484	 0.0418624813	-0.2225064049	 0.11181
H	-2.1609015209	-1.218364427	 0.9890458133	 0.127441
H	-0.3321751331	-1.2172593913	-0.7216584186	 0.111257
H	 0.0095219279	 0.4773002515	-0.3871171719	 0.098688
H	 0.5526198751	-0.1716148138	 2.0408687062	 0.086937
H	 1.0700108192	-2.5507525554	 2.5544856007	 0.104954
H	-0.1919043227	-6.3418799355	-0.3669512713	 0.14986
H	-1.7210340074	-5.4718840933	-0.5499168049	 0.148835
H	-0.4397795755	-5.2707420111	-1.7509329154	 0.149014
H	 1.7461262417	-2.0388212413	-1.0716280493	 0.114492
H	 2.7813892891	-0.620013285	-0.7705576856	 0.11973
H	 3.3323131062	-2.2383290187	-0.3089661836	 0.12335
27.1837	51.0327	97.2977	104.4729	149.3912	184.3478	218.3684	248.3741	274.4372	303.9667	377.6061	405.6956	509.8003	530.646	588.361	701.2477	767.5985	808.4685	845.6251	915.5786	994.9569	1025.8093	1052.65	1053.1869	1063.9811	1090.7003	1140.0782	1153.3221	1163.0631	1195.1482	1208.8352	1286.7316	1332.5412	1340.9328	1373.8268	1408.6656	1414.4141	1425.2412	1453.1716	1476.6403	1479.0097	1479.8161	1488.938	1499.71	1505.9911	1506.8107	2357.7017	3010.7978	3025.4391	3025.7983	3034.1646	3076.0361	3079.0414	3085.092	3087.4867	3090.2258	3103.4096	3108.1595	3111.3795	3112.9212
CCC1C(C#CC)N1C	CC[C@H]1[C@@H](C#CC)N1C	
InChI=1S/C8H13N/c1-4-6-8-7(5-2)9(8)3/h7-8H,5H2,1-3H3	InChI=1S/C8H13N/c1-4-6-8-7(5-2)9(8)3/h7-8H,5H2,1-3H3/t7-,8+,9?/m0/s1
