18
gdb 8403	3.71945	1.75882	1.51599	2.0526	67.71	-0.2431	0.0776	0.3207	900.1436	0.15285	-384.873568	-384.865822	-384.864878	-384.905498	29.926	
C	-0.0536943687	 1.5361693772	 0.0160741366	-0.405684
C	-0.0425051564	 0.0061280606	 0.0487336478	-0.005667
O	 0.5512310289	-0.4936127575	 1.2399488052	-0.433155
C	-1.4284162141	-0.5731673552	-0.0792841387	 0.423823
C	-2.6168166415	-0.2634911626	-1.0283337543	-0.273392
C	-3.113734469	-1.1421822282	 0.1431773988	 0.050367
C	-1.8796409739	-2.0559329762	-0.0143730907	-0.25866
O	-2.3391421453	-0.2906221257	 1.0790868716	-0.36233
H	 0.9539015245	 1.9144261722	 0.2045481615	 0.123886
H	-0.3922487125	 1.9097510157	-0.9558664576	 0.113862
H	-0.7268284165	 1.926916971	 0.7855267665	 0.129944
H	 0.5720393885	-0.3784633192	-0.7748935482	 0.092197
H	-0.1079721072	-0.3849895693	 1.9374288129	 0.290702
H	-2.968968359	 0.7683342651	-1.0160646349	 0.110594
H	-2.5993249968	-0.7006885666	-2.0296732275	 0.097597
H	-4.133296285	-1.3946093421	 0.4324944227	 0.098386
H	-1.7943193129	-2.655148268	-0.9243691672	 0.095397
H	-1.5751081033	-2.593071921	 0.8833607656	 0.112132
74.9892	172.5131	192.654	244.8864	338.483	381.9391	432.2012	482.0942	529.1584	608.2517	650.2393	731.0736	809.524	875.2232	909.9411	917.2385	953.1314	977.7405	986.6692	1027.7563	1080.292	1089.7515	1102.8642	1116.831	1136.7352	1161.9601	1211.0031	1235.2225	1245.3137	1271.8187	1315.5983	1369.1607	1398.749	1431.8197	1469.9428	1488.9403	1497.9397	1515.0511	3037.6952	3039.4366	3062.7701	3071.5716	3111.1901	3125.4112	3127.7647	3149.9815	3157.3426	3775.4419
CC(O)C12CC(C1)O2	C[C@@H](O)[C@@]12C[C@@H](C1)O2	
InChI=1S/C6H10O2/c1-4(7)6-2-5(3-6)8-6/h4-5,7H,2-3H2,1H3	InChI=1S/C6H10O2/c1-4(7)6-2-5(3-6)8-6/h4-5,7H,2-3H2,1H3/t4-,5-,6+/m1/s1
