20
gdb 15258	3.34718	1.19042	1.04408	1.9483	70.94	-0.2622	0.0543	0.3164	1189.5189	0.175857	-386.112831	-386.103178	-386.102234	-386.14745	34.578	
C	-0.2526224878	 0.9696496954	-1.8735898247	-0.421769
C	 0.0206796447	-0.1867695972	-0.9307232562	-0.031418
C	 1.4056700673	-0.5144659275	-0.4004844853	-0.073214
C	 2.6387233385	 0.2757158063	-0.7803825342	-0.077118
O	 3.2439121842	-0.2237160327	-1.9662613552	-0.420024
C	 0.3371024398	 0.0020343974	 0.5426929296	-0.073199
C	 0.391246232	 1.3620601404	 1.2034069126	-0.077135
O	-0.8848759116	 1.7718965202	 1.6783184602	-0.420016
H	 0.3595344941	 1.8497540492	-1.6623891013	 0.125621
H	-0.0619470395	 0.6813598317	-2.9140497835	 0.11698
H	-1.302341621	 1.2812751815	-1.818742632	 0.116974
H	-0.5929393882	-1.0573045428	-1.149229433	 0.088527
H	 1.6269954973	-1.5751289067	-0.3092873518	 0.09345
H	 2.4201096618	 1.348874898	-0.8720652142	 0.084168
H	 3.4022554337	 0.1738447585	-0.0014854184	 0.114181
H	 2.5774054546	-0.2006557392	-2.6604597612	 0.281092
H	-0.0909581003	-0.744739439	 1.2070722159	 0.093451
H	 1.0304375392	 1.3204004593	 2.0920799754	 0.114185
H	 0.8247255293	 2.1199786546	 0.5359355381	 0.084171
H	-1.486915298	 1.7641098924	 0.9272106489	 0.281092
68.2471	86.3409	116.5312	161.4663	217.1159	262.4073	267.8537	301.7224	320.1849	354.9139	476.1793	544.2455	574.2809	771.829	777.3533	847.7458	922.3091	986.2853	994.9495	1011.5654	1058.9173	1060.9021	1071.1107	1113.1703	1153.3022	1157.2019	1170.1243	1225.5266	1236.1572	1263.9954	1341.5138	1346.4528	1387.0693	1393.1695	1420.6417	1426.1614	1427.0393	1460.1684	1491.5515	1503.649	1512.6271	1518.6817	2993.9437	3010.9876	3027.2827	3063.583	3068.1349	3075.6162	3111.0207	3130.3042	3130.625	3147.1506	3815.33	3815.7028
CC1C(CO)C1CO	C[C@H]1[C@@H](CO)[C@H]1CO	
InChI=1S/C6H12O2/c1-4-5(2-7)6(4)3-8/h4-8H,2-3H2,1H3	InChI=1S/C6H12O2/c1-4-5(2-7)6(4)3-8/h4-8H,2-3H2,1H3/t4-,5+,6-
