22
gdb 99986	2.6644	1.09446	0.95548	3.3636	82.03	-0.294	0.0131	0.3071	1346.7668	0.191136	-404.368909	-404.357858	-404.356914	-404.404608	40.534	
C	 0.1612288104	 1.5594345024	 0.0400963416	-0.410265
C	-0.0277249463	 0.0397924893	-0.0155036429	-0.191705
C	-1.4911580166	-0.4702666072	 0.0270540573	 0.242541
C	-2.2271010081	 0.0312629483	 1.2826875045	-0.448438
C	-2.2582093017	-0.0470556662	-1.2378917718	-0.433896
C	-1.4081620315	-2.0306034733	 0.0577889647	-0.020026
O	-0.69920576	-2.5496508139	 1.1696115141	-0.419987
C	-2.7449728788	-2.6581818294	-0.0238254386	 0.263914
N	-3.7927291502	-3.1459572047	-0.0471568722	-0.333984
H	 1.2258651585	 1.8044287222	-0.0233189181	 0.12001
H	-0.3395833185	 2.0712305984	-0.7874348108	 0.119531
H	-0.214232318	 1.9859587734	 0.9750383512	 0.120324
H	 0.4375153042	-0.3409331886	-0.9349171503	 0.092338
H	 0.5178520584	-0.4226113021	 0.8131546482	 0.114321
H	-2.3649490144	 1.1146589694	 1.2454254838	 0.128827
H	-3.2209216929	-0.421067926	 1.3658033119	 0.135756
H	-1.6664855476	-0.1911494266	 2.1976710459	 0.110344
H	-1.7672530692	-0.4200957811	-2.1439329633	 0.115526
H	-3.2847727356	-0.4245250308	-1.230164589	 0.141002
H	-2.3090818761	 1.0422711381	-1.3120418126	 0.123338
H	-0.8393320659	-2.3569357362	-0.8206354456	 0.133458
H	-1.23011267	-2.4059622855	 1.9608953019	 0.297072
67.5054	75.4129	137.5212	204.6814	211.2823	229.4328	244.2927	276.3388	295.232	317.0718	338.9608	347.2824	393.8574	418.8111	467.8971	595.7705	623.3584	749.0132	787.6008	833.6044	935.0421	942.9608	957.318	1002.0881	1031.1631	1055.1751	1070.1778	1093.88	1196.704	1222.7129	1243.1702	1273.0894	1306.1977	1346.6097	1370.5275	1399.4009	1413.9776	1418.5744	1425.4453	1484.7361	1487.553	1490.7078	1507.6324	1509.3185	1513.5371	1515.9938	2349.6118	3015.4131	3031.3228	3035.9699	3042.3131	3052.3851	3074.7102	3097.375	3103.7188	3106.5761	3110.7545	3118.4438	3120.428	3811.3682
CCC(C)(C)C(O)C#N	CCC(C)(C)[C@@H](O)C#N	
InChI=1S/C7H13NO/c1-4-7(2,3)6(9)5-8/h6,9H,4H2,1-3H3	InChI=1S/C7H13NO/c1-4-7(2,3)6(9)5-8/h6,9H,4H2,1-3H3/t6-/m0/s1
