16
gdb 9173	8.48647	0.82364	0.76073	1.0158	66.98	-0.2533	-0.0202	0.2331	1469.9897	0.128597	-417.081145	-417.071782	-417.070838	-417.11621	31.182	
C	 0.1001937578	 1.3563577359	-0.0024422492	-0.318845
N	 0.0510741356	-0.0928562205	-0.0235651649	-0.189362
C	-1.081962577	-0.6272806574	-0.0086737042	 0.115042
O	-1.15743937	-2.0016965813	-0.0270428834	-0.219477
C	-2.397969252	-2.5825755645	-0.0104583338	 0.429418
O	-3.4332830555	-1.9747084673	 0.0192348485	-0.339543
C	-2.2600056217	-4.0988942069	-0.0350609093	-0.278472
N	-3.508441291	-4.8349990995	-0.0204116252	-0.485788
H	 0.6740647756	 1.6838296434	 0.871123265	 0.136544
H	 0.6383513234	 1.7106078947	-0.888199913	 0.136531
H	-0.8884160388	 1.8396263145	 0.0249802729	 0.106812
H	-2.0562131229	-0.1346290166	 0.018871676	 0.132882
H	-1.6738759273	-4.3644012686	-0.9229821195	 0.148668
H	-1.6386111254	-4.3894994719	 0.8204281617	 0.14867
H	-4.0453957652	-4.5716687718	 0.800986213	 0.238461
H	-4.0780097858	-4.5484388724	-0.8115073447	 0.238462
52.0021	74.0031	92.8087	126.136	206.1361	216.6569	256.0309	330.892	357.6322	386.0039	562.9593	574.7382	711.4536	890.201	917.128	939.7991	990.0044	1062.8571	1098.8669	1141.0475	1156.1286	1179.7983	1180.4157	1188.891	1364.4315	1381.463	1386.6075	1447.4047	1450.116	1480.5774	1501.7662	1677.9656	1778.4642	1838.5619	2985.1743	3043.2529	3071.7657	3078.2082	3089.8453	3114.0919	3497.9284	3567.1281
CN=COC(=O)CN	CN=COC(=O)CN	
InChI=1S/C4H8N2O2/c1-6-3-8-4(7)2-5/h3H,2,5H2,1H3	InChI=1S/C4H8N2O2/c1-6-3-8-4(7)2-5/h3H,2,5H2,1H3
