22
gdb 64021	2.08567	1.82191	1.35809	1.7029	86.9	-0.2239	0.0219	0.2458	1084.1453	0.194705	-367.204189	-367.195478	-367.194534	-367.236739	35.323	
C	-0.5141299147	 1.4693108468	 0.1521557723	-0.44468
C	 0.0026763679	 0.0349209768	 0.0110926094	 0.19254
C	-1.164003156	-0.9054716441	-0.352084387	-0.414249
C	 1.1095106262	-0.0903584311	-1.0841372207	-0.297528
C	 2.0637380713	-1.121282579	-0.5303760816	-0.092535
C	 1.8409953794	-1.3530149801	 0.7617009312	-0.105952
C	 0.7209583625	-0.5177433183	 1.2740894116	 0.310758
C	 0.8440091728	 0.225887093	 2.5619674017	-0.295488
N	-0.0001063752	-0.978307046	 2.4754186513	-0.3707
H	 0.2956176956	 2.1688666426	 0.380662658	 0.116618
H	-0.9910055611	 1.79874553	-0.7774275987	 0.113272
H	-1.2670782263	 1.5504104605	 0.9455238298	 0.105731
H	-1.6282261631	-0.5929295951	-1.2934636497	 0.109671
H	-0.8158213935	-1.9361172289	-0.4663005826	 0.126755
H	-1.9452922368	-0.8987790062	 0.4156668212	 0.103618
H	 0.6886274833	-0.3734129135	-2.0563217841	 0.09883
H	 1.623625878	 0.8688930178	-1.2391840075	 0.10197
H	 2.8456869252	-1.5770136864	-1.1271428989	 0.093583
H	 2.3916059746	-2.026838859	 1.4073787323	 0.100491
H	 1.7414982471	 0.1136553297	 3.1654672526	 0.111584
H	 0.3635008429	 1.1959116861	 2.6495682404	 0.110016
H	-0.9782895801	-0.7024960257	 2.417560049	 0.225695
89.2928	234.1325	246.3018	264.7747	274.147	304.0133	330.702	349.2749	420.9972	438.9859	520.6182	563.0925	620.8009	743.7792	750.8863	836.3829	882.3401	916.6049	927.8276	934.3603	954.7202	969.5053	976.5938	984.2275	991.6952	1031.0836	1058.8361	1104.511	1131.8413	1137.0731	1201.3395	1225.3515	1244.7655	1269.3943	1287.2487	1323.3036	1344.4769	1398.9239	1405.7412	1421.7621	1483.189	1484.5772	1494.6769	1504.3908	1507.3818	1513.0961	1683.7311	3003.99	3022.3801	3031.0238	3048.1608	3083.2375	3092.9357	3102.4456	3105.376	3112.4982	3188.4737	3190.4233	3215.3108	3486.7572
CC1(C)CC=CC11CN1	CC1(C)CC=C[C@]21CN2	
InChI=1S/C8H13N/c1-7(2)4-3-5-8(7)6-9-8/h3,5,9H,4,6H2,1-2H3	InChI=1S/C8H13N/c1-7(2)4-3-5-8(7)6-9-8/h3,5,9H,4,6H2,1-2H3/t8-/m1/s1
