16
gdb 99433	3.16647	0.73339	0.61327	5.108	89.78	-0.2816	-0.0433	0.2383	1748.0137	0.121884	-363.567585	-363.55776	-363.556816	-363.603032	34.479	
C	-0.0171248865	 1.5455821678	-0.0551955124	-0.395234
C	 0.0071221111	 0.0184823103	-0.0094806825	-0.171586
C	 0.7006871446	-0.5321955104	 1.2744267507	-0.376399
C	 0.0000167631	-0.1342294823	 2.4993658133	 0.345044
C	-0.5853145279	 0.2024719161	 3.4921222917	-0.450278
C	 0.8375834879	-1.9876426459	 1.2065698424	 0.098647
C	 0.9500282109	-3.1868487795	 1.1217121107	 0.086452
C	 1.0769012106	-4.5431623018	 1.0287420029	 0.204037
N	 1.1859986406	-5.6967760694	 0.9469287456	-0.334855
H	 0.9970315886	 1.9598464286	-0.0497571007	 0.120736
H	-0.51347634	 1.8902150505	-0.9665243742	 0.124937
H	-0.5554642338	 1.9578125001	 0.8025513624	 0.139365
H	-1.0087191592	-0.3861337448	-0.0486711024	 0.127353
H	 0.5481345699	-0.3833008472	-0.8721094543	 0.119809
H	 1.7162603961	-0.1087249615	 1.3066685615	 0.151052
H	-1.0968159759	 0.4938817595	 4.3764912054	 0.210919
65.5186	75.0907	110.9948	155.9978	200.7588	214.4258	254.3655	323.8116	351.9197	439.4505	518.0317	533.2649	577.7779	589.592	644.4058	661.4775	750.7043	796.9715	869.9211	955.1902	1045.4289	1095.7914	1106.3624	1177.9745	1258.0387	1293.819	1334.387	1363.7026	1413.559	1485.9681	1496.4897	1505.5333	2243.358	2267.5478	2404.0601	2993.4053	3039.9494	3053.6824	3092.6922	3112.8983	3124.9841	3501.6437
CCC(C#C)C#CC#N	CC[C@@H](C#C)C#CC#N	
InChI=1S/C8H7N/c1-3-8(4-2)6-5-7-9/h1,8H,4H2,2H3	InChI=1S/C8H7N/c1-3-8(4-2)6-5-7-9/h1,8H,4H2,2H3/t8-/m1/s1
