21
gdb 124447	3.07453	1.21662	1.07908	2.0247	84.17	-0.2393	0.0281	0.2674	1229.803	0.182784	-383.30645	-383.297096	-383.296152	-383.340845	35.754	
C	 0.0594755569	 1.5272278522	 0.0609955107	-0.400281
C	 0.0031836913	-0.0148696023	-0.0068473632	 0.150214
C	 0.670500761	-0.6030385409	 1.2559443564	-0.400255
C	-1.4650673253	-0.4687079195	-0.0650988853	-0.393052
C	 0.7587684251	-0.4863342377	-1.2335614866	 0.352442
N	 0.1646405678	-1.1960048063	-2.1917711696	-0.304512
N	 1.1311580828	-1.4290223309	-3.1018687156	-0.19121
C	 2.3247125942	-0.8909535104	-2.7563897182	-0.021712
C	 2.1274632192	-0.2674253612	-1.5456909319	-0.28774
H	 1.0913246852	 1.8892667112	 0.1107328039	 0.107564
H	-0.4112567666	 1.9753026318	-0.8195818453	 0.116056
H	-0.4666342812	 1.890617838	 0.950719087	 0.106482
H	 0.1507193021	-0.2613506357	 2.1579051589	 0.106474
H	 0.6419272637	-1.6969837166	 1.2403567785	 0.116068
H	 1.7180719916	-0.2957864352	 1.3362221708	 0.107565
H	-1.9688679974	-0.0674464622	-0.9481978902	 0.118589
H	-1.5413059922	-1.5580419542	-0.1121270549	 0.118656
H	-1.9977856134	-0.121328595	 0.8266357012	 0.095229
H	 0.9053575575	-1.9575390954	-3.9266703667	 0.271937
H	 3.1969121902	-0.9918296181	-3.383101339	 0.131242
H	 2.8639481477	 0.2685283083	-0.9695653708	 0.100243
25.3315	153.9233	204.8553	213.077	267.068	272.3297	327.216	336.4187	337.8741	440.1254	473.9941	489.7495	587.7901	663.891	746.1078	775.8124	830.5624	843.1576	930.8801	937.2766	947.5017	960.5412	975.6678	1041.2836	1048.6885	1067.0939	1106.5223	1191.4462	1210.4598	1229.0208	1247.983	1317.3564	1394.3883	1395.5196	1397.3755	1426.81	1463.9999	1475.3633	1480.4723	1483.2223	1487.7249	1498.1672	1501.967	1520.0136	1571.7325	3025.6775	3029.2001	3039.5593	3093.4845	3098.0996	3103.7262	3105.9766	3110.0616	3122.5092	3253.7704	3273.1772	3680.0263
CC(C)(C)C1=NNC=C1	CC(C)(C)c1n[nH]cc1	
InChI=1S/C7H12N2/c1-7(2,3)6-4-5-8-9-6/h4-5H,1-3H3,(H,8,9)	InChI=1S/C7H12N2/c1-7(2,3)6-4-5-8-9-6/h4-5H,1-3H3,(H,8,9)
