24
gdb 123159	7.03253	0.46465	0.45144	2.4668	88.34	-0.2436	0.0792	0.3228	2507.5256	0.216229	-405.51623	-405.505325	-405.504381	-405.554072	38.095	
C	-0.1565084853	 1.5160039832	-0.1835220927	-0.379167
C	 0.0312176217	 0.0010812266	-0.0653440315	-0.165839
C	 0.680692809	-0.616932794	-1.3074851054	-0.177325
C	 0.8701566392	-2.1226814267	-1.1896194289	-0.048288
O	 1.4670839558	-2.6005650688	-2.3775745299	-0.246758
C	 1.6964663332	-3.9924284665	-2.3675990401	-0.077727
C	 2.3902526914	-4.3839309488	-3.6432324059	 0.018115
C	 2.1268649848	-5.7184030139	-4.2364787537	-0.246996
N	 1.631072801	-4.500159094	-4.8958977192	-0.304529
H	 0.8038586114	 2.0231514604	-0.3273787588	 0.116039
H	-0.7941560633	 1.7699182832	-1.0374455265	 0.115978
H	-0.6219194346	 1.931864907	 0.7154559755	 0.111372
H	 0.6444776922	-0.2232199723	 0.8175845744	 0.095889
H	-0.9421670821	-0.4749204201	 0.1132333365	 0.095555
H	 0.0692805816	-0.4104466472	-2.194510877	 0.104765
H	 1.6587773632	-0.1552846503	-1.4903760025	 0.104948
H	 1.5052743463	-2.3645654037	-0.3190711585	 0.082483
H	-0.1015938281	-2.6207395013	-1.0226233156	 0.080509
H	 2.3161057467	-4.273979328	-1.4977869086	 0.089078
H	 0.7420845163	-4.5430470205	-2.2750463245	 0.073957
H	 3.3734863919	-3.9371714415	-3.7732185071	 0.098398
H	 2.9152771695	-6.2415630086	-4.7696588147	 0.120072
H	 1.4170229202	-6.3691998658	-3.7309544165	 0.108644
H	 0.638789118	-4.3769376083	-4.7064426887	 0.230827
39.5855	49.6429	80.7854	96.2444	132.3229	152.992	197.9588	250.9208	277.4468	336.5824	403.326	484.1655	524.6924	742.7987	807.9518	813.8539	837.8276	904.8536	935.7984	943.6363	952.9583	1006.5155	1026.325	1035.4765	1067.1538	1077.3208	1123.9239	1151.5787	1152.6917	1159.2774	1192.3326	1219.2511	1250.8622	1253.7809	1278.848	1292.725	1311.2369	1313.7734	1323.6381	1367.4467	1388.368	1411.8669	1421.529	1463.0071	1486.8686	1494.9926	1499.9122	1503.515	1511.3829	1514.8493	1531.8226	2929.0915	2943.9008	2962.6767	2965.4073	3012.2451	3028.7741	3032.8857	3038.3421	3073.752	3098.4961	3103.2045	3106.2482	3136.3535	3191.0031	3492.4306
CCCCOCC1CN1	CCCCOC[C@H]1CN1	
InChI=1S/C7H15NO/c1-2-3-4-9-6-7-5-8-7/h7-8H,2-6H2,1H3	InChI=1S/C7H15NO/c1-2-3-4-9-6-7-5-8-7/h7-8H,2-6H2,1H3/t7-/m1/s1
