15
gdb 48503	3.67152	1.5951	1.38307	3.6189	69.11	-0.2395	-0.0327	0.2068	918.721	0.113897	-416.706117	-416.699725	-416.69878	-416.737106	25.222	
O	-0.1624430819	 0.1454645629	-0.3846926248	-0.262465
C	 0.1066259883	 1.1791229625	 0.1775936575	 0.033633
C	 1.4117636844	 1.8459565284	 0.0843982695	 0.314544
C	 2.1105445464	 2.5607958652	 1.2100062204	-0.066807
C	 3.5544773808	 2.5193023209	 0.6651131364	-0.059765
N	 3.7181101436	 1.1591248178	 0.0625313788	-0.319975
C	 2.6068617025	 1.5901632723	-0.8460222157	-0.13631
C	 2.8827456557	 3.1100513561	-0.6135510091	 0.007537
N	 1.5408159542	 3.3637688135	 0.1011748986	-0.218252
H	-0.6327005514	 1.7213367697	 0.8080332649	 0.083172
H	 1.7361842012	 2.6142588736	 2.2245904538	 0.115402
H	 4.370489817	 2.9485139436	 1.2421495676	 0.092226
H	 4.5850448514	 1.1556795913	-0.4771752229	 0.219776
H	 2.4572278111	 1.0743697716	-1.7905850047	 0.102714
H	 3.2815901467	 3.8393807307	-1.3156849502	 0.09457
109.3237	158.895	256.2225	451.8236	500.2914	562.1182	686.9482	759.152	780.4592	800.6911	810.4554	835.8474	863.3672	891.9435	903.651	933.1637	966.1391	984.954	1018.973	1038.592	1067.7132	1112.0123	1145.2649	1169.5222	1191.0378	1210.725	1227.8935	1287.4511	1308.0859	1339.3993	1392.9633	1429.2689	1807.7404	2888.064	3137.8995	3150.605	3166.5879	3199.3544	3450.3599
O=CC12C3C4NC1C4N23	O=C[C@@]12[C@H]3[C@H]4N[C@@H]1[C@H]4N23	
InChI=1S/C6H6N2O/c9-1-6-4-3-2(7-4)5(6)8(3)6/h1-5,7H	InChI=1S/C6H6N2O/c9-1-6-4-3-2(7-4)5(6)8(3)6/h1-5,7H/t2-,3-,4+,5+,6-,8?/m0/s1
