13
gdb 21705	8.30857	1.17928	1.03307	2.5902	67.91	-0.2041	0.0037	0.2077	1054.9501	0.097798	-390.96691	-390.959814	-390.95887	-390.998694	25.516	
N	-0.0346371077	 1.3547975229	 0.1183492753	-0.502248
C	 0.0525822883	-0.0005168895	 0.0378348156	 0.113097
N	 1.1847507079	-0.6009725076	 0.0170085039	-0.359147
C	 1.1873761835	-1.9848895927	-0.0040650043	 0.390617
C	 2.3006945366	-2.8003580541	-0.0315590421	-0.180826
N	 1.7856623876	-4.0533424486	-0.0482630126	-0.152426
N	 0.4418083386	-4.0396401826	-0.0319714724	-0.119772
N	 0.0761345641	-2.7907369508	-0.0050004675	-0.268691
H	 0.8136887771	 1.8822018345	-0.0206725795	 0.261448
H	-0.8988969287	 1.8050466797	-0.1274727266	 0.262635
H	-0.9085828395	-0.5213051455	 0.0299413177	 0.133239
H	 3.3554526242	-2.5893940188	-0.039521114	 0.142198
H	 2.267596288	-4.9371207068	-0.0680784136	 0.279877
61.9894	158.2623	165.2671	328.6989	390.5878	432.5941	475.7459	551.3122	589.1493	695.4641	735.1753	780.922	791.2423	978.6768	1019.7276	1034.9024	1050.3276	1111.1303	1128.6831	1263.4334	1294.203	1323.2071	1342.664	1399.8271	1491.6208	1593.6934	1632.7734	1726.6918	3101.2173	3295.1492	3592.7873	3665.0751	3726.0227
NC=NC1=CNN=N1	NC=Nc1c[nH]nn1	
InChI=1S/C3H5N5/c4-2-5-3-1-6-8-7-3/h1-2H,(H3,4,5,6,7,8)	InChI=1S/C3H5N5/c4-2-5-3-1-6-8-7-3/h1-2H,(H3,4,5,6,7,8)
