15
gdb 107908	3.64515	1.24352	1.16938	3.3525	64.93	-0.2346	-0.009	0.2256	1062.4511	0.111391	-457.698493	-457.690909	-457.689965	-457.731022	28.6	
O	-0.0154328934	 1.3331924151	-0.4301860217	-0.405292
C	-0.1019438654	 0.0522855189	 0.1629512958	-0.194125
C	-1.4688777502	-0.5386301247	 0.0370576364	 0.46896
O	-2.527065606	 0.0472205045	 0.8187247687	-0.33318
C	-3.320169086	-1.1233910948	 0.4774531289	-0.08526
C	-2.023908971	-1.9092439357	 0.0626597789	-0.212291
C	-2.0807094955	-1.0691723487	-1.2656749286	-0.299257
C	-3.5590193743	-0.9526562978	-1.0489493872	 0.485965
O	-4.526105018	-0.9647667802	-1.7519554775	-0.329053
H	-0.6734370714	 1.8938565578	-0.0042784058	 0.298821
H	 0.6206719173	-0.5874517292	-0.3536900176	 0.123693
H	 0.1703025108	 0.0762895662	 1.2290769932	 0.111538
H	-4.0890496102	-1.38663017	 1.198174748	 0.111508
H	-1.6501743444	-2.9095613861	 0.2220082086	 0.132843
H	-1.5143595025	-1.2105139453	-2.17517845	 0.125132
75.5076	103.1607	199.0951	259.4169	363.8404	392.1014	462.8689	533.3095	578.8772	713.7695	737.5502	767.937	795.1628	825.0292	864.9397	902.9934	934.7647	956.1449	1000.0537	1016.909	1068.4916	1081.3968	1099.527	1116.4741	1183.5014	1191.5087	1231.7292	1287.1655	1376.854	1400.7875	1465.2304	1485.3945	1894.2329	2996.0147	3084.9439	3174.1035	3228.9798	3235.7565	3809.4251
OCC12OC3C1C2C3=O	OC[C@]12O[C@@H]3[C@H]1[C@H]2C3=O	
InChI=1S/C6H6O3/c7-1-6-2-3(6)5(9-6)4(2)8/h2-3,5,7H,1H2	InChI=1S/C6H6O3/c7-1-6-2-3(6)5(9-6)4(2)8/h2-3,5,7H,1H2/t2-,3+,5+,6+/m0/s1
