19
gdb 76733	2.02306	1.8084	1.21912	1.813	71.62	-0.2386	0.0493	0.2878	1091.2275	0.156318	-460.13323	-460.123703	-460.122759	-460.166941	35.843	
C	 0.1012970669	 1.5644975801	-0.0499977869	-0.514107
C	-0.067635126	 0.0965356417	 0.1473967246	 0.298212
O	 0.9973598047	-0.8039681664	-0.2201909568	-0.329809
C	 0.4856655165	-0.8728463426	 1.1214078382	 0.349288
C	 1.4238671855	-0.757773423	 2.2758267957	-0.515054
C	-0.7522217662	-1.7763734838	 1.0095678653	-0.016354
O	-1.4845327238	-1.767284439	 2.225717145	-0.432234
C	-1.3535575104	-0.7431669542	-0.0377514026	 0.053525
O	-2.5393744941	-0.1464463229	 0.4102214088	-0.435705
H	 1.0345301754	 1.9207858795	 0.3948637858	 0.127593
H	 0.1164423829	 1.8112009358	-1.1175731491	 0.133052
H	-0.739757061	 2.0952576582	 0.4056393451	 0.136513
H	 2.0683646662	 0.1184579036	 2.1657252043	 0.13138
H	 0.8607054368	-0.6723461705	 3.2095283093	 0.139187
H	 2.0644388143	-1.6442668468	 2.3455233195	 0.130453
H	-0.5600190699	-2.7961179371	 0.6588831447	 0.078447
H	-2.1814990426	-2.4283793476	 2.1617107169	 0.299821
H	-1.5061683241	-1.1113192627	-1.0563365355	 0.084804
H	-2.543548761	-0.2655528621	 1.3721898678	 0.280989
100.509	170.6291	185.1407	190.8202	201.0711	223.3785	242.2551	310.4907	417.215	427.3967	485.53	513.1819	537.5616	564.6573	687.3673	697.1241	800.5979	810.5839	877.3317	912.1044	957.593	1062.2368	1089.3952	1104.8578	1118.9785	1152.9734	1198.4005	1205.5762	1226.8587	1255.3674	1292.8215	1314.0069	1397.23	1408.1703	1413.7891	1435.7973	1473.5354	1475.6429	1487.3089	1491.7975	1523.4996	3036.0973	3037.3941	3047.2111	3074.0165	3100.9963	3102.3234	3122.2487	3125.5474	3707.1124	3821.9231
CC12OC1(C)C(O)C2O	C[C@@]12O[C@]1(C)[C@@H](O)[C@H]2O	
InChI=1S/C6H10O3/c1-5-3(7)4(8)6(5,2)9-5/h3-4,7-8H,1-2H3	InChI=1S/C6H10O3/c1-5-3(7)4(8)6(5,2)9-5/h3-4,7-8H,1-2H3/t3-,4+,5+,6-
