15
gdb 38017	3.55157	2.24857	1.84532	2.324	67.83	-0.211	-0.0644	0.1466	754.335	0.114037	-416.640831	-416.635233	-416.634289	-416.670343	24.193	
C	-0.0555797348	 1.5523654377	-0.0210624145	-0.177836
C	 1.4830269792	 1.5479313458	 0.033077875	-0.026448
N	 2.0978247468	 1.3990232977	 1.3692004401	-0.202935
C	 1.6296415284	 0.3206309048	 1.8311132311	 0.218804
O	 2.4926778111	-0.8142654442	 1.836788975	-0.269434
C	 1.6658653515	-1.1167675417	 0.6477924005	 0.088682
C	 1.3867756271	 0.020698981	-0.4895184154	-0.062527
N	-0.0696010345	 0.0531694138	-0.0352878244	-0.138029
C	 0.4175213215	-0.4901105913	 1.2480204315	-0.090971
H	-0.5779150988	 2.0190469421	 0.8172799151	 0.121263
H	-0.4607745688	 1.9272926817	-0.9650986362	 0.117121
H	 2.0389280241	 2.2879652953	-0.5438094677	 0.095948
H	 1.7814391984	-2.1515587953	 0.3298193226	 0.125805
H	 1.5838799268	-0.198701639	-1.538573002	 0.092736
H	-0.2653391881	-0.9872341485	 1.9345174793	 0.107821
279.3538	375.8278	399.5476	473.1124	556.2301	636.7716	656.7093	715.2268	744.369	796.5294	808.1294	829.8765	858.0006	896.1321	918.386	947.7617	975.117	1018.422	1025.8291	1061.8751	1079.908	1120.8068	1150.9396	1180.04	1187.8236	1207.5123	1225.2606	1239.9461	1285.7406	1298.9901	1308.7312	1489.0116	1630.2525	3056.2568	3102.8207	3117.779	3124.8135	3132.7175	3143.8784
C1C2N=C3OC4C2N1C34	C1[C@H]2[N][C]3O[C@@H]4[C@H]2N1[C@H]34	
InChI=1S/C6H6N2O/c1-2-3-5-4(8(1)3)6(7-2)9-5/h2-5H,1H2	InChI=1S/C6H6N2O/c1-2-3-5-4(8(1)3)6(7-2)9-5/h2-5H,1H2/t2-,3+,4+,5-/m1/s1
