16
gdb 106034	2.67143	1.58707	1.23453	3.6923	68.35	-0.2284	-0.0009	0.2275	1021.66	0.124504	-437.815497	-437.80771	-437.806766	-437.848824	29.182	
O	 0.139016567	 1.3462742707	 0.5074843418	-0.4095
C	-0.0158511435	 0.0608752216	-0.0718984134	-0.201135
C	-1.4348596366	-0.4218307633	-0.0143371583	 0.174577
C	-2.1136593536	-1.0163703428	 1.2147564278	-0.072965
N	-3.5678601335	-0.7380943521	 1.0872671104	-0.326833
C	-3.4107748501	-1.2103005727	-0.3372863068	-0.194386
C	-2.0164520006	-1.882807588	 0.0059112852	-0.15061
C	-2.5607549515	-0.0722577887	-0.9344489462	 0.448315
O	-2.6438886537	 0.6321462381	-1.9021497655	-0.351876
H	-0.375153161	 1.9652335206	-0.0222563153	 0.297288
H	 0.3275649529	 0.0478968891	-1.116964488	 0.110003
H	 0.6380509585	-0.6096591368	 0.4963076203	 0.113781
H	-1.5919853015	-1.0545236413	 2.1629844063	 0.117774
H	-4.0520146104	-1.478795255	 1.5951270961	 0.223951
H	-4.2672053205	-1.6399511514	-0.8484073539	 0.100295
H	-1.5100958919	-2.7940342479	-0.2814930504	 0.121322
28.3875	143.0665	174.0395	216.5882	351.2418	376.6363	474.5781	488.2273	613.2651	692.2458	721.5124	791.7551	805.9399	821.0105	849.7669	887.801	935.2789	971.5276	987.5784	1006.2075	1042.0262	1065.0782	1074.1753	1143.7988	1150.887	1166.0814	1194.1495	1278.6298	1325.6232	1359.1799	1389.1816	1408.3436	1430.704	1495.2305	1877.2017	2996.9092	3068.5213	3173.647	3197.484	3214.9129	3451.332	3811.385
OCC12C3NC(C13)C2=O	OC[C@]12[C@H]3N[C@H]([C@@H]13)C2=O	
InChI=1S/C6H7NO2/c8-1-6-2-3(5(6)9)7-4(2)6/h2-4,7-8H,1H2	InChI=1S/C6H7NO2/c8-1-6-2-3(5(6)9)7-4(2)6/h2-4,7-8H,1H2/t2-,3-,4+,6-/m1/s1
