17
gdb 131155	3.02403	1.37099	0.99474	2.7591	73.88	-0.2113	0.0401	0.2515	1162.6486	0.138065	-418.011326	-418.003342	-418.002398	-418.044205	30.376	
O	-0.8578730105	 1.0101358799	-0.1151933599	-0.428346
C	-0.2625749703	-0.2005184793	-0.1237326998	 0.364887
C	 0.2774325604	-0.9670206903	-1.1422220408	 0.073522
C	 0.7317933773	-2.1254311841	-0.4599297558	-0.07845
N	 0.4939691457	-2.0882393287	 0.8437427391	-0.241246
N	-0.1220321372	-0.8882705125	 1.0281016632	-0.252939
C	 0.3612089348	-0.5956225264	-2.5734018756	-0.165517
C	-0.3020237754	-1.4446038815	-3.6312810447	-0.251474
C	-0.8746240209	-0.0905382281	-3.3061937915	-0.284581
H	-0.8687612946	 1.3310397578	-1.0247394726	 0.313813
H	 1.2226181142	-2.9882176351	-0.8882864536	 0.108318
H	-0.4206301361	-0.6079046991	 1.9463736639	 0.275743
H	 1.2927503437	-0.1286041597	-2.8879867804	 0.098077
H	 0.2090635019	-1.5691015861	-4.5791778738	 0.114353
H	-0.8541273297	-2.3152714953	-3.2968998659	 0.122311
H	-1.8155909206	-0.0685854039	-2.7658138803	 0.117492
H	-0.7534452628	 0.7065199124	-4.0315830114	 0.114037
62.8731	146.7209	152.1274	285.2244	330.9416	353.2778	390.7529	468.8034	496.9796	619.4863	681.8814	718.2821	729.6346	807.5956	832.7111	889.5816	907.4345	919.1496	951.2646	1057.398	1086.2548	1087.195	1100.9388	1138.9244	1165.1467	1203.4045	1210.6436	1218.3425	1252.9545	1343.1159	1365.1501	1423.9595	1461.066	1467.2077	1500.8111	1591.1712	1641.8763	3110.7652	3128.5684	3141.4281	3211.4673	3231.2044	3234.6401	3680.4025	3804.6585
OC1=C(C=NN1)C1CC1	Oc1c(cn[nH]1)C1CC1	
InChI=1S/C6H8N2O/c9-6-5(3-7-8-6)4-1-2-4/h3-4H,1-2H2,(H2,7,8,9)	InChI=1S/C6H8N2O/c9-6-5(3-7-8-6)4-1-2-4/h3-4H,1-2H2,(H2,7,8,9)
