17
gdb 30461	4.89	1.05613	0.87799	2.3944	84.24	-0.2184	-0.0615	0.1569	1317.2027	0.135341	-418.030912	-418.022194	-418.02125	-418.064739	31.347	
C	 0.2161492246	 1.4354811818	 0.1696585709	-0.324559
N	 0.2387992893	-0.0164408504	 0.1352034337	-0.309816
C	 0.4189689458	-0.593583655	-0.9779640011	 0.374041
O	 0.5936490778	 0.1148143101	-2.1570613551	-0.236754
C	 0.7828476923	-0.5699462436	-3.3179947322	-0.012535
C	 0.8091789424	-1.9110334804	-3.3820472272	 0.24513
C	 1.0175370515	-2.6697118093	-4.6576420542	-0.467863
N	 0.6375659938	-2.6763360367	-2.2217251133	-0.278415
C	 0.4577450838	-2.0470661575	-1.11618521	-0.034839
H	 1.1585128371	 1.8680867165	-0.1934790488	 0.124061
H	-0.5851041331	 1.8467979895	-0.4595522306	 0.124126
H	 0.0550898299	 1.7671983368	 1.1975034339	 0.123172
H	 0.9060192731	 0.0976550401	-4.1614767183	 0.133903
H	 1.9070754078	-3.3049324897	-4.5866542787	 0.139904
H	 0.1670398448	-3.3311185743	-4.8549383415	 0.139952
H	 1.1390069535	-1.9967354451	-5.5103689595	 0.121281
H	 0.3207651057	-2.6079727227	-0.1945827578	 0.139212
60.9238	92.9069	166.8794	189.5162	203.1853	312.9048	324.1791	393.0683	411.7331	557.6058	570.5543	617.5854	743.2411	772.1527	801.4023	860.0585	932.3056	963.1335	1022.213	1047.5978	1069.2065	1103.066	1154.9681	1177.2404	1239.1786	1266.2837	1340.4439	1385.9481	1418.9259	1434.2244	1471.0942	1482.8164	1490.9815	1496.2027	1618.0255	1693.3218	1733.7758	2998.8097	3035.0728	3047.5385	3091.7695	3113.3004	3121.1353	3165.6689	3215.518
CN=C1OC=C(C)N=C1	C[N]C1=C[N]C(=CO1)C	
InChI=1S/C6H8N2O/c1-5-4-9-6(7-2)3-8-5/h3-4H,1-2H3	InChI=1S/C6H8N2O/c1-5-4-9-6(7-2)3-8-5/h3-4H,1-2H3
