17
gdb 125987	4.27787	1.2095	1.01327	2.6729	75.92	-0.2049	0.0209	0.2259	1178.7121	0.138484	-414.182447	-414.174442	-414.173498	-414.215189	30.046	
C	-0.2028628546	 1.5264696066	 0.0933439633	-0.397694
C	 0.0023619184	 0.0182945748	 0.0237143063	-0.132945
C	 0.7580552674	-0.540473293	-1.2593316147	-0.183309
N	 1.7207533572	-1.1286201205	-0.3055051776	 0.057302
N	 3.0316601574	-1.4715892352	-0.1017714236	-0.359501
C	 3.1415298734	-1.1421584534	 1.1923905935	 0.388638
N	 4.2589278233	-1.4516081062	 1.9362933041	-0.573224
N	 2.0473894487	-0.5316283592	 1.785663051	-0.419607
C	 1.2017513517	-0.5544643914	 0.7756571674	 0.339702
H	 0.7284027192	 2.0632023936	-0.1121427851	 0.130236
H	-0.9563050271	 1.850438109	-0.6313489106	 0.123893
H	-0.544328788	 1.8183330312	 1.0906246468	 0.140161
H	-0.935117002	-0.5097292926	 0.2204860883	 0.107314
H	 0.2381347677	-1.2716789443	-1.8829120933	 0.128515
H	 1.1904153409	 0.250809386	-1.878090112	 0.134766
H	 5.0948676714	-1.5810927647	 1.385583654	 0.257435
H	 4.3886444651	-0.8425520506	 2.7304460623	 0.258318
64.824	136.6037	212.0291	252.5948	285.1816	329.3831	384.8357	440.5024	541.0163	597.8101	626.0663	712.5756	739.9761	775.9119	813.6649	895.1567	922.8072	985.0446	1023.2258	1087.0805	1088.0266	1122.8376	1141.3651	1172.6431	1223.5671	1259.3491	1279.4745	1348.9769	1385.4549	1412.7643	1475.7092	1492.1655	1495.5192	1513.5838	1539.7099	1600.7175	1641.553	3039.8893	3058.5257	3066.1377	3112.116	3115.0609	3119.7562	3573.5001	3682.8219
CC1CN2N=C(N)N=C12	C[C@H]1Cn2nc(N)nc12	
InChI=1S/C5H8N4/c1-3-2-9-4(3)7-5(6)8-9/h3H,2H2,1H3,(H2,6,8)	InChI=1S/C5H8N4/c1-3-2-9-4(3)7-5(6)8-9/h3H,2H2,1H3,(H2,6,8)/t3-/m0/s1
