17
gdb 77435	2.44534	1.5674	1.20513	2.7845	71.5	-0.2211	0.0101	0.2313	1067.3129	0.133863	-455.096286	-455.087026	-455.086082	-455.129826	34.489	
C	 0.1156901504	 1.5156808367	 0.0141710346	-0.511748
C	 0.0299493911	 0.0287508116	 0.0560980527	 0.220587
N	 0.4629330448	-0.8559052904	-1.0737669131	-0.405681
C	 1.1271316227	-1.7301148151	-0.1499925539	 0.300529
N	 2.024409245	-2.6127181575	-0.2359215636	-0.549767
C	 0.5115974328	-1.0752862002	 1.0414638308	 0.219106
O	 0.9627704332	-1.1118098653	 2.3371418113	-0.459573
C	-0.9674021707	-0.7890047382	 0.8287845434	 0.052723
O	-1.5607922587	-0.1440028918	 1.9114523723	-0.440284
H	 1.1459688364	 1.8648660089	-0.1182993742	 0.118339
H	-0.48841404	 1.9160983591	-0.8089771439	 0.134284
H	-0.2773334053	 1.9230505692	 0.9484050482	 0.151914
H	 1.0712909027	-0.4216852198	-1.7606151579	 0.235865
H	 2.3115104201	-2.7644472498	-1.2048620211	 0.219265
H	 1.9234621312	-1.0338175064	 2.3339379235	 0.305876
H	-1.6111276214	-1.4982646383	 0.3066493632	 0.103573
H	-1.1072219441	-0.4345036028	 2.7127227576	 0.304992
99.7937	140.4479	165.0259	209.9326	224.3422	253.6735	300.3069	325.0477	364.604	440.0447	485.3513	556.9259	582.0298	661.606	671.8702	720.1457	803.8378	861.5737	882.2912	932.3939	1010.1668	1049.0986	1084.6352	1096.5745	1147.2569	1193.4303	1223.391	1270.8308	1312.1759	1343.621	1367.5606	1396.0515	1418.394	1473.4745	1487.1257	1502.9213	1796.7719	3024.8236	3080.3804	3093.7921	3129.5119	3459.603	3534.0054	3776.7307	3805.33
CC12NC(=N)C1(O)C2O	C[C@@]12N[C]([NH])[C@]1(O)[C@H]2O	
InChI=1S/C5H8N2O2/c1-4-2(8)5(4,9)3(6)7-4/h2,8-9H,1H3,(H2,6,7)	InChI=1S/C5H8N2O2/c1-4-2(8)5(4,9)3(6)7-4/h2,8-9H,1H3,(H2,6,7)/t2-,4-,5+/m0/s1
