19
gdb 80076	2.46858	1.83103	1.54791	1.4546	79.57	-0.2252	0.0096	0.2347	957.4756	0.16192	-385.868066	-385.86079	-385.859846	-385.899324	30.297	
O	 0.1122911444	 1.4071595437	 0.0330499496	-0.4192
C	 0.0085352582	 0.0155532504	-0.0045191859	 0.098792
C	-0.416779089	-0.7709175129	 1.2231964036	-0.145422
C	-0.891281844	-0.0048812976	 2.3961567039	-0.098923
C	-2.0666724405	 0.6413062966	 2.4365079795	-0.086135
C	-3.0731506804	 0.5848842369	 1.3534405918	-0.063193
C	-2.9420152878	 1.3590218331	 0.0508295692	-0.314548
C	-2.6787305519	-0.1247554433	 0.0691120349	-0.038472
C	-1.305022573	-0.7329509381	-0.0272747592	-0.097051
H	-0.0748439522	 1.6886699921	 0.9385503546	 0.283609
H	 0.8083839461	-0.4145886623	-0.6015203058	 0.10118
H	 0.144387492	-1.6738382138	 1.4451189684	 0.087309
H	-0.2298749091	 0.0355263642	 3.2581235436	 0.092352
H	-2.3422466358	 1.1844681427	 3.3374753683	 0.091514
H	-4.0938135754	 0.4533734046	 1.7031324635	 0.088527
H	-3.8683837892	 1.6932851312	-0.4037081137	 0.107146
H	-2.1013529198	 2.0234032097	-0.0853638645	 0.139754
H	-3.4478740234	-0.7472847646	-0.375228306	 0.0862
H	-1.2800889893	-1.6361966826	-0.6286385258	 0.086562
128.8543	201.9891	280.6928	330.1147	350.6591	447.3219	507.3146	514.8936	607.1853	678.4004	709.965	750.9625	776.0673	781.615	824.3517	842.0094	900.2136	927.6594	975.3421	998.3913	1003.7366	1054.1518	1055.5904	1063.1932	1086.1509	1115.125	1123.3983	1126.0125	1132.1315	1210.7395	1222.5078	1252.3841	1339.7056	1343.712	1381.7608	1391.3762	1398.7	1437.7404	1443.5938	1486.5801	1683.4575	3132.0824	3135.6786	3140.4291	3145.6827	3147.1355	3153.622	3164.7194	3168.4489	3258.7178	3742.289
OC1C2C=CC3CC3C12	O[C@H]1[C@H]2C=C[C@H]3C[C@H]3[C@@H]12	
InChI=1S/C8H10O/c9-8-5-2-1-4-3-6(4)7(5)8/h1-2,4-9H,3H2	InChI=1S/C8H10O/c9-8-5-2-1-4-3-6(4)7(5)8/h1-2,4-9H,3H2/t4-,5-,6+,7-,8-/m0/s1
