18
gdb 76836	2.48615	1.60908	1.33264	4.8404	71.81	-0.24	0.0305	0.2705	1026.9074	0.14753	-439.087454	-439.078937	-439.077993	-439.12057	32.195	
C	-0.133710662	 1.5910409765	 0.0449919036	-0.419712
C	 0.0288465223	 0.0791155047	 0.0299622325	-0.025569
C	 1.0943715064	-0.5393730381	-0.950453561	 0.089961
O	 1.9589258411	 0.342692982	-1.6247979811	-0.404995
C	 1.7909363525	-1.2565676763	 0.2391721065	-0.231219
C	 0.760975862	-0.6050517059	 1.2228897794	 0.001912
N	 1.8823179798	 0.1323907825	 1.8039757105	-0.323605
C	 2.8459574987	-0.369765807	 0.9452135138	 0.444466
O	 4.021956495	-0.166397732	 0.8412062831	-0.354662
H	 0.8305305766	 2.0919543913	 0.1601913421	 0.134631
H	-0.581272918	 1.9471476689	-0.8895645171	 0.111535
H	-0.7906949131	 1.9076265815	 0.8626115285	 0.114967
H	-0.9412455208	-0.4045905326	-0.1273220014	 0.072261
H	 0.640207894	-1.2564433252	-1.6465195392	 0.07517
H	 1.4832915614	 0.7306755329	-2.3660952687	 0.288121
H	 1.9924898657	-2.3225173704	 0.1621375003	 0.096725
H	 0.1670160413	-1.1727150418	 1.9403565994	 0.084269
H	 1.9000299871	 0.9714150891	 2.3670761888	 0.245742
69.7815	142.1182	186.2346	219.9109	246.0159	263.8516	380.7844	423.0917	481.4686	518.7122	558.4316	643.0021	759.0833	773.8862	784.7323	867.7136	880.4535	927.1517	966.174	989.6412	1027.5137	1090.9017	1124.302	1141.4973	1143.5651	1166.0317	1168.8522	1222.2994	1246.8835	1283.3527	1313.9327	1341.5141	1351.7097	1367.3318	1404.4201	1425.3504	1493.5665	1500.3606	1900.1628	3007.0789	3032.336	3049.1471	3090.5222	3099.9696	3123.1855	3147.2239	3592.4714	3820.4563
CC1C(O)C2C1NC2=O	C[C@H]1[C@@H](O)[C@@H]2[C@H]1NC2=O	
InChI=1S/C6H9NO2/c1-2-4-3(5(2)8)6(9)7-4/h2-5,8H,1H3,(H,7,9)	InChI=1S/C6H9NO2/c1-2-4-3(5(2)8)6(9)7-4/h2-5,8H,1H3,(H,7,9)/t2-,3+,4+,5-/m1/s1
