12
gdb 132080	2.35105	1.8296	1.0289	5.091	61.51	-0.226	-0.0419	0.1841	1011.8743	0.077461	-521.930546	-521.923604	-521.92266	-521.962074	26.203	
F	 0.0143531003	 0.0199425074	 0.0036395635	-0.049936
C	-0.0077162133	 1.3478018756	 0.0106039446	 0.21302
C	-1.2012495386	 2.0051466943	 0.030421903	-0.018818
F	-2.3484781942	 1.3407343891	 0.0429658436	-0.042868
C	-1.281715478	 3.4556732319	 0.0388339701	 0.353634
O	-2.2985659647	 4.1223757685	 0.0562352954	-0.384404
N	-0.008547938	 4.0575031561	 0.0241768898	-0.374594
C	 1.1855767741	 3.4034383102	 0.0043698376	 0.050243
C	 1.2288671359	 2.0463025569	-0.0030199125	-0.297925
H	-0.0388359075	 5.0678434881	 0.0296573808	 0.270048
H	 2.0725353399	 4.023097099	-0.0048206462	 0.148704
H	 2.1606909142	 1.5004460131	-0.0186471596	 0.132897
132.5472	211.8579	276.2551	293.4796	330.8338	481.8422	520.5719	520.7964	571.5819	615.2261	700.155	704.52	747.5197	762.1172	862.0851	912.0742	1054.4397	1099.6765	1203.6829	1236.1059	1288.4016	1335.8925	1452.7915	1506.8652	1614.0389	1696.2217	1791.714	3221.867	3247.7868	3608.2916
FC1=C(F)C(=O)NC=C1	Fc1c(F)c(=O)[nH]cc1	
InChI=1S/C5H3F2NO/c6-3-1-2-8-5(9)4(3)7/h1-2H,(H,8,9)	InChI=1S/C5H3F2NO/c6-3-1-2-8-5(9)4(3)7/h1-2H,(H,8,9)
