19
gdb 80678	2.89604	1.44308	1.19658	2.0103	75.39	-0.2379	0.0754	0.3133	1096.547	0.158627	-422.951705	-422.943468	-422.942524	-422.984698	31.266	
C	 0.0196471567	 1.588064684	-0.2770517642	-0.425697
C	 0.10671371	 0.0999057433	-0.0304374575	-0.012305
C	 1.3529728286	-0.7159978113	-0.083660962	 0.072545
O	 2.4845017089	-0.0189226176	 0.4669135581	-0.299687
C	 1.8989072378	-0.09648636	 1.7883617687	 0.107957
C	 2.0415888572	 1.1336942981	 2.6455480103	 0.05611
C	 3.1411885224	 2.0855130312	 2.4399353414	-0.181533
O	 1.7903471513	 2.4284646488	 2.1122925894	-0.218185
C	 0.578458604	-0.6309054718	 1.2218923946	-0.197215
H	 0.9198253897	 2.0993003273	 0.0582343708	 0.159199
H	-0.1215001255	 1.7787148107	-1.3469550586	 0.105338
H	-0.8317769063	 2.0238329715	 0.2562860165	 0.11238
H	-0.7241178151	-0.4646424889	-0.4559659741	 0.089448
H	 1.5656145813	-1.5395619134	-0.7560240271	 0.10098
H	 2.3905931649	-0.9097069279	 2.3476896998	 0.086841
H	 1.6682551425	 0.9887399852	 3.6619325178	 0.095798
H	 3.5655311299	 2.6175718547	 3.2896027219	 0.115138
H	 3.7969308817	 1.9476946332	 1.5835363516	 0.136728
H	-0.0273996299	-1.3790790471	 1.7157183427	 0.09616
78.8943	138.7597	165.5123	213.262	230.7382	265.4988	394.6699	459.0668	594.9041	630.6073	718.0935	751.667	802.8396	817.2476	868.3938	906.4101	935.0307	959.7583	989.2269	1008.598	1046.0931	1056.2382	1063.9598	1089.6166	1102.9703	1123.5667	1148.7872	1166.7198	1175.6193	1218.9675	1259.4766	1286.1834	1292.0957	1339.436	1392.5026	1417.5801	1433.5607	1448.2531	1496.2073	1501.2755	1523.3034	2966.421	3035.5106	3086.8063	3090.672	3096.1368	3104.2802	3173.5576	3175.4342	3190.8187	3198.0744
CC1C2OC(C3CO3)C12	C[C@H]1[C@H]2O[C@@H]([C@H]3CO3)[C@@H]12	
InChI=1S/C7H10O2/c1-3-5-6(3)9-7(5)4-2-8-4/h3-7H,2H2,1H3	InChI=1S/C7H10O2/c1-3-5-6(3)9-7(5)4-2-8-4/h3-7H,2H2,1H3/t3-,4-,5+,6-,7+/m1/s1
