18
gdb 36369	3.81953	0.90491	0.82685	5.4391	76.49	-0.2826	0.0406	0.3232	1395.1678	0.147484	-401.926104	-401.917412	-401.916468	-401.960335	31.624	
N	-0.1094206395	-0.8174815234	-0.9167330832	-0.30866
C	-0.0672274664	 0.2166934507	-0.4028732554	 0.262924
C	 0.0049058779	 1.5239038827	 0.2524211298	-0.377629
C	 1.4296037053	 2.0622930054	 0.2861655773	-0.007806
C	 1.9741163632	 2.8422650505	-0.8837719643	-0.295468
C	 1.7073173769	 3.5446133311	 0.4232005558	-0.063458
C	 0.6095438447	 4.5567095738	 0.5429281044	 0.055622
C	 0.4665489436	 5.6697177638	-0.4071124264	-0.176498
O	-0.4153828328	 4.5441574676	-0.4552264223	-0.229952
H	-0.6537636624	 2.2191787983	-0.2757108637	 0.183633
H	-0.393260158	 1.4177867807	 1.2689675862	 0.14783
H	 2.1294479056	 1.4050248605	 0.793329291	 0.106581
H	 3.0000670286	 2.6767485384	-1.1905555378	 0.120963
H	 1.2816130468	 3.0497997205	-1.6926662181	 0.137757
H	 2.5725011042	 3.7956045752	 1.0321075586	 0.099238
H	 0.2293857564	 4.7131466495	 1.5541568659	 0.099334
H	 0.0071263559	 6.6028786761	-0.0866481356	 0.122622
H	 1.1639177301	 5.7468134586	-1.2390662023	 0.122967
57.6322	96.9873	106.8501	182.6293	214.165	307.0284	356.9305	397.3313	497.5018	543.8634	605.5367	733.6988	812.7219	850.3552	865.1487	887.1776	921.5923	935.9582	987.5278	1010.0486	1067.7456	1081.298	1097.9547	1115.1265	1138.6334	1157.3257	1166.9984	1174.1828	1230.8585	1258.6395	1292.0618	1323.0099	1386.3115	1419.6003	1435.219	1469.515	1491.336	1524.3342	2361.8036	3041.5311	3090.0175	3094.6223	3101.8738	3137.4134	3140.1457	3156.4326	3184.3678	3229.0918
N#CCC1CC1C1CO1	N#CC[C@H]1C[C@H]1[C@H]1CO1	
InChI=1S/C7H9NO/c8-2-1-5-3-6(5)7-4-9-7/h5-7H,1,3-4H2	InChI=1S/C7H9NO/c8-2-1-5-3-6(5)7-4-9-7/h5-7H,1,3-4H2/t5-,6+,7+/m0/s1
