17
gdb 38908	3.6741	1.59981	1.27506	2.8076	73.91	-0.2426	-0.0016	0.241	983.1696	0.13782	-421.801048	-421.794288	-421.793344	-421.832328	26.99	
C	-0.0434588418	 1.4817119669	 0.208936412	-0.294353
C	 1.2759780516	 0.7909619418	 0.0316281592	 0.103741
O	 2.0074613989	 0.4900393194	 1.2052695798	-0.281936
C	 1.5655508443	-0.8107398957	 1.6342143943	 0.189838
O	 1.609019987	-1.018625976	 3.0110403415	-0.269411
C	 0.3102879827	-1.4519221875	 3.4530537438	-0.1109
C	-0.6162911981	-1.2002319496	 2.2866908908	-0.25579
C	 0.1118921958	-0.8231024014	 1.2431051769	 0.264794
C	-0.0042412354	-0.0299748701	-0.0061293716	-0.210747
H	-0.2900240609	 1.849306144	 1.1980570522	 0.12842
H	-0.4122491118	 2.0821880015	-0.6169993688	 0.11485
H	 1.8876123574	 0.9709558323	-0.8463703308	 0.100456
H	 2.1995400576	-1.5593365424	 1.1281457193	 0.070003
H	 0.3675591758	-2.5066459767	 3.7615671739	 0.11304
H	 0.0122473431	-0.8679726331	 4.3344181016	 0.120504
H	-1.6946837425	-1.2177954259	 2.3791480981	 0.112166
H	-0.3998386237	-0.4495317575	-0.9230158122	 0.105325
102.2862	151.0468	275.2952	394.7007	414.1588	462.8235	607.5724	666.2636	721.0815	782.8215	791.1087	818.8157	827.6898	902.8267	936.278	955.4636	970.3162	999.5361	1003.6853	1035.2961	1052.7008	1061.4517	1092.9519	1107.4997	1142.3636	1172.0998	1188.1448	1195.0531	1264.1498	1310.0951	1337.5185	1352.7263	1382.8258	1406.246	1464.734	1515.2797	1744.9343	2947.3062	2991.9218	3028.1086	3130.3099	3161.1508	3181.4587	3217.3843	3228.3017
C1C2OC3OCC=C3C12	C1[C@H]2O[C@H]3OC[CH][C]3[C@@H]12	
InChI=1S/C7H8O2/c1-2-8-7-4(1)5-3-6(5)9-7/h1,5-7H,2-3H2	InChI=1S/C7H8O2/c1-2-8-7-4(1)5-3-6(5)9-7/h1,5-7H,2-3H2/t5-,6-,7-/m1/s1
