17
gdb 113523	2.74153	1.19029	1.06899	5.6947	69.48	-0.2674	0.0112	0.2787	1182.4852	0.135556	-458.964961	-458.956418	-458.955474	-458.998581	31.085	
O	 0.1560439606	 0.467119169	 0.9056947616	-0.413875
C	-0.1927018184	 0.1668495618	-0.4386223194	-0.099711
C	-1.5237504122	-0.5386079837	-0.4287612075	-0.056356
C	-1.8019522152	-1.637500727	-1.4159130577	-0.362707
C	-1.5667483851	-1.9723733087	 0.0304602169	 0.123717
C	-0.5167763049	-2.8148196838	 0.741322597	-0.152498
O	-1.5673199327	-3.3222217009	 1.6331682639	-0.255367
C	-2.5380786989	-2.5735223674	 1.0020933028	 0.435253
O	-3.7007532292	-2.5198173242	 1.2477419132	-0.345822
H	 0.935066257	 1.031676081	 0.8984008607	 0.291832
H	-0.2650869797	 1.0809191122	-1.0472332049	 0.102342
H	 0.5642043783	-0.4807598379	-0.9112302256	 0.084837
H	-2.3666872678	 0.0707773454	-0.1163419828	 0.120226
H	-2.8131925337	-1.7535875295	-1.7897654018	 0.142519
H	-1.0202462648	-1.9041424825	-2.1205468033	 0.124214
H	-0.0695963359	-3.6331110202	 0.1721413574	 0.120987
H	 0.2353733228	-2.2587498934	 1.3032678095	 0.14041
90.4137	99.9993	145.3538	179.2069	251.1712	282.9544	307.3944	411.7937	438.0662	585.1597	624.0082	718.2941	792.1683	808.2419	870.2013	903.4082	954.156	984.5614	1038.2796	1058.3424	1074.7433	1080.7578	1100.3932	1106.3556	1155.4109	1171.042	1208.1668	1246.9383	1284.468	1311.1423	1353.5818	1421.2563	1467.4562	1497.1619	1514.2786	1518.5303	1934.5573	2963.628	3003.0527	3069.7933	3131.0479	3137.662	3160.3124	3221.2948	3826.0332
OCC1CC11COC1=O	OC[C@H]1C[C@]21COC2=O	
InChI=1S/C6H8O3/c7-2-4-1-6(4)3-9-5(6)8/h4,7H,1-3H2	InChI=1S/C6H8O3/c7-2-4-1-6(4)3-9-5(6)8/h4,7H,1-3H2/t4-,6-/m1/s1
