18
gdb 52781	2.92527	0.93446	0.80195	4.1485	82.51	-0.2439	0.029	0.2729	1483.5221	0.145115	-401.954492	-401.944557	-401.943613	-401.991155	35.201	
C	-0.0253203579	 1.4725180125	 0.0096891961	-0.499448
C	 0.0117969822	 0.0173590254	-0.0042054346	 0.041514
C	 0.039526836	-1.1868573131	-0.0053941647	 0.086638
C	 0.0746750743	-2.6465381643	-0.0327931076	 0.138145
C	 0.8777943156	-3.1697253943	-1.2270205608	-0.431837
C	 0.4102614625	-3.3189035275	 1.3505985187	-0.431808
C	-1.0484784611	-3.8272930381	 1.3383722105	 0.439711
O	-1.7546427497	-4.4468790721	 2.0861072936	-0.358547
N	-1.2622232609	-3.2763146215	 0.096664849	-0.340544
H	 0.6411594102	 1.8783583076	 0.7785629896	 0.153032
H	 0.2862747884	 1.888800498	-0.9544206535	 0.150991
H	-1.0356609381	 1.839797438	 0.2201922064	 0.153513
H	 1.9064255386	-2.8006420209	-1.1840362899	 0.131535
H	 0.8893246216	-4.2633253658	-1.2216212655	 0.122594
H	 0.436222054	-2.8291163996	-2.1681420348	 0.126106
H	 1.1717216786	-4.0997018468	 1.3083051739	 0.130227
H	 0.6302972737	-2.6207108265	 2.1579917747	 0.139233
H	-2.119946738	-3.092060091	-0.4046367211	 0.248947
16.4713	52.8781	111.9524	128.968	241.6191	291.9265	295.3894	325.8516	369.7657	387.6171	462.4148	486.9625	557.7944	573.0225	591.2749	764.6714	835.248	887.4968	948.4873	972.9129	1051.4118	1053.2925	1054.8283	1078.4141	1104.767	1163.677	1191.2447	1247.1678	1280.943	1363.5682	1406.418	1414.2473	1453.855	1476.8154	1477.7146	1484.1769	1493.6188	1897.0604	2366.6605	3028.7521	3040.3976	3089.861	3090.6327	3091.2392	3116.54	3122.2486	3156.0203	3599.9185
CC#CC1(C)CC(=O)N1	CC#C[C@@]1(C)CC(=O)N1	
InChI=1S/C7H9NO/c1-3-4-7(2)5-6(9)8-7/h5H2,1-2H3,(H,8,9)	InChI=1S/C7H9NO/c1-3-4-7(2)5-6(9)8-7/h5H2,1-2H3,(H,8,9)/t7-/m0/s1
