19
gdb 107040	3.93399	1.13819	1.01504	2.3576	75.76	-0.2489	-0.0094	0.2395	1227.942	0.158787	-423.014724	-423.006159	-423.005215	-423.047912	32.881	
C	-0.3572096824	 1.4777026284	-0.2427471108	-0.381729
C	 0.0902473462	 0.0388172554	 0.0479286829	-0.290043
C	 0.9415258824	-0.5391089482	-1.0515196499	 0.403436
O	 0.2323304555	-0.885050936	-2.2848983692	-0.314804
C	 0.8931549371	-1.9208669987	-1.5411461908	-0.08616
C	 2.2502442141	-2.2753912824	-2.1608867212	 0.077347
O	 2.1475563027	-2.6241608583	-3.5315453081	-0.434786
C	 3.0531096029	-0.9985129381	-1.938692719	-0.122032
C	 2.3347554163	-0.0476057301	-1.3413439217	-0.134162
H	 0.4974420578	 2.1550104861	-0.3414762485	 0.118652
H	-0.928643309	 1.5195286305	-1.1743901087	 0.137137
H	-0.9897221252	 1.8578877084	 0.5644226518	 0.116444
H	 0.658175147	 0.0024916748	 0.9861926037	 0.106357
H	-0.7886287526	-0.6006669102	 0.1804865789	 0.110636
H	 0.2457844375	-2.6896615729	-1.1279454749	 0.097448
H	 2.7036135512	-3.1400429316	-1.6632081602	 0.091916
H	 1.5918666595	-1.9387008342	-3.926574526	 0.289233
H	 4.0623160417	-0.8959131453	-2.3208157107	 0.109527
H	 2.6677257274	 0.9572267723	-1.1097782677	 0.105584
76.8481	117.5662	190.6273	197.6172	252.5511	335.9271	366.5877	428.7435	474.1036	530.8241	602.3265	637.86	708.8591	756.3444	782.3457	856.4242	858.0525	879.8144	949.2619	963.5342	976.1108	1011.9251	1057.9874	1064.6626	1087.4672	1103.2161	1134.7788	1228.0532	1267.3669	1270.7562	1300.1681	1304.9301	1360.9043	1372.2925	1410.9431	1433.298	1451.6041	1473.7572	1499.6303	1508.3323	1668.5389	3030.9957	3040.6742	3051.7349	3075.4119	3108.9762	3120.3794	3150.1186	3190.9695	3215.5569	3761.6159
CCC12OC1C(O)C=C2	CC[C@]12O[C@H]1[C@@H](O)C=C2	
InChI=1S/C7H10O2/c1-2-7-4-3-5(8)6(7)9-7/h3-6,8H,2H2,1H3	InChI=1S/C7H10O2/c1-2-7-4-3-5(8)6(7)9-7/h3-6,8H,2H2,1H3/t5-,6-,7+/m0/s1
