19
gdb 102983	1.92747	1.44744	1.12349	3.5593	78.69	-0.2402	0.045	0.2852	1198.7724	0.156239	-422.967777	-422.957587	-422.956643	-423.002408	37.74	
C	-0.0509282957	 1.5025615826	-0.1032787493	-0.430383
C	 0.0735490957	-0.0007068202	 0.0198694837	-0.094796
C	 1.4136086897	-0.687556638	 0.0051891703	 0.041306
O	 2.5891732836	 0.0746760825	 0.073989105	-0.427307
C	 0.6009162895	-0.7025211755	 1.2885743881	 0.038005
C	 1.1488038589	 0.1116283468	 2.4654703373	-0.12691
O	 2.3692732589	-0.409151757	 2.951487746	-0.424031
C	-0.0214739183	-1.9494553369	 1.6438398111	 0.28388
C	-0.5597623227	-2.9839420751	 1.9398925614	-0.435608
H	 0.8670178218	 2.0139123772	 0.193673456	 0.130863
H	-0.2585736705	 1.7739103576	-1.144383972	 0.11849
H	-0.8724845274	 1.8906573478	 0.5069235326	 0.130749
H	-0.7200378076	-0.5569636206	-0.4704413751	 0.100181
H	 1.5141760735	-1.6287186984	-0.5314578087	 0.106064
H	 2.7736833978	 0.4435035607	-0.7962376515	 0.29774
H	 1.2502104259	 1.164923239	 2.1799972622	 0.091021
H	 0.4371216038	 0.0595673239	 3.2941090827	 0.115994
H	 3.0047159658	-0.3162570791	 2.2319730203	 0.295047
H	-1.0218688928	-3.9005378874	 2.2104581299	 0.189695
92.8722	123.1749	147.9384	161.2248	187.6365	211.2765	258.0266	295.7523	324.5734	415.8375	441.9698	481.7236	532.4475	557.8093	582.4932	609.9513	643.1495	737.7251	817.5908	864.6206	934.1994	968.4383	1028.8208	1055.8696	1076.0379	1106.7666	1130.4624	1163.0219	1207.654	1257.1504	1289.0952	1301.0755	1373.7487	1393.3718	1417.0399	1439.3806	1443.8711	1495.4303	1499.7414	1508.2109	2233.2464	3033.374	3038.3249	3093.0932	3094.2078	3123.1127	3125.7143	3155.4448	3504.2308	3796.406	3806.6581
CC1C(O)C1(CO)C#C	C[C@H]1[C@@H](O)[C@]1(CO)C#C	
InChI=1S/C7H10O2/c1-3-7(4-8)5(2)6(7)9/h1,5-6,8-9H,4H2,2H3	InChI=1S/C7H10O2/c1-3-7(4-8)5(2)6(7)9/h1,5-6,8-9H,4H2,2H3/t5-,6+,7-/m0/s1
