17
gdb 33220	5.72545	0.78325	0.7052	4.3339	72.85	-0.1938	0.0244	0.2182	1540.3488	0.137143	-455.157375	-455.148765	-455.147821	-455.191899	30.798	
O	 0.0986471386	 1.2648416687	-0.3945263155	-0.422456
C	-0.078515459	-0.0427168264	 0.1397067872	-0.094086
C	-1.5693888996	-0.3316489976	 0.122104454	-0.134483
N	-2.0495143719	-0.2560680843	-1.2576102003	-0.414184
C	-3.379172749	-0.4950909207	-1.518516158	 0.408562
C	-4.3025999379	 0.0195097112	-2.377870084	-0.215737
N	-5.479605608	-0.7181243443	-2.2674941083	-0.247186
C	-5.2266585053	-1.6024030869	-1.3682370719	 0.061362
O	-3.9584971638	-1.5398378073	-0.8579374885	-0.181482
H	 1.0355349886	 1.407417588	-0.554683979	 0.295421
H	 0.4456247809	-0.7932629805	-0.4688673828	 0.104218
H	 0.2943568825	-0.1089520209	 1.1723135268	 0.097361
H	-1.7525752562	-1.3363159889	 0.5118709715	 0.12861
H	-2.0858793844	 0.3845621114	 0.7805235792	 0.109292
H	-1.712680033	 0.584939226	-1.708302245	 0.253312
H	-4.2070225392	 0.850526016	-3.0568591369	 0.109188
H	-5.8695455131	-2.3640175234	-0.9584722384	 0.142287
49.441	63.9056	118.3342	177.318	261.3523	293.2592	327.2206	439.135	487.6539	645.3235	678.5576	707.2149	766.786	780.2103	781.3927	891.7311	922.2694	939.3541	987.0939	1079.3233	1095.1995	1104.6927	1124.7518	1130.2638	1206.2265	1250.9588	1269.9578	1295.5625	1302.6662	1368.6469	1389.3289	1458.1225	1473.045	1502.9425	1512.9086	1572.8004	1659.0328	2982.0551	2991.0787	3033.0827	3099.2074	3269.2273	3285.0396	3583.2385	3842.1042
OCCNC1=CN=CO1	OCCNc1cnco1	
InChI=1S/C5H8N2O2/c8-2-1-7-5-3-6-4-9-5/h3-4,7-8H,1-2H2	InChI=1S/C5H8N2O2/c8-2-1-7-5-3-6-4-9-5/h3-4,7-8H,1-2H2
