17
gdb 98371	2.18611	1.17639	0.82016	3.8631	75.93	-0.2501	-0.0372	0.2129	1394.0421	0.130629	-421.817299	-421.806878	-421.805934	-421.854644	35.511	
C	-0.1410755248	 1.5871468114	-0.4485441804	-0.380612
C	-0.5624190533	 0.1439747551	-0.7139298451	-0.287235
C	-1.176502562	-0.5339269443	 0.4927924126	 0.379449
O	-1.3599110558	 0.0197326337	 1.5492113847	-0.28654
C	-1.5480433365	-2.0369796165	 0.3469974734	-0.34006
C	-2.2997292039	-2.487557833	 1.6133883787	 0.182325
O	-1.8650999458	-3.2981580849	 2.3811798492	-0.235994
C	-2.3514544382	-2.3151339142	-0.833682116	 0.291926
C	-3.0692405889	-2.5441103929	-1.770889973	-0.449095
H	 0.2919328729	 2.0300173392	-1.3492969032	 0.116753
H	-0.9970949861	 2.1930183255	-0.1416639724	 0.13633
H	 0.5996340232	 1.6394224624	 0.3534967469	 0.134538
H	-1.2908620725	 0.0781458069	-1.5318738206	 0.147169
H	 0.2860307122	-0.4708996434	-1.0454570018	 0.128769
H	-0.6075901427	-2.6032351851	 0.3118051635	 0.145854
H	-3.2895494271	-2.0072031998	 1.7436512466	 0.105575
H	-3.6867042406	-2.7543902901	-2.609453123	 0.210848
22.6217	53.5776	78.6957	121.0103	165.2873	200.8711	204.7447	281.5446	348.6671	400.2841	476.9733	495.5694	520.096	632.1051	656.0717	672.0073	758.4045	817.0454	938.8447	979.1578	1010.3215	1063.1123	1081.1816	1089.4858	1126.3531	1219.2626	1254.3257	1285.8446	1370.512	1413.2825	1415.3058	1447.0703	1493.0281	1498.3604	1806.2132	1847.3256	2229.425	2939.8312	3024.0575	3031.966	3053.7449	3059.9442	3126.1576	3129.6521	3500.3154
CCC(=O)C(C=O)C#C	CCC(=O)[C@@H](C=O)C#C	
InChI=1S/C7H8O2/c1-3-6(5-8)7(9)4-2/h1,5-6H,4H2,2H3	InChI=1S/C7H8O2/c1-3-6(5-8)7(9)4-2/h1,5-6H,4H2,2H3/t6-/m1/s1
