18
gdb 70642	2.4345	1.61479	1.18155	5.6701	76.15	-0.2343	0.0314	0.2657	1080.703	0.149199	-398.116812	-398.108557	-398.107613	-398.149496	31.503	
C	-0.3328991511	 1.3827944004	-0.0041803936	-0.500786
C	 0.049676033	-0.069194169	 0.0821260911	 0.327095
N	-0.6417459965	-0.9913883343	 1.0003894357	-0.34268
C	 0.7957674888	-0.7053986323	 1.1941068434	-0.093342
C	 1.6965332019	-1.7799987359	 0.6223451401	-0.166505
N	 1.1326059031	-2.0194759135	-0.7114350669	-0.304284
C	 0.5049535442	-0.7893127589	-1.1952215806	-0.162911
C	-0.5976312655	-1.0757481998	-2.1271053281	 0.306537
N	-1.4549757402	-1.2529392145	-2.8809448208	-0.332927
H	 0.4604316822	 1.9778000719	-0.4695058968	 0.127975
H	-1.2424265178	 1.512477563	-0.6009757614	 0.149745
H	-0.5211017187	 1.7934158063	 0.9927020413	 0.121583
H	-1.1863054117	-0.4424303703	 1.662612477	 0.232165
H	 1.1207899417	-0.1377695451	 2.0595690267	 0.095125
H	 2.7323425151	-1.4000284742	 0.6109331586	 0.0889
H	 1.6802889469	-2.7077173611	 1.2054562707	 0.119307
H	 1.7917430387	-2.4103747136	-1.3705009821	 0.233837
H	 1.1974632858	-0.1067825292	-1.7204272744	 0.101166
100.6872	128.8928	205.5642	238.0461	261.2499	316.5096	380.5033	441.3251	505.0022	517.954	553.9085	636.8593	700.5788	833.2487	853.0311	878.8148	926.832	951.1752	995.0668	1010.1147	1051.3169	1066.6341	1095.0857	1105.3652	1124.6745	1157.8698	1218.0935	1260.5727	1304.4214	1331.1637	1361.4	1371.1016	1420.3426	1440.8677	1459.0345	1485.2314	1502.7523	1513.9015	2360.3888	2933.9755	2958.1459	3030.6126	3054.425	3095.6884	3105.8126	3170.8755	3492.2983	3583.177
CC12NC1CNC2C#N	C[C@]12N[C@H]1CN[C@H]2C#N	
InChI=1S/C6H9N3/c1-6-4(2-7)8-3-5(6)9-6/h4-5,8-9H,3H2,1H3	InChI=1S/C6H9N3/c1-6-4(2-7)8-3-5(6)9-6/h4-5,8-9H,3H2,1H3/t4-,5-,6+/m0/s1
