14
gdb 42237	4.10168	0.99401	0.87755	4.6291	70.25	-0.2591	-0.0755	0.1836	1259.1863	0.098868	-436.679192	-436.670644	-436.6697	-436.713452	30.363	
O	 0.018999161	-0.0989389454	 0.0212452355	-0.280534
C	 0.0040803877	 1.1116662787	 0.010965683	 0.228078
C	 1.2142484913	 1.9109375892	-0.0323960471	 0.259352
C	 2.1993614576	 2.6017252752	-0.070156495	-0.406376
C	-1.2886415964	 1.9125182892	 0.0510492415	-0.078833
C	-1.7412110332	 2.5226409504	-1.3179033933	-0.392934
C	-2.9182956924	 1.5180510685	-1.2197278976	 0.427456
O	-3.8318404124	 1.1933630605	-1.9223406796	-0.336636
N	-2.5028755625	 1.1067643147	 0.0334180713	-0.311814
H	 3.0821689071	 3.1937688459	-0.1035860269	 0.223451
H	-1.2348138529	 2.6391442675	 0.8704436274	 0.114644
H	-2.0202757	 3.5763636163	-1.2936494381	 0.143462
H	-1.0704550954	 2.3351258068	-2.1581437604	 0.147359
H	-2.6802277795	 0.2347948826	 0.5118974995	 0.263325
43.0045	74.0723	126.4633	198.0412	262.1125	314.2972	391.357	444.8215	499.2709	566.643	585.3365	659.7823	700.6708	718.4652	761.1515	786.3146	916.3385	988.6202	1001.9337	1029.8794	1100.54	1139.0022	1169.6229	1191.1174	1260.945	1352.7603	1376.3631	1458.8245	1771.5185	1908.6605	2211.9374	3040.1478	3092.9505	3154.4877	3491.3801	3609.3256
O=C(C#C)C1CC(=O)N1	O=C(C#C)[C@H]1CC(=O)N1	
InChI=1S/C6H5NO2/c1-2-5(8)4-3-6(9)7-4/h1,4H,3H2,(H,7,9)	InChI=1S/C6H5NO2/c1-2-5(8)4-3-6(9)7-4/h1,4H,3H2,(H,7,9)/t4-/m1/s1
