16
gdb 48172	3.58099	0.80906	0.68587	2.1749	68.46	-0.2547	-0.0786	0.176	1565.0824	0.122766	-475.029981	-475.020919	-475.019975	-475.065685	31.052	
O	-0.5432939575	 1.495369589	-0.88813014	-0.243641
C	 0.2145330537	 1.1241340842	-0.0298041274	 0.103944
C	 1.4903948439	 1.8777789817	 0.3595254463	 0.302426
O	 2.2134676789	 1.4453205354	 1.2401096467	-0.359744
N	 1.6800087953	 3.0029568995	-0.3634260781	-0.305705
C	 2.807144275	 3.8957052468	-0.1724438879	-0.19022
C	 2.3511389719	 5.2924975545	 0.1742164257	 0.087459
C	 3.044376133	 6.4767300331	-0.343167025	-0.175405
O	 1.8051803135	 6.0490671545	-0.9114018332	-0.236624
H	 0.066285007	 0.2011597199	 0.564361983	 0.118609
H	 0.9746974294	 3.2257121921	-1.0527984815	 0.275424
H	 3.4110403914	 3.4721870707	 0.634912592	 0.152611
H	 3.4185078815	 3.9307983968	-1.082213464	 0.119323
H	 1.7898834825	 5.3813753802	 1.1049740837	 0.107321
H	 3.0068882609	 7.4092171688	 0.2169455384	 0.124607
H	 3.9186438394	 6.3523727931	-0.9808102886	 0.119616
42.41	56.5109	77.1419	170.3928	195.623	257.1394	264.4678	410.0806	487.735	510.4442	576.7161	662.1379	704.8451	796.8616	861.2582	884.6441	951.503	1019.7602	1026.3281	1096.2266	1109.9269	1143.6216	1162.2379	1173.2018	1242.9414	1286.5421	1297.1056	1360.8474	1362.9219	1449.1551	1475.7865	1528.3399	1554.1565	1785.1258	1824.7009	2958.0818	3034.8303	3087.8733	3105.0406	3116.6001	3176.0317	3600.658
O=CC(=O)NCC1CO1	O=CC(=O)NC[C@H]1CO1	
InChI=1S/C5H7NO3/c7-2-5(8)6-1-4-3-9-4/h2,4H,1,3H2,(H,6,8)	InChI=1S/C5H7NO3/c7-2-5(8)6-1-4-3-9-4/h2,4H,1,3H2,(H,6,8)/t4-/m0/s1
