16
gdb 47265	2.72064	1.57248	1.10994	1.6992	72.61	-0.2514	-0.0687	0.1827	1060.6193	0.125761	-437.888342	-437.880665	-437.87972	-437.920967	28.667	
O	 0.0329616118	 0.4379600354	 1.203790007	-0.305617
C	-0.0014423708	 1.3092440209	 0.3589948938	 0.355685
C	-1.3661406717	 1.8144667331	-0.1331133272	-0.192184
O	-1.5314559912	 3.227084054	 0.0122701853	-0.221126
C	-1.1869690776	 4.1158225049	-0.9535042915	 0.149464
N	-0.4525808882	 4.0582916551	-1.9770859799	-0.256251
C	 0.3561170371	 2.9005563812	-2.3583189883	-0.236651
C	 1.4136905443	 2.5530281817	-1.3268495233	-0.049567
C	 1.247577557	 1.8957518678	-0.1732555249	-0.129568
H	-1.5689626774	 1.4989462049	-1.1599860346	 0.132624
H	-2.1153274454	 1.3646973697	 0.5196054587	 0.14464
H	-1.6751994637	 5.0608881922	-0.7141331333	 0.129813
H	-0.2535098495	 2.022447451	-2.5962756807	 0.120384
H	 0.8628887447	 3.1689617785	-3.2887935579	 0.119983
H	 2.4207339417	 2.8827358433	-1.5709569743	 0.120813
H	 2.1108204592	 1.6826023563	 0.4507161812	 0.117558
54.9399	170.6797	220.5079	248.4925	304.462	335.8945	444.5518	484.7454	547.726	631.9124	666.14	761.3486	791.4846	821.6591	924.3571	937.1094	973.8216	979.9348	999.9537	1028.3169	1076.3106	1162.7359	1204.8479	1243.6469	1265.9299	1307.3242	1361.1651	1373.5606	1410.9957	1435.1985	1478.2235	1534.5178	1689.7773	1748.8002	1769.5549	3040.9784	3073.2069	3082.252	3137.4641	3139.809	3155.9088	3182.2557
O=C1COC=NCC=C1	O=C1COC=NCC=C1	
InChI=1S/C6H7NO2/c8-6-2-1-3-7-5-9-4-6/h1-2,5H,3-4H2/b2-1-,7-5-	InChI=1S/C6H7NO2/c8-6-2-1-3-7-5-9-4-6/h1-2,5H,3-4H2/b2-1-,7-5-
