15
gdb 32038	2.98491	1.47393	0.99291	3.5796	75.06	-0.2178	-0.0476	0.1703	1130.0581	0.113198	-453.973177	-453.965233	-453.964289	-454.006218	28.731	
C	-0.111886218	 1.4511270277	 0.0098009257	-0.2512
O	-0.0519875977	 0.0134040556	 0.0054724554	-0.251532
C	-1.1838178954	-0.6681864106	 0.0120407286	 0.531512
C	-1.2211658123	-2.0329358593	 0.0085727983	-0.336376
C	-2.5198120297	-2.5963262346	 0.0167670734	 0.037837
N	-3.6371097947	-1.9221297476	 0.0269502625	-0.329723
C	-3.5776051348	-0.5513584489	 0.0302409452	 0.425277
N	-4.5214994509	 0.2896092015	 0.0393188356	-0.529277
O	-2.2837324032	 0.0661801849	 0.0223123156	-0.238054
H	 0.9281040187	 1.7747699011	 0.0027960496	 0.148015
H	-0.6328483262	 1.8200170122	-0.8762876649	 0.156947
H	-0.6193412199	 1.8152092178	 0.9056643677	 0.15694
H	-0.3152590581	-2.617904042	 0.0001923272	 0.119805
H	-2.6167010693	-3.6817336906	 0.0145592262	 0.123397
H	-5.4007866487	-0.2245892172	 0.0443402139	 0.236432
84.6952	114.8511	144.8316	207.7393	209.2185	428.606	439.8784	503.2824	563.7684	574.7518	714.4669	753.9118	764.6311	772.5918	850.1881	890.9027	963.3941	1007.2702	1013.9122	1055.2611	1098.5406	1173.1533	1198.4194	1233.5644	1352.5989	1409.6259	1411.3325	1486.4294	1486.5828	1496.0295	1577.7587	1674.7193	1744.3965	3059.3323	3136.351	3139.9998	3170.3937	3259.006	3521.8552
COC1=CC=NC(=N)O1	CO[C@H]1C=CN=C([NH])O1	
InChI=1S/C5H6N2O2/c1-8-4-2-3-7-5(6)9-4/h2-3,6H,1H3	InChI=1S/C5H7N2O2/c1-8-4-2-3-7-5(6)9-4/h2-4,6H,1H3/t4-/m1/s1
