18
gdb 128270	6.36407	0.87027	0.77705	2.7693	76.83	-0.1855	0.0541	0.2396	1478.8657	0.149433	-431.469542	-431.460011	-431.459067	-431.504038	33.643	
C	 0.0070748558	 1.338197004	 0.2128179025	-0.341018
N	-0.0265458886	-0.055510151	-0.1890844872	-0.38419
C	-1.1723472496	-0.7925317015	-0.035689643	 0.470529
N	-1.2277592127	-2.1140064735	-0.0105768936	-0.431394
C	-2.5735559857	-2.349830537	 0.1019228291	 0.436778
N	-3.0541440295	-3.6323199917	 0.2092485571	-0.372905
C	-4.469911981	-3.8726089784	 0.0009952267	-0.314619
N	-3.3513571981	-1.27967034	 0.1432991413	-0.327245
N	-2.4083371418	-0.2654129721	 0.076793335	-0.276852
H	 1.0185254766	 1.7225354761	 0.0697547693	 0.139919
H	-0.6565082546	 1.9342715564	-0.4247366391	 0.131579
H	-0.2845401383	 1.4997518715	 1.2615245693	 0.125787
H	 0.7981847424	-0.5984334184	 0.0164754206	 0.257928
H	-2.4242588234	-4.3128115818	-0.186955051	 0.243277
H	-4.6796582885	-4.9307908103	 0.1747209001	 0.114827
H	-5.0460476217	-3.2818873346	 0.7176485007	 0.147424
H	-4.8158495997	-3.5997916047	-1.007240538	 0.113048
H	-2.7100730715	 0.6906277569	 0.0299315201	 0.267127
74.3594	103.7203	144.21	156.9304	179.2901	229.9385	251.353	299.0454	367.7329	422.9308	497.8406	514.293	622.9622	708.5152	725.8126	778.2532	782.9001	995.1453	1036.5861	1087.4099	1106.8511	1138.4801	1156.5449	1158.9314	1187.0564	1198.5977	1310.2319	1367.9775	1394.6097	1452.182	1463.3672	1480.8202	1488.5167	1500.0204	1515.8811	1523.1802	1558.4435	1623.6279	1658.2185	2990.287	2993.0276	3057.4368	3084.9171	3127.4498	3129.9199	3623.5172	3625.6261	3698.5363
CNC1=NC(NC)=NN1	CNc1nc(NC)n[nH]1	
InChI=1S/C4H9N5/c1-5-3-7-4(6-2)9-8-3/h1-2H3,(H3,5,6,7,8,9)	InChI=1S/C4H9N5/c1-5-3-7-4(6-2)9-8-3/h1-2H3,(H3,5,6,7,8,9)
