21
gdb 40968	3.24501	1.26095	1.12671	2.3717	77.62	-0.244	0.0731	0.3171	1162.2948	0.184863	-424.212521	-424.204542	-424.203598	-424.245272	31.072	
C	 0.0575930863	 1.5438573495	-0.0791456005	-0.137901
O	 1.4708741273	 1.5550305501	 0.200773416	-0.273902
C	 1.4729701163	 0.1364909423	 0.4661589686	-0.113851
C	 0.004120847	 0.0018171784	-0.0081887412	 0.297125
C	-0.9875982821	-0.6382490086	 0.963347022	-0.291314
C	-0.825945962	-2.1663343474	 0.9593824198	-0.210601
C	-0.8791760067	-2.6981427203	-0.4742120737	-0.063038
O	 0.0809466318	-2.06324125	-1.3042669875	-0.247444
C	-0.1230881263	-0.6641886098	-1.379178574	-0.137706
H	-0.5223382277	 2.0574097201	 0.7007058289	 0.092404
H	-0.175720437	 1.9986423349	-1.0511132082	 0.098041
H	 2.2275401904	-0.3972000209	-0.1226482882	 0.110147
H	 1.6322156795	-0.0779878353	 1.5322280039	 0.091364
H	-0.8529454904	-0.232307028	 1.9723171604	 0.09847
H	-2.0096457758	-0.3781487097	 0.6522941628	 0.096245
H	 0.1397796781	-2.4391213015	 1.4023265562	 0.108458
H	-1.6059510476	-2.6434673875	 1.5630959358	 0.097401
H	-0.6548067361	-3.7678611324	-0.5119141223	 0.1076
H	-1.8910357125	-2.5490462173	-0.8910243095	 0.084249
H	-1.1194829112	-0.4441632995	-1.8038679133	 0.081689
H	 0.6315296989	-0.2772077575	-2.0712165862	 0.112565
72.4191	122.7272	194.8175	284.3244	298.1936	386.2899	395.9963	446.7605	473.5574	561.9461	689.2637	843.4937	856.9773	879.1153	896.4381	906.813	953.0524	969.0352	989.7647	1023.2841	1035.287	1047.7335	1054.9631	1121.8449	1136.5086	1158.4732	1159.8449	1197.693	1220.9117	1239.516	1300.0552	1306.7026	1320.6318	1330.5217	1355.3519	1373.8353	1388.3554	1397.882	1417.6091	1477.9319	1487.2831	1491.1038	1502.6507	1513.5282	1538.412	2941.8494	2953.2634	2990.338	3002.2734	3008.9354	3030.4261	3036.9061	3058.8821	3062.3098	3076.9039	3077.2328	3087.2841
C1OCC11CCCOC1	C1OCC21CCCOC2	
InChI=1S/C7H12O2/c1-2-7(4-8-3-1)5-9-6-7/h1-6H2	InChI=1S/C7H12O2/c1-2-7(4-8-3-1)5-9-6-7/h1-6H2
