21
gdb 76794	1.99909	1.7687	1.16752	1.0736	78.37	-0.2442	0.0554	0.2996	1138.1617	0.181463	-424.199664	-424.190205	-424.189261	-424.2336	36.238	
C	-0.7684034321	 1.1602805706	-0.1154152634	-0.406939
C	-0.0247042485	-0.1671438331	-0.1282766338	-0.067861
C	 1.2988082314	-0.2673880867	-0.9418309081	 0.044361
O	 1.8982414082	 1.0126520032	-1.0810167	-0.432111
C	 1.9479310113	-1.0573939565	 0.246835833	 0.055212
O	 3.2419433394	-0.659188772	 0.6162776332	-0.438906
C	 0.7593720469	-0.6195669247	 1.1193806842	 0.317315
C	 0.9141210861	 0.1306093189	 2.4118860494	-0.318823
C	 0.2690497104	-1.2353164754	 2.3925682552	-0.342303
H	-0.0990268278	 1.9839163883	 0.1416689251	 0.131867
H	-1.2038052241	 1.3753694393	-1.0967085347	 0.114603
H	-1.5870968244	 1.1387128357	 0.6124356734	 0.109716
H	-0.6997668718	-0.9668250741	-0.4565001096	 0.073083
H	 1.2396363138	-0.7778903496	-1.9107514779	 0.059855
H	 2.7209456197	 0.8911308641	-1.5666323249	 0.290642
H	 1.984555629	-2.137912559	 0.0769668603	 0.083619
H	 3.2185555069	 0.3070410748	 0.6241829987	 0.277544
H	 1.9172879029	 0.2114748755	 2.818484677	 0.116349
H	 0.282600212	 0.9946537973	 2.5905166423	 0.112043
H	-0.8035645244	-1.2927715087	 2.5535298089	 0.107711
H	 0.8272214652	-2.0712888979	 2.8033324716	 0.113024
59.6942	176.4749	198.3619	204.5363	220.0774	228.0237	246.6019	270.7686	405.7766	468.8392	508.439	559.1003	586.9672	653.5187	767.8421	787.9469	812.666	849.3845	877.7437	918.7973	967.7419	982.4776	1001.624	1049.033	1075.1584	1079.5016	1110.9069	1133.2284	1164.0486	1181.2525	1192.8694	1229.5393	1232.7605	1283.3326	1291.6297	1310.4847	1362.8685	1372.7587	1403.7863	1426.823	1441.649	1460.2799	1492.1717	1496.4045	1502.6502	3018.0416	3031.2887	3037.5666	3065.9833	3095.1167	3116.5047	3125.7197	3129.8428	3195.6958	3214.1596	3761.634	3814.9725
CC1C(O)C(O)C11CC1	C[C@H]1[C@@H](O)[C@@H](O)C21CC2	
InChI=1S/C7H12O2/c1-4-5(8)6(9)7(4)2-3-7/h4-6,8-9H,2-3H2,1H3	InChI=1S/C7H12O2/c1-4-5(8)6(9)7(4)2-3-7/h4-6,8-9H,2-3H2,1H3/t4-,5+,6+/m0/s1
