18
gdb 62008	4.18747	0.79615	0.70717	6.3915	75.29	-0.243	0.0202	0.2632	1541.0578	0.146875	-439.086396	-439.076874	-439.07593	-439.121404	34.721	
N	-0.7302011105	 0.1195063697	 0.2796588616	-0.507889
H	-0.8191821913	-0.750870289	 0.8000856483	 0.256056
H	 0.1757242627	 0.0837670625	-0.1785997762	 0.253991
H	-2.2583172508	 0.1088135234	-0.6008519031	 0.318433
C	-0.7786960631	 1.2575712398	 1.2283221916	-0.173441
C	-2.2357304573	 1.5504820377	 1.6480533682	-0.201007
C	-3.1460026313	 2.0743298559	 0.5137292283	-0.33336
C	-3.9259503921	 1.0365199361	-0.3034403675	 0.387853
O	-3.2150888438	 0.0474862952	-0.8563885823	-0.380481
O	-5.1171194587	 1.1191917184	-0.461996259	-0.329207
C	 0.0833568654	 1.0468054103	 2.3947155808	 0.312472
C	 0.7821762858	 0.837156907	 3.3502927363	-0.436825
H	-0.4124259968	 2.1330213636	 0.6771015657	 0.124492
H	-2.6630587531	 0.6533957981	 2.1113947367	 0.122456
H	-2.1935956349	 2.3073779785	 2.4364565679	 0.128312
H	-3.9040887973	 2.7371544724	 0.9332150554	 0.132297
H	-2.5499059869	 2.6768583275	-0.1853426389	 0.118188
H	 1.4043076539	 0.663033083	 4.1937253661	 0.207659
49.376	78.8815	130.7938	163.4703	240.4101	259.7339	295.3365	340.3265	396.1998	463.2801	522.4018	564.5798	598.659	645.7824	663.2717	705.9576	801.9384	845.7819	918.9253	932.2274	972.9787	1008.0575	1041.3148	1050.0806	1125.3819	1146.411	1202.8482	1275.9875	1314.9249	1318.918	1354.6287	1376.4846	1398.3308	1469.3146	1473.8538	1484.2965	1654.3839	1850.5335	2232.3503	3025.0492	3028.6109	3049.1283	3092.8665	3121.0971	3236.0353	3484.8555	3500.6921	3563.8787
[NH3+]C(CCC([O-])=O)C#C	N[C@@H](CCC(=O)O)C#C	
InChI=1S/C6H9NO2/c1-2-5(7)3-4-6(8)9/h1,5H,3-4,7H2,(H,8,9)	InChI=1S/C6H9NO2/c1-2-5(7)3-4-6(8)9/h1,5H,3-4,7H2,(H,8,9)/t5-/m1/s1
