21
gdb 106274	2.56151	1.32101	1.03608	2.4691	79.34	-0.2377	0.0785	0.3162	1245.2592	0.180334	-424.169913	-424.160339	-424.159395	-424.203899	36.386	
C	-0.2260039948	 1.6616746824	-0.0926750978	-0.445479
C	 0.008019276	 0.1651421644	 0.0367416677	-0.045788
C	 1.2255888971	-0.5707757429	-0.6128133694	 0.391135
C	 1.4909286432	-0.8911165498	-2.0502370988	-0.512854
C	 2.171681303	 0.0207613373	 0.4638071753	-0.306699
C	 0.8793711637	-0.4752481611	 1.156219212	 0.373245
C	 0.612274221	-0.724334073	 2.6112601787	-0.188442
O	 1.6015448908	-1.569690561	 3.1684959649	-0.416802
O	 0.9583620825	-1.7070539141	 0.3167834533	-0.390587
H	 0.6791334279	 2.255566884	 0.0571154116	 0.12033
H	-0.6190067014	 1.9008104109	-1.0869909445	 0.123044
H	-0.9690709811	 1.9995126235	 0.6377995569	 0.12427
H	-0.9144873921	-0.4037480909	-0.1143715318	 0.078592
H	 1.6589363347	 0.0293579687	-2.6185429034	 0.127063
H	 2.3795772811	-1.5223234745	-2.1470571558	 0.133423
H	 0.6395511536	-1.419268721	-2.4904404228	 0.132463
H	 3.0584908587	-0.5783599	 0.6721896588	 0.106321
H	 2.3855577298	 1.091024381	 0.4512459499	 0.09319
H	 0.6401087519	 0.2184544312	 3.168461969	 0.113423
H	-0.3980484588	-1.1510897605	 2.720940292	 0.095786
H	 1.7036521132	-2.3045716748	 2.5514788743	 0.294366
90.672	138.2389	173.8761	181.3583	192.4953	226.6233	294.2539	337.1645	363.1525	423.6297	479.1167	570.9848	591.6778	622.4196	674.2766	698.5051	784.347	842.8338	865.505	951.0841	1000.8758	1007.05	1058.2191	1082.0744	1091.3991	1104.5796	1123.2786	1134.845	1159.0355	1172.1607	1214.0414	1237.7064	1283.6672	1336.4038	1370.7472	1393.8972	1409.1576	1421.6848	1445.1711	1476.5076	1488.7236	1492.3156	1495.0763	1501.5423	1515.3829	2975.5549	3035.5349	3037.8103	3067.1892	3070.9464	3078.0614	3092.6641	3111.3039	3113.3348	3117.991	3151.0588	3788.3
CC1C2(C)CC1(CO)O2	C[C@H]1[C@@]2(C)C[C@]1(CO)O2	
InChI=1S/C7H12O2/c1-5-6(2)3-7(5,4-8)9-6/h5,8H,3-4H2,1-2H3	InChI=1S/C7H12O2/c1-5-6(2)3-7(5,4-8)9-6/h5,8H,3-4H2,1-2H3/t5-,6+,7+/m0/s1
