20
gdb 9967	2.49582	1.77482	1.55874	1.6975	71.42	-0.2233	0.0714	0.2948	984.7154	0.174082	-386.113491	-386.103734	-386.10279	-386.147473	35.325	
C	-0.3382325686	 1.2696241153	-0.1244433829	-0.261425
O	 0.0988990591	-0.0795333227	-0.014307001	-0.295771
C	 0.7224983908	-0.589266695	-1.1720440107	 0.369319
C	 1.9499715981	 0.1505350308	-1.6495514905	-0.470121
C	 0.6710895268	-2.1040864882	-1.2650370418	-0.132544
C	 0.1262314782	-2.9689986196	-0.1500167902	-0.39969
C	-0.2427649268	-1.2533694511	-2.1335903209	 0.062896
O	-1.611950307	-1.1848746748	-1.8661569534	-0.436
H	 0.5042230979	 1.9722155725	-0.1459791759	 0.119067
H	-0.9526092813	 1.4254329189	-1.0208721884	 0.125025
H	-0.9391006676	 1.475742005	 0.7647741259	 0.128523
H	 2.7080932888	 0.1949174503	-0.8593127482	 0.124338
H	 2.3864955127	-0.3673272634	-2.5080067937	 0.122653
H	 1.7238703791	 1.173902672	-1.9671612139	 0.119103
H	 1.5212991618	-2.5380733712	-1.7867677978	 0.081665
H	-0.72654053	-2.5060913801	 0.3485766888	 0.118122
H	-0.1998539701	-3.9377266162	-0.5424694773	 0.119321
H	 0.8906888528	-3.1524587391	 0.6119130627	 0.117597
H	-0.0561910767	-1.2037284733	-3.2021670304	 0.095941
H	-1.6948206876	-0.88572268	-0.9520023806	 0.29198
88.4185	120.89	149.6359	174.4903	195.9636	213.85	257.7184	286.2983	314.4692	384.4785	428.5371	510.8004	572.4737	632.7208	703.9466	783.0211	830.3001	932.3914	970.4337	1011.9445	1068.8866	1094.7189	1120.162	1121.4079	1149.7065	1165.2925	1180.0409	1206.5455	1249.6097	1284.8432	1318.3647	1383.9971	1410.7531	1417.5153	1462.6553	1473.523	1483.5006	1487.9839	1492.0229	1503.9009	1508.6936	1512.1332	3004.9967	3030.1489	3041.0731	3065.2569	3093.2778	3097.5807	3111.3374	3116.5632	3123.2306	3139.2406	3155.4838	3775.9783
COC1(C)C(C)C1O	CO[C@@]1(C)[C@@H](C)[C@H]1O	
InChI=1S/C6H12O2/c1-4-5(7)6(4,2)8-3/h4-5,7H,1-3H3	InChI=1S/C6H12O2/c1-4-5(7)6(4,2)8-3/h4-5,7H,1-3H3/t4-,5+,6-/m0/s1
