21
gdb 106709	2.44649	1.48012	1.17399	2.0299	82.68	-0.2338	0.088	0.3218	1170.5098	0.182573	-383.205537	-383.196568	-383.195624	-383.239111	34.442	
C	 0.2154376295	 1.4789571941	 0.2236855576	-0.379529
C	-0.155121893	 0.0268716782	-0.1080370346	-0.274847
C	 0.5360847241	-0.4792881069	-1.3407074688	 0.320004
N	 1.9352607522	-0.9256352681	-1.2635931296	-0.418504
C	 0.9343708754	-1.8838867844	-1.7524329308	 0.282821
C	 0.7466822473	-3.1975307451	-1.0569920543	-0.48613
C	 0.5413680072	-1.5597638314	-3.1850095404	-0.136306
N	-0.8934944966	-1.1669960199	-3.1665354144	-0.333685
C	 0.1524395735	-0.1807214747	-2.7825595585	-0.142484
H	 1.2928438387	 1.5734670031	 0.3913761585	 0.126261
H	-0.0595582631	 2.1568976767	-0.5919144386	 0.110569
H	-0.3003148275	 1.8203693255	 1.1263209912	 0.111183
H	 0.1100260606	-0.6191763847	 0.7357892798	 0.105234
H	-1.2378068032	-0.0635088184	-0.255716755	 0.111056
H	 2.5057103269	-0.5455281276	-2.0167735246	 0.2181
H	 0.8696790895	-3.084723277	 0.0231776408	 0.129913
H	-0.2525791406	-3.5947824223	-1.2597868136	 0.1322
H	 1.4838191276	-3.9334207805	-1.3994767823	 0.117423
H	 1.0150979417	-1.8934388252	-4.1017553747	 0.091762
H	-1.1648406065	-0.9624162402	-4.1309372265	 0.222613
H	 0.2716059065	 0.7456719189	-3.3332638312	 0.092346
68.0592	135.5823	184.9112	196.901	219.6824	254.4458	274.1418	397.4917	459.1371	543.3645	597.5	610.3612	719.1667	769.5179	791.6453	812.5931	840.0658	851.766	908.2881	938.0581	973.7668	1001.2635	1041.2165	1067.3998	1080.8884	1105.603	1107.6404	1132.9293	1161.5046	1176.6483	1188.8994	1271.2478	1276.4842	1312.7904	1338.0697	1352.7138	1375.0575	1404.2313	1413.6862	1465.697	1475.5686	1488.3705	1494.2163	1498.328	1509.5288	3031.3248	3032.8055	3036.6249	3074.0556	3094.3743	3101.7712	3110.9888	3122.1727	3168.6343	3182.0815	3437.3495	3461.8326
CCC12NC1(C)C1NC21	CC[C@@]12N[C@]1(C)[C@H]1N[C@@H]21	
InChI=1S/C7H12N2/c1-3-7-5-4(8-5)6(7,2)9-7/h4-5,8-9H,3H2,1-2H3	InChI=1S/C7H12N2/c1-3-7-5-4(8-5)6(7,2)9-7/h4-5,8-9H,3H2,1-2H3/t4-,5+,6+,7-/m0/s1
