20
gdb 61012	3.28731	1.0888	0.91433	3.6258	79.31	-0.2374	-0.015	0.2224	1305.8747	0.17006	-403.112063	-403.103067	-403.102122	-403.146405	33.257	
C	 0.2514181192	 1.3438987967	-0.1565535814	-0.398618
C	 0.1091838571	-0.1709922555	-0.007425415	-0.085898
C	 0.815045374	-0.6871758118	 1.2290164204	 0.1461
O	 1.4083237424	-0.0053586107	 2.0271345114	-0.249498
C	-1.3580562079	-0.6353044115	 0.0078091338	 0.01343
C	-2.2009820413	-0.4706584101	-1.3150424876	-0.251255
C	-2.4580311135	-1.9794259845	-1.2917453654	-0.041857
N	-1.1246807417	-2.6252758977	-1.3561841035	-0.331108
C	-1.6518567181	-2.1462448049	-0.0537019389	-0.07807
H	 1.3043421941	 1.6357345468	-0.1729706089	 0.128032
H	-0.2190256877	 1.6911479523	-1.0807330423	 0.112601
H	-0.2157570966	 1.8648499505	 0.6848769085	 0.123428
H	 0.5804901284	-0.6872904025	-0.8570876735	 0.115491
H	 0.7488053514	-1.7913444828	 1.3674768011	 0.073924
H	-1.8867740341	-0.1742920327	 0.8483397215	 0.083407
H	-3.0991842732	 0.1307127846	-1.1632137651	 0.10736
H	-1.6601968122	-0.1091325045	-2.1934071364	 0.109744
H	-3.3440237566	-2.5086754486	-1.6197659368	 0.09651
H	-1.2781799518	-3.632797943	-1.3861714384	 0.230554
H	-1.7814309019	-2.8315305802	 0.7751003067	 0.095723
65.2409	75.9552	138.9212	171.8584	203.0756	268.1576	343.9453	373.616	389.9767	541.4902	675.6249	687.6387	778.7667	809.0494	839.2387	879.4982	899.2903	938.3392	956.058	971.1414	974.6566	1013.2714	1031.626	1088.371	1111.0584	1116.6392	1142.9803	1146.1519	1179.1024	1218.4628	1254.2183	1259.0544	1299.655	1326.4407	1348.1119	1368.2966	1383.7944	1406.8675	1429.7516	1476.1539	1490.5305	1493.8746	1824.2895	2862.012	3009.6996	3045.4948	3056.6883	3066.9946	3113.6781	3123.3913	3126.4441	3181.512	3196.0354	3475.6989
CC(C=O)C1CC2NC12	C[C@@H](C=O)[C@H]1C[C@H]2N[C@@H]12	
InChI=1S/C7H11NO/c1-4(3-9)5-2-6-7(5)8-6/h3-8H,2H2,1H3	InChI=1S/C7H11NO/c1-4(3-9)5-2-6-7(5)8-6/h3-8H,2H2,1H3/t4-,5+,6+,7-/m0/s1
