23
gdb 101387	3.47957	0.9381	0.77865	1.3592	86.75	-0.2358	0.0296	0.2654	1527.2827	0.20558	-388.308194	-388.298406	-388.297462	-388.343154	36.792	
C	 0.0151110461	 1.5853071784	-0.0677431415	-0.381765
C	 0.0006230119	 0.0575317397	 0.0262233425	-0.188836
C	-1.4154759849	-0.5339009408	 0.0200738243	 0.119676
O	-2.1345850208	-0.1320142447	-1.1480272309	-0.433097
C	-1.4337335919	-2.0579150822	 0.1761759252	 0.011786
C	-0.8491415902	-2.5803796842	 1.5206872022	-0.272839
C	-1.7328012053	-3.7580917843	 1.8558817185	-0.068342
C	-2.814924247	-3.8086870654	 1.082152749	-0.063577
C	-2.858040672	-2.6765475153	 0.0859328147	-0.265848
H	 1.0378575099	 1.9704371498	-0.1212600233	 0.106968
H	-0.529247638	 1.9213207003	-0.9538906873	 0.127051
H	-0.466541955	 2.0367276796	 0.8067714455	 0.113328
H	 0.5600112392	-0.3751593007	-0.8170350376	 0.081792
H	 0.5227412993	-0.2671796838	 0.9340108678	 0.102061
H	-1.9876740448	-0.0935642536	 0.8490540851	 0.081937
H	-1.6774103649	-0.5051935295	-1.9104789571	 0.274052
H	-0.8290880373	-2.4838453903	-0.6376188617	 0.060922
H	 0.2103612668	-2.8483431879	 1.4400205503	 0.102404
H	-0.9095216792	-1.8159390916	 2.3108816036	 0.102847
H	-1.505595755	-4.4436414493	 2.6651502164	 0.089119
H	-3.607313122	-4.5450580149	 1.1635916898	 0.089072
H	-3.6297115749	-1.9417776401	 0.3553239359	 0.112465
H	-3.1046712397	-3.0065127594	-0.9288943113	 0.098826
66.7719	87.3409	109.9508	150.4206	219.6725	262.1407	295.0539	326.4641	385.1574	392.901	439.6391	513.41	648.5792	725.4585	777.6793	784.6512	846.1697	892.9706	922.5069	951.9411	976.3303	980.4567	985.7445	1018.0339	1050.1076	1072.3982	1082.9228	1125.8518	1130.3084	1141.4755	1159.2236	1184.456	1258.7269	1279.3117	1293.5218	1317.786	1326.1764	1334.2656	1370.0864	1376.2119	1394.2312	1405.1197	1419.0816	1481.0283	1483.899	1491.6915	1495.5528	1509.5621	1691.7064	2986.453	2990.9567	2995.754	3012.6022	3019.8685	3036.7488	3051.1035	3058.3279	3060.4812	3100.2981	3122.6647	3176.9124	3202.7774	3790.2788
CCC(O)C1CC=CC1	CC[C@@H](O)[C@H]1CC=CC1	
InChI=1S/C8H14O/c1-2-8(9)7-5-3-4-6-7/h3-4,7-9H,2,5-6H2,1H3	InChI=1S/C8H14O/c1-2-8(9)7-5-3-4-6-7/h3-4,7-9H,2,5-6H2,1H3/t8-/m1/s1
