15
gdb 36116	3.54706	1.23441	1.07561	1.378	68.11	-0.2363	0.0219	0.2582	1100.4455	0.111861	-416.712509	-416.705021	-416.704076	-416.745071	28.42	
N	-0.2940906781	-1.1445777925	 0.2931266764	-0.304016
C	-0.1636829162	-0.0119686973	 0.1074797777	 0.260841
C	 0.0256498708	 1.4217752339	-0.1160891391	-0.467379
C	 1.4727177009	 1.8226925951	-0.0334447342	 0.446827
O	 1.8510489131	 3.0718087913	-0.5954356137	-0.259456
C	 2.5541867299	 1.8942076894	-1.0150300884	-0.052336
C	 3.5983166182	 1.50288056	 0.0915519624	-0.087812
N	 3.51241003	 2.5110891265	 1.1731478018	-0.311657
C	 2.509895005	 1.4265981959	 1.0900649616	-0.150725
H	-0.3675772964	 1.6952560635	-1.1006091339	 0.170654
H	-0.5596698801	 1.9747447775	 0.6297478756	 0.168401
H	 2.5900292949	 1.6706005351	-2.0741784433	 0.119588
H	 4.4609185053	 0.8665776108	-0.0488358011	 0.109925
H	 4.1856387384	 2.2296678509	 1.886873961	 0.238347
H	 2.3404807844	 0.7149954999	 1.8866045373	 0.118796
60.7569	100.3464	236.2315	293.5627	388.7563	418.4271	433.5065	506.6035	627.5911	668.7654	757.7142	797.3805	808.2141	834.1408	859.4677	901.2898	916.4774	950.6883	990.1822	1001.0814	1026.3221	1092.3054	1099.0254	1134.0391	1205.5016	1227.2099	1286.0364	1297.1317	1319.8202	1347.9911	1456.9959	1470.0171	2367.0002	3035.8411	3088.5645	3196.1772	3209.6688	3221.8331	3468.6549
N#CCC12OC1C1NC21	N#CC[C@]12O[C@H]1[C@H]1N[C@@H]21	
InChI=1S/C6H6N2O/c7-2-1-6-4-3(8-4)5(6)9-6/h3-5,8H,1H2	InChI=1S/C6H6N2O/c7-2-1-6-4-3(8-4)5(6)9-6/h3-5,8H,1H2/t3-,4+,5-,6+/m0/s1
