19
gdb 113320	2.44139	1.06201	0.8458	4.3715	77.77	-0.2713	0.0129	0.2842	1418.5791	0.158531	-419.193692	-419.183783	-419.182839	-419.22917	35.346	
C	 0.3709775815	 1.4659845166	 0.1580823972	-0.383379
C	-0.2507442803	 0.1007435137	-0.1619001486	-0.199262
C	 0.464195553	-0.5717941807	-1.3125706464	-0.032227
N	 1.6822857672	-1.3334754984	-1.0172326453	-0.36582
C	 0.501172809	-2.0562780871	-1.5551680508	 0.104272
C	-0.0694481121	-3.1000692756	-0.6035578092	-0.11933
O	 0.8341975579	-4.1678466648	-0.4279565919	-0.40928
C	 0.5658639896	-2.4702880389	-2.940762239	 0.252553
N	 0.6205092533	-2.7924169864	-4.0504771379	-0.33689
H	 1.4234744255	 1.3559540026	 0.4367203349	 0.13237
H	 0.3182484453	 2.1393844043	-0.7042075118	 0.120156
H	-0.151628144	 1.9469199736	 0.9895520546	 0.122104
H	-0.2072099791	-0.5357116827	 0.7258052104	 0.114131
H	-1.3089744715	 0.2209273778	-0.4241743791	 0.11203
H	 0.4795162201	 0.0219840109	-2.2263102824	 0.108719
H	 2.3838933338	-1.2064242841	-1.7420629118	 0.254213
H	-0.3203083228	-2.6173707699	 0.3489148623	 0.101637
H	-0.9859303335	-3.5275793822	-1.0201299643	 0.129463
H	 1.6536227171	-3.7814206089	-0.0958344308	 0.29454
57.5967	75.4382	131.2944	140.9413	173.2037	230.204	250.6526	305.6199	365.288	432.1112	438.7387	497.9886	589.1296	645.8482	704.5699	774.7517	841.93	896.7941	920.4574	966.2141	1004.6103	1052.8895	1083.1366	1093.6807	1104.0419	1127.6071	1205.9571	1238.7005	1298.8085	1305.1094	1333.0566	1348.0491	1385.5415	1410.2209	1426.8303	1463.5898	1476.0448	1496.6843	1499.0498	1507.2073	2348.5987	3028.8758	3037.5044	3040.7561	3088.1813	3097.8273	3108.234	3116.9373	3120.0222	3511.4367	3788.9188
CCC1NC1(CO)C#N	CC[C@H]1N[C@]1(CO)C#N	
InChI=1S/C6H10N2O/c1-2-5-6(3-7,4-9)8-5/h5,8-9H,2,4H2,1H3	InChI=1S/C6H10N2O/c1-2-5-6(3-7,4-9)8-5/h5,8-9H,2,4H2,1H3/t5-,6+/m1/s1
