20
gdb 107766	3.50946	1.38155	1.3311	2.8665	76.66	-0.2298	0.0692	0.299	1039.705	0.173973	-403.140431	-403.133009	-403.132064	-403.172104	30.256	
O	-0.0845763052	 1.4014395462	 0.0235811225	-0.425768
C	-0.0321317852	-0.0199425335	-0.0124401617	-0.18673
C	-1.4473799608	-0.5441160551	 0.0008110981	 0.286087
C	-2.3862083875	-0.1222590933	-1.1568791672	-0.256282
C	-3.6235611122	-0.8497627652	-0.6490857972	-0.037848
C	-3.1570072636	-2.0681083496	 0.0727032293	-0.036698
C	-1.6340454275	-2.0806149019	 0.0030980475	-0.282393
N	-3.5996663197	-0.8737837526	 0.8379561424	-0.130009
C	-2.3443063824	-0.1751230323	 1.2038485922	-0.177252
H	 0.8161271638	 1.7372738409	 0.0072670643	 0.289163
H	 0.4905011343	-0.372967475	-0.9164625734	 0.08534
H	 0.5164689288	-0.4172704159	 0.8576547189	 0.084859
H	-2.507914063	 0.9618784414	-1.2193227476	 0.115724
H	-2.05020095	-0.496330862	-2.1302179144	 0.092902
H	-4.593937544	-0.7692861182	-1.1238703239	 0.086158
H	-3.7475830783	-2.9700612117	 0.1778497738	 0.086807
H	-1.2595433452	-2.5587766511	-0.9084005055	 0.097957
H	-1.1685795869	-2.5641814224	 0.8687433617	 0.098278
H	-1.965729214	-0.5578743113	 2.1575585109	 0.09421
H	-2.5177184213	 0.8994382425	 1.2954909594	 0.115495
102.4461	178.0076	242.617	299.0757	379.8814	438.735	443.0089	469.6525	644.6262	674.3397	686.8171	791.8678	809.046	850.1296	902.5072	930.3877	941.0459	959.0279	962.5402	985.6619	1026.8015	1047.4185	1061.5529	1068.7249	1126.2934	1139.8952	1161.6091	1168.5116	1207.9966	1214.7887	1216.2256	1257.9426	1266.6294	1283.7374	1294.21	1323.3866	1347.953	1389.0294	1464.9864	1485.6475	1492.106	1516.4519	1520.9319	2957.0792	2983.5613	3039.4263	3047.1893	3053.4328	3085.2859	3106.1281	3113.4368	3180.7691	3191.2583	3833.5152
OCC12CC3C(C1)N3C2	OC[C@@]12C[C@H]3[C@@H](C1)N3C2	
InChI=1S/C7H11NO/c9-4-7-1-5-6(2-7)8(5)3-7/h5-6,9H,1-4H2	InChI=1S/C7H11NO/c9-4-7-1-5-6(2-7)8(5)3-7/h5-6,9H,1-4H2/t5-,6+,7-,8?
