21
gdb 58599	2.1586	1.28088	1.02977	1.2548	83.89	-0.2563	0.0514	0.3077	1277.6399	0.179606	-387.044043	-387.033828	-387.032884	-387.079131	38.58	
C	-1.3985474265	-0.0275567217	-0.1317862058	-0.409936
C	 0.1157744664	-0.1089123729	 0.0863345809	 0.051589
O	 0.4148125521	-0.9298158876	 1.2144320965	-0.440534
C	 0.8595181283	-0.692667769	-1.1118524266	 0.380062
C	 0.7172735412	 0.1019722315	-2.4111728708	-0.455072
C	 1.1755869485	 1.486553984	-2.314326039	 0.328724
C	 1.5484198593	 2.626198878	-2.2261932974	-0.464164
C	 2.1799447906	-1.3798024494	-0.8775605948	-0.303856
C	 0.9583320005	-2.1923974663	-1.2427270265	-0.316735
H	-1.6523649953	 0.6583965241	-0.9452431611	 0.124283
H	-1.8088779377	-1.016013219	-0.3601488443	 0.12433
H	-1.8922670541	 0.3491263412	 0.771625396	 0.101728
H	 0.5039138615	 0.9079102302	 0.2549927304	 0.082015
H	-0.0468869767	-0.5630789081	 1.9737427461	 0.283554
H	 1.2892773827	-0.4097141307	-3.1946445258	 0.128083
H	-0.326531263	 0.0916043814	-2.7510039513	 0.129189
H	 1.8827746312	 3.6314132811	-2.1555959032	 0.194584
H	 2.9548090817	-1.2475506893	-1.6254911124	 0.104782
H	 2.5342074325	-1.4507615315	 0.1426197987	 0.129804
H	 0.5119900904	-2.7887834539	-0.4564218412	 0.126886
H	 0.8998315364	-2.6270311722	-2.2355314685	 0.100685
48.9803	86.297	128.6594	221.6779	241.1929	258.7696	284.8432	321.099	326.2889	372.6505	400.1936	447.5959	484.933	610.9728	617.356	636.9308	695.3464	793.2137	855.9836	903.5895	910.7464	925.7356	958.7158	989.2958	1011.0962	1046.4117	1060.6572	1086.2398	1115.5516	1130.8528	1194.8065	1203.9674	1238.1461	1296.775	1320.5765	1366.767	1380.1936	1404.5899	1428.4206	1456.393	1469.8003	1494.7798	1498.8613	1503.7855	2234.6909	2979.8994	3019.9895	3030.9967	3052.4156	3095.6056	3119.6002	3132.4649	3138.7435	3223.6542	3238.8565	3506.3213	3834.9983
CC(O)C1(CC#C)CC1	C[C@@H](O)C1(CC#C)CC1	
InChI=1S/C8H12O/c1-3-4-8(5-6-8)7(2)9/h1,7,9H,4-6H2,2H3	InChI=1S/C8H12O/c1-3-4-8(5-6-8)7(2)9/h1,7,9H,4-6H2,2H3/t7-/m1/s1
