17
gdb 53846	3.42975	0.89235	0.81248	1.7934	76.32	-0.2437	-0.0517	0.1919	1445.5152	0.133095	-417.995288	-417.985168	-417.984224	-418.031825	35.382	
C	-0.0181517485	 1.23076207	 0.4781096296	-0.469745
C	-0.1180330924	-0.0354280373	-0.3299336903	 0.383841
O	 0.723534057	-0.3860017157	-1.1305928078	-0.320581
C	-1.3447345964	-0.913235442	-0.1033842195	 0.256433
N	-2.1797088627	-0.5682140891	 0.8047415498	-0.526346
N	-1.3682746775	-1.9788341307	-0.9548540835	-0.291065
C	-2.361403167	-3.029580176	-0.8998794968	-0.347312
C	-2.2548321412	-3.9118539486	 0.2682661178	 0.322747
C	-2.1680362937	-4.62962161	 1.2276134373	-0.448598
H	 0.9083274614	 1.7483231181	 0.2282664367	 0.133472
H	-0.8828790476	 1.8701961454	 0.2780340051	 0.157208
H	-0.0579028429	 0.9969054081	 1.5452935194	 0.162395
H	-2.9373393115	-1.2437449435	 0.9133007835	 0.21907
H	-0.5207794296	-2.1130475149	-1.4875596467	 0.26456
H	-3.3635389754	-2.5791468074	-0.9223690802	 0.147051
H	-2.2739439369	-3.6206044909	-1.8171413464	 0.149739
H	-2.087948735	-5.2627446953	 2.0767548219	 0.20713
36.2256	51.6487	74.4648	108.9145	201.7846	218.7135	306.7979	335.5195	355.9589	412.6663	506.868	528.9917	560.812	631.1029	635.8232	670.5204	703.8321	786.9695	860.5112	917.7709	955.0005	1007.0512	1048.477	1061.3767	1188.7152	1200.4783	1283.7649	1343.9908	1378.2655	1388.3794	1451.6335	1458.3681	1466.2369	1536.8612	1705.1699	1793.0236	2238.2592	3013.0041	3057.6307	3075.3271	3122.8237	3162.7904	3471.1929	3503.7006	3604.3945
CC(=O)C(=N)NCC#C	CC(=O)C(=N)NCC#C	
InChI=1S/C6H8N2O/c1-3-4-8-6(7)5(2)9/h1H,4H2,2H3,(H2,7,8)	InChI=1S/C6H8N2O/c1-3-4-8-6(7)5(2)9/h1H,4H2,2H3,(H2,7,8)
