15
gdb 60708	4.95457	0.62235	0.58638	1.1455	73.47	-0.2658	-0.0498	0.216	1813.4192	0.109454	-457.701964	-457.692728	-457.691784	-457.738029	31.505	
O	-0.3877797727	 1.2423204216	 0.1806869805	-0.408284
C	 0.002984829	-0.0859597496	-0.0300984331	-0.116108
C	 0.9212544831	-0.1845354188	-1.2554293406	 0.143778
O	 1.2406563477	 0.7994210297	-1.8704237994	-0.247863
C	 0.7033783174	-0.683022603	 1.1114834888	 0.131062
C	 1.2892462601	-1.183471794	 2.0376963568	 0.054104
C	 2.0024937461	-1.7727658759	 3.1377099679	-0.117526
C	 1.5019769349	-1.6675602441	 4.5238324115	-0.156836
O	 1.3868741413	-2.8867837526	 3.8041736625	-0.211303
H	 0.1174647874	 1.763478947	-0.4647579542	 0.29879
H	-0.8828834472	-0.7074299072	-0.2526867009	 0.130909
H	 1.271840525	-1.1994948887	-1.5209424982	 0.119527
H	 3.0765935492	-1.8846729163	 2.9952205501	 0.122582
H	 2.2200540125	-1.6654407704	 5.3426739755	 0.124737
H	 0.5694515165	-1.1377834177	 4.7065862128	 0.132432
28.6018	61.6999	90.9051	127.5429	204.093	245.3917	310.725	404.8043	450.4469	463.2962	538.0552	571.6296	705.335	770.2406	832.3754	847.073	913.6791	997.2195	1017.3309	1081.9278	1125.812	1153.8669	1159.6879	1182.0589	1237.9271	1282.331	1325.27	1387.3392	1403.2822	1431.8444	1519.1991	1823.1708	2356.6111	2950.865	2968.9341	3089.3842	3118.9071	3184.7798	3680.9967
OC(C=O)C#CC1CO1	O[C@@H](C=O)C#C[C@H]1CO1	
InChI=1S/C6H6O3/c7-3-5(8)1-2-6-4-9-6/h3,5-6,8H,4H2	InChI=1S/C6H6O3/c7-3-5(8)1-2-6-4-9-6/h3,5-6,8H,4H2/t5-,6+/m1/s1
