15
gdb 124424	3.251	1.16538	1.04446	5.5465	70.18	-0.28	-0.0113	0.2686	1162.5096	0.114828	-413.030873	-413.022799	-413.021855	-413.065255	28.551	
C	 0.083426477	 1.587413121	-0.0356391567	-0.392689
C	 0.0335284309	 0.0489637815	 0.0577505016	-0.222306
C	 0.5829586348	-0.563280172	-1.1619789359	 0.273684
N	 1.0112526863	-1.0298043993	-2.1284306945	-0.324343
C	 0.7422102835	-0.486498626	 1.2778492518	 0.351306
N	 1.8810395249	 0.0196338756	 1.7243733281	-0.257283
N	 2.1366064819	-0.7639180205	 2.7959062778	-0.170453
C	 1.1645821302	-1.6841287647	 2.947391631	 0.018721
N	 0.2589170525	-1.5378591179	 2.0002832362	-0.296884
H	 1.1171372515	 1.934207134	-0.080136399	 0.158317
H	-0.4444486961	 1.9310459242	-0.9279935207	 0.135597
H	-0.3908590906	 2.0225474646	 0.8472917686	 0.130603
H	-1.0074720083	-0.2825035388	 0.1361582676	 0.150093
H	 2.9638447021	-0.6043229676	 3.3478876045	 0.289254
H	 1.1567311092	-2.4164432942	 3.7403730396	 0.156382
16.0412	106.659	192.7597	211.1534	230.1244	333.7519	409.5943	479.5775	564.2652	572.8479	684.7925	708.2503	803.4105	860.2852	867.4049	986.3457	998.4569	1027.2951	1082.0187	1112.8044	1118.3761	1183.2546	1249.6342	1306.6803	1322.1674	1380.2003	1410.7147	1471.2457	1474.227	1491.9075	1501.9519	1552.8767	2359.4943	3058.7129	3064.1327	3135.6922	3149.5563	3263.7251	3661.1096
CC(C#N)C1=NNC=N1	C[C@@H](C#N)c1n[nH]cn1	
InChI=1S/C5H6N4/c1-4(2-6)5-7-3-8-9-5/h3-4H,1H3,(H,7,8,9)	InChI=1S/C5H6N4/c1-4(2-6)5-7-3-8-9-5/h3-4H,1H3,(H,7,8,9)/t4-/m0/s1
