19
gdb 31814	4.57774	0.99468	0.88526	2.0304	85.93	-0.2399	-0.0329	0.207	1383.3165	0.160084	-382.14363	-382.134561	-382.133616	-382.1801	32.122	
C	-0.1020140865	 1.5374723056	 0.0272131235	-0.376655
C	 0.0696741947	 0.0091617015	-0.0240005273	-0.250191
C	 0.7755484227	-0.508646979	 1.2016094059	 0.345144
N	 2.1141962671	-0.5545286279	 1.1690525963	-0.28133
C	 2.7252854142	-0.9904375414	 2.2690963806	-0.055095
C	 2.0462817456	-1.3911623047	 3.4193369565	 0.238018
C	 2.7518052955	-1.9098284801	 4.6426315431	-0.500309
C	 0.6586381571	-1.281736779	 3.3374066277	-0.055234
N	 0.0179675231	-0.849915986	 2.2524746011	-0.28156
H	 0.8712199175	 2.0339755695	 0.0884782569	 0.12715
H	-0.6146418178	 1.8994739393	-0.8689081179	 0.114216
H	-0.6920137765	 1.831544284	 0.9006889881	 0.126715
H	-0.9109790333	-0.4700837927	-0.0896835671	 0.113255
H	 0.6552699574	-0.2659519406	-0.9056314352	 0.113267
H	 3.814245822	-1.0212339165	 2.2362620171	 0.106911
H	 3.7436407716	-1.4608724243	 4.7497032047	 0.13361
H	 2.181825966	-1.6944526812	 5.5511602599	 0.133461
H	 2.8898017149	-2.9966280887	 4.5945456137	 0.141727
H	 0.0357844249	-1.5537656281	 4.1893993323	 0.106902
12.4938	30.8677	88.2676	219.1791	220.8695	294.9558	366.1271	401.8331	416.1775	489.259	559.4164	663.1207	731.659	796.9366	834.3416	851.9346	939.9989	984.699	1003.6058	1004.6095	1060.548	1072.3033	1077.8448	1083.2326	1235.6916	1253.3769	1270.0186	1296.4453	1325.3993	1363.1188	1401.061	1414.2964	1416.9198	1470.3444	1482.9813	1485.7985	1492.8887	1496.7993	1511.2357	1587.8323	1635.6671	3030.9447	3037.681	3058.3439	3089.1477	3100.0482	3111.9809	3114.0085	3122.7909	3128.3815	3131.1034	12.4784	30.858	88.2673	219.1787	220.8689	294.9555	366.1272	401.833	416.1772	489.2589	559.4163	663.1205	731.6588	796.9368	834.3412	851.9344	939.9981	984.6991	1003.6054	1004.6086	1060.5474	1072.3026	1077.8454	1083.2329	1235.6907	1253.3767	1270.0189	1296.4458	1325.3997	1363.1191	1401.0613	1414.2957	1416.9197	1470.3456	1482.9816	1485.7983	1492.8885	1496.7999	1511.2364	1587.8319	1635.6666	3030.9449	3037.6808	3058.3439	3089.1477	3100.0481	3111.9809	3114.0085	3122.7908	3128.3813	3131.1033
CCC1=NC=C(C)C=N1	CCc1ncc(C)cn1	
InChI=1S/C7H10N2/c1-3-7-8-4-6(2)5-9-7/h4-5H,3H2,1-2H3	InChI=1S/C7H10N2/c1-3-7-8-4-6(2)5-9-7/h4-5H,3H2,1-2H3
