17
gdb 46768	2.51793	1.91114	1.29418	1.9913	72.1	-0.2427	-0.0256	0.2171	976.6991	0.137696	-421.859688	-421.852588	-421.851643	-421.891548	27.668	
O	-0.1030611712	 0.1578882312	 0.5430081095	-0.306683
C	-0.0511801887	 1.321702693	 0.2457771276	 0.372203
C	-1.236949033	 2.2814439489	 0.1482443716	-0.187881
O	-0.7326537719	 3.5088617747	-0.331223283	-0.267832
C	 0.6819172873	 3.5759621109	-0.0747412801	 0.069684
C	 1.0528480405	 4.0939768337	 1.2970622702	-0.099328
C	 1.8858690202	 3.2698801545	 1.9321997789	-0.059493
C	 2.2294744188	 2.0445877429	 1.1161827127	-0.270998
C	 1.2199023934	 2.1301572451	-0.0507389502	-0.16652
H	-2.0006230867	 1.9038850589	-0.5398434295	 0.136261
H	-1.6944243838	 2.3718170275	 1.1463576244	 0.126215
H	 1.0882992831	 4.2047926365	-0.8736816047	 0.092923
H	 0.6843560381	 5.0430469549	 1.6685392479	 0.104716
H	 2.3110565467	 3.4453480115	 2.914683177	 0.103689
H	 3.2646697831	 2.0861104084	 0.7553899388	 0.11485
H	 2.1272811763	 1.1054889091	 1.6714141023	 0.130934
H	 1.631871098	 1.7926920282	-1.0055492431	 0.10726
78.2748	135.9408	230.2261	310.5605	433.2299	476.6799	529.9062	583.2402	659.0503	704.7991	747.6814	779.9825	849.7533	901.897	929.3998	940.8866	966.5492	980.9369	1003.5619	1027.8634	1066.2423	1086.0158	1125.7999	1148.6011	1167.8211	1215.2906	1224.7091	1265.0888	1295.6908	1319.5441	1331.9836	1356.1679	1375.9322	1478.0439	1491.6436	1677.7728	1853.463	2985.9076	3030.2108	3052.425	3068.0856	3072.5794	3083.2467	3185.6767	3213.3644
O=C1COC2C=CCC12	O=C1CO[C@H]2C=CC[C@@H]12	
InChI=1S/C7H8O2/c8-6-4-9-7-3-1-2-5(6)7/h1,3,5,7H,2,4H2	InChI=1S/C7H8O2/c8-6-4-9-7-3-1-2-5(6)7/h1,3,5,7H,2,4H2/t5-,7-/m0/s1
