17
gdb 30878	2.41675	1.42601	0.93863	2.6335	73.79	-0.1844	0.0199	0.2042	1249.3039	0.135131	-455.169715	-455.16026	-455.159316	-455.204357	33.237	
C	 0.0516113793	 1.2383117439	 0.4009376431	-0.251792
O	-0.1854374159	 0.1796548244	-0.5357584412	-0.271505
C	-1.2431001454	-0.5960699458	-0.2615335066	 0.304032
C	-1.3844572285	-1.9248805264	-0.0273098805	 0.154143
N	-0.4286203446	-2.9395050671	 0.0074877228	-0.602528
N	-2.7368749905	-2.2126159758	 0.0990900308	-0.340714
C	-3.3429626572	-1.0760980571	-0.061132456	 0.387901
C	-4.8016092184	-0.8005639921	-0.0039482731	-0.48679
O	-2.5097688002	-0.0356783521	-0.3002948991	-0.217967
H	 0.9665685513	 1.7372022412	 0.0772877304	 0.13562
H	-0.7769492522	 1.9539626719	 0.3978000278	 0.136291
H	 0.1823721728	 0.8390286181	 1.4139259375	 0.118776
H	 0.5000462567	-2.5961543381	 0.2134089917	 0.245638
H	-0.6910029101	-3.6742650776	 0.6520565389	 0.251003
H	-5.041581989	-0.0874473977	 0.792292259	 0.139705
H	-5.1616873793	-0.3739765548	-0.9461603098	 0.144129
H	-5.3287001586	-1.735834755	 0.1866871842	 0.154058
70.1128	106.7663	138.8231	150.4563	196.8997	217.2195	274.8188	300.0336	317.7716	444.2264	552.6511	618.2944	638.8512	677.499	697.9855	758.1207	823.1332	988.6789	1013.3094	1029.9633	1063.3724	1093.9194	1140.246	1174.1072	1213.7189	1318.809	1329.2692	1409.2741	1413.0033	1475.0358	1478.6509	1482.8275	1487.7448	1504.5104	1619.2815	1633.1929	1743.7067	3020.1251	3039.2474	3091.477	3093.275	3140.32	3154.3922	3540.4777	3640.1117
COC1=C(N)N=C(C)O1	COc1c(N)nc(C)o1	
InChI=1S/C5H8N2O2/c1-3-7-4(6)5(8-2)9-3/h6H2,1-2H3	InChI=1S/C5H8N2O2/c1-3-7-4(6)5(8-2)9-3/h6H2,1-2H3
