19
gdb 99085	4.24859	0.74258	0.69886	2.4284	73.91	-0.2631	-0.034	0.2291	1662.1352	0.154869	-460.217118	-460.206445	-460.205501	-460.25483	36.034	
C	-0.0927556694	 1.4570298107	 0.2225944682	-0.37257
C	 0.0805056684	-0.0410492284	-0.0145857576	-0.304945
C	 0.7469160055	-0.3543027769	-1.3367274494	 0.455161
O	 1.1208066691	 0.4543271674	-2.1468422106	-0.348267
O	 0.8733366417	-1.6961224296	-1.4994061584	-0.266933
C	 1.5093972827	-2.1475999183	-2.7100973722	 0.028856
C	 3.0005664334	-2.3732181017	-2.5112422007	-0.405644
C	 0.7555671219	-3.3990918476	-3.1328890337	 0.151573
O	 1.2419159211	-4.2922444373	-3.7738388337	-0.241
H	 0.8730888981	 1.9682587345	 0.2188595753	 0.134539
H	-0.7054355111	 1.9098133273	-0.5608880365	 0.134352
H	-0.5757767192	 1.6364547454	 1.186813563	 0.115623
H	 0.6804720469	-0.5080535023	 0.7754974058	 0.13655
H	-0.8813075396	-0.5672139082	 0.0042138367	 0.135125
H	 1.34346192	-1.3847103569	-3.4828086796	 0.141103
H	 3.1774601368	-3.0343039751	-1.6584739839	 0.131617
H	 3.4138282334	-2.8470430141	-3.404478925	 0.147575
H	 3.5085154859	-1.4218322417	-2.3402623672	 0.136614
H	-0.3090794355	-3.409718617	-2.8108196406	 0.090669
30.8598	46.0516	77.9519	84.6792	159.5101	209.119	213.984	240.657	284.4857	347.1335	395.1196	464.8072	582.9514	626.5584	667.3495	809.86	833.8483	878.2363	915.9376	952.6777	1021.2602	1086.3661	1108.22	1111.6162	1129.5027	1159.3379	1196.77	1278.4649	1318.1269	1350.8659	1382.6201	1395.1716	1414.6067	1418.1627	1457.2222	1485.4867	1494.5418	1496.4191	1500.5145	1821.9623	1840.6369	2897.6959	3031.7864	3043.3058	3053.8609	3055.9866	3072.694	3126.0763	3130.68	3133.7	3144.0886
CCC(=O)OC(C)C=O	CCC(=O)O[C@@H](C)C=O	
InChI=1S/C6H10O3/c1-3-6(8)9-5(2)4-7/h4-5H,3H2,1-2H3	InChI=1S/C6H10O3/c1-3-6(8)9-5(2)4-7/h4-5H,3H2,1-2H3/t5-/m0/s1
