19
gdb 69979	2.49371	1.8681	1.37944	0.7516	74.27	-0.2347	0.0713	0.306	992.0778	0.158344	-422.967068	-422.958933	-422.957988	-422.999039	32.584	
C	-0.1123451879	 1.5005799639	 0.0076388968	-0.473255
C	 0.0240151742	 0.0039743304	 0.0607070394	 0.361349
O	-1.2512851821	-0.7056250568	 0.0100480496	-0.338149
C	-0.9437858376	-1.4322728487	 1.2275713316	-0.11683
C	 0.4698009088	-0.8219725781	 1.2893728187	-0.113183
C	 1.5932146555	-1.4549841298	 0.441436765	-0.130836
C	 1.0633915886	-2.1186309991	-0.8166015164	-0.361854
C	 1.1758046702	-0.629023707	-0.7769950858	 0.352058
O	 1.9822140499	 0.0986863094	-1.635488133	-0.459747
H	 0.8660248541	 1.9793440005	 0.1052943343	 0.132301
H	-0.538239077	 1.8057006869	-0.9545984928	 0.124991
H	-0.772026669	 1.8582924135	 0.802978601	 0.118347
H	-1.6025557513	-1.122357197	 2.0478848241	 0.100855
H	-1.0195694054	-2.5181098672	 1.0980261347	 0.100504
H	 0.7899956397	-0.3454307784	 2.2151392075	 0.07868
H	 2.5861898125	-1.6838113791	 0.8076847867	 0.095579
H	 1.8405946683	-2.5973973772	-1.4047212715	 0.111589
H	 0.0959392661	-2.6074296916	-0.8526797713	 0.128897
H	 1.6803140224	-0.0533323345	-2.5378676087	 0.288705
147.7875	201.7168	225.8352	265.0622	277.0249	309.7868	343.1032	428.7948	481.8182	499.4389	606.8585	628.3696	765.9773	813.6359	825.8585	874.7966	895.2324	901.6694	949.9648	973.4275	983.6441	1004.7325	1050.0476	1077.319	1078.0665	1101.878	1148.0915	1157.3601	1166.3625	1234.8616	1243.3493	1293.7331	1304.7466	1321.7016	1350.594	1391.8645	1409.3744	1476.7905	1485.1965	1494.492	1522.3262	3018.1585	3038.1499	3061.9712	3105.5289	3118.5595	3124.2602	3128.1833	3190.3815	3214.7079	3792.4402
CC12OCC1C1CC21O	C[C@]12OC[C@H]1[C@H]1C[C@@]21O	
InChI=1S/C7H10O2/c1-6-5(3-9-6)4-2-7(4,6)8/h4-5,8H,2-3H2,1H3	InChI=1S/C7H10O2/c1-6-5(3-9-6)4-2-7(4,6)8/h4-5,8H,2-3H2,1H3/t4-,5+,6+,7+/m1/s1
