21
gdb 90783	3.8472	1.32888	1.23264	1.512	81.41	-0.2188	0.0874	0.3063	1120.4317	0.183167	-387.073995	-387.065863	-387.064919	-387.106169	32.596	
C	-0.1057581191	 1.5235390342	 0.048057454	-0.408405
C	 0.0060589212	-0.0031761678	 0.0183185298	 0.026953
C	 0.8056778082	-0.5302201966	-1.2153417627	-0.246511
C	 2.1819433244	-0.8906868258	-0.6549000514	-0.12001
C	 2.3210120912	-0.4098105154	 0.7827474338	-0.216376
C	 0.838458348	-0.5392096535	 1.1848098588	 0.089581
O	 0.9008826476	-1.9986356826	 1.0589541624	-0.347208
C	 2.2172838623	-1.8785893981	 0.4990265347	 0.474221
C	 3.1428741711	-3.0388356503	 0.6529508487	-0.500345
H	 0.8853598354	 1.9903927992	 0.0100348502	 0.119299
H	-0.6770452882	 1.8895527102	-0.8108964129	 0.116313
H	-0.6069675168	 1.8732298534	 0.9573083965	 0.111608
H	-0.9940142669	-0.4481119025	 0.0529394815	 0.077019
H	 0.3166605307	-1.3995996418	-1.6642260525	 0.105702
H	 0.8871937213	 0.237479674	-1.9916568224	 0.093008
H	 3.0575040027	-0.8651071696	-1.2949720344	 0.08145
H	 3.1006539953	 0.2082041321	 1.2059361028	 0.090699
H	 0.5244672327	-0.237910393	 2.1864234276	 0.073169
H	 2.7578562236	-3.9129244255	 0.1156770731	 0.130131
H	 4.1293414495	-2.7979449313	 0.2459772941	 0.121908
H	 3.2563950257	-3.3101914292	 1.7073482983	 0.127795
116.912	187.9511	200.9832	236.9969	279.6965	292.2508	368.416	442.3573	527.8415	613.4039	715.2528	731.7525	743.9346	825.2689	830.2228	887.399	891.7316	905.9279	928.1784	958.2303	981.7908	995.6119	1016.4885	1025.7557	1062.2787	1107.043	1112.2599	1127.1711	1179.861	1208.385	1233.072	1238.2351	1269.2138	1292.9551	1316.1899	1332.658	1358.2456	1403.369	1409.44	1464.6987	1474.214	1490.4391	1497.9152	1500.4419	1502.2204	3025.7263	3032.0969	3045.2983	3053.7517	3087.0884	3090.4195	3096.1238	3096.3671	3100.1331	3114.0257	3171.2789	3204.1732
CC1CC2C3C1OC23C	C[C@H]1C[C@H]2[C@H]3[C@@H]1O[C@@]23C	
InChI=1S/C8H12O/c1-4-3-5-6-7(4)9-8(5,6)2/h4-7H,3H2,1-2H3	InChI=1S/C8H12O/c1-4-3-5-6-7(4)9-8(5,6)2/h4-7H,3H2,1-2H3/t4-,5-,6-,7+,8-/m0/s1
