16
gdb 72352	2.34899	1.68624	1.34249	3.1494	73.76	-0.2499	-0.0046	0.2452	993.6493	0.124704	-400.756178	-400.748443	-400.747498	-400.788205	30.016	
O	-0.0553571984	 1.3670945588	 0.0010803915	-0.461662
C	-0.0083470093	-0.0176551989	-0.0701413387	 0.390948
C	 0.9064843509	-0.6861201007	-1.1012150031	-0.358097
C	 0.0958603723	-1.8723539276	-1.5747647136	-0.058652
C	-1.1085500474	-1.9191712804	-1.0003057199	-0.074998
C	-1.2875999523	-0.8012132061	-0.0308854417	-0.135624
C	-0.3519377684	-0.7994129359	 1.2002724616	-0.276264
C	 0.3869285146	-1.956786452	 1.6083540701	 0.309345
N	 1.00912809	-2.8756217921	 1.9379943362	-0.352632
H	 0.7749208462	 1.6826936028	 0.3759785003	 0.291243
H	 1.1129781947	 0.0227409196	-1.913161865	 0.124708
H	 1.8725309206	-0.9888645834	-0.6793582023	 0.132133
H	 0.4855932885	-2.5960535421	-2.2801779672	 0.111173
H	-1.8639317002	-2.6767103869	-1.1670467092	 0.109624
H	-2.246525772	-0.3174417686	 0.1129311945	 0.113835
H	-0.6915267199	-0.1661442263	 2.0136694666	 0.134919
124.6954	129.9334	222.6116	302.1458	314.665	385.9661	408.0878	436.7997	556.0365	595.1665	619.7387	733.4626	749.7293	766.7675	856.2733	890.2287	927.8791	956.0272	963.5073	999.0688	1023.6983	1040.8371	1084.5448	1139.9345	1154.8748	1211.3575	1235.3647	1304.4801	1310.4294	1323.8391	1376.4851	1440.3774	1472.4176	1667.8356	2346.1183	3027.3931	3063.0402	3167.2727	3188.3355	3202.9353	3225.9912	3792.4528
OC12CC=CC1C2C#N	O[C@]12CC=C[C@H]1[C@H]2C#N	
InChI=1S/C7H7NO/c8-4-6-5-2-1-3-7(5,6)9/h1-2,5-6,9H,3H2	InChI=1S/C7H7NO/c8-4-6-5-2-1-3-7(5,6)9/h1-2,5-6,9H,3H2/t5-,6+,7+/m0/s1
