16
gdb 7051	6.27993	0.83911	0.76392	2.4314	76.4	-0.2506	0.0317	0.2824	1461.7268	0.126579	-346.540689	-346.530837	-346.529893	-346.57654	33.617	
C	-0.0310980566	 1.4778692775	-0.0336366567	-0.49982
C	 0.0108100387	 0.0230113542	-0.0130335894	 0.086634
C	 0.0504122364	-1.1804005137	 0.0259402668	 0.042639
C	 0.0603588491	-2.6456220459	 0.0230992257	-0.057819
O	-1.236437405	-3.1912096724	 0.2139608853	-0.406129
C	 0.7255192176	-3.1770969711	-1.2778082099	-0.362466
C	 0.8489791644	-4.627425418	-1.2981047266	 0.312499
C	 0.9623729353	-5.823559253	-1.3010254894	-0.444232
H	 0.8384811147	 1.9040717756	 0.4783735086	 0.154041
H	-0.0362167294	 1.8642930359	-1.0585865827	 0.1501
H	-0.9285255516	 1.8540181401	 0.4694213875	 0.153935
H	 0.645712139	-3.0137802599	 0.8732795164	 0.126499
H	-1.8303519378	-2.7508281708	-0.4042532573	 0.283206
H	 0.1321721718	-2.8313418503	-2.1339431924	 0.127086
H	 1.7128345676	-2.7105415456	-1.3780154785	 0.138971
H	 1.0564595659	-6.8810025527	-1.3073629074	 0.194856
30.9505	62.1651	80.6496	142.1743	170.4965	269.9839	292.2346	340.7034	345.3251	370.3926	463.871	536.8466	554.4552	617.6761	643.681	800.4922	864.0303	969.6055	1011.1068	1051.7572	1054.4227	1069.281	1156.8105	1197.9689	1272.435	1309.4934	1354.893	1413.3755	1423.463	1462.0925	1476.6327	1477.9791	2242.	2366.3267	3024.6642	3029.7098	3048.9291	3067.4183	3091.5959	3092.5256	3507.7296	3803.5207
CC#CC(O)CC#C	CC#C[C@@H](O)CC#C	
InChI=1S/C7H8O/c1-3-5-7(8)6-4-2/h1,7-8H,5H2,2H3	InChI=1S/C7H8O/c1-3-5-7(8)6-4-2/h1,7-8H,5H2,2H3/t7-/m0/s1
