18
gdb 56778	3.00206	1.27815	1.04425	2.9008	77.29	-0.2602	0.0385	0.2987	1176.2415	0.147076	-401.86577	-401.857225	-401.856281	-401.899032	32.846	
O	-0.2179883987	 1.3602912247	 0.1099624888	-0.412298
C	-0.0359640611	-0.0316906422	-0.0501022838	-0.168672
C	 0.7609797858	-0.3658658048	-1.2438052644	 0.321967
C	 1.4325402081	-0.6457675719	-2.2008210121	-0.46977
C	 0.6181263812	-0.6216368815	 1.184325744	 0.359535
C	 0.8488619505	-2.1013866719	 1.5173368567	-0.309141
C	 0.668255026	-1.7475324797	 3.0341098433	-0.237427
C	 0.4394123216	-0.2819797199	 2.6362692498	-0.097206
N	 1.5763891386	 0.2345979422	 1.8725078505	-0.370031
H	 0.5874958159	 1.6683117071	 0.5538021298	 0.293866
H	-1.0374173109	-0.4660421289	-0.1669783134	 0.114955
H	 2.0136165116	-0.882957589	-3.0576441783	 0.197282
H	 0.0531535059	-2.7533178531	 1.1488849159	 0.115839
H	 1.8117283742	-2.5122445638	 1.1989804506	 0.106722
H	-0.2152010987	-2.2205185612	 3.4682156621	 0.114748
H	 1.5223424643	-1.9284694408	 3.6949727034	 0.10286
H	-0.216099703	 0.4361296188	 3.1144613849	 0.106997
H	 2.4594545588	-0.224586554	 2.087134802	 0.229775
69.2505	107.4081	192.9063	223.7347	248.6945	349.8656	386.461	453.5696	486.198	520.3282	587.0953	631.2143	665.6765	752.2677	774.7724	787.5415	846.9625	913.5787	929.3647	947.7488	964.1016	1042.0175	1059.3539	1075.2209	1093.9424	1116.6886	1185.6227	1199.1219	1225.1156	1236.6987	1264.7284	1286.7299	1301.911	1331.2616	1422.6398	1447.9205	1479.0979	1500.1274	2229.4912	3027.0168	3048.5268	3057.7826	3102.5298	3119.2506	3188.4331	3467.8392	3502.1107	3708.8265
OC(C#C)C12CCC1N2	O[C@@H](C#C)[C@]12CC[C@H]1N2	
InChI=1S/C7H9NO/c1-2-6(9)7-4-3-5(7)8-7/h1,5-6,8-9H,3-4H2	InChI=1S/C7H9NO/c1-2-6(9)7-4-3-5(7)8-7/h1,5-6,8-9H,3-4H2/t5-,6+,7+/m1/s1
