15
gdb 29384	4.93824	0.91912	0.85549	1.3563	73.7	-0.2032	0.0073	0.2105	1335.7665	0.112411	-416.802999	-416.794518	-416.793574	-416.836929	31.185	
N	-0.1365760659	 1.3923005556	-0.4253528004	-0.59803
C	-0.0751157249	 0.0389596648	-0.1172247983	 0.2616
C	-1.0418235481	-0.8374864057	 0.2654404746	-0.123731
O	-0.4515488672	-2.0823910761	 0.3649984754	-0.169559
C	 0.8348502157	-1.8764881045	 0.0399714345	 0.404355
C	 1.7652135634	-3.0510412733	 0.0338172162	-0.447186
C	 1.872345722	-3.7210637884	 1.3278075614	 0.307557
C	 1.9628102934	-4.275578933	 2.3888648588	-0.450211
N	 1.124404467	-0.6466883299	-0.255718706	-0.344277
H	 0.7684437273	 1.8343019696	-0.3355429482	 0.256093
H	-0.8429903914	 1.9026320971	 0.0856048751	 0.248741
H	-2.0914227661	-0.7793805457	 0.4887189571	 0.132579
H	 1.4331755527	-3.7728580584	-0.7245592012	 0.154764
H	 2.7423986494	-2.6786251899	-0.2874632637	 0.166031
H	 2.0406537228	-4.7636559922	 3.3286684148	 0.201275
30.1552	97.7174	216.4357	248.8433	267.9127	326.1239	346.7149	408.8689	473.145	622.6824	632.8158	643.4922	652.1583	656.5141	730.5932	750.9079	799.9507	919.3916	954.4958	999.0337	1029.8718	1105.0952	1124.5094	1208.8917	1254.5144	1327.7508	1361.9067	1403.2643	1452.869	1601.6115	1636.4337	1675.6636	2246.8844	3022.186	3092.4924	3305.3994	3506.4507	3555.2224	3653.6004
NC1=COC(CC#C)=N1	Nc1coc(CC#C)n1	
InChI=1S/C6H6N2O/c1-2-3-6-8-5(7)4-9-6/h1,4H,3,7H2	InChI=1S/C6H6N2O/c1-2-3-6-8-5(7)4-9-6/h1,4H,3,7H2
