17
gdb 98906	3.53312	1.02952	0.8854	2.0971	64.58	-0.2635	-0.036	0.2275	1289.9433	0.134901	-496.10209	-496.093281	-496.092337	-496.137389	30.807	
O	-0.4878424733	 1.3995229605	-0.5823433438	-0.422447
C	-1.0078062883	 0.1070093992	-0.6625814244	-0.129974
C	-0.760596743	-0.6613341374	 0.6218902083	 0.312948
O	-0.1520042147	-0.1437030874	 1.5350929368	-0.329895
C	-1.2952285294	-2.0769237087	 0.7520751009	 0.014751
C	-2.4588301576	-2.176285659	 1.7746428155	-0.122479
O	-3.3001134968	-3.1545404754	 1.1913863503	-0.225084
C	-3.2112236741	-2.9265693062	-0.18735061	 0.019341
O	-1.8633332467	-2.5616505066	-0.4590309916	-0.264214
H	-0.0697539086	 1.4548558252	 0.291807824	 0.294493
H	-2.0926104894	 0.1174171826	-0.8588708779	 0.116929
H	-0.564552167	-0.4666803893	-1.4921026793	 0.133863
H	-0.4622846519	-2.7259684896	 1.0490056145	 0.123348
H	-2.1410977267	-2.5194222027	 2.7588544557	 0.143262
H	-2.9787822005	-1.2120138123	 1.8776693719	 0.110718
H	-3.4558250652	-3.8491970643	-0.7202405045	 0.1304
H	-3.8865373967	-2.1107893886	-0.5007551165	 0.094038
26.5676	60.6159	119.0311	173.269	232.9879	275.4462	330.5447	403.1743	453.499	509.7895	604.3515	726.9873	745.4201	822.0813	922.5053	956.8934	964.7926	1001.8956	1067.8939	1111.9817	1114.1173	1125.0097	1182.1369	1188.7782	1208.2873	1230.1495	1261.7416	1293.7492	1314.9262	1338.1826	1364.2319	1431.6397	1448.1009	1474.1022	1509.245	1546.3891	1792.005	2947.0769	2981.8612	2996.3475	2999.5503	3036.9031	3096.0835	3138.0065	3686.4598
OCC(=O)C1COCO1	OCC(=O)[C@H]1COCO1	
InChI=1S/C5H8O4/c6-1-4(7)5-2-8-3-9-5/h5-6H,1-3H2	InChI=1S/C5H8O4/c6-1-4(7)5-2-8-3-9-5/h5-6H,1-3H2/t5-/m1/s1
