19
gdb 8320	4.51115	1.12358	0.99754	1.1355	68.56	-0.2247	0.0618	0.2865	1193.0015	0.164873	-402.156782	-402.148032	-402.147088	-402.190746	31.814	
O	 0.297516554	 1.3261817051	-0.0058285777	-0.415533
C	 0.0543073941	-0.0737901075	 0.009100328	-0.070226
C	-1.4297237839	-0.4268137144	 0.0788304591	-0.140791
N	-2.1607208834	-0.0183908219	-1.1068667915	-0.098453
C	-2.5661403887	 1.3996774006	-1.2693105367	-0.208549
C	-3.8833821939	 0.9072741584	-1.9199892922	 0.140657
O	-3.8837907521	 0.8780237105	-3.3273753421	-0.436526
C	-3.5718311398	-0.4458630952	-1.2300611302	-0.202287
H	 0.0937979821	 1.6497213635	-0.8877758881	 0.289611
H	 0.5041043475	-0.5654209576	-0.865557703	 0.093389
H	 0.5551369602	-0.4587074152	 0.9042225794	 0.107351
H	-1.5184781056	-1.5174725632	 0.1685048307	 0.099358
H	-1.8624947026	 0.0158264499	 0.9971046813	 0.082665
H	-2.7269966191	 1.9196344991	-0.3122348198	 0.099132
H	-1.9183450745	 2.0137429032	-1.9065856905	 0.08952
H	-4.8016050592	 1.4147141107	-1.6234283499	 0.094514
H	-3.0853353643	 0.4146471735	-3.6057121337	 0.286509
H	-3.7376534297	-1.3551972164	-1.8187355023	 0.101638
H	-4.0837906809	-0.5444688831	-0.258751921	 0.08802
49.1233	81.5033	121.0734	221.7916	279.6282	315.5579	341.8208	378.9499	417.5191	439.1762	510.3418	677.979	836.7443	856.8445	894.2745	906.9074	942.9444	1006.3633	1023.4838	1055.5748	1073.2797	1116.3011	1126.1168	1137.5124	1174.8269	1202.8914	1231.7618	1248.7267	1269.2751	1311.9169	1319.1476	1330.7974	1395.0978	1401.9655	1416.3037	1440.4072	1473.8618	1488.0222	1491.9992	1517.7819	2918.7858	2968.8016	2985.3891	3001.9259	3043.0167	3044.222	3058.6971	3073.7167	3115.1864	3796.0134	3839.5754
OCCN1CC(O)C1	OCCN1CC(O)C1	
InChI=1S/C5H11NO2/c7-2-1-6-3-5(8)4-6/h5,7-8H,1-4H2	InChI=1S/C5H11NO2/c7-2-1-6-3-5(8)4-6/h5,7-8H,1-4H2
