16
gdb 33905	3.96223	1.29305	1.18136	4.7457	73.75	-0.266	0.007	0.2731	1046.7522	0.125733	-400.700464	-400.693447	-400.692503	-400.731912	27.548	
N	 0.0736961446	-1.1629736992	 0.0029176242	-0.34945
C	 0.044585909	-0.0049880224	-0.0035156246	 0.168613
C	 0.0009920898	 1.4167104607	 0.0259073294	 0.231151
C	 0.2664125838	 2.2833363762	-1.1822735181	-0.338939
C	 1.1694020815	 2.4471357462	-0.0025417602	-0.121144
C	 0.5262205288	 3.236792408	 1.1597712313	-0.069384
C	-0.5294276988	 4.3083521908	 0.8227921381	-0.110258
O	-1.5702341616	 3.2936085656	 0.7259840423	-0.289427
C	-0.6627365678	 2.2616561499	 1.1540780247	 0.038104
H	 0.7045606474	 1.7579119844	-2.0234029345	 0.143255
H	-0.4769874484	 3.0267585816	-1.44582362	 0.149011
H	 2.2249985415	 2.2172575972	-0.0691331991	 0.120622
H	 1.1585539344	 3.3770864764	 2.0334573891	 0.097713
H	-0.7393471908	 5.0043470167	 1.6426068989	 0.115562
H	-0.4053280886	 4.8695305916	-0.1096897885	 0.112846
H	-1.0133230047	 1.6964445365	 2.0190307271	 0.101727
125.4333	149.2415	236.018	318.2492	399.9817	464.689	528.73	552.5005	610.3594	716.9539	789.3901	812.9202	856.644	877.7874	915.1372	960.7572	968.8892	985.7365	992.6538	1031.4042	1057.2976	1088.6338	1116.114	1156.7628	1185.8162	1208.1279	1224.7307	1243.5642	1292.2305	1306.8407	1354.5579	1380.1754	1485.8427	1520.5007	2339.799	3030.3033	3078.8003	3104.0255	3142.1274	3145.4	3201.4633	3233.6952
N#CC12CC1C1COC21	N#C[C@]12C[C@H]1[C@H]1CO[C@@H]21	
InChI=1S/C7H7NO/c8-3-7-1-5(7)4-2-9-6(4)7/h4-6H,1-2H2	InChI=1S/C7H7NO/c8-3-7-1-5(7)4-2-9-6(4)7/h4-6H,1-2H2/t4-,5+,6-,7-/m1/s1
