15
gdb 37106	3.85137	1.75618	1.68814	1.7563	66.82	-0.2032	0.004	0.2072	827.0945	0.11425	-416.698735	-416.692635	-416.691691	-416.72872	25.728	
C	 0.0220391775	 1.4523874641	-0.0399015473	-0.376336
C	 1.3561360512	 0.7652564226	-0.0029972303	 0.273283
O	 1.9577082113	 0.4792197123	 1.2443026394	-0.242899
C	 1.0758728648	-0.3558264759	 1.8864198257	 0.085372
N	 0.0132058136	-0.7243329183	 1.2882624919	-0.298918
C	 0.0257256101	-0.0476625837	 0.015362912	 0.222679
C	 0.4891130386	-0.7885141999	-1.2681368926	-0.104994
N	 0.7500416044	 0.2429200446	-2.2974333912	-0.329635
C	 1.7729094372	-0.0399023533	-1.2622545451	-0.121458
H	-0.2740776308	 1.9538850453	 0.8743659665	 0.133512
H	-0.2683794352	 1.9372553655	-0.9623739186	 0.158745
H	 1.36444634	-0.6214457219	 2.8973216042	 0.147264
H	 0.2465807303	-1.8111974624	-1.5266180217	 0.106865
H	 1.0405539787	-0.2427092227	-3.1450819226	 0.239809
H	 2.7845457783	-0.3242160065	-1.5215062901	 0.106713
250.3853	293.8803	355.8991	408.3894	469.2799	525.3945	558.5811	641.0007	646.7176	808.7591	828.4754	838.982	863.6513	891.1045	907.2145	917.561	944.9053	956.6777	985.2221	1046.2121	1078.8332	1095.3338	1104.1432	1164.3955	1198.0345	1214.2442	1248.7004	1300.2925	1331.6309	1334.1348	1365.5463	1435.9035	1635.2445	3152.2737	3191.4043	3204.1497	3220.6491	3251.4652	3485.2555
C1C23OC=NC12C1NC31	C1[C@@]23OC=N[C@@]12[C@H]1N[C@@H]31	
InChI=1S/C6H6N2O/c1-5-3-4(8-3)6(1,5)9-2-7-5/h2-4,8H,1H2	InChI=1S/C6H6N2O/c1-5-3-4(8-3)6(1,5)9-2-7-5/h2-4,8H,1H2/t3-,4+,5+,6-/m0/s1
