18
gdb 81674	3.58113	1.274	1.18791	3.5637	71.56	-0.2373	0.0274	0.2647	1075.9448	0.149701	-439.11013	-439.102485	-439.101541	-439.142101	30.547	
O	-0.0537797829	 1.3958682987	 0.0477834979	-0.440893
C	 0.0245884182	-0.0107786821	 0.0104639216	 0.143361
C	-1.405906201	-0.6064483322	-0.0829626854	-0.045515
C	-1.3019368993	-0.4187435732	-1.6278486704	-0.231258
C	 0.2255540642	-0.6099691796	-1.421008432	-0.047685
N	 0.52663857	-2.0282651089	-1.2822505669	-0.295136
C	-0.2198360739	-2.8415464064	-0.4712125026	 0.397014
O	-0.0082572771	-4.030528349	-0.3408920138	-0.380893
C	-1.3517305674	-2.1007766329	 0.2609317993	-0.338766
H	 0.8342216728	 1.7505823962	-0.0643028983	 0.285674
H	 0.6886212061	-0.4103384632	 0.7899865054	 0.068368
H	-2.191728625	-0.0776458162	 0.4597820582	 0.080395
H	-1.808262046	-1.1390248203	-2.2744660147	 0.100291
H	-1.5431938324	 0.6021507612	-1.9226645657	 0.120613
H	 0.9377626517	-0.1396218671	-2.1012681567	 0.072137
H	 1.2823010323	-2.4581517165	-1.7923650596	 0.248352
H	-1.2021119051	-2.2605931154	 1.3344593843	 0.131372
H	-2.2893554152	-2.6028186329	-0.0004518006	 0.132569
76.7282	242.4132	284.1486	317.559	325.9489	384.7526	420.3894	443.6046	466.6671	544.4977	610.6892	657.6952	783.9008	856.3636	867.0491	874.6139	913.9349	948.5191	995.1605	1014.8467	1080.7263	1097.4193	1102.5583	1124.2009	1125.6378	1178.3082	1218.6719	1251.698	1271.8539	1285.4534	1289.1122	1328.0751	1344.1059	1369.2246	1419.0934	1444.0065	1464.7695	1483.0602	1803.5419	3003.3212	3049.1234	3074.4592	3087.665	3093.3711	3097.694	3149.1503	3632.6953	3812.6423
OC1C2CC1NC(=O)C2	O[C@H]1[C@H]2C[C@@H]1NC(=O)C2	
InChI=1S/C6H9NO2/c8-5-2-3-1-4(7-5)6(3)9/h3-4,6,9H,1-2H2,(H,7,8)	InChI=1S/C6H9NO2/c8-5-2-3-1-4(7-5)6(3)9/h3-4,6,9H,1-2H2,(H,7,8)/t3-,4-,6-/m0/s1
