18
gdb 75787	2.29546	1.3241	1.21833	2.6164	73.81	-0.2598	-0.0438	0.216	1146.1205	0.144698	-439.101738	-439.092237	-439.091293	-439.136449	34.121	
C	-0.5108896126	 1.1731189336	-0.1743059077	-0.41885
C	 0.083392121	-0.2276902823	-0.1105599374	-0.183887
C	 1.4049610846	-0.4546007368	-0.8164221461	 0.438315
N	 1.8232773178	-0.2756721306	-1.982983293	-0.543195
O	 2.0659496653	-0.9206726978	 0.3106120935	-0.305137
C	 0.8654362112	-0.7081335747	 1.1428648407	 0.310524
C	 1.144517293	 0.2589582561	 2.2797670269	-0.456078
C	 0.4355870277	-2.0613028803	 1.6888945887	 0.118939
O	-0.6937970721	-2.4726779858	 1.666170312	-0.239188
H	 0.2145845193	 1.9420771062	 0.1043266827	 0.124176
H	-0.8360000431	 1.382233124	-1.1969481709	 0.147698
H	-1.3802563731	 1.2592854235	 0.4842773434	 0.12805
H	-0.6677112117	-0.9683468019	-0.3982741451	 0.128635
H	 2.8067285973	-0.5355373173	-2.0753968258	 0.229997
H	 1.577393613	 1.1864326344	 1.8976834651	 0.142003
H	 0.2197531329	 0.4933841647	 2.8156051385	 0.143666
H	 1.8537646141	-0.1795916071	 2.9891706188	 0.135928
H	 1.2732128953	-2.650473778	 2.1244158158	 0.098405
49.6519	85.1918	164.7305	198.325	206.678	238.738	268.0184	301.0497	347.2392	399.7677	503.3964	547.8173	642.9125	690.8539	770.1438	834.1443	870.242	876.9419	930.5499	984.0647	998.9497	1039.5709	1075.7137	1110.3832	1139.6133	1196.0596	1226.0102	1277.1052	1286.3592	1373.437	1400.1234	1405.1992	1415.3119	1477.9366	1487.2653	1497.7268	1505.1938	1827.5261	1837.3764	2892.2304	3042.0177	3047.176	3081.1676	3113.3874	3118.8047	3123.8647	3131.5104	3477.4912
CC1C(=N)OC1(C)C=O	C[C@H]1[C]([NH])O[C@]1(C)C=O	
InChI=1S/C6H9NO2/c1-4-5(7)9-6(4,2)3-8/h3-4,7H,1-2H3	InChI=1S/C6H9NO2/c1-4-5(7)9-6(4,2)3-8/h3-4,7H,1-2H3/t4-,6+/m0/s1
