15
gdb 30997	2.38602	1.3438	0.89911	3.8404	65.22	-0.1954	0.027	0.2224	1219.8982	0.112556	-491.127119	-491.118217	-491.117273	-491.160975	32.216	
O	 0.1032242357	 1.3720125819	 0.2963445845	-0.414902
C	 0.0459787429	-0.02534954	 0.0122967571	-0.185135
C	-1.3467597746	-0.5378603552	-0.055845063	 0.19389
C	-2.0018629516	-1.2071833907	-1.0279235863	 0.245903
O	-1.5848385573	-1.5584263773	-2.2697119383	-0.424446
N	-3.2890671418	-1.495655125	-0.5729737436	-0.398551
C	-3.4986801741	-0.9315656036	 0.6914374593	 0.436866
O	-4.5235540293	-0.9176580369	 1.3402844617	-0.422226
N	-2.2589939524	-0.4001903238	 1.0060494736	-0.398946
H	-0.3751884327	 1.8260822439	-0.4062061174	 0.284291
H	 0.5588679659	-0.2813953189	-0.9244761509	 0.112582
H	 0.5996801236	-0.4957472807	 0.8337707486	 0.120681
H	-1.4877580444	-2.5175421064	-2.3244607292	 0.308608
H	-4.0513832018	-1.8235623177	-1.1410176915	 0.268755
H	-2.1260244879	 0.2077089503	 1.7961198352	 0.27263
70.6406	117.2196	177.6241	202.4267	250.5091	278.8724	325.6925	373.0256	414.0625	417.7051	518.6767	585.7059	626.2794	652.2757	689.2621	754.3143	848.9183	963.7592	994.6957	1035.5673	1102.2486	1198.0384	1232.2804	1250.5849	1262.3318	1327.3836	1375.5393	1394.6572	1418.7069	1457.4622	1496.1074	1749.6549	1850.1033	3015.7157	3057.9175	3680.4957	3681.2098	3756.2493	3802.4748
OCC1=C(O)NC(=O)N1	OCc1c(O)[nH]c(=O)[nH]1	
InChI=1S/C4H6N2O3/c7-1-2-3(8)6-4(9)5-2/h7-8H,1H2,(H2,5,6,9)	InChI=1S/C4H6N2O3/c7-1-2-3(8)6-4(9)5-2/h7-8H,1H2,(H2,5,6,9)
