22
gdb 72904	2.62226	1.76531	1.39045	1.4968	83.9	-0.2191	0.083	0.3022	1037.393	0.196455	-367.187281	-367.179543	-367.178599	-367.218868	32.302	
C	-0.3208333122	 1.4118839613	 0.0927215458	-0.470371
C	 0.070097971	-0.0553991685	-0.0454950172	 0.371963
C	-1.1070255012	-1.0381198699	 0.2742204624	-0.286253
C	-0.4002690653	-1.4545972577	 1.5959189392	-0.225079
C	 0.8637985601	-0.665841935	 1.1639399396	-0.027774
N	 2.0114020474	-1.4321179187	 0.6501952373	-0.103588
C	 1.7052951921	-2.564395222	-0.2377668792	-0.254385
C	 2.0633353989	-1.2488551835	-0.8187308756	-0.007497
C	 0.9352809202	-0.3385295972	-1.2952993632	-0.31748
H	 0.5642801788	 2.0581596821	 0.1012410099	 0.11467
H	-0.9621267434	 1.7304121839	-0.7376000772	 0.114499
H	-0.8737978822	 1.5901110769	 1.0217847367	 0.112544
H	-2.0824724456	-0.5584257464	 0.3929501255	 0.093549
H	-1.2205788634	-1.8488149519	-0.4512910658	 0.096934
H	-0.8727843269	-1.0306513384	 2.48521705	 0.101523
H	-0.2555566784	-2.5235495031	 1.7666854806	 0.105376
H	 1.2476976896	 0.0489115815	 1.8978769827	 0.069121
H	 2.4379687675	-3.3665665195	-0.203128926	 0.11224
H	 0.6807436428	-2.9100163585	-0.3428450885	 0.111056
H	 3.0503614549	-1.1013638796	-1.2494831426	 0.085873
H	 0.3537516946	-0.787735116	-2.1081011309	 0.10376
H	 1.3583194807	 0.5940091002	-1.6844136833	 0.09932
133.9854	239.4316	246.7582	256.3203	340.2054	351.4971	386.1142	453.9937	593.6531	632.2749	686.1596	716.25	768.243	822.6087	855.3621	858.5083	882.4438	922.8178	945.4884	947.3802	966.3548	990.1747	1028.6153	1051.0881	1096.2729	1111.4249	1137.0648	1142.5111	1160.4368	1178.1956	1206.817	1220.6113	1241.2034	1264.6692	1272.8552	1279.078	1288.1991	1331.8815	1342.7808	1390.5361	1410.8708	1478.3141	1485.9791	1490.131	1494.4722	1497.0982	1517.5931	3018.0785	3035.7289	3048.9622	3052.8798	3069.1045	3072.2713	3084.7429	3089.0339	3094.559	3108.6637	3119.4371	3137.492	3188.3121
CC12CCC1N1CC1C2	C[C@]12CC[C@H]1N1C[C@H]1C2	
InChI=1S/C8H13N/c1-8-3-2-7(8)9-5-6(9)4-8/h6-7H,2-5H2,1H3	InChI=1S/C8H13N/c1-8-3-2-7(8)9-5-6(9)4-8/h6-7H,2-5H2,1H3/t6-,7-,8-,9?/m1/s1
