21
gdb 66173	3.27155	0.80152	0.74093	1.8107	80.05	-0.251	-0.0223	0.2287	1588.6226	0.180126	-424.226491	-424.21656	-424.215616	-424.262347	36.037	
O	-0.1666572229	 1.5913850133	-0.2628975685	-0.48193
C	-0.0656852118	 0.2054725232	 0.0134856974	 0.416991
C	 0.8335331206	-0.5009940648	-1.0117818004	-0.237187
C	 2.264181029	 0.0630113671	-1.0682590719	-0.300429
C	 3.0929122089	-0.6288817886	-2.1251083137	 0.160365
O	 4.1326650309	-1.2012953912	-1.9240285396	-0.237238
C	 0.2199910601	-0.1933631761	 1.4961917048	-0.28213
C	-0.9765050084	-1.1811538522	 1.4269572132	-0.211507
C	-1.4602396151	-0.4598879961	 0.1397767078	-0.258804
H	 0.658529937	 2.0148604964	-0.003935453	 0.278771
H	 0.8699102756	-1.5725896337	-0.7808386077	 0.110131
H	 0.3647142062	-0.4010968119	-1.9987433819	 0.108876
H	 2.2118768341	 1.1268299551	-1.3420223502	 0.114182
H	 2.7820830064	-0.0284307814	-0.108743028	 0.121714
H	 2.6549071344	-0.5813949439	-3.1502756504	 0.07293
H	 1.2055701352	-0.6023911781	 1.7343458865	 0.097488
H	 0.0133849889	 0.6510130711	 2.1590804266	 0.105294
H	-0.6578015605	-2.2092341509	 1.2374730143	 0.107002
H	-1.6605073041	-1.1862249358	 2.2772542783	 0.104879
H	-2.2151275396	 0.3012782849	 0.3482527373	 0.114362
H	-1.7949379448	-1.0763980366	-0.6984981212	 0.096242
49.4358	63.9968	115.7	130.2726	170.259	231.8803	280.5935	320.4785	357.8277	428.9057	467.258	529.7687	647.1018	731.0005	774.2816	790.9208	839.3902	875.3531	922.6022	937.6662	971.3891	978.7867	1012.8941	1034.1797	1049.3897	1105.234	1160.16	1193.0755	1197.5459	1220.4739	1250.141	1260.148	1266.8341	1284.0182	1289.2906	1328.707	1341.257	1384.2503	1430.3856	1462.6942	1471.2763	1480.7948	1485.2236	1505.2602	1835.7596	2853.9688	3009.921	3024.9102	3054.4204	3062.5119	3066.0395	3070.4102	3096.4041	3105.3314	3117.1247	3131.0218	3810.0292
OC1(CCC=O)CCC1	OC1(CCC=O)CCC1	
InChI=1S/C7H12O2/c8-6-2-5-7(9)3-1-4-7/h6,9H,1-5H2	InChI=1S/C7H12O2/c8-6-2-5-7(9)3-1-4-7/h6,9H,1-5H2
