16
gdb 18396	3.09378	2.46647	1.57668	2.6834	66.47	-0.246	-0.006	0.2399	813.074	0.131938	-383.710094	-383.703452	-383.702508	-383.741086	25.463	
C	 0.2141623466	 1.3047581235	-0.4228963305	-0.140582
O	 0.5449426119	 2.2524285852	 0.5677549817	-0.218802
C	 1.7329093753	 2.0144874648	 1.2760172879	-0.133161
C	 1.617930869	 0.990422052	 2.3875609397	 0.047811
O	 0.4159737769	 0.984442124	 3.1420796411	-0.245347
C	 0.7383371903	-0.1901291958	 2.3590698556	 0.016676
C	-0.1390077882	-0.6085301308	 1.2367067417	-0.059256
C	-0.3490166799	-0.0019561322	 0.0681317849	-0.066322
H	-0.5363210581	 1.792871177	-1.0553612676	 0.120858
H	 1.087931309	 1.1071716968	-1.0719959435	 0.101238
H	 2.5548543064	 1.71770096	 0.6011651734	 0.091195
H	 2.0092232176	 2.9754695623	 1.7263859966	 0.120942
H	 2.5333496166	 0.9154482354	 2.9839436682	 0.084584
H	 1.0433589469	-1.0267806697	 2.9896704881	 0.089788
H	-0.6440207535	-1.5569207311	 1.4058380534	 0.093119
H	-1.0076584867	-0.4934095313	-0.6465259005	 0.097259
73.0023	222.5466	279.7182	337.183	396.4664	472.2081	499.5131	691.4714	716.9913	752.5107	794.8761	856.5102	885.5219	930.0484	943.4163	999.1517	1030.3933	1048.6861	1058.9901	1127.7602	1160.02	1189.406	1247.1964	1287.6458	1304.1891	1338.6134	1389.9821	1400.1175	1421.5572	1434.5525	1470.8415	1484.4914	1493.9748	1733.9579	2931.353	2958.473	3049.7482	3055.1592	3060.1603	3093.3062	3133.4212	3159.1121
C1OCC2OC2C=C1	C1OC[C@H]2O[C@H]2C=C1	
InChI=1S/C6H8O2/c1-2-5-6(8-5)4-7-3-1/h1-2,5-6H,3-4H2	InChI=1S/C6H8O2/c1-2-5-6(8-5)4-7-3-1/h1-2,5-6H,3-4H2/t5-,6+/m0/s1
