21
gdb 60541	2.86694	1.12491	1.07992	2.1252	77.98	-0.2617	0.0825	0.3443	1254.1791	0.180241	-424.187134	-424.177477	-424.176533	-424.221705	35.833	
C	 0.1248117132	 1.7044225897	-0.0792696479	-0.426715
C	-0.0241349083	 0.1843584847	 0.0697909411	-0.075081
C	 0.3374444167	-0.5945600199	-1.1857045406	 0.087246
C	 0.2054243438	-0.0779100964	-2.5528988565	-0.193035
O	 1.4888366428	-0.1748552632	-1.9296541568	-0.234779
C	 0.7803380251	-0.3613028433	 1.2520897339	 0.424366
C	 2.2821929393	-0.1713237028	 1.2294371621	-0.468137
C	 0.0940308289	-0.5527245745	 2.538429593	-0.239262
O	 0.346922198	-1.6662525641	 1.6763449356	-0.286702
H	 1.1089813425	 1.9653403054	-0.4764998713	 0.142449
H	-0.6316995852	 2.1104887279	-0.7564304845	 0.117172
H	-0.0007396882	 2.1985726784	 0.8886472654	 0.115891
H	-1.0740790579	-0.0547816457	 0.2835659078	 0.083777
H	 0.2758442517	-1.6754835399	-1.0536004232	 0.109236
H	 0.0314924283	-0.7731873453	-3.3730655768	 0.115842
H	-0.1509463984	 0.9355371106	-2.7249480936	 0.113877
H	 2.5442121276	 0.8902235103	 1.2806223522	 0.122847
H	 2.7355301222	-0.6816757795	 2.0826255696	 0.122805
H	 2.714482474	-0.5751754028	 0.3099843558	 0.150753
H	 0.6686190742	-0.5406011594	 3.4639389909	 0.110243
H	-0.9535551603	-0.2712722703	 2.6441082636	 0.107209
67.7143	81.45	165.6175	190.4527	222.0408	241.3242	270.2749	322.4119	341.1609	374.2021	453.1037	512.5565	614.7721	715.1831	778.1628	829.4873	853.3601	909.2743	924.7591	945.7347	980.5084	1000.0094	1055.6616	1093.5693	1095.5843	1117.1899	1135.416	1149.6512	1164.0091	1172.2055	1187.1842	1285.8372	1290.3596	1295.2446	1350.0722	1399.0385	1403.8077	1427.5961	1434.6077	1483.0811	1494.8694	1497.6676	1513.4825	1532.4674	1535.0148	3024.2425	3045.2366	3047.1258	3076.0198	3089.5906	3108.4039	3110.7168	3114.3642	3127.0492	3129.9961	3160.4156	3176.4363
CC(C1CO1)C1(C)CO1	C[C@@H]([C@H]1CO1)[C@@]1(C)CO1	
InChI=1S/C7H12O2/c1-5(6-3-8-6)7(2)4-9-7/h5-6H,3-4H2,1-2H3	InChI=1S/C7H12O2/c1-5(6-3-8-6)7(2)4-9-7/h5-6H,3-4H2,1-2H3/t5-,6+,7+/m0/s1
