19
gdb 82378	2.37547	1.98403	1.33503	3.1573	74.13	-0.2448	0.0826	0.3274	1003.0854	0.160384	-423.00523	-422.997599	-422.996655	-423.037091	30.178	
C	 0.5735108068	 1.5140416908	 0.0105417479	-0.390698
C	 0.0871515845	 0.0555032037	 0.001931772	-0.055569
C	 0.5166901366	-0.6492098888	-1.2723693499	 0.045732
O	 1.9184423188	-0.8515128581	-1.4775346045	-0.249778
C	 1.0922485121	-2.0015669853	-1.2813077345	 0.04935
C	 1.2875642716	-2.7986944179	-0.0102264807	-0.283674
C	 1.0867178921	-2.0147568864	 1.2681740156	 0.049348
O	 1.9120298409	-0.8668063216	 1.4798616384	-0.249778
C	 0.5111794301	-0.662363944	 1.2707300569	 0.045734
H	 1.6659245826	 1.5384201716	 0.0130497099	 0.152028
H	 0.2165182992	 2.0519780764	-0.8733415849	 0.112361
H	 0.212642985	 2.0428081757	 0.8983741313	 0.112362
H	-1.013295188	 0.0531422604	-0.0004646567	 0.078972
H	-0.0105208003	-0.3094248817	-2.1665627059	 0.086299
H	 0.9651182166	-2.6077380047	-2.1800870003	 0.087936
H	 0.5734513558	-3.6329789475	-0.0160932507	 0.108616
H	 2.2888481618	-3.2483862263	-0.0103811059	 0.126524
H	 0.955711622	-2.6301854544	 2.1600779924	 0.087937
H	-0.0199123686	-0.3318328821	 2.1660950995	 0.086298
106.9603	213.2386	224.9159	242.8231	332.793	337.6723	440.365	462.7369	510.9594	691.0448	698.7667	755.5819	812.5858	836.9608	877.9929	899.4051	923.157	963.4129	1010.1233	1012.6672	1026.1857	1063.1827	1090.9552	1138.1904	1151.5199	1167.218	1169.1761	1262.4658	1295.8223	1296.9062	1319.2113	1352.6194	1377.7959	1381.0307	1402.1834	1418.464	1460.9741	1463.2576	1493.5408	1506.2863	1511.0668	2998.7639	3021.0863	3039.3089	3056.642	3077.804	3080.2128	3091.9597	3096.0809	3105.4809	3130.7702
CC1C2OC2CC2OC12	C[C@H]1[C@H]2O[C@H]2C[C@H]2O[C@@H]12	
InChI=1S/C7H10O2/c1-3-6-4(8-6)2-5-7(3)9-5/h3-7H,2H2,1H3	InChI=1S/C7H10O2/c1-3-6-4(8-6)2-5-7(3)9-5/h3-7H,2H2,1H3/t3-,4-,5+,6+,7-
