21
gdb 63206	2.7598	1.50236	1.28757	1.9956	82.52	-0.2391	0.0114	0.2505	1091.3179	0.183048	-387.085745	-387.077353	-387.076409	-387.118304	33.229	
C	 0.0040691232	 1.5634558297	-0.06556586	-0.430604
C	-0.0158443832	 0.0257742039	-0.0182668735	 0.239211
C	-1.4826851255	-0.4562870877	-0.0240504122	-0.418507
C	 0.7367727571	-0.5948024596	-1.1871434127	-0.086704
C	 1.592099289	-1.5539770888	-0.834681192	-0.109755
C	 1.6318075852	-1.7375503682	 0.6583091716	 0.086118
O	 2.8149460991	-1.1754694775	 1.2849040877	-0.296288
C	 2.0825684268	 0.006224023	 1.6739033792	-0.100904
C	 0.7364830412	-0.5895661167	 1.1929924635	-0.107477
H	 1.0195855216	 1.9615742334	-0.1368941979	 0.120206
H	-0.5531932323	 1.9258896764	-0.9365227231	 0.112861
H	-0.4671278437	 1.9895533767	 0.8270994774	 0.113509
H	-1.9878922053	-0.1688108442	-0.9525767901	 0.110914
H	-1.5388841174	-1.5457883654	 0.0633199333	 0.115791
H	-2.0402690739	-0.0156682648	 0.8103899056	 0.111303
H	 0.5442084252	-0.2758075097	-2.2079958826	 0.092612
H	 2.2101234105	-2.1322655274	-1.5123881187	 0.099327
H	 1.4712359537	-2.7689444993	 0.9921891227	 0.076009
H	 2.1624201429	 0.1910469283	 2.7512997408	 0.101144
H	 2.4291808477	 0.8968040451	 1.1366082488	 0.098808
H	 0.0650967579	-0.8437087973	 2.0145624923	 0.072423
86.8369	195.3822	211.4871	240.3305	268.9602	332.2097	343.3762	355.1034	438.2379	567.0763	573.4148	707.8722	745.8164	790.0409	859.5204	884.1608	899.9058	936.5849	947.0294	977.7264	983.8609	1005.4147	1013.2823	1016.3301	1041.6661	1067.6396	1118.5187	1164.8679	1185.565	1200.8361	1240.7327	1253.7706	1273.6649	1317.7661	1333.3315	1353.1716	1381.0528	1395.3402	1420.5212	1483.5501	1487.4291	1500.3181	1509.1195	1521.8938	1675.2568	3021.0218	3023.0915	3031.3956	3040.9598	3061.4926	3089.0014	3093.9481	3097.6357	3103.3118	3113.0845	3165.7094	3202.1638
CC1(C)C=CC2OCC12	CC1(C)C=C[C@H]2OC[C@@H]12	
InChI=1S/C8H12O/c1-8(2)4-3-7-6(8)5-9-7/h3-4,6-7H,5H2,1-2H3	InChI=1S/C8H12O/c1-8(2)4-3-7-6(8)5-9-7/h3-4,6-7H,5H2,1-2H3/t6-,7-/m1/s1
