20
gdb 79566	2.31295	1.73955	1.28282	1.2854	79.07	-0.2135	0.0648	0.2783	1074.5941	0.16916	-403.05913	-403.050141	-403.049197	-403.092051	35.063	
C	-0.1267398943	 1.4936943608	-0.0214845558	-0.496668
C	-0.0841587747	-0.0104323042	-0.0502824168	 0.225977
C	-0.9053875562	-0.8561882729	 0.8663601641	 0.037394
O	-1.9104166642	-1.7564263344	 0.4777034441	-0.421804
C	 0.5891128522	-1.037645347	 0.8906531134	-0.120042
N	 1.2968547578	-1.7302963135	-0.2430698489	-0.185194
C	 0.3190360993	-2.2441802568	-1.2449498035	-0.301561
C	 0.6151080867	-0.7947537961	-1.1996445429	 0.277168
C	 1.3898656853	-0.0807685714	-2.2707719663	-0.480663
H	 0.8472127183	 1.9372108034	-0.2509471217	 0.124097
H	-0.8488052365	 1.8826859008	-0.749933997	 0.125943
H	-0.429913567	 1.8539237579	 0.966209241	 0.119525
H	-1.2030653852	-0.2604155219	 1.7347911338	 0.089929
H	-1.9631383802	-2.4411659572	 1.1543338312	 0.28703
H	 1.1691676096	-0.8956083219	 1.7965319216	 0.094624
H	 0.8275502908	-2.8050164416	-2.02570465	 0.109382
H	-0.6358921363	-2.6354316458	-0.9316986262	 0.144683
H	 0.7161628209	 0.3962417028	-2.9923504462	 0.120178
H	 2.042798372	 0.692608042	-1.853794995	 0.122425
H	 2.0193488017	-0.7919928631	-2.8126040692	 0.127578
120.426	163.6077	180.6423	216.4923	270.9012	282.1458	312.3423	346.6963	376.0374	455.6618	526.6145	581.8939	604.4272	644.6873	736.5344	753.2908	840.9705	885.9889	920.0374	953.6149	967.4983	987.8447	1020.7077	1084.7615	1098.0832	1101.4036	1121.4346	1135.6953	1155.7844	1197.9125	1264.1817	1285.721	1317.2499	1344.9526	1372.2356	1412.7403	1419.1633	1472.7171	1477.5321	1490.0085	1494.0955	1502.3388	1503.6646	3024.0143	3030.7744	3053.6657	3084.6213	3093.7704	3105.2457	3113.9899	3123.6196	3161.5127	3267.9117	3792.9683
CC12C(O)C1N1CC21C	C[C@]12[C@@H](O)[C@H]1N1C[C@@]21C	
InChI=1S/C7H11NO/c1-6-3-8(6)4-5(9)7(4,6)2/h4-5,9H,3H2,1-2H3	InChI=1S/C7H11NO/c1-6-3-8(6)4-5(9)7(4,6)2/h4-5,9H,3H2,1-2H3/t4-,5+,6+,7-,8?/m1/s1
