18
gdb 36083	3.70306	1.18769	1.10963	3.9953	79.93	-0.2383	0.0004	0.2388	1136.7457	0.149109	-364.796294	-364.788764	-364.78782	-364.828646	29.776	
N	-0.0888389774	-1.1553508778	-0.1439436663	-0.311731
C	-0.0694645264	-0.0053447068	-0.0319388982	 0.264064
C	-0.0202975413	 1.4504157277	 0.1083342024	-0.46799
C	 1.3984822094	 2.0004764406	 0.0327382769	 0.304574
C	 2.2750895669	 1.9468556215	-1.2686821792	-0.240661
C	 3.0789904965	 3.0406890479	-0.4837373646	-0.07682
C	 1.6828053911	 3.5438092787	 0.0192255653	-0.260409
C	 3.533511038	 2.2246667821	 0.7359694058	-0.088317
C	 2.4375805519	 1.5436587887	 1.0754380929	-0.114958
H	-0.6432511838	 1.8950172287	-0.6761490791	 0.149441
H	-0.4799370731	 1.7217416695	 1.0667972729	 0.152793
H	 2.7827920478	 1.0066212051	-1.4912382329	 0.111561
H	 1.7595990585	 2.3358074467	-2.1535712995	 0.094667
H	 3.792210908	 3.701864732	-0.9727738317	 0.069096
H	 1.1118928368	 4.0817728768	-0.7454173229	 0.0943
H	 1.648779447	 4.0681476508	 0.9770382249	 0.098521
H	 4.5184676572	 2.2254406541	 1.1800947723	 0.106892
H	 2.2680404928	 0.8256329236	 1.8653186008	 0.114977
62.9957	107.8398	282.3514	291.9733	392.333	447.4339	472.1029	531.5849	538.6359	682.5348	700.0628	729.4349	834.0202	836.3177	865.12	906.9191	910.6026	919.8566	949.1644	965.0949	1017.8103	1028.9456	1063.0691	1080.0535	1099.6319	1154.5889	1162.5724	1219.0954	1229.7337	1254.5935	1265.6954	1276.4996	1334.8695	1344.9534	1463.0264	1476.9692	1515.5723	1630.2992	2361.2659	3035.7036	3038.3379	3050.2828	3074.0842	3115.8811	3126.9709	3132.8258	3222.2651	3249.2673
N#CCC12CC(C1)C=C2	N#CC[C@@]12C[C@@H](C1)C=C2	
InChI=1S/C8H9N/c9-4-3-8-2-1-7(5-8)6-8/h1-2,7H,3,5-6H2	InChI=1S/C8H9N/c9-4-3-8-2-1-7(5-8)6-8/h1-2,7H,3,5-6H2/t7-,8-
