18
gdb 49663	2.82496	1.51554	1.44387	3.8678	75.57	-0.2439	0.0141	0.258	992.9414	0.149421	-401.934135	-401.926795	-401.925851	-401.966068	28.764	
O	 0.1240922189	 0.2324867944	-0.6112684122	-0.319166
C	 0.1609244732	 1.3894895305	-0.2566143763	 0.132593
N	 1.2520852802	 2.0073751756	 0.2894114291	-0.034028
C	 2.6704042483	 1.89815162	 0.1122918382	-0.040338
C	 3.2343964875	 1.672319022	-1.2931404331	-0.260737
C	 2.8956255293	 2.9242532119	-2.1127704022	-0.033838
C	 1.4604883525	 3.2326447876	-2.4388359009	-0.311768
C	 2.1019903547	 3.8823283025	-1.2354839669	-0.035317
C	 1.9657920773	 3.2482182616	 0.1352495443	-0.078468
H	-0.7211414795	 2.0589561984	-0.2674892372	 0.083358
H	 3.2231621261	 1.513606952	 0.9661518607	 0.105423
H	 4.3207473437	 1.5630793859	-1.2168904305	 0.110314
H	 2.8432472508	 0.7518992539	-1.7371461109	 0.140404
H	 3.6565870177	 3.2988881566	-2.7885813174	 0.091294
H	 1.2762556092	 3.874922919	-3.2939308957	 0.115737
H	 0.7103764944	 2.4627018603	-2.3052952355	 0.141465
H	 2.2792896157	 4.9511333106	-1.2545359855	 0.090384
H	 1.9898484	 3.9015401873	 1.0030571021	 0.102689
93.3216	126.85	241.288	277.3555	333.5093	404.3634	502.4543	628.9779	678.4967	720.9052	745.6242	801.3346	810.707	844.9917	882.4865	923.4916	963.6164	983.2704	1025.3585	1048.2114	1055.4979	1069.5816	1077.0187	1101.1741	1116.5683	1124.4972	1133.9547	1198.7518	1225.8695	1297.0665	1318.5329	1341.0755	1358.9304	1390.2461	1416.8694	1474.1907	1484.8867	1495.961	1779.3805	2942.8637	3055.5296	3096.3967	3136.4739	3138.5992	3148.7366	3165.3585	3182.4951	3225.2657
O=CN1C2CC3CC3C12	O=CN1[C@H]2C[C@H]3C[C@H]3[C@@H]12	
InChI=1S/C7H9NO/c9-3-8-6-2-4-1-5(4)7(6)8/h3-7H,1-2H2	InChI=1S/C7H9NO/c9-3-8-6-2-4-1-5(4)7(6)8/h3-7H,1-2H2/t4-,5-,6+,7-,8?/m1/s1
