18
gdb 26522	2.32401	1.81789	1.03296	5.9245	84.68	-0.2017	-0.007	0.1946	1139.228	0.149121	-398.183221	-398.174408	-398.173464	-398.216815	32.588	
C	 0.0920499248	 1.5343979112	 0.1426947826	-0.502161
C	-0.0522243449	 0.0412898251	 0.0957299302	 0.250893
C	-1.184799019	-0.6824741117	-0.0639738865	 0.183323
C	-2.5590654677	-0.103455238	-0.2298781788	-0.480014
C	-1.0982071747	-2.1571997879	-0.0814785831	 0.268624
N	-2.1675573805	-2.8511642438	-0.2345786341	-0.533743
N	 0.1676908961	-2.7627221084	 0.0723753928	-0.324614
C	 1.1912779857	-2.0051647217	 0.2185837222	 0.084196
N	 1.1553410096	-0.6439833184	 0.2377013296	-0.356663
H	 0.7575559751	 1.8849547709	-0.6561794013	 0.136689
H	-0.8634527218	 2.0416580873	 0.0291225464	 0.152467
H	 0.5319022224	 1.8518669452	 1.0964609752	 0.136566
H	-2.9964821879	-0.4492288402	-1.1719351733	 0.146766
H	-3.2195854618	-0.4844950747	 0.555548286	 0.146752
H	-2.5767080963	 0.9871940881	-0.2098576185	 0.10101
H	-1.9125968667	-3.8406078049	-0.2203965565	 0.208209
H	 2.1813438068	-2.4428001274	 0.339634318	 0.1231
H	 2.0084340808	-0.1237770306	 0.360930639	 0.258599
90.1459	96.2918	127.5218	170.3365	281.8938	332.7192	343.9119	403.1824	504.177	511.7279	527.0605	527.5666	571.7852	680.4388	784.2728	861.9638	899.8635	911.009	962.7767	982.3557	1042.872	1050.0894	1068.4504	1147.1042	1172.0599	1222.9263	1269.8101	1372.0492	1408.9494	1423.3641	1429.0461	1461.6594	1478.4175	1483.4246	1486.7853	1523.6076	1662.0984	1670.4555	1720.8265	3023.7364	3046.8216	3069.5197	3096.5364	3134.4031	3141.0985	3172.5276	3460.2423	3646.5957
CC1=C(C)C(=N)N=CN1	C[C@H]1C(=C([NH])N=CN1)C	
InChI=1S/C6H9N3/c1-4-5(2)8-3-9-6(4)7/h3H,1-2H3,(H2,7,8,9)	InChI=1S/C6H10N3/c1-4-5(2)8-3-9-6(4)7/h3,5,7H,1-2H3,(H,8,9)/t5-/m0/s1
