19
gdb 72389	2.71495	1.93164	1.40537	1.7569	78.72	-0.2177	0.0064	0.224	972.2627	0.160633	-385.859851	-385.852593	-385.851649	-385.891015	29.972	
C	-0.0536175915	 1.4782807606	-0.0596937876	-0.476929
C	-0.0632403921	-0.0380764332	-0.00841638	 0.295182
C	 1.0456385227	-0.721377883	-0.8196427746	-0.33859
C	 0.6599164385	-2.047534924	-1.4243143315	-0.051903
C	-0.3883116411	-2.7481570234	-0.9953446009	-0.056273
C	-1.201395829	-2.1931051629	 0.1359474701	 0.038267
O	-0.3985108452	-2.0286727237	 1.3647602371	-0.308812
C	-0.5702096795	-0.6170095064	 1.2934607286	 0.060948
C	-1.4384440005	-0.6751560795	 0.0683108457	-0.195298
H	 0.911759094	 1.8761434686	 0.2738565017	 0.119836
H	-0.2310603643	 1.8414703162	-1.078568325	 0.119485
H	-0.829551092	 1.9064589986	 0.5836197675	 0.116344
H	 1.3639325854	-0.0476574724	-1.6262869724	 0.103137
H	 1.9337362693	-0.8556000472	-0.1854015643	 0.124381
H	 1.2838019005	-2.4171142744	-2.23398443	 0.093395
H	-0.6557559349	-3.7056724778	-1.4298688331	 0.089626
H	-2.0931239232	-2.7816061847	 0.3637790859	 0.080465
H	-0.6400828035	-0.0666115556	 2.2254805841	 0.095933
H	-2.3627540637	-0.1822675857	-0.2033535115	 0.090805
148.9237	234.7638	277.9692	289.2327	315.3683	442.8796	471.5759	528.0546	560.4771	680.0141	693.8014	730.6027	818.2977	861.2916	893.9997	912.8648	925.1789	930.3073	958.3381	989.327	1001.8413	1027.3666	1044.9222	1053.2714	1100.0977	1109.684	1170.5769	1185.1365	1231.3064	1239.336	1263.076	1275.1003	1340.7485	1370.5594	1405.0392	1410.3086	1421.6277	1467.0368	1494.1924	1503.8101	1709.2654	3004.3918	3021.8211	3031.9318	3079.513	3083.2276	3095.0177	3157.0853	3168.1606	3187.287	3193.913
CC12CC=CC3OC1C23	C[C@@]12CC=C[C@H]3O[C@@H]1[C@@H]23	
InChI=1S/C8H10O/c1-8-4-2-3-5-6(8)7(8)9-5/h2-3,5-7H,4H2,1H3	InChI=1S/C8H10O/c1-8-4-2-3-5-6(8)7(8)9-5/h2-3,5-7H,4H2,1H3/t5-,6+,7-,8+/m1/s1
