19
gdb 73057	3.25774	0.96226	0.84725	3.4429	77.09	-0.2431	-0.0182	0.2249	1395.4533	0.157098	-422.991321	-422.982214	-422.98127	-423.026258	32.859	
C	 0.0115152846	 1.5801822315	-0.1705973914	-0.499205
C	-0.0125887964	 0.0889677053	-0.0066882556	 0.236902
C	-1.0026033836	-0.8572800935	-0.6842638728	-0.13596
O	-1.0474735771	-1.7216461354	 0.4834168474	-0.285139
C	-0.1999078926	-0.8157684341	 1.1950932117	 0.045617
C	 1.1528820136	-0.7261086406	 0.543519322	-0.105536
C	 1.8148079742	-1.8972852485	-0.1618423997	-0.311296
C	 2.6817753981	-2.6934080982	 0.7893574247	 0.162553
O	 3.832310054	-2.9881568123	 0.591669399	-0.241949
H	 0.5998953444	 2.054261712	 0.6210457711	 0.126029
H	 0.4595894308	 1.868630374	-1.1289722613	 0.127754
H	-0.9995813124	 2.0009785664	-0.1343181695	 0.124133
H	-1.9829715151	-0.3964567113	-0.8530220958	 0.11146
H	-0.6847453067	-1.3872565566	-1.5901592539	 0.106996
H	-0.4220148579	-0.6313506779	 2.2405802424	 0.106176
H	 1.8377800213	-0.0865678681	 1.0990103763	 0.09751
H	 1.0323301731	-2.5761944222	-0.5252031241	 0.138094
H	 2.4266494293	-1.5789231727	-1.0110150156	 0.118013
H	 2.1630054182	-2.9994212977	 1.7274943952	 0.077846
45.047	60.2228	157.5698	188.6564	207.7898	241.8731	293.7058	333.7142	444.9704	498.3457	582.8849	633.5028	773.3398	799.5522	839.9202	914.4496	933.7629	939.3509	990.6455	999.6839	1015.6232	1063.8559	1069.2004	1091.7092	1126.0613	1143.5433	1168.5344	1219.6523	1246.4249	1281.285	1290.7339	1305.6049	1363.1426	1419.1048	1425.811	1451.688	1471.667	1487.145	1498.4134	1515.7601	1834.1802	2864.7479	3019.7377	3025.1285	3032.4921	3068.8238	3083.2323	3096.2454	3102.2716	3123.8099	3173.5869
CC12COC1C2CC=O	C[C@]12CO[C@H]1[C@H]2CC=O	
InChI=1S/C7H10O2/c1-7-4-9-6(7)5(7)2-3-8/h3,5-6H,2,4H2,1H3	InChI=1S/C7H10O2/c1-7-4-9-6(7)5(7)2-3-8/h3,5-6H,2,4H2,1H3/t5-,6+,7-/m1/s1
