17
gdb 13383	6.40596	1.0386	0.91398	1.2233	65.68	-0.2416	0.0306	0.2722	1237.5436	0.142608	-401.014065	-401.005673	-401.004729	-401.048245	28.734	
O	-0.1737127023	 1.4718656141	-0.0522203068	-0.423431
C	 0.0305194491	 0.066114159	-0.0625157737	-0.07288
C	-1.3406235085	-0.5776153532	 0.0939728248	-0.286767
C	-1.291047831	-2.069798886	 0.1014556056	 0.421851
N	-0.2530708932	-2.794489251	-0.0064616822	-0.318697
C	-0.70503929	-4.1918725782	 0.0553751534	-0.18585
C	-2.2445719872	-4.0984279108	 0.2239433489	-0.110737
O	-2.5035369332	-2.6779196955	 0.2401198052	-0.258664
H	 0.6827320865	 1.8972816776	-0.1502556511	 0.287343
H	 0.4933176923	-0.2732173217	-0.9996398299	 0.103916
H	 0.6866682348	-0.2579910154	 0.7572132625	 0.103917
H	-1.8105152239	-0.232180661	 1.0224309838	 0.135969
H	-2.0018404265	-0.2472582165	-0.7158499863	 0.135967
H	-0.4145303697	-4.7206402226	-0.8586994203	 0.115811
H	-0.2217714135	-4.7054556553	 0.8933534529	 0.115811
H	-2.8040762188	-4.5408198983	-0.6052774395	 0.11822
H	-2.6095946251	-4.5254952452	 1.1624180626	 0.11822
46.8101	82.5896	92.8982	143.4605	236.2679	257.5889	354.243	406.8354	599.2126	737.7536	764.1243	801.3119	829.2762	926.8171	977.4925	994.4991	1022.6301	1043.8476	1079.3756	1089.462	1124.9199	1192.5207	1208.5744	1218.8839	1246.4064	1256.5273	1298.3871	1319.3172	1360.1209	1403.3785	1464.7273	1473.5247	1503.5522	1523.7217	1527.8969	1739.1814	3000.185	3029.7925	3039.2054	3044.4739	3053.7914	3066.193	3079.5865	3100.1676	3836.2425
OCCC1=NCCO1	OCCC1=NCCO1	
InChI=1S/C5H9NO2/c7-3-1-5-6-2-4-8-5/h7H,1-4H2	InChI=1S/C5H9NO2/c7-3-1-5-6-2-4-8-5/h7H,1-4H2
