18
gdb 110466	3.99811	1.42495	1.28346	1.0997	73.59	-0.2263	0.0687	0.2949	1023.6585	0.14891	-401.869756	-401.862634	-401.861689	-401.901558	28.054	
C	 0.0643230974	 1.299968666	 0.1639210153	-0.236262
O	-0.0146047358	-0.0771646693	-0.1284269507	-0.249387
C	-1.3241001079	-0.6011328611	-0.0718680754	 0.143631
C	-1.3467596277	-2.0288794931	-0.5657076119	-0.124886
C	-1.0500978728	-2.9948340036	 0.5739988106	-0.099954
C	-2.4620478682	-2.7653929974	 0.11465897	-0.028888
N	-2.8187307984	-1.9819874472	 1.3716425125	-0.169372
C	-1.4020741022	-2.1798509281	 1.8273685298	-0.033448
C	-1.8444484057	-0.8516667012	 1.3371788947	-0.098321
H	 1.1017338085	 1.603686262	 0.0042289405	 0.128711
H	-0.5849349401	 1.8939724793	-0.4985409535	 0.105059
H	-0.2092782895	 1.5251188136	 1.2054390612	 0.107744
H	-2.0136346307	 0.0409520308	-0.6436577171	 0.070583
H	-1.0554660753	-2.2857449143	-1.5755075081	 0.098255
H	-0.4076630026	-3.8596315487	 0.4994748863	 0.095521
H	-3.2007642785	-3.4023277261	-0.3521201459	 0.09959
H	-1.1639239445	-2.4273278012	 2.8547422078	 0.096324
H	-2.0696728662	-0.0414267503	 2.0208759339	 0.0951
80.7537	149.2305	193.0912	270.7479	394.0901	513.4777	582.9447	705.463	740.696	761.5273	778.5741	814.4312	840.9649	857.6744	915.629	935.1989	978.1554	982.0174	999.1838	1023.6857	1035.5344	1050.9001	1059.7486	1067.5889	1092.8156	1151.6566	1174.0359	1182.5851	1225.18	1237.3447	1253.0439	1289.3665	1304.4183	1353.8582	1385.4746	1398.4956	1480.0965	1492.1139	1508.3337	2972.9281	2980.9469	3023.6032	3114.1088	3179.1797	3189.8073	3203.1456	3211.3795	3228.5905
COC1C2C3C2N2C3C12	CO[C@H]1[C@H]2[C@@H]3[C@H]2N2[C@@H]3[C@@H]12	
InChI=1S/C7H9NO/c1-9-7-3-2-4(3)8-5(2)6(7)8/h2-7H,1H3	InChI=1S/C7H9NO/c1-9-7-3-2-4(3)8-5(2)6(7)8/h2-7H,1H3/t2-,3+,4-,5+,6+,7+,8?/m1/s1
