15
gdb 49474	2.23843	1.60284	1.09634	3.2707	71.95	-0.2367	-0.0223	0.2144	1085.0888	0.110305	-420.543523	-420.535467	-420.534523	-420.57655	29.842	
O	 0.1039243023	-0.0036161129	-0.5261471025	-0.272375
C	 0.0510123499	 1.1495732346	-0.1693829348	 0.147237
C	 1.2675605695	 1.9873067582	 0.019924422	-0.133479
C	 1.2650164256	 3.4900455595	-0.1202852194	 0.066282
O	 0.0251582403	 4.050951823	 0.3197757972	-0.288307
C	 0.3224946381	 3.6446414436	 1.6972591765	-0.068763
C	-0.7492466097	 2.9522089727	 2.3858755807	 0.315873
C	-1.6269164844	 2.3895498924	 2.9838372854	-0.412533
C	 1.5716908886	 2.896042944	 1.2192952022	-0.165405
H	-0.9136277861	 1.6588549548	 0.0086303398	 0.10624
H	 2.1723271673	 1.508725117	-0.3455892668	 0.117886
H	 1.8497801526	 4.0484885005	-0.8408890729	 0.12453
H	 0.6135203757	 4.5388096408	 2.2621478312	 0.126543
H	-2.4026121864	 1.8819712559	 3.5032901756	 0.212575
H	 2.4952071868	 2.801418736	 1.7724513158	 0.123697
70.0381	131.6001	159.7714	205.5099	257.5244	369.5236	433.1318	505.0117	546.4049	594.5225	634.2015	690.8538	747.2669	799.5856	814.5483	922.2353	948.1157	972.8319	997.0231	1037.8979	1044.9318	1050.5707	1071.3243	1105.1278	1188.8921	1235.0097	1270.1952	1311.2958	1356.4866	1382.9555	1447.5835	1805.854	2237.416	2969.9025	3031.7594	3159.7975	3193.0968	3219.1585	3499.2252
O=CC1C2OC(C#C)C12	O=C[C@H]1[C@H]2O[C@@H](C#C)[C@@H]12	
InChI=1S/C7H6O2/c1-2-5-6-4(3-8)7(6)9-5/h1,3-7H	InChI=1S/C7H6O2/c1-2-5-6-4(3-8)7(6)9-5/h1,3-7H/t4-,5+,6-,7-/m1/s1
