16
gdb 131839	3.24112	1.07445	0.86156	3.1783	67.02	-0.2359	0.0101	0.246	1293.4892	0.124604	-471.187188	-471.178419	-471.177475	-471.221769	31.012	
O	 0.1037518581	 1.403580898	 0.0412425808	-0.405939
C	 0.0843321976	-0.0098225819	 0.050405747	-0.073729
C	-1.3563028589	-0.5451262999	 0.0735934078	-0.183212
N	-1.4011504934	-1.9940990482	 0.0861306356	 0.005927
N	-1.4366007916	-2.7085180112	-1.0761162566	-0.164759
N	-1.4221610655	-3.9670967355	-0.7595591088	-0.179674
C	-1.3705280045	-4.1005683302	 0.5954282471	-0.19013
C	-1.3532648452	-2.8365243956	 1.140866275	 0.369225
O	-1.3043305368	-2.3301788875	 2.3895512103	-0.427333
H	-0.1593759727	 1.7023560503	-0.8350744079	 0.290735
H	 0.618505343	-0.4443612122	-0.8058814714	 0.117997
H	 0.6040441328	-0.3214939157	 0.9618478452	 0.127616
H	-1.8787402676	-0.166650877	 0.9553537751	 0.142989
H	-1.8967139246	-0.2218314899	-0.8201092458	 0.133495
H	-1.3543352354	-5.0620743698	 1.0819499842	 0.117217
H	-1.3166486252	-3.0546578037	 3.0231808725	 0.319575
40.6966	93.3437	99.8612	257.3587	267.6898	284.2861	309.4631	335.6777	385.4991	476.584	687.6265	704.8186	714.7696	783.1537	784.9012	801.0041	982.8564	1019.4743	1045.5225	1078.9729	1117.2064	1118.5776	1174.4585	1261.3885	1284.6276	1309.5902	1342.3031	1354.3561	1370.171	1402.6407	1421.3626	1474.2495	1510.2446	1549.8059	1622.8349	3014.8036	3071.0395	3087.0099	3130.7352	3266.3929	3818.511	3838.8957
OCCN1N=NC=C1O	OCCn1nncc1O	
InChI=1S/C4H7N3O2/c8-2-1-7-4(9)3-5-6-7/h3,8-9H,1-2H2	InChI=1S/C4H7N3O2/c8-2-1-7-4(9)3-5-6-7/h3,8-9H,1-2H2
