16
gdb 126870	4.68526	0.92378	0.80128	3.1406	80.88	-0.2563	-0.074	0.1823	1401.3551	0.123204	-433.991222	-433.982904	-433.98196	-434.025681	29.928	
C	-1.5504381107	-0.9551809444	-0.0722989811	-0.362085
C	-0.1449767003	-0.3520752943	 0.0075597654	-0.152589
N	 0.6420348166	-0.7814587177	-1.1331810833	-0.290736
C	 1.8432090881	-1.2067623328	-1.0069415643	 0.20918
C	 2.6743188257	-1.3444055939	 0.1891965783	-0.004162
N	 3.8778316025	-1.7958953108	 0.1873164933	-0.046179
O	 4.4441469531	-2.1814816127	-1.0062488377	-0.224844
N	 3.7666234587	-2.0863833879	-2.2204622292	-0.071952
C	 2.5682531828	-1.6329880069	-2.1981916488	 0.054279
H	-2.0190930676	-0.7015940193	-1.0266126704	 0.133322
H	-1.5095327303	-2.0457354815	 0.0059487668	 0.123242
H	-2.1763785846	-0.5754629017	 0.7407124018	 0.116114
H	-0.2237939546	 0.742687204	-0.0481088673	 0.123261
H	 0.3025231778	-0.588488751	 0.9835978253	 0.094442
H	 2.3185714489	-1.059869343	 1.1733852808	 0.145377
H	 2.069973204	-1.5716294862	-3.1620411296	 0.153329
22.8457	86.2005	158.5441	192.9134	274.1228	356.0425	418.993	440.8538	496.1249	577.1836	647.5079	737.4758	760.7332	791.67	814.3069	885.6076	931.0172	932.2177	961.6651	1033.2392	1076.0962	1111.3835	1153.3538	1280.9088	1296.0281	1336.6323	1343.7504	1392.3999	1407.8419	1480.0422	1488.5522	1506.6074	1620.5481	1665.9169	1713.9453	2993.0449	3029.8055	3044.1293	3115.8333	3127.3984	3179.731	3197.0921
CCN=C1C=NON=C1	CCN=c1cnonc1	
InChI=1S/C5H7N3O/c1-2-6-5-3-7-9-8-4-5/h3-4H,2H2,1H3	InChI=1S/C5H7N3O/c1-2-6-5-3-7-9-8-4-5/h3-4H,2H2,1H3
