21
gdb 117345	4.53557	0.69209	0.61889	3.2907	77.22	-0.2547	0.0055	0.2602	1853.1245	0.179946	-461.412144	-461.401512	-461.400568	-461.44901	37.588	
C	 0.2949977736	 1.4771744245	 0.0132905549	-0.39191
C	-0.0194076887	-0.0056131826	 0.0381025198	-0.047602
O	 0.6945438919	-0.5836180762	 1.1541411795	-0.237488
C	 0.5431454764	-1.9024212449	 1.335255455	 0.454283
O	-0.1282241958	-2.5995184549	 0.602926435	-0.376652
C	 1.290720169	-2.3962998726	 2.5548277705	-0.337864
C	 1.6559146097	-3.8894777367	 2.4545325833	 0.144648
C	 2.4269572449	-4.3594383106	 3.6813845305	-0.384337
O	 0.4953996861	-4.6907620928	 2.3483534858	-0.442489
H	 1.3678923866	 1.6471354647	-0.1125321105	 0.131851
H	-0.2294860449	 1.9522499311	-0.8209247153	 0.126348
H	-0.0239690108	 1.9603466965	 0.940981272	 0.132259
H	-1.0888127469	-0.1985831738	 0.1672118058	 0.125679
H	 0.2966271535	-0.5100557495	-0.8798612231	 0.126634
H	 2.1750693106	-1.7717909297	 2.7099942056	 0.12239
H	 0.6346124943	-2.2508719308	 3.4232529587	 0.139068
H	 2.2944718227	-4.0212826714	 1.5635310092	 0.066036
H	 3.3665447443	-3.8097689937	 3.7928357321	 0.107822
H	 1.8267316293	-4.2172054341	 4.5859665768	 0.120009
H	 2.6536711492	-5.4247022037	 3.5892162673	 0.126867
H	-0.0001460249	-4.3389627088	 1.5945809371	 0.294448
32.9268	67.0049	97.5384	121.2596	173.1214	222.3792	239.5661	266.3339	299.4596	359.6816	401.5357	458.8427	469.1773	596.9327	618.14	748.8912	808.5022	840.6389	888.9059	923.5987	935.6631	972.9713	1052.3605	1066.8479	1105.7259	1135.309	1164.0589	1182.212	1216.8675	1239.1765	1291.4816	1313.8268	1357.3085	1384.5217	1399.6389	1404.5924	1425.1163	1444.4211	1463.7576	1483.8601	1486.5774	1496.3618	1500.2109	1518.8392	1780.0827	2945.8144	3034.9812	3040.6368	3047.9683	3055.9676	3094.7625	3098.1114	3112.6264	3122.6874	3123.4773	3128.7295	3725.0188
CCOC(=O)CC(C)O	CCOC(=O)C[C@@H](C)O	
InChI=1S/C6H12O3/c1-3-9-6(8)4-5(2)7/h5,7H,3-4H2,1-2H3	InChI=1S/C6H12O3/c1-3-9-6(8)4-5(2)7/h5,7H,3-4H2,1-2H3/t5-/m1/s1
