19
gdb 70477	3.3467	1.00922	0.90554	2.4693	78.89	-0.2448	0.0207	0.2655	1349.7347	0.158408	-419.16045	-419.151415	-419.15047	-419.195668	32.781	
C	 0.0534496571	 1.5101702523	 0.0407625459	-0.502296
C	-0.0324982612	 0.0157880616	-0.0404071606	 0.326272
C	-0.8856465031	-0.817161737	 0.8331675903	-0.279423
N	 0.5754922262	-0.9307962955	 1.0008552844	-0.166657
C	 1.009164188	-1.8338518063	-0.1219445622	-0.199557
C	 0.5109736111	-0.8253995978	-1.1859259677	 0.056884
O	-0.4629079951	-1.2632068779	-2.1229133399	-0.194047
C	-0.0849981984	-1.4168989782	-3.4076269911	 0.122092
N	-0.8902683095	-1.8974336192	-4.2511969733	-0.441395
H	 1.0501779619	 1.8697411875	-0.2371771303	 0.121289
H	-0.6752599731	 1.9740566435	-0.6340642053	 0.133204
H	-0.1590009346	 1.8548535242	 1.056535626	 0.134543
H	-1.3689700521	-0.3098959921	 1.6624617745	 0.122511
H	-1.4415625442	-1.6578342001	 0.425024202	 0.129024
H	 2.0919777951	-1.9725604956	-0.1121555973	 0.113857
H	 0.5118774748	-2.8084738323	-0.1273664055	 0.120305
H	 1.3359408801	-0.3298848013	-1.7100949349	 0.08873
H	 0.9431092741	-1.0793672591	-3.6032350579	 0.084898
H	-0.4539344171	-1.9259150367	-5.1702883572	 0.229764
21.1279	105.0762	110.9081	173.272	211.3773	275.3891	337.9013	373.6716	447.6199	500.0952	603.8891	659.2096	744.872	788.6079	819.6982	869.2478	888.1536	968.2129	990.1137	1030.6136	1031.4671	1043.2566	1076.4392	1098.6236	1124.2336	1127.0932	1141.3725	1204.1214	1226.9788	1274.984	1289.8844	1325.8504	1367.3286	1401.4496	1419.3135	1437.3473	1483.0364	1487.9723	1492.9071	1514.4807	1745.488	3011.333	3029.4763	3043.0511	3056.9708	3091.4558	3110.971	3115.0988	3120.9115	3202.071	3518.9721
CC12CN1CC2OC=N	C[C@]12CN1C[C@H]2O[CH][NH]	
InChI=1S/C6H10N2O/c1-6-3-8(6)2-5(6)9-4-7/h4-5,7H,2-3H2,1H3	InChI=1S/C6H10N2O/c1-6-3-8(6)2-5(6)9-4-7/h4-5,7H,2-3H2,1H3/t5-,6-,8?/m1/s1
