13
gdb 128981	3.99002	1.8017	1.24122	3.6738	76.2	-0.2269	-0.0754	0.1515	903.3778	0.094338	-411.818434	-411.812717	-411.811773	-411.84841	23.01	
N	 0.0218468349	 1.2483661569	 0.0090816887	-0.18947
C	 1.1417836137	 2.0172822956	 0.0023007809	 0.071307
N	 2.3574850244	 1.5423727932	-0.0122618335	-0.33732
C	 2.4189658256	 0.188232529	-0.0203035902	 0.330401
C	 3.4465415771	-0.7242483703	-0.0354304257	-0.309499
C	 2.7891268228	-1.9947453274	-0.0359266397	-0.006199
N	 1.4541761388	-1.9612709003	-0.0225960379	-0.325915
C	 1.1784784508	-0.6306291382	-0.0126028309	 0.372221
N	-0.0154734049	-0.0970222415	 0.0020611008	-0.27009
H	-0.8893412811	 1.6830378873	 0.0204133684	 0.29108
H	 0.9651855324	 3.0885632311	 0.0099098942	 0.144087
H	 4.5089616792	-0.5384945356	-0.044866183	 0.112682
H	 3.2986947863	-2.9531594998	-0.0461882622	 0.116714
221.6064	259.163	426.2036	483.1807	572.5555	573.8206	617.6041	632.6675	671.4955	773.6149	794.2228	829.6396	877.7185	902.842	944.3014	969.4471	1023.9883	1055.2507	1156.9152	1227.5165	1298.7999	1325.2135	1347.8677	1412.9127	1429.3035	1494.2164	1583.564	1614.4502	1637.5307	3185.1137	3190.8875	3259.5222	3616.5356
N1C=NC2=CC=NC2=N1	[nH]1cnc2ccnc2n1	
InChI=1S/C5H4N4/c1-2-6-5-4(1)7-3-8-9-5/h1-3H,(H,7,8)	InChI=1S/C5H4N4/c1-2-6-5-4(1)7-3-8-9-5/h1-3H,(H,7,8)
