19
gdb 83496	2.73185	1.47511	1.42605	2.8543	73.55	-0.2345	-0.0158	0.2187	1013.7288	0.161407	-423.063687	-423.056057	-423.055112	-423.095536	30.605	
O	 0.0951497001	 1.3761981667	 0.1823168824	-0.452256
C	 0.0180292642	-0.0171175672	-0.0024138274	 0.152634
C	-1.3804440217	-0.5977520649	-0.3386586716	-0.053936
C	-1.6345409691	-0.0217357751	-1.7525077422	-0.234286
C	-0.2118317574	-0.0305746961	-2.4035439146	-0.249461
C	 0.7052560959	-0.5879625388	-1.2729503512	-0.149629
C	 0.3439782661	-2.0646650292	-1.1469284277	 0.420878
O	 0.9929562479	-3.0157007842	-1.4955865124	-0.329846
C	-1.0451324462	-2.0952356314	-0.4773137988	-0.33585
H	-0.2355550556	 1.8181497511	-0.6059732102	 0.284888
H	 0.4294999333	-0.4493191237	 0.9151960595	 0.091903
H	-2.1612640259	-0.371129152	 0.3885045918	 0.073766
H	-2.354436059	-0.6224210085	-2.3141904133	 0.108968
H	-2.0458540329	 0.9914359308	-1.6995647482	 0.099477
H	-0.1601621666	-0.6421797321	-3.3070687444	 0.123805
H	 0.1147701879	 0.9746575975	-2.687883816	 0.106115
H	 1.7696348902	-0.4013626425	-1.4051994474	 0.085004
H	-0.9554305066	-2.5932709386	 0.4953154992	 0.130951
H	-1.7607587647	-2.6696382319	-1.0729173875	 0.126875
111.638	199.9585	230.6723	250.0849	318.216	375.4148	449.1286	527.0845	559.6437	580.7917	706.6166	746.8098	785.6017	834.6534	865.4625	884.0278	889.3877	917.2331	951.6621	1004.5725	1020.7703	1062.0211	1080.2625	1100.6799	1139.4332	1168.7725	1185.1582	1204.1015	1234.228	1255.1418	1267.9055	1284.2702	1301.7545	1319.9333	1331.4291	1345.8797	1440.3209	1454.0159	1503.8142	1520.0146	1854.3891	3045.4625	3046.6926	3058.6739	3068.392	3089.8102	3096.4456	3107.7415	3109.6056	3138.1995	3825.2952
OC1C2CCC1C(=O)C2	O[C@H]1[C@H]2CC[C@@H]1C(=O)C2	
InChI=1S/C7H10O2/c8-6-3-4-1-2-5(6)7(4)9/h4-5,7,9H,1-3H2	InChI=1S/C7H10O2/c8-6-3-4-1-2-5(6)7(4)9/h4-5,7,9H,1-3H2/t4-,5+,7-/m0/s1
