20
gdb 79470	2.40596	1.909	1.48117	2.0314	77.68	-0.2214	0.0721	0.2935	984.1779	0.172291	-403.098296	-403.090529	-403.089585	-403.130037	31.556	
C	-0.2046070167	 1.6089507458	-0.0531639025	-0.441392
C	 0.034477795	 0.1139053943	 0.0419711056	 0.034382
N	 1.0809028479	-0.5106051916	-0.8400179322	-0.169551
C	 2.4703042674	-0.2294761797	-0.1879499729	 0.005004
C	 2.6498031909	-1.7588191367	-0.0627131144	-0.243732
C	 1.1373251361	-1.6865622377	 0.1343764244	-0.026624
C	 0.7628715238	-0.5983154704	 1.216858648	 0.357877
O	 0.1393345629	-0.9841442294	 2.4018449103	-0.493833
C	 2.1040061016	 0.1609449983	 1.2595831816	-0.304784
H	 0.7135441136	 2.1937296899	 0.0479550149	 0.118732
H	-0.6436137213	 1.8540306834	-1.0254355522	 0.130026
H	-0.9056720273	 1.9382446372	 0.7223025792	 0.115317
H	-0.8986845021	-0.4209475888	-0.1739945725	 0.08173
H	 3.1536800578	 0.4010542232	-0.7550356454	 0.07369
H	 2.892015156	-2.2330716232	-1.0156772078	 0.11328
H	 3.2898532711	-2.1398647542	 0.7360644167	 0.097045
H	 0.4431374227	-2.51481374	-0.0125701426	 0.079392
H	 0.1743107639	-0.2507356813	 3.0246692528	 0.280987
H	 2.8027327192	-0.2511277245	 1.9925840257	 0.100518
H	 1.9948955676	 1.2319055754	 1.4443768632	 0.091938
162.6669	172.5938	195.0029	254.1529	293.7515	358.0386	484.6146	497.8836	542.9354	618.4245	657.6743	722.5869	786.4843	802.8898	850.6487	886.253	903.5893	926.9905	950.2343	985.8479	1001.404	1018.0049	1044.7979	1093.4547	1104.6265	1113.4677	1134.7874	1175.1469	1189.1014	1201.7208	1221.4772	1236.1073	1255.4506	1269.3941	1292.3375	1338.726	1366.939	1399.8979	1419.528	1482.9479	1487.9731	1496.9998	1525.1392	3032.3694	3036.1491	3062.8998	3070.071	3099.6428	3105.8558	3112.6502	3117.0936	3124.2401	3132.9348	3810.6076
CC1N2C3CC2C1(O)C3	C[C@H]1N2[C@@H]3C[C@H]2[C@@]1(O)C3	
InChI=1S/C7H11NO/c1-4-7(9)3-5-2-6(7)8(4)5/h4-6,9H,2-3H2,1H3	InChI=1S/C7H11NO/c1-4-7(9)3-5-2-6(7)8(4)5/h4-6,9H,2-3H2,1H3/t4-,5-,6+,7-/m1/s1
