21
gdb 76714	3.11032	0.81019	0.75764	2.7272	80.08	-0.2486	-0.0285	0.2201	1592.0538	0.178716	-424.210475	-424.199845	-424.198901	-424.247409	36.927	
C	 0.1807517488	 1.468152407	 0.2920516209	-0.41042
C	 0.1664845708	-0.022942314	 0.0296238865	-0.054641
C	 0.6964449071	-0.617105298	-1.2705198318	-0.067744
C	 1.2704052388	 0.2341419934	-2.383651155	-0.401981
C	 1.4472609288	-0.8355102147	 0.0111352398	 0.102687
O	 2.6781444808	-0.1846148866	 0.1353031332	-0.251206
C	 3.1129970139	-0.0519872313	 1.4688397496	-0.148403
C	 4.477059185	 0.6145638865	 1.4533414216	 0.138446
O	 5.0857243733	 0.9110179865	 2.4465049166	-0.237979
H	 1.1396179032	 1.9170991069	 0.0244646863	 0.127728
H	-0.6001081821	 1.9789074897	-0.2817372061	 0.119382
H	-0.0006653568	 1.6789032572	 1.3516388987	 0.11635
H	-0.6954054466	-0.5365798519	 0.4487624316	 0.083113
H	 0.1523651565	-1.4886244359	-1.6260637972	 0.086236
H	 1.9156398194	 1.0263406655	-2.0013630419	 0.130523
H	 1.8740375223	-0.3792980215	-3.0608602794	 0.11967
H	 0.4725858781	 0.6957031856	-2.9753067541	 0.115786
H	 1.4394891832	-1.828925843	 0.4625139672	 0.082904
H	 2.4222786674	 0.5519844375	 2.0763456475	 0.128991
H	 3.2072181215	-1.0329120867	 1.9646369319	 0.124019
H	 4.8685410267	 0.8027091978	 0.4291271941	 0.096539
47.4774	58.3902	97.5491	118.6677	149.9011	174.5716	211.8717	221.6093	279.3509	348.8827	446.0344	491.0043	602.2501	615.1468	739.4465	752.7625	776.0231	879.6537	955.4412	967.3247	1013.376	1045.9539	1058.1837	1110.5199	1115.8056	1121.5957	1143.6824	1159.7548	1182.311	1193.1967	1236.4954	1265.4606	1339.1957	1369.4654	1378.4604	1408.2606	1412.795	1420.8619	1452.2838	1482.8525	1489.4788	1496.1137	1505.9966	1515.2603	1845.1085	2898.1874	2971.473	3015.7203	3034.1667	3039.1584	3082.3789	3087.8562	3093.1534	3117.8487	3129.0625	3135.328	3147.2567
CC1C(C)C1OCC=O	C[C@H]1[C@@H](C)[C@H]1OCC=O	
InChI=1S/C7H12O2/c1-5-6(2)7(5)9-4-3-8/h3,5-7H,4H2,1-2H3	InChI=1S/C7H12O2/c1-5-6(2)7(5)9-4-3-8/h3,5-7H,4H2,1-2H3/t5-,6+,7-
