20
gdb 61834	2.43357	1.11085	0.83026	4.3831	77.41	-0.239	0.0061	0.245	1405.1648	0.168143	-440.274279	-440.264184	-440.26324	-440.310332	35.554	
C	-1.6396744878	-2.2114353241	 0.5478320171	-0.3943
C	-0.2786572202	-1.7659172646	 0.0212627429	 0.080732
O	-0.4588234171	-0.6028353502	-0.8237033816	-0.192393
C	-0.5004151516	-0.7869721301	-2.1539463577	 0.171265
O	-0.6940136432	 0.1017830278	-2.928249433	-0.277049
C	 0.6561340238	-1.3622804662	 1.1383473591	 0.020745
C	 1.5659274892	-2.3756890335	 1.7511418452	-0.259103
N	 2.1033050674	-1.2609380667	 0.9878517109	-0.077838
C	 2.7382154874	-1.5386365977	-0.2916558571	-0.323174
H	-2.1069714584	-1.4064670632	 1.1224956308	 0.139634
H	-2.3079819679	-2.4742237064	-0.2771735216	 0.1261
H	-1.5289087317	-3.0844869697	 1.1972390001	 0.129385
H	 0.1671712408	-2.5667493959	-0.5803841401	 0.087054
H	-0.3278529398	-1.8418297417	-2.4488234059	 0.072816
H	 0.235812672	-0.5851249517	 1.7755177622	 0.103593
H	 1.761247926	-2.3732575812	 2.8201825559	 0.121544
H	 1.5835012464	-3.3647404382	 1.2906555184	 0.104701
H	 2.3373525073	-2.4151659085	-0.8262193467	 0.094053
H	 2.6436645183	-0.662623452	-0.9396887768	 0.142069
H	 3.802879279	-1.7205360362	-0.1163885021	 0.130166
41.6048	58.4518	128.5916	163.2289	204.0673	209.781	224.4181	269.8374	334.5948	377.7243	419.6406	455.8048	559.5795	656.9823	758.5015	835.0623	912.8498	923.1732	987.4805	1032.0368	1046.2099	1078.229	1091.1725	1110.8949	1127.5403	1133.8741	1165.5784	1194.8849	1200.5774	1222.8519	1308.875	1343.7412	1362.4038	1409.1958	1425.9631	1446.1847	1449.3461	1486.0595	1490.5254	1496.3937	1502.1985	1514.174	1863.8509	2932.1939	2968.0171	3041.5997	3044.1867	3072.8411	3078.1923	3113.5836	3115.0188	3119.7197	3125.2199	3171.3278
CC(OC=O)C1CN1C	C[C@@H](OC=O)[C@H]1CN1C	
InChI=1S/C6H11NO2/c1-5(9-4-8)6-3-7(6)2/h4-6H,3H2,1-2H3	InChI=1S/C6H11NO2/c1-5(9-4-8)6-3-7(6)2/h4-6H,3H2,1-2H3/t5-,6-,7?/m1/s1
