16
gdb 42576	3.09474	2.08352	1.64058	2.2256	70.95	-0.2265	-0.012	0.2146	831.4891	0.127318	-400.705924	-400.700073	-400.699129	-400.735956	24.772	
O	 0.0077273749	 0.0307074858	 0.181844958	-0.345885
C	 0.0011832618	 1.227078736	 0.0281791075	 0.438704
C	-1.1868436152	 2.123661045	-0.0663700217	-0.187522
C	-0.8615928648	 3.3037120242	-0.9611928999	-0.113381
C	-1.0193196948	 3.5636937421	 0.5013737156	-0.037618
N	 0.3824353617	 3.9856294174	 0.6935692607	-0.130325
C	 1.26083526	 2.9232985686	 1.2777655634	-0.179599
C	 1.2193761238	 2.1436971301	-0.0763661338	-0.190851
C	 0.6577066218	 3.456597751	-0.7037240192	-0.00414
H	-2.1861329278	 1.7084483946	-0.0448912589	 0.109658
H	-1.4422301804	 3.6179251538	-1.8172282114	 0.107981
H	-1.830766907	 4.0037526583	 1.0683540301	 0.110597
H	 2.247137049	 3.3368145878	 1.5048681097	 0.118335
H	 0.8656680911	 2.4186284971	 2.1642479501	 0.122549
H	 2.1177970464	 1.6559948955	-0.4506578749	 0.093673
H	 1.2765163795	 4.0640245227	-1.3625977553	 0.087822
153.8252	317.3054	429.7662	443.4737	551.16	653.9348	699.6423	742.1026	775.4355	779.9582	818.2617	846.6056	883.682	904.4574	912.7092	925.0373	961.4941	968.8432	1019.6823	1035.5225	1058.7871	1085.3946	1102.6987	1170.5916	1180.3329	1189.1432	1203.6705	1224.7264	1241.2619	1273.092	1309.0389	1311.2153	1358.161	1500.3408	1832.2602	3051.9505	3107.2133	3120.4389	3135.1936	3185.1315	3206.3369	3216.2031
O=C1C2C3C2N2CC1C32	O=C1[C@@H]2[C@H]3[C@@H]2N2C[C@@H]1[C@@H]32	
InChI=1S/C7H7NO/c9-7-2-1-8-5(2)3-4(7)6(3)8/h2-6H,1H2	InChI=1S/C7H7NO/c9-7-2-1-8-5(2)3-4(7)6(3)8/h2-6H,1H2/t2-,3-,4-,5+,6+/m1/s1
