19
gdb 37285	4.27938	1.57167	1.50684	2.7511	77.97	-0.2103	0.0794	0.2897	935.1146	0.163882	-381.997009	-381.990976	-381.990032	-382.026973	26.619	
C	-0.0429255275	 1.493382899	-0.0194857107	-0.262184
C	 1.49991586	 1.7380172458	-0.010990474	-0.165359
N	 2.075729001	 0.3728923234	 0.0402993932	-0.095557
C	 1.2031693093	-0.3933957021	-0.942821021	-0.018012
C	 1.4940463024	-1.862149049	-0.6313706692	-0.056456
N	 2.7472449171	-2.0897780647	 0.1288898524	-0.31578
C	 1.4781376684	-1.8133727623	 0.8453234852	-0.056457
C	 1.1817090493	-0.3274728792	 1.0528715902	-0.018009
C	 0.0220170891	-0.0297048271	 0.0315178119	-0.01339
H	-0.5541219359	 1.9255452842	 0.8460290465	 0.098216
H	-0.5351094421	 1.8671183486	-0.9224139591	 0.098215
H	 1.8590917099	 2.2465641253	-0.9098380169	 0.104366
H	 1.8400729464	 2.3050200436	 0.8598453626	 0.104365
H	 1.2221619997	-0.0539808596	-1.9804690725	 0.066902
H	 1.0525940171	-2.6544204661	-1.2239739649	 0.090645
H	 2.8989870068	-3.0979537957	 0.1638413145	 0.224584
H	 1.0234677306	-2.5651290486	 1.4792720128	 0.090645
H	 1.1786486955	 0.0796768562	 2.0660332853	 0.066903
H	-0.916057117	-0.5923182116	 0.0400177738	 0.056362
266.8066	287.2812	334.141	396.086	514.9484	629.4944	696.9992	703.123	774.4745	816.8957	838.7896	839.1412	875.3169	896.5922	911.3157	911.9564	954.2842	968.045	972.3819	980.6072	1041.2147	1043.3348	1054.4912	1073.8312	1108.6504	1147.7659	1148.4893	1173.3641	1200.2637	1229.8003	1232.8942	1251.2355	1253.7515	1273.4308	1303.6332	1321.3322	1344.0315	1350.6237	1408.8626	1493.6556	1510.3805	3047.5269	3059.3635	3074.0825	3085.6731	3094.0223	3099.0557	3109.1007	3178.804	3188.8992	3465.6933
C1CN2C3C4NC4C2C13	C1CN2[C@H]3[C@H]4N[C@H]4[C@@H]2[C@@H]13	
InChI=1S/C7H10N2/c1-2-9-6-3(1)7(9)5-4(6)8-5/h3-8H,1-2H2	InChI=1S/C7H10N2/c1-2-9-6-3(1)7(9)5-4(6)8-5/h3-8H,1-2H2/t3-,4-,5+,6+,7-
