16
gdb 34829	5.11453	1.08811	1.00674	5.2721	74.96	-0.2606	0.0177	0.2783	1167.7113	0.123881	-400.662592	-400.655132	-400.654188	-400.694498	28.86	
N	-0.0608728746	-1.1818853642	-0.0784524899	-0.319499
C	-0.0287771782	-0.0277965808	-0.0279906069	 0.275202
C	-0.0313793958	 1.4239792025	-0.0042281439	-0.173664
C	 0.1107855654	 2.1259446285	 1.3858477934	-0.045033
O	 1.5032562587	 1.631241146	 1.4598401416	-0.297434
C	 1.3511851795	 2.1494413599	 0.0823332659	-0.045049
C	 0.6289920778	 3.3733357723	 0.6593087714	 0.458036
C	 0.0073153252	 4.6012720801	 0.0898915095	-0.361634
C	 1.1118396693	 4.6870874699	 1.1424634737	-0.36594
H	-0.7657064048	 1.8432860244	-0.695430856	 0.127298
H	-0.5209502129	 2.019441442	 2.2665800535	 0.119315
H	 2.2011701021	 2.0710043531	-0.5940505961	 0.119309
H	 0.254042178	 4.8840572529	-0.9283796582	 0.125926
H	-1.0023437458	 4.8602277394	 0.3919659148	 0.125926
H	 0.8354021158	 5.0028745308	 2.1428345666	 0.128621
H	 2.0913576403	 5.0266761933	 0.8229221103	 0.12862
119.9284	135.4331	223.8201	253.4987	298.5121	416.9235	467.6634	547.3	588.7106	729.8287	744.9415	765.1395	776.7868	870.7734	886.7115	924.1789	925.6139	952.4309	1000.5391	1050.8764	1068.1663	1084.8768	1096.1172	1124.5865	1129.893	1165.8154	1180.4124	1191.4308	1204.199	1255.8024	1356.0726	1426.8502	1461.6494	1524.6656	2362.0217	3096.5345	3128.5196	3134.0424	3136.3033	3140.1123	3207.9181	3221.9012
N#CC1C2OC1C21CC1	N#C[C@H]1[C@H]2O[C@@H]1C12CC1	
InChI=1S/C7H7NO/c8-3-4-5-7(1-2-7)6(4)9-5/h4-6H,1-2H2	InChI=1S/C7H7NO/c8-3-4-5-7(1-2-7)6(4)9-5/h4-6H,1-2H2/t4-,5+,6-
