18
gdb 126544	5.49379	0.78535	0.73019	2.0322	75.28	-0.2344	-0.0039	0.2305	1584.0364	0.148303	-435.288794	-435.279745	-435.278801	-435.323941	32.591	
C	-0.1810419843	 1.5228779141	 0.1488268037	-0.383493
C	-0.1731048749	-0.0035844813	 0.2472516058	-0.169703
C	 0.9707553713	-0.5239232899	 1.1415043987	-0.303299
C	 0.9845005188	-2.0094720567	 1.250259864	 0.432766
N	 1.8306041078	-2.8471895876	 0.7272304051	-0.358913
C	 1.3227573096	-4.0607887687	 1.1399333257	 0.400636
N	 1.9661741561	-5.2356639523	 0.8492162978	-0.585637
N	 0.2279604359	-3.9925106202	 1.8627791092	-0.214768
O	 0.0060118995	-2.5976639946	 1.943030335	-0.208156
H	 0.7565622349	 1.8990750345	-0.2747932285	 0.119453
H	-0.9985432777	 1.8703558685	-0.4896404996	 0.11961
H	-0.3084477074	 1.9833707711	 1.1346863374	 0.119686
H	-1.1277444384	-0.3603635556	 0.6488065546	 0.121464
H	-0.070439173	-0.4434108095	-0.7515781076	 0.112819
H	 1.9398015839	-0.2137264106	 0.7421490904	 0.134752
H	 0.8706722154	-0.09666319	 2.1461469963	 0.130356
H	 2.5236965003	-5.2008843453	 0.0097487543	 0.266362
H	 1.3983023522	-6.0650135559	 0.9348720579	 0.266063
24.5837	80.6008	104.1303	245.0926	253.0817	291.0173	312.2227	343.9785	395.5646	467.9489	567.8019	655.5106	738.3635	748.5405	771.6674	813.2166	874.3861	901.8296	934.0158	1027.54	1041.1197	1051.5403	1108.5239	1114.2325	1130.5185	1244.7912	1301.8116	1316.1687	1348.8436	1381.4924	1415.3089	1448.0196	1473.0872	1493.4452	1499.9462	1509.6214	1580.9569	1635.477	1660.0212	3032.4089	3036.5817	3048.81	3071.5813	3099.7188	3108.9083	3114.0793	3584.9072	3694.6925
CCCC1=NC(N)=NO1	CCCc1nc(N)no1	
InChI=1S/C5H9N3O/c1-2-3-4-7-5(6)8-9-4/h2-3H2,1H3,(H2,6,8)	InChI=1S/C5H9N3O/c1-2-3-4-7-5(6)8-9-4/h2-3H2,1H3,(H2,6,8)
