21
gdb 67461	2.47279	1.6684	1.55747	1.4768	81.28	-0.2213	0.0832	0.3044	1017.6089	0.184962	-387.068044	-387.060338	-387.059394	-387.099752	31.348	
C	-0.0258963063	 1.528844703	 0.0037165902	-0.508234
C	 0.0085843667	 0.0284352726	-0.0020266466	 0.293084
C	 0.4982783486	-0.9914525904	-1.0756013393	-0.159398
C	 1.3475491254	-1.7015582266	-0.0218104586	-0.2501
C	 0.6650130847	-0.8461562091	 1.0957329011	-0.079764
C	-0.378390748	-1.5699315307	 1.9519558895	-0.233739
C	-1.2747519771	-2.4526173485	 1.0761779892	-0.06332
O	-1.796591607	-1.7849988307	-0.0656161856	-0.268224
C	-0.9605468248	-0.8567320151	-0.7003294955	 0.086371
H	 0.9755824101	 1.9555126123	 0.137894557	 0.114527
H	-0.4312320309	 1.9182543788	-0.9361712087	 0.118438
H	-0.6572917182	 1.9093552106	 0.8164901917	 0.120727
H	 0.8180582728	-0.8002637533	-2.0951822514	 0.077621
H	 1.285793144	-2.7920232723	 0.0440044256	 0.094558
H	 2.4010213143	-1.4270669068	-0.1221399061	 0.099597
H	 1.380792814	-0.3027149245	 1.7165950506	 0.067797
H	 0.0983807172	-2.2038850806	 2.7091831597	 0.095428
H	-0.9865439783	-0.828571998	 2.4852510832	 0.101968
H	-0.7182639446	-3.3464753582	 0.758923135	 0.095893
H	-2.1462192715	-2.799179821	 1.6403686114	 0.101553
H	-1.5441959911	-0.3673191415	-1.4757575222	 0.095217
136.7337	197.7401	219.5646	265.8169	298.7889	360.2944	439.2399	485.3407	537.5501	627.4069	679.9015	756.2166	781.9593	822.2389	843.7704	893.5405	924.6107	951.9423	963.5366	992.1807	1015.5559	1046.5956	1069.5351	1084.8081	1108.7904	1114.5953	1158.0476	1176.8733	1183.931	1239.6282	1257.5058	1260.0154	1280.4767	1306.8634	1333.0356	1360.1288	1374.8208	1412.2256	1415.3764	1469.8113	1477.8317	1485.9515	1496.7019	1505.7835	1522.2726	2994.5127	3014.589	3023.0993	3047.0528	3063.9162	3070.5192	3073.2523	3074.6796	3091.2092	3094.7657	3146.1643	3159.5379
CC12C3CC1CCOC23	C[C@@]12[C@H]3C[C@@H]1CCO[C@@H]23	
InChI=1S/C8H12O/c1-8-5-2-3-9-7(8)6(8)4-5/h5-7H,2-4H2,1H3	InChI=1S/C8H12O/c1-8-5-2-3-9-7(8)6(8)4-5/h5-7H,2-4H2,1H3/t5-,6-,7+,8-/m0/s1
