21
gdb 110369	4.36414	1.02287	0.99379	1.2959	82.59	-0.248	0.0765	0.3245	1281.6008	0.184978	-387.042212	-387.034474	-387.03353	-387.074532	31.362	
O	 0.0014427987	 1.2642624099	-0.5477097457	-0.421062
C	-0.0201615329	-0.0153663422	 0.0725530897	-0.121231
C	-1.4459899019	-0.5031066196	 0.1007487808	-0.028412
C	-1.9671903977	-1.1961163385	-1.1351529201	-0.019394
C	-1.6650648394	-1.9982494865	 0.121153536	-0.053394
C	-3.0635080676	-2.5820434621	 0.4083125338	-0.05006
C	-3.4640385422	-3.0520590439	-1.0362088633	-0.205897
C	-3.4706095869	-1.5019606167	-1.290757104	-0.048357
C	-4.0385932642	-1.4010383167	 0.151214889	-0.231933
H	 0.8964280666	 1.6107072738	-0.4836016028	 0.284232
H	 0.6087059202	-0.734710226	-0.4780095094	 0.078462
H	 0.3708670718	 0.0381054435	 1.1014911159	 0.085437
H	-2.0968807346	 0.1514137111	 0.6696618347	 0.087623
H	-1.3349939002	-1.238693591	-2.0152452179	 0.084193
H	-0.8074878986	-2.6593247468	 0.1914382961	 0.07886
H	-3.1681356156	-3.2303855103	 1.2788824079	 0.057408
H	-2.7375900394	-3.652274334	-1.591658223	 0.085528
H	-4.457652445	-3.5068333064	-1.086555816	 0.088655
H	-3.9876824802	-1.0562753344	-2.1407794662	 0.060029
H	-5.0787083288	-1.7310984159	 0.1914989336	 0.093145
H	-3.9365335222	-0.4739330474	 0.715939591	 0.096166
79.5537	147.5685	221.9589	269.3083	329.0916	386.0928	449.4555	536.2828	569.4761	658.8869	784.2344	805.4505	834.6989	839.8499	849.4454	903.7405	931.0231	952.2865	987.3419	997.9724	1006.8633	1030.0441	1047.5959	1064.6805	1071.772	1092.6116	1098.4821	1107.4284	1124.3008	1132.84	1196.3096	1217.8072	1236.0611	1240.7554	1250.0925	1255.2361	1279.2294	1295.66	1313.3943	1319.8147	1424.4332	1468.4445	1493.5482	1519.6072	1534.5441	2957.4687	2985.6791	3046.9114	3075.795	3106.0274	3108.3283	3113.4925	3125.2811	3157.9649	3166.595	3171.7711	3825.5414
OCC1C2C1C1CC2C1	OC[C@H]1[C@H]2[C@@H]1[C@@H]1C[C@H]2C1	
InChI=1S/C8H12O/c9-3-6-7-4-1-5(2-4)8(6)7/h4-9H,1-3H2	InChI=1S/C8H12O/c9-3-6-7-4-1-5(2-4)8(6)7/h4-9H,1-3H2/t4-,5+,6-,7-,8+
