20
gdb 72945	2.69819	1.67902	1.44856	2.5323	77.35	-0.2008	0.0649	0.2657	999.5205	0.17194	-403.076339	-403.068587	-403.067642	-403.108366	31.353	
O	 0.0294115928	 1.401308349	-0.0239289213	-0.482688
C	 0.0253820895	 0.003138824	-0.0416279218	 0.404234
C	 0.4161236303	-0.7164525649	-1.3556248299	-0.309337
C	-0.8762953816	-1.5846753003	-1.2418253952	-0.238315
C	-1.3245104499	-0.7741705535	 0.0149569602	-0.036947
N	-1.0188270623	-1.2784917845	 1.3950191562	-0.130184
C	-0.4418895431	-2.6497494239	 1.548356473	-0.165755
C	 1.0074157656	-2.1063242718	 1.3909005622	-0.272906
C	 0.369661568	-0.6935633792	 1.3123377953	-0.032654
H	 0.9455350323	 1.701951554	-0.0254784856	 0.276475
H	 0.3754342474	-0.0176591692	-2.1946277329	 0.107743
H	 1.3746254046	-1.2414827107	-1.3838382449	 0.09483
H	-1.5598667886	-1.4721776045	-2.0858038618	 0.108644
H	-0.7107020586	-2.6519098148	-1.0877113071	 0.104388
H	-2.2987450939	-0.2867174312	-0.0560437376	 0.082056
H	-0.6625730995	-3.0470705138	 2.5441643645	 0.106113
H	-0.777305897	-3.386759609	 0.8132026886	 0.104515
H	 1.6659361695	-2.2686517777	 2.2470476797	 0.104287
H	 1.5305226686	-2.4340234802	 0.4891739846	 0.104903
H	 0.6498334258	 0.0139260824	 2.1008305537	 0.070599
79.8683	186.1223	249.7161	268.94	317.0089	371.6218	431.9041	467.891	600.6661	620.0132	722.7955	731.3195	765.4653	808.4115	866.6009	879.4313	913.8689	943.3554	962.8815	982.5306	988.0747	993.9634	1057.1708	1078.1338	1127.7652	1152.9699	1178.857	1201.4785	1206.0415	1211.8812	1224.0209	1231.438	1249.464	1258.5979	1275.1144	1299.9159	1309.6765	1324.3333	1379.9597	1466.0006	1480.4024	1495.1892	1517.4781	3035.8685	3044.2318	3057.7324	3066.6621	3074.4935	3083.6671	3087.9629	3107.7144	3117.8319	3130.1306	3788.4866
OC12CCC1N1CCC21	O[C@]12CC[C@H]1N1CC[C@@H]21	
InChI=1S/C7H11NO/c9-7-3-1-5(7)8-4-2-6(7)8/h5-6,9H,1-4H2	InChI=1S/C7H11NO/c9-7-3-1-5(7)8-4-2-6(7)8/h5-6,9H,1-4H2/t5-,6+,7-/m1/s1
