21
gdb 108256	2.58024	1.31302	1.2912	1.6315	78.09	-0.2397	0.061	0.3006	1160.9475	0.180755	-424.19929	-424.189976	-424.189032	-424.233255	34.855	
C	-0.1129711259	 1.6258813107	 0.0973489941	-0.383221
C	-0.0340072122	 0.0955044232	 0.1859938797	-0.277181
C	-1.37478857	-0.5542701512	-0.0411273505	 0.3605
C	-2.0214526658	-0.5946194621	-1.4390975041	-0.125553
O	-2.3975978715	-1.984130743	-1.2660436229	-0.33438
C	-1.7638439035	-2.0591873699	 0.0316752086	 0.326021
C	-0.8806381384	-3.2656570113	 0.1913214828	-0.482137
C	-2.7227574249	-1.6176258786	 1.1526763477	-0.119887
O	-2.3495071731	-0.2276023017	 0.9788380993	-0.338663
H	 0.8596955608	 2.0806661096	 0.3049614048	 0.114069
H	-0.427819134	 1.9516455399	-0.8999153063	 0.11806
H	-0.8350012554	 2.0128869997	 0.8214036851	 0.142068
H	 0.6782081167	-0.2923799472	-0.5527554101	 0.100948
H	 0.3363468362	-0.1990278428	 1.1749184942	 0.103623
H	-2.8854166267	 0.0657015184	-1.5674513884	 0.109446
H	-1.3293672556	-0.474702139	-2.2831614015	 0.096522
H	-0.133334957	-3.3099044733	-0.6059342363	 0.127305
H	-0.3670475488	-3.2533894498	 1.1575487575	 0.122516
H	-1.4829174075	-4.1797718499	 0.1373358491	 0.13401
H	-3.782925463	-1.80204297	 0.9487770685	 0.10874
H	-2.4676577604	-1.9737313018	 2.1594167887	 0.097195
81.1303	123.9246	131.3284	187.3898	216.2022	241.6479	316.8949	343.9323	363.3176	400.3155	512.978	595.8437	690.8257	722.2522	783.2359	857.42	885.9646	919.9337	960.2112	981.2336	990.5869	998.4217	1009.0093	1023.3907	1122.3581	1143.8117	1153.6174	1185.5502	1186.6746	1209.0036	1248.9864	1271.8413	1306.4014	1350.8708	1358.5396	1393.449	1407.4303	1411.7438	1474.6817	1481.544	1489.7242	1498.3517	1504.3191	1507.7756	1508.9775	3008.8912	3011.3558	3028.4208	3035.0667	3039.5877	3065.7027	3074.9618	3076.5618	3101.5966	3106.5889	3117.4098	3123.2125
CCC12COC1(C)CO2	CC[C@@]12CO[C@]1(C)CO2	
InChI=1S/C7H12O2/c1-3-7-5-8-6(7,2)4-9-7/h3-5H2,1-2H3	InChI=1S/C7H12O2/c1-3-7-5-8-6(7,2)4-9-7/h3-5H2,1-2H3/t6-,7-/m1/s1
