12
gdb 20147	4.524	2.68402	2.19396	4.6032	55.3	-0.2522	-0.0218	0.2305	617.9953	0.085434	-377.46003	-377.455022	-377.454078	-377.489025	20.24	
O	 0.0046611407	 0.0171796547	 0.1619227413	-0.290857
C	-0.0138810174	 1.1949402339	 0.0245882382	 0.444216
N	-1.2000238394	 2.0274437906	-0.0721308345	-0.169474
C	-0.8331690173	 3.3333894674	 0.5175270236	-0.075714
C	-0.833620744	 3.1626217524	-0.9467136813	-0.075717
C	 0.7403778143	 3.1870208649	-0.9500412099	-0.075714
C	 0.7408303484	 3.3577747366	 0.5142011642	-0.075717
N	 1.1454765955	 2.0637904859	-0.0771006867	-0.169474
H	-1.5144867056	 3.8167929585	 1.2023849727	 0.122113
H	-1.5153904973	 3.4754988331	-1.7240175066	 0.122113
H	 1.4088304215	 3.5208293982	-1.730198979	 0.122113
H	 1.4097336604	 3.8620953438	 1.1962072981	 0.122112
165.1028	480.1985	525.4728	663.8942	712.7594	771.8564	783.7472	783.9259	815.7353	822.4238	896.4569	898.6504	920.8756	929.894	932.3188	991.6285	1020.2409	1038.9211	1041.457	1175.4757	1209.2794	1220.2317	1223.6415	1285.8653	1352.535	1925.9484	3218.2555	3225.5452	3230.7388	3238.3203
O=C1N2C3C2C2C3N12	O=C1N2[C@@H]3[C@H]2[C@H]2[C@@H]3N12	
InChI=1S/C5H4N2O/c8-5-6-1-2(6)4-3(1)7(4)5/h1-4H	InChI=1S/C5H4N2O/c8-5-6-1-2(6)4-3(1)7(4)5/h1-4H/t1-,2+,3-,4+,6?,7?
