19
gdb 68064	2.03978	1.6546	1.09676	2.9478	77.46	-0.2303	-0.0272	0.2032	1163.4112	0.155954	-422.985441	-422.976291	-422.975347	-423.019132	34.296	
C	 0.005813016	 1.4327395657	 0.1168404179	-0.5106
C	-0.0354385798	-0.0524530352	-0.0587165261	 0.384945
C	 0.6029388928	-0.9423681105	-1.1522338601	-0.294265
C	 0.0562456154	-1.8543022268	-0.027617502	 0.384932
C	 0.2476769078	-3.3207182781	 0.1988807263	-0.510603
O	 0.6240215744	-0.9047185706	 0.9672238335	-0.370716
C	-1.2704403194	-1.0182446107	-0.0244360826	-0.162922
C	-2.1049505487	-1.0391248924	 1.2200217675	 0.136428
O	-3.3118834736	-1.1002792951	 1.2092211664	-0.267584
H	 1.0424412607	 1.7827737371	 0.1264646564	 0.138434
H	-0.5194355884	 1.9245885815	-0.7075173545	 0.134312
H	-0.4699989201	 1.7289783484	 1.0562082656	 0.139284
H	 0.1213585436	-0.98378926	-2.1324852583	 0.098435
H	 1.6917301755	-0.8879196012	-1.2076000318	 0.10617
H	 1.3144512607	-3.563229922	 0.2187805224	 0.138435
H	-0.1973109554	-3.6312138624	 1.1486937118	 0.139278
H	-0.22346568	-3.8913953229	-0.6071726245	 0.134308
H	-1.8948097032	-1.065448714	-0.9200544089	 0.084922
H	-1.5335611783	-0.9940307209	 2.1682115308	 0.096808
72.808	175.2675	186.9307	198.6561	215.1269	224.5813	254.3714	376.2517	413.0758	434.824	530.3939	592.866	641.7174	644.0998	675.3031	763.9788	867.0929	918.7885	972.0672	1009.6415	1022.9688	1029.5796	1072.2066	1124.8837	1132.0134	1152.9633	1159.4177	1177.4628	1206.6282	1257.4001	1303.1811	1373.7378	1410.3048	1410.6649	1427.4233	1475.697	1477.0517	1486.1333	1487.2674	1502.8848	1810.7653	2939.1252	3042.0085	3042.0988	3059.7154	3091.1524	3117.3768	3117.6148	3118.5442	3118.6964	3140.9845
CC12CC(C)(O1)C2C=O	C[C@@]12C[C@@](C)(O1)[C@H]2C=O	
InChI=1S/C7H10O2/c1-6-4-7(2,9-6)5(6)3-8/h3,5H,4H2,1-2H3	InChI=1S/C7H10O2/c1-6-4-7(2,9-6)5(6)3-8/h3,5H,4H2,1-2H3/t5-,6-,7+
