17
gdb 77443	2.38535	1.52292	1.24005	3.9351	70.28	-0.233	0.0103	0.2434	1070.0736	0.135332	-455.134552	-455.125419	-455.124475	-455.167953	33.918	
C	 0.1137472459	 1.5123980218	-0.0657989702	-0.491071
C	 0.0516256274	 0.0327322246	 0.0894939434	 0.413035
O	 0.4850779964	-0.7925511553	-1.0344288532	-0.299523
C	 1.2017031776	-1.637304896	-0.1833256986	 0.421594
O	 1.9230920543	-2.5311668046	-0.494495775	-0.344117
C	 0.7155794222	-0.9493753368	 1.0551954996	-0.020486
N	 1.3006205422	-0.7356075432	 2.3237715482	-0.606162
C	-0.8613497462	-0.7977886961	 0.9051013615	-0.068725
N	-1.5631307583	-0.2067851577	 2.0005266057	-0.52507
H	 1.1274200238	 1.8459445033	-0.3064999971	 0.132209
H	-0.5557350379	 1.8355433952	-0.8697608294	 0.145004
H	-0.2133370411	 1.9997860945	 0.8560656781	 0.141342
H	 1.3403193989	-1.5932045897	 2.8658523943	 0.248217
H	 2.244640839	-0.371374363	 2.2518583647	 0.249856
H	-1.4046985962	-1.5891816478	 0.397381285	 0.114264
H	-2.062515505	-0.9228532232	 2.5173824779	 0.241407
H	-0.8986911229	 0.2102992139	 2.6486024152	 0.248225
128.0911	136.9771	168.0152	196.1549	210.8764	264.9042	288.11	307.4618	370.3999	448.5978	533.0211	606.5266	614.7838	654.3536	737.5819	780.3313	791.0577	840.8918	885.461	921.909	995.4808	1013.086	1071.3329	1111.626	1168.3745	1181.015	1230.5444	1275.1831	1342.1361	1404.4817	1419.9016	1472.2569	1485.5562	1516.3565	1662.0707	1671.0922	1924.847	3041.8241	3106.9785	3127.8407	3159.344	3487.2441	3501.4628	3572.6426	3575.5336
CC12OC(=O)C1(N)C2N	C[C@@]12OC(=O)[C@]1(N)[C@H]2N	
InChI=1S/C5H8N2O2/c1-4-2(6)5(4,7)3(8)9-4/h2H,6-7H2,1H3	InChI=1S/C5H8N2O2/c1-4-2(6)5(4,7)3(8)9-4/h2H,6-7H2,1H3/t2-,4-,5+/m0/s1
