21
gdb 39811	2.88891	1.49692	1.48069	1.3251	81.96	-0.2411	0.0877	0.3288	1029.2003	0.185164	-387.061782	-387.054357	-387.053412	-387.093256	30.69	
C	-0.0133890127	 1.4614751875	 0.0102380612	-0.36761
C	 1.3216384735	 0.7351648603	-0.0068632241	-0.357124
C	 0.038793379	-0.0324811399	 0.0016251091	 0.456593
C	-0.5576412537	-0.9706552071	 1.0594649134	-0.130219
C	-1.6658992572	-1.2950559115	 0.0115919819	-0.223707
C	-0.5784858483	-0.9591977525	-1.054353878	-0.130219
C	 0.3330390504	-2.1840889492	-1.2166581602	-0.066053
O	 0.399270059	-2.9476657611	-0.0177304594	-0.262943
C	 0.3567758178	-2.1971364351	 1.1904762842	-0.066053
H	-0.3053667797	 1.9646573085	 0.9272786871	 0.109795
H	-0.3233382163	 1.9745371991	-0.8953587815	 0.109795
H	 1.9044281831	 0.7647447653	-0.9226614469	 0.111049
H	 1.9223764096	 0.7548773745	 0.8975318946	 0.111049
H	-0.8323534102	-0.5631649669	 2.036230497	 0.062552
H	-2.082909958	-2.3043114312	 0.0102336964	 0.102607
H	-2.4643270033	-0.5511522813	 0.0234977076	 0.099891
H	-0.8723624514	-0.5411737387	-2.0210382316	 0.062552
H	-0.0571244588	-2.868420603	-1.9785780381	 0.101837
H	 1.338543794	-1.8612959074	-1.5330779372	 0.087185
H	 1.368359147	-1.8776850979	 1.4904871273	 0.087185
H	-0.0183608538	-2.8897281324	 1.9524792771	 0.101837
140.0239	214.7889	234.3377	247.5575	358.0359	384.4671	449.4632	554.3554	588.1577	673.8076	773.4028	830.2403	840.4108	851.5083	859.3969	913.5848	921.2825	946.3802	963.8835	971.2873	1010.855	1042.3624	1050.6422	1076.3684	1076.7732	1084.627	1111.7863	1148.2442	1171.8775	1185.417	1222.1293	1227.653	1261.3285	1281.0305	1281.4844	1303.4719	1319.2606	1379.549	1394.1488	1422.8714	1463.806	1485.0067	1505.5542	1507.2445	1516.1625	2966.5706	2972.9019	3054.129	3055.7934	3066.5256	3072.2465	3078.484	3115.2339	3119.9468	3132.1003	3191.6656	3206.1923
C1CC11C2CC1COC2	C1CC21[C@H]1C[C@@H]2COC1	
InChI=1S/C8H12O/c1-2-8(1)6-3-7(8)5-9-4-6/h6-7H,1-5H2	InChI=1S/C8H12O/c1-2-8(1)6-3-7(8)5-9-4-6/h6-7H,1-5H2/t6-,7+
