20
gdb 89953	2.74458	1.40078	1.09545	2.9377	79.28	-0.2193	-0.0306	0.1887	1165.4117	0.17021	-403.115112	-403.106362	-403.105418	-403.148995	32.873	
C	 0.2126509921	 1.7252980759	-0.0151720372	-0.415447
C	 0.026605787	 0.219961598	-0.0401861801	 0.082414
C	 0.8211018533	-0.636445863	-1.066657081	-0.349714
C	 1.1889679226	-1.5544312889	 0.1158115896	 0.298123
C	 2.5729912073	-1.3639928403	 0.7815122304	-0.312948
C	 1.9232910702	-0.2290266415	 1.6130522498	-0.166812
N	 0.5514973883	-0.5971229681	 1.1220324818	-0.195845
C	 0.6200514696	-2.9479085329	 0.1162715365	 0.097902
O	 0.1559424022	-3.5066492929	-0.8449747223	-0.250024
H	 1.2642534849	 2.0232651031	-0.0663933246	 0.117874
H	-0.2935411004	 2.1704064821	-0.8781830968	 0.125586
H	-0.2242626701	 2.1583459727	 0.8910671992	 0.128085
H	-1.045356586	 0.0027550034	-0.105432357	 0.091734
H	 0.2427565355	-1.1187234211	-1.8561680654	 0.128362
H	 1.6794258083	-0.1244524069	-1.5112323181	 0.099121
H	 2.8835022838	-2.2224445243	 1.3836869306	 0.113
H	 3.388293778	-1.0957648831	 0.1064674185	 0.113885
H	 2.0068850324	-0.3339124137	 2.6982892127	 0.112077
H	 2.2505230478	 0.7794201982	 1.3460158023	 0.105073
H	 0.6492241531	-3.4375077767	 1.1170162209	 0.077556
53.5615	79.405	185.3509	206.3823	257.7476	304.292	334.3257	365.1036	440.8794	528.2354	612.5331	695.1765	755.7636	799.0058	812.3835	877.687	898.9061	913.4418	954.8715	968.0957	979.9216	1014.9193	1051.2628	1115.3412	1134.9483	1159.1157	1195.5353	1206.9261	1220.9816	1250.1368	1262.4408	1293.8781	1309.7098	1323.078	1382.5668	1407.0224	1415.0857	1476.5465	1484.5947	1487.4786	1497.5807	1517.5336	1823.4302	2870.1287	3033.1537	3034.0867	3052.9434	3059.1839	3060.9609	3091.8934	3102.8391	3107.4851	3119.1815	3128.6231
CC1CC2(CCN12)C=O	C[C@H]1C[C@]2(CCN12)C=O	
InChI=1S/C7H11NO/c1-6-4-7(5-9)2-3-8(6)7/h5-6H,2-4H2,1H3	InChI=1S/C7H11NO/c1-6-4-7(5-9)2-3-8(6)7/h5-6H,2-4H2,1H3/t6-,7+/m0/s1
