19
gdb 66584	2.98756	1.87071	1.58611	1.715	77.08	-0.2331	0.0959	0.3291	921.7762	0.161408	-385.849224	-385.842397	-385.841453	-385.880052	28.427	
C	 0.0084423599	 1.4737977121	 0.0631325848	-0.516703
C	 0.0020394714	-0.0229208799	-0.014324465	 0.362983
C	-0.9529968331	-0.8984375607	 0.8161539892	-0.150341
C	 0.5509522555	-1.0454302001	 0.9512876298	-0.172424
C	 0.459437337	-2.0724409981	-0.2279374634	-0.100335
C	-1.0727145318	-2.1883376075	-0.0059952486	 0.127669
O	-1.7381346689	-2.0839261214	-1.2498360314	-0.281677
C	-0.929954305	-1.2376612248	-2.0883892375	-0.08983
C	 0.3037709423	-0.9026320752	-1.2460640679	-0.121144
H	 0.9735512457	 1.8862408208	-0.2530449036	 0.117849
H	-0.7668266229	 1.9120379139	-0.5769925377	 0.121683
H	-0.1786358314	 1.8158652228	 1.0867184853	 0.120923
H	-1.6582079299	-0.4603538422	 1.51127269	 0.082148
H	 1.1990398502	-0.958077483	 1.8100065019	 0.091031
H	 1.0917481758	-2.9362934926	-0.4160550729	 0.069698
H	-1.4477976126	-3.0614046675	 0.5291966405	 0.078042
H	-0.682429503	-1.7838184393	-3.0085508125	 0.095667
H	-1.4974921068	-0.3400011086	-2.367331684	 0.097824
H	 1.1955377676	-0.6147746488	-1.805512197	 0.066941
187.4513	199.8531	225.0339	296.7011	419.3707	502.3617	591.4613	661.677	701.712	762.3426	784.2392	833.5963	846.1943	883.085	895.5061	908.4149	925.1082	942.5418	973.0865	981.4094	1011.0908	1042.3444	1068.3444	1079.0699	1106.8393	1118.119	1146.6958	1175.6395	1197.5484	1215.1265	1244.9981	1258.1634	1266.9937	1310.5281	1330.9743	1387.7678	1409.4922	1432.6046	1485.7541	1498.8352	1521.8862	3004.523	3019.6121	3037.6973	3077.7201	3091.9428	3101.1755	3113.3663	3148.7297	3192.4713	3232.7151
CC12C3C1C1C3OCC21	C[C@]12[C@@H]3[C@H]1[C@H]1[C@@H]3OC[C@@H]21	
InChI=1S/C8H10O/c1-8-3-2-9-7-4(3)5(8)6(7)8/h3-7H,2H2,1H3	InChI=1S/C8H10O/c1-8-3-2-9-7-4(3)5(8)6(7)8/h3-7H,2H2,1H3/t3-,4+,5-,6-,7+,8-/m1/s1
