17
gdb 19064	5.29736	1.73461	1.7161	2.7429	68.22	-0.2167	0.0811	0.2978	829.8127	0.14344	-363.783061	-363.776788	-363.775844	-363.813062	25.69	
C	-0.0986536771	 1.4030461043	-0.0211800462	-0.316791
N	 0.0342794861	-0.0482277925	 0.0355006485	-0.075007
C	 1.3993466699	-0.5382299232	-0.1907890259	-0.04344
C	 0.8167599232	-0.5381927239	 1.1767200325	-0.043441
C	 0.7163391651	-2.0732293973	 1.3869216446	 0.03486
C	 2.1291277267	-2.5385314843	 0.9280156398	-0.226337
C	 1.4813331988	-2.0732785885	-0.4087608063	 0.03486
O	 0.2077610245	-2.5419796076	 0.1094786289	-0.261821
H	 0.7820218881	 1.9535379382	 0.3540393704	 0.092824
H	-0.2726754215	 1.704429125	-1.0588766154	 0.125596
H	-0.9676033056	 1.704472935	 0.5721137427	 0.125596
H	 2.1838776335	 0.1360357129	-0.5161040607	 0.090324
H	 1.1256682524	 0.136105674	 1.9678264525	 0.090325
H	 0.1916615624	-2.4709971957	 2.2545448094	 0.084546
H	 3.0111803663	-2.011436091	 1.3037718425	 0.092073
H	 2.2470276623	-3.6218343898	 0.9782729441	 0.111288
H	 1.7435318248	-2.4710945558	-1.3881842015	 0.084546
213.5305	221.7401	280.9981	401.5877	419.6497	469.386	655.4626	710.8215	764.1548	832.969	857.4027	858.4822	864.5326	918.9455	923.5377	946.4404	954.4634	1024.7566	1048.3117	1086.74	1087.9915	1128.0528	1147.9794	1154.7521	1174.2314	1222.1135	1224.121	1252.2385	1274.339	1299.3117	1308.1235	1374.0929	1454.9934	1481.2949	1492.6543	1498.6639	2947.576	3057.8359	3066.3886	3105.3514	3130.3016	3131.2396	3142.1876	3171.522	3181.746
CN1C2C1C1CC2O1	CN1[C@H]2[C@@H]1[C@@H]1C[C@H]2O1	
InChI=1S/C6H9NO/c1-7-5-3-2-4(8-3)6(5)7/h3-6H,2H2,1H3	InChI=1S/C6H9NO/c1-7-5-3-2-4(8-3)6(5)7/h3-6H,2H2,1H3/t3-,4+,5-,6+,7?
