18
gdb 54275	2.94982	1.28265	1.14272	4.1033	66.87	-0.2573	0.0135	0.2708	1115.6645	0.149534	-476.258467	-476.250108	-476.249163	-476.291861	31.365	
N	-0.1030404283	 0.8531740788	 0.073055473	-0.581568
H	 0.2554335226	-0.0616807173	 0.331439003	 0.25152
H	 0.5563760436	 2.5990855255	-0.1850719975	 0.30772
H	-0.7571720594	 0.7055994662	-0.6902912789	 0.242406
C	-0.7821294513	 1.4656815672	 1.229758713	 0.132067
C	-2.2185115041	 0.9552305747	 1.4924584748	-0.292345
C	-2.0177684083	-0.2125050456	 2.4959281801	-0.086462
O	-0.6103633657	-0.3105349406	 2.7294981255	-0.2541
C	-0.0818882373	 0.9849190818	 2.5206952178	-0.119177
C	-0.6976681901	 3.00037168	 1.1157586999	 0.407604
O	 0.1966578504	 3.422191508	 0.2160338383	-0.372271
O	-1.344035703	 3.7456434048	 1.8045318482	-0.352307
H	-2.8129050174	 1.7594112051	 1.9284012101	 0.146723
H	-2.7026695639	 0.6353435405	 0.5659502081	 0.103729
H	-2.5426791003	-0.0085225528	 3.4390146215	 0.110263
H	-2.3563450734	-1.180596207	 2.1179687038	 0.112652
H	 1.0035254136	 0.9058749244	 2.4190234173	 0.121257
H	-0.3248430475	 1.6687179164	 3.346482992	 0.122288
71.3061	83.4586	191.327	218.9634	296.2884	338.1176	389.0588	401.3586	427.6888	547.6579	699.9799	715.0859	743.3979	797.1272	820.478	875.3657	904.2126	937.3896	971.1186	990.9942	1003.6141	1013.7363	1098.3274	1126.3401	1176.6253	1219.2032	1232.7861	1265.7071	1279.6475	1304.1613	1315.9838	1362.4998	1393.8819	1434.0992	1489.9836	1507.6613	1527.6163	1663.2534	1860.5647	3009.147	3014.0783	3069.2921	3090.7839	3104.7694	3133.1271	3458.3718	3494.142	3567.9925
[NH3+]C1(CCOC1)C([O-])=O	N[C@]1(CCOC1)C(=O)O	
InChI=1S/C5H9NO3/c6-5(4(7)8)1-2-9-3-5/h1-3,6H2,(H,7,8)	InChI=1S/C5H9NO3/c6-5(4(7)8)1-2-9-3-5/h1-3,6H2,(H,7,8)/t5-/m0/s1
