13
gdb 133026	4.05258	1.18943	0.92478	3.6441	66.05	-0.2581	-0.0743	0.1838	1160.1118	0.088517	-494.058377	-494.0506	-494.049656	-494.092033	26.965	
C	-0.0337373406	 1.464551967	 0.0951031353	-0.335346
N	-0.0291683077	 0.0220070919	 0.2006553203	-0.294504
C	-1.0661487984	-0.6691851546	 0.1035273666	 0.470621
O	-2.3514141498	-0.0262957825	-0.1259002969	-0.212702
C	-3.4285596021	-0.7858227394	-0.2238039371	 0.159049
N	-3.4740520177	-2.0666568786	-0.1371462228	-0.325932
C	-2.2313115603	-2.619803243	 0.0797402377	 0.349384
F	-2.2674248796	-3.9268958306	 0.1696570975	-0.034635
N	-1.0999337254	-2.0424234799	 0.1985850811	-0.341782
H	 0.6358298371	 1.7589754369	-0.7206658997	 0.139206
H	-1.0178215836	 1.9126756042	-0.0777203355	 0.122565
H	 0.3885561785	 1.8851682254	 1.0144736013	 0.139207
H	-4.3324441405	-0.2055423668	-0.3944858179	 0.164868
39.8173	83.6992	147.6167	226.3691	299.6997	411.4375	414.1208	521.7394	556.796	628.3428	667.6308	711.5903	795.0075	866.349	955.6548	1004.2965	1005.2881	1134.9122	1146.7766	1223.8642	1263.8966	1366.9317	1424.4508	1441.0928	1493.953	1497.1589	1610.8344	1715.3593	1820.1911	3023.0699	3082.7252	3094.9265	3178.6791	39.8147	83.6992	147.6165	226.369	299.6997	411.4375	414.121	521.7393	556.7959	628.3427	667.6307	711.5899	795.0075	866.349	955.6548	1004.2962	1005.2878	1134.9125	1146.7768	1223.8642	1263.8965	1366.9316	1424.4506	1441.093	1493.9534	1497.1593	1610.8346	1715.3593	1820.1908	3023.0698	3082.7252	3094.9264	3178.6791
CN=C1OC=NC(F)=N1	C[N]C1=NC(=NCO1)F	
InChI=1S/C4H4FN3O/c1-6-4-8-3(5)7-2-9-4/h2H,1H3	InChI=1S/C4H5FN3O/c1-6-4-8-3(5)7-2-9-4/h2H2,1H3
