17
gdb 116595	5.3374	0.84044	0.76101	1.3967	75.42	-0.2498	-0.0073	0.2425	1489.233	0.136402	-455.203969	-455.195237	-455.194293	-455.239118	31.063	
C	-0.0454026494	 1.6010592014	 0.0344330424	-0.358286
C	 0.1330675271	 0.0818446841	 0.0312973533	-0.14402
N	 0.8562089635	-0.3403131157	-1.1621956552	-0.365932
C	 1.8711464333	-1.0692707383	-1.0580722626	 0.526018
N	 2.635641573	-1.5146789293	-2.1362261695	-0.399758
C	 3.7001902652	-2.2973825663	-1.7630586785	 0.409353
O	 4.5276174727	-2.8168124014	-2.4673576095	-0.352049
C	 3.5873897018	-2.3521317935	-0.2396278276	-0.220535
O	 2.4342693995	-1.5730030794	 0.0855751595	-0.25254
H	 0.9234899502	 2.1067931872	 0.0930206289	 0.115852
H	-0.5429451232	 1.931013729	-0.881947884	 0.124599
H	-0.6484004259	 1.9157067925	 0.8920858472	 0.109421
H	 0.6235098679	-0.2425320658	 0.9576423263	 0.108878
H	-0.8558723075	-0.3943429978	 0.0071080161	 0.107532
H	 2.4085182168	-1.2669693322	-3.0858110606	 0.284007
H	 3.4560467675	-3.3816273336	 0.1077307006	 0.153881
H	 4.4772488175	-1.9262099509	 0.2345188333	 0.153579
18.1714	81.2366	159.1224	175.9329	199.6374	272.4421	377.671	427.8839	539.4213	540.9759	607.4253	660.5844	703.3814	720.3357	810.8462	879.4611	906.0235	942.1618	1023.9333	1061.8	1086.6252	1117.4713	1158.8847	1195.7246	1200.8977	1303.9714	1327.4509	1366.4692	1381.0101	1393.7379	1406.7312	1488.4631	1491.4401	1493.6114	1511.6342	1821.3102	1873.3444	3012.3747	3038.3889	3048.2024	3054.6927	3100.9274	3109.6035	3118.5088	3663.5723
CCN=C1NC(=O)CO1	CCN=C1NC(=O)CO1	
InChI=1S/C5H8N2O2/c1-2-6-5-7-4(8)3-9-5/h2-3H2,1H3,(H,6,7,8)	InChI=1S/C5H8N2O2/c1-2-6-5-7-4(8)3-9-5/h2-3H2,1H3,(H,6,7,8)
