14
gdb 132285	2.04157	1.81904	0.96771	2.8272	69.92	-0.2354	-0.0544	0.181	1122.9471	0.100206	-478.020931	-478.013225	-478.01228	-478.053492	28.381	
C	-0.02026326	 1.4572876923	 0.0784803634	-0.471988
C	-0.0060379754	-0.0286822849	-0.0595825186	 0.420979
N	-0.0496781871	-0.6147864752	-1.2022849952	-0.356111
C	-0.0296151023	-1.9825676699	-1.1711760377	 0.330083
F	-0.0760600038	-2.5373190406	-2.3688379383	-0.051772
C	 0.0310067242	-2.7372789006	-0.0584416126	-0.323084
C	 0.0797835196	-2.0709104309	 1.218868156	 0.394795
N	 0.1383784214	-2.6335397615	 2.3493460259	-0.535397
O	 0.0564402259	-0.6551882871	 1.1302744287	-0.2525
H	 0.8804155029	 1.79465451	 0.6011015713	 0.15761
H	-0.0708595979	 1.915661296	-0.9078431934	 0.161841
H	-0.8796096312	 1.7704166791	 0.6799022128	 0.157619
H	 0.0446910837	-3.8168323233	-0.0803874064	 0.141424
H	 0.1631136	-1.9488291933	 3.103864624	 0.226501
111.6327	138.9328	181.8435	201.9238	291.8621	361.8912	481.734	548.1313	568.4471	583.6545	623.9028	679.829	741.6761	831.1617	850.9495	867.2692	974.5877	989.1226	1063.8046	1064.304	1083.6547	1201.6439	1253.6071	1336.7714	1398.1494	1416.5174	1468.0496	1472.2221	1654.1411	1685.3263	1768.2448	3051.0813	3109.415	3173.8518	3250.0055	3506.1716
CC1=NC(F)=CC(=N)O1	CC1=N[C@@H](F)C=C([NH])O1	
InChI=1S/C5H5FN2O/c1-3-8-4(6)2-5(7)9-3/h2,7H,1H3	InChI=1S/C5H6FN2O/c1-3-8-4(6)2-5(7)9-3/h2,4,7H,1H3/t4-/m1/s1
