19
gdb 6790	3.23437	1.35067	1.04731	6.9373	68.02	-0.2354	0.0387	0.2741	1139.6621	0.166706	-402.237795	-402.229107	-402.228163	-402.271817	31.467	
N	 0.4798405306	 1.8395313227	 1.3695236716	-0.507015
H	 1.2688433235	 1.2123483668	 1.2378517997	 0.24328
H	 0.43958207	 2.7453719231	 2.8550894128	 0.326545
H	 0.5385858393	 2.5364024313	 0.6321437137	 0.251791
C	-0.7873992798	 1.0905959325	 1.2654496452	-0.157656
C	-0.9056175877	-0.0001608843	 2.3335052571	-0.185166
C	-1.0826449811	 0.4551549813	 3.7934317641	-0.192926
C	 0.1720885048	 1.0160839356	 4.5233394474	-0.314614
C	 0.1331899763	 2.5282771907	 4.755631503	 0.379958
O	 0.2795591744	 3.296016248	 3.6702518053	-0.389609
O	-0.0407966062	 3.0086286661	 5.8474272399	-0.334414
H	-1.603312134	 1.813009414	 1.3842721523	 0.124669
H	-0.9077528451	 0.6303927255	 0.2737125631	 0.100158
H	-1.7747112738	-0.6116873588	 2.0627509747	 0.107919
H	-0.0368824444	-0.6708259814	 2.2603747911	 0.095936
H	-1.9012136985	 1.1831724559	 3.848434109	 0.116754
H	-1.4296139302	-0.416661068	 4.3569390705	 0.111176
H	 0.2505361453	 0.5697723977	 5.5155592037	 0.125304
H	 1.0813280065	 0.7493851214	 3.9719879057	 0.09791
39.8254	100.8412	127.1038	215.2893	258.0508	298.8717	325.7236	372.0983	448.7128	487.0043	601.0149	727.3846	763.6084	844.8091	847.8284	896.2249	934.0024	953.8411	998.0328	1034.0467	1052.1967	1081.9153	1113.8038	1147.1678	1194.5717	1263.0814	1299.3796	1320.2973	1328.4627	1349.9711	1380.1804	1394.378	1428.4462	1476.7818	1479.1251	1487.6025	1493.5176	1511.1675	1649.2112	1849.367	2990.6935	3006.7174	3033.808	3043.383	3056.6802	3066.306	3074.6527	3120.5462	3155.241	3488.0176	3564.5667
[NH3+]CCCCC([O-])=O	NCCCCC(=O)O	
InChI=1S/C5H11NO2/c6-4-2-1-3-5(7)8/h1-4,6H2,(H,7,8)	InChI=1S/C5H11NO2/c6-4-2-1-3-5(7)8/h1-4,6H2,(H,7,8)
