21
gdb 79851	2.76549	1.65348	1.20756	1.3331	82.25	-0.2516	0.077	0.3286	1094.4255	0.183847	-387.060452	-387.052514	-387.05157	-387.092238	32.591	
C	-0.1868927341	 1.5796306826	-0.0002814115	-0.438646
C	 0.0082837456	 0.0710495961	 0.0016360735	 0.03488
C	 1.2445595148	-0.5804771054	-0.6794958188	-0.145409
C	 2.142675084	-0.1682856099	 0.5285194416	-0.011584
C	 3.207639594	-1.2452600533	 0.7626879887	-0.246991
C	 2.3544233005	-2.5154974867	 0.5243454272	-0.302713
C	 1.0065324357	-1.8600132705	 0.2115028151	 0.449059
O	-0.0895239132	-2.6990455526	 0.0016841534	-0.489198
C	 0.7853316362	-0.6378573439	 1.1497249951	-0.109916
H	 0.7233007712	 2.1321271283	 0.2490399178	 0.111998
H	-0.522430196	 1.9230349142	-0.9855838475	 0.112683
H	-0.9577797978	 1.8687934781	 0.7230911326	 0.114305
H	-0.9297727607	-0.4324128136	-0.247772275	 0.078592
H	 1.522771927	-0.5602782532	-1.7370948902	 0.053325
H	 2.4406543657	 0.8726169317	 0.6369941633	 0.066161
H	 4.0430929409	-1.1557174198	 0.0611210033	 0.096168
H	 3.6225011233	-1.2004018701	 1.774510563	 0.098576
H	 2.715386702	-3.1237854408	-0.3136358646	 0.085461
H	 2.286965902	-3.1670192008	 1.4009498687	 0.103017
H	 0.1337259628	-3.3134812611	-0.70529045	 0.279809
H	 0.5301347962	-0.6810605491	 2.2115214642	 0.060424
188.6821	210.4831	220.2319	242.0206	267.1805	336.3164	365.3305	439.9353	515.9716	617.9842	694.5892	706.6145	737.3628	809.3195	821.2872	827.8582	895.5464	910.3734	955.1729	1003.4826	1017.5278	1027.6825	1042.2476	1053.5271	1088.1877	1105.718	1111.1284	1150.3899	1161.7374	1192.9211	1210.0921	1223.6717	1242.448	1254.1863	1270.7785	1276.8717	1319.5399	1331.8892	1388.1498	1412.9815	1422.8672	1488.02	1495.1621	1501.2396	1509.9276	3028.9466	3031.8433	3048.1758	3065.6911	3070.5804	3074.3055	3081.9067	3085.1644	3093.0109	3107.4277	3138.3848	3809.2831
CC1C2C3CCC2(O)C13	C[C@H]1[C@H]2[C@@H]3CC[C@@]2(O)[C@H]13	
InChI=1S/C8H12O/c1-4-6-5-2-3-8(6,9)7(4)5/h4-7,9H,2-3H2,1H3	InChI=1S/C8H12O/c1-4-6-5-2-3-8(6,9)7(4)5/h4-7,9H,2-3H2,1H3/t4-,5-,6-,7+,8-
