20
gdb 99643	2.35869	1.15153	0.84457	1.3556	82.11	-0.231	0.0407	0.2716	1390.9869	0.168488	-403.070889	-403.060801	-403.059857	-403.106134	36.98	
C	-0.5542718938	 1.2924784966	 0.014900329	-0.318696
N	-0.0035787578	-0.0528863521	 0.0693741029	-0.087178
C	 1.3928823559	-0.2331518283	-0.3071182197	-0.253801
C	 0.9572015511	-0.4350733326	 1.1030340811	 0.014844
C	 1.4243413127	 0.5031733257	 2.2137936154	-0.223546
C	 0.4270503465	 0.508737662	 3.4001677574	-0.062481
O	 0.8379305987	 1.3558427989	 4.4483661427	-0.421394
C	 2.7473695713	 0.1063171838	 2.6946504592	 0.303988
C	 3.8090878861	-0.2380043898	 3.1442613916	-0.44849
H	 0.160819579	 2.0970322108	 0.2489536062	 0.104416
H	-0.9291673918	 1.4693573193	-0.9980969467	 0.126934
H	-1.4011114111	 1.3709220082	 0.7041772685	 0.127632
H	 1.6159038387	-1.0801798644	-0.9504971754	 0.117539
H	 1.9839943176	 0.6600670816	-0.5112974398	 0.108136
H	 0.8196464745	-1.4581705824	 1.4513546631	 0.099669
H	 1.4928434655	 1.5298448458	 1.8367450763	 0.112958
H	-0.5392548382	 0.8867137883	 3.0540168687	 0.116772
H	 0.2799148457	-0.5281741268	 3.7416743041	 0.095242
H	 1.7165585125	 1.0635933683	 4.7203745112	 0.286193
H	 4.7609101669	-0.5353808329	 3.5101267044	 0.201264
56.5898	103.4138	117.6938	160.6165	195.9622	211.5387	266.9475	335.5713	373.3471	409.0797	419.0989	482.2369	528.4799	581.0358	632.1005	653.5787	751.7421	834.5825	886.4375	922.3691	1019.2183	1031.0459	1052.3132	1085.0675	1105.2631	1117.2884	1131.5106	1158.4719	1178.3724	1203.6086	1208.234	1249.1083	1327.4656	1340.886	1385.0865	1417.6581	1425.7236	1451.5939	1488.3171	1502.5846	1505.6529	1515.2563	2225.8113	2973.1225	2981.0494	3049.1498	3067.2097	3083.59	3089.4741	3102.2809	3109.5151	3172.9921	3501.8069	3779.7057
CN1CC1C(CO)C#C	CN1C[C@H]1[C@@H](CO)C#C	
InChI=1S/C7H11NO/c1-3-6(5-9)7-4-8(7)2/h1,6-7,9H,4-5H2,2H3	InChI=1S/C7H11NO/c1-3-6(5-9)7-4-8(7)2/h1,6-7,9H,4-5H2,2H3/t6-,7+,8?/m1/s1
