17
gdb 104937	2.85059	0.86092	0.71473	6.1475	88.58	-0.2667	-0.0418	0.2249	1564.5844	0.135382	-380.835239	-380.825957	-380.825012	-380.869965	33.25	
C	 0.1740486012	 1.4583114331	-0.2765328911	-0.382684
C	-0.1493403425	 0.0135830902	 0.1188567168	-0.263841
C	 0.6829927882	-0.4926623746	 1.292966698	 0.038257
C	 1.0859677623	-1.9353392815	 1.3377474881	-0.267198
N	 2.0913615287	-0.9080011785	 1.0625487528	-0.319938
C	 0.465101355	 0.1921275432	 2.5406155538	 0.147121
C	 0.2378393579	 0.7673090399	 3.5796904491	 0.073149
C	-0.0112582181	 1.4121783418	 4.7561063187	 0.19493
N	-0.2273202378	 1.9617386801	 5.7569806251	-0.337702
H	 1.2250176507	 1.5675620362	-0.5630623504	 0.123583
H	-0.4410232738	 1.7718785394	-1.1244833994	 0.124225
H	-0.0184099939	 2.145120449	 0.5527754265	 0.139991
H	-1.211523103	-0.0752809391	 0.3745069449	 0.121865
H	 0.0252104498	-0.6594100794	-0.7296624386	 0.101637
H	 1.1913423082	-2.4321841527	 2.2969091287	 0.140033
H	 0.7296284002	-2.5662366259	 0.5273321111	 0.126005
H	 2.282455787	-0.8590571512	 0.0634912659	 0.240567
66.1995	93.1382	110.7838	199.4104	217.142	255.6005	259.4026	334.6386	419.7764	512.2595	542.6633	565.7896	600.033	603.9336	768.368	826.7539	840.3067	921.2059	971.3603	990.4218	1030.9991	1094.144	1101.9509	1126.0576	1151.5647	1246.042	1277.984	1301.2454	1363.5131	1393.6904	1416.2846	1477.1818	1497.7492	1504.6781	1506.3688	2262.435	2394.5372	3028.5848	3042.634	3068.3158	3112.4462	3113.0003	3120.4804	3206.448	3488.2912
CCC1(CN1)C#CC#N	CC[C@]1(CN1)C#CC#N	
InChI=1S/C7H8N2/c1-2-7(6-9-7)4-3-5-8/h9H,2,6H2,1H3	InChI=1S/C7H8N2/c1-2-7(6-9-7)4-3-5-8/h9H,2,6H2,1H3/t7-/m1/s1
