14
gdb 50893	5.00373	0.69365	0.66002	2.8689	67.06	-0.2883	-0.0141	0.2741	1626.0921	0.100308	-470.051203	-470.042062	-470.041118	-470.086975	30.554	
N	-0.2564788597	 1.2529883369	 0.1430308663	-0.422071
C	-0.1338099314	 0.0380413312	-0.1506912315	 0.122623
O	-1.090538726	-0.8310511764	 0.3180547823	-0.230537
C	-0.941471436	-2.1582287122	 0.0039716298	 0.558966
O	-0.0392162177	-2.6294749548	-0.6433972863	-0.391589
N	-1.9709394415	-2.8503577625	 0.5631719649	-0.36312
C	-2.1270820923	-4.2682344181	 0.327516466	-0.286946
C	-3.3005072687	-4.5835312421	-0.5011138242	 0.260019
N	-4.2367253369	-4.8275038339	-1.1316198111	-0.288895
H	 0.5094651967	 1.7871871029	-0.2640271518	 0.243452
H	 0.6347793886	-0.4628256743	-0.7392858439	 0.150378
H	-2.6995116626	-2.3285906145	 1.0238547592	 0.279175
H	-1.2202161004	-4.6099752154	-0.1794800723	 0.201017
H	-2.210247132	-4.8155954268	 1.2733203127	 0.167527
33.6074	57.445	119.1114	125.846	178.0754	246.5922	315.5008	369.6896	411.9121	488.9589	522.6131	618.8183	754.7513	772.2254	848.6166	923.3254	942.0699	1018.6202	1068.2999	1069.33	1165.9238	1235.163	1268.3954	1285.1873	1381.4097	1388.1905	1462.6481	1538.0213	1753.7068	1836.8141	2367.242	3047.7519	3109.9576	3142.0452	3515.0887	3647.2303
N=COC(=O)NCC#N	[NH][CH]OC(=O)NCC#N	
InChI=1S/C4H5N3O2/c5-1-2-7-4(8)9-3-6/h3,6H,2H2,(H,7,8)	InChI=1S/C4H5N3O2/c5-1-2-7-4(8)9-3-6/h3,6H,2H2,(H,7,8)
