20
gdb 11466	3.44314	1.46023	1.3541	1.6958	71.09	-0.2406	0.0707	0.3114	1035.5301	0.17708	-386.149921	-386.141311	-386.140367	-386.183313	31.798	
C	-0.5823766056	 1.0945719857	 0.0002289723	-0.381943
C	-0.0314253763	-0.3244544721	-0.1543257012	-0.177829
C	 0.9572813676	-0.4585557663	-1.3130744047	 0.152685
C	 1.4642063429	-1.9009836439	-1.5478998707	-0.268678
C	 0.6295950549	-2.3882590699	-2.7349248631	 0.117409
O	-0.5897701915	-2.9067184088	-2.2163076516	-0.431877
C	 0.4373178813	-1.0818944377	-3.5088695482	-0.091064
O	 0.3076966565	-0.0624731446	-2.5362333357	-0.272
H	 0.2207939829	 1.8123393727	 0.2045470563	 0.106448
H	-1.0876073208	 1.4113064935	-0.9158621928	 0.132109
H	-1.2986207277	 1.1527105918	 0.8255778439	 0.105629
H	 0.480275227	-0.6308774524	 0.7676030191	 0.085668
H	-0.8451815802	-1.0380143767	-0.3227844527	 0.11466
H	 1.8035822254	 0.2241142181	-1.1462007413	 0.064118
H	 2.5247138707	-1.9060839651	-1.8150557884	 0.101099
H	 1.3253722496	-2.5469131217	-0.6787541803	 0.118133
H	 1.1513502263	-3.1466818769	-3.3355851746	 0.064836
H	-1.2056085353	-3.0187441943	-2.9473609779	 0.282531
H	 1.3057874859	-0.9028417342	-4.1656990268	 0.084711
H	-0.4630387635	-1.0842264871	-4.1357152615	 0.093356
54.5663	109.2292	151.0617	220.3627	237.0388	281.5627	389.8067	390.2313	403.2168	443.3931	712.6863	769.5882	794.9098	814.7382	868.9176	895.4707	936.9267	970.0488	989.831	1025.9747	1050.1505	1063.1087	1105.9295	1130.6533	1167.3351	1194.0523	1211.6279	1258.6945	1292.0875	1308.7921	1326.1383	1346.2026	1355.6446	1391.8728	1404.4999	1409.0142	1419.0578	1479.117	1483.2389	1497.1343	1509.6121	1510.9355	2956.7418	2986.0274	3004.1466	3023.2182	3032.3183	3045.1491	3067.851	3076.8307	3098.7865	3121.6205	3122.7769	3819.3383
CCC1CC(O)CO1	CC[C@H]1C[C@@H](O)CO1	
InChI=1S/C6H12O2/c1-2-6-3-5(7)4-8-6/h5-7H,2-4H2,1H3	InChI=1S/C6H12O2/c1-2-6-3-5(7)4-8-6/h5-7H,2-4H2,1H3/t5-,6+/m1/s1
