17
gdb 66784	3.33163	2.02726	1.74569	1.3632	72.42	-0.2325	0.0737	0.3062	824.3666	0.138028	-384.619224	-384.613314	-384.61237	-384.648965	26.421	
O	-0.0612578059	 1.3127293479	 0.0796372076	-0.48582
C	 0.0156295357	-0.0712989879	 0.0116592284	 0.404983
C	 1.0821425582	-0.8554745524	 0.7861665857	-0.152805
C	 1.4080786226	-2.1316110043	 0.0446402401	-0.090907
C	 0.4957274223	-2.1655313949	 1.2604701318	-0.080724
C	-0.7591394977	-2.2734996777	 0.3495769616	-0.073852
C	-1.2672481366	-0.8590903441	-0.0204279796	-0.121725
C	-0.353284326	-0.8318086936	-1.249560748	-0.16639
C	 0.1825333067	-2.2417858615	-0.9086214288	-0.075164
H	 0.6386388746	 1.6786145594	-0.4720495845	 0.28376
H	 1.8303037738	-0.3378857562	 1.3720480053	 0.084205
H	 2.4065647661	-2.5282264534	-0.0939173632	 0.081057
H	 0.6534434337	-2.5899358222	 2.244313595	 0.082808
H	-1.4688245298	-3.0840875045	 0.4950042318	 0.069282
H	-2.2424664627	-0.4126196094	 0.130327513	 0.089999
H	-0.5031734538	-0.3633344262	-2.215427677	 0.081886
H	 0.1468312988	-3.033153289	-1.6533706593	 0.069404
268.5937	316.6684	352.684	558.2274	570.018	575.7486	691.719	701.1614	755.9983	763.6962	796.3337	812.7362	843.8484	881.9921	891.4539	902.7146	914.6172	935.6318	946.3001	967.2616	998.6673	1012.1921	1038.1044	1048.8095	1062.9157	1092.9303	1154.6144	1179.5869	1182.4061	1204.0852	1223.3294	1253.253	1271.1645	1301.9451	1316.3011	1345.0401	1433.5006	3139.9606	3148.4965	3175.1838	3177.3592	3186.2324	3191.4917	3207.7473	3794.5435
OC12C3C4C3C3C1C2C43	O[C@@]12[C@@H]3[C@H]4[C@@H]3[C@H]3[C@@H]1[C@@H]2[C@@H]43	
InChI=1S/C8H8O/c9-8-5-1-2(5)4-3(1)6(8)7(4)8/h1-7,9H	InChI=1S/C8H8O/c9-8-5-1-2(5)4-3(1)6(8)7(4)8/h1-7,9H/t1-,2+,3-,4+,5+,6-,7+,8+
