21
gdb 81420	2.31648	1.96319	1.46986	1.3879	80.91	-0.2461	0.0778	0.3239	995.7701	0.184663	-387.055099	-387.047496	-387.046551	-387.086392	32.327	
C	 0.0269039641	 1.4742040969	 0.0036059292	-0.492315
C	 0.0230028275	-0.0372751672	-0.0042466484	 0.353445
C	-0.832592192	-0.8003614843	 0.9780708292	-0.365142
C	 0.6707833123	-0.9415054069	 1.0478593471	-0.101227
C	 1.3872168311	-1.9658105117	 0.1433922536	-0.089291
C	 0.3615393943	-2.269200448	-0.9799808335	-0.249115
C	 0.5115486124	-0.757277979	-1.2844264064	-0.136815
C	 2.0314879177	-1.0005617779	-0.9181760101	 0.181139
O	 2.8799803261	 0.0382516694	-0.5269774738	-0.444907
H	 0.9485719643	 1.8790699761	-0.4286537937	 0.12478
H	-0.8070723121	 1.8702344125	-0.588399486	 0.12011
H	-0.078351493	 1.8699234397	 1.0195572619	 0.11223
H	-1.2716747414	-0.1925730156	 1.7643877971	 0.104494
H	-1.4674399479	-1.6262761701	 0.6815392773	 0.1123
H	 1.1919467567	-0.5536770947	 1.9179926798	 0.083211
H	 1.9590927901	-2.7558047045	 0.6308543546	 0.06134
H	 0.796376934	-2.8889239606	-1.7668239702	 0.100192
H	-0.617311452	-2.66546134	-0.7172349127	 0.099552
H	 0.2093194469	-0.3279224717	-2.2405367636	 0.057651
H	 2.5583128267	-1.5393072084	-1.7098010374	 0.08176
H	 2.4953641342	 0.4575827459	 0.249943646	 0.286606
196.0707	214.3376	231.4048	318.4346	343.7882	402.8554	435.9826	475.31	515.4253	594.2281	647.0235	734.2567	758.4544	797.2192	812.6172	821.0402	889.8322	910.8826	939.303	970.0385	988.455	1019.2539	1025.121	1042.1658	1060.3911	1070.2239	1084.9964	1118.8591	1136.1786	1147.9784	1181.7303	1218.064	1231.8679	1244.9369	1268.7628	1275.9583	1308.3701	1314.8104	1382.2101	1417.1794	1448.7691	1487.386	1490.9954	1513.1324	1541.2429	3020.9435	3078.4792	3080.9623	3088.7073	3095.3233	3106.9478	3113.7376	3127.5266	3145.9753	3151.5818	3207.8307	3812.2473
CC12CC1C1CC2C1O	C[C@]12C[C@H]1[C@H]1C[C@@H]2[C@H]1O	
InChI=1S/C8H12O/c1-8-3-6(8)4-2-5(8)7(4)9/h4-7,9H,2-3H2,1H3	InChI=1S/C8H12O/c1-8-3-6(8)4-2-5(8)7(4)9/h4-7,9H,2-3H2,1H3/t4-,5-,6+,7+,8-/m1/s1
