17
gdb 16541	3.1352	2.1836	1.52467	3.663	69.29	-0.2355	0.0331	0.2686	865.6111	0.143245	-363.871835	-363.864397	-363.863452	-363.903674	27.357	
C	-0.051998422	 1.3917209473	-0.1210897564	-0.349815
N	-0.035321912	-0.0295784321	 0.1169702338	-0.062212
C	-1.0963225149	-1.0348289988	 0.0692576862	 0.004116
C	-1.5464036277	-1.4463674846	-1.3633987002	-0.237344
C	-0.4121665509	-2.5147846235	-1.4110264527	-0.228258
C	 0.0278172349	-2.1215004736	 0.0349710131	-0.187106
C	 1.0074504703	-0.9324907513	 0.0458825804	 0.399805
O	 2.1984390588	-0.7741127546	-0.0357853502	-0.378326
H	 0.9856426433	 1.7313302496	-0.1676495192	 0.16138
H	-0.5456707581	 1.639192582	-1.0701543724	 0.124776
H	-0.5642908961	 1.9277253849	 0.6859361177	 0.128548
H	-1.8494310022	-0.948910655	 0.8549452955	 0.081401
H	-2.5478480699	-1.8827214454	-1.3866905873	 0.108766
H	-1.5004206537	-0.6483821024	-2.1086305503	 0.106159
H	-0.7902161728	-3.5366245561	-1.4766069242	 0.112022
H	 0.3561217987	-2.3833952464	-2.1756778841	 0.120356
H	 0.1556924342	-2.9020186898	 0.7819808005	 0.095732
116.4671	130.061	153.6213	215.3278	244.7898	403.2473	474.6452	662.637	680.6928	719.4185	803.3346	837.6508	850.3818	864.0016	951.9582	962.7463	990.6371	1036.6116	1082.8597	1112.8191	1143.8121	1154.3676	1185.3456	1217.2241	1235.9853	1268.2559	1279.1443	1291.8147	1310.223	1401.2991	1445.4363	1473.2667	1484.2091	1494.2416	1514.2747	1869.1422	3011.1351	3062.737	3066.9197	3075.0338	3089.4908	3110.0102	3127.7577	3128.8216	3143.6131
CN1C2CCC2C1=O	CN1[C@H]2CC[C@H]2C1=O	
InChI=1S/C6H9NO/c1-7-5-3-2-4(5)6(7)8/h4-5H,2-3H2,1H3	InChI=1S/C6H9NO/c1-7-5-3-2-4(5)6(7)8/h4-5H,2-3H2,1H3/t4-,5+/m1/s1
