23
gdb 59723	2.28206	1.37784	0.90387	1.3841	88.32	-0.2231	0.0338	0.257	1349.0959	0.205225	-388.31446	-388.304567	-388.303623	-388.348963	37.648	
C	 0.5117409475	-0.5077617374	-1.5850834585	-0.402641
C	-0.1102579279	 0.1200164258	-0.3351297042	 0.118818
O	-0.0137200789	 1.5428391143	-0.4038237815	-0.429862
C	-1.5574767505	-0.3492978436	-0.089747314	-0.083536
C	-1.6807910173	-1.8940868484	 0.015191545	-0.227108
C	-2.8053334713	-2.1624842621	 1.0414689474	-0.263609
C	-2.8748084141	-0.8627118825	 1.7986849591	-0.166696
C	-2.2106960483	 0.1321381602	 1.2042426545	 0.334645
C	-2.174663962	 1.5563119029	 1.6695805664	-0.483287
H	 1.5152067039	-0.1025867189	-1.7406672566	 0.122147
H	 0.5843656795	-1.5959390213	-1.5071969913	 0.12144
H	-0.0916359739	-0.2766820182	-2.4727577132	 0.103346
H	 0.4927213505	-0.15045442	 0.5413245128	 0.087496
H	-0.4980971889	 1.8291148596	-1.1863618118	 0.273621
H	-2.1526347831	 0.0215654227	-0.9442386815	 0.05611
H	-1.8569614025	-2.3727277383	-0.9512755094	 0.095414
H	-0.7388616195	-2.2968749819	 0.4064462505	 0.102302
H	-3.7642957687	-2.3791410308	 0.548244158	 0.101016
H	-2.5903094904	-3.0276529974	 1.6795384714	 0.098792
H	-3.4567650243	-0.7470113945	 2.7078993449	 0.08013
H	-2.7495925119	 1.6777006629	 2.592420653	 0.107916
H	-1.1523719058	 1.9057032665	 1.8375752085	 0.142466
H	-2.598758312	 2.2293429403	 0.9133644206	 0.11108
63.3618	113.6879	176.4192	206.0016	236.1706	250.8292	277.8491	294.7594	314.9477	359.0888	430.9383	470.4802	557.8892	589.6539	667.3185	798.0127	838.8655	871.7433	898.2373	935.783	952.821	980.8287	989.7971	1041.8238	1054.0754	1063.7181	1080.4137	1103.6422	1147.9304	1171.3192	1197.8331	1240.3137	1249.1508	1272.6554	1318.4664	1322.8653	1336.3607	1356.0765	1377.5424	1402.4315	1418.3978	1419.3275	1476.3526	1482.791	1484.5089	1492.6789	1494.8708	1502.6854	1715.2932	2931.6101	2998.7909	3021.7809	3024.1273	3031.3632	3034.5283	3050.593	3082.9641	3096.1369	3098.163	3116.6479	3123.9112	3177.7135	3795.9774
CC(O)C1CCC=C1C	C[C@@H](O)[C@H]1CCC=C1C	
InChI=1S/C8H14O/c1-6-4-3-5-8(6)7(2)9/h4,7-9H,3,5H2,1-2H3	InChI=1S/C8H14O/c1-6-4-3-5-8(6)7(2)9/h4,7-9H,3,5H2,1-2H3/t7-,8+/m1/s1
