18
gdb 72445	2.41775	2.24821	1.56022	2.6524	69.62	-0.2388	0.0735	0.3123	902.9016	0.149688	-439.058594	-439.051688	-439.050744	-439.089438	28.6	
C	-0.0151881866	 1.4734006297	 0.082513725	-0.494404
C	-0.0184325522	-0.0297052641	-0.0193406919	 0.352924
C	 0.7932484322	-0.6910851875	-1.1685166573	-0.107186
O	 1.0831416556	-1.9964555437	-0.6368548075	-0.279038
C	 0.5087912532	-1.9691960088	 0.6770415313	 0.183627
O	 0.6540140429	-0.6381711049	 1.1010153291	-0.259333
C	-1.0038277869	-2.1211977105	 0.4715899213	-0.08217
N	-1.7996512315	-1.2089640469	 1.320709172	-0.340525
C	-1.3665887382	-0.7736169403	-0.0220653516	-0.098519
H	 1.0079920407	 1.852674407	 0.1569558569	 0.131127
H	-0.4863020253	 1.9182879593	-0.7997076952	 0.118987
H	-0.5715307636	 1.7895781654	 0.9686460481	 0.145584
H	 0.225454293	-0.7791608548	-2.1015453394	 0.098796
H	 1.7297101933	-0.1547077647	-1.3605000568	 0.104495
H	 1.0373481233	-2.6606961725	 1.3310857363	 0.095137
H	-1.4184175521	-3.0389259217	 0.0735171197	 0.102025
H	-2.7755297033	-1.4932772788	 1.2588077336	 0.233395
H	-2.0839332046	-0.6067865522	-0.8176090135	 0.095079
209.039	212.3087	276.7264	319.5373	352.2548	409.6731	509.5079	620.8324	640.7858	669.5747	786.6671	823.4091	860.1917	876.9333	889.1589	894.1205	912.971	926.8916	970.0927	994.4414	1012.8532	1063.835	1088.8973	1104.4124	1137.9504	1169.2962	1189.8806	1224.2727	1239.6435	1255.6685	1289.3659	1339.1473	1348.6641	1361.7782	1411.5865	1425.8199	1482.5991	1495.5938	1516.4755	3025.8645	3044.1637	3072.2675	3114.4412	3126.7154	3142.6694	3177.185	3197.7578	3491.5381
CC12COC(O1)C1NC21	C[C@@]12CO[C@@H](O1)[C@H]1N[C@@H]21	
InChI=1S/C6H9NO2/c1-6-2-8-5(9-6)3-4(6)7-3/h3-5,7H,2H2,1H3	InChI=1S/C6H9NO2/c1-6-2-8-5(9-6)3-4(6)7-3/h3-5,7H,2H2,1H3/t3-,4+,5-,6-/m0/s1
