23
gdb 86292	1.76896	1.56369	1.08215	2.7531	86.42	-0.2429	-0.02	0.2229	1270.2026	0.203388	-388.305718	-388.295424	-388.29448	-388.340593	38.498	
C	-1.3201456688	 0.5823601781	-1.3060776438	-0.418471
C	-0.1013225441	-0.2478312237	-0.9347223029	 0.004131
C	 1.314503752	 0.237206179	-1.332525218	-0.256437
C	 1.8495149945	-0.3523004041	-0.0042262156	 0.004116
C	 2.9720099282	 0.3525219833	 0.7413394308	-0.418459
C	 0.3773140829	-0.3244816113	 0.569212201	 0.193499
C	 0.0343374836	 0.8898327328	 1.4245957263	-0.454743
C	-0.0183924184	-1.6071803865	 1.2550896523	 0.113966
O	-0.5395787767	-1.698054375	 2.3380337533	-0.258086
H	-1.2242604624	 1.6190507401	-0.9693688264	 0.11857
H	-1.4495305544	 0.5989401124	-2.3939961853	 0.118185
H	-2.2369559983	 0.1709966949	-0.869837583	 0.122006
H	-0.2400589371	-1.2734939698	-1.3000355016	 0.073788
H	 1.7402546719	-0.1372955879	-2.2672429922	 0.096007
H	 1.37643896	 1.331071458	-1.339496902	 0.099152
H	 2.1302837354	-1.4004134091	-0.1694642862	 0.073796
H	 2.741326104	 1.4067914833	 0.9218888843	 0.118568
H	 3.1710535982	-0.118426174	 1.7101793426	 0.122015
H	 3.898065861	 0.3122932486	 0.1570597562	 0.118184
H	 0.3174341	 1.8262373993	 0.9364869852	 0.110614
H	-1.0384150027	 0.9230984075	 1.6325075402	 0.128369
H	 0.5468252803	 0.8380968707	 2.3888616008	 0.128379
H	 0.216996601	-2.5228739267	 0.6586381541	 0.062851
62.7103	102.5097	205.117	206.8597	224.561	229.7564	234.8896	264.8157	280.8849	308.9936	422.5894	464.8206	480.8778	486.4569	622.592	751.5938	756.7465	866.9389	886.5867	914.9277	945.5664	968.7005	1011.9002	1014.7974	1046.0352	1091.8776	1135.5068	1151.1359	1164.2588	1187.7376	1205.4884	1251.9602	1262.3853	1276.5459	1332.4856	1357.0788	1390.6056	1409.0961	1409.2125	1414.7405	1435.2448	1481.3539	1483.9347	1495.0198	1495.2949	1499.5686	1501.9384	1505.8141	1819.3639	2829.7959	3016.041	3019.6499	3030.438	3030.6923	3044.5091	3049.3168	3093.1789	3093.369	3097.2269	3106.3605	3106.7776	3119.6084	3120.1334
CC1CC(C)C1(C)C=O	C[C@H]1C[C@@H](C)[C@]1(C)C=O	
InChI=1S/C8H14O/c1-6-4-7(2)8(6,3)5-9/h5-7H,4H2,1-3H3	InChI=1S/C8H14O/c1-6-4-7(2)8(6,3)5-9/h5-7H,4H2,1-3H3/t6-,7+,8+
