18
gdb 31012	3.49738	1.11372	0.87166	1.5459	76.93	-0.1724	0.055	0.2273	1319.4241	0.148123	-439.124616	-439.115573	-439.114628	-439.158217	33.876	
C	-0.3007154495	 1.5610983035	 0.3194601874	-0.500177
C	-0.1883020115	 0.11142211	-0.0111422705	 0.318543
C	-0.5296171195	-0.5943715779	-1.137093022	-0.354378
C	-0.2108955366	-1.9766858782	-0.9258673298	 0.107848
C	-0.4070430817	-3.1706281232	-1.8036459039	-0.201635
O	 0.6296364381	-4.1541736924	-1.5901623787	-0.422298
C	 0.3256959922	-2.0518227013	 0.3406127606	 0.321772
O	 0.8092283725	-3.1040146247	 1.0381604873	-0.442535
N	 0.3414075285	-0.8044985663	 0.8922599202	-0.366482
H	 0.6735582511	 2.021729947	 0.5311190192	 0.120514
H	-0.7391829155	 2.096981067	-0.5258125208	 0.134871
H	-0.9409127901	 1.7439012296	 1.1927171844	 0.122814
H	-0.9748875919	-0.1705484009	-2.0257835029	 0.086094
H	-1.3333961656	-3.7141648138	-1.5799161766	 0.12054
H	-0.4537564038	-2.8824036598	-2.8629776041	 0.105445
H	 1.4594111763	-3.7375895291	-1.851486315	 0.286844
H	 0.8383243875	-3.8366041364	 0.3984418002	 0.303031
H	 0.7208399695	-0.5934664331	 1.7993283449	 0.259188
88.252	127.1434	173.7691	200.3337	234.8317	279.2696	309.925	376.0791	438.5745	443.5765	481.9984	608.6654	630.553	672.7208	682.3608	723.2991	785.002	807.7646	970.7919	992.5581	1002.9541	1016.5619	1062.9822	1156.6509	1173.1571	1204.4513	1235.9398	1275.9175	1351.6162	1386.6315	1407.8801	1422.1301	1427.4436	1478.046	1498.3868	1509.0384	1570.8493	1585.0801	1657.7879	3004.9941	3006.4476	3042.0768	3045.3652	3118.3263	3233.4065	3650.0726	3675.3218	3791.4118
CC1=CC(CO)=C(O)N1	Cc1cc(CO)c(O)[nH]1	
InChI=1S/C6H9NO2/c1-4-2-5(3-8)6(9)7-4/h2,7-9H,3H2,1H3	InChI=1S/C6H9NO2/c1-4-2-5(3-8)6(9)7-4/h2,7-9H,3H2,1H3
