19
gdb 60027	2.13198	1.04044	0.83696	3.4263	77.84	-0.2567	-0.055	0.2018	1453.5147	0.156293	-419.214843	-419.2043	-419.203356	-419.251814	36.49	
C	-1.1299365453	 1.265466669	-1.0542605584	-0.392499
C	 0.0537875972	 0.5971640784	-0.3534769551	 0.05442
C	-0.4024623482	-0.2648070581	 0.8330613611	-0.392461
N	 0.8226629665	-0.1438605605	-1.373486895	-0.311707
C	 2.0698986653	-0.7748872577	-0.9471896388	-0.192194
C	 2.7397733531	-1.2793931481	-2.2458002184	 0.16703
O	 2.8337984409	-2.4423390599	-2.5181327935	-0.228459
C	 2.963251769	 0.1949958206	-0.3036533958	 0.29413
N	 3.6996137179	 0.9359996113	 0.1901595991	-0.317943
H	-0.7862262211	 1.8876296565	-1.884088754	 0.130641
H	-1.8233881937	 0.5149298816	-1.4534968768	 0.11265
H	-1.68948299	 1.8908557025	-0.3529913772	 0.123038
H	 0.7215743348	 1.3821314772	 0.0206661565	 0.115773
H	-1.0639774026	-1.0722054463	 0.4963153543	 0.112647
H	 0.4435031046	-0.714730986	 1.3616631972	 0.123026
H	-0.9552264679	 0.340277014	 1.5584407908	 0.125298
H	 0.2343781177	-0.8662228259	-1.7808648746	 0.230507
H	 1.9602045911	-1.6393017937	-0.2739959514	 0.128206
H	 3.0630478605	-0.4651924451	-2.9241066199	 0.117898
39.8364	43.488	88.8552	122.8155	210.7339	218.9048	230.6305	267.5356	296.3124	358.9213	428.1338	456.7023	476.1387	521.5467	611.3334	752.0766	841.8748	912.6807	928.6876	949.1126	959.2025	1018.3705	1042.8703	1115.9509	1143.0028	1186.4911	1190.856	1255.8693	1331.4872	1355.0648	1369.2065	1398.6425	1404.439	1419.124	1481.7854	1483.51	1489.8757	1507.6506	1515.5032	1844.7311	2359.239	2945.7142	2987.3725	3027.2093	3030.789	3046.5212	3095.9834	3103.8721	3108.4256	3128.4282	3501.3739
CC(C)NC(C=O)C#N	CC(C)N[C@@H](C=O)C#N	
InChI=1S/C6H10N2O/c1-5(2)8-6(3-7)4-9/h4-6,8H,1-2H3	InChI=1S/C6H10N2O/c1-5(2)8-6(3-7)4-9/h4-6,8H,1-2H3/t6-/m1/s1
