15
gdb 132899	3.07693	1.34031	0.93902	3.0181	72.72	-0.213	-0.0417	0.1713	1154.9415	0.112914	-461.984459	-461.976692	-461.975748	-462.016801	29.353	
C	-0.0298078939	 1.5259375205	 0.049035493	-0.492159
C	-0.0033002024	 0.0241355812	-0.0084644944	 0.21984
C	-0.0239995371	-0.6773802004	-1.1793520283	-0.343192
C	 0.0012190042	-2.1281187134	-1.2438378358	 0.439179
O	-0.0151438895	-2.8171222614	-2.2510974398	-0.403745
N	 0.0490895363	-2.7312118249	 0.0274042069	-0.37386
C	 0.0709766898	-2.062961829	 1.217148853	-0.075069
C	 0.0456941191	-0.7095403541	 1.2148353289	 0.149534
F	 0.0665041715	-0.032307415	 2.3731590516	-0.07945
H	 0.8553525931	 1.9113216883	 0.5660585515	 0.146623
H	-0.0649614336	 1.9553762814	-0.9536053339	 0.13491
H	-0.8996685197	 1.8784575691	 0.6133656676	 0.146646
H	-0.0610636304	-0.1664573366	-2.1341942347	 0.118137
H	 0.0674653026	-3.7410829072	 0.0127483685	 0.26492
H	 0.10811806	-2.6451196086	 2.1283161759	 0.147686
124.895	129.5932	198.7744	272.4402	349.9724	365.5236	415.2353	444.6792	519.5224	577.8256	597.6776	684.272	749.6684	751.3158	781.1739	867.6429	889.0289	905.31	1026.2029	1064.6977	1157.8346	1172.5609	1233.4323	1266.0411	1327.6077	1413.1265	1430.2291	1477.195	1482.0724	1500.7317	1586.0816	1697.2706	1783.0264	3041.682	3096.193	3137.827	3206.171	3224.2584	3614.9343
CC1=CC(=O)NC=C1F	Cc1cc(=O)[nH]cc1F	
InChI=1S/C6H6FNO/c1-4-2-6(9)8-3-5(4)7/h2-3H,1H3,(H,8,9)	InChI=1S/C6H6FNO/c1-4-2-6(9)8-3-5(4)7/h2-3H,1H3,(H,8,9)
