21
gdb 119199	1.84919	1.27468	0.88068	4.9076	84.78	-0.2328	0.0332	0.266	1425.2347	0.181151	-383.266697	-383.256379	-383.255435	-383.302366	37.453	
C	-0.0567562118	 1.5645699867	 0.092653798	-0.395861
C	-0.1107921418	 0.0710331969	 0.3951185096	-0.117146
N	-1.2187289174	-0.5590540796	-0.3214262833	-0.358405
C	-1.3497955776	-1.9754205863	-0.1422121367	 0.174073
C	-1.6988215554	-2.6165637295	 1.2106831189	-0.323468
C	-2.7105271346	-2.6170418786	 0.1001189266	-0.042036
C	-3.9749047314	-1.7898849707	 0.1782574936	-0.425086
C	-0.43298749	-2.7358702896	-0.9705167248	 0.284631
N	 0.3073129819	-3.3486057328	-1.61468173	-0.355824
H	 0.787142747	 2.0314480004	 0.6082901511	 0.121553
H	 0.0498588538	 1.7377863369	-0.9816879751	 0.134402
H	-0.9700701423	 2.0701139119	 0.4286576762	 0.110317
H	 0.8157315688	-0.4097365609	 0.0595874567	 0.126078
H	-0.1690131198	-0.0914987553	 1.4861636278	 0.082056
H	-2.0926458517	-0.0814676488	-0.1442038517	 0.222984
H	-1.211948637	-3.5442491151	 1.487776255	 0.13517
H	-1.8524002722	-1.9176379896	 2.0266964703	 0.12172
H	-2.8397079256	-3.5655475146	-0.4124565705	 0.11671
H	-3.8425718002	-0.8846060834	 0.7788703684	 0.11728
H	-4.3259991713	-1.4952250498	-0.8161134828	 0.136583
H	-4.7699254315	-2.3727658281	 0.6544099728	 0.13427
62.6012	74.4474	130.22	144.7869	171.4423	208.6475	248.5332	292.7525	332.3405	377.9471	413.2588	485.0123	572.7739	595.8945	617.5247	715.7193	797.0901	818.631	894.8856	901.8371	935.3909	946.7044	1025.5129	1049.4141	1065.1484	1089.0831	1134.9556	1151.3399	1174.5632	1192.9496	1249.1368	1293.1613	1323.6776	1383.6544	1402.5644	1414.7355	1419.7231	1472.7065	1480.2578	1494.7754	1497.9768	1499.0773	1509.9785	1525.1682	2348.0869	2942.8721	3032.4468	3035.0835	3051.9531	3100.6562	3101.0353	3104.0388	3124.4495	3133.9394	3157.5437	3227.318	3568.7948
CCNC1(CC1C)C#N	CCN[C@]1(C[C@H]1C)C#N	
InChI=1S/C7H12N2/c1-3-9-7(5-8)4-6(7)2/h6,9H,3-4H2,1-2H3	InChI=1S/C7H12N2/c1-3-9-7(5-8)4-6(7)2/h6,9H,3-4H2,1-2H3/t6-,7-/m1/s1
