19
gdb 6374	3.75899	1.09387	1.02829	3.5179	69.06	-0.2315	-0.0273	0.2043	1229.2854	0.162793	-402.19432	-402.184784	-402.18384	-402.22897	33.707	
C	 0.5818352245	 0.7409840271	-0.6273467663	-0.324533
N	-0.2996811436	-0.2331006276	 0.0043155465	-0.060325
C	 0.2696804123	-0.7416789095	 1.2443349455	-0.315845
C	-1.6434766843	 0.2929092022	 0.1812290169	-0.24618
C	-2.4502655848	 0.324169392	-1.1104032769	 0.343389
O	-3.2746909576	 1.1859947191	-1.3307942017	-0.320484
C	-2.2663441325	-0.8069496513	-2.112143068	-0.124684
O	-3.1471855206	-0.6709048684	-3.1883328598	-0.423736
H	 1.5523376667	 0.2804548481	-0.8339519072	 0.125953
H	 0.1576687423	 1.0758172031	-1.5790350102	 0.127063
H	 0.7506254776	 1.6356644421	 0.0004649719	 0.102274
H	 0.4033794419	 0.0390734831	 2.0161878118	 0.099294
H	-0.3746681815	-1.5233324185	 1.6578569811	 0.121997
H	 1.2501577432	-1.1827641342	 1.0406677899	 0.124431
H	-2.192579431	-0.3766448579	 0.8572520935	 0.129364
H	-1.6793874491	 1.3002282222	 0.6325772685	 0.108974
H	-1.2187520941	-0.820091341	-2.4456112743	 0.127715
H	-2.4178646499	-1.760304822	-1.5783218618	 0.113822
H	-3.6599663493	 0.1300983916	-2.9935591993	 0.291512
61.733	76.1988	116.6331	159.1503	244.3554	247.6763	303.8695	347.6508	380.952	391.4946	410.0218	474.1998	525.6096	655.6594	805.7105	842.0516	901.166	1042.6078	1066.6601	1068.2149	1118.4281	1123.5451	1159.9239	1191.83	1200.8477	1241.4388	1302.6384	1307.1773	1313.9726	1372.2489	1446.4651	1452.5179	1458.5978	1475.7859	1480.9886	1483.9116	1498.5229	1500.3502	1513.514	1797.0825	2934.4481	2940.7911	2955.4698	2977.1145	3019.7739	3039.1346	3064.0215	3066.3725	3107.5581	3110.9064	3680.7752
CN(C)CC(=O)CO	CN(C)CC(=O)CO	
InChI=1S/C5H11NO2/c1-6(2)3-5(8)4-7/h7H,3-4H2,1-2H3	InChI=1S/C5H11NO2/c1-6(2)3-5(8)4-7/h7H,3-4H2,1-2H3
