23
gdb 93853	1.78063	1.63111	1.56875	1.6324	80.64	-0.2406	0.0676	0.3082	1112.4046	0.204424	-425.437909	-425.427887	-425.426943	-425.472027	38.543	
C	 0.7846412693	 1.3798568667	-0.4569945811	-0.417745
C	 0.063471621	 0.178808907	 0.1553959736	 0.123564
O	-0.0836559383	-0.8625330907	-0.8218479253	-0.279833
C	 0.8774732949	-1.887312738	-0.6042460565	-0.097113
C	 1.6913568194	-1.5094670844	 0.6461972935	 0.071872
O	 2.9153438974	-0.8554472873	 0.3234433953	-0.436602
C	 0.7548279717	-0.5095998931	 1.3658621577	 0.260214
C	 1.490529372	 0.4432712431	 2.311940944	-0.44725
C	-0.3085009616	-1.3019953618	 2.1522566515	-0.438508
H	 1.8180259307	 1.1317331811	-0.707691778	 0.133469
H	 0.2620083119	 1.681334387	-1.3693371126	 0.115162
H	 0.7859140608	 2.2320443438	 0.2302483052	 0.107358
H	-0.9540630219	 0.4829556103	 0.4328288577	 0.06971
H	 0.3568147026	-2.8454270367	-0.4710036909	 0.09577
H	 1.5367002571	-1.9832664268	-1.4790740461	 0.084931
H	 1.8934715291	-2.3887710502	 1.2742091119	 0.062976
H	 3.4470331952	-1.4613430289	-0.2015587953	 0.283448
H	 2.3014197691	 0.9706376525	 1.8103306671	 0.139124
H	 0.7946669384	 1.1813040071	 2.7258745135	 0.107604
H	 1.921444407	-0.1101516954	 3.1532044869	 0.108875
H	 0.154886003	-1.9303563887	 2.920223721	 0.109373
H	-0.9965518837	-0.6152225333	 2.6559201696	 0.115761
H	-0.9036984652	-1.9432212034	 1.4957608975	 0.127841
65.9938	142.6267	220.0125	222.9727	254.3314	260.1708	266.6796	281.3244	316.7507	347.1493	403.1508	431.1671	440.0849	514.5722	611.5118	727.7184	777.8032	853.9544	861.8496	924.4007	943.6199	961.232	1006.4809	1013.496	1039.2524	1064.0427	1107.0354	1119.6861	1131.0518	1177.5103	1220.8374	1230.1739	1248.2454	1273.9462	1318.7421	1347.3726	1373.8511	1388.7712	1402.3501	1403.1347	1413.2319	1435.9173	1482.8255	1487.6164	1493.8944	1504.5609	1508.6039	1514.1681	1521.3377	2989.0835	2999.6095	3017.5645	3027.3537	3031.6727	3038.1917	3044.0225	3091.2763	3099.169	3109.5692	3112.8279	3139.5378	3151.2523	3823.3639
CC1OCC(O)C1(C)C	C[C@H]1OC[C@@H](O)C1(C)C	
InChI=1S/C7H14O2/c1-5-7(2,3)6(8)4-9-5/h5-6,8H,4H2,1-3H3	InChI=1S/C7H14O2/c1-5-7(2,3)6(8)4-9-5/h5-6,8H,4H2,1-3H3/t5-,6-/m1/s1
