20
gdb 11562	5.58441	0.92898	0.84406	2.6943	71.71	-0.2635	0.076	0.3395	1362.7873	0.175187	-386.114355	-386.104921	-386.103977	-386.148962	33.58	
C	 0.0853693393	 1.5661979367	 0.0750158828	-0.38733
C	 0.0291494324	 0.0351422459	-0.0050325431	 0.035174
C	 0.695529571	-0.4753875658	-1.2838799219	-0.081393
O	-0.009010626	 0.0494501915	-2.3994181381	-0.422885
C	 0.6586163818	-0.647247946	 1.223154905	-0.227078
C	-0.0781803732	-0.3789083962	 2.5136117119	 0.094547
C	 0.5937976622	-0.3903762836	 3.8186344928	-0.183797
O	 0.2149236176	 0.841258966	 3.2027949347	-0.229946
H	 1.1236991498	 1.9104156975	 0.1562441333	 0.105912
H	-0.3484910093	 2.0060602861	-0.8254860932	 0.128077
H	-0.4518681014	 1.942498146	 0.9483884426	 0.131427
H	-1.0254277413	-0.2716464798	-0.0618322127	 0.08094
H	 1.7526850203	-0.1600389449	-1.2967840278	 0.082344
H	 0.681699844	-1.5778064754	-1.2941621039	 0.078493
H	 0.4646624344	-0.1964877311	-3.1988129768	 0.28645
H	 0.6770586759	-1.7349099857	 1.0652414129	 0.096192
H	 1.7004171446	-0.3232559956	 1.3423114985	 0.100527
H	-1.1429067059	-0.6231188135	 2.4973567041	 0.089329
H	 0.0378092529	-0.6570736672	 4.7165209383	 0.11237
H	 1.6661383511	-0.5779129547	 3.8661105507	 0.110647
57.607	84.867	114.9706	159.8181	237.1198	239.4245	275.8918	307.3744	344.5332	423.7839	454.1785	537.1651	790.5031	841.183	857.8475	910.5309	931.2741	944.1185	970.2418	1051.7718	1077.5729	1082.2678	1116.4529	1155.7155	1159.4393	1173.137	1182.4762	1229.5003	1262.203	1279.5022	1296.8833	1310.8161	1366.5238	1382.5074	1410.2806	1446.7511	1460.3905	1468.4681	1492.1453	1506.4106	1519.266	1532.0758	2952.232	2978.6954	3007.8189	3008.6429	3035.6275	3055.1562	3079.5635	3087.1281	3108.8555	3138.0501	3165.348	3836.0311
CC(CO)CC1CO1	C[C@@H](CO)C[C@H]1CO1	
InChI=1S/C6H12O2/c1-5(3-7)2-6-4-8-6/h5-7H,2-4H2,1H3	InChI=1S/C6H12O2/c1-5(3-7)2-6-4-8-6/h5-7H,2-4H2,1H3/t5-,6+/m1/s1
