14
gdb 130048	2.64984	1.48299	0.95269	7.2715	69.55	-0.2136	-0.0134	0.2003	1140.5978	0.102483	-466.216587	-466.208576	-466.207631	-466.249149	29.708	
N	 0.0334874901	 1.3456887479	 0.1596491202	-0.590836
C	-0.0092705307	-0.0241839375	 0.0332219449	 0.467518
N	-1.0826799328	-0.741087591	 0.0082591657	-0.288578
N	-0.6106217664	-2.0591446392	-0.0032296751	-0.102735
C	-1.4639309405	-3.153642528	-0.0264017163	 0.171875
O	-2.6646884755	-3.0811301976	-0.0265393673	-0.294145
C	 0.7919872915	-2.1298722828	-0.0000518094	 0.478947
N	 1.4797984734	-3.197961268	 0.013927909	-0.589786
N	 1.1510767064	-0.7755829752	-0.0214702087	-0.414946
H	 0.6741153038	 1.8072301462	-0.4735246013	 0.262628
H	-0.8932221384	 1.7497052924	 0.1101118362	 0.27863
H	-0.877637897	-4.085665089	-0.0453750719	 0.13062
H	 2.4786854615	-3.0124197781	 0.0027444172	 0.218783
H	 2.0677356846	-0.4451868402	 0.228196097	 0.272024
108.4006	165.6167	195.6916	233.391	310.2887	334.9596	374.086	400.2172	442.5726	607.5505	655.5268	664.7943	703.7341	719.881	725.1069	761.4959	893.6539	1024.8451	1035.2284	1059.7531	1148.0762	1161.836	1262.5377	1306.7995	1391.8221	1432.259	1518.3064	1627.0904	1715.8831	1762.7865	1824.2822	3028.9799	3534.1811	3542.4567	3640.7837	3669.7716
NC1=NN(C=O)C(=N)N1	NC1=NN(C=O)[C@@H]([NH])N1	
InChI=1S/C3H5N5O/c4-2-6-3(5)8(1-9)7-2/h1H,(H4,4,5,6,7)	InChI=1S/C3H6N5O/c4-2-6-3(5)8(1-9)7-2/h1,3,5H,(H3,4,6,7)/t3-/m0/s1
