17
gdb 10255	2.1775	2.02108	1.10096	3.8152	74.19	-0.2848	0.0134	0.2982	1069.7361	0.13956	-326.711852	-326.702639	-326.701695	-326.745538	33.205	
C	-0.0499516583	 1.5554465599	 0.0216937948	-0.404115
C	-0.0357412269	 0.0236003969	 0.013153489	 0.0322
C	-1.4575599362	-0.5482150774	 0.0308708367	-0.4105
C	 0.7598906304	-0.5043981328	-1.2292818816	-0.314444
C	 2.1368058018	-0.0082965529	-1.2789968163	 0.320832
C	 3.2637383244	 0.4041959074	-1.3089341553	-0.41664
C	 0.7604310771	-1.9766236288	-1.2740131004	 0.293233
N	 0.7434171103	-3.1313693255	-1.2988666372	-0.328926
H	 0.9611018888	 1.9690114498	 0.0248962188	 0.136191
H	-0.5765342808	 1.9473459676	-0.8567208004	 0.116916
H	-0.5723949558	 1.9202304307	 0.910782326	 0.122099
H	 0.5012950396	-0.3305334604	 0.9007332605	 0.105384
H	-2.0209829531	-0.2260269638	-0.8530758619	 0.117952
H	-1.458661358	-1.6409741292	 0.0544574077	 0.147219
H	-1.9946900887	-0.1899006323	 0.9137525566	 0.122059
H	 0.2291324918	-0.1594385281	-2.1289711706	 0.151868
H	 4.2629429737	 0.7635020989	-1.3419266865	 0.208672
63.168	137.0426	153.7784	177.2453	221.5788	251.1084	337.0021	353.4822	366.1293	415.5318	492.0998	541.5977	585.5321	644.9342	662.1656	815.6917	894.4626	936.5497	964.2165	980.409	1028.1673	1121.0873	1147.2133	1186.9527	1261.8444	1306.8669	1352.0881	1356.5027	1404.3128	1425.0512	1487.9108	1490.9054	1503.0702	1511.5699	2245.4948	2362.1379	3003.9067	3031.3631	3033.8338	3047.5074	3099.0367	3106.1595	3123.3742	3128.0591	3501.7541
CC(C)C(C#C)C#N	CC(C)[C@@H](C#C)C#N	
InChI=1S/C7H9N/c1-4-7(5-8)6(2)3/h1,6-7H,2-3H3	InChI=1S/C7H9N/c1-4-7(5-8)6(2)3/h1,6-7H,2-3H3/t7-/m0/s1
