19
gdb 13702	5.37483	0.86079	0.78863	1.5323	83.09	-0.2185	0.0398	0.2582	1503.8739	0.163973	-327.872951	-327.863581	-327.862637	-327.908244	32.921	
C	-0.0127228435	 1.6500110006	 0.0409585341	-0.363549
C	-0.0031394738	 0.1100979093	 0.0186714041	-0.3153
C	 0.6738170138	-0.4367459435	-1.1527831919	 0.053989
C	 1.2487961142	-0.8613880848	-2.1244570527	 0.096508
C	 1.890891262	-1.3556542933	-3.312654656	-0.174
C	 3.2342247131	-2.0216833475	-3.2271792834	-0.239132
N	 2.0590821349	-2.7998695288	-3.5733010372	-0.079344
C	 1.5688995163	-3.7393773907	-2.5735687811	-0.307848
H	 1.0068022208	 2.0447752951	 0.0458136516	 0.128839
H	-0.5240185675	 2.0478824221	-0.8397018214	 0.129137
H	-0.529033075	 2.0144331878	 0.9339973959	 0.114817
H	 0.4826819903	-0.2653204283	 0.9286255987	 0.1283
H	-1.0354510003	-0.2618306879	 0.0531242906	 0.128868
H	 1.664901844	-0.7917276185	-4.2153067761	 0.110291
H	 3.963554188	-1.8727533772	-4.0194618909	 0.116725
H	 3.6521161078	-2.1354173618	-2.2280972805	 0.113799
H	 1.6769211626	-3.3852911424	-1.537816007	 0.111577
H	 0.508905116	-3.9392186403	-2.7575536732	 0.125195
H	 2.1199429762	-4.6785062796	-2.6838432137	 0.121129
25.0193	81.5113	115.7741	159.2799	195.2658	228.7234	315.9018	332.8256	378.1791	489.4283	522.4725	561.1187	703.2108	760.3637	788.093	861.4468	934.1959	996.0237	1028.7465	1065.7722	1084.4608	1104.7547	1113.097	1127.4896	1161.0181	1199.9911	1208.2611	1285.2652	1321.6593	1348.3358	1378.592	1409.0486	1447.9481	1477.5683	1488.1876	1493.3846	1494.4654	1505.3387	1506.1914	2355.904	2994.4827	3017.5537	3044.3175	3044.912	3076.3489	3091.0729	3107.7767	3118.3233	3122.1039	3124.5879	3179.9401
CCC#CC1CN1C	CCC#C[C@H]1CN1C	
InChI=1S/C7H11N/c1-3-4-5-7-6-8(7)2/h7H,3,6H2,1-2H3	InChI=1S/C7H11N/c1-3-4-5-7-6-8(7)2/h7H,3,6H2,1-2H3/t7-,8?/m0/s1
