14
gdb 14598	14.35383	0.5909	0.57709	1.886	81.36	-0.2477	-0.0358	0.2118	1782.6575	0.103755	-345.359461	-345.350607	-345.349662	-345.393998	30.081	
O	-0.5415061744	 0.5942351539	 0.7254225272	-0.227337
C	 0.0382537277	 1.0177067474	-0.2390529376	 0.156801
C	 1.3323648366	 1.8017421436	-0.1956487529	-0.264239
C	 1.2356548123	 3.1059600534	-1.0240498616	-0.400604
C	 2.499849813	 3.8188056578	-1.0961782686	 0.347124
C	 3.5610602551	 4.3981453605	-1.1445223049	-0.197924
C	 4.7537332535	 5.0509076487	-1.2001023835	 0.289372
C	 5.8121071641	 5.6299900582	-1.2495954758	-0.54861
H	-0.3577654943	 0.8452315411	-1.268484224	 0.074679
H	 1.5936418628	 2.007860257	 0.8445419779	 0.140601
H	 2.1201222583	 1.1700052197	-0.627337321	 0.139876
H	 0.8908596097	 2.8688617885	-2.039954329	 0.144004
H	 0.4702349033	 3.7601517879	-0.586820046	 0.152929
H	 6.7427115723	 6.1393001123	-1.2920123503	 0.193327
53.115	60.3819	83.7292	158.5897	211.3512	288.2099	352.591	420.6446	514.4373	542.9489	548.7153	596.0921	600.2086	730.9528	753.7134	847.2772	987.1809	1072.1271	1090.4387	1182.4975	1197.3103	1263.7351	1301.5247	1360.2667	1428.763	1460.2885	1475.7263	1841.4732	2184.0275	2366.9765	2847.6634	3013.0457	3032.5442	3048.5288	3121.1181	3504.9749
O=CCCC#CC#C	O=CCCC#CC#C	
InChI=1S/C7H6O/c1-2-3-4-5-6-7-8/h1,7H,5-6H2	InChI=1S/C7H6O/c1-2-3-4-5-6-7-8/h1,7H,5-6H2
