19
gdb 118913	2.77527	0.95087	0.9359	1.3924	72.34	-0.2512	-0.032	0.2192	1366.2172	0.156091	-460.15649	-460.146522	-460.145578	-460.191924	35.375	
C	-0.0109355029	 1.6894195206	 0.2532732117	-0.434251
C	-0.0208119673	 0.1737747189	 0.0884245355	 0.26501
C	-1.4147772091	-0.4489026791	-0.0227078341	-0.234744
C	-2.1971589567	-0.0001253357	-1.2634122324	-0.073564
O	-3.4566216153	-0.6452854645	-1.3587225215	-0.416472
O	 0.8433176317	-0.2518736941	-1.0170283526	-0.327139
C	 1.7556865771	-0.9754740735	-0.1708952944	-0.195285
C	 0.9202265859	-0.5786219741	 1.0505011983	 0.309964
O	 0.9650503783	-0.7635954862	 2.2278068662	-0.282269
H	 1.0096416514	 2.0580387567	 0.3872334016	 0.12594
H	-0.4306426204	 2.1757860305	-0.6314126044	 0.138718
H	-0.6021697055	 1.9803891695	 1.1265815678	 0.13663
H	-1.3065752298	-1.5412614711	-0.0563562541	 0.090397
H	-1.9877308046	-0.2134768273	 0.8809054474	 0.122637
H	-2.4228101212	 1.0690805375	-1.2096072587	 0.115027
H	-1.5849162072	-0.1640295755	-2.1614498487	 0.111269
H	-3.2982493803	-1.5809177164	-1.5197864407	 0.28256
H	 1.7895579756	-2.0510087159	-0.3871254967	 0.131955
H	 2.7763969504	-0.5727585703	-0.1915816402	 0.133617
71.0925	87.796	108.6683	124.7783	177.2218	224.8609	276.7139	294.0132	335.8991	358.3791	427.268	534.8107	563.0662	680.9444	754.7275	783.3952	855.0794	928.996	966.5634	985.3799	1015.5264	1038.9911	1048.1323	1073.1328	1119.4877	1138.3698	1175.6345	1210.4973	1245.104	1291.3182	1306.5594	1344.6024	1396.8903	1405.477	1422.4776	1469.7607	1482.5993	1484.4367	1495.7669	1515.2883	1919.875	3009.079	3015.8202	3019.4342	3044.9047	3060.691	3072.9348	3093.7065	3120.196	3123.8563	3815.8953
CC1(CCO)OCC1=O	C[C@@]1(CCO)OCC1=O	
InChI=1S/C6H10O3/c1-6(2-3-7)5(8)4-9-6/h7H,2-4H2,1H3	InChI=1S/C6H10O3/c1-6(2-3-7)5(8)4-9-6/h7H,2-4H2,1H3/t6-/m0/s1
