17
gdb 32412	3.22697	1.16029	0.8626	1.7905	72.37	-0.1956	0.0323	0.2278	1302.8566	0.134122	-458.982628	-458.973004	-458.97206	-459.017724	33.81	
C	 0.0704551279	 1.4840183128	-0.0673186377	-0.500507
C	-0.0631682369	 0.0049569277	-0.0667724409	 0.23991
C	-1.1259147556	-0.8453783242	 0.0203642402	 0.088855
O	-2.4596554169	-0.5812897423	 0.1397812253	-0.447499
C	-0.6175073322	-2.1858022962	-0.0345204468	 0.193604
C	-1.4156566944	-3.4454514456	 0.0262281513	-0.18563
O	-0.5234879123	-4.545831778	-0.0607762313	-0.422416
C	 0.7279237489	-2.0492519334	-0.1519531147	-0.104377
O	 1.0851979581	-0.7382400058	-0.1735081626	-0.190811
H	 0.6831518853	 1.8413138945	 0.7689984782	 0.140674
H	 0.5275343585	 1.8547680972	-0.9925775916	 0.140662
H	-0.9134700713	 1.9562423667	 0.0232469671	 0.110254
H	-2.5934946144	 0.3715347975	 0.1583826609	 0.295287
H	-1.9966857521	-3.4721057933	 0.9631118021	 0.103336
H	-2.1516187105	-3.4587137525	-0.7948934666	 0.103335
H	-1.0432480028	-5.3531678089	-0.0210348964	 0.29
H	 1.5260166706	-2.7666276162	-0.2276565365	 0.145323
46.4009	88.2325	138.4615	155.0663	225.5725	242.4962	258.0658	293.4728	336.1018	347.4699	512.5208	605.5199	618.0081	677.9511	745.7374	756.4989	763.6494	939.3757	1004.4383	1047.4841	1058.9257	1086.3728	1173.5683	1189.283	1218.2974	1241.5109	1249.2894	1283.9006	1318.141	1417.6108	1462.82	1463.8728	1494.715	1499.8096	1517.119	1617.8433	1700.3286	2958.1504	2972.8429	3018.2381	3069.0837	3093.3492	3297.145	3826.7136	3841.3455
CC1=C(O)C(CO)=CO1	Cc1c(O)c(CO)co1	
InChI=1S/C6H8O3/c1-4-6(8)5(2-7)3-9-4/h3,7-8H,2H2,1H3	InChI=1S/C6H8O3/c1-4-6(8)5(2-7)3-9-4/h3,7-8H,2H2,1H3
