17
gdb 88274	3.29821	1.08936	0.91979	1.3539	73.14	-0.245	-0.065	0.1799	1269.9274	0.135673	-455.152525	-455.143716	-455.142772	-455.186428	33.48	
N	-0.1317164032	 1.2468542632	-0.3958426332	-0.509903
C	 0.0731745941	-0.0572352274	-0.055665592	 0.265468
N	 1.2411634022	-0.5295359407	 0.1748078645	-0.513865
C	-1.2370809075	-0.836925633	 0.0284009387	 0.387867
O	-2.2888633355	-0.2103024387	 0.1373091987	-0.398086
C	-1.2094157683	-2.2985447379	-0.046514993	-0.218466
C	-2.2721243758	-3.0846251403	 0.739659355	-0.324403
C	-2.4587304778	-2.9598682042	-0.7212109052	 0.156579
O	-3.4459734494	-2.1941823699	-1.2903672352	-0.409409
H	 0.6346320964	 1.8831759573	-0.2488526313	 0.262195
H	-1.070468106	 1.5948666389	-0.2830107904	 0.270264
H	 1.1998060974	-1.5213668547	 0.393799892	 0.220156
H	-0.2552407075	-2.7773920879	-0.219796945	 0.106511
H	-1.9525686843	-4.030902095	 1.1616954756	 0.130376
H	-2.9140521711	-2.4817047072	 1.3736843944	 0.141034
H	-2.2204821581	-3.8139375461	-1.346647678	 0.125773
H	-3.4876137855	-1.3580852163	-0.7940699455	 0.307908
59.8506	69.1311	197.3953	218.3272	279.8163	367.9926	404.9742	441.9673	475.6336	490.5436	522.9724	546.0923	582.7508	633.5987	700.6356	781.0855	808.1989	820.4435	863.9379	899.8354	1003.4968	1054.7627	1074.3985	1096.1651	1112.4808	1137.1731	1140.7324	1172.4876	1241.6981	1363.1292	1384.0069	1446.2747	1450.8756	1485.8713	1594.1296	1700.9322	1719.3404	3132.8583	3173.6896	3202.0646	3229.5477	3526.8714	3592.443	3633.7505	3719.0618
NC(=N)C(=O)C1CC1O	NC(=N)C(=O)[C@H]1C[C@H]1O	
InChI=1S/C5H8N2O2/c6-5(7)4(9)2-1-3(2)8/h2-3,8H,1H2,(H3,6,7)	InChI=1S/C5H8N2O2/c6-5(7)4(9)2-1-3(2)8/h2-3,8H,1H2,(H3,6,7)/t2-,3+/m0/s1
