20
gdb 120704	2.51207	1.10211	0.87775	6.2838	76.64	-0.2466	0.0261	0.2727	1384.7877	0.171165	-440.309032	-440.299761	-440.298816	-440.343842	34.067	
C	-0.2151557506	 1.4440279543	-0.3789577906	-0.400221
C	-0.3824491413	-0.0642629188	-0.5225270349	-0.121071
N	-1.0858620232	-0.6305534649	 0.6382803867	-0.321753
H	-0.6091634277	-0.3652585794	 1.4953888063	 0.232692
H	-2.8066704472	-0.295105951	 0.4223038172	 0.307728
C	-1.2472428782	-2.0653575433	 0.5873369322	 0.013073
C	-2.2169070668	-2.6896661918	 1.537062883	-0.329556
C	-2.5622579085	-2.6225382943	 0.0559036572	-0.151403
C	-3.704382515	-1.7564494664	-0.4064189069	 0.414366
O	-4.5855275401	-2.1909372094	-1.1022733435	-0.347206
O	-3.6950948375	-0.4824987292	 0.0200966223	-0.393491
H	 0.3015228721	 1.8551122577	-1.2504306393	 0.129574
H	-1.1868552955	 1.9383160039	-0.2901881499	 0.140032
H	 0.3783929084	 1.6951861577	 0.5076725893	 0.116646
H	-0.980627379	-0.2950777083	-1.4107084861	 0.131612
H	 0.5993159176	-0.5446585563	-0.6658225779	 0.098175
H	-0.3575868975	-2.6412502097	 0.3275058993	 0.095912
H	-1.9839198894	-3.6598398482	 1.9594440157	 0.131245
H	-2.7663469602	-2.0248813763	 2.1949118021	 0.136355
H	-2.5118587505	-3.5524761364	-0.4962517223	 0.117292
56.4801	82.7156	115.9294	171.8843	237.9195	254.9694	290.9261	347.8441	427.1996	451.856	532.1988	656.6395	750.7799	786.1679	805.3652	820.1877	829.0382	873.6122	924.1026	974.4028	995.3601	1012.1267	1045.6622	1075.6403	1092.5672	1134.6931	1145.0506	1181.5559	1191.7858	1229.5076	1276.7651	1299.1119	1360.0222	1375.8984	1408.7366	1421.6494	1456.9856	1487.8182	1492.6744	1496.3528	1500.3831	1521.6279	1849.5925	2972.6354	3035.8369	3066.9822	3086.2028	3106.053	3123.9287	3142.0468	3197.1486	3224.3012	3232.2991	3503.5173
CC[NH2+]C1CC1C([O-])=O	CCN[C@H]1C[C@H]1C(=O)O	
InChI=1S/C6H11NO2/c1-2-7-5-3-4(5)6(8)9/h4-5,7H,2-3H2,1H3,(H,8,9)	InChI=1S/C6H11NO2/c1-2-7-5-3-4(5)6(8)9/h4-5,7H,2-3H2,1H3,(H,8,9)/t4-,5+/m1/s1
