18
gdb 55312	2.68936	1.37541	1.20441	5.4335	71.97	-0.2463	0.0172	0.2635	1097.8249	0.148615	-439.079881	-439.07185	-439.070906	-439.112627	30.917	
O	 0.0072127662	 0.8025876562	 1.5768224415	-0.383323
C	 0.0329386423	 1.1196475461	 0.2652609015	 0.437678
O	 0.8572306598	 0.6571208064	-0.4763332624	-0.340449
C	-1.051112939	 2.0946502011	-0.1833418274	-0.24241
C	-2.4637143022	 1.7190949368	 0.3562064225	-0.184714
N	-2.183141322	 2.5766089418	 1.5433427071	-0.387059
H	-2.9624813229	 3.116723383	 1.9071495233	 0.228455
H	-0.7143110918	 1.3007826618	 2.0125492851	 0.313239
C	-1.1775091276	 3.3089566033	 0.7544874953	 0.383755
C	-0.148578418	 4.2483114134	 1.2796444736	-0.329777
C	-1.245952555	 4.7498243257	 0.3488693448	-0.343033
H	-0.9455052796	 2.2807266154	-1.2495799878	 0.106236
H	-3.2554417573	 2.1067511319	-0.2947218047	 0.114791
H	-2.6572114514	 0.6697752749	 0.5920384123	 0.124767
H	-0.2095620768	 4.5277875135	 2.3265935819	 0.12297
H	 0.8627159648	 4.174166604	 0.893452378	 0.136248
H	-0.9782330275	 5.0201200783	-0.6675195966	 0.126511
H	-2.029562972	 5.3641654366	 0.7826519221	 0.116113
91.2122	118.2981	171.0847	261.5233	295.1698	308.9942	418.8901	467.6597	555.1847	642.1599	731.6297	756.1074	768.6813	804.5007	827.6319	878.3728	916.5725	934.5293	967.1118	980.93	990.8243	1025.323	1052.6447	1076.6786	1079.1204	1165.9854	1184.2942	1191.4201	1228.1738	1250.6894	1285.1458	1308.0181	1346.4186	1402.9759	1421.2692	1455.1948	1497.7463	1522.5377	1863.7009	3035.4095	3102.1929	3121.2307	3130.0913	3147.583	3203.5163	3219.9719	3509.0198	3521.2086
[O-]C(=O)C1C[NH2+]C11CC1	OC(=O)[C@H]1CNC21CC2	
InChI=1S/C6H9NO2/c8-5(9)4-3-7-6(4)1-2-6/h4,7H,1-3H2,(H,8,9)	InChI=1S/C6H9NO2/c8-5(9)4-3-7-6(4)1-2-6/h4,7H,1-3H2,(H,8,9)/t4-/m1/s1
