17
gdb 96543	2.00624	1.76946	1.36204	3.0192	64.54	-0.2431	-0.0386	0.2045	1013.9334	0.136066	-496.091273	-496.082886	-496.081942	-496.124565	30.855	
O	 0.1010707826	 1.4413342288	 0.2052537256	-0.421728
C	 0.0352913429	 0.0208884209	 0.0813243906	-0.03699
C	-1.4481840002	-0.3799356724	 0.1328321217	-0.079213
O	-2.1104637472	-0.4641735827	-1.1180160169	-0.243346
C	-1.9003515871	 0.5767463948	-2.0402181502	 0.008655
O	-0.8825287351	 0.271255108	-2.9594428184	-0.234548
C	 0.4492041877	 0.3776168856	-2.4838193285	-0.158924
C	 0.7102193817	-0.4593037194	-1.2193583298	 0.353151
O	 1.433564514	-1.4247684729	-1.224390763	-0.29239
H	 1.021599281	 1.6953762955	 0.3313283441	 0.294264
H	 0.5571025574	-0.4697568342	 0.9127527934	 0.099686
H	-1.533569036	-1.3790300513	 0.5668488905	 0.130272
H	-1.9494662047	 0.3369400049	 0.7984281013	 0.115629
H	-2.810197621	 0.6485313667	-2.6404046839	 0.120468
H	-1.6982185665	 1.5262534725	-1.5242776252	 0.108719
H	 1.0942125292	-0.0077098436	-3.2749382329	 0.132635
H	 0.7033785212	 1.4274401788	-2.2772402183	 0.10366
80.9026	96.4426	151.3827	232.8963	321.5488	340.4879	368.5022	377.5644	449.224	483.9585	555.7662	633.782	670.4129	843.3842	896.1856	938.262	956.0632	964.2983	1021.145	1091.3589	1109.7141	1134.4186	1192.0384	1210.9284	1245.8827	1272.5914	1291.2242	1326.1836	1347.5233	1379.7115	1392.5833	1408.2546	1442.9754	1478.5578	1488.1022	1505.7299	1821.1919	3001.9117	3007.642	3013.4191	3029.8245	3105.0853	3110.0191	3126.5738	3810.5052
OC1COCOCC1=O	O[C@H]1COCOCC1=O	
InChI=1S/C5H8O4/c6-4-1-8-3-9-2-5(4)7/h4,6H,1-3H2	InChI=1S/C5H8O4/c6-4-1-8-3-9-2-5(4)7/h4,6H,1-3H2/t4-/m0/s1
