15
gdb 123273	2.9651	1.77455	1.5408	1.4572	64.98	-0.233	-0.0274	0.2056	879.9123	0.114468	-457.789982	-457.7835	-457.782556	-457.820828	25.994	
C	 0.0023237769	 1.2390584043	 0.4088299636	-0.371391
C	 1.4108907465	 1.4083485315	-0.1701177129	 0.174325
O	 2.4078249149	 0.8347265142	 0.6905292653	-0.235805
C	 2.4357379658	-0.5241573022	 0.6580139151	 0.080388
C	 1.6717473535	-1.2659461752	-0.1526583461	-0.189356
O	-1.5096219215	-0.644877085	-0.0853480611	-0.308964
C	-0.4615284718	-0.0843276677	-0.2380468724	 0.417179
C	 0.7501952005	-0.522024936	-1.0831999327	-0.087803
O	 1.3711365702	 0.7355830141	-1.4063224502	-0.241411
H	-0.0351217117	 1.1912567831	 1.4984959349	 0.148846
H	-0.648505442	 2.0519669525	 0.073859091	 0.146946
H	 1.7305579983	 2.4351751852	-0.3409785961	 0.110066
H	 3.165817469	-0.9249039031	 1.3517372787	 0.129992
H	 1.6949188501	-2.3459921472	-0.1189233948	 0.115823
H	 0.4959266115	-1.0474377487	-2.0022073823	 0.111165
116.4871	211.8832	348.4104	421.5173	441.5135	537.9622	547.6055	590.5711	651.3074	731.4138	736.2657	807.8314	844.6914	884.777	938.259	948.7789	979.6187	981.2564	990.564	1033.5421	1114.6785	1141.0361	1168.3192	1219.4803	1250.7988	1262.3118	1295.1139	1349.9363	1374.0115	1413.968	1441.6497	1679.1897	1866.3377	3074.5267	3133.0079	3137.4904	3140.1439	3203.5688	3236.0316
C1C2OC3C4OC13C4O2	C1[C@H]2OC=C[C@@H](C1=O)O2	
InChI=1S/C6H6O3/c1-2-7-4-3-5(8-2)6(1,4)9-3/h2-5H,1H2	InChI=1S/C6H6O3/c7-4-3-6-8-2-1-5(4)9-6/h1-2,5-6H,3H2/t5-,6-/m0/s1
