23
gdb 120449	4.13691	0.76592	0.7433	1.1776	83.18	-0.2424	0.0792	0.3216	1677.5281	0.202793	-425.411937	-425.40131	-425.400365	-425.44829	38.356	
C	-0.6904670506	 1.4579657394	 0.1390987331	-0.223008
O	-0.6358984313	 0.0871440932	 0.4515017803	-0.235198
C	-0.6880672779	-0.7411929321	-0.687611114	-0.075306
C	-0.6193848297	-2.1828791602	-0.2167725642	 0.129879
C	-1.8863832976	-2.7978130654	 0.4038634316	-0.341676
C	-1.8109210493	-3.8110097961	-0.7696665143	 0.439004
C	-1.4122462104	-5.2273137167	-0.373345196	-0.425307
C	-2.9764723544	-3.7967211672	-1.7477901355	-0.42758
O	-0.6590757031	-3.0999112474	-1.3292162311	-0.344778
H	-0.6426268547	 2.0114166154	 1.080196147	 0.126483
H	 0.1538288689	 1.7654824983	-0.4981272519	 0.105247
H	-1.6247815845	 1.7219653764	-0.3815999318	 0.103409
H	-1.6180254785	-0.5745374324	-1.2576148188	 0.083345
H	 0.155188449	-0.537529856	-1.3695000801	 0.093263
H	 0.2885621204	-2.3162008406	 0.3862167904	 0.079276
H	-1.7746554205	-3.2215283866	 1.4028507372	 0.105386
H	-2.7586465276	-2.1408907367	 0.3870074754	 0.105033
H	-2.2452947633	-5.7428740158	 0.1170770725	 0.112555
H	-1.1253662055	-5.8031156106	-1.2591746477	 0.121671
H	-0.562054742	-5.2139657486	 0.3146225241	 0.117255
H	-3.22648691	-2.7733263367	-2.0407097546	 0.115081
H	-2.7226685665	-4.3586286203	-2.6527793681	 0.122027
H	-3.8639704007	-4.2553136735	-1.2978984734	 0.113939
39.5813	75.7418	90.7142	156.6345	192.5869	231.312	238.9791	283.1543	298.3557	358.6755	378.1369	414.9536	455.2024	492.4071	660.7906	811.8773	865.2114	892.4333	916.4866	932.2557	977.5772	990.3118	991.344	1026.2652	1045.1903	1112.6277	1156.729	1172.3486	1176.7142	1196.5134	1225.6994	1238.8238	1250.9031	1279.9721	1284.8795	1301.9576	1376.4414	1398.828	1411.1619	1425.9052	1472.3659	1479.7509	1481.3272	1485.5026	1489.7845	1494.4168	1502.2156	1505.515	1526.5023	2952.3155	2971.5555	2983.6531	3013.3479	3018.9997	3028.8869	3034.7669	3074.7664	3098.8241	3106.4713	3111.0292	3112.5565	3114.0479	3131.5742
COCC1CC(C)(C)O1	COC[C@H]1CC(C)(C)O1	
InChI=1S/C7H14O2/c1-7(2)4-6(9-7)5-8-3/h6H,4-5H2,1-3H3	InChI=1S/C7H14O2/c1-7(2)4-6(9-7)5-8-3/h6H,4-5H2,1-3H3/t6-/m1/s1
