21
gdb 94622	3.16109	1.04759	0.88704	2.413	79.06	-0.2449	0.0698	0.3147	1376.864	0.181844	-424.185727	-424.176702	-424.175758	-424.220435	34.354	
O	 0.5386761814	 0.6786926287	-0.7896571475	-0.437613
C	 0.0805105027	-0.2585424484	 0.1373130682	 0.153391
C	-0.4179657064	 0.1899502718	 1.5439213571	-0.255836
C	-1.5441705283	-0.8749463281	 1.4235833873	-0.250251
C	-1.3204374838	-0.8886052464	-0.1125757745	 0.081219
O	-2.0785967559	 0.0902262239	-0.8104732842	-0.282533
C	-3.3257245691	-0.3385916476	-1.2667584563	 0.150339
C	-4.5619843361	-0.1044551506	-0.4360248363	-0.286488
C	-4.288304376	 0.7270517899	-1.6750365439	-0.29484
H	-0.2542487635	 1.0966071613	-1.1512378267	 0.289017
H	 0.8429020678	-1.0389933771	 0.2288719136	 0.085436
H	 0.2799895174	 0.1152936991	 2.380293762	 0.0969
H	-0.8189483717	 1.2057692814	 1.5000218975	 0.106611
H	-1.2634256217	-1.832915972	 1.8707187877	 0.104019
H	-2.5419771233	-0.604917469	 1.7704494437	 0.10776
H	-1.378037991	-1.8498673301	-0.6389126347	 0.063001
H	-3.2805976484	-1.2494168442	-1.8640986161	 0.090101
H	-5.3542506654	-0.8446354093	-0.4629052244	 0.115022
H	-4.4304881969	 0.3886636177	 0.5197256325	 0.121763
H	-3.9694216569	 1.7513356521	-1.5183937595	 0.124955
H	-4.8900875349	 0.569318747	-2.5626839355	 0.118028
33.9117	87.9998	132.7226	160.4817	256.7828	336.3699	387.0334	397.5456	436.3866	486.0481	576.1814	669.868	736.9888	757.1257	813.1233	827.0704	878.3748	906.0199	918.1704	953.9178	980.4106	1001.5827	1032.6004	1056.4405	1072.8774	1094.3272	1121.9485	1131.0144	1158.9811	1181.8251	1195.2314	1202.1646	1230.5679	1246.7305	1254.5803	1271.1087	1283.8348	1346.3327	1356.6317	1417.3553	1444.0778	1453.5203	1471.756	1488.6756	1499.9352	3018.7966	3058.355	3067.2939	3069.7215	3100.0158	3121.1704	3134.5319	3139.0711	3142.9451	3222.7592	3236.7196	3762.2087
OC1CCC1OC1CC1	O[C@H]1CC[C@H]1OC1CC1	
InChI=1S/C7H12O2/c8-6-3-4-7(6)9-5-1-2-5/h5-8H,1-4H2	InChI=1S/C7H12O2/c8-6-3-4-7(6)9-5-1-2-5/h5-8H,1-4H2/t6-,7+/m0/s1
