17
gdb 79381	3.11136	1.41981	1.11303	1.1126	80.2	-0.2503	0.0401	0.2905	1091.6509	0.135096	-384.577064	-384.569333	-384.568389	-384.609009	30.842	
O	 0.0108849972	 1.4685709338	-0.072851945	-0.441933
C	 0.0645101349	 0.0636468704	-0.0131084014	 0.110945
C	 0.0213860078	-0.6151017102	 1.3720932967	-0.135272
C	-1.5095999203	-0.3147235034	 1.546047358	-0.073506
C	-1.8380998573	-1.7844790533	 1.8607989566	-0.313511
C	-0.7350242301	-1.8702501097	 0.7772502147	 0.263275
C	-0.1403415111	-3.0309948382	 0.1862127512	 0.096585
C	 0.3509130485	-4.0161554231	-0.3007851547	-0.386575
C	-1.3099741203	-0.6075903058	 0.0168177941	-0.103522
H	 0.904413746	 1.8104779638	 0.0292320215	 0.284376
H	 0.7877767851	-0.3523341791	-0.7280118595	 0.075393
H	 0.7731917105	-0.6541214367	 2.1622763729	 0.075737
H	-1.9372850274	 0.5908578842	 1.9686397424	 0.088229
H	-1.5672133571	-2.1546025181	 2.8543718894	 0.09946
H	-2.8286912763	-2.1468794931	 1.569173923	 0.100644
H	 0.7831720857	-4.885220934	-0.7311928256	 0.178024
H	-2.0843639458	-0.6325029074	-0.7504435042	 0.081651
114.9575	161.4481	228.2253	272.06	317.714	414.1516	440.8972	532.8021	534.2573	612.1133	615.1962	643.0046	727.7292	797.4469	870.658	874.7717	895.9807	909.3754	944.7257	1004.5155	1010.863	1050.7272	1058.929	1092.2445	1120.5064	1136.8053	1155.3376	1185.4135	1196.6354	1218.3044	1245.5213	1270.3917	1301.3376	1319.0674	1436.9253	1511.9619	2228.0407	3011.3309	3042.6565	3101.9813	3102.3043	3114.9837	3152.7471	3501.2599	3821.9414
OC1C2C3CC2(C#C)C13	O[C@H]1[C@H]2[C@@H]3C[C@@]2(C#C)[C@H]13	
InChI=1S/C8H8O/c1-2-8-3-4-5(8)7(9)6(4)8/h1,4-7,9H,3H2	InChI=1S/C8H8O/c1-2-8-3-4-5(8)7(9)6(4)8/h1,4-7,9H,3H2/t4-,5+,6-,7-,8+
