19
gdb 115700	2.49761	1.22761	1.02478	5.2243	71.84	-0.2482	0.019	0.2673	1230.7839	0.161442	-456.346291	-456.337519	-456.336574	-456.38006	32.612	
N	-0.2008387932	 1.6553788795	-0.2617728306	-0.517956
C	-0.0968939879	 0.2881092816	 0.2620838754	-0.195193
C	-1.3459612235	-0.482514084	-0.1291403589	 0.083167
N	-1.5147348703	-0.7993781028	-1.5717543572	-0.333305
H	-1.9635425542	-0.0949003323	-2.1465712141	 0.235527
H	 0.0608358104	-1.9148852906	-1.5787781846	 0.309391
C	-2.2961192012	-2.0071427621	-1.203002835	-0.187689
C	-1.5245511501	-2.0108207781	 0.1500333558	-0.190631
C	-0.2257526811	-2.8077250064	 0.0767623889	 0.4299
O	 0.5137312396	-2.5969291518	-1.0332991441	-0.384087
O	 0.1271011174	-3.5760128825	 0.9307935427	-0.337755
H	-0.8248383407	 2.2053557059	 0.3218365756	 0.226737
H	 0.7029631127	 2.1143441464	-0.217452089	 0.235703
H	 0.781103536	-0.1846544889	-0.1862453946	 0.123775
H	 0.0260261058	 0.225564726	 1.3569427684	 0.096008
H	-2.2286750415	 0.0413433728	 0.2744929696	 0.072905
H	-3.3663711379	-1.8168794071	-1.047916265	 0.107966
H	-2.1689185741	-2.8625317817	-1.8718393541	 0.124154
H	-2.0619855363	-2.3015123541	 1.0493176707	 0.101383
85.4919	105.5336	152.8536	198.2844	235.0969	247.4999	307.5954	400.5148	459.2732	482.9869	610.117	728.0968	781.0493	793.2746	837.491	859.3563	880.9262	907.6364	972.9061	994.5558	1017.4711	1047.3702	1049.3267	1077.53	1115.0055	1144.854	1183.4524	1216.9903	1242.2184	1263.4362	1310.8125	1320.4625	1350.139	1359.8391	1389.9981	1442.6662	1443.444	1503.1177	1522.3299	1660.6573	1861.5586	2955.2093	2963.6714	3014.7058	3092.2823	3093.1199	3151.0652	3426.1597	3493.7203	3537.5294	3573.9678
NCC1[NH2+]CC1C([O-])=O	NC[C@H]1NC[C@H]1C(=O)O	
InChI=1S/C5H10N2O2/c6-1-4-3(2-7-4)5(8)9/h3-4,7H,1-2,6H2,(H,8,9)	InChI=1S/C5H10N2O2/c6-1-4-3(2-7-4)5(8)9/h3-4,7H,1-2,6H2,(H,8,9)/t3-,4-/m1/s1
