21
gdb 83224	2.46648	1.5751	1.36651	0.9412	76.8	-0.2324	0.0711	0.3036	1068.0548	0.181982	-424.210677	-424.201632	-424.200688	-424.243878	35.119	
C	-0.0101289036	 1.5488967143	-0.0588725755	-0.439882
C	-0.0148060681	 0.013853471	-0.0118241775	 0.284011
C	-1.4586863152	-0.5212602665	 0.0048638592	-0.433695
C	 0.770204662	-0.5963730789	-1.2065999383	-0.12201
O	 1.511264035	-1.7314145705	-0.7282308741	-0.276252
C	 1.5672836431	-1.6986130852	 0.6762970702	 0.026835
C	 2.2516223355	-0.4952701795	 1.2673861155	 0.057039
O	 2.9916281411	 0.3532258515	 0.4382310366	-0.426929
C	 0.7325365814	-0.5588804098	 1.1936751416	-0.144945
H	 1.0122446001	 1.9316857124	-0.0319827359	 0.141787
H	-0.4977308412	 1.9142547423	-0.9702959314	 0.1067
H	-0.5571063918	 1.9649242889	 0.7938575688	 0.109661
H	-2.0106837734	-0.1713258842	-0.8743526793	 0.111392
H	-1.4739354869	-1.6159886765	 0.0007387821	 0.121082
H	-1.997998631	-0.1784336606	 0.8943686457	 0.111711
H	 0.1087920411	-0.9466210955	-2.0063504887	 0.101934
H	 1.4616363848	 0.1419698477	-1.6257886107	 0.095846
H	 1.6362248261	-2.6887163937	 1.1130896881	 0.098179
H	 2.6696598789	-0.5999279199	 2.2677521669	 0.093917
H	 3.3832321041	-0.1982181323	-0.2494328451	 0.297847
H	 0.1914753677	-0.6290453647	 2.1314191218	 0.085772
100.2145	123.2718	187.4306	240.0047	265.6861	280.1926	316.3163	340.3192	379.2347	384.0172	573.6012	581.3362	655.6945	716.5094	763.5065	779.96	851.7484	913.5705	938.6017	948.8653	966.1901	990.4621	1027.656	1042.0443	1056.0587	1080.2179	1103.3558	1134.6191	1201.3589	1216.2475	1227.7357	1252.736	1262.9711	1312.2439	1344.2516	1357.1933	1393.7573	1398.5466	1417.4389	1428.6946	1488.2963	1490.4582	1504.843	1511.9064	1520.5123	3025.3953	3028.4895	3034.8419	3072.8307	3088.8664	3096.2567	3102.1257	3110.0912	3131.8073	3161.095	3174.2074	3784.9603
CC1(C)COC2C(O)C12	CC1(C)CO[C@H]2[C@@H](O)[C@@H]12	
InChI=1S/C7H12O2/c1-7(2)3-9-6-4(7)5(6)8/h4-6,8H,3H2,1-2H3	InChI=1S/C7H12O2/c1-7(2)3-9-6-4(7)5(6)8/h4-6,8H,3H2,1-2H3/t4-,5+,6-/m1/s1
