18
gdb 117426	4.26345	0.68176	0.63753	2.1902	76.22	-0.2567	0.0337	0.2905	1787.6206	0.145077	-439.094599	-439.084197	-439.083253	-439.132079	35.744	
C	 0.1326289553	 1.472808695	 0.2643905921	-0.391904
C	-0.1579161025	-0.0133185956	 0.34931527	-0.034901
O	 0.9495376764	-0.6319141292	 1.0288778309	-0.276571
C	 0.8473589455	-1.9713214926	 1.1935870678	 0.527421
O	-0.0909249411	-2.6442781692	 0.8275595015	-0.411588
N	 1.9714461623	-2.4466343539	 1.8082679402	-0.360223
C	 2.0364656811	-3.8162870104	 2.2902324111	-0.296166
C	 2.0762526545	-3.9110954215	 3.7493141998	 0.296198
C	 2.1358307747	-3.9750076944	 4.9476017875	-0.452376
H	 1.0554081009	 1.6597703712	-0.2921479419	 0.128281
H	-0.6886589815	 1.9818154115	-0.2486835307	 0.123159
H	 0.2381434855	 1.9082241134	 1.2621448512	 0.128413
H	-1.07800023	-0.2181857799	 0.9054139433	 0.122585
H	-0.2666855294	-0.4649748851	-0.6417961335	 0.121379
H	 2.6144725387	-1.7681683082	 2.1832262734	 0.25692
H	 1.1484416815	-4.318724407	 1.8947926595	 0.17782
H	 2.9126068729	-4.3244899327	 1.867208734	 0.137929
H	 2.1729424951	-4.0399898313	 6.0069502538	 0.203622
28.8459	36.18	74.3886	120.1651	159.2887	226.5373	259.8424	291.7904	328.504	362.583	441.6567	487.8145	586.7499	619.457	667.7727	728.4492	779.0009	807.6191	885.2617	943.13	960.2778	1052.8215	1066.9747	1136.2294	1169.6943	1185.0459	1241.7616	1278.1933	1288.7652	1378.0922	1396.5865	1419.8277	1476.3037	1485.7421	1497.6669	1518.1339	1541.8963	1811.9555	2240.4404	3021.9392	3045.9473	3051.2209	3088.8358	3093.2049	3120.873	3125.2666	3505.1177	3647.6815
CCOC(=O)NCC#C	CCOC(=O)NCC#C	
InChI=1S/C6H9NO2/c1-3-5-7-6(8)9-4-2/h1H,4-5H2,2H3,(H,7,8)	InChI=1S/C6H9NO2/c1-3-5-7-6(8)9-4-2/h1H,4-5H2,2H3,(H,7,8)
