16
gdb 113129	2.40078	1.21635	0.93152	5.3173	76.32	-0.2509	-0.0155	0.2353	1270.9093	0.123651	-396.92209	-396.912867	-396.911923	-396.956562	32.628	
C	 0.232249359	 1.3833168494	 0.2016304323	-0.322246
N	-0.3419267042	 0.1805960158	-0.396819093	-0.292562
C	 0.4925145433	-0.4291865348	-1.3736397523	 0.02578
C	 1.6244577359	-1.3657698658	-1.0706703172	-0.318395
C	 0.3178967055	-1.929825514	-1.6773661372	-0.012099
C	-0.5351179759	-2.6860597586	-0.7962161355	 0.254127
N	-1.2110870145	-3.2540141822	-0.0493365495	-0.336366
C	 0.3296166566	-2.3483586959	-3.05582313	 0.250384
N	 0.3635613205	-2.6595672809	-4.1685239412	-0.324508
H	 1.2016763185	 1.2197969076	 0.7000293365	 0.1087
H	 0.3772081501	 2.1426239057	-0.5742745107	 0.134389
H	-0.4723148831	 1.7851079264	 0.9334627906	 0.137614
H	-0.6316567565	-0.4817506438	 0.3141607773	 0.244233
H	 0.6119545963	 0.175970103	-2.2690775381	 0.141284
H	 2.4913844478	-1.3894301919	-1.72073455	 0.156511
H	 1.8026727007	-1.642194	-0.037681382	 0.153153
63.2399	118.6611	134.3003	143.4779	203.6273	228.7097	268.4977	381.7669	426.4875	484.7547	524.1024	594.1965	608.8813	670.6919	703.3765	831.3534	858.9641	946.6424	995.0973	1028.0009	1067.0156	1099.9439	1152.0165	1157.8764	1225.2489	1276.5414	1290.1238	1381.1919	1461.9354	1467.6785	1488.453	1505.7129	1528.1979	2355.6584	2362.3492	2972.6645	3069.7636	3122.4119	3144.7202	3147.3109	3244.2798	3540.4209
CNC1CC1(C#N)C#N	CN[C@H]1CC1(C#N)C#N	
InChI=1S/C6H7N3/c1-9-5-2-6(5,3-7)4-8/h5,9H,2H2,1H3	InChI=1S/C6H7N3/c1-9-5-2-6(5,3-7)4-8/h5,9H,2H2,1H3/t5-/m0/s1
