20
gdb 93233	2.8494	1.32514	0.94493	3.6499	76.89	-0.2337	0.029	0.2628	1260.1358	0.171244	-440.326523	-440.317328	-440.316384	-440.360452	33.748	
C	 0.0362127929	 1.5399538099	 0.0470565619	-0.405785
C	 0.0394181665	 0.0204402424	-0.0021953733	 0.109657
C	 0.7740940678	-0.5241138244	-1.2246815779	-0.147448
N	 0.9509225266	-1.9682371058	-1.1454038763	-0.106664
C	 1.3390448604	-2.6541023698	-2.3654254573	-0.345255
C	 0.908731144	-2.662077358	 0.0312963157	 0.383859
O	 1.0880846626	-3.8654070937	 0.1173518567	-0.388929
C	 0.5730137793	-1.8565951063	 1.2865010869	-0.193685
O	 0.6841726421	-0.4541962401	 1.1686704148	-0.253091
H	 1.0602841071	 1.9219785096	 0.0960836611	 0.130685
H	-0.451917238	 1.9569418105	-0.8387975648	 0.11908
H	-0.5001895728	 1.8840341992	 0.9345178673	 0.132001
H	-0.9996398546	-0.3530767039	-0.0216127877	 0.073422
H	 0.2016376961	-0.2922412009	-2.1322895228	 0.107502
H	 1.7505580954	-0.0242437854	-1.3182009607	 0.108997
H	 2.2870527439	-2.25809651	-2.75208436	 0.122197
H	 1.4546993293	-3.712582587	-2.1366351785	 0.171453
H	 0.5724514784	-2.5259861221	-3.1390288561	 0.121246
H	-0.4448268369	-2.1500012283	 1.5939656514	 0.118075
H	 1.2600053497	-2.1773004559	 2.0723811897	 0.142683
92.3509	115.1452	141.5296	206.2147	224.0248	238.4492	272.3897	356.0193	393.9981	440.5223	496.7293	535.4944	584.301	700.7402	755.8253	854.5679	924.6598	947.5276	1014.4378	1027.7124	1090.0751	1130.2959	1137.5292	1162.6803	1164.1529	1186.6897	1260.8675	1270.3906	1291.5595	1317.6995	1368.0097	1388.573	1403.6619	1414.5873	1430.6762	1462.7026	1473.2491	1483.7264	1497.7178	1499.3501	1501.4483	1540.2069	1767.4361	2948.9961	2973.935	2987.4175	3014.6238	3037.1512	3046.795	3063.961	3113.9454	3119.7453	3129.0989	3166.0521
CC1CN(C)C(=O)CO1	C[C@H]1CN(C)C(=O)CO1	
InChI=1S/C6H11NO2/c1-5-3-7(2)6(8)4-9-5/h5H,3-4H2,1-2H3	InChI=1S/C6H11NO2/c1-5-3-7(2)6(8)4-9-5/h5H,3-4H2,1-2H3/t5-/m0/s1
