21
gdb 89366	2.65551	1.62205	1.31248	1.4272	81.89	-0.2341	0.0188	0.2529	1060.9068	0.184172	-387.103034	-387.095059	-387.094115	-387.134789	33.106	
C	-0.0200236974	 1.520197279	 0.0147825286	-0.491258
C	 0.0000826023	 0.001568272	 0.0178664069	 0.294523
C	 0.7224026164	-0.6627789292	-1.205195326	-0.270227
C	 0.9799935869	-2.1276444966	-0.7281233039	 0.136764
O	 2.3627184784	-2.4352385609	-0.5875266673	-0.446405
C	 0.3524776331	-2.1330287849	 0.6989959585	-0.066855
C	 0.7398506088	-0.7162086442	 1.1779353151	-0.238881
C	-1.1466938921	-1.9593483821	 0.5085070202	-0.106963
C	-1.3546490446	-0.7040113378	 0.104796685	-0.10329
H	 0.9966605764	 1.9276567607	-0.0055765206	 0.11235
H	-0.5506726532	 1.9114981665	-0.8609825619	 0.110917
H	-0.5204104972	 1.9109678247	 0.9074178467	 0.115084
H	 0.1233640885	-0.6043373138	-2.1177870453	 0.091486
H	 1.6840749092	-0.1729267583	-1.3944566089	 0.089038
H	 0.493713731	-2.8654888028	-1.3795007855	 0.058722
H	 2.7756696495	-2.3519523357	-1.4526048623	 0.279743
H	 0.6793094135	-2.982679867	 1.2979853276	 0.065204
H	 1.8201969198	-0.5441890793	 1.1742104488	 0.099996
H	 0.3223313432	-0.4701431478	 2.1577893702	 0.08835
H	-1.8758496944	-2.7560045868	 0.589572526	 0.092936
H	-2.2902893281	-0.2561098055	-0.2102448918	 0.088767
142.7256	222.8602	265.4675	278.7511	292.2235	356.1106	397.5623	408.2968	490.5952	555.8864	599.3936	685.8783	736.8486	786.2811	794.5881	857.9184	889.9539	894.0267	924.791	949.793	952.1501	978.52	987.7094	1013.1976	1071.0596	1093.382	1109.7124	1155.4158	1168.6225	1182.4378	1218.5958	1242.9321	1258.8374	1261.1599	1300.5141	1310.2444	1342.2115	1366.1938	1408.7342	1415.6265	1475.98	1494.3204	1495.6294	1500.4282	1648.5862	3007.9284	3023.7397	3039.5893	3057.3829	3087.1559	3093.853	3095.6965	3114.4569	3120.2256	3186.4352	3215.1486	3818.4933
CC12CC(O)C(C1)C=C2	C[C@@]12C[C@@H](O)[C@@H](C1)C=C2	
InChI=1S/C8H12O/c1-8-3-2-6(4-8)7(9)5-8/h2-3,6-7,9H,4-5H2,1H3	InChI=1S/C8H12O/c1-8-3-2-6(4-8)7(9)5-8/h2-3,6-7,9H,4-5H2,1H3/t6-,7-,8+/m1/s1
