18
gdb 99485	2.51472	1.06267	0.77715	2.9176	73.27	-0.2827	-0.0491	0.2336	1445.1172	0.144768	-439.115797	-439.105604	-439.10466	-439.152438	35.386	
C	 0.185605371	 1.4476173639	-0.2991917093	-0.403591
C	 0.0216752944	-0.0717291407	-0.2763001792	-0.175243
C	-1.3835095433	-0.5271076649	 0.1961668762	-0.255573
C	-2.4388442797	-0.0738682532	-0.7111870567	 0.288545
N	-3.2597954112	 0.2894881895	-1.4392196699	-0.327186
C	-1.4193937322	-2.0480135545	 0.4514744613	 0.353162
O	-0.514518602	-2.5787440249	 1.0539368788	-0.316604
C	-2.5990865857	-2.8698473012	-0.0276730183	-0.140133
O	-2.4786381509	-4.2057968179	 0.3495985303	-0.41897
H	 1.191694892	 1.7152871735	-0.6335285889	 0.129715
H	-0.5306581508	 1.9193669165	-0.9786875208	 0.144821
H	 0.0390556083	 1.8774110137	 0.697639896	 0.123071
H	 0.2075206724	-0.490013398	-1.2714616177	 0.122468
H	 0.7394515203	-0.5339789041	 0.4055995636	 0.139725
H	-1.5778506666	-0.0692999808	 1.1772444	 0.161798
H	-3.5218709977	-2.4168401552	 0.3717474326	 0.13563
H	-2.6669904358	-2.7575968343	-1.1231475536	 0.140789
H	-1.6302868323	-4.2738979972	 0.8140685957	 0.297576
17.9048	95.8577	120.4972	133.545	171.2167	212.0404	266.9201	296.6892	322.7788	369.0872	393.8682	489.9785	515.4641	565.9652	702.6105	773.6039	813.0964	884.976	961.3267	978.8043	1050.8042	1095.162	1121.8808	1131.996	1169.1573	1229.3571	1257.295	1275.4273	1311.4209	1338.7415	1361.8224	1420.6551	1446.0591	1477.7092	1490.9779	1499.234	1507.0822	1798.4615	2355.5691	2976.3497	2990.9324	3014.8039	3038.9882	3055.2021	3099.5939	3115.2312	3123.4145	3706.254
CCC(C#N)C(=O)CO	CC[C@@H](C#N)C(=O)CO	
InChI=1S/C6H9NO2/c1-2-5(3-7)6(9)4-8/h5,8H,2,4H2,1H3	InChI=1S/C6H9NO2/c1-2-5(3-7)6(9)4-8/h5,8H,2,4H2,1H3/t5-/m0/s1
