19
gdb 117262	4.89623	0.75503	0.72765	3.178	73.2	-0.2499	0.0018	0.2517	1617.9381	0.158147	-460.17525	-460.165657	-460.164712	-460.212101	32.776	
C	-0.2269422347	 1.4728439851	-0.1787809394	-0.391716
C	 0.2088844516	 0.0440577522	 0.0813205786	-0.046136
O	 0.693815141	-0.4987658814	-1.1655973431	-0.24574
C	 1.1559694653	-1.7615527452	-1.1154339315	 0.432317
O	 1.1765496864	-2.4332850031	-0.1125946952	-0.363738
C	 1.6543286787	-2.2241943237	-2.4605091822	-0.166301
C	 3.1092518648	-2.7653028248	-2.4910452345	-0.070837
O	 2.682658992	-4.0337265218	-3.0166512487	-0.267961
C	 1.2966429639	-3.6785341025	-2.8547997637	-0.072598
H	 0.6109496881	 2.0778149518	-0.5363379979	 0.130785
H	-1.0223785196	 1.5090167944	-0.9283826605	 0.130934
H	-0.6043317938	 1.919104998	 0.7459845013	 0.125623
H	 1.0087273668	-0.0143292252	 0.8258564649	 0.125227
H	-0.6161379387	-0.5798258381	 0.4391278438	 0.124371
H	 1.442265878	-1.4830757668	-3.2291846687	 0.100429
H	 3.7971093363	-2.2452603201	-3.166577238	 0.108314
H	 3.5647765025	-2.8627524198	-1.4983290495	 0.118328
H	 0.8190272418	-4.2436858672	-2.0463380494	 0.121991
H	 0.7279187194	-3.7970424619	-3.7834080363	 0.106707
18.7963	51.9682	84.1937	127.5738	161.571	238.3711	290.8743	291.5392	339.2218	413.7169	657.2518	755.5849	795.7748	806.5659	877.1911	886.2554	891.3404	973.691	1017.4611	1042.318	1050.4898	1085.2334	1119.3342	1137.549	1170.7266	1182.1825	1182.8586	1206.7849	1255.8374	1290.7541	1314.6259	1369.318	1381.3132	1405.8985	1426.3314	1486.0336	1495.6168	1502.8054	1518.6125	1528.3986	1810.516	3020.3094	3031.3832	3047.1635	3053.6555	3073.4059	3078.9605	3091.8807	3121.8859	3127.4133	3129.9433
CCOC(=O)C1COC1	CCOC(=O)C1COC1	
InChI=1S/C6H10O3/c1-2-9-6(7)5-3-8-4-5/h5H,2-4H2,1H3	InChI=1S/C6H10O3/c1-2-9-6(7)5-3-8-4-5/h5H,2-4H2,1H3
