14
gdb 16440	3.49317	2.27333	1.72132	3.376	56.63	-0.2283	0.0622	0.2905	751.32	0.105836	-419.567629	-419.560911	-419.559966	-419.598149	26.184	
O	-0.0496453194	 1.4806722821	-0.0795159048	-0.446094
C	 0.045689474	 0.0733569573	-0.0405809968	 0.015269
C	 0.0402296334	-0.6245797498	 1.334632379	-0.144013
C	-1.4808785932	-0.3647667643	 1.5532492022	 0.013
O	-1.7973234725	-1.757903546	 1.8393057468	-0.323329
C	-0.7946973778	-1.8285206015	 0.7866736203	 0.028037
C	-1.3306022016	-0.6035300088	-0.0075033049	 0.36413
O	-2.2912244909	-0.6472911222	-0.9820646673	-0.463979
H	 0.8313987398	 1.8540889539	 0.0185808517	 0.289473
H	 0.7601498125	-0.3132363257	-0.7795833164	 0.073687
H	 0.8043568671	-0.6713687853	 2.1059179988	 0.091581
H	-1.9872748111	 0.4185428205	 2.1124404231	 0.103774
H	-0.4653770061	-2.8032047779	 0.4306392651	 0.100639
H	-2.4715262342	 0.2572050977	-1.2641579766	 0.297826
195.4923	201.9133	277.4	287.8654	344.0646	382.7729	566.0085	583.5893	689.7617	748.3699	812.3403	839.0638	857.1816	900.6144	917.2709	951.0238	989.6883	1026.0016	1072.9747	1112.4749	1126.1907	1131.3436	1167.3981	1193.7623	1234.1341	1270.466	1304.0807	1320.4797	1399.5249	1462.8547	3018.0834	3136.0365	3147.841	3165.2486	3797.0218	3826.3706
OC1C2C3OC2C13O	O[C@H]1[C@H]2[C@@H]3O[C@H]2[C@]13O	
InChI=1S/C5H6O3/c6-2-1-3-5(2,7)4(1)8-3/h1-4,6-7H	InChI=1S/C5H6O3/c6-2-1-3-5(2,7)4(1)8-3/h1-4,6-7H/t1-,2-,3-,4+,5-/m0/s1
