16
gdb 55591	3.80651	0.76651	0.6808	4.7575	69.42	-0.2513	-0.0427	0.2086	1607.9606	0.120669	-475.088281	-475.078296	-475.077352	-475.125549	33.207	
C	-0.2405842865	 1.4744425518	 0.308575787	-0.503305
C	 0.1415418737	 0.0671054064	-0.1215825865	 0.413555
O	 1.2462896967	-0.2539121939	-0.4671603542	-0.283838
N	-0.9499026825	-0.8254307491	-0.07089997	-0.385857
C	-0.9543949647	-2.1828811706	-0.3926091201	 0.411858
O	 0.0089259022	-2.8081666891	-0.7561222258	-0.305596
C	-2.3188229075	-2.8534960219	-0.2210815232	-0.402622
C	-2.1998479649	-4.0765939289	 0.6821780434	 0.167162
O	-3.0107190542	-4.3608938643	 1.5218918939	-0.231686
H	 0.6412275984	 2.1098215021	 0.2394131182	 0.162783
H	-1.0305909281	 1.8786301477	-0.3335783343	 0.144658
H	-0.6116676359	 1.4799412041	 1.3391678678	 0.146968
H	-1.8294038268	-0.436099971	 0.2319820765	 0.256988
H	-3.112528997	-2.2044607559	 0.1562280712	 0.121034
H	-2.6090132855	-3.2182572613	-1.2150925314	 0.168079
H	-1.2952190575	-4.6880271861	 0.4912197874	 0.119819
27.5424	48.1732	97.5828	105.9677	111.2521	165.659	246.9117	325.1096	381.1477	473.6793	529.8162	570.2101	595.8204	648.4025	737.895	804.6479	906.2241	911.9598	1029.4533	1036.9102	1052.5875	1059.6186	1134.5986	1214.8255	1220.1192	1303.1131	1386.8461	1403.5677	1443.8902	1465.9172	1482.5311	1503.2761	1802.1023	1837.7912	1866.4122	2944.0699	3038.5524	3041.1296	3103.9528	3112.1956	3168.6142	3627.2919
CC(=O)NC(=O)CC=O	CC(=O)NC(=O)CC=O	
InChI=1S/C5H7NO3/c1-4(8)6-5(9)2-3-7/h3H,2H2,1H3,(H,6,8,9)	InChI=1S/C5H7NO3/c1-4(8)6-5(9)2-3-7/h3H,2H2,1H3,(H,6,8,9)
