16
gdb 127136	4.11184	1.11034	0.89168	6.7082	68.3	-0.227	0.0246	0.2515	1255.978	0.124072	-471.218994	-471.210145	-471.209201	-471.25315	31.212	
C	-0.0822214883	 1.4331963781	 0.0006452193	-0.334258
N	-0.2293329446	-0.018877631	 0.019835998	-0.173627
C	 0.2397172765	-0.6894459058	 1.2241036267	-0.346824
C	-0.0864777162	-0.6449129903	-1.186358013	 0.561582
N	 0.0768577035	-0.0246649178	-2.320455827	-0.243184
O	 0.0679867901	-1.0628441986	-3.3065083995	-0.235923
C	-0.0709962027	-2.2796319869	-2.7161610528	 0.510154
O	-0.1140003905	-3.3380089257	-3.275904872	-0.396484
N	-0.1470007855	-2.0073890893	-1.3533921991	-0.461846
H	 0.9683705809	 1.7456857606	-0.0783803257	 0.131114
H	-0.6229216414	 1.8360275786	-0.8562645113	 0.170342
H	-0.5064955536	 1.8381203426	 0.9225694628	 0.127623
H	-0.1222339786	-1.7195387188	 1.2665996821	 0.128175
H	 1.3366690957	-0.7001409359	 1.3096670183	 0.134457
H	-0.1688703764	-0.1674083865	 2.0925829561	 0.145125
H	-0.347710209	-2.7148664535	-0.670176103	 0.283573
47.0437	123.4345	153.3842	176.9362	221.877	233.4419	365.0385	378.9277	395.4578	434.0577	580.423	605.524	701.9215	751.0763	775.4745	920.3364	943.3889	988.608	1042.0054	1083.5973	1125.8525	1173.707	1203.4809	1224.8413	1274.1615	1348.6987	1449.7872	1472.2554	1481.3364	1489.5576	1500.7301	1506.8461	1551.7788	1661.6341	1899.7047	2995.1012	3012.3094	3089.7543	3097.6186	3125.6062	3152.8513	3701.7795
CN(C)C1=NOC(=O)N1	CN(C)c1noc(=O)[nH]1	
InChI=1S/C4H7N3O2/c1-7(2)3-5-4(8)9-6-3/h1-2H3,(H,5,6,8)	InChI=1S/C4H7N3O2/c1-7(2)3-5-4(8)9-6-3/h1-2H3,(H,5,6,8)
