19
gdb 84243	2.48457	1.96979	1.35689	3.6314	81.05	-0.2213	-0.0489	0.1724	998.1222	0.158077	-381.939645	-381.931635	-381.930691	-381.971539	32.149	
C	-0.0816802346	 1.5272102767	-0.0656638315	-0.383405
C	 0.0189725162	 0.0058587504	-0.024229616	-0.019297
N	 0.9433872973	-0.4152310674	-1.1206841232	-0.164745
C	 1.6288662042	-1.3596778095	-0.6165242388	 0.119254
N	 3.0156764977	-1.032006407	-0.232584102	-0.348467
C	 2.2831553873	-1.0096334069	 1.1520506997	-0.071258
C	 1.2000021759	-1.9400806328	 0.7712833636	-0.216893
C	 0.7306686913	-0.5983216551	 1.2208391876	 0.323558
C	 0.1742988403	-0.3530621404	 2.6034172756	-0.497601
H	 0.9145495401	 1.975544188	-0.0226978891	 0.132667
H	-0.5622249409	 1.8514684963	-0.992136755	 0.127459
H	-0.6748385797	 1.8940423305	 0.7791330277	 0.107869
H	-0.9920343616	-0.4284362768	-0.0912966203	 0.077824
H	 3.5724229264	-1.8910591232	-0.1495174765	 0.222085
H	 2.9026999922	-0.9741526036	 2.0433115375	 0.109399
H	 0.9354561658	-2.9450625969	 1.0754681234	 0.101531
H	 0.7004672236	-0.9383157696	 3.3635665979	 0.121087
H	 0.2498244457	 0.7030574228	 2.882068998	 0.132806
H	-0.8847067472	-0.6337300656	 2.6450944314	 0.12613
132.6414	200.346	218.7572	242.8577	269.538	338.6641	414.7177	471.6205	540.9777	563.8139	608.062	647.0452	726.5249	772.1765	797.1154	832.1352	851.3971	892.1574	914.9883	986.9758	1030.0591	1031.9426	1055.1215	1076.1858	1109.8197	1126.8472	1134.9624	1150.4096	1198.2046	1225.3385	1272.6152	1290.361	1341.8032	1354.6476	1402.1287	1414.2274	1479.8467	1490.3388	1493.2759	1498.0989	1618.1163	2966.2194	3028.4951	3039.0753	3090.2543	3103.4337	3112.081	3127.7021	3157.7417	3187.3572	3358.6469
CC1N=C2NC3C2C13C	C[C@H]1[N][C]2N[C@@H]3[C@H]2[C@]13C	
InChI=1S/C7H10N2/c1-3-7(2)4-5(7)9-6(4)8-3/h3-5H,1-2H3,(H,8,9)	InChI=1S/C7H10N2/c1-3-7(2)4-5(7)9-6(4)8-3/h3-5H,1-2H3,(H,8,9)/t3-,4-,5-,7+/m1/s1
