16
gdb 42821	3.1323	1.49973	1.33233	3.5099	68.6	-0.2431	-0.0188	0.2243	984.843	0.125238	-437.83583	-437.828805	-437.827861	-437.867356	27.667	
O	 0.0372340757	-0.0227977276	-0.0110706768	-0.306557
C	 0.0112890133	 1.1616152023	 0.0799436647	 0.453675
C	-1.0329872942	 2.307236328	 0.0428852838	-0.046314
C	-0.8069412303	 3.0292374515	 1.3865523812	-0.331689
C	 0.7413831016	 3.0551342687	 1.3392813283	 0.369954
C	 1.58865529	 4.1230602614	 1.9067663627	-0.306841
N	 1.6226158643	 2.7523440789	 2.4632488919	-0.365616
C	 0.9825248822	 2.3646915431	-0.0003127297	-0.11801
O	-0.0635189628	 2.9673803301	-0.8373900567	-0.290036
H	-2.0349039775	 2.2159478691	-0.3706214894	 0.108413
H	-1.2502683701	 4.0280910262	 1.3795072661	 0.125433
H	-1.2015232502	 2.4676864663	 2.2397974997	 0.119046
H	 2.4989434118	 4.4340506908	 1.4011644455	 0.126212
H	 1.0956811562	 4.9063104183	 2.4778772933	 0.117444
H	 1.0948487669	 2.7093108548	 3.3314794457	 0.235958
H	 1.9784827331	 2.3437685582	-0.4350133303	 0.108929
100.1949	168.5145	260.4032	323.9042	398.9479	454.6921	492.3048	539.0451	637.8969	752.2072	772.1786	856.498	861.771	882.754	895.3389	934.3078	945.5565	967.5842	982.592	1016.0981	1045.3411	1076.4835	1122.938	1146.3111	1172.2573	1201.9599	1216.3323	1258.6734	1270.4642	1290.6518	1309.8745	1419.879	1477.8114	1514.4746	1929.3146	3051.7583	3103.072	3105.633	3156.7176	3169.8119	3189.3639	3501.3811
O=C1C2CC3(CN3)C1O2	O=C1[C@H]2C[C@]3(CN3)[C@@H]1O2	
InChI=1S/C6H7NO2/c8-4-3-1-6(2-7-6)5(4)9-3/h3,5,7H,1-2H2	InChI=1S/C6H7NO2/c8-4-3-1-6(2-7-6)5(4)9-3/h3,5,7H,1-2H2/t3-,5-,6+/m1/s1
