21
gdb 86980	6.4259	0.65029	0.62893	1.3075	86.29	-0.2491	0.0356	0.2847	1817.4012	0.179938	-387.035293	-387.025362	-387.024418	-387.070881	36.375	
C	-0.3243733604	 1.391896851	-0.0056648381	-0.390587
C	 0.0364668276	-0.0904159718	 0.0457056894	 0.019536
C	 1.1787374947	-0.5143279228	-0.9279221874	-0.269578
C	 2.1650720382	-0.4828532063	 0.2541550156	 0.188065
C	 0.9590528717	-0.4906529955	 1.2386946905	-0.264811
O	 3.0561150978	-1.5717417213	 0.2724548876	-0.254555
C	 3.939021367	-1.5380282377	 1.3783630862	-0.218794
C	 4.8359219548	-2.6856204528	 1.3358242829	 0.280476
C	 5.586647672	-3.6227029665	 1.3252435365	-0.417157
H	 0.5651028878	 2.0273968984	 0.0750222062	 0.113239
H	-0.8244561482	 1.6428614718	-0.9475292389	 0.11513
H	-0.998597792	 1.662041469	 0.8145179677	 0.114124
H	-0.8743474084	-0.6888796785	-0.0398020612	 0.072676
H	 1.06051239	-1.5403727373	-1.2850256546	 0.114337
H	 1.3894372629	 0.1386530527	-1.7785999114	 0.096853
H	 2.7270427954	 0.4623892458	 0.30915906	 0.06345
H	 0.9890031072	 0.1873690566	 2.0961305571	 0.092242
H	 0.7609491018	-1.5076060803	 1.5891909393	 0.107299
H	 4.5293806569	-0.6052286303	 1.370502753	 0.1169
H	 3.3766607679	-1.5461787259	 2.3267220139	 0.121951
H	 6.2478335054	-4.4534526082	 1.3091714657	 0.199203
43.3864	75.3771	98.8287	131.0893	231.4075	245.3862	305.1183	325.5174	336.1715	426.2139	440.8465	523.4499	607.6339	673.0777	690.5896	801.3642	818.2031	893.0202	900.3703	940.3985	956.0851	982.3041	1024.5769	1032.2941	1066.423	1079.7905	1137.5833	1146.2945	1187.8237	1210.9128	1244.5857	1254.5567	1270.79	1273.3503	1299.7221	1362.6217	1374.5465	1410.3599	1432.8353	1464.9237	1489.32	1496.7648	1499.4694	1502.063	2248.1937	2953.1764	2974.4962	2979.3552	3024.2144	3050.5244	3057.4192	3065.7777	3093.3038	3093.5873	3109.8504	3119.6253	3506.6311
CC1CC(C1)OCC#C	C[C@H]1C[C@@H](C1)OCC#C	
InChI=1S/C8H12O/c1-3-4-9-8-5-7(2)6-8/h1,7-8H,4-6H2,2H3	InChI=1S/C8H12O/c1-3-4-9-8-5-7(2)6-8/h1,7-8H,4-6H2,2H3/t7-,8-
