25
gdb 100134	3.49416	0.70847	0.68582	0.9239	95.52	-0.2558	0.0599	0.3156	1798.881	0.22552	-352.335916	-352.324306	-352.323362	-352.372831	43.094	
C	-0.1356174365	 1.4862528793	 0.2247665017	-0.406575
C	 0.0342953978	-0.0126009334	-0.0494979604	-0.180104
C	 0.7723179626	-0.4181946597	-1.3545273574	 0.265385
C	 0.0120388348	 0.1166366821	-2.582726573	-0.413669
C	 2.2078944643	 0.1400214462	-1.3482100555	-0.413669
C	 0.7950879625	-1.9687193274	-1.3656578728	-0.182568
C	 1.4816646157	-2.6452683545	-2.5729082707	-0.387878
C	 1.4437805969	-4.1001562782	-2.478092319	 0.297331
C	 1.3984939904	-5.2971197482	-2.3752465636	-0.436231
H	 0.8253591204	 2.0024701516	 0.3102005815	 0.117679
H	-0.7158886294	 1.9863846148	-0.5565185619	 0.117675
H	-0.6683586658	 1.635434559	 1.169337689	 0.113946
H	 0.5684931072	-0.4653157896	 0.796287407	 0.091028
H	-0.9585543959	-0.4813751849	-0.0623135792	 0.091029
H	-0.0449571094	 1.2090138373	-2.5707512792	 0.113792
H	 0.5045118838	-0.1635881377	-3.5191064875	 0.111638
H	-1.0125882752	-0.2712433112	-2.6140637759	 0.109211
H	 2.7733823945	-0.2311277751	-0.4857913891	 0.109206
H	 2.7563885791	-0.1394019207	-2.2531637004	 0.111644
H	 2.2095960469	 1.2330138049	-1.3029574254	 0.113789
H	 1.2911496594	-2.321169287	-0.4533719933	 0.102566
H	-0.2363311962	-2.3374288499	-1.3128696297	 0.102567
H	 0.9984847439	-2.3370421518	-3.5076826266	 0.130632
H	 2.5263630248	-2.3208172125	-2.6478002014	 0.130633
H	 1.3649259236	-6.3551684432	-2.2963656469	 0.190944
44.9491	82.2779	91.8454	107.7435	215.3254	217.3704	250.1996	283.1631	302.5564	332.6817	349.8508	357.753	377.5865	415.4895	478.9417	561.2701	613.9267	632.4142	733.3582	757.7944	785.9282	865.9105	938.549	945.9046	970.9445	982.5235	1002.2	1016.0968	1040.7396	1088.309	1093.1635	1182.188	1206.4787	1248.8104	1256.469	1305.6588	1311.124	1363.1336	1372.3646	1385.5007	1402.6921	1412.4853	1427.4538	1468.5627	1480.7063	1482.9783	1489.0252	1492.4518	1507.5457	1509.1676	1515.8267	1518.3278	2237.6899	3011.1001	3022.9167	3028.372	3034.6106	3035.308	3042.3201	3044.3496	3054.3366	3076.8423	3095.904	3098.1748	3100.8069	3101.7342	3108.6469	3114.6028	3508.5562
CCC(C)(C)CCC#C	CCC(C)(C)CCC#C	
InChI=1S/C9H16/c1-5-7-8-9(3,4)6-2/h1H,6-8H2,2-4H3	InChI=1S/C9H16/c1-5-7-8-9(3,4)6-2/h1H,6-8H2,2-4H3
