17
gdb 125673	2.9973	1.19646	0.93433	3.8908	75.61	-0.2353	-0.0236	0.2117	1231.7765	0.135906	-418.045877	-418.037008	-418.036064	-418.080691	31.305	
C	-0.092583932	 1.471846711	 0.1517937703	-0.50335
C	-0.0185000147	-0.0204935604	 0.0746139717	 0.286869
N	 0.013634499	-0.6447373122	-1.1001329734	-0.280213
N	 0.088089874	-1.9552040405	-0.7912306744	-0.186038
C	 0.1059959556	-2.1853407035	 0.5415863023	-0.123998
C	 0.0425156466	-0.9492682897	 1.15305941	 0.124515
C	-0.0079068518	-0.6371841021	 2.6212710961	-0.395002
C	-1.4287450204	-0.2671677971	 3.0218149386	 0.167897
O	-1.7680867267	 0.8108380098	 3.4350315382	-0.238632
H	 0.8175484755	 1.8935948992	 0.5945757519	 0.129948
H	-0.2102659023	 1.8895472241	-0.8499246278	 0.140909
H	-0.9312245029	 1.8014275853	 0.773482734	 0.145389
H	 0.1282143181	-2.6297009113	-1.5357550031	 0.27572
H	 0.1696285015	-3.1826335116	 0.9490379355	 0.134511
H	 0.2920363926	-1.5178624883	 3.202777232	 0.118445
H	 0.6501959244	 0.1948012436	 2.8888176135	 0.126276
H	-2.1673871766	-1.0868635762	 2.8656234545	 0.076755
48.4622	56.0328	114.1989	164.3858	227.9795	264.545	374.89	402.5574	472.0274	496.543	639.8087	671.8892	706.5759	719.3651	793.6941	850.7788	942.5814	1005.6001	1010.5117	1055.938	1071.4457	1083.8933	1145.3331	1198.1909	1237.6173	1284.2868	1330.0413	1398.8079	1416.4621	1419.4439	1459.6826	1477.4104	1484.2058	1491.7977	1511.8141	1604.6134	1830.3098	2869.3593	3032.8515	3034.4723	3088.7523	3096.3656	3137.0296	3253.93	3679.5575
CC1=NNC=C1CC=O	Cc1n[nH]cc1CC=O	
InChI=1S/C6H8N2O/c1-5-6(2-3-9)4-7-8-5/h3-4H,2H2,1H3,(H,7,8)	InChI=1S/C6H8N2O/c1-5-6(2-3-9)4-7-8-5/h3-4H,2H2,1H3,(H,7,8)
