16
gdb 21185	3.4078	1.84034	1.21002	1.6652	67.95	-0.1782	0.043	0.2212	969.1695	0.132843	-376.10817	-376.100051	-376.099106	-376.14057	29.718	
C	-0.0127781588	 1.4411274884	-0.0279512586	-0.321919
N	-0.1167173215	-0.0068244824	 0.0153074389	-0.402206
C	 0.5856828525	-0.6550688929	 1.0392259078	 0.197312
C	 1.2321783725	-0.151308888	 2.1507203711	-0.113377
N	 1.7213806144	-1.2292086343	 2.8268390531	-0.209549
N	 1.4270748912	-2.4067145916	 2.2309817893	-0.299296
C	 0.7427220523	-2.063136092	 1.1476057905	 0.282163
N	 0.3027728148	-2.9931550105	 0.1946428705	-0.603203
H	 1.0259706533	 1.810862632	-0.0708702751	 0.105257
H	-0.5526092026	 1.8182862342	-0.9000125093	 0.120803
H	-0.4817066357	 1.8674326354	 0.8660882225	 0.127869
H	 0.0883856937	-0.4320463547	-0.8815688797	 0.235698
H	 1.382819822	 0.8570710302	 2.4989535557	 0.120402
H	 2.2287870888	-1.2352718558	 3.692242783	 0.267645
H	 0.4761460995	-3.9391256368	 0.5143175162	 0.247614
H	-0.6859915564	-2.8838908112	-0.0057034759	 0.244787
76.8829	169.8678	203.4687	242.2323	255.9846	294.6541	314.2704	386.698	525.1937	602.5907	633.1187	697.1385	710.8046	749.5261	796.3136	847.8995	942.0039	1064.4479	1071.086	1114.2461	1151.7943	1164.2488	1234.8955	1246.5428	1338.2138	1440.4679	1459.3177	1474.0973	1484.98	1493.1365	1520.0478	1563.9498	1628.4086	1663.8666	2958.4985	3057.8136	3114.1994	3268.834	3506.5429	3534.3061	3603.6533	3705.1986
CNC1=CNN=C1N	CNc1c[nH]nc1N	
InChI=1S/C4H8N4/c1-6-3-2-7-8-4(3)5/h2,6H,1H3,(H3,5,7,8)	InChI=1S/C4H8N4/c1-6-3-2-7-8-4(3)5/h2,6H,1H3,(H3,5,7,8)
