18
gdb 66332	2.45623	1.40254	1.29687	4.2272	77.86	-0.2331	-0.0092	0.2239	1084.4918	0.150018	-398.132567	-398.124115	-398.123171	-398.165429	32.431	
N	-0.0574496112	 1.4875031387	 0.0965530909	-0.534571
C	 0.0209532943	 0.0206191115	 0.0041404362	 0.056766
C	-1.431339609	-0.5453850721	 0.0260168298	-0.186461
N	-1.523003094	-1.9537800727	-0.30524395	-0.294907
C	-0.9783440518	-2.2606209294	-1.6271329917	-0.218171
C	 0.2596817274	-1.4811332349	-1.9915341033	-0.058011
C	 0.730767001	-0.4826286042	-1.2476609261	-0.096609
C	 0.7427502381	-0.4694868961	 1.194125446	 0.283983
N	 1.3052251028	-0.8920987309	 2.1116898821	-0.342571
H	 0.8758834463	 1.8854117258	 0.1614022481	 0.240481
H	-0.4630779178	 1.8401559347	-0.7669701302	 0.235054
H	-1.8778839114	-0.358262794	 1.005005153	 0.13247
H	-2.0049952526	 0.0282257265	-0.7131301553	 0.106924
H	-1.044566482	-2.501928787	 0.402266137	 0.235649
H	-0.7722499157	-3.3358714179	-1.6792004968	 0.122206
H	-1.7532224298	-2.0731505408	-2.3879876123	 0.121075
H	 0.7605643723	-1.7545508474	-2.9177213667	 0.100884
H	 1.6388051232	 0.0487356903	-1.5219095506	 0.09581
81.2241	148.301	187.3182	254.5766	287.2845	304.0415	350.8566	430.3958	474.7623	501.7378	570.7743	614.693	672.7236	722.6234	762.193	817.6381	876.2532	910.1013	919.9695	962.7323	1004.5971	1014.1024	1060.3621	1115.9811	1139.8002	1180.8832	1213.5172	1252.1578	1310.0833	1329.0513	1363.6584	1389.5375	1404.8373	1470.1377	1478.5515	1500.8325	1651.644	1711.6595	2348.5683	2982.0041	3032.3328	3057.2026	3110.0223	3143.9352	3167.2209	3479.5376	3525.1348	3562.6389
NC1(CNCC=C1)C#N	N[C@]1(CNCC=C1)C#N	
InChI=1S/C6H9N3/c7-4-6(8)2-1-3-9-5-6/h1-2,9H,3,5,8H2	InChI=1S/C6H9N3/c7-4-6(8)2-1-3-9-5-6/h1-2,9H,3,5,8H2/t6-/m0/s1
