17
gdb 87603	3.35916	1.3372	1.22871	2.8632	74.21	-0.2336	0.0024	0.236	1057.1288	0.13585	-421.786117	-421.778576	-421.777632	-421.817962	29.939	
O	-0.0078951826	 1.3805877901	-0.0792473094	-0.418073
C	 0.017128752	-0.0145362152	-0.0114728018	 0.058773
C	-0.4572877059	-0.6996324964	 1.2378834578	-0.384701
C	-1.3236215522	-0.7003810383	-0.0195469274	 0.311077
C	-2.6051712401	 0.0579597995	-0.0940468762	-0.14024
C	-3.5548034353	-0.6470572616	-0.7208024793	-0.114499
C	-2.9960015958	-1.9471063964	-1.2005818484	-0.011576
O	-1.9182272577	-1.792228508	-2.1579888207	-0.260003
C	-1.5825755811	-1.9762707207	-0.7812829894	-0.071375
H	 0.7219562474	 1.7158564438	 0.4522469684	 0.290363
H	 0.8128568002	-0.4895798236	-0.5852423433	 0.096894
H	 0.0058233534	-1.6365182965	 1.5327919279	 0.115931
H	-0.785154655	-0.0681417958	 2.0565927046	 0.119037
H	-2.6967330563	 1.0685306093	 0.2821330317	 0.116831
H	-4.5714563854	-0.3244019641	-0.90437487	 0.103019
H	-3.606847945	-2.833701177	-1.3404225877	 0.095898
H	-1.035569751	-2.8860011292	-0.5449619368	 0.092644
116.2154	157.9308	224.4138	287.2575	342.8713	418.9116	435.3098	485.4652	557.4846	634.6603	746.023	768.3297	828.8971	842.1618	850.9002	860.7941	915.7744	930.5925	951.8046	976.3657	1016.0182	1022.9849	1041.6526	1082.4563	1103.0989	1121.4417	1173.2676	1246.3551	1260.6237	1280.6228	1299.3382	1322.4683	1378.5049	1405.1317	1429.3608	1482.9544	1643.8717	3101.7194	3123.3147	3137.7017	3164.1328	3209.0932	3217.1966	3232.0031	3803.8332
OC1CC11C=CC2OC12	O[C@H]1C[C@]21C=C[C@H]1O[C@@H]21	
InChI=1S/C7H8O2/c8-5-3-7(5)2-1-4-6(7)9-4/h1-2,4-6,8H,3H2	InChI=1S/C7H8O2/c8-5-3-7(5)2-1-4-6(7)9-4/h1-2,4-6,8H,3H2/t4-,5+,6-,7+/m1/s1
