20
gdb 91130	2.8261	1.6381	1.42702	0.7921	77.75	-0.2068	0.0596	0.2664	1008.1171	0.172389	-403.066418	-403.058823	-403.057879	-403.098467	30.225	
C	-0.0280820085	 1.589681097	-0.1303347818	-0.425608
C	 0.0295421254	 0.0747357071	-0.0352306121	 0.090876
C	 0.8694324378	-0.7983448303	-1.0173549784	-0.298449
C	 1.2640680366	-1.63569868	 0.2228784294	 0.020793
C	 2.6606567561	-1.4234435546	 0.8628558595	 0.096574
O	 3.5433601029	-0.544025443	 0.150445414	-0.286955
C	 3.0561741875	 0.6034858085	 0.8884923926	-0.104971
C	 2.0273663633	-0.2578130004	 1.6675035232	-0.052473
N	 0.6626231003	-0.6063831097	 1.1539191203	-0.169449
H	 0.9416288101	 2.0568265895	-0.310564392	 0.120479
H	-0.6883777516	 1.8789575912	-0.9551373931	 0.122436
H	-0.4450829982	 2.0111716373	 0.7909613016	 0.127192
H	-1.00699701	-0.2866333698	-0.0369997986	 0.087041
H	 0.3188671089	-1.3140734372	-1.8073550428	 0.097631
H	 1.7284770038	-0.2823935169	-1.4539561308	 0.121697
H	 0.8478446764	-2.6465653932	 0.2843764042	 0.069664
H	 3.17565874	-2.2928712189	 1.2784907472	 0.079832
H	 3.8406995381	 1.004891133	 1.5436196454	 0.106879
H	 2.7023826415	 1.4006839473	 0.2324314437	 0.109103
H	 2.0501847995	-0.1453700869	 2.7523732786	 0.087708
81.3676	166.2881	225.6108	267.4661	292.3836	363.0075	513.8857	549.9536	624.2192	649.453	720.9628	805.0908	837.1321	864.9477	871.5727	902.6838	941.3789	957.5148	974.4106	998.8211	1021.7643	1066.858	1077.2057	1106.0284	1137.6657	1155.7042	1180.4998	1189.6778	1198.4558	1214.0791	1227.1275	1250.536	1303.2249	1313.8381	1319.6746	1333.2579	1354.025	1396.3868	1408.6958	1486.8882	1494.2082	1497.1056	1521.2548	3008.5568	3016.0632	3038.7892	3045.2777	3064.5186	3078.7469	3094.3336	3097.8887	3106.9375	3121.4248	3135.1958
CC1CC2C3OCC3N12	C[C@H]1C[C@H]2[C@H]3OC[C@H]3N12	
InChI=1S/C7H11NO/c1-4-2-5-7-6(3-9-7)8(4)5/h4-7H,2-3H2,1H3	InChI=1S/C7H11NO/c1-4-2-5-7-6(3-9-7)8(4)5/h4-7H,2-3H2,1H3/t4-,5-,6+,7+/m0/s1
