19
gdb 86722	3.15375	1.01975	0.83478	2.1388	79.82	-0.2449	-0.0281	0.2167	1380.0941	0.157878	-423.051806	-423.042461	-423.041517	-423.086827	33.912	
C	-0.0620702317	 1.4880319804	 0.0609530939	-0.493428
C	-0.0161818203	-0.0048101704	-0.0133376573	 0.284533
C	 0.111080174	-0.7706754979	-1.1002190773	-0.198427
C	 0.1457314603	-2.2556630364	-0.7963477687	-0.106195
C	-0.1380171531	-2.2977023597	 0.7318495879	-0.286284
C	 0.0023448549	-0.8442737997	 1.2503354641	 0.051638
O	 1.1851726046	-0.605637149	 2.0133151387	-0.429897
C	-0.9278250685	-2.9921107721	-1.578553399	 0.159291
O	-0.7270518426	-3.8277900067	-2.4195461475	-0.249717
H	 0.7165959447	 1.8583905405	 0.7367378483	 0.141374
H	 0.0721948815	 1.9517823554	-0.9194995874	 0.125154
H	-1.0205625864	 1.8290025206	 0.472446966	 0.132258
H	 0.1914346716	-0.3976386307	-2.1164368555	 0.105658
H	 1.1049807305	-2.7065430235	-1.0755252339	 0.09469
H	-1.1586864206	-2.6548556027	 0.9107984838	 0.109899
H	 0.535642367	-2.9698047299	 1.2676442378	 0.11983
H	-0.8086860751	-0.5837339472	 1.9388798991	 0.090423
H	 1.9384394272	-0.7330908159	 1.4248432127	 0.277829
H	-1.964527858	-2.6764218152	-1.3090689257	 0.07137
40.6735	71.9348	132.0185	177.5846	240.2753	289.0954	304.3359	353.9605	385.721	414.8298	463.4698	590.4713	619.1324	746.3728	828.0165	869.0985	874.8251	934.5213	947.6489	998.6547	1025.7884	1044.6382	1064.2357	1082.4711	1102.4438	1172.3609	1205.2623	1254.141	1267.0046	1286.0446	1291.2399	1319.2926	1358.4376	1407.7401	1419.1585	1430.2048	1476.0626	1477.4243	1489.7118	1711.8432	1834.1595	2844.4854	3025.776	3039.8281	3043.9653	3058.2623	3080.0242	3112.0407	3119.0871	3183.1116	3791.3375
CC1=CC(CC1O)C=O	CC1=C[C@@H](C[C@H]1O)C=O	
InChI=1S/C7H10O2/c1-5-2-6(4-8)3-7(5)9/h2,4,6-7,9H,3H2,1H3	InChI=1S/C7H10O2/c1-5-2-6(4-8)3-7(5)9/h2,4,6-7,9H,3H2,1H3/t6-,7+/m0/s1
