23
gdb 111240	3.17748	1.21116	1.11103	1.0515	85.11	-0.2399	0.0842	0.3241	1236.9826	0.208189	-388.282527	-388.274087	-388.273143	-388.315345	33.371	
C	-0.0422426708	 1.2914228839	-0.2460831221	-0.244737
O	-0.1007308717	 0.0026924714	 0.3206795752	-0.265063
C	-1.3560621129	-0.6209888791	 0.169709072	 0.186804
C	-1.597317325	-1.2797813951	-1.223199748	-0.050595
C	-0.8085892024	-2.5080542264	-0.6754393859	-0.23947
C	-1.2988943941	-2.0582387471	 0.7350662427	-0.035804
C	-2.7327225262	-2.5479470951	 1.0053620512	-0.213969
C	-3.5363988983	-2.6482322446	-0.3135895536	-0.194703
C	-3.0978457307	-1.5949531772	-1.3589628472	-0.208536
H	 0.9545235287	 1.6906926565	-0.0426899172	 0.124856
H	-0.2007250048	 1.2789496577	-1.3346035045	 0.105822
H	-0.7918889242	 1.9637548321	 0.2008504559	 0.102097
H	-2.1543681167	 0.0410311907	 0.546078645	 0.044074
H	-1.2063967129	-0.7602023725	-2.1020319509	 0.058458
H	-1.0788486138	-3.505322351	-1.0316457565	 0.085573
H	 0.2669332861	-2.3628024397	-0.7801225203	 0.108977
H	-0.6362851813	-2.206904757	 1.5908500007	 0.065477
H	-2.7153416908	-3.5264948688	 1.4981386784	 0.093245
H	-3.2173510498	-1.8560666325	 1.7060444683	 0.095386
H	-3.376030775	-3.6435771683	-0.7403344327	 0.104636
H	-4.6110887479	-2.5774960828	-0.1196620352	 0.091682
H	-3.6671225478	-0.664341125	-1.235056041	 0.093072
H	-3.3246391179	-1.9634379304	-2.365822944	 0.092718
103.9843	147.2389	176.3526	217.1043	276.9503	296.3375	369.715	422.593	460.6761	501.3822	601.2453	769.3769	816.0211	835.4491	848.9934	888.6788	909.981	917.4729	940.4416	969.574	1000.8627	1053.9023	1071.7311	1095.6108	1098.4055	1108.4394	1122.0788	1148.8752	1183.2472	1185.4335	1221.8931	1239.798	1248.8935	1262.498	1277.0935	1302.3203	1316.5926	1320.0319	1354.9492	1368.3899	1373.1898	1399.4152	1479.0825	1485.3633	1486.9681	1491.0225	1494.6569	1509.7703	1515.6805	2951.58	2975.2717	3017.2081	3021.5022	3022.4651	3039.9689	3057.167	3060.8935	3065.1801	3072.9785	3082.7706	3086.9039	3111.8578	3132.9185
COC1C2CC1CCC2	CO[C@H]1[C@H]2C[C@@H]1CCC2	
InChI=1S/C8H14O/c1-9-8-6-3-2-4-7(8)5-6/h6-8H,2-5H2,1H3	InChI=1S/C8H14O/c1-9-8-6-3-2-4-7(8)5-6/h6-8H,2-5H2,1H3/t6-,7+,8+
