14
gdb 127757	3.66996	1.66247	1.15253	5.0063	70.19	-0.2318	-0.025	0.2069	984.8348	0.103569	-432.859906	-432.853123	-432.852179	-432.891287	25.438	
C	-0.0144993848	 1.4515439912	-0.0859115339	-0.345374
N	-0.0064034386	 0.0131132914	 0.0583526772	-0.120186
N	-0.0413351591	-0.7780736833	-1.0623027317	-0.15616
N	-0.0275590129	-2.0412358894	-0.7054964918	-0.298283
C	 0.0164868281	-2.0425147841	 0.634048411	 0.380129
C	 0.0313452379	-0.7707191301	 1.1615752718	 0.32069
C	 0.0783549986	-0.9185242379	 2.5844260496	-0.347431
C	 0.0871809214	-2.272244065	 2.7717687199	 0.015099
O	 0.0500654628	-2.9903105122	 1.6003359539	-0.1917
H	 0.8896476699	 1.889375227	 0.347413644	 0.146669
H	-0.0472947576	 1.6673084257	-1.1539557431	 0.172415
H	-0.8930393465	 1.884984259	 0.4012148139	 0.146702
H	 0.1023767443	-0.1725356959	 3.3615920529	 0.128232
H	 0.1177652065	-2.8699979265	 3.6682836163	 0.149198
110.6733	165.6315	250.4474	266.4864	376.0102	540.8223	590.0681	624.1992	656.8085	710.7464	739.9059	775.6108	820.766	834.0141	919.5794	983.1925	1043.076	1132.2901	1152.9952	1175.894	1215.825	1271.5058	1280.0775	1368.7635	1441.9238	1475.9837	1483.5145	1504.3554	1517.8809	1563.2433	1605.9745	3044.6072	3107.8189	3161.1026	3264.4065	3285.1293
CN1N=NC2=C1C=CO2	Cn1nnc2c1cco2	
InChI=1S/C5H5N3O/c1-8-4-2-3-9-5(4)6-7-8/h2-3H,1H3	InChI=1S/C5H5N3O/c1-8-4-2-3-9-5(4)6-7-8/h2-3H,1H3
