15
gdb 124352	2.72801	1.70294	1.0563	2.7038	70.29	-0.2236	-0.05	0.1736	1065.5955	0.112821	-450.15616	-450.147944	-450.147	-450.189106	30.237	
C	-0.0877192185	 1.4775091097	 0.0002151701	-0.481189
C	 0.0653078054	-0.0192273463	-0.006883537	 0.440038
O	 1.1301595471	-0.6009147554	 0.0078967958	-0.338928
N	-1.1339595283	-0.748038645	-0.0288021299	-0.089647
N	-2.3799202588	-0.1184386141	 0.0302159755	-0.159445
N	-3.2604764476	-1.0493430518	 0.0606534022	-0.166077
C	-2.6688806222	-2.2814873305	 0.0231516563	-0.155867
C	-1.3015731933	-2.1165631286	-0.0360010444	 0.38946
N	-0.2634969379	-2.9901047487	-0.1504244852	-0.597876
H	 0.9069257978	 1.9216624014	 0.0080978365	 0.145981
H	-0.6507324045	 1.8065099504	-0.8767641964	 0.169678
H	-0.6599776927	 1.796731402	 0.874735529	 0.170889
H	-3.2446130166	-3.1917749747	 0.035305696	 0.120379
H	-0.4372569605	-3.9379655685	 0.1400680517	 0.265766
H	 0.6519330406	-2.60745762	 0.0404553999	 0.286839
85.4908	122.0151	146.95	230.2558	309.4579	341.361	391.5107	444.4682	491.1088	530.1732	591.7367	666.5154	691.2665	720.4551	728.6195	785.2341	949.212	974.0876	1060.4533	1069.9415	1098.7994	1129.2941	1163.8596	1307.3763	1347.5926	1398.5286	1404.3253	1455.8077	1465.5866	1480.587	1583.0309	1655.4317	1795.1391	3065.6876	3133.4729	3173.5207	3276.2253	3561.2763	3697.0515
CC(=O)N1N=NC=C1N	CC(=O)n1nncc1N	
InChI=1S/C4H6N4O/c1-3(9)8-4(5)2-6-7-8/h2H,5H2,1H3	InChI=1S/C4H6N4O/c1-3(9)8-4(5)2-6-7-8/h2H,5H2,1H3
