15
gdb 10551	3.05805	1.53752	1.14441	4.7325	62.94	-0.2764	0.003	0.2794	1045.7883	0.116718	-399.766916	-399.758494	-399.75755	-399.800449	28.841	
C	-0.0121497098	 1.3461272884	-0.1247649509	-0.227685
O	-0.041363118	-0.0626112092	-0.1993857186	-0.227644
C	-1.2907935019	-0.6048687028	 0.1310053617	-0.126279
C	-1.1767949123	-2.1121774168	 0.0998155809	 0.245653
C	-2.3493185732	-2.9473065305	-0.2297536307	-0.21099
O	-1.3097030943	-2.7390793922	-1.1778155314	-0.240039
C	-0.1464789877	-2.6780142273	 0.9564320064	 0.265546
N	 0.6509503517	-3.1252563611	 1.6624160492	-0.327597
H	 1.0000661166	 1.6603395643	-0.3858608717	 0.141224
H	-0.722718813	 1.8045503445	-0.8294226083	 0.110761
H	-0.2484744196	 1.7027872504	 0.8895014718	 0.11222
H	-1.6111015257	-0.2840541994	 1.1372983767	 0.106374
H	-2.069756916	-0.3025425795	-0.5872915397	 0.104543
H	-2.418588973	-3.949603806	 0.1866584806	 0.143602
H	-3.2953559438	-2.4545177327	-0.4487759761	 0.13031
68.9646	93.6632	136.5525	199.1825	227.1998	244.5471	344.4146	379.4703	427.6462	577.9976	590.6473	738.7235	838.3252	922.8893	955.9449	1013.7288	1036.1616	1132.9148	1162.1644	1173.3974	1184.6559	1228.4439	1240.0426	1286.5233	1359.8605	1429.9528	1478.1402	1487.071	1494.3622	1516.9564	1521.0078	2364.7205	2957.5031	2979.3384	2999.5622	3027.0786	3093.3674	3130.1395	3189.9212
COCC1(CO1)C#N	COC[C@]1(CO1)C#N	
InChI=1S/C5H7NO2/c1-7-3-5(2-6)4-8-5/h3-4H2,1H3	InChI=1S/C5H7NO2/c1-7-3-5(2-6)4-8-5/h3-4H2,1H3/t5-/m0/s1
