20
gdb 17841	3.60591	1.50613	1.34725	1.5655	74.4	-0.2442	0.0779	0.3221	1017.1013	0.176976	-348.972067	-348.963718	-348.962773	-349.005154	31.71	
C	 0.006946052	 1.4737867769	-0.0960024864	-0.397749
C	 0.0396588959	-0.0410762058	 0.1207546436	 0.118525
O	 0.6841658914	-0.3739960446	 1.351924011	-0.43425
C	-1.3496436583	-0.6458550652	 0.0411493031	-0.01778
C	-1.9969842566	-1.2248807349	-1.1925208895	-0.074861
C	-0.990005959	-1.9853703637	-2.0673959248	-0.230197
C	-0.6193296763	-2.8819286619	-0.8406811996	-0.230847
C	-1.64727261	-2.1192472785	 0.0059651012	-0.072946
H	 1.0141869286	 1.8919091566	-0.0192467668	 0.120169
H	-0.4033333268	 1.7202331332	-1.0809361892	 0.117232
H	-0.6227232952	 1.9602818928	 0.6595836906	 0.102257
H	 0.6842074247	-0.4870194679	-0.6426055343	 0.086656
H	 0.0945243982	-0.1139495031	 2.0680834099	 0.272938
H	-2.0726114359	-0.1011263502	 0.651249217	 0.071693
H	-2.9685368132	-0.8800198224	-1.5274708396	 0.080082
H	-1.4829160953	-2.5606141568	-2.8542709516	 0.101774
H	-0.1886179743	-1.3984903341	-2.5280125509	 0.096727
H	-0.8949732853	-3.9262665855	-1.0005559874	 0.099575
H	 0.4139392609	-2.8465206895	-0.4837268899	 0.111529
H	-2.3120133856	-2.5730068355	 0.7317803035	 0.079473
38.2754	158.7071	182.9429	234.8914	243.55	290.681	351.5912	435.2517	496.1235	542.2233	743.3905	767.1138	792.3383	800.6394	865.4175	919.4187	946.3507	958.3294	962.6499	1016.152	1022.7168	1043.488	1074.7771	1096.5213	1106.3366	1121.2591	1146.7597	1208.1648	1223.2536	1244.0016	1263.3554	1280.4721	1304.4833	1334.5525	1360.646	1399.6318	1417.5447	1452.8346	1485.042	1489.3566	1495.1435	1506.931	3023.6009	3045.5251	3059.4075	3066.1967	3088.6784	3095.6245	3097.6504	3116.1084	3117.8211	3167.7332	3179.9645	3801.754
CC(O)C1C2CCC12	C[C@@H](O)[C@H]1[C@H]2CC[C@@H]12	
InChI=1S/C7H12O/c1-4(8)7-5-2-3-6(5)7/h4-8H,2-3H2,1H3	InChI=1S/C7H12O/c1-4(8)7-5-2-3-6(5)7/h4-8H,2-3H2,1H3/t4-,5-,6+,7-/m1/s1
