19
gdb 92359	2.19823	1.94982	1.54335	2.3599	69.43	-0.2477	0.066	0.3137	963.4145	0.160212	-460.173989	-460.166042	-460.165098	-460.206004	31.494	
C	-0.0192124314	 1.4528851378	 0.0233487372	-0.498431
C	 0.0517000941	-0.052455658	-0.0136140636	 0.344006
C	 0.5949648069	-0.6963227561	-1.3083941006	-0.112099
O	-0.0186954466	-1.9970771632	-1.2862371747	-0.27623
C	-0.7940543563	-1.9979631701	-0.094995325	 0.180425
C	 0.1421562452	-2.1742425402	 1.1143317827	-0.281014
C	 0.7502456298	-0.7391602012	 1.1928765239	 0.086308
O	 2.155587653	-0.6542766066	 1.0447690767	-0.437105
O	-1.252902403	-0.6643933227	 0.0455948725	-0.284275
H	 0.9921850777	 1.8697850573	 0.0211020377	 0.137282
H	-0.5609625507	 1.8410382515	-0.8434701586	 0.128243
H	-0.5284733555	 1.7903860845	 0.9307515578	 0.127058
H	 0.2620165292	-0.1494467328	-2.1980297668	 0.096917
H	 1.683460226	-0.7850214503	-1.309079379	 0.125389
H	-1.6272603151	-2.692723635	-0.1990481599	 0.088807
H	-0.4164179658	-2.4365155126	 2.0165916603	 0.101881
H	 0.9072037649	-2.9309336893	 0.9277719004	 0.110455
H	 0.4311065478	-0.2339790381	 2.1141179432	 0.071932
H	 2.5678687799	-1.0616265449	 1.8119029159	 0.290452
120.5612	192.8553	238.3332	253.1207	289.1133	312.9109	395.7679	429.2509	534.895	552.2728	610.122	652.2911	778.4775	828.4757	858.8524	878.6125	904.4379	946.386	975.8627	999.5169	1011.9075	1036.2287	1088.5907	1112.8902	1142.3223	1166.5366	1192.2031	1211.689	1244.1481	1269.7159	1293.5063	1325.8328	1330.0534	1356.1081	1383.6408	1413.5109	1428.4113	1475.1837	1486.6231	1494.1527	1520.2606	3007.608	3034.149	3045.2614	3064.9054	3109.9995	3118.2181	3122.6909	3123.2846	3130.2362	3832.9418
CC12COC(CC1O)O2	C[C@@]12CO[C@@H](C[C@H]1O)O2	
InChI=1S/C6H10O3/c1-6-3-8-5(9-6)2-4(6)7/h4-5,7H,2-3H2,1H3	InChI=1S/C6H10O3/c1-6-3-8-5(9-6)2-4(6)7/h4-5,7H,2-3H2,1H3/t4-,5-,6-/m1/s1
