17
gdb 48257	1.94742	1.42987	0.94932	3.4971	74.66	-0.2542	-0.0005	0.2537	1240.7523	0.135588	-418.015273	-418.006332	-418.005388	-418.050021	31.797	
O	 0.0631733031	 0.02779188	-0.4651332221	-0.323323
C	 0.0981254472	 1.2311813119	-0.3570351363	 0.153168
N	 1.1917041525	 1.95320424	 0.0539230912	-0.04011
C	 1.1031020576	 3.3925104179	 0.1556508454	-0.3416
C	 0.9475882092	 3.8887643079	 1.5360792992	 0.290239
N	 0.8241531547	 4.2828739083	 2.6146898838	-0.299369
C	 2.397963601	 1.2406780207	 0.4104173924	 0.062775
C	 3.7217741105	 1.5282194386	-0.2498485752	-0.280051
C	 3.5052670178	 1.8650534696	 1.2100737797	-0.299604
H	-0.7657184854	 1.8862409496	-0.5838637783	 0.082387
H	 1.9838461823	 3.871086389	-0.287616853	 0.165286
H	 0.2407729401	 3.7312607314	-0.4274371146	 0.171807
H	 2.1570924683	 0.2034643134	 0.6020393635	 0.145007
H	 4.3482359551	 0.6842615466	-0.5147861699	 0.131391
H	 3.7788012919	 2.3574163938	-0.947537603	 0.116431
H	 3.4423944036	 2.9125828448	 1.4801898406	 0.132383
H	 3.9748469306	 1.2507332967	 1.9698417767	 0.133183
52.3134	67.0065	100.6368	215.9867	240.7541	277.1405	309.8565	381.3439	438.2197	454.5331	526.4169	709.0075	739.686	790.5403	824.101	914.9071	930.007	958.711	972.693	1020.6877	1058.4821	1085.5329	1092.3594	1143.4553	1192.0923	1213.3094	1235.4466	1294.1448	1359.1771	1384.0166	1439.7578	1450.1521	1469.8516	1474.1444	1514.9063	1804.3323	2362.6661	2939.5403	3044.3044	3087.9736	3136.4017	3148.3383	3208.5454	3217.9699	3234.6739
O=CN(CC#N)C1CC1	O=CN(CC#N)C1CC1	
InChI=1S/C6H8N2O/c7-3-4-8(5-9)6-1-2-6/h5-6H,1-2,4H2	InChI=1S/C6H8N2O/c7-3-4-8(5-9)6-1-2-6/h5-6H,1-2,4H2
