15
gdb 17981	4.14047	1.77255	1.50801	2.5777	66.78	-0.2348	0.0314	0.2661	852.3562	0.118877	-362.565691	-362.558735	-362.557791	-362.597018	26.476	
C	 0.0954514667	-1.1946927466	 0.166419438	-0.434705
C	 0.0655660041	 0.005364935	 0.1107379273	 0.369542
C	 0.0288561399	 1.4524630154	 0.0156958269	-0.223591
N	-0.3149743384	 2.1940486091	 1.2758514	-0.314515
C	 0.8450476944	 3.1035391233	 1.1069054641	-0.06748
C	 2.0787867398	 2.585523493	 1.8662742156	-0.058384
O	 2.4322066136	 1.7185534701	 0.752979843	-0.282722
C	 1.3777872934	 2.2389528031	-0.0587378825	 0.10884
H	 0.1326507381	-2.2540719832	 0.2279575427	 0.196859
H	-0.6048159776	 1.7512891544	-0.8315318695	 0.09618
H	-1.2142716754	 2.657654598	 1.2248742831	 0.224819
H	 0.6433045051	 4.1744865113	 1.0755297725	 0.081459
H	 2.8661978383	 3.3277693161	 2.0480611628	 0.098931
H	 1.8595536372	 2.0251836983	 2.7799465743	 0.118059
H	 1.7159720509	 2.5657957927	-1.0442606683	 0.086709
78.8464	143.9235	223.6683	331.0284	403.8794	518.4279	547.7709	616.0253	654.941	658.7637	751.9774	796.5844	806.0548	903.5531	950.4884	957.2118	1004.5944	1030.9889	1058.0205	1067.2875	1098.6832	1154.1796	1179.6264	1197.732	1241.2624	1289.7347	1306.1298	1351.9884	1368.7125	1392.1446	1503.7488	2238.4247	2995.8512	3019.5743	3085.3426	3092.827	3108.7857	3504.7666	3547.3381
C#CC1NC2COC12	C#C[C@H]1N[C@H]2CO[C@@H]12	
InChI=1S/C6H7NO/c1-2-4-6-5(7-4)3-8-6/h1,4-7H,3H2	InChI=1S/C6H7NO/c1-2-4-6-5(7-4)3-8-6/h1,4-7H,3H2/t4-,5+,6+/m1/s1
