15
gdb 11369	4.40107	1.4029	1.11644	3.5403	64.01	-0.2183	-0.0065	0.2118	1020.6427	0.119334	-399.842402	-399.834843	-399.833899	-399.874568	27.867	
O	 0.0664354634	 1.3632515721	 0.3718328155	-0.413185
C	 0.0393030593	 0.0008434515	-0.0397496886	-0.179044
C	-1.35119049	-0.5457472823	-0.0891748879	 0.335893
C	-1.9731223439	-1.2682746004	-1.0304867307	-0.236817
C	-3.3650179661	-1.5897741011	-0.5541930021	-0.382119
C	-3.4540371405	-0.8793953044	 0.8106089737	 0.404258
O	-4.3968524129	-0.8018437612	 1.5618604872	-0.36528
N	-2.200239642	-0.32580499	 1.0095468729	-0.356204
H	-0.4128149393	 1.8774886604	-0.2871001608	 0.290445
H	 0.5259436626	-0.153157129	-1.0123377164	 0.110463
H	 0.6297592646	-0.5339518502	 0.7138128455	 0.130526
H	-1.5376146833	-1.5917594442	-1.9640917911	 0.104519
H	-4.1612715858	-1.2214241473	-1.2109924961	 0.144433
H	-3.5469607967	-2.6626327992	-0.4170872152	 0.146576
H	-1.9848846993	 0.3010927453	 1.7679720843	 0.265537
83.5331	117.0164	179.2512	261.8821	347.6188	411.3116	472.1112	501.6486	562.8858	595.6287	660.2385	716.8374	747.5081	856.8492	950.7156	963.0753	989.395	994.4206	1058.9397	1144.1506	1189.1693	1193.6082	1202.0551	1274.0442	1317.9965	1370.6065	1413.9338	1426.5858	1438.3621	1492.0368	1706.9192	1840.73	3015.0473	3043.0105	3062.0149	3074.7416	3243.0007	3656.5793	3806.1628
OCC1=CCC(=O)N1	OCC1=CCC(=O)N1	
InChI=1S/C5H7NO2/c7-3-4-1-2-5(8)6-4/h1,7H,2-3H2,(H,6,8)	InChI=1S/C5H7NO2/c7-3-4-1-2-5(8)6-4/h1,7H,2-3H2,(H,6,8)
