20
gdb 121384	3.93481	0.92855	0.81798	1.7511	76.6	-0.2417	0.0229	0.2646	1430.5473	0.171899	-440.285727	-440.276733	-440.275789	-440.320383	32.449	
C	-0.7178189703	 0.7190563678	-0.3691165768	-0.236528
O	 0.2890175953	 0.3767201071	-1.2946178814	-0.232886
C	 1.3739096198	-0.3374605006	-0.7345791384	-0.082809
C	 1.0995229375	-1.8425595647	-0.593775812	 0.021614
C	 0.7589089151	-2.4995065124	-1.9352922623	-0.223314
C	 0.7869882799	-4.0110148903	-1.7613564691	-0.08261
O	 2.0417331362	-4.4476226625	-1.2091282583	-0.224559
C	 2.6281567668	-3.6022938737	-0.3308795539	 0.129779
N	 2.2776080852	-2.4431996569	 0.0342221873	-0.281711
H	-1.2301857344	-0.1600067181	 0.0500571027	 0.103755
H	-0.3129252007	 1.3095643297	 0.4671447663	 0.108602
H	-1.4545133428	 1.3242162272	-0.9037798962	 0.126983
H	 2.2233602928	-0.1944701199	-1.4120189311	 0.105716
H	 1.6570071934	 0.0682080243	 0.2475746313	 0.099248
H	 0.2527122522	-1.9733188281	 0.0957737498	 0.08363
H	-0.217984073	-2.173547347	-2.3018684993	 0.116009
H	 1.5037916578	-2.2053016457	-2.6848106968	 0.112022
H	-0.0148694819	-4.3438520112	-1.0894718062	 0.11267
H	 0.6815146728	-4.5435011611	-2.7094259013	 0.119917
H	 3.5273246682	-4.0637098939	 0.0745696856	 0.124473
56.0656	75.6404	117.8447	169.4827	223.8715	244.6986	331.6842	394.3132	456.1836	504.4542	540.3147	582.2273	793.6902	819.5038	872.6387	932.0598	943.4241	970.1478	986.9207	1017.4409	1074.	1121.2026	1125.8849	1158.4831	1178.42	1184.6235	1219.8565	1242.1766	1268.8401	1304.3343	1317.7115	1338.3381	1379.4608	1397.3388	1403.4511	1418.8123	1476.0024	1479.5629	1489.9864	1495.2261	1509.3086	1511.206	1728.0778	2974.5815	2993.8815	3003.504	3022.8936	3023.9581	3041.1422	3070.9939	3100.8587	3103.924	3110.035	3154.048
COCC1CCOC=N1	COC[C@H]1CCOC=N1	
InChI=1S/C6H11NO2/c1-8-4-6-2-3-9-5-7-6/h5-6H,2-4H2,1H3	InChI=1S/C6H11NO2/c1-8-4-6-2-3-9-5-7-6/h5-6H,2-4H2,1H3/t6-/m1/s1
