20
gdb 104075	2.71113	1.28215	1.13414	2.2254	76.22	-0.2475	0.031	0.2785	1207.0997	0.16917	-440.316623	-440.307027	-440.306083	-440.350946	35.187	
C	-0.1985060232	 1.3976387957	 0.0158601988	-0.255924
O	-0.0301643706	-0.0116094553	 0.0222062101	-0.265823
C	 0.6996140861	-0.5556955794	 1.0878675812	 0.444975
C	 0.1110448545	-0.2449273957	 2.4578996159	-0.458023
C	 0.9046652939	-2.0569242644	 0.7636158008	-0.22762
N	 2.3087671425	-2.187552812	 0.3693418802	-0.307468
C	 2.839383635	-1.0497225634	 0.55889351	 0.398545
C	 4.2612982845	-0.6794930828	 0.3126875455	-0.479088
O	 2.0573594304	-0.0419741312	 1.0545123711	-0.282584
H	 0.7590762124	 1.9159449785	 0.1370318271	 0.127368
H	-0.6212776689	 1.6507324543	-0.9587689853	 0.130531
H	-0.8929938593	 1.7356596748	 0.7958689878	 0.111307
H	-0.9285274025	-0.5824895229	 2.4992776309	 0.130507
H	 0.6809435772	-0.7628614416	 3.2327645933	 0.129765
H	 0.1433311602	 0.8251670469	 2.6753844699	 0.129458
H	 0.6951170389	-2.6993596534	 1.6260013324	 0.108941
H	 0.2389924616	-2.3518945656	-0.0517302706	 0.127474
H	 4.808831802	-1.5497980474	-0.0475450355	 0.151933
H	 4.3212606531	 0.1247815267	-0.4274629494	 0.143585
H	 4.7225705121	-0.3091258321	 1.2337204956	 0.14214
72.6813	118.7607	144.8271	186.1757	209.3679	229.666	288.3453	295.3537	358.0188	386.5009	453.8399	532.3939	619.3191	626.6776	703.727	812.7177	864.4178	923.0678	954.24	963.8899	984.3721	1065.9747	1076.1029	1096.4769	1126.2445	1160.3684	1178.4085	1206.6484	1245.9506	1260.1806	1294.4684	1353.1445	1408.9972	1415.0591	1470.3988	1475.6754	1476.1827	1483.4918	1486.0662	1487.4211	1507.0244	1512.6755	1746.6056	3012.7769	3044.8098	3049.3578	3052.9045	3079.5686	3097.8763	3106.2398	3125.033	3128.9045	3132.7724	3164.8069
COC1(C)CN=C(C)O1	CO[C@@]1(C)CN=C(C)O1	
InChI=1S/C6H11NO2/c1-5-7-4-6(2,8-3)9-5/h4H2,1-3H3	InChI=1S/C6H11NO2/c1-5-7-4-6(2,8-3)9-5/h4H2,1-3H3/t6-/m1/s1
