22
gdb 9746	3.55723	1.47542	1.39903	0.1426	82.17	-0.2342	0.0313	0.2656	1042.6584	0.200566	-313.092561	-313.084009	-313.083065	-313.125078	33.389	
C	-0.2075451709	 1.6993207565	-0.0586763231	-0.393718
C	-0.1865425783	 0.1664573091	-0.0450270315	-0.222905
C	 0.7408083075	-0.500688509	-1.0793254851	 0.341411
C	 0.3346347207	-0.1294118215	-2.5169299985	-0.430682
C	 2.2483908653	-0.1446806577	-0.8628601468	-0.287851
C	 2.9723060253	-1.4457887833	-1.1042471611	-0.063563
C	 2.1367428124	-2.4814354518	-1.1460557554	-0.060756
C	 0.7045948266	-2.0580813916	-0.940517409	-0.297409
H	 0.7927583417	 2.1174067667	 0.0974347616	 0.116471
H	-0.5887150726	 2.0946294273	-1.0050043788	 0.117524
H	-0.8517821187	 2.0826578659	 0.7389135532	 0.110639
H	 0.1139802397	-0.1754250313	 0.9541562333	 0.089884
H	-1.2082142997	-0.2077077295	-0.1969316711	 0.089563
H	 0.4458818206	 0.9423307544	-2.7080267802	 0.110568
H	 0.9616760728	-0.6611466241	-3.2403305626	 0.116401
H	-0.7089438457	-0.4007669987	-2.7135291954	 0.105893
H	 2.5816194211	 0.6582003974	-1.5317711839	 0.096014
H	 2.4359451019	 0.2150722149	 0.1594967118	 0.097934
H	 4.0514821335	-1.5055779721	-1.1975694391	 0.08672
H	 2.4277552131	-3.5179550464	-1.2793519692	 0.086894
H	 0.3488499586	-2.3652129183	 0.0538501359	 0.09618
H	 0.015329145	-2.5136065371	-1.6626851549	 0.094788
99.0428	112.5142	203.2903	240.6121	291.836	325.6193	348.1308	396.281	411.197	439.3221	594.9431	696.8586	769.328	772.5149	789.7629	903.4735	921.965	930.239	949.7369	977.3023	985.1212	987.6955	1019.2976	1031.8559	1076.6622	1128.9868	1135.1743	1159.8252	1193.0562	1219.4287	1275.1735	1296.7576	1328.5624	1343.6801	1361.9774	1376.0432	1404.4015	1411.3401	1478.9908	1481.938	1488.8241	1499.1426	1500.0173	1507.3312	1510.9707	1690.9873	2996.973	2997.8995	3009.9659	3025.9615	3036.1469	3038.797	3040.5471	3044.7909	3093.181	3098.9507	3100.6784	3109.1321	3175.9517	3201.9325
CCC1(C)CC=CC1	CC[C@@]1(C)CC=CC1	
InChI=1S/C8H14/c1-3-8(2)6-4-5-7-8/h4-5H,3,6-7H2,1-2H3	InChI=1S/C8H14/c1-3-8(2)6-4-5-7-8/h4-5H,3,6-7H2,1-2H3
