19
gdb 53061	5.13775	0.82659	0.80264	0.2707	96.92	-0.2029	-0.0138	0.189	1519.9662	0.160016	-348.709016	-348.700627	-348.699682	-348.744051	31.448	
C	-0.06798913	 1.4273355296	-0.0092633747	-0.514175
C	-0.0044646213	-0.025110873	-0.0190905764	 0.347616
C	 0.0620336802	-1.2319815326	-0.0289683206	-0.374252
C	 0.0829916411	-2.6367093158	-0.0334396407	 0.304046
C	 1.0923750306	-3.519920062	-0.1602872295	-0.216274
C	 0.3972005682	-4.8791888381	-0.0755349187	-0.063644
C	-0.8475788577	-4.6164985113	-0.9950254664	-0.208459
C	-1.1512683715	-3.5602314177	 0.1190110361	-0.125295
C	-0.5840167651	-4.6193057702	 1.1218029484	-0.208459
H	 0.5292266651	 1.8477636001	 0.8083400275	 0.149159
H	 0.3138594622	 1.8502024762	-0.945892742	 0.149161
H	-1.0974447243	 1.7805268358	 0.1176129639	 0.148249
H	 2.1483934187	-3.334674508	-0.2915243384	 0.104179
H	 1.0039615579	-5.7805224192	-0.15227683	 0.062365
H	-0.6594285977	-4.2464331244	-2.005444329	 0.096612
H	-1.5596259741	-5.4478768355	-1.0080334743	 0.093003
H	-2.1248180892	-3.0880355198	 0.2408518937	 0.066554
H	-1.2714049193	-5.4509467749	 1.3068461633	 0.093003
H	-0.153721644	-4.2518196592	 2.0561985877	 0.096612
12.4998	89.3456	95.8514	241.5906	296.073	419.9332	433.1621	490.9708	522.003	546.9667	632.0617	769.3964	796.2479	835.5899	848.3265	863.251	875.0088	931.9845	953.3698	1001.7738	1025.398	1049.2045	1053.4063	1065.0572	1085.6317	1104.6454	1107.8843	1214.3307	1219.934	1225.4511	1235.695	1259.7101	1279.0001	1310.3924	1413.0037	1475.5092	1476.3192	1478.8828	1515.5144	1643.4999	2341.8372	3020.3941	3042.5881	3052.1317	3077.1337	3083.6277	3115.0593	3119.5856	3123.5521	3130.0496	3238.9314
CC#CC1=CC2CC1C2	CC#CC1=C[C@@H]2C[C@H]1C2	
InChI=1S/C9H10/c1-2-3-8-4-7-5-9(8)6-7/h4,7,9H,5-6H2,1H3	InChI=1S/C9H10/c1-2-3-8-4-7-5-9(8)6-7/h4,7,9H,5-6H2,1H3/t7-,9+
