21
gdb 100558	3.267	1.0907	0.89876	2.8235	81.43	-0.2324	0.042	0.2743	1370.7144	0.181718	-420.41461	-420.404406	-420.403462	-420.450651	35.978	
C	 0.1543859749	 1.4357089812	 0.2185313704	-0.375339
C	-0.1461279528	-0.0519256191	 0.0172403563	-0.147832
N	-1.5752849341	-0.3410531265	-0.0829536891	-0.10093
C	-2.1870565625	-0.2842745017	-1.3982409096	-0.342937
C	-2.2598723738	-0.5867760306	 1.0721410688	 0.452171
O	-1.74593602	-0.523881027	 2.1769449911	-0.405924
N	-3.6400517697	-0.8854319801	 0.8741136445	-0.155844
C	-4.0188473636	-2.2989448096	 0.7219508295	-0.236186
C	-4.3188952325	-1.5500599912	 1.9726230179	-0.208329
H	 1.2355185281	 1.6041393325	 0.2547734502	 0.114203
H	-0.2535902714	 2.043468829	-0.5958457584	 0.113137
H	-0.2804582851	 1.7787947632	 1.160450283	 0.14512
H	 0.3313030051	-0.4214837608	-0.8974683952	 0.096582
H	 0.2486308833	-0.6233458262	 0.859549461	 0.13597
H	-3.2680979185	-0.2056753955	-1.2971910348	 0.159646
H	-1.823367325	 0.5954083792	-1.9412117555	 0.125014
H	-1.9476944405	-1.1735633156	-1.9978066958	 0.117141
H	-4.7954725736	-2.5005962309	-0.0105088147	 0.120252
H	-3.2217051697	-3.0373015504	 0.7637732848	 0.129243
H	-3.7151001224	-1.7641046776	 2.848783244	 0.145716
H	-5.3292040663	-1.2018900323	 2.1648171116	 0.119126
49.9583	71.769	85.0267	133.3718	170.392	209.0609	232.9505	253.7212	353.0646	392.3161	415.5778	531.5258	581.9373	721.5241	779.6323	790.9459	833.6088	869.5036	919.3437	960.6109	1036.516	1044.3529	1094.036	1106.1257	1117.6765	1136.5593	1156.6178	1167.7694	1179.3869	1182.7838	1266.4702	1315.7186	1343.0797	1393.4777	1411.4184	1430.3951	1463.8399	1481.1354	1488.9588	1492.8467	1499.4041	1506.1414	1514.2832	1527.7798	1754.4955	3004.9108	3038.6787	3040.9468	3062.865	3099.1819	3105.8001	3117.2729	3123.2335	3131.9634	3163.0807	3191.9199	3217.8079
CCN(C)C(=O)N1CC1	CCN(C)C(=O)N1CC1	
InChI=1S/C6H12N2O/c1-3-7(2)6(9)8-4-5-8/h3-5H2,1-2H3	InChI=1S/C6H12N2O/c1-3-7(2)6(9)8-4-5-8/h3-5H2,1-2H3
