18
gdb 106021	2.70993	1.58175	1.24636	4.197	75.16	-0.2395	0.0024	0.2419	1062.5263	0.147642	-401.904588	-401.89657	-401.895625	-401.937537	30.325	
C	 0.0810120381	 1.4949525045	-0.1564129955	-0.379861
C	-0.0547367071	-0.0133858812	 0.0961702805	-0.318453
C	 0.6950380759	-0.4565374872	 1.3194732667	 0.202356
C	 2.2168253127	-0.803178395	 1.3389128005	-0.124309
C	 2.6590557824	-0.6607340297	 2.792218032	-0.198432
N	 1.3375115095	-1.301043133	 3.2037234484	-0.224195
C	 1.2237770917	-1.8209900039	 1.7607923196	-0.093124
C	 0.3920891706	-0.2307833431	 2.7628366694	 0.38495
O	-0.3816132208	 0.410850213	 3.4009677332	-0.320924
H	 1.1261636562	 1.7751009934	-0.3229023711	 0.117203
H	-0.4948879338	 1.7956389083	-1.0362978859	 0.116903
H	-0.287877894	 2.0631614109	 0.7023849858	 0.143974
H	-1.1135520646	-0.2714092845	 0.2172094511	 0.120147
H	 0.3036351053	-0.5754667716	-0.7748866485	 0.10474
H	 2.7901144878	-0.7515144224	 0.4200851015	 0.104264
H	 3.4887363951	-1.3217024623	 3.0539979084	 0.122359
H	 2.8227653537	 0.3367841251	 3.2141712467	 0.120087
H	 0.9318337012	-2.8191189213	 1.4718164873	 0.122314
61.9666	133.3422	159.2548	193.5563	278.6845	353.8782	441.9742	478.4789	629.8372	664.699	736.9282	783.0565	799.4193	826.782	865.1866	881.8857	909.8399	939.8172	946.1969	976.1058	990.378	1016.2989	1086.8809	1095.0567	1109.1732	1145.124	1168.0707	1217.0967	1271.9961	1293.8722	1325.1293	1350.6231	1407.2788	1421.0279	1482.1771	1497.8461	1509.2535	1511.7593	1912.8758	3027.9741	3040.1738	3045.5583	3061.8755	3109.9141	3110.6818	3119.7952	3178.7041	3239.9013
CCC12C3CN(C13)C2=O	CC[C@]12[C@H]3CN([C@@H]13)C2=O	
InChI=1S/C7H9NO/c1-2-7-4-3-8(5(4)7)6(7)9/h4-5H,2-3H2,1H3	InChI=1S/C7H9NO/c1-2-7-4-3-8(5(4)7)6(7)9/h4-5H,2-3H2,1H3/t4-,5+,7-/m0/s1
