18
gdb 124512	3.54221	1.11945	1.04486	3.4604	79.65	-0.2347	-0.066	0.1687	1224.2043	0.148281	-398.149023	-398.140507	-398.139563	-398.183101	31.007	
C	-0.0281143055	 1.5920123765	 0.2365597118	-0.397753
C	-0.0296710179	 0.0691083543	 0.0083514913	-0.072667
C	 0.8654621377	-0.6537177749	 1.0318472039	-0.397765
C	-1.4355213129	-0.4873202862	 0.0164980227	 0.325766
C	-2.2768363435	-0.4243726819	 1.1407529351	-0.008546
N	-3.5092332682	-0.9139975209	 1.142314082	-0.172718
N	-3.9657746613	-1.4896772175	 0.0277866031	-0.187257
C	-3.1463916487	-1.5335923354	-1.0183183587	 0.099507
N	-1.8959513106	-1.0620904946	-1.0911935118	-0.302326
H	 0.9920929381	 1.9809092515	 0.1638046682	 0.124805
H	-0.642120615	 2.1071618287	-0.5078403012	 0.129508
H	-0.411492445	 1.8506525144	 1.229395063	 0.121812
H	 0.3567992868	-0.1326834701	-0.9957422751	 0.103365
H	 0.5190254944	-0.4879407893	 2.0575622594	 0.121813
H	 0.8857157677	-1.7324773272	 0.8518958319	 0.1295
H	 1.8910620021	-0.2783695105	 0.9639188166	 0.124804
H	-1.9536883711	 0.0331719533	 2.0710154764	 0.123001
H	-3.5478619172	-2.0085841203	-1.9095245685	 0.135151
27.7377	114.159	201.2889	219.9413	254.6006	280.5064	305.6835	371.0799	476.9159	568.3671	583.4845	685.0831	804.1178	834.8934	907.6701	933.8679	943.4437	968.521	1001.6209	1014.5838	1061.5778	1090.0845	1115.3758	1170.8938	1183.6278	1245.6938	1313.4927	1327.3225	1348.9245	1368.5755	1398.7039	1421.4827	1477.7582	1485.8092	1490.1446	1502.094	1509.1948	1562.6515	1593.5976	3034.1374	3036.9577	3059.1522	3102.1705	3109.4813	3113.2691	3115.0617	3175.3092	3177.9068
CC(C)C1=CN=NC=N1	CC(C)c1cnncn1	
InChI=1S/C6H9N3/c1-5(2)6-3-8-9-4-7-6/h3-5H,1-2H3	InChI=1S/C6H9N3/c1-5(2)6-3-8-9-4-7-6/h3-5H,1-2H3
