18
gdb 61998	3.6189	0.81873	0.79814	2.0469	73.22	-0.2526	-0.033	0.2196	1473.7466	0.143698	-439.102372	-439.091964	-439.09102	-439.139515	35.544	
C	-0.1208513293	 0.7802378458	 1.49671604	-0.415235
C	 0.0479803654	-0.0709405335	 0.2304787072	-0.009791
O	 1.0251408509	-1.0951867936	 0.3465390301	-0.248449
C	 2.3679169065	-0.6373807449	 0.3123362778	-0.171515
C	 2.9960621881	-0.41357954	 1.6976892918	 0.361857
C	 2.6682771346	-1.4341975876	 2.7647795061	-0.472874
O	 3.7506408558	 0.514125251	 1.8736219009	-0.291375
C	-1.2175594768	-0.7381870919	-0.1197132345	 0.278945
N	-2.2288240653	-1.2276112371	-0.385701876	-0.309118
H	 0.8127200618	 1.2998215411	 1.7273284578	 0.148653
H	-0.9008046757	 1.5306451314	 1.3415323314	 0.146363
H	-0.4046393894	 0.15248997	 2.3445269991	 0.147228
H	 0.3106545013	 0.5892102815	-0.6114520502	 0.127268
H	 2.9486569816	-1.4229954749	-0.1894604811	 0.138097
H	 2.4766289329	 0.2869346571	-0.2679602407	 0.123946
H	 3.054416991	-2.4148916374	 2.4610375894	 0.148027
H	 3.1219112924	-1.1400981431	 3.7114372329	 0.144856
H	 1.5869100143	-1.5510582039	 2.8712676881	 0.153118
36.6108	40.7725	78.8843	105.3528	159.5621	225.1766	240.901	271.4815	361.7553	387.3773	428.601	495.2101	529.6239	567.0973	611.9558	771.0759	807.9272	865.7541	907.8071	1005.916	1050.6704	1082.2023	1105.2206	1110.7862	1150.6033	1237.7481	1280.5392	1344.2279	1357.1862	1379.4468	1387.8575	1409.1934	1460.2007	1462.7865	1472.1863	1492.957	1494.2669	1816.601	2369.963	2984.034	3015.5553	3043.0516	3052.8297	3071.1991	3112.0561	3130.4505	3140.4985	3162.8267
CC(OCC(C)=O)C#N	C[C@@H](OCC(=O)C)C#N	
InChI=1S/C6H9NO2/c1-5(8)4-9-6(2)3-7/h6H,4H2,1-2H3	InChI=1S/C6H9NO2/c1-5(8)4-9-6(2)3-7/h6H,4H2,1-2H3/t6-/m1/s1
