17
gdb 65555	3.36534	1.38542	1.26848	3.162	68.85	-0.2491	-0.0442	0.2049	1019.0884	0.135911	-458.944016	-458.936589	-458.935645	-458.975776	29.484	
O	-0.0027740002	 1.3822738663	 0.0892199842	-0.484468
C	 0.0103686265	-0.0136949834	 0.034529513	 0.3642
C	 0.4609942313	-0.6742740277	 1.390403833	-0.299989
C	-0.881196177	-1.3442180136	 1.7520759034	 0.082973
C	-1.2881114342	-2.0754244787	 0.4545011739	-0.250394
C	-1.4484670365	-0.5930499247	 0.0470719077	 0.015471
O	-1.8456242146	-0.302272497	 1.4133295238	-0.279939
C	 0.8303994099	-0.4661272558	-1.1502875844	 0.090007
O	 1.3321611535	 0.3235765378	-1.9159508537	-0.275042
H	 0.4948345401	 1.678735357	-0.6899315783	 0.291035
H	 1.2858803616	-1.3864517082	 1.2935840977	 0.104107
H	 0.7402078464	 0.1166873043	 2.0869954383	 0.138239
H	-1.0070439779	-1.7621216731	 2.7500821528	 0.090478
H	-0.5655909356	-2.7187191984	-0.05436852	 0.096915
H	-2.257355606	-2.5655055301	 0.5476677789	 0.123815
H	-2.1332660721	-0.2226834179	-0.7146050747	 0.096352
H	 0.9520080048	-1.558371287	-1.2900854458	 0.096241
105.8436	168.2194	259.4788	320.7113	375.8407	413.8155	440.3098	465.8923	501.2179	588.8876	732.5754	812.4055	837.1295	848.9814	874.9476	886.6128	923.4868	950.4368	957.9202	1017.8932	1045.1162	1051.1265	1065.6776	1128.8872	1135.3993	1204.5093	1226.3404	1238.2036	1258.5009	1277.5849	1312.7949	1325.0551	1391.0155	1441.6036	1469.3388	1493.8556	1800.0727	2937.5464	3063.0995	3069.8325	3132.1175	3137.423	3140.9228	3147.3452	3681.8733
OC1(CC2CC1O2)C=O	O[C@]1(C[C@@H]2C[C@H]1O2)C=O	
InChI=1S/C6H8O3/c7-3-6(8)2-4-1-5(6)9-4/h3-5,8H,1-2H2	InChI=1S/C6H8O3/c7-3-6(8)2-4-1-5(6)9-4/h3-5,8H,1-2H2/t4-,5+,6+/m0/s1
