19
gdb 70543	2.71552	1.54178	1.15205	3.984	76.06	-0.2291	0.0609	0.29	1101.8304	0.161788	-419.252579	-419.244437	-419.243493	-419.284903	32.147	
C	-0.026248842	 1.5119893854	 0.0518554098	-0.45994
C	 0.035501222	 0.0028825371	 0.0285504595	 0.351097
C	-0.8535515908	-0.808439219	 0.9561906654	-0.336989
C	 0.6463036163	-0.7562679607	 1.1688346178	-0.056692
C	 1.526256636	-1.9398702012	 0.8237274302	-0.181537
N	 1.1078207643	-2.5426342992	-0.4319445747	-0.345685
C	 0.7113910838	-1.8221610987	-1.5409933641	 0.41072
O	 0.6740170424	-2.3058884545	-2.6588525432	-0.412673
N	 0.3378335787	-0.5165459393	-1.2834306235	-0.386935
H	 0.9212193503	 1.9465718864	-0.2828520921	 0.129108
H	-0.821069381	 1.8830451657	-0.6067764949	 0.120113
H	-0.2384795876	 1.8748789411	 1.0609995399	 0.121849
H	-1.4855628893	-0.2791980582	 1.6612743338	 0.111331
H	-1.2730289508	-1.7292818541	 0.5668016734	 0.130158
H	 1.008521626	-0.1709762345	 2.0086960453	 0.090975
H	 2.5727546916	-1.5967219334	 0.7818917175	 0.107643
H	 1.4705151076	-2.7052659973	 1.6070090408	 0.113836
H	 1.5108973238	-3.4320312956	-0.6826898842	 0.250322
H	-0.1663539313	-0.1134864998	-2.0604635369	 0.243298
122.9532	150.7664	212.99	239.0991	293.0411	371.6673	401.037	478.36	517.6161	523.2049	561.7944	580.6383	699.4237	766.8737	769.8829	802.7531	866.2561	920.1698	948.5867	977.0843	1010.2298	1048.7192	1073.5568	1104.4658	1118.7703	1128.8742	1163.9822	1253.0189	1270.0581	1312.6683	1327.3297	1402.0198	1418.1117	1430.1395	1448.9217	1480.2281	1485.0885	1495.6915	1510.822	1528.9317	1805.1565	2968.0954	3027.0979	3041.8502	3089.8866	3117.6876	3133.7402	3152.8664	3225.8631	3603.9852	3634.4833
CC12CC1CNC(=O)N2	C[C@]12C[C@H]1CNC(=O)N2	
InChI=1S/C6H10N2O/c1-6-2-4(6)3-7-5(9)8-6/h4H,2-3H2,1H3,(H2,7,8,9)	InChI=1S/C6H10N2O/c1-6-2-4(6)3-7-5(9)8-6/h4H,2-3H2,1H3,(H2,7,8,9)/t4-,6-/m0/s1
