23
gdb 118502	2.52846	0.91994	0.73695	1.3529	82.22	-0.2463	0.0786	0.3249	1607.8388	0.20386	-425.394275	-425.383457	-425.382512	-425.430991	38.591	
C	 0.8793978556	 1.541531571	 0.0420970582	-0.238944
O	 0.2517055179	 0.2843438577	-0.0900939954	-0.249975
C	 0.6751092819	-0.4825936588	-1.2183422249	 0.069027
C	 0.996778358	-1.9026958851	-0.7399555717	-0.193753
C	 2.1627305217	-1.9643880403	 0.2471134321	-0.07005
O	 2.4650797047	-3.2904987345	 0.6567463498	-0.420719
C	-0.3931883582	-0.4926352139	-2.302310632	 0.020294
C	-1.8484368534	-0.6457872042	-1.941983203	-0.254297
C	-1.3419687812	 0.6593966249	-2.505643965	-0.285452
H	 1.9643191805	 1.4407691154	 0.1965917307	 0.107667
H	 0.7152038634	 2.1859249477	-0.8331626229	 0.10997
H	 0.4450540294	 2.0266781431	 0.9204775567	 0.125629
H	 1.5927718395	-0.0341993862	-1.6319965518	 0.066836
H	 0.0948185635	-2.3168378208	-0.2702052427	 0.096177
H	 1.2264289835	-2.5350167889	-1.6053654832	 0.100574
H	 3.0775343945	-1.5903534214	-0.2275270194	 0.103226
H	 1.9505167967	-1.3151807454	 1.1083194896	 0.099281
H	 1.7024638407	-3.6266879381	 1.1381486214	 0.279668
H	-0.0692279609	-1.0043873115	-3.2051214252	 0.081448
H	-2.4736268419	-1.277282596	-2.5631661657	 0.106169
H	-2.0972276103	-0.6537681321	-0.8867759162	 0.122299
H	-1.2845531461	 1.4960773208	-1.8200844078	 0.117546
H	-1.6091096094	 0.9271253065	-3.5220436916	 0.107379
56.1226	86.6887	90.0394	114.9614	137.5834	171.7681	242.9711	258.8436	299.4872	341.435	347.5273	380.8222	572.7345	586.0703	772.3592	784.2966	800.4975	831.0143	898.5654	921.9937	998.9097	1019.7624	1053.7334	1064.0909	1078.121	1087.668	1098.7968	1128.6636	1139.6546	1152.7352	1174.8776	1183.4629	1201.1227	1229.8222	1235.2083	1280.5019	1314.6489	1356.687	1388.0384	1398.5749	1405.1586	1421.1227	1456.0004	1474.8921	1481.3558	1488.3306	1502.3711	1511.5155	1517.9705	2968.4944	2984.3205	3004.5895	3024.6307	3033.0523	3055.617	3081.1073	3108.3929	3135.1975	3137.1536	3143.6109	3219.1843	3233.4421	3815.7681
COC(CCO)C1CC1	CO[C@@H](CCO)C1CC1	
InChI=1S/C7H14O2/c1-9-7(4-5-8)6-2-3-6/h6-8H,2-5H2,1H3	InChI=1S/C7H14O2/c1-9-7(4-5-8)6-2-3-6/h6-8H,2-5H2,1H3/t7-/m0/s1
