17
gdb 65006	1.97506	1.50383	1.08922	1.5743	79.1	-0.2612	0.0296	0.2908	1174.016	0.131465	-384.595602	-384.585938	-384.584994	-384.630068	35.674	
C	-0.14531047	 1.5102398111	-0.4214392466	-0.469445
C	-0.0218184341	 0.0398487672	-0.1055625992	 0.421441
C	 0.962276274	-0.8063517448	-0.7904399038	-0.225035
O	 1.1758438243	-0.3632856974	 0.5561585488	-0.273218
C	-1.2862372274	-0.6566086414	 0.4489523772	-0.425437
C	-1.7701784582	-0.0070948995	 1.6723584596	 0.335404
C	-2.1495793051	 0.5257839596	 2.6791150483	-0.440168
C	-2.3331286513	-0.7353140503	-0.5755932552	 0.341646
C	-3.1698116237	-0.8013036252	-1.4344845211	-0.45284
H	 0.801811893	 1.8932565207	-0.807469194	 0.126493
H	-0.9278456658	 1.676867864	-1.1675308786	 0.137262
H	-0.407668741	 2.0710091775	 0.4801342979	 0.143132
H	 0.7780080007	-1.8733535908	-0.908882928	 0.116551
H	 1.619520488	-0.3646477059	-1.5375257074	 0.117097
H	-0.9769007737	-1.6776003273	 0.7101337955	 0.142896
H	-2.4898966463	 0.9913931352	 3.5709801135	 0.201836
H	-3.9181919633	-0.8616300027	-2.1857287468	 0.202385
57.9924	122.769	133.982	154.2068	193.432	321.4768	335.0058	349.0244	364.6673	381.7593	515.0833	536.5635	563.37	639.5004	643.9101	651.1639	654.2145	765.9865	837.2308	893.5715	924.0961	972.3718	1034.4681	1040.5519	1115.9676	1134.828	1163.149	1234.9428	1266.4409	1300.4735	1398.1544	1424.9054	1479.9889	1497.6374	1534.199	2239.9884	2245.7221	3018.9185	3049.3798	3084.0474	3120.9811	3133.6547	3171.0711	3502.2382	3503.1817
CC1(CO1)C(C#C)C#C	C[C@]1(CO1)C(C#C)C#C	
InChI=1S/C8H8O/c1-4-7(5-2)8(3)6-9-8/h1-2,7H,6H2,3H3	InChI=1S/C8H8O/c1-4-7(5-2)8(3)6-9-8/h1-2,7H,6H2,3H3/t8-/m0/s1
