17
gdb 32775	3.2039	0.99253	0.79886	0.8832	71.74	-0.1985	0.011	0.2095	1393.7517	0.136578	-455.168789	-455.159719	-455.158774	-455.20362	32.288	
N	 0.2790556818	 1.4673530633	 0.2076718273	-0.598201
C	 0.068922041	 0.0984423737	 0.0601593693	 0.172012
C	-1.0868525409	-0.6073240496	-0.0980496994	 0.268277
C	-2.5331949274	-0.2769798264	-0.1338078086	-0.307254
C	-3.1529435083	-0.3909707902	-1.5307996602	-0.065685
O	-4.5253756612	-0.0535983804	-1.4114161918	-0.419089
O	-0.7154631107	-1.9336287679	-0.2745697685	-0.184506
C	 0.6241293368	-1.9261864279	-0.208352267	 0.06774
N	 1.1558677104	-0.7628947594	-0.0108988179	-0.301196
H	 1.177014775	 1.6542833245	 0.6342771025	 0.254641
H	-0.4595778289	 1.9448552266	 0.7061825471	 0.246778
H	-3.0991057829	-0.9256681112	 0.5462405684	 0.125422
H	-2.6739216494	 0.7493564157	 0.2227162952	 0.11242
H	-2.6254043379	 0.2856181114	-2.2204785337	 0.095977
H	-3.0187914456	-1.4170510676	-1.9051472995	 0.098941
H	-4.9329119408	-0.1355379347	-2.2783431822	 0.287956
H	 1.127190659	-2.8739889299	-0.3201884013	 0.145767
43.2896	90.954	107.9106	206.1745	250.9057	253.5561	293.0983	344.8932	367.552	469.1196	641.7143	670.7689	690.6721	772.0376	786.3332	794.7679	830.0953	957.5466	997.4523	1008.0437	1056.078	1078.3653	1157.1619	1189.4342	1235.6522	1239.2323	1264.7874	1305.0682	1329.6646	1344.597	1422.1708	1453.0263	1474.9315	1527.3873	1556.8667	1637.3466	1702.0508	2979.3101	3011.0512	3031.5116	3080.6592	3272.5414	3547.269	3644.2739	3833.6671
NC1=C(CCO)OC=N1	Nc1c(CCO)ocn1	
InChI=1S/C5H8N2O2/c6-5-4(1-2-8)9-3-7-5/h3,8H,1-2,6H2	InChI=1S/C5H8N2O2/c6-5-4(1-2-8)9-3-7-5/h3,8H,1-2,6H2
