17
gdb 27282	3.20524	1.60971	1.09839	4.4594	75.53	-0.1926	0.0375	0.23	1079.8802	0.138641	-418.04074	-418.033037	-418.032093	-418.073281	28.429	
C	 0.0252708339	 1.5110011815	 0.064462127	-0.495367
C	 0.0240985088	 0.0212984564	-0.0269794378	 0.126325
C	 0.1385888221	-0.7936551558	-1.1175196388	 0.334425
O	 0.3446834661	-0.7111129316	-2.4608141489	-0.282248
C	 0.1028424652	-2.035143822	-2.9776939506	-0.103854
C	 0.3044926776	-3.0119713453	-1.7846319462	-0.204757
N	 0.0674683858	-2.091812415	-0.6891243024	-0.053574
C	-0.0668729269	-2.042872676	 0.674302425	-0.033685
N	-0.1068838609	-0.7994272756	 1.0900449006	-0.317546
H	 0.8632609606	 1.8736452445	 0.6703483776	 0.129226
H	 0.1066712871	 1.9595061515	-0.9294540807	 0.120977
H	-0.8942240857	 1.880283896	 0.5316695781	 0.129734
H	-0.9283189364	-2.0898536584	-3.3469147892	 0.125185
H	 0.7930261558	-2.2116228769	-3.8039467517	 0.131349
H	-0.4111452315	-3.8371907813	-1.8064033165	 0.13477
H	 1.3200124088	-3.4233036146	-1.7480601749	 0.132366
H	-0.1532900904	-2.9260120575	 1.2880734494	 0.126673
91.967	123.3849	159.6848	238.8286	248.4696	326.6154	499.6026	604.7241	631.0873	655.5049	685.3333	756.8909	762.065	820.6903	880.5827	944.4169	973.5086	1016.7856	1065.7125	1104.8118	1133.9063	1174.5984	1208.5751	1244.3678	1251.5195	1283.6014	1324.4456	1383.9996	1402.8823	1421.8006	1459.0767	1477.8877	1490.6101	1503.9497	1513.8177	1531.6193	1679.4874	3029.9023	3033.09	3037.3057	3081.4246	3100.694	3114.7507	3126.3446	3255.868
CC1=C2OCCN2C=N1	Cc1c2OCCn2cn1	
InChI=1S/C6H8N2O/c1-5-6-8(4-7-5)2-3-9-6/h4H,2-3H2,1H3	InChI=1S/C6H8N2O/c1-5-6-8(4-7-5)2-3-9-6/h4H,2-3H2,1H3
