18
gdb 118941	2.47031	1.37844	1.11642	2.9753	69.02	-0.2375	0.0252	0.2627	1146.5817	0.146505	-476.223945	-476.214579	-476.213635	-476.258239	33.827	
C	 0.2995117237	 0.7335297655	-0.3992528837	-0.268783
O	-0.4052289991	 0.1925600916	 0.7162803047	-0.253084
C	-1.5387172966	-0.5830876347	 0.3811337461	-0.148541
C	-1.1421169227	-2.0397040224	 0.1020362091	 0.245736
O	-0.2464847932	-2.4866116954	 1.0787423684	-0.465879
C	-2.3284273093	-3.023875823	-0.1333606343	-0.205574
N	-1.8550866656	-3.169856498	-1.5122254105	-0.327332
C	-0.741182643	-2.3838552976	-1.3820727686	 0.382014
O	 0.1581946325	-2.1037034668	-2.1322103293	-0.368719
H	 1.1227867723	 1.3218749845	 0.0119421961	 0.127988
H	 0.6925327303	-0.0488597722	-1.0576224169	 0.163452
H	-0.3543814327	 1.3969907267	-0.9828853974	 0.111048
H	-2.1862638845	-0.5668897199	 1.26551666	 0.11687
H	-2.0914912772	-0.1512979222	-0.465435168	 0.102543
H	 0.2714764817	-1.7078002685	 1.3302337014	 0.294657
H	-2.2425192513	-3.9269549573	 0.4766877065	 0.129608
H	-3.3336623509	-2.5980171281	-0.0430463027	 0.110138
H	-2.1690675744	-3.7594744722	-2.2682782209	 0.253859
78.1118	105.1217	132.7921	182.9989	207.4242	240.3276	283.5203	315.5166	412.4026	463.0203	474.4787	518.2605	553.4661	738.6905	757.0042	776.8525	893.3294	935.3765	960.3503	996.4934	1059.0669	1120.9356	1149.2234	1157.1179	1180.6369	1190.0608	1224.2377	1246.0576	1290.1798	1320.9895	1371.4837	1390.8777	1434.3324	1475.021	1487.448	1502.2941	1519.4458	1519.6955	1878.711	2999.2947	3005.2314	3038.7641	3066.3933	3080.8325	3100.2112	3128.5922	3616.6407	3728.7731
COCC1(O)CNC1=O	COC[C@@]1(O)CNC1=O	
InChI=1S/C5H9NO3/c1-9-3-5(8)2-6-4(5)7/h8H,2-3H2,1H3,(H,6,7)	InChI=1S/C5H9NO3/c1-9-3-5(8)2-6-4(5)7/h8H,2-3H2,1H3,(H,6,7)/t5-/m0/s1
