14
gdb 29993	3.33655	1.6311	1.14369	2.4501	69.26	-0.215	-0.0421	0.1729	988.8028	0.102928	-436.697399	-436.690628	-436.689684	-436.728625	26.136	
O	 0.1944536004	 1.4197308964	-0.2107900853	-0.41132
C	 0.0059229117	 0.0290840971	-0.0434342955	-0.046165
C	 0.5999198289	-0.5514533544	 1.2581597164	-0.121652
C	-0.2854572054	-1.3201056659	 1.9244130166	-0.21903
C	-1.5159108174	-1.2728950274	 1.1469305688	 0.314832
C	-1.4086864435	-0.4934936859	 0.0461312105	 0.174002
N	-2.5992504804	-0.5104663019	-0.6534985393	-0.333925
C	-3.3529919903	-1.2849249073	 0.0671955463	 0.027857
O	-2.7598522169	-1.8038207816	 1.1955886748	-0.196291
H	-0.3261595778	 1.8664572015	 0.4659664183	 0.289693
H	 0.524427702	-0.4369931284	-0.892772314	 0.127919
H	 1.6170658674	-0.3343325016	 1.5559950574	 0.11793
H	-0.1259449356	-1.8562307888	 2.8494985323	 0.124732
H	-4.379671033	-1.568633572	-0.0990652874	 0.151418
135.3077	164.9587	279.3695	325.1747	364.8781	492.2536	557.0695	631.0483	650.9418	701.9838	712.5685	774.464	794.404	854.0151	936.0763	939.3063	965.4892	1056.2045	1060.419	1079.4911	1161.3503	1207.7235	1246.3779	1266.0935	1319.2273	1362.6858	1415.6513	1447.1407	1504.481	1564.5121	1626.2158	3028.6598	3221.1427	3242.6269	3284.4742	3806.3385
OC1C=CC2=C1N=CO2	O[C@H]1C=Cc2c1nco2	
InChI=1S/C6H5NO2/c8-4-1-2-5-6(4)7-3-9-5/h1-4,8H	InChI=1S/C6H5NO2/c8-4-1-2-5-6(4)7-3-9-5/h1-4,8H/t4-/m0/s1
