13
gdb 43615	6.24557	0.65076	0.64144	3.4735	80.23	-0.289	-0.0682	0.2208	1652.3679	0.08917	-415.586033	-415.578053	-415.577109	-415.619649	28.244	
N	 0.0979330252	 0.9898113715	 0.7121832552	-0.524972
C	-0.0051346017	-0.0878808183	 0.0904961674	 0.449921
C	-1.1570760256	-0.9834828913	-0.3121717919	-0.36835
C	-0.0419088685	-1.840086807	-0.9756427788	-0.084909
O	 0.9663761579	-0.8905845099	-0.4946862422	-0.245707
C	 0.1655891714	-3.1804081962	-0.4704092113	 0.172533
C	 0.3264319716	-4.3045987044	-0.0594792964	 0.008974
C	 0.5066737248	-5.5755724476	 0.4060138	 0.219905
N	 0.6578413179	-6.6575852025	 0.799907428	-0.324744
H	 1.0674291917	 1.3002357188	 0.7892987616	 0.240667
H	-1.6812272724	-1.4595839625	 0.5164553548	 0.160269
H	-1.8738689357	-0.5386848602	-1.0027141985	 0.155344
H	-0.0602957668	-1.8422924704	-2.0697840979	 0.141068
55.7485	90.5548	138.0924	231.2627	265.6261	421.5978	431.6498	492.9718	525.5016	573.5879	594.2539	687.1188	753.4734	864.5835	898.6428	931.1897	966.1711	1003.6597	1018.8753	1119.3404	1182.4665	1210.9462	1233.6063	1290.3841	1362.9038	1462.7507	1844.2298	2268.3489	2401.8886	3068.1927	3101.4365	3161.6536	3488.3623
N=C1CC(O1)C#CC#N	[NH][C]1C[C@@H](O1)C#CC#N	
InChI=1S/C6H4N2O/c7-3-1-2-5-4-6(8)9-5/h5,8H,4H2	InChI=1S/C6H4N2O/c7-3-1-2-5-4-6(8)9-5/h5,8H,4H2/t5-/m0/s1
