12
gdb 133343	3.25602	1.40554	0.98221	5.9788	62.25	-0.2477	-0.0561	0.1915	1067.5341	0.076571	-513.902438	-513.894996	-513.894052	-513.934382	27.869	
N	 0.0354584121	 1.3624164266	 0.1434647246	-0.557848
C	-0.0571462364	 0.007843346	 0.0519295382	 0.50193
C	-1.2107580068	-0.7204904878	 0.0289470764	-0.375043
C	-1.1466952348	-2.1492270619	-0.0122175674	 0.295934
O	-2.0699331491	-2.9445914868	-0.0383362914	-0.367236
C	 0.2759675988	-2.6200621783	-0.0228381828	 0.239814
F	 0.4557042291	-3.9199140096	-0.0548542503	-0.023686
N	 1.3484842052	-1.9229371457	-0.0069741883	-0.123799
O	 1.1742462897	-0.5408139201	 0.0260282662	-0.269602
H	 0.9238744653	 1.7739498895	-0.0963034016	 0.27954
H	-0.7813621657	 1.9008423528	-0.0920966665	 0.279358
H	-2.1733141375	-0.2261873447	 0.0494964829	 0.120639
109.0205	169.4196	311.1193	322.6915	350.1477	385.0401	406.9757	443.4137	461.4939	526.5342	613.4202	690.5211	703.1812	767.3848	803.5895	836.6202	949.1148	1031.0376	1103.0137	1231.3934	1297.2496	1396.4832	1442.4571	1618.9615	1659.6078	1678.3427	1766.7638	3216.2979	3600.1901	3719.4458
NC1=CC(=O)C(F)=NO1	Nc1cc(=O)c(F)no1	
InChI=1S/C4H3FN2O2/c5-4-2(8)1-3(6)9-7-4/h1H,6H2	InChI=1S/C4H3FN2O2/c5-4-2(8)1-3(6)9-7-4/h1H,6H2
