19
gdb 37523	3.58035	1.90662	1.66528	1.6267	76.91	-0.2326	0.0965	0.3291	868.6805	0.164014	-385.864346	-385.858554	-385.857609	-385.894158	25.598	
C	-0.066066323	 1.6162035592	-0.0639641168	-0.249829
C	 1.4671200128	 1.5122548899	 0.0126991401	-0.039443
C	 1.3489386666	 0.1947724789	 0.8423881058	-0.044498
C	 2.451153046	-0.4810158672	-0.0078222126	-0.053342
C	 2.1233878672	-1.8800364531	-0.5101462742	-0.09931
O	 1.0153254916	-1.6834024212	-1.4002713967	-0.286664
C	 0.6519008626	-0.3109328524	-1.3348291684	 0.144462
C	-0.0018739369	 0.0703489304	 0.0092755172	-0.070619
C	 1.9496259333	 0.5108429951	-1.1003571402	-0.087422
H	-0.4853588303	 2.0640976668	 0.8418744256	 0.098118
H	-0.53073272	 2.0698848046	-0.946531459	 0.089613
H	 2.1252682488	 2.3383548944	 0.2786381351	 0.065321
H	 1.2982621134	 0.1552190414	 1.9296222294	 0.064404
H	 3.4643548761	-0.3294002257	 0.3663115541	 0.070026
H	 2.9514015967	-2.3398242956	-1.0661992591	 0.096619
H	 1.8377044478	-2.5611862423	 0.3032463926	 0.095954
H	 0.0586099517	-0.0797767745	-2.2208518369	 0.075366
H	-0.8430522108	-0.538533163	 0.338201748	 0.066884
H	 2.5491205864	 0.8019229542	-1.961168314	 0.06436
209.9201	337.4647	405.723	424.8301	607.7809	634.7688	759.5092	770.7082	800.3027	834.9036	841.2015	871.183	875.4642	926.7352	933.156	936.3898	959.7297	975.553	1004.4292	1012.8192	1041.3382	1059.3551	1071.5569	1095.6101	1119.3607	1144.8479	1162.5397	1179.9117	1199.4676	1217.6532	1235.1998	1244.4746	1253.7273	1283.9519	1290.9721	1306.1663	1329.7561	1344.7845	1391.4355	1495.7479	1523.178	3000.9426	3033.231	3036.3384	3093.6523	3104.2541	3109.0526	3117.0894	3122.1975	3127.7804	3135.6739
C1C2C3C4COC(C13)C24	C1[C@H]2[C@@H]3[C@H]4CO[C@@H]([C@H]13)[C@@H]24	
InChI=1S/C8H10O/c1-3-6-4(1)8-7(3)5(6)2-9-8/h3-8H,1-2H2	InChI=1S/C8H10O/c1-3-6-4(1)8-7(3)5(6)2-9-8/h3-8H,1-2H2/t3-,4+,5+,6-,7-,8-/m0/s1
