20
gdb 95233	3.14836	1.31748	1.03687	2.2053	79.85	-0.2381	0.0076	0.2458	1173.4349	0.173211	-403.123621	-403.115608	-403.114664	-403.155765	32.323	
O	-0.2232028736	 1.5439658646	-0.1766155903	-0.439324
C	 0.0552544302	 0.1565679576	-0.0121310952	 0.085461
C	-1.2933265291	-0.5178821076	 0.3127401991	-0.195537
C	-1.2937625106	-2.0488039264	 0.1437277307	-0.212936
C	-0.0389777202	-2.7349395591	 0.6542291805	-0.024746
N	 0.4969822405	-3.806366637	-0.2091838119	-0.341786
C	 1.2508510891	-2.5403988789	-0.0651464322	-0.076965
C	 1.3060923604	-1.6358912578	-1.2502924985	-0.06354
C	 0.7514346715	-0.4239106342	-1.2296819501	-0.096107
H	 0.6170969931	 2.0067132872	-0.2545606585	 0.279359
H	 0.7157008259	 0.0156055549	 0.8571052869	 0.074947
H	-1.5675310556	-0.2324913874	 1.3343741584	 0.100312
H	-2.052115003	-0.08102503	-0.3452380293	 0.112347
H	-2.1762924036	-2.4712257953	 0.6376882686	 0.094655
H	-1.3827767531	-2.2994161721	-0.9158614672	 0.121679
H	 0.0225168682	-2.8842331473	 1.7311818894	 0.077756
H	 0.9366525203	-4.526677374	 0.3585703866	 0.22807
H	 2.163910652	-2.590928442	 0.5294854367	 0.088696
H	 1.8020677653	-2.0072903077	-2.1438807805	 0.095122
H	 0.7693461423	 0.2148345226	-2.1101833531	 0.092538
112.7534	194.9138	247.0081	305.7909	310.01	320.7095	370.4396	422.1765	451.0114	570.5071	589.9945	697.6093	735.1759	799.4915	832.4717	843.1525	893.1551	942.8435	956.0379	981.9818	996.3703	1015.7912	1058.8719	1086.3996	1092.975	1118.9968	1164.1639	1189.0202	1207.3214	1218.4582	1257.517	1274.8602	1294.4358	1333.1376	1344.1435	1360.525	1389.4494	1410.0153	1421.4915	1458.2908	1487.5548	1499.501	1704.3125	2969.6048	3037.4875	3048.3187	3079.8723	3087.996	3102.7598	3120.2213	3144.1264	3166.8391	3496.1776	3816.4747
OC1CCC2NC2C=C1	O[C@H]1CC[C@H]2N[C@H]2C=C1	
InChI=1S/C7H11NO/c9-5-1-3-6-7(8-6)4-2-5/h1,3,5-9H,2,4H2	InChI=1S/C7H11NO/c9-5-1-3-6-7(8-6)4-2-5/h1,3,5-9H,2,4H2/t5-,6+,7-/m1/s1
