20
gdb 117786	2.43631	1.04665	0.91758	2.6335	76.08	-0.2817	0.0135	0.2952	1397.4174	0.167647	-440.29097	-440.280158	-440.279214	-440.326982	38.299	
C	-0.0504368107	 1.5294851081	 0.1918532245	-0.383504
C	 0.0405297661	 0.0303876125	-0.0328764861	-0.062421
O	 0.7403714269	-0.5302255176	 1.0771177998	-0.27761
C	 0.8163804674	-1.9378191184	 1.1483322591	 0.210141
C	 1.5400989915	-2.5867442774	-0.0404026224	-0.430354
C	 1.5803335049	-2.2187524319	 2.4707878943	-0.101306
O	 1.6787875969	-3.5924346066	 2.7623980843	-0.412206
C	-0.5423376223	-2.528846065	 1.2915528876	 0.242122
N	-1.5865895337	-3.0012536694	 1.444862419	-0.347416
H	 0.9481552625	 1.9683268964	 0.2711716824	 0.129087
H	-0.5724207222	 2.003734615	-0.6443383238	 0.121757
H	-0.5970961391	 1.7479016309	 1.1130902312	 0.132869
H	-0.9627423049	-0.4135693508	-0.1052030945	 0.115203
H	 0.5721691805	-0.1871075795	-0.969401101	 0.100454
H	 2.4842129179	-2.0586254064	-0.2029419358	 0.131439
H	 1.7536085001	-3.6306025062	 0.1988401014	 0.153809
H	 0.9482103799	-2.5508892961	-0.9570543984	 0.133272
H	 2.5991528934	-1.8414650696	 2.3467750148	 0.126265
H	 1.0961995577	-1.645601311	 3.2714934221	 0.117393
H	 0.8056452874	-3.909956867	 3.0197933415	 0.301008
65.6365	93.4277	110.887	136.7217	174.7834	198.4768	245.4072	252.359	296.224	341.4657	375.3767	396.7027	407.0852	463.0239	588.0319	674.9674	693.1962	827.765	864.3737	914.5807	953.4426	986.9651	1071.8186	1101.9691	1125.9161	1138.3124	1172.4284	1187.8108	1213.6086	1267.106	1306.4564	1372.6663	1399.6284	1402.6493	1411.1331	1428.2859	1483.4547	1487.0166	1492.991	1500.2941	1503.7575	1527.1892	2341.9519	2997.9061	3028.6407	3034.6869	3047.5803	3053.2316	3102.9461	3122.2883	3126.8017	3132.422	3144.1226	3800.6416
CCOC(C)(CO)C#N	CCO[C@@](C)(CO)C#N	
InChI=1S/C6H11NO2/c1-3-9-6(2,4-7)5-8/h8H,3,5H2,1-2H3	InChI=1S/C6H11NO2/c1-3-9-6(2,4-7)5-8/h8H,3,5H2,1-2H3/t6-/m1/s1
