17
gdb 129907	2.97359	1.50679	1.06471	5.4108	74.87	-0.2146	0.0174	0.2321	1108.4243	0.137889	-414.166124	-414.158121	-414.157177	-414.199134	30.193	
N	 0.2213807704	 1.3293803144	-0.2692361136	-0.605877
C	 0.0449575575	-0.0339030159	-0.0770957584	 0.330221
C	-1.0682058774	-0.8438743732	 0.0112864059	-0.14532
N	-0.6558078898	-2.1092682243	 0.3022935417	-0.182175
N	 0.6340875036	-2.1413200438	 0.4031252253	-0.165491
N	 1.0877564933	-0.866477886	 0.1715374992	 0.006496
C	 2.4712157309	-0.5167179679	 0.2453422578	 0.023513
C	 3.4853686168	-1.546145518	-0.1463324981	-0.266286
C	 3.2616860179	-0.3528983327	-1.0394105635	-0.28122
H	 1.0457877835	 1.560898425	-0.8095910019	 0.258407
H	-0.5960127695	 1.7793582104	-0.6568404225	 0.260399
H	-2.1085951843	-0.5932122858	-0.11684204	 0.109134
H	 2.7056873195	 0.1498381301	 1.0700571695	 0.120222
H	 4.3943010907	-1.5932067083	 0.4410964544	 0.127506
H	 3.0979316926	-2.5027574592	-0.4708241694	 0.158131
H	 2.7336175435	-0.5216909829	-1.9712148068	 0.129799
H	 4.0145343609	 0.4266127082	-1.0720748795	 0.122539
53.2409	130.7994	178.539	245.3117	288.3988	325.1613	397.2661	502.9201	618.9599	668.848	703.8465	719.8855	743.376	789.6673	793.1311	831.4883	904.4316	952.4127	991.3407	1056.2616	1066.8576	1082.4077	1091.789	1124.8783	1136.8195	1185.1685	1199.694	1219.8874	1287.5635	1323.3032	1372.7099	1407.9665	1464.8827	1500.307	1525.3067	1605.1345	1656.7693	3138.6466	3148.4243	3160.3489	3227.3989	3254.9453	3266.9258	3540.8984	3641.826
NC1=CN=NN1C1CC1	Nc1cnnn1C1CC1	
InChI=1S/C5H8N4/c6-5-3-7-8-9(5)4-1-2-4/h3-4H,1-2,6H2	InChI=1S/C5H8N4/c6-5-3-7-8-9(5)4-1-2-4/h3-4H,1-2,6H2
