17
gdb 116413	2.86947	1.39352	0.99016	2.5252	65.17	-0.2531	-0.005	0.2481	1167.1955	0.135891	-496.113862	-496.105366	-496.104422	-496.147588	30.385	
C	-0.1694722363	 1.3129901998	 0.094843591	-0.246201
O	 0.0685899299	-0.0875398703	 0.0643524867	-0.237201
C	 0.6158406904	-0.5774414459	-1.1254726928	-0.01956
C	 1.3419772201	-1.8854278858	-0.8018499595	-0.139049
O	 1.7437154478	-2.498396457	-2.0174997727	-0.217502
C	 0.6384049909	-2.8755212904	-2.7592891828	 0.017802
O	-0.220620347	-1.7803763895	-3.114272372	-0.228182
C	-0.445184499	-0.7772999607	-2.2266180217	 0.395142
O	-1.3907311546	-0.0540678298	-2.3687792397	-0.312117
H	 0.7569384672	 1.8724931191	-0.1058515228	 0.10438
H	-0.9335548103	 1.6041303659	-0.6306349126	 0.150135
H	-0.5105398232	 1.5462721032	 1.1058306343	 0.129172
H	 1.3500423314	 0.1274422817	-1.5525243902	 0.107889
H	 2.2405327287	-1.696725738	-0.212912905	 0.130181
H	 0.6756498359	-2.5454405683	-0.2259971209	 0.117877
H	 0.9911061106	-3.2958227047	-3.7019226895	 0.13782
H	 0.0238918276	-3.6097449892	-2.2146426399	 0.109415
63.3758	117.9058	139.5579	184.858	249.1974	304.3459	370.5761	394.3602	451.0968	479.9692	562.1055	636.0508	745.174	813.216	971.2329	1015.081	1024.8065	1048.3918	1083.8463	1124.1409	1151.456	1179.5445	1182.2364	1227.314	1248.5984	1251.5549	1316.4789	1331.3823	1347.5987	1404.8812	1456.6051	1476.3743	1480.6436	1504.2478	1518.1179	1523.8489	1849.4712	2961.3555	2983.0268	2991.4537	3003.8862	3091.9731	3123.8557	3129.0307	3135.0789
COC1COCOC1=O	CO[C@H]1COCOC1=O	
InChI=1S/C5H8O4/c1-7-4-2-8-3-9-5(4)6/h4H,2-3H2,1H3	InChI=1S/C5H8O4/c1-7-4-2-8-3-9-5(4)6/h4H,2-3H2,1H3/t4-/m0/s1
