23
gdb 52705	3.06294	0.65799	0.60933	1.4574	91.92	-0.2368	0.0629	0.2997	1970.874	0.202091	-388.277594	-388.265656	-388.264712	-388.316802	41.639	
C	 0.0501863461	 1.4766742989	-0.0041145284	-0.497819
C	 0.0197249938	 0.0203520152	-0.0115473621	 0.07689
C	-0.0030208951	-1.1842286874	-0.0063377717	 0.051039
C	-0.0404318033	-2.6471108533	-0.0253014751	-0.154628
C	-1.4877308104	-3.1589018296	 0.1241477615	-0.390871
C	 0.6528547504	-3.1865840178	-1.2998208157	-0.188581
C	 0.9098744456	-4.6996985343	-1.2862393414	 0.125252
C	 1.6201078426	-5.1680051127	-2.5570239052	-0.405035
O	 1.6277836926	-5.0975202344	-0.1177901227	-0.426511
H	 1.0780339523	 1.8553642035	-0.0372037121	 0.143739
H	-0.4817639019	 1.8930816663	-0.8670051267	 0.143928
H	-0.4203581984	 1.8813357923	 0.8990811751	 0.145286
H	 0.5364654082	-3.0225778361	 0.829550865	 0.110138
H	-2.0961188769	-2.8569625328	-0.7346946162	 0.117098
H	-1.5132398925	-4.2492708375	 0.2028907314	 0.120417
H	-1.9486294841	-2.7446716816	 1.0245027645	 0.122745
H	 0.0522467455	-2.9252646225	-2.1799891524	 0.100512
H	 1.6149708039	-2.6705643349	-1.4203512681	 0.091366
H	-0.0448356075	-5.2317606834	-1.2041749494	 0.0919
H	 2.5836240817	-4.6559881112	-2.6746882553	 0.106264
H	 1.8079726333	-6.2441271236	-2.5116384172	 0.123491
H	 1.0209414891	-4.9555056705	-3.4483371185	 0.116888
H	 2.5014998949	-4.6921434128	-0.1617707394	 0.276494
21.0398	32.7121	76.7629	96.3714	148.8004	195.363	230.9255	240.5112	277.089	304.1993	309.0107	332.4219	377.4526	457.1786	478.2421	515.1889	547.6214	736.1238	845.231	855.4461	901.3602	949.9744	1002.8758	1021.6002	1053.7188	1054.2188	1079.9789	1099.5644	1126.9326	1151.7994	1180.8642	1232.9551	1278.6988	1322.429	1348.8053	1355.5993	1389.8825	1402.6717	1407.0176	1415.6444	1422.4096	1475.9325	1479.7161	1480.4482	1491.5337	1493.4902	1495.3992	1502.4785	2368.0739	3014.9153	3023.7928	3024.356	3026.5639	3040.0508	3046.7157	3064.333	3082.769	3083.1343	3095.0557	3112.5134	3118.0661	3120.2482	3791.3892
CC#CC(C)CC(C)O	CC#C[C@@H](C)C[C@@H](C)O	
InChI=1S/C8H14O/c1-4-5-7(2)6-8(3)9/h7-9H,6H2,1-3H3	InChI=1S/C8H14O/c1-4-5-7(2)6-8(3)9/h7-9H,6H2,1-3H3/t7-,8-/m1/s1
