20
gdb 102537	2.06983	1.23655	1.06108	4.4225	72.49	-0.2423	0.0208	0.2631	1259.1315	0.170095	-477.429753	-477.419578	-477.418634	-477.465326	36.37	
C	 0.550176184	-0.5179661574	 1.1150055271	-0.353855
N	 0.0322158439	 0.1794601719	-0.0548629217	-0.072177
C	-0.3623199542	 1.4902123361	 0.0808755683	 0.106336
O	-0.2811049936	 2.124087707	 1.1150688623	-0.346561
C	-0.0721847194	-0.5926943892	-1.2976287994	-0.021031
C	-1.1941753446	-0.1526232684	-2.257485076	-0.084237
O	-1.0021007265	 1.09141717	-2.9009845528	-0.414307
C	 1.2889252101	-0.6670318249	-2.0182463205	-0.08533
O	 1.7185141777	 0.6018980994	-2.5056076962	-0.415396
H	-0.0882277765	-1.372903751	 1.3694687049	 0.125962
H	 1.5680843076	-0.888510288	 0.9474182057	 0.121233
H	 0.558544361	 0.1888350121	 1.944008607	 0.174306
H	-0.7542050172	 1.9100990161	-0.8571563558	 0.12667
H	-0.329813499	-1.6204321731	-1.0027780294	 0.09213
H	-1.3051961687	-0.9620962565	-2.9978872274	 0.098499
H	-2.1382486201	-0.0860019367	-1.7060175422	 0.119572
H	-0.0677051155	 1.1416070401	-3.151188004	 0.293254
H	 2.0485467737	-1.1041873622	-1.356586212	 0.109536
H	 1.2040207575	-1.3142900711	-2.8968433349	 0.124414
H	 1.8623905599	 1.1741841456	-1.7423521929	 0.300983
45.4105	95.726	120.329	172.6257	183.03	232.0287	282.5581	302.8369	337.5967	351.754	361.9029	411.0106	502.7914	588.4432	637.9855	804.6072	831.9557	886.1628	902.4542	982.3685	1028.5361	1068.0717	1071.5725	1107.7844	1125.953	1158.699	1208.2211	1221.9595	1262.9784	1299.9437	1343.2328	1387.4011	1394.0174	1412.786	1421.9463	1446.2954	1451.5228	1472.7747	1494.3097	1503.2084	1511.3661	1517.114	1773.6912	2967.6168	3002.7459	3016.6259	3024.0612	3040.4381	3069.0074	3069.6022	3088.0317	3161.8754	3712.151	3794.0378
CN(C=O)C(CO)CO	CN(C=O)C(CO)CO	
InChI=1S/C5H11NO3/c1-6(4-9)5(2-7)3-8/h4-5,7-8H,2-3H2,1H3	InChI=1S/C5H11NO3/c1-6(4-9)5(2-7)3-8/h4-5,7-8H,2-3H2,1H3
