18
gdb 27252	3.06729	1.56392	1.05981	1.7432	80.47	-0.1783	0.0447	0.223	1124.8674	0.149769	-401.983473	-401.975346	-401.974402	-402.016163	30.63	
C	 0.03658786	 1.5176083357	 0.0581402092	-0.510658
C	 0.0344479514	 0.0305226381	-0.0410582638	 0.144683
C	 0.1650349521	-0.8321160791	-1.0981399397	 0.292235
O	 0.3714687445	-0.6938824948	-2.4419625813	-0.299092
C	 0.1562563082	-2.0129892857	-3.0009938314	-0.090101
C	 0.2944435041	-3.0605090207	-1.8499671182	-0.38091
C	 0.0895862813	-2.1702318789	-0.6586772379	 0.193711
C	-0.0851084614	-2.1361336314	 0.7015029827	-0.243056
N	-0.1103844576	-0.8061597347	 1.0651713274	-0.305653
H	 0.8760410702	 1.89959141	 0.6539232607	 0.12274
H	 0.1229841687	 1.9464854091	-0.9429831073	 0.145183
H	-0.8863905641	 1.9086684374	 0.5060581719	 0.11992
H	-0.8557730924	-2.0444754528	-3.4248551113	 0.105979
H	 0.8791979729	-2.1522323588	-3.8079778746	 0.110932
H	-0.4428092446	-3.8611345735	-1.9619540743	 0.111678
H	 1.287067748	-3.5282003694	-1.8539611144	 0.113736
H	-0.1918168213	-2.9130280491	 1.4412177549	 0.116072
H	-0.2820068098	-0.4752006815	 1.9980332175	 0.252603
105.6121	128.9655	155.8664	232.4753	252.1469	309.7676	377.92	505.2953	587.429	610.955	627.9529	689.3093	703.8057	753.7999	792.8962	852.6921	937.6836	969.8604	999.5013	1062.5888	1067.8581	1077.3028	1118.9739	1184.8752	1198.4116	1229.2317	1259.4676	1294.6415	1324.6928	1378.2061	1416.5872	1442.7217	1480.1913	1481.868	1494.6296	1504.8551	1514.7283	1587.3278	1692.6502	3007.2054	3017.7352	3021.226	3047.5277	3074.052	3103.4971	3120.6945	3259.0046	3684.52
CC1=C2OCCC2=CN1	Cc1c2OCCc2c[nH]1	
InChI=1S/C7H9NO/c1-5-7-6(4-8-5)2-3-9-7/h4,8H,2-3H2,1H3	InChI=1S/C7H9NO/c1-5-7-6(4-8-5)2-3-9-7/h4,8H,2-3H2,1H3
