18
gdb 48270	2.6273	1.08651	0.81623	2.9733	79.89	-0.2444	-0.0317	0.2128	1389.0779	0.144504	-401.88174	-401.872147	-401.871203	-401.917189	34.091	
O	-0.220611801	 0.1249956832	-0.2383168481	-0.240608
C	-0.0586319792	 1.3060768163	-0.1052265727	 0.176963
C	 1.3094157277	 1.9968750392	-0.0433595034	-0.248913
C	 1.4953955242	 2.9446762996	-1.2558685087	-0.161656
N	 1.6212755851	 2.1795168534	-2.4839627793	-0.059327
C	 0.4027167748	 1.9543692121	-3.2596633317	-0.218945
C	 1.4361011959	 2.9175842735	-3.7281498687	-0.229913
C	 1.3913313254	 2.7360497223	 1.2104974795	 0.296597
C	 1.4104501218	 3.356633651	 2.2399797392	-0.441689
H	-0.914598848	 2.0123922792	-0.0092357562	 0.084685
H	 2.0736733083	 1.2148094423	-0.0928490425	 0.136803
H	 0.6637500954	 3.6726178111	-1.2800452291	 0.094689
H	 2.4175086941	 3.5137771093	-1.1024891591	 0.127055
H	 0.3084598582	 0.9728508521	-3.7131639542	 0.13148
H	-0.5295445106	 2.3759062205	-2.8862586959	 0.112082
H	 1.1927703842	 3.9770959611	-3.6628044185	 0.11288
H	 2.1134533071	 2.6549477525	-4.5353745874	 0.123841
H	 1.4498678566	 3.8941450913	 3.1552046867	 0.203977
58.4192	69.1604	96.5042	117.9639	183.4563	256.4828	285.5589	361.2652	416.0302	465.2149	498.1407	555.3963	642.6682	650.8528	770.7573	836.3963	872.1331	910.8139	950.6078	1006.2617	1035.8917	1039.663	1078.5723	1105.1621	1121.5561	1126.175	1171.973	1178.4521	1241.048	1275.4173	1310.2751	1329.0565	1376.2749	1419.3612	1485.6745	1494.9213	1520.8904	1842.8103	2233.5271	2873.7477	2938.2558	3070.4522	3078.3835	3094.621	3099.8652	3182.487	3198.0806	3503.3242
O=CC(CN1CC1)C#C	O=C[C@@H](CN1CC1)C#C	
InChI=1S/C7H9NO/c1-2-7(6-9)5-8-3-4-8/h1,6-7H,3-5H2	InChI=1S/C7H9NO/c1-2-7(6-9)5-8-3-4-8/h1,6-7H,3-5H2/t7-/m1/s1
