21
gdb 92351	2.3821	1.67544	1.6194	1.0912	75.78	-0.2464	0.0574	0.3038	989.332	0.186169	-424.247084	-424.239391	-424.238447	-424.278877	31.385	
O	 0.3242853429	 1.2404517988	-0.5102789298	-0.441423
C	 0.0694908673	-0.0991751405	-0.0798506898	 0.123475
C	 0.7735888709	-0.4399259515	 1.2536493295	-0.234942
C	-0.0969273075	-0.1294372555	 2.4813915854	 0.094631
C	-0.5506716625	 1.3476024523	 2.5926229775	-0.246949
C	-1.902338159	 1.3567138347	 1.8206452629	-0.246942
C	-2.0520980029	-0.1162834844	 1.3648304631	 0.094623
C	-1.4401796128	-0.425054429	-0.010577813	-0.234905
O	-1.3284802031	-0.8485164316	 2.359284357	-0.263014
H	-0.0394042358	 1.8517657657	 0.1347304602	 0.279997
H	 0.5190476839	-0.7033031097	-0.8741810458	 0.087281
H	 0.9925375466	-1.5136884695	 1.2755298271	 0.104197
H	 1.7295352382	 0.0929747988	 1.294859309	 0.101296
H	 0.3940406131	-0.4823794952	 3.392134249	 0.076323
H	-0.7090805843	 1.6133533182	 3.6400593234	 0.110556
H	 0.1940152364	 2.0449150184	 2.1984794173	 0.101709
H	-2.7212904189	 1.627001103	 2.4907945692	 0.11055
H	-1.9340404475	 2.0591828103	 0.9829857131	 0.101728
H	-3.0895094533	-0.4589304539	 1.4027729638	 0.076322
H	-1.9559731869	 0.1177386848	-0.8098543862	 0.101301
H	-1.5811507346	-1.4964010941	-0.1942299829	 0.104185
128.146	167.6802	218.9606	307.2801	332.6343	364.3428	421.582	492.0684	505.5772	659.7326	750.3479	758.5323	801.6468	810.772	856.9514	880.0921	883.8835	900.1503	959.8736	970.8265	993.5627	1017.2933	1054.2319	1082.7513	1097.2468	1105.5256	1165.3721	1195.504	1214.7254	1239.3712	1264.6026	1272.4377	1305.2715	1305.3077	1323.9458	1355.6262	1370.6219	1377.2843	1386.2122	1394.599	1439.3019	1461.2664	1472.7881	1497.7432	1516.5401	3034.7062	3035.5417	3057.768	3059.6042	3065.7746	3072.9727	3080.2496	3084.4265	3086.3461	3095.0604	3114.224	3852.0034
OC1CC2CCC(C1)O2	O[C@H]1C[C@H]2CC[C@@H](C1)O2	
InChI=1S/C7H12O2/c8-5-3-6-1-2-7(4-5)9-6/h5-8H,1-4H2	InChI=1S/C7H12O2/c8-5-3-6-1-2-7(4-5)9-6/h5-8H,1-4H2/t5-,6+,7-
