20
gdb 81864	2.75849	1.4726	1.1104	3.6506	79.3	-0.234	0.0278	0.2618	1153.725	0.171406	-403.194868	-403.186171	-403.185227	-403.227761	33.885	
C	-0.1961499096	 1.5688151977	 0.0118866516	-0.390077
C	 0.0519389747	 0.061044597	-0.0591643081	-0.122533
C	 0.887482132	-0.4541464111	-1.2212449744	-0.086928
C	 2.3602988857	-0.0890439129	-1.2924910953	-0.335415
C	 1.9282555656	-1.3995140927	-0.6694032538	 0.339436
C	 2.2748936273	-2.738454036	-1.2659514487	-0.470524
N	 1.7452039542	-1.3588894686	 0.7604653876	-0.354177
C	 0.8055244442	-0.4508549655	 1.1872816344	 0.386582
O	 0.6177038645	-0.108084172	 2.3337536377	-0.379306
H	 0.7416813366	 2.1275212348	-0.066860931	 0.117142
H	-0.8548905214	 1.8978801285	-0.7969945941	 0.110615
H	-0.6590380685	 1.8194116641	 0.9698016823	 0.141407
H	-0.9195836919	-0.451352299	-0.0657980432	 0.103567
H	 0.3888585929	-0.6963592021	-2.1529756273	 0.091726
H	 2.8214522613	-0.1199046449	-2.2742399115	 0.114187
H	 2.7475101794	 0.6841348497	-0.6363299396	 0.117735
H	 2.3011024028	-2.676439524	-2.3575328195	 0.12368
H	 3.2617993093	-3.0810349919	-0.9325492479	 0.120084
H	 1.539245143	-3.4971418669	-0.9795984482	 0.127811
H	 2.4623346879	-1.6600557441	 1.404128879	 0.244989
100.5853	157.3676	213.7486	218.7597	232.9444	278.0245	333.5613	438.948	473.3285	487.4973	533.1479	584.6146	635.2286	720.034	754.4819	794.7631	839.0794	875.9793	958.3986	970.0952	992.5757	1017.3741	1045.6267	1058.1843	1093.7077	1118.1056	1128.8078	1142.9946	1249.7356	1255.6966	1297.5958	1322.5215	1345.1263	1375.5554	1404.3381	1413.619	1432.4843	1483.5771	1488.3491	1496.165	1498.5268	1502.6545	1825.0954	3019.9142	3028.2588	3041.6758	3089.3048	3109.7744	3114.437	3124.2141	3126.3099	3169.4027	3213.0666	3613.2459
CC1C2CC2(C)NC1=O	C[C@H]1[C@H]2C[C@@]2(C)NC1=O	
InChI=1S/C7H11NO/c1-4-5-3-7(5,2)8-6(4)9/h4-5H,3H2,1-2H3,(H,8,9)	InChI=1S/C7H11NO/c1-4-5-3-7(5,2)8-6(4)9/h4-5H,3H2,1-2H3,(H,8,9)/t4-,5+,7+/m0/s1
