17
gdb 33379	8.83802	0.48345	0.47547	1.9109	91.89	-0.2422	-0.0111	0.2311	2210.4659	0.133381	-384.614471	-384.604947	-384.604003	-384.650039	33.774	
C	-0.0440134379	-3.7664386964	-0.0237771352	-0.556376
C	-0.010173391	-2.559587145	-0.0534505272	 0.288728
C	 0.0284625001	-1.1997386717	-0.0865749127	-0.201924
C	 0.0611347276	 0.0098826926	-0.1165043841	 0.341633
C	 0.1243388476	 1.4616084729	-0.1435876001	-0.384698
C	 1.4957397322	 2.0165415177	 0.3060801074	-0.211676
C	 1.5125133598	 3.5245060977	 0.2766405372	 0.09073
C	 2.6769448623	 4.2889947571	-0.1848284541	-0.180715
O	 1.5285009307	 4.1303744774	-1.0200562502	-0.235837
H	-0.0746045523	-4.8272300697	 0.0013882512	 0.18928
H	-0.08436901	 1.8247876178	-1.1575915546	 0.157377
H	-0.6665366604	 1.8726872071	 0.4987221335	 0.136022
H	 1.7192220895	 1.6661873693	 1.3201630692	 0.117888
H	 2.2768373598	 1.6273325085	-0.3541765402	 0.120504
H	 0.832501868	 4.0137787202	 0.9777606146	 0.094167
H	 2.8482112153	 5.2971646	 0.1895952955	 0.117798
H	 3.5696191488	 3.7575064146	-0.5122016604	 0.117097
44.8695	65.0325	88.216	160.3859	180.8708	236.0018	349.7931	373.4963	453.2022	471.8994	532.9399	533.4334	590.2363	595.0002	728.9396	765.494	810.6344	876.6111	945.0572	994.4909	1024.2116	1098.1028	1116.6731	1160.8083	1170.541	1179.2574	1217.217	1276.8501	1297.1487	1310.8589	1366.4897	1446.5048	1467.1104	1481.6711	1530.0786	2182.3324	2364.9644	3015.2073	3045.5377	3054.4833	3080.2899	3085.0929	3102.39	3170.8392	3506.2468
C#CC#CCCC1CO1	C#CC#CCC[C@H]1CO1	
InChI=1S/C8H8O/c1-2-3-4-5-6-8-7-9-8/h1,8H,5-7H2	InChI=1S/C8H8O/c1-2-3-4-5-6-8-7-9-8/h1,8H,5-7H2/t8-/m0/s1
