16
gdb 27352	1.90602	1.81435	0.93495	5.9446	75.83	-0.2094	-0.0046	0.2048	1193.1495	0.125055	-437.958412	-437.950167	-437.949223	-437.991047	31.383	
C	-0.0179535378	 1.4972734024	 0.098770168	-0.493187
C	-0.0005836455	 0.0026604353	-0.0317943016	 0.412943
C	-0.0204357854	-0.6783171671	-1.1995664187	-0.346414
C	-0.0010327033	-2.1467404933	-1.2640725219	 0.415579
O	-0.0190042357	-2.7657834613	-2.3241753437	-0.411717
C	 0.0412283766	-2.7949418614	 0.0446051887	-0.445466
C	 0.0596092145	-2.0626157851	 1.1850135986	 0.512907
O	 0.0982654329	-2.533685157	 2.4536157558	-0.425911
N	 0.0395085835	-0.6970641473	 1.1597924131	-0.427899
H	 0.8769486145	 1.861041672	 0.6179906126	 0.138611
H	-0.053542709	 1.9633977802	-0.8862704372	 0.151965
H	-0.8906500648	 1.8360434929	 0.6700662357	 0.138377
H	-0.0519306126	-0.1411836494	-2.1395145086	 0.104492
H	 0.0575388762	-3.8781210957	 0.0829074864	 0.095049
H	 0.1117863968	-3.4964091857	 2.4234815582	 0.315437
H	 0.0550158392	-0.2118743996	 2.0427165247	 0.265235
127.8577	171.2695	173.932	224.9582	284.531	357.0356	371.412	456.8164	501.2491	515.4945	549.4827	558.4546	608.9107	674.1949	723.1493	828.6474	877.8242	930.1399	980.5432	1017.2496	1065.2997	1066.7357	1175.1544	1203.7122	1240.6957	1265.0839	1351.2393	1413.4013	1432.4974	1479.9299	1488.4429	1560.0463	1652.2701	1700.0058	1728.4497	3027.0975	3077.9192	3146.6211	3196.1849	3210.8324	3646.542	3831.2688
CC1=CC(=O)C=C(O)N1	Cc1cc(=O)cc(O)[nH]1	
InChI=1S/C6H7NO2/c1-4-2-5(8)3-6(9)7-4/h2-3H,1H3,(H2,7,8,9)	InChI=1S/C6H7NO2/c1-4-2-5(8)3-6(9)7-4/h2-3H,1H3,(H2,7,8,9)
