19
gdb 66192	3.55423	1.16603	1.10934	2.976	76.86	-0.2492	0.006	0.2551	1173.206	0.158759	-423.008879	-423.000248	-422.999304	-423.042746	32.498	
O	 0.1113727302	 1.2836685481	 0.2503368562	-0.474277
C	-0.0847880715	-0.1283002811	 0.1355564498	 0.343133
C	 0.5077697714	-0.711098164	-1.1860624131	-0.269177
C	 1.8190758936	-1.4400838756	-0.7980724695	-0.269218
C	 1.7325230871	-1.5375220357	 0.7054607491	-0.072097
C	 0.6967689905	-0.8657145087	 1.2059205654	-0.142735
C	-1.5789890577	-0.3761977151	 0.2423403177	 0.063652
C	-2.5142409042	 0.5882887326	 0.8299058634	-0.183843
O	-2.435569431	 0.4024562197	-0.5879640969	-0.246498
H	 1.0527459654	 1.4291506535	 0.3881317515	 0.274759
H	-0.1972802355	-1.4211701029	-1.6274174827	 0.111717
H	 0.6493999184	 0.0938908982	-1.9094284922	 0.117893
H	 1.8977366313	-2.4262817327	-1.2696538749	 0.11258
H	 2.719790212	-0.8908753261	-1.1036176134	 0.109188
H	 2.4601121059	-2.0865722775	 1.2945903762	 0.100763
H	 0.4439327318	-0.7713974739	 2.2563143819	 0.098738
H	-1.8346723029	-1.43690659	 0.2786198934	 0.089537
H	-3.4316279804	 0.2304933827	 1.296067444	 0.105542
H	-2.1312742042	 1.5390758883	 1.1887253641	 0.130342
55.2159	64.3397	183.145	241.3709	252.2442	281.081	374.9155	390.7509	487.3442	504.4693	668.8282	742.323	761.6094	791.5989	832.1618	866.3105	896.3848	925.8115	970.8073	981.1401	986.2094	1016.3772	1050.7056	1095.1678	1112.8356	1124.382	1160.1751	1165.0353	1177.9182	1195.4661	1239.4816	1281.8931	1296.2814	1318.733	1342.7223	1381.5076	1451.8574	1475.5584	1495.2093	1520.3489	1679.8294	3019.4585	3052.521	3069.334	3088.0225	3096.3928	3121.1081	3178.0987	3196.6239	3205.1682	3820.6606
OC1(CCC=C1)C1CO1	O[C@]1(CCC=C1)[C@H]1CO1	
InChI=1S/C7H10O2/c8-7(6-5-9-6)3-1-2-4-7/h1,3,6,8H,2,4-5H2	InChI=1S/C7H10O2/c8-7(6-5-9-6)3-1-2-4-7/h1,3,6,8H,2,4-5H2/t6-,7-/m1/s1
