19
gdb 26351	2.47891	1.41079	0.96275	2.4714	78.38	-0.1819	0.053	0.2349	1227.4354	0.159939	-419.233721	-419.224304	-419.22336	-419.267574	35.798	
C	 0.1449890149	 1.4387885268	-0.3104630003	-0.399464
C	 0.0603077649	-0.0408574593	 0.0841138036	-0.004862
O	 0.6560928523	-0.2594120708	 1.3623189742	-0.423283
C	-1.3502502151	-0.5729796748	 0.0387685007	 0.226209
C	-2.0254743872	-1.1440692682	 1.0962297101	-0.179499
N	-3.2847403799	-1.4727503131	 0.6791325911	-0.25424
C	-3.4325404082	-1.1468244854	-0.6520776149	-0.147076
C	-2.2492180906	-0.5837197388	-1.0773180213	 0.124929
N	-1.9713500018	-0.0418127524	-2.3558534616	-0.607878
H	 1.1864274694	 1.7734272477	-0.3000633705	 0.110448
H	-0.2835790262	 1.6059951132	-1.3020651685	 0.137518
H	-0.4274541181	 2.0480917101	 0.3996090601	 0.103356
H	 0.6946980581	-0.618601331	-0.6038146314	 0.084365
H	 0.2086100267	 0.3290149437	 1.9810239513	 0.273699
H	-1.6879283617	-1.3586690596	 2.0962723609	 0.118468
H	-3.9858815241	-1.9139550417	 1.2454544684	 0.257891
H	-4.3551540817	-1.3314149744	-1.1788059035	 0.104596
H	-2.7066313037	-0.2589333372	-3.0181645611	 0.235022
H	-1.1000133079	-0.3967241149	-2.7353772673	 0.239802
64.3886	159.1728	180.5566	205.6073	258.8758	278.1513	306.8111	329.0904	353.1277	396.2634	482.0086	524.4872	613.3764	627.5003	641.0441	701.7487	739.5987	764.5561	829.4303	898.0912	919.0987	1031.0668	1059.2767	1080.7924	1086.7276	1118.5795	1151.3271	1207.7892	1266.5388	1302.4804	1335.0143	1355.5423	1402.2372	1411.4371	1432.3729	1479.8487	1487.8278	1499.621	1561.4192	1626.3948	1659.5332	2996.2265	3027.903	3099.1371	3127.1125	3257.4441	3274.7181	3505.9019	3594.1897	3699.366	3794.3653
CC(O)C1=CNC=C1N	C[C@@H](O)c1c[nH]cc1N	
InChI=1S/C6H10N2O/c1-4(9)5-2-8-3-6(5)7/h2-4,8-9H,7H2,1H3	InChI=1S/C6H10N2O/c1-4(9)5-2-8-3-6(5)7/h2-4,8-9H,7H2,1H3/t4-/m1/s1
