13
gdb 130593	3.43325	1.85016	1.20226	4.6753	73.83	-0.2464	-0.0981	0.1482	928.0567	0.092503	-415.65509	-415.648939	-415.647995	-415.685709	23.879	
O	 0.0639696719	-0.0343877027	 0.001462431	-0.301737
C	-0.0052565701	 1.1610474514	 0.0092922675	 0.410384
C	-1.2039225432	 2.0683418353	 0.0313596129	-0.212031
C	-0.8027889069	 3.3527339557	 0.0327516043	-0.204386
C	 0.6612806093	 3.3782614707	 0.0118326127	 0.419593
C	 1.7896884641	 4.1576466068	-0.0003682278	-0.38512
C	 2.8617698293	 3.2045657296	-0.0210738671	 0.034368
N	 2.4358080353	 1.9513235191	-0.0217938201	-0.247868
N	 1.088250631	 2.0814457703	-0.0013926074	-0.052973
H	-2.2093752847	 1.6764057594	 0.0435789811	 0.142368
H	-1.4295325635	 4.2333150624	 0.046597185	 0.141012
H	 1.8634793488	 5.2328023154	 0.0043920191	 0.126217
H	 3.9229625186	 3.4082240766	-0.0353692613	 0.130172
138.39	204.9932	310.3253	385.7751	556.0849	631.3363	645.4348	660.1102	683.8493	743.1117	761.3127	810.8978	827.9436	898.4682	942.1244	947.0687	1029.8991	1054.4559	1084.8977	1142.725	1219.6692	1293.713	1322.2323	1334.3006	1423.3441	1459.1061	1585.3201	1624.801	1862.0499	3235.5101	3244.8585	3264.7969	3275.2624
O=C1C=CC2=CC=NN12	O=C1C=Cc2ccnn12	
InChI=1S/C6H4N2O/c9-6-2-1-5-3-4-7-8(5)6/h1-4H	InChI=1S/C6H4N2O/c9-6-2-1-5-3-4-7-8(5)6/h1-4H
