19
gdb 95650	2.39987	1.58311	1.11259	3.6443	71.37	-0.2632	0.007	0.2703	1128.2888	0.159381	-460.20751	-460.19876	-460.197816	-460.24095	32.632	
C	-0.0320150136	 1.5419645625	-0.1384588503	-0.42163
C	 0.0576333167	 0.0283253176	-0.0463267142	 0.10311
O	 0.7907725255	-0.4446490625	-1.181476247	-0.233821
C	 0.6667944282	-1.8151566591	-1.3028807325	 0.021012
O	 1.116943994	-2.5486793082	-0.1533199461	-0.233615
C	 0.9946218426	-2.0271598046	 1.095209921	 0.401774
O	 1.1664589478	-2.7367440541	 2.0476828211	-0.328669
C	 0.7436181212	-0.5225073005	 1.2163989689	-0.120251
C	 2.0923767815	 0.15311975	 1.5361328259	-0.404308
H	 0.9617258968	 1.9911944736	-0.2025435602	 0.137966
H	-0.5946295522	 1.8291123078	-1.0303805198	 0.129818
H	-0.5433253281	 1.9478681544	 0.7396465322	 0.124471
H	-0.9612564599	-0.3925884144	-0.0978047408	 0.077688
H	-0.3811848396	-2.1064954382	-1.4803656121	 0.103396
H	 1.2964321804	-2.1404961689	-2.1329144141	 0.133013
H	 0.0770449173	-0.4022286573	 2.0763715738	 0.107394
H	 2.7598417856	 0.1150647249	 0.6706676115	 0.135945
H	 1.9481210799	 1.1994572091	 1.8160023944	 0.121856
H	 2.5731957459	-0.361035412	 2.3709616182	 0.14485
72.0156	121.2666	217.7855	232.2642	244.8373	296.263	305.3811	310.6877	427.8552	458.1764	521.5111	635.0408	723.0814	742.3342	779.3829	835.6448	888.8625	985.4774	1010.0114	1044.2465	1047.2717	1095.7542	1127.7423	1134.9115	1160.7347	1197.8404	1265.2713	1296.1142	1297.4153	1334.5327	1374.0386	1396.7509	1401.9147	1418.1185	1460.9053	1482.7695	1494.9121	1505.9142	1512.4297	1522.2542	1845.2566	2954.6969	2975.069	3049.9033	3052.5038	3065.9832	3117.2883	3122.9807	3125.6867	3134.1471	3136.9541
CC1OCOC(=O)C1C	C[C@H]1OCOC(=O)[C@H]1C	
InChI=1S/C6H10O3/c1-4-5(2)8-3-9-6(4)7/h4-5H,3H2,1-2H3	InChI=1S/C6H10O3/c1-4-5(2)8-3-9-6(4)7/h4-5H,3H2,1-2H3/t4-,5+/m0/s1
