19
gdb 128791	3.23522	1.01407	0.78341	1.7415	78.84	-0.2271	0.0337	0.2608	1457.0768	0.159287	-419.222632	-419.213099	-419.212155	-419.258326	33.377	
C	-0.0561912092	 1.4122799768	 0.0155668016	-0.222306
O	-0.0259508434	 0.0060465659	 0.0158120344	-0.2329
C	 0.6249900326	-0.5278345803	-1.1169442161	-0.187613
C	 0.6094488066	-2.0193166779	-1.0318724568	 0.131712
C	 0.061048708	-2.7896573112	-0.0303836179	-0.104217
N	 0.2852164639	-4.0801127349	-0.3777128187	-0.195305
N	 0.9464956505	-4.2068993181	-1.5446778503	-0.288338
C	 1.149877903	-2.9552995474	-1.9533899608	 0.269289
C	 1.8676782851	-2.6773627486	-3.2360542143	-0.500335
H	 0.9577256486	 1.8433897381	 0.0171876013	 0.104811
H	-0.5949665519	 1.8098515061	-0.8593869972	 0.104809
H	-0.5754980118	 1.7287785782	 0.9233051527	 0.126966
H	 0.1251769928	-0.1832508474	-2.0411840103	 0.094781
H	 1.6626052013	-0.1497760071	-1.1734775163	 0.094778
H	-0.4548925612	-2.5110894732	 0.8731985726	 0.143368
H	 0.0196689672	-4.909243	 0.1244819154	 0.270676
H	 1.2386597761	-2.1165393164	-3.9375933929	 0.124375
H	 2.7741492309	-2.0828761279	-3.0710130976	 0.124372
H	 2.156110781	-3.6174886047	-3.710611159	 0.141076
30.8144	81.6325	118.4295	121.0178	229.5826	246.2363	265.8332	292.1895	355.1543	469.7858	480.4392	653.7242	656.6281	700.859	796.7814	802.8299	952.727	991.4249	1007.2759	1043.7517	1070.7918	1075.9715	1141.8492	1165.9586	1184.7445	1217.0487	1233.0064	1252.6406	1318.0562	1391.2868	1412.0763	1420.9987	1475.7564	1481.8274	1483.2182	1485.1085	1491.8007	1502.6812	1514.8819	1530.0405	1619.2605	2925.8795	2936.5126	2969.4932	3012.309	3026.0982	3072.7655	3114.8625	3131.5468	3279.9139	3683.4863
COCC1=CNN=C1C	COCc1c[nH]nc1C	
InChI=1S/C6H10N2O/c1-5-6(4-9-2)3-7-8-5/h3H,4H2,1-2H3,(H,7,8)	InChI=1S/C6H10N2O/c1-5-6(4-9-2)3-7-8-5/h3H,4H2,1-2H3,(H,7,8)
