12
gdb 27609	3.84904	1.22544	0.92951	4.4924	70.09	-0.2896	-0.0829	0.2067	1128.7794	0.080296	-431.743024	-431.736228	-431.735283	-431.774523	25.195	
O	 0.0835024543	 1.3384465661	-0.0643130868	-0.397975
C	 0.0679828317	 0.0033737439	-0.0461647462	 0.46431
C	 0.039879002	-0.6957808819	-1.258821067	-0.26711
C	 0.0253276966	-2.0774260225	-1.1475287198	 0.237011
N	 0.0369037903	-2.7275665557	 0.0314794027	-0.310622
C	 0.0636974717	-1.9471157894	 1.1039388659	 0.071324
N	 0.0799647688	-0.6110577783	 1.1317006273	-0.337548
C	-0.0037560951	-2.8887766214	-2.338550767	 0.253719
N	-0.0270523259	-3.5130520451	-3.3111372407	-0.312277
H	 0.1020673452	 1.6312026212	 0.8591654833	 0.311952
H	 0.0303601479	-0.1846449689	-2.2116334584	 0.148097
H	 0.0735060924	-2.4473647579	 2.0686581567	 0.13912
134.2931	155.1965	216.1164	378.1891	411.0172	475.2653	504.2087	562.1675	578.4383	597.386	717.2299	802.2892	804.8986	904.627	970.8012	999.956	1004.4035	1157.7001	1187.9522	1279.2195	1326.5115	1370.5999	1451.7712	1497.6901	1596.4867	1640.8312	2359.6462	3177.2662	3233.0283	3750.6724
OC1=CC(=NC=N1)C#N	Oc1cc(ncn1)C#N	
InChI=1S/C5H3N3O/c6-2-4-1-5(9)8-3-7-4/h1,3H,(H,7,8,9)	InChI=1S/C5H3N3O/c6-2-4-1-5(9)8-3-7-4/h1,3H,(H,7,8,9)
