19
gdb 78870	2.85502	1.80522	1.38616	1.9763	79.16	-0.2056	0.0774	0.283	981.3859	0.160203	-381.962084	-381.954653	-381.953709	-381.993533	30.277	
C	 0.0212857412	 1.5531501081	 0.0854594298	-0.32053
N	 0.1149230856	 0.0973262877	 0.0605905931	-0.081333
C	 1.1392449183	-0.539362896	-0.7584732683	-0.028166
C	 1.3353848704	-1.6542478976	 0.2051225084	-0.094573
C	 2.4665099442	-0.6409237996	 0.054044503	-0.211664
C	 2.1366962666	-0.0813838392	 1.4153235336	 0.415178
C	 2.976394228	-0.1669211892	 2.6228462823	-0.325159
N	 2.5206666671	 1.1468610599	 2.0956507385	-0.381142
C	 0.7070017445	-0.6249160881	 1.2257201762	-0.127252
H	 0.9765203171	 2.0721627601	 0.2427995567	 0.109473
H	-0.4068842477	 1.8892136834	-0.8653235237	 0.111781
H	-0.6622997884	 1.8527016833	 0.8859225992	 0.120945
H	 1.1200435193	-0.5445416261	-1.8419689801	 0.095536
H	 1.303829594	-2.7292543771	 0.118774697	 0.101184
H	 3.4358454833	-0.7869693963	-0.4062874963	 0.086012
H	 2.5458298487	-0.4441749961	 3.5822046868	 0.116697
H	 4.0224367581	-0.4390633413	 2.503842084	 0.110463
H	 3.2806970979	 1.6067901129	 1.5983835917	 0.226648
H	 0.0539601716	-0.8225969187	 2.0745334683	 0.0759
158.2036	182.103	214.0541	272.9531	315.7968	350.6713	487.9335	606.3231	652.1824	678.2382	754.5304	790.647	801.1909	862.9384	863.9845	886.5487	916.8186	932.5243	956.8358	976.0568	997.4072	1008.3232	1052.1351	1066.5068	1070.5206	1123.3221	1137.8196	1160.2998	1165.274	1180.1706	1204.5231	1238.4494	1253.4691	1273.8094	1294.1945	1353.651	1437.0847	1448.4631	1484.8901	1500.5028	1521.4732	3006.7678	3070.9873	3097.9338	3102.2469	3129.1706	3180.7461	3183.1766	3194.462	3237.6146	3484.9725
CN1C2C3C2C2(CN2)C13	CN1[C@@H]2[C@H]3[C@@H]2[C@]2(CN2)[C@@H]13	
InChI=1S/C7H10N2/c1-9-5-3-4(5)7(2-8-7)6(3)9/h3-6,8H,2H2,1H3	InChI=1S/C7H10N2/c1-9-5-3-4(5)7(2-8-7)6(3)9/h3-6,8H,2H2,1H3/t3-,4+,5-,6+,7-/m1/s1
