19
gdb 92228	2.78721	1.78615	1.4068	2.6539	73.95	-0.2361	0.0788	0.3149	980.4142	0.160407	-423.004387	-422.996962	-422.996017	-423.036082	29.588	
C	 0.0906143851	 1.5632798023	-0.2184234128	-0.423188
C	 0.0552273066	 0.0741383788	 0.0547392962	 0.16493
O	 0.8655319248	-0.7040242436	-0.8640611966	-0.310447
C	 1.3549698049	-1.539764306	 0.2047515539	 0.129407
C	 2.887126837	-1.5918146179	 0.3498236545	-0.270004
C	 3.2275752525	-0.497432493	 1.3454070038	 0.044494
O	 2.8232891175	 0.8057045758	 0.9252645972	-0.243623
C	 1.9900261073	 0.1184933004	 1.8693795817	 0.027403
C	 0.7779853298	-0.570802797	 1.2710144859	-0.143424
H	 1.1097362676	 1.9465545788	-0.1867268866	 0.155804
H	-0.3315351249	 1.7623471411	-1.2090662788	 0.122844
H	-0.521603437	 2.0956912282	 0.5183044345	 0.108584
H	-0.9859709199	-0.2815888981	 0.0130863933	 0.068997
H	 0.9066405126	-2.5398135493	 0.1543883855	 0.073863
H	 3.2076377314	-2.5648990442	 0.7393478098	 0.101028
H	 3.3737822405	-1.4362567235	-0.6177599265	 0.130212
H	 4.1542592769	-0.5332827255	 1.9144866069	 0.094758
H	 1.9346382778	 0.5807455837	 2.8521211867	 0.094382
H	 0.1333936195	-0.9806811609	 2.0512836916	 0.073978
113.3318	183.684	207.7854	272.4669	356.3665	378.6843	419.2876	571.7293	618.6077	694.693	778.1823	794.1712	836.4552	860.7361	872.8544	900.193	912.4942	970.6008	975.886	1027.4481	1042.7022	1053.9549	1101.1679	1104.7857	1120.9824	1160.9719	1202.7111	1204.9416	1252.0794	1262.33	1290.7109	1319.9725	1329.0503	1356.687	1360.7675	1394.6559	1420.2778	1427.8335	1459.854	1480.9427	1505.8879	2974.5181	3019.2997	3039.4231	3047.6375	3090.2116	3098.7128	3098.7926	3132.3597	3145.8607	3164.9362
CC1OC2CC3OC3C12	C[C@H]1O[C@H]2C[C@H]3O[C@H]3[C@@H]12	
InChI=1S/C7H10O2/c1-3-6-4(8-3)2-5-7(6)9-5/h3-7H,2H2,1H3	InChI=1S/C7H10O2/c1-3-6-4(8-3)2-5-7(6)9-5/h3-7H,2H2,1H3/t3-,4+,5-,6+,7-/m1/s1
