17
gdb 78433	3.43094	1.49827	1.46961	2.6853	71.63	-0.2258	0.0263	0.2522	966.9798	0.13764	-417.959546	-417.952632	-417.951687	-417.990664	27.55	
C	-0.1548071213	 1.2851286876	-0.0573175254	-0.320672
N	 0.108546765	-0.146549227	 0.0549659527	-0.086578
C	 1.519729755	-0.4982363936	-0.1341219609	-0.068112
C	 0.8916796522	-0.5113835184	 1.2362369886	-0.034922
C	 0.9630975646	-2.0583240567	 1.2872872186	-0.059565
N	-0.2888193083	-2.7891962939	 1.1235580956	-0.259925
C	-0.3525783729	-3.0590040535	-0.1157274174	 0.132657
O	 0.6737134292	-2.7396236407	-0.956795733	-0.225006
C	 1.6135918027	-2.0310318042	-0.1346000301	 0.053451
H	 0.6612090684	 1.9228066224	 0.3225642837	 0.098728
H	-0.3234616508	 1.5338156035	-1.1092417377	 0.129933
H	-1.0643559068	 1.5212762655	 0.5025578581	 0.132766
H	 2.2114782336	 0.2079730411	-0.5779104288	 0.094189
H	 1.0106376103	 0.1855833625	 2.0571750702	 0.097379
H	 1.5674650789	-2.4409233602	 2.1117702555	 0.085329
H	-1.173008648	-3.5721358988	-0.6050130913	 0.136668
H	 2.6119069082	-2.4452274055	-0.2780767784	 0.093681
158.163	192.1283	252.2	292.8378	321.6015	453.8199	510.5894	652.6566	670.2096	766.8755	799.6905	837.5949	870.8105	882.8748	912.7006	941.6429	963.5731	982.4542	995.2632	1041.8726	1052.0596	1087.2485	1112.1976	1127.0122	1156.5264	1220.9975	1223.5568	1232.7291	1285.0762	1298.3497	1327.8718	1351.6985	1371.2234	1456.3732	1494.4258	1499.7758	1675.6126	2961.613	3074.5033	3093.8549	3112.441	3113.088	3179.7295	3193.2862	3216.2569
CN1C2C1C1N=COC21	CN1[C@H]2[C@@H]1[C@H]1N=CO[C@@H]21	
InChI=1S/C6H8N2O/c1-8-4-3-6(5(4)8)9-2-7-3/h2-6H,1H3	InChI=1S/C6H8N2O/c1-8-4-3-6(5(4)8)9-2-7-3/h2-6H,1H3/t3-,4+,5+,6-,8?/m1/s1
