13
gdb 24550	4.12444	1.69148	1.19953	2.6038	74.24	-0.2198	-0.091	0.1288	925.6972	0.093015	-415.63823	-415.632332	-415.631388	-415.668456	23.26	
O	-0.024500663	 1.3507554117	 0.0098090652	-0.18688
C	 1.1435075572	 2.0065392038	 0.0018476918	 0.131943
N	 2.3281193636	 1.5006359566	-0.0124689833	-0.290047
C	 2.4453641672	 0.1255124659	-0.0208472507	-0.10314
C	 1.3448217858	-0.6682328338	-0.0141719276	 0.188962
C	 1.0077780871	-2.0646930543	-0.017947086	-0.137742
N	-0.2961235735	-2.2294731242	-0.00642423	-0.230334
C	-0.9150666051	-0.9718795304	 0.0061422391	-0.188399
C	 0.0408887367	-0.0119119763	 0.0020133805	 0.28166
H	 0.9879293841	 3.0795971436	 0.0088898627	 0.158273
H	 3.4617213826	-0.2567388032	-0.03266372	 0.141292
H	 1.6927028882	-2.9023902547	-0.0288742922	 0.116508
H	-1.9896510109	-0.8813412149	 0.0169686304	 0.117905
181.4461	250.2267	353.315	422.3917	538.7619	574.0577	617.5222	651.1285	729.6437	750.8364	818.4161	839.7026	876.5349	913.1755	935.0253	993.133	1066.9411	1098.7309	1151.1232	1218.0989	1248.776	1288.3692	1319.8926	1375.2079	1419.2844	1470.8554	1556.1931	1612.8673	1685.723	3181.6658	3214.4761	3217.5659	3257.9096
O1C=NC=C2C=NC=C12	o1cncc2cncc12	
InChI=1S/C6H4N2O/c1-5-2-8-4-9-6(5)3-7-1/h1-4H	InChI=1S/C6H4N2O/c1-5-2-8-4-9-6(5)3-7-1/h1-4H
