19
gdb 112799	2.07512	1.34928	1.04851	4.2321	72.89	-0.2369	-0.0238	0.213	1229.5461	0.157202	-460.139306	-460.129844	-460.1289	-460.174534	34.043	
C	 0.5549260552	 0.8771414519	 0.5413266709	-0.244349
O	 0.2615195248	-0.4280266631	 0.0790712952	-0.258043
C	 0.4459488887	-0.5873363827	-1.3196875465	 0.091032
C	 1.9244240219	-0.8934906919	-1.6867690954	-0.283184
C	 1.6070675599	-2.4000055017	-1.4716564347	 0.122461
O	 1.9094439316	-2.8679431062	-0.1783312652	-0.434324
C	 0.088511175	-2.0549107906	-1.7006081511	-0.136479
C	-0.9705497709	-2.7784887304	-0.9107145984	 0.164897
O	-1.9974866448	-3.1893985088	-1.3935381992	-0.261923
H	 1.6009079506	 1.1566965291	 0.3528715791	 0.116192
H	-0.0971032686	 1.6208405537	 0.0614742761	 0.119444
H	 0.3735178447	 0.885371089	 1.6180800183	 0.137459
H	-0.0735415696	 0.2113140007	-1.8642286719	 0.07863
H	 2.1445048232	-0.6569975242	-2.7312943566	 0.112216
H	 2.7006307546	-0.4666390346	-1.0465333528	 0.108671
H	 2.044117231	-3.1156968772	-2.1704357832	 0.094841
H	 1.5822811971	-2.2065959501	 0.4459487094	 0.28698
H	-0.1695024858	-2.107429395	-2.7608914546	 0.099065
H	-0.7463882684	-2.9239312479	 0.1636071705	 0.086415
31.7889	101.1397	135.2936	164.0846	198.1821	210.4292	314.4835	375.2841	389.0147	462.299	471.8025	517.8142	564.6408	786.5223	839.5724	845.0645	894.8853	908.1964	953.1586	1020.3719	1045.3721	1085.5734	1130.0969	1136.939	1156.6461	1176.0282	1185.2765	1220.99	1231.0937	1254.4945	1275.3963	1297.3719	1336.2141	1373.5323	1437.4529	1447.199	1465.9923	1482.2996	1488.1817	1509.262	1815.6014	2943.4061	2992.8952	3023.5712	3046.6706	3062.4159	3090.8684	3100.7005	3121.1188	3126.3123	3760.5526
COC1CC(O)C1C=O	CO[C@H]1C[C@@H](O)[C@H]1C=O	
InChI=1S/C6H10O3/c1-9-6-2-5(8)4(6)3-7/h3-6,8H,2H2,1H3	InChI=1S/C6H10O3/c1-9-6-2-5(8)4(6)3-7/h3-6,8H,2H2,1H3/t4-,5-,6+/m1/s1
