19
gdb 74300	3.02259	1.11958	1.04061	3.4901	79.79	-0.2292	-0.0304	0.1988	1257.6424	0.156199	-423.050867	-423.041283	-423.040339	-423.085543	34.514	
C	-0.0317003119	 1.4679920859	 0.0861351971	-0.493781
C	-0.023145836	-0.0237046666	 0.0121580317	 0.299987
C	-1.0323586049	-0.8780304393	 0.1669997591	-0.250785
C	-0.5601370013	-2.3028592403	-0.014507259	 0.258142
C	-1.273659332	-3.0731446153	-1.1249116198	-0.419122
O	 0.8390974316	-2.1743101393	-0.2958651819	-0.308278
C	 1.2288332407	-0.8042178037	-0.2992628645	-0.166908
C	-0.6932643011	-3.0252593826	 1.3354702995	 0.134456
O	-1.6377384873	-3.690318903	 1.6693542849	-0.252388
H	 0.6607832256	 1.8280047474	 0.857195286	 0.135426
H	 0.2979275126	 1.9115689627	-0.8616172431	 0.135085
H	-1.0277097741	 1.8536342006	 0.3156398964	 0.134609
H	-2.0624649853	-0.6355963704	 0.3956419965	 0.113961
H	-1.2623839566	-2.4974637602	-2.0534520891	 0.115899
H	-0.7728042165	-4.0300860316	-1.2958032023	 0.130324
H	-2.3067546827	-3.2754436646	-0.8325552869	 0.136778
H	 1.6515529555	-0.5331405954	-1.2801666033	 0.106615
H	 2.0202936739	-0.6362567446	 0.4478177806	 0.107682
H	 0.1805404899	-2.8477072898	 2.0020218382	 0.082298
65.0094	84.5328	151.4344	166.768	197.9032	254.0898	259.081	315.0735	366.6936	392.2132	464.0819	510.601	602.4677	713.9664	830.1204	845.4574	896.2837	908.572	943.3256	990.4634	999.7702	1013.6824	1077.5259	1093.5631	1108.6984	1179.2598	1186.6128	1211.3832	1242.008	1306.2076	1380.6041	1386.6	1400.8254	1414.1451	1478.5128	1481.0072	1486.7872	1488.7717	1521.4285	1722.3761	1830.4138	2885.5765	2972.2704	2991.719	3023.0041	3049.7689	3070.0983	3121.1518	3126.6095	3137.2574	3217.6899
CC1=CC(C)(OC1)C=O	CC1=C[C@@](C)(OC1)C=O	
InChI=1S/C7H10O2/c1-6-3-7(2,5-8)9-4-6/h3,5H,4H2,1-2H3	InChI=1S/C7H10O2/c1-6-3-7(2,5-8)9-4-6/h3,5H,4H2,1-2H3/t7-/m1/s1
