18
gdb 17948	3.1278	2.21199	2.04853	1.3291	70.02	-0.236	0.076	0.3119	783.9764	0.156043	-347.782091	-347.775503	-347.774559	-347.812299	27.194	
O	-0.1111213673	 1.4079197423	-0.0587913128	-0.466264
C	 0.0243022228	 0.0349844209	-0.025927518	 0.384027
C	-1.0522955335	-1.0151848495	 0.0543614099	-0.114126
C	-0.4524458275	-1.7782864024	-1.1265202581	-0.229221
C	 0.8238881515	-0.876744759	-1.0137894913	-0.101878
C	 1.9049137336	-1.5479076158	-0.1556546818	-0.20944
C	 1.1895545199	-1.815952996	 1.2009061878	-0.233052
C	-0.005805808	-0.8632024693	 1.1757199926	-0.117041
H	 0.6279607451	 1.798892077	 0.4201677475	 0.283323
H	-2.10565434	-0.8958232023	 0.2798161586	 0.08475
H	-0.3011008239	-2.8585683003	-1.0183291074	 0.086933
H	-1.0066319167	-1.5894578028	-2.0493752236	 0.102627
H	 1.1748061298	-0.4271993858	-1.9426964314	 0.068553
H	 2.3000301618	-2.4614436294	-0.6114720586	 0.094705
H	 2.7492977528	-0.8620547233	-0.0140529552	 0.088868
H	 0.8741257435	-2.8611699378	 1.2901022218	 0.10169
H	 1.8445763243	-1.6119846819	 2.0536958444	 0.094192
H	-0.4069229682	-0.4606148343	 2.0997263555	 0.081356
207.9018	221.4974	291.892	324.4695	392.4759	465.2324	591.8823	615.1105	688.4089	713.3297	810.0241	848.6378	865.1903	885.7525	913.2747	932.3123	975.434	998.8674	1026.0141	1052.8548	1056.9745	1100.3078	1116.5646	1139.199	1167.6306	1202.4584	1223.5464	1248.393	1276.3494	1285.344	1289.3267	1315.2073	1334.5131	1342.2799	1468.2555	1486.2591	1497.1433	1512.7339	3026.855	3032.454	3042.5046	3070.1541	3085.4481	3095.1366	3115.2809	3171.4093	3182.1578	3790.5377
OC12C3CC1CCC23	O[C@@]12[C@H]3C[C@@H]1CC[C@@H]23	
InChI=1S/C7H10O/c8-7-4-1-2-5(7)6(7)3-4/h4-6,8H,1-3H2	InChI=1S/C7H10O/c8-7-4-1-2-5(7)6(7)3-4/h4-6,8H,1-3H2/t4-,5+,6-,7-/m0/s1
