16
gdb 27786	2.08824	1.76923	0.96925	6.0559	76.46	-0.2513	-0.0632	0.1882	1184.2295	0.123021	-437.964018	-437.955446	-437.954502	-437.997671	30.818	
C	 0.0715958717	 1.4919030576	-0.0395474073	-0.474824
C	-0.0635981631	 0.0063165196	 0.0044568416	 0.417651
C	-1.2174989585	-0.6985578298	-0.07855322	-0.289422
C	-1.1246516909	-2.1249203497	-0.0150976575	 0.338619
C	-2.3781185846	-2.9484237471	-0.1030126212	-0.477505
N	 0.0091554354	-2.7596619967	 0.1171375646	-0.378727
C	 1.185713589	-2.0551668417	 0.202123392	 0.432288
O	 2.2837162557	-2.5072616762	 0.3238200184	-0.330312
O	 1.106421531	-0.6218402446	 0.1397698913	-0.248451
H	 0.7161863104	 1.7856916993	-0.8744652859	 0.160344
H	-0.9025714345	 1.9701812359	-0.1510483504	 0.139475
H	 0.5486250111	 1.8527936543	 0.8775520425	 0.16034
H	-2.1689191142	-0.1970212128	-0.188360383	 0.108667
H	-2.9002221879	-2.747917966	-1.0455261535	 0.142976
H	-2.1355293453	-4.0088447388	-0.0391305308	 0.155923
H	-3.0673467555	-2.6806242632	 0.7059237992	 0.14296
88.003	105.7455	138.9516	169.0188	213.5021	273.1501	331.8308	502.1472	530.6697	549.8412	574.3958	630.1277	660.1584	781.606	803.2155	824.8695	958.1551	975.1756	995.5792	1038.754	1052.9688	1063.9591	1126.4205	1190.2287	1331.8797	1395.5668	1411.8461	1423.8491	1464.0459	1467.3795	1479.2533	1485.578	1580.2745	1689.5917	1877.4368	3037.4191	3045.3058	3092.5279	3104.7917	3147.1931	3160.4981	3227.1193
CC1=CC(C)=NC(=O)O1	Cc1cc(C)nc(=O)o1	
InChI=1S/C6H7NO2/c1-4-3-5(2)9-6(8)7-4/h3H,1-2H3	InChI=1S/C6H7NO2/c1-4-3-5(2)9-6(8)7-4/h3H,1-2H3
