17
gdb 43134	2.51555	1.96307	1.63291	3.5308	71.52	-0.2374	-0.0082	0.2292	898.6173	0.13774	-421.772817	-421.766055	-421.765111	-421.803725	27.358	
O	 0.1668888931	 0.0393067022	 0.1044308885	-0.327787
C	 0.0445004968	 1.2242329044	 0.068420704	 0.435109
C	-1.065871702	 2.2565771572	-0.0576810103	-0.215377
C	-0.8120707111	 2.9881243799	 1.3216693919	-0.22954
C	 0.7838208055	 3.0495059484	 1.4141515811	-0.338459
C	 1.0336955431	 2.4438444971	 0.0431169152	 0.162928
C	 1.9200724314	 2.3591079984	-1.1975811625	-0.19775
O	 0.708892486	 2.5035347351	-2.0180350408	-0.30855
C	-0.0219484538	 3.0556993166	-0.8874481458	 0.12332
H	-2.1010976929	 2.0480364047	-0.3230297014	 0.090342
H	-1.2457773622	 3.9911350985	 1.3123732495	 0.118588
H	-1.2589573289	 2.4302833863	 2.1465124051	 0.126819
H	 1.1421438189	 4.0768808457	 1.5123235915	 0.113927
H	 1.1726619748	 2.4637700133	 2.2506204969	 0.120139
H	 2.6022060001	 3.2032512505	-1.3561213368	 0.110723
H	 2.4300720138	 1.4112094019	-1.3881952189	 0.131012
H	-0.1706387525	 4.1357780197	-0.9774148371	 0.084555
154.178	240.6637	260.3795	268.6559	403.4742	474.8811	543.2935	649.4022	687.0472	769.7564	776.7085	831.5791	840.5563	859.3012	899.8192	911.5571	945.0182	995.4703	1003.1749	1030.5904	1064.2343	1084.7361	1127.8831	1149.6829	1157.2525	1209.7398	1237.6267	1239.5779	1251.3099	1285.4165	1310.5563	1316.5961	1347.7316	1488.7155	1508.9025	1512.6004	1917.8767	3027.2102	3062.1666	3068.3968	3073.1001	3102.5689	3107.1117	3128.5415	3135.6573
O=C1C2CCC11COC21	O=C1[C@H]2CC[C@]31CO[C@@H]23	
InChI=1S/C7H8O2/c8-5-4-1-2-7(5)3-9-6(4)7/h4,6H,1-3H2	InChI=1S/C7H8O2/c8-5-4-1-2-7(5)3-9-6(4)7/h4,6H,1-3H2/t4-,6+,7-/m1/s1
