16
gdb 34805	4.06423	1.32819	1.25286	4.1715	71.59	-0.2771	0.0258	0.303	1002.361	0.126584	-400.711936	-400.705402	-400.704458	-400.742804	26.524	
N	-0.0504400927	-1.1569243067	-0.0784704153	-0.335678
C	-0.0341355749	-0.0011917534	-0.0382752524	 0.261767
C	-0.0316635352	 1.4492227621	-0.0067425095	-0.131901
C	-0.0974793391	 2.0731124613	 1.4295785839	-0.084122
C	 1.4347946066	 1.7513968302	 1.5348646388	-0.243061
C	 1.3934438306	 2.1015275501	 0.0057640611	-0.08412
C	 1.0396934982	 3.6040137358	 0.0994525842	 0.029857
O	-0.3094218298	 3.9539914511	-0.2476043903	-0.24609
C	-0.0176444675	 3.5838622966	 1.1091986233	 0.029856
H	-0.7363330377	 1.8454172498	-0.7367184251	 0.143887
H	-0.8254726098	 1.7309199526	 2.1622026333	 0.091822
H	 2.0380915848	 2.3956505548	 2.1794540754	 0.105242
H	 1.647623376	 0.7000875036	 1.7367440469	 0.137176
H	 2.1653331931	 1.7879206782	-0.6939826423	 0.091822
H	 1.788432452	 4.377805681	-0.0257523491	 0.116771
H	-0.1924265847	 4.3400526929	 1.8659466572	 0.116771
154.0089	158.965	346.9676	395.5818	448.6805	521.4005	541.9176	590.6057	682.9863	803.5683	820.647	851.932	872.3139	886.4465	903.2682	940.6424	949.6454	980.4545	1017.8469	1046.2448	1071.1717	1083.1226	1089.0665	1115.88	1209.4201	1214.7192	1228.9308	1240.5049	1256.8635	1269.7276	1291.6768	1330.8688	1402.98	1503.2403	2353.8221	3068.573	3126.5361	3135.0955	3142.4001	3143.8494	3180.0046	3191.5393
N#CC1C2CC1C1OC21	N#C[C@H]1[C@H]2C[C@@H]1[C@H]1O[C@@H]21	
InChI=1S/C7H7NO/c8-2-5-3-1-4(5)7-6(3)9-7/h3-7H,1H2	InChI=1S/C7H7NO/c8-2-5-3-1-4(5)7-6(3)9-7/h3-7H,1H2/t3-,4+,5+,6+,7-
