17
gdb 67373	2.26561	1.98408	1.93759	0.7523	71.35	-0.2354	-0.0006	0.2348	868.5381	0.137438	-421.794575	-421.787816	-421.786871	-421.82524	28.098	
O	-0.1260954576	 1.392021186	-0.0274110791	-0.478871
C	 0.0033991973	 0.0160429966	 0.0058407289	 0.345623
C	 0.5856939875	-0.8953449811	 1.1274226707	 0.031975
C	-0.7949558158	-1.576508517	 1.2781410597	-0.243775
C	-1.3155909537	-0.8075011851	-0.0036569424	-0.10842
C	-1.2520095222	-1.5919058939	-1.2883344553	-0.081719
C	-0.0280847918	-1.5793776549	-1.8261261453	-0.072545
C	 0.9162214358	-0.7879941207	-0.9617400735	-0.006566
O	 1.4465537598	-1.555968447	 0.1764260888	-0.316007
H	 0.7516270246	 1.786743261	 0.0280256116	 0.28647
H	 1.1216225745	-0.5687601247	 2.0218195945	 0.074958
H	-0.7965879005	-2.6662923104	 1.2272416002	 0.109683
H	-1.3100819053	-1.2468280745	 2.1848699585	 0.104259
H	-2.2373141916	-0.2443146501	 0.149618587	 0.084031
H	-2.1017972975	-2.1393598249	-1.6823368598	 0.100925
H	 0.2752000267	-2.1010451136	-2.7259448816	 0.100257
H	 1.7297893797	-0.2724944658	-1.483341103	 0.069721
210.6289	219.7801	309.7889	341.0694	388.3507	397.0795	533.1556	602.5208	671.3775	680.6685	768.5957	788.3465	810.3554	860.954	893.2893	936.055	966.6482	971.8962	992.6363	1000.2449	1023.1623	1063.7465	1086.7643	1116.5423	1136.4164	1156.8548	1181.3536	1220.3185	1256.9982	1286.5774	1295.0046	1322.972	1328.984	1373.5536	1402.3437	1462.0397	1655.9271	3050.7008	3059.2448	3081.3316	3101.3427	3130.7601	3183.2812	3212.3122	3796.4343
OC12C3CC1C=CC2O3	O[C@@]12[C@H]3C[C@@H]1C=C[C@@H]2O3	
InChI=1S/C7H8O2/c8-7-4-1-2-5(7)9-6(7)3-4/h1-2,4-6,8H,3H2	InChI=1S/C7H8O2/c8-7-4-1-2-5(7)9-6(7)3-4/h1-2,4-6,8H,3H2/t4-,5-,6+,7-/m0/s1
