23
gdb 66160	3.82776	0.73137	0.7032	2.8886	87.1	-0.2471	-0.0181	0.229	1692.6855	0.203955	-388.297329	-388.287226	-388.286282	-388.333262	37.025	
C	 0.1057122083	 1.6249872882	 0.1702101436	-0.447016
C	 0.0068193857	 0.101101759	 0.0595617142	 0.365674
C	-1.4387053461	-0.373950463	-0.1233846101	-0.270506
C	-2.1164333682	 0.117804279	-1.417182622	-0.28154
C	-3.4411108009	-0.5720321645	-1.6432085668	 0.161954
O	-4.5023789623	-0.0165039476	-1.7631370189	-0.238179
C	 1.0565954828	-0.4851601744	-0.9429156013	-0.249123
C	 1.9896158445	-0.8139732147	 0.2532123516	-0.213115
C	 0.7888816697	-0.6078604392	 1.2142811924	-0.263436
H	 1.138552224	 1.9388524606	 0.3537727304	 0.114283
H	-0.2279748038	 2.1221736663	-0.7465111528	 0.116718
H	-0.5063797993	 1.998643625	 0.9993603169	 0.113964
H	-1.447281618	-1.4723762585	-0.1176019311	 0.092881
H	-2.0388132691	-0.0576695545	 0.7404323154	 0.107345
H	-2.2872495917	 1.1968466287	-1.4115259365	 0.123597
H	-1.4690490211	-0.1249342318	-2.2730827917	 0.11916
H	-3.3721430546	-1.6859064359	-1.6851913805	 0.066984
H	 0.6898722022	-1.3899759097	-1.4382637574	 0.092236
H	 1.4422674381	 0.1935390477	-1.7087627687	 0.094882
H	 2.4617804487	-1.7986536267	 0.2550317584	 0.098756
H	 2.7715398011	-0.0630208324	 0.3918868439	 0.105043
H	 0.9634661031	-0.0201458365	 2.119812745	 0.094993
H	 0.3227604169	-1.5547456454	 1.503789056	 0.094445
54.5134	61.7739	106.3793	127.6032	157.4464	254.882	290.0169	309.3162	347.0062	392.1472	420.2848	528.2608	645.1855	716.9223	773.5106	791.7194	846.9663	864.4528	915.5921	925.3228	945.8531	958.3357	993.2023	1000.5313	1033.425	1063.4798	1090.1472	1162.834	1180.4031	1207.1214	1216.433	1235.7936	1258.9549	1267.6937	1275.7654	1289.0809	1309.582	1343.3067	1376.9251	1412.1613	1430.3693	1462.7476	1474.6308	1480.9653	1488.8662	1497.7526	1501.5022	1508.4926	1836.0864	2842.1312	3005.406	3011.8594	3025.6809	3042.7899	3046.1053	3049.4274	3064.7083	3090.551	3092.1657	3096.1105	3097.9149	3110.4143	3119.0965
CC1(CCC=O)CCC1	CC1(CCC=O)CCC1	
InChI=1S/C8H14O/c1-8(4-2-5-8)6-3-7-9/h7H,2-6H2,1H3	InChI=1S/C8H14O/c1-8(4-2-5-8)6-3-7-9/h7H,2-6H2,1H3
