16
gdb 101294	2.45476	1.17657	0.92288	1.7713	65.15	-0.2763	-0.0103	0.2659	1249.2478	0.122341	-474.991681	-474.98242	-474.981475	-475.02655	32.831	
O	-0.5604543419	 1.3493266437	 0.0374000684	-0.434183
C	-0.9075805852	 0.0314859327	 0.4546324196	-0.114255
C	-1.4184271479	-0.657815222	-0.8115922727	 0.091396
O	-0.4402054719	-0.5775401703	-1.8331864863	-0.450573
C	-1.7053682529	-2.1379065374	-0.6254273025	 0.053423
O	-1.4101438651	-2.7588659194	 0.6275344963	-0.222944
C	-2.7805272089	-2.6855928139	 0.2278544389	-0.110784
C	-3.6477865405	-1.8267255015	 1.0060856925	 0.314456
N	-4.3631129397	-1.1534855641	 1.615521864	-0.329997
H	-0.0628196523	 1.7735903645	 0.7415458215	 0.299293
H	-0.0340681136	-0.5139381168	 0.8336750696	 0.113094
H	-1.67980807	 0.0463616121	 1.2331331721	 0.122777
H	-2.3443266888	-0.1505955328	-1.1308707266	 0.097091
H	-0.093480399	 0.3230897224	-1.7827196775	 0.296446
H	-1.4295161394	-2.7319138566	-1.496103551	 0.129827
H	-3.2345981428	-3.6367303403	-0.0445614064	 0.144934
41.8932	91.6184	141.6963	182.4138	232.0128	251.486	287.19	330.5493	391.2934	464.7793	509.3436	550.5589	595.3433	646.2134	810.6548	847.4392	897.3916	962.4081	1020.4469	1062.2384	1074.2995	1106.5383	1125.5464	1149.7173	1226.3855	1258.1135	1276.8109	1294.5825	1353.9907	1380.846	1419.1681	1455.8215	1462.9148	1506.5828	2358.9723	2965.9207	3020.0169	3069.9674	3126.3556	3136.3498	3769.2026	3846.6138
OCC(O)C1OC1C#N	OC[C@@H](O)[C@H]1O[C@H]1C#N	
InChI=1S/C5H7NO3/c6-1-4-5(9-4)3(8)2-7/h3-5,7-8H,2H2	InChI=1S/C5H7NO3/c6-1-4-5(9-4)3(8)2-7/h3-5,7-8H,2H2/t3-,4+,5-/m1/s1
