19
gdb 78315	2.69097	1.68805	1.44694	2.9536	74.69	-0.2342	0.0662	0.3004	992.882	0.158769	-422.955652	-422.947678	-422.946734	-422.987515	31.994	
C	-0.0464151755	 1.4772258435	-0.0076044044	-0.468738
C	-0.0020999778	-0.0275920822	 0.0612133977	 0.459043
O	-1.3178305163	-0.6342312403	 0.0537984046	-0.330591
C	-1.0190828086	-1.4005261782	 1.2493580025	-0.091738
C	 0.423762255	-0.8448730619	 1.2927422843	-0.137517
C	 1.5541785232	-1.5066394248	 0.4742423659	-0.14306
C	 1.125367434	-2.1810601243	-0.7950226601	 0.097105
O	-0.0171710854	-2.9656412014	-0.9813312995	-0.409882
C	 1.1040830937	-0.6950764849	-0.7988303861	-0.151896
H	 0.9546667903	 1.9041101668	 0.1129767605	 0.117291
H	-0.437042238	 1.7961800481	-0.9808912101	 0.129802
H	-0.700048533	 1.8800157979	 0.7710960804	 0.121457
H	-1.6417517932	-1.0697629297	 2.0902112941	 0.091996
H	-1.1442036122	-2.4730221211	 1.0919702522	 0.097418
H	 0.7539024883	-0.356863822	 2.209088516	 0.076692
H	 2.5566345232	-1.6443848155	 0.8649342135	 0.084935
H	 1.9905983509	-2.5537047456	-1.3500415781	 0.091978
H	 0.1846887988	-3.847764291	-0.6509914542	 0.284408
H	 1.7074830128	-0.1367140836	-1.5078572392	 0.081299
146.5049	213.445	216.117	262.1086	302.8009	310.7027	360.4478	377.4511	543.5487	605.6497	642.705	685.0035	721.9484	789.3518	869.2605	882.7692	901.8439	940.0239	958.6664	983.0228	986.2931	997.1396	1051.3576	1073.1083	1078.8267	1127.4385	1156.844	1161.3848	1190.9624	1228.0994	1259.9506	1277.6504	1313.867	1326.0443	1340.3803	1374.7701	1404.2508	1474.9296	1482.23	1488.3808	1509.2623	3019.8311	3030.7327	3063.1678	3098.3119	3108.5917	3115.4294	3116.439	3152.7905	3166.9646	3802.7213
CC12OCC1C1C(O)C21	C[C@]12OC[C@H]1[C@H]1[C@@H](O)[C@@H]21	
InChI=1S/C7H10O2/c1-7-3(2-9-7)4-5(7)6(4)8/h3-6,8H,2H2,1H3	InChI=1S/C7H10O2/c1-7-3(2-9-7)4-5(7)6(4)8/h3-6,8H,2H2,1H3/t3-,4+,5-,6+,7-/m0/s1
