19
gdb 85964	3.06895	1.16191	0.98633	4.1954	72.17	-0.2274	0.0122	0.2395	1246.1937	0.159438	-456.349542	-456.34047	-456.339526	-456.383544	33.83	
C	 0.0256282723	 1.562920934	 0.0646821541	-0.324793
N	-0.0344044771	 0.117122586	 0.0724431408	-0.081459
C	-1.2794964041	-0.53231273	 0.5319008507	-0.207043
C	-0.421978008	-1.6401847375	 1.2032673985	 0.130116
N	-0.1593529676	-2.8556202546	 0.42848044	-0.595302
H	 0.4334993866	-2.6456685029	-0.3681003529	 0.253531
H	-0.080456309	-3.6553084999	 2.1640259883	 0.30648
H	-1.0272716975	-3.2315781853	 0.0544639925	 0.245018
C	 0.7406488498	-0.6097358261	 1.0935185059	-0.198706
C	-0.7994921712	-2.012468167	 2.6416118508	 0.403032
O	-0.4678079838	-3.2662105932	 2.9776452422	-0.372391
O	-1.3127419089	-1.241854185	 3.4094414401	-0.347784
H	 1.0337453489	 1.8906213621	-0.2108546935	 0.12205
H	-0.6700013918	 1.9560630089	-0.6840497709	 0.123761
H	-0.2290565395	 2.01307378	 1.0418506495	 0.104105
H	-1.8294094421	 0.044692244	 1.2880503445	 0.122427
H	-1.9606110878	-0.8479742069	-0.2672146311	 0.094471
H	 1.7120414263	-0.9984844647	 0.7651088261	 0.104939
H	 0.8681363247	-0.052918232	 2.0334056545	 0.117549
65.8839	80.3938	197.9402	241.4273	280.373	293.15	306.0356	321.4574	393.8353	408.6148	441.1755	554.7843	689.9696	748.9477	759.8292	846.9293	886.1463	924.105	950.9379	965.1844	988.2759	1006.9176	1100.3198	1119.0701	1135.2644	1197.2159	1201.9255	1226.0055	1235.2292	1276.6003	1299.3391	1321.2257	1347.6063	1424.9721	1450.8523	1484.9639	1494.3683	1499.7896	1521.9634	1657.939	1862.7982	2940.5956	2993.4875	3007.7954	3053.1189	3059.0014	3060.321	3099.4983	3487.1741	3502.5469	3571.9251
CN1CC([NH3+])(C1)C([O-])=O	CN1CC(N)(C1)C(=O)O	
InChI=1S/C5H10N2O2/c1-7-2-5(6,3-7)4(8)9/h2-3,6H2,1H3,(H,8,9)	InChI=1S/C5H10N2O2/c1-7-2-5(6,3-7)4(8)9/h2-3,6H2,1H3,(H,8,9)
