16
gdb 133803	2.55694	1.08228	0.90913	2.4501	54.86	-0.2674	0.0642	0.3316	1287.1704	0.118298	-606.512494	-606.502798	-606.501854	-606.548179	33.545	
C	-0.6507957354	 1.296052917	-0.4725572291	-0.229029
O	-0.6810401078	-0.1106453324	-0.5517837799	-0.229985
C	-0.9015360567	-0.7246370998	 0.691861769	-0.091844
C	-0.9706813418	-2.2438983421	 0.4990658434	-0.033292
O	-0.7732545627	-2.9272498332	 1.7175109976	-0.423143
C	-2.2952335283	-2.7015547448	-0.1189798184	 0.261784
F	-2.605786416	-2.0393744547	-1.2325746392	-0.057914
F	-2.2745533404	-4.0065582267	-0.4037230858	-0.066295
F	-3.2975816593	-2.5017994033	 0.7704784162	-0.105692
H	-0.4660445856	 1.6737905549	-1.4804954886	 0.134094
H	-1.6066317683	 1.7031558928	-0.1080402687	 0.109899
H	 0.151313308	 1.6489843528	 0.1943162002	 0.107881
H	-0.075838334	-0.5257204338	 1.3931104279	 0.105503
H	-1.8318014854	-0.3586980723	 1.1598040234	 0.093476
H	-0.166616576	-2.548030736	-0.1769892044	 0.130865
H	-1.5615988902	-2.7977763683	 2.2583190466	 0.293694
43.0431	70.4875	112.7826	181.2017	217.0482	238.919	258.2951	327.5399	346.7455	371.2114	474.4559	490.9829	547.8007	598.6465	673.3802	802.3601	988.8841	1012.7925	1063.731	1122.7198	1166.0309	1175.436	1190.4695	1224.1696	1232.8251	1248.0604	1267.8406	1284.2747	1366.127	1419.5936	1440.5836	1481.4668	1486.697	1502.5686	1528.4104	2958.0775	2976.6001	3001.5525	3021.7708	3093.4843	3122.0231	3795.5696
COCC(O)C(F)(F)F	COC[C@@H](O)C(F)(F)F	
InChI=1S/C4H7F3O2/c1-9-2-3(8)4(5,6)7/h3,8H,2H2,1H3	InChI=1S/C4H7F3O2/c1-9-2-3(8)4(5,6)7/h3,8H,2H2,1H3/t3-/m1/s1
