15
gdb 79325	3.72398	1.24049	1.17661	2.5734	66.78	-0.2507	-0.0335	0.2172	1051.2826	0.112097	-457.701006	-457.693744	-457.6928	-457.73304	27.674	
O	-0.020492527	 1.4749389213	-0.0139792238	-0.44238
C	-0.0102687376	 0.0847808752	 0.0018987077	 0.200061
C	-1.3420171735	-0.6893967875	-0.0788053042	-0.244224
C	-1.6117082221	-0.7986106016	-1.5552073567	 0.034969
O	-0.5992700091	-0.0758452039	-2.2579532809	-0.299125
C	 0.3645184048	-0.651047801	-1.3130898658	-0.079613
C	-0.6369427214	-1.7809257549	-0.9350440601	 0.257655
C	-0.6108152342	-3.2331392253	-0.8182565	 0.005956
O	 0.3753058303	-3.9175532108	-0.9605141519	-0.269187
H	-0.3830040936	 1.7267779882	-0.8746826608	 0.290172
H	 0.5933450811	-0.2548759071	 0.8456413536	 0.112748
H	-2.0972065045	-0.8410338896	 0.6814203889	 0.114872
H	-2.5753387562	-0.9501254788	-2.0226760052	 0.132701
H	 1.371728432	-0.7315648147	-1.7105496667	 0.112068
H	-1.603056849	-3.6808485496	-0.5806668041	 0.073329
88.0489	142.5235	208.0562	278.1897	332.2606	457.8566	510.5961	590.0304	633.9135	692.5673	749.931	780.6249	830.092	856.0287	913.6688	938.0476	963.2868	997.3926	1015.0935	1045.5583	1051.4021	1098.2698	1119.8674	1165.1255	1183.9654	1226.0026	1289.7774	1291.4682	1326.7582	1400.3812	1439.9829	1449.9766	1795.1091	2866.1534	3111.1186	3179.2176	3209.1626	3221.0783	3756.2529
OC1C2C3OC1C23C=O	O[C@H]1[C@H]2[C@H]3O[C@@H]1[C@@]23C=O	
InChI=1S/C6H6O3/c7-1-6-2-3(8)5(6)9-4(2)6/h1-5,8H	InChI=1S/C6H6O3/c7-1-6-2-3(8)5(6)9-4(2)6/h1-5,8H/t2-,3-,4+,5-,6-/m0/s1
