21
gdb 58176	2.36491	1.07008	0.95177	1.1786	79.5	-0.2476	-0.0941	0.1535	1379.499	0.17863	-424.256279	-424.245461	-424.244517	-424.292703	38.278	
C	 0.1135001783	 1.4825825143	-0.1126493606	-0.408187
C	 0.0207196597	-0.0478418244	-0.0434133828	 0.046678
C	 0.6074013432	-0.6700310272	-1.320602102	-0.405645
C	 0.7126571279	-0.6196819251	 1.213033294	-0.071018
C	 0.2566851688	 0.0349198836	 2.5403097134	-0.423675
C	 0.4592973427	-2.1073332064	 1.365341884	 0.28742
O	-0.5328550118	-2.6925179183	 0.9935099031	-0.293643
C	 1.5295525249	-2.942456916	 2.0922904524	 0.095924
O	 2.5825919356	-2.504919594	 2.4743508189	-0.221456
H	 1.1577601155	 1.8178763049	-0.0922465821	 0.11316
H	-0.3291516191	 1.845660289	-1.0456808149	 0.115207
H	-0.4132620584	 1.9718698392	 0.7107665353	 0.116309
H	-1.0374564867	-0.3312290428	 0.0156358621	 0.092242
H	 1.6710809187	-0.423003516	-1.4239346405	 0.112215
H	 0.5080757476	-1.7587311079	-1.3261486072	 0.124211
H	 0.0930524691	-0.2880900226	-2.2079664805	 0.114903
H	 1.7986180187	-0.4821838682	 1.137705667	 0.101816
H	-0.8308916992	-0.0279115774	 2.6499273385	 0.131082
H	 0.7179234235	-0.4576873365	 3.4011745991	 0.131511
H	 0.5490707927	 1.086362486	 2.5701487046	 0.133431
H	 1.2258824583	-4.0043154344	 2.2137574085	 0.107514
42.2792	67.9569	120.2133	157.3038	186.826	219.9593	223.2224	233.1765	277.0662	327.1818	385.1669	394.1009	445.9915	517.6775	608.5755	628.0108	776.8419	823.774	920.9541	930.4898	969.1472	984.3963	993.4126	1040.8304	1092.5899	1131.6333	1153.1802	1193.585	1205.7122	1306.8826	1329.1378	1351.0594	1362.7422	1390.9414	1399.3883	1405.6117	1424.4581	1487.7667	1492.6463	1497.5221	1505.5038	1507.1131	1521.4249	1795.5563	1823.3902	2918.3879	3027.0286	3027.7278	3032.4148	3042.0393	3046.8613	3091.0824	3098.313	3112.1459	3114.012	3116.2229	3130.7513
CC(C)C(C)C(=O)C=O	CC(C)[C@@H](C)C(=O)C=O	
InChI=1S/C7H12O2/c1-5(2)6(3)7(9)4-8/h4-6H,1-3H3	InChI=1S/C7H12O2/c1-5(2)6(3)7(9)4-8/h4-6H,1-3H3/t6-/m1/s1
