18
gdb 125174	3.04973	1.49861	1.03126	2.4668	81.65	-0.1907	0.0363	0.227	1153.3813	0.149517	-398.119726	-398.111219	-398.110275	-398.152991	31.5	
C	-0.0362329492	 1.5716761227	 0.0222248861	-0.518979
C	-0.0090866872	 0.0770458218	-0.018692923	-0.039752
C	-0.0478987396	-0.8117517795	-1.07174519	 0.300465
C	 0.2329962635	-1.3164126147	-2.4824005753	-0.366825
C	 0.3924678941	-2.7300531673	-1.7950305171	-0.163304
N	-0.0523294621	-2.0589169365	-0.5633952905	 0.055531
N	 0.07138126	-2.1156792537	 0.785160674	-0.37804
C	 0.0307123443	-0.8166272233	 1.1097495373	 0.320566
N	-0.0559204521	-0.4228106252	 2.4452267221	-0.580575
H	 0.8693163773	 1.9913460702	 0.4807862962	 0.116429
H	-0.1107975267	 1.9918283165	-0.9843349008	 0.123038
H	-0.8892769228	 1.9463423714	 0.6013928269	 0.132735
H	-0.5875256961	-1.2395419498	-3.1996208268	 0.126057
H	 1.1495271562	-0.9390342542	-2.9411959861	 0.127587
H	-0.2622760883	-3.5374484632	-2.1340107658	 0.123218
H	 1.4283207782	-3.0799351789	-1.753893264	 0.129036
H	 0.1906239709	-1.1780867935	 3.0723679759	 0.249964
H	 0.4847725295	 0.4060483272	 2.6545985609	 0.242849
83.5219	98.3637	174.7323	221.6123	255.9763	306.0273	315.7701	329.0452	568.122	595.5965	635.3055	649.7529	683.8409	769.2003	807.1254	832.4909	856.6404	917.5432	1038.9459	1056.1921	1064.4603	1100.8527	1116.8119	1138.1248	1172.685	1213.6143	1254.9752	1277.4635	1316.6567	1417.6309	1421.211	1456.1682	1483.7223	1484.3863	1498.0036	1513.4345	1524.8368	1633.9991	1655.3113	3009.9621	3050.9535	3054.464	3070.2186	3101.9258	3107.6934	3122.7005	3537.3033	3634.9341
CC1=C2CCN2N=C1N	Cc1c2CCn2nc1N	
InChI=1S/C6H9N3/c1-4-5-2-3-9(5)8-6(4)7/h2-3H2,1H3,(H2,7,8)	InChI=1S/C6H9N3/c1-4-5-2-3-9(5)8-6(4)7/h2-3H2,1H3,(H2,7,8)
