13
gdb 123965	2.94053	1.56328	1.03083	2.319	72.36	-0.2324	-0.0659	0.1664	1045.833	0.090804	-448.945703	-448.938128	-448.937184	-448.978796	26.829	
C	 0.0325243161	 1.3442868634	-0.0354475656	-0.248301
N	 1.3159040644	 2.0242315454	-0.0480851955	-0.241449
C	 2.3682192037	 1.3631762463	 0.2071828268	 0.109044
N	 2.45713644	 0.0070554005	 0.488006343	-0.370322
C	 1.3909821595	-0.8772419537	 0.3101337672	 0.395988
C	 0.1526010997	-0.1760898512	 0.0073140132	 0.091438
N	-0.8755346423	-0.9347810539	-0.2419442549	 0.192716
N	-1.7675860432	-1.5982614326	-0.4581072265	-0.219756
O	 1.5253187333	-2.0815258218	 0.3924563262	-0.378905
H	-0.5333009153	 1.7163472763	 0.8319130112	 0.136336
H	-0.5337966984	 1.6555946303	-0.9220403583	 0.136613
H	 3.327445504	 1.8791573995	 0.2246514263	 0.130509
H	 3.3609155286	-0.4266286386	 0.601035417	 0.266091
40.6283	143.4963	144.675	209.8505	386.4343	462.2699	465.9127	534.0288	551.8887	574.7919	608.5088	702.6533	743.273	906.3852	946.2528	972.846	1018.6953	1101.2469	1179.6994	1245.6209	1262.0878	1324.6781	1403.7972	1437.1639	1446.5098	1493.0156	1754.9924	1784.2606	2217.2923	2988.3676	3033.2303	3142.7041	3631.2048
C1N=CNC2=C1N=NO2	C1N=CNC(=O)[C]1[N][N]	
InChI=1S/C4H4N4O/c1-3-4(6-2-5-1)9-8-7-3/h2H,1H2,(H,5,6)	InChI=1S/C4H4N4O/c5-8-3-1-6-2-7-4(3)9/h2H,1H2,(H,6,7,9)
