21
gdb 75469	2.49929	1.33964	0.95758	1.8046	84.57	-0.2324	0.0256	0.258	1277.4188	0.182644	-387.087936	-387.078976	-387.078032	-387.122132	33.425	
C	-0.3718474523	 1.5285258156	-0.2291571587	-0.496567
C	-0.1096363429	 0.060263242	-0.0965257719	 0.326289
C	 0.1807410165	-0.7996836823	-1.0750032547	-0.16657
C	 0.4029728759	-2.2075149909	-0.5812104779	-0.250954
C	-0.089502243	-2.1408870938	 0.8877816462	-0.233199
C	-0.1030301931	-0.6321928347	 1.2604282869	-0.109495
C	 1.1061070001	-0.2274322105	 2.0831484578	 0.094234
C	 1.0508960438	 0.812074899	 3.1190203953	-0.184941
O	 1.0793587257	-0.5717314841	 3.471399743	-0.242661
H	 0.3526851235	 2.1196961453	 0.3444590194	 0.126903
H	-0.322638247	 1.853099488	-1.272122617	 0.123115
H	-1.3637468862	 1.7903870586	 0.1616779921	 0.123542
H	 0.2703574579	-0.5264596068	-2.1219589439	 0.084418
H	-0.1442035004	-2.9541222894	-1.1683060447	 0.102
H	 1.4636541821	-2.4874723711	-0.6513245385	 0.104752
H	-1.1084915704	-2.5334708929	 0.9498313289	 0.104012
H	 0.5224467639	-2.7291586517	 1.5763783704	 0.110904
H	-0.991318532	-0.3781956855	 1.8530187194	 0.070182
H	 2.0701771824	-0.4110820395	 1.603243796	 0.090832
H	 1.9452922839	 1.379790161	 3.372908769	 0.112605
H	 0.1084628315	 1.3231412938	 3.3149640031	 0.110601
68.5213	73.5896	157.3146	178.5908	242.8558	262.1263	289.0962	348.5183	457.6018	545.353	606.9046	692.7635	787.6303	840.2162	854.8001	863.8611	904.7311	931.2254	940.1468	972.4256	1009.5591	1033.9793	1050.1672	1066.3953	1099.9912	1117.9074	1155.4426	1163.4029	1173.4765	1201.762	1245.1408	1266.0298	1285.8771	1290.5889	1311.4676	1327.6475	1357.3643	1413.665	1440.1261	1479.242	1485.9839	1490.6236	1502.9425	1527.4159	1723.0826	3006.9453	3016.2006	3020.6253	3046.3616	3063.0405	3063.268	3076.8748	3085.7082	3103.9717	3109.712	3162.2899	3178.7928
CC1=CCCC1C1CO1	CC1=CCC[C@H]1[C@H]1CO1	
InChI=1S/C8H12O/c1-6-3-2-4-7(6)8-5-9-8/h3,7-8H,2,4-5H2,1H3	InChI=1S/C8H12O/c1-6-3-2-4-7(6)8-5-9-8/h3,7-8H,2,4-5H2,1H3/t7-,8-/m1/s1
