19
gdb 57700	3.28373	0.80486	0.76119	3.4725	77.19	-0.2566	-0.0373	0.2193	1529.9646	0.156078	-419.216892	-419.20633	-419.205386	-419.25359	36.806	
C	 0.0220189277	 1.6709430442	-0.0442751826	-0.417379
C	-0.0406025155	 0.1384873241	-0.0110462852	 0.163818
C	 0.814505945	-0.4322818437	 1.1380856552	-0.424078
N	-1.4063361406	-0.4162519654	 0.0476097174	-0.330915
C	-2.1326711753	-0.2476934168	 1.3049539651	-0.277157
C	-3.5004630567	-0.7557738038	 1.1687609169	 0.262291
N	-4.5854920189	-1.1351211681	 1.05680991	-0.293292
C	 0.5513768409	-0.4549958849	-1.2988529053	 0.14891
O	 1.1635926762	 0.1672118559	-2.1248106795	-0.245318
H	 1.0504277988	 2.0114000479	-0.1863058975	 0.14001
H	-0.5689879877	 2.0652733773	-0.8763430826	 0.123986
H	-0.3559003805	 2.1017416512	 0.8878692068	 0.112961
H	 0.500688874	-0.0271600332	 2.1044620866	 0.128917
H	 0.7410069178	-1.5232323708	 1.1779106058	 0.135894
H	 1.8627808729	-0.1574571803	 0.9944498803	 0.140409
H	-1.960680216	-0.0170510356	-0.7038067714	 0.236038
H	-1.6381564786	-0.8236002521	 2.0940161832	 0.162574
H	-2.1992084116	 0.7930288002	 1.6653048707	 0.138442
H	 0.3603047082	-1.546063156	-1.3988625139	 0.093889
41.7663	51.6304	90.5851	126.4254	196.5945	236.2595	263.7188	273.1014	319.2223	379.0939	382.1418	394.5529	419.8083	525.5156	652.1464	759.0056	773.675	886.492	938.3438	940.7455	962.9653	998.6135	1034.3626	1047.3808	1102.6963	1195.7399	1224.6257	1253.8457	1262.4173	1368.4374	1394.8358	1397.1463	1421.4214	1476.9556	1480.361	1493.1559	1503.4586	1504.0091	1520.4186	1837.8101	2369.2146	2900.1929	2959.9294	3040.509	3044.9968	3073.4498	3111.6877	3114.6841	3122.278	3128.1214	3513.7013
CC(C)(NCC#N)C=O	CC(C)(NCC#N)C=O	
InChI=1S/C6H10N2O/c1-6(2,5-9)8-4-3-7/h5,8H,4H2,1-2H3	InChI=1S/C6H10N2O/c1-6(2,5-9)8-4-3-7/h5,8H,4H2,1-2H3
