16
gdb 124151	3.74698	1.00562	0.80082	3.9111	84.97	-0.2364	-0.0234	0.213	1403.6315	0.124832	-396.939263	-396.930183	-396.929239	-396.975358	30.56	
C	-0.0503212039	 1.4503581728	-0.0706043136	-0.512536
C	-0.0092998787	-0.0020209633	-0.0454396098	 0.230119
C	 0.0420563211	-1.2068540097	-0.0249002586	-0.069087
C	 0.0969057907	-2.6184839145	-0.0007666475	 0.210509
N	 1.1910506627	-3.3786947797	-0.0068844896	-0.32391
C	 0.6831848131	-4.632546044	 0.0244767647	-0.005633
N	-0.6405610794	-4.7104443371	 0.0496223871	-0.237566
N	-1.0096714038	-3.4126524624	 0.0332284796	-0.028084
C	-2.4077016563	-3.0391085112	 0.0513760127	-0.327633
H	 0.9605607351	 1.8649226919	-0.1440051427	 0.164684
H	-0.6257478493	 1.8169610087	-0.927726684	 0.156851
H	-0.5113381642	 1.8509230262	 0.8389437559	 0.157161
H	 1.3007613823	-5.5184443194	 0.0290305964	 0.122961
H	-2.8857877066	-3.423827754	 0.9555782617	 0.154119
H	-2.472091427	-1.9509202792	 0.035580612	 0.154003
H	-2.9165373456	-3.4515328851	-0.8233696942	 0.154044
17.4011	74.057	88.4832	108.6203	205.844	279.4171	295.1405	377.1649	475.2752	486.7515	554.1359	677.8025	726.5823	752.2471	906.5696	982.8243	1007.8319	1045.1018	1050.8126	1052.485	1153.8456	1190.9055	1241.2138	1308.2866	1317.503	1408.3878	1414.6992	1450.9372	1472.3609	1473.6461	1478.7159	1481.7137	1509.2386	1547.2747	2362.4754	3029.9562	3056.6082	3090.8527	3098.0957	3124.9265	3160.6195	3258.0857
CC#CC1=NC=NN1C	CC#Cc1ncnn1C	
InChI=1S/C6H7N3/c1-3-4-6-7-5-8-9(6)2/h5H,1-2H3	InChI=1S/C6H7N3/c1-3-4-6-7-5-8-9(6)2/h5H,1-2H3
