19
gdb 81533	3.88307	1.16752	1.00492	3.077	76.92	-0.2335	-0.0254	0.2081	1214.1783	0.156792	-422.965729	-422.956836	-422.955891	-422.999157	33.489	
C	-0.1593435293	 1.570296489	 0.6978266224	-0.436965
C	-0.1173982127	 0.0712158213	 0.4665324264	 0.028594
C	 1.0791468033	-0.5317920053	-0.3237077584	-0.009408
O	 1.9623825211	-0.1962153665	 0.8158060891	-0.306524
C	 0.7523139394	-0.8084476589	 1.4097547882	-0.009458
C	 0.8271039261	-1.947200136	 0.3225551038	 0.217903
C	-0.3742034141	-2.8075774213	-0.0412298319	-0.489854
C	 2.0820711384	-2.7945190516	 0.4238568442	 0.106658
O	 2.0852405387	-3.9877016539	 0.2340108831	-0.263564
H	 0.8315727727	 1.9536243311	 0.9463336966	 0.141355
H	-0.5215754078	 2.0876069184	-0.1970547675	 0.119402
H	-0.8455113538	 1.8142648105	 1.5159178329	 0.119395
H	-1.1012577347	-0.3270758504	 0.2175142245	 0.07863
H	 1.4451211069	-0.2995747125	-1.3254660984	 0.1011
H	 0.7248970248	-0.909283836	 2.4962353916	 0.101124
H	-1.3045687973	-2.2463855716	-0.1265053191	 0.117381
H	-0.1901415612	-3.3180180772	-0.9904801001	 0.138378
H	-0.5102028605	-3.590242433	 0.710055172	 0.138399
H	 3.00424831	-2.2472108262	 0.6849472707	 0.107452
82.1184	118.1037	197.402	208.7629	231.7137	255.1076	321.4345	376.4996	405.8922	431.1084	550.8155	684.7208	708.9418	753.0432	777.0324	806.2344	851.016	884.1528	940.8122	1019.5783	1033.2801	1052.948	1079.1321	1111.8472	1119.4927	1140.4335	1148.4697	1189.3434	1207.6125	1242.7973	1263.0481	1292.1506	1389.6881	1402.5355	1417.1548	1429.3248	1485.3054	1491.1318	1496.6765	1506.4744	1806.7054	2987.2857	3039.2404	3059.785	3095.4909	3102.5239	3103.6146	3112.9005	3119.3316	3142.6219	3150.9381
CC1C2OC1C2(C)C=O	C[C@H]1[C@H]2O[C@@H]1[C@]2(C)C=O	
InChI=1S/C7H10O2/c1-4-5-7(2,3-8)6(4)9-5/h3-6H,1-2H3	InChI=1S/C7H10O2/c1-4-5-7(2,3-8)6(4)9-5/h3-6H,1-2H3/t4-,5+,6-,7+
