24
gdb 120638	4.2729	0.69055	0.6589	1.7217	87.01	-0.2255	0.0729	0.2984	1829.1611	0.215038	-405.522473	-405.511399	-405.510455	-405.558969	40.296	
C	 0.0334394526	 1.4568851876	-0.3035071563	-0.38234
C	 0.1984732196	-0.0505223345	-0.0965850888	-0.163553
C	 0.5251453481	-0.4150322042	 1.3529794619	-0.119757
N	 0.6297353163	-1.86320757	 1.5001763157	-0.112633
C	 1.9505751689	-2.4732947134	 1.3718610955	-0.304823
C	 1.2445386181	-2.4500338782	 2.6922856467	 0.289333
C	 1.7819531055	-1.5979428585	 3.8260302677	-0.465939
C	 0.543171266	-3.7192630315	 3.1526799673	-0.114055
O	 1.3975290302	-4.5792424792	 3.8944349591	-0.414286
H	 0.9473615375	 1.9999351893	-0.0372823877	 0.112868
H	-0.1981635995	 1.6903520824	-1.347005611	 0.114466
H	-0.7787893949	 1.8568201532	 0.313893803	 0.114723
H	-0.714982775	-0.5791323755	-0.390868264	 0.107049
H	 0.9971366683	-0.4307959808	-0.7461195348	 0.097153
H	 1.4405772368	 0.1171500114	 1.6626673992	 0.080257
H	-0.2821006553	-0.0671961359	 2.0102290723	 0.099638
H	 2.0030463045	-3.3802004564	 0.7717038573	 0.103444
H	 2.8075494883	-1.8091883945	 1.2588780662	 0.103995
H	 2.4372762448	-0.7953207128	 3.4825998397	 0.11573
H	 0.9608496867	-1.1493829911	 4.3979705911	 0.119236
H	 2.3482311479	-2.2355848933	 4.5103584475	 0.135526
H	-0.2797688065	-3.4660740277	 3.8312608767	 0.106672
H	 0.1083013921	-4.2219471493	 2.277759787	 0.095288
H	 2.1198326489	-4.8377801072	 3.3121831787	 0.282008
60.0673	80.3847	90.2986	124.665	191.2799	201.232	238.5121	277.694	296.8561	318.5685	332.1414	393.6502	413.3072	462.0659	605.604	705.7783	758.1439	823.0074	883.9914	897.7205	916.1966	935.4663	955.474	1002.2279	1047.0242	1062.0111	1074.9609	1091.8816	1120.2278	1127.958	1161.0808	1197.0182	1218.9364	1274.8408	1296.3372	1322.3772	1329.2858	1355.3968	1390.4915	1404.1216	1411.3445	1415.0395	1419.8601	1482.7091	1488.5832	1494.8932	1500.4798	1501.0285	1506.6621	1509.9993	1517.9909	2953.6083	3008.5078	3026.8879	3029.2406	3035.1921	3040.2036	3066.12	3068.5698	3075.5356	3096.8337	3103.0406	3104.4323	3132.0644	3155.8495	3807.961
CCCN1CC1(C)CO	CCCN1C[C@]1(C)CO	
InChI=1S/C7H15NO/c1-3-4-8-5-7(8,2)6-9/h9H,3-6H2,1-2H3	InChI=1S/C7H15NO/c1-3-4-8-5-7(8,2)6-9/h9H,3-6H2,1-2H3/t7-,8?/m1/s1
