20
gdb 6545	2.70154	1.87262	1.63017	1.7967	70.	-0.2586	0.078	0.3367	933.5274	0.174114	-386.133379	-386.12421	-386.123266	-386.166228	35.261	
C	-0.2513671244	 1.4525214819	-0.0637694408	-0.426708
C	 0.0585899154	-0.0499684154	 0.0581616723	 0.291741
C	 0.8631722639	-0.3484568789	 1.325349006	-0.402623
O	-1.165777548	-0.7657138537	 0.1882105381	-0.468844
C	 0.7969926971	-0.5582684119	-1.1997362772	 0.39642
C	 2.036843128	 0.1787689545	-1.6546882161	-0.479987
C	 0.6078663599	-1.9597687525	-1.5977329212	-0.233021
O	-0.1126706201	-0.9060991105	-2.264170204	-0.303587
H	 0.652139027	 2.0687192147	-0.0392069359	 0.111526
H	-0.783601165	 1.6612063369	-0.99798232	 0.120184
H	-0.8938191254	 1.7504213807	 0.7687778677	 0.123318
H	 0.2831718893	-0.0497334981	 2.2030628645	 0.126497
H	 1.0726215263	-1.4187026322	 1.4035605606	 0.119824
H	 1.8099882368	 0.1980116153	 1.338680307	 0.11289
H	-1.5459717836	-0.7913741659	-0.7013153462	 0.285424
H	 2.8070197493	 0.1724429253	-0.8770485441	 0.12664
H	 2.4489016856	-0.2946532784	-2.5490640593	 0.127799
H	 1.8105727984	 1.2203551257	-1.89849721	 0.13293
H	 1.3663040856	-2.4493533357	-2.2063628289	 0.111687
H	-0.0054870361	-2.6131916119	-0.9836329025	 0.127889
79.3198	185.23	202.47	233.1578	268.0944	288.1033	320.3572	350.0768	383.7201	405.2059	431.8805	508.0553	537.9882	554.4528	639.42	799.1708	859.5153	903.5447	927.0392	930.1832	977.315	1010.7245	1019.9458	1093.0071	1135.9842	1150.4474	1179.0664	1189.642	1214.4743	1286.9592	1376.2539	1392.1301	1400.7496	1418.3964	1421.6106	1475.7534	1485.222	1487.2108	1494.8484	1506.2093	1510.1881	1515.3986	3037.0825	3044.4421	3048.4793	3097.2646	3107.8777	3113.7957	3119.6117	3122.4593	3123.3868	3127.5695	3194.1455	3742.7879
CC(C)(O)C1(C)CO1	CC(C)(O)[C@@]1(C)CO1	
InChI=1S/C6H12O2/c1-5(2,7)6(3)4-8-6/h7H,4H2,1-3H3	InChI=1S/C6H12O2/c1-5(2,7)6(3)4-8-6/h7H,4H2,1-3H3/t6-/m1/s1
