19
gdb 73616	2.20398	1.47526	1.14842	3.8712	76.93	-0.2356	-0.0189	0.2167	1149.2447	0.158691	-423.025702	-423.016958	-423.016014	-423.059446	32.159	
C	 0.0683711136	 1.5591998396	-0.1025792643	-0.477221
C	-0.022260981	 0.0605348383	 0.0631745717	 0.263489
C	-1.3894081596	-0.6052845666	-0.1080566778	-0.316357
C	-1.3675221302	-1.811618963	 0.8620603431	-0.086506
O	-0.1487371575	-1.7437324436	 1.6174017714	-0.255197
C	 0.6449582586	-0.700345552	 1.1471193701	 0.056559
C	 1.2297967703	-0.780609443	-0.2745528958	-0.200689
C	 1.2174218046	-2.0159089136	-1.0836712967	 0.161495
O	 2.1102534295	-2.3258648827	-1.838391044	-0.277275
H	 1.0614542977	 1.930629304	 0.1660896208	 0.125584
H	-0.1266641657	 1.855686789	-1.1390478027	 0.130034
H	-0.6654917358	 2.0649295682	 0.5354482199	 0.123083
H	-2.1619475633	 0.1147404007	 0.1789333384	 0.115012
H	-1.599090119	-0.9100146498	-1.1372290755	 0.118959
H	-2.206073649	-1.7953920177	 1.5664856957	 0.113209
H	-1.3994827472	-2.7678775691	 0.3272166381	 0.117456
H	 1.2568296262	-0.253315897	 1.9235089025	 0.114862
H	 2.1308085684	-0.194437338	-0.4312186021	 0.103861
H	 0.3309471694	-2.6737447038	-0.9663725328	 0.069643
81.2319	97.3573	173.7227	184.1488	204.1633	241.7197	317.3222	405.4514	469.9649	530.5329	594.1753	693.1812	731.0932	835.9362	862.7021	885.0028	937.5791	963.2029	1004.5529	1022.2871	1028.6649	1045.969	1073.9999	1112.9229	1141.3768	1173.7368	1220.9071	1226.4432	1248.3988	1283.9602	1302.2477	1326.2745	1387.8318	1419.7446	1435.201	1464.4845	1489.8169	1495.9272	1505.2896	1533.8819	1799.8841	2908.8009	3027.5174	3028.9258	3052.7046	3063.1463	3089.8646	3096.5208	3107.6718	3157.4188	3172.34
CC12CCOC1C2C=O	C[C@]12CCO[C@H]1[C@H]2C=O	
InChI=1S/C7H10O2/c1-7-2-3-9-6(7)5(7)4-8/h4-6H,2-3H2,1H3	InChI=1S/C7H10O2/c1-7-2-3-9-6(7)5(7)4-8/h4-6H,2-3H2,1H3/t5-,6+,7-/m1/s1
