16
gdb 71721	2.418	2.10785	1.81447	2.4433	66.58	-0.2234	0.0513	0.2747	841.8927	0.123964	-437.786929	-437.779703	-437.778758	-437.81816	28.985	
O	-0.170200247	 1.3374073111	-0.1171200592	-0.486342
C	 0.010219981	-0.037548072	-0.0834823916	 0.297588
C	 0.6539575991	-0.8843596998	-1.2160271204	-0.321121
C	-0.2474395631	-1.9924365674	-0.6422168001	-0.040506
N	 0.1632094764	-2.2003330703	 0.8175503656	-0.142494
C	 0.321730196	-0.7729731184	 1.2399374183	-0.121699
C	-1.0077606413	-1.4270907138	 1.3397779519	-0.152084
C	-1.2768157218	-0.9492807216	-0.1274466075	 0.358689
O	-2.4295130246	-0.5887961289	-0.7728954669	-0.476252
H	 0.6721127777	 1.7766225972	 0.0434072514	 0.288891
H	 0.2987441482	-0.5564426444	-2.1967733822	 0.117361
H	 1.7357466923	-1.0409729358	-1.2253163833	 0.101052
H	-0.4764997597	-2.921793274	-1.1584448253	 0.08745
H	 1.0578030554	-0.5381859839	 2.0010051066	 0.090881
H	-1.6063531805	-1.7558913158	 2.1809331251	 0.100194
H	-2.569183178	 0.3559110879	-0.6278578025	 0.298392
146.8821	167.2197	253.5799	328.8588	350.7496	405.2332	460.2642	563.6762	591.9496	659.7271	753.7071	778.8064	786.11	811.6916	858.5778	895.7001	940.8164	968.9343	985.9426	999.1458	1017.8262	1048.6103	1070.5466	1128.167	1163.3707	1186.765	1201.4366	1229.2474	1248.2652	1274.1051	1296.93	1309.6755	1378.0314	1421.791	1479.2522	3059.0451	3123.539	3146.0317	3166.109	3186.86	3768.6186	3802.2182
OC12CC3N4C1C4C23O	O[C@@]12C[C@H]3N4[C@@H]1[C@H]4[C@@]23O	
InChI=1S/C6H7NO2/c8-5-1-2-6(5,9)4-3(5)7(2)4/h2-4,8-9H,1H2	InChI=1S/C6H7NO2/c8-5-1-2-6(5,9)4-3(5)7(2)4/h2-4,8-9H,1H2/t2-,3-,4+,5+,6-,7?/m1/s1
