18
gdb 13516	2.96569	1.76217	1.44061	3.5664	67.67	-0.2344	-0.0197	0.2147	956.205	0.151701	-384.939611	-384.930808	-384.929863	-384.973721	30.888	
C	-0.3105123396	 1.5282992206	-0.0539010644	-0.427919
C	 0.0145959692	 0.0423772092	-0.0757915489	-0.034965
C	 1.3702090537	-0.3997592523	-0.6708384176	-0.075433
O	 1.6842774233	-1.180707061	 0.4994236238	-0.268929
C	 0.547793644	-0.6820480879	 1.2097698999	 0.020936
C	 0.9206376892	 0.2490883115	 2.362956255	 0.37253
C	-0.1402898387	 0.4237029307	 3.434272139	-0.489352
O	 1.9847172885	 0.8191472178	 2.3957662491	-0.295472
H	 0.5031955162	 2.1108105514	 0.3879260147	 0.144312
H	-0.4682086644	 1.8931809022	-1.0745492095	 0.122733
H	-1.2264841981	 1.7350183114	 0.5101199126	 0.1188
H	-0.8179862747	-0.520167033	-0.5057223374	 0.089676
H	 1.3352519957	-1.0132871373	-1.5780885348	 0.103077
H	 2.0871187945	 0.4190573873	-0.8118515034	 0.111468
H	-0.0915522424	-1.4946957097	 1.5804940336	 0.080384
H	-0.2016041143	-0.4897766835	 4.0382130562	 0.147986
H	 0.1153630399	 1.2643343173	 4.0802448229	 0.145311
H	-1.1303235422	 0.5758940253	 2.9901095692	 0.134856
57.5325	61.4487	123.1916	155.3244	242.1292	253.645	329.797	361.8044	418.9667	589.0197	597.4665	713.6399	803.8094	888.2655	902.7758	928.9082	942.9387	1004.7422	1017.2989	1073.7631	1089.3619	1138.5291	1154.2227	1175.7934	1189.6654	1239.4091	1275.9886	1344.9236	1359.3855	1377.4314	1391.7818	1416.1078	1461.6823	1473.5713	1497.491	1503.803	1523.7507	1819.3519	3009.6036	3018.5325	3033.0898	3034.0345	3060.2022	3077.9608	3092.4705	3095.6026	3116.1347	3152.6053
CC1COC1C(C)=O	C[C@H]1CO[C@H]1C(=O)C	
InChI=1S/C6H10O2/c1-4-3-8-6(4)5(2)7/h4,6H,3H2,1-2H3	InChI=1S/C6H10O2/c1-4-3-8-6(4)5(2)7/h4,6H,3H2,1-2H3/t4-,6+/m0/s1
