16
gdb 69695	4.87044	1.05628	0.99624	4.6887	71.76	-0.2412	0.0054	0.2466	1197.7228	0.121725	-437.804699	-437.796709	-437.795765	-437.837329	29.94	
C	 0.0495233045	 1.5475801674	-0.0099538533	-0.508287
C	 0.1250747942	 0.0589071538	 0.0322960736	 0.416062
O	-0.7950622484	-0.6823197074	 0.8303210274	-0.254096
C	 0.6016967102	-0.9200545685	 1.0172475072	-0.077916
C	 1.1048120803	-1.8757487125	-0.1249389672	-0.081918
C	 0.6125151054	-0.8895534745	-1.142413352	-0.170275
N	-0.0164258147	-2.1885888266	-0.9804582373	-0.029253
C	-0.0341485008	-3.1980547364	-1.9222485463	 0.138151
O	 0.4038571231	-4.3109119323	-1.7566488258	-0.299286
H	 0.9702528424	 1.9712167224	-0.4242032903	 0.13065
H	-0.7860044071	 1.8745709024	-0.6389300273	 0.139774
H	-0.0997321474	 1.9486341705	 0.9956918588	 0.14304
H	 1.0141847561	-0.8117822565	 2.0129757217	 0.118811
H	 1.9985704927	-2.484229338	-0.1302751821	 0.130634
H	 1.0727850929	-0.5884424339	-2.0755510795	 0.118585
H	-0.5705587336	-2.8809083101	-2.8370612976	 0.085323
87.5058	143.8555	192.0546	236.6426	256.0592	292.879	374.7203	474.3226	561.6332	651.6471	704.9906	772.3933	790.9729	800.5823	821.6351	876.4415	910.4582	966.5401	997.3907	1008.0785	1028.3091	1052.5244	1099.9385	1150.536	1163.1886	1211.0967	1247.9057	1262.4794	1396.44	1413.3442	1417.0468	1466.2358	1484.1214	1494.7519	1794.3828	2952.6821	3035.4843	3098.5838	3124.9736	3194.466	3196.9783	3224.6408
CC12OC1C1C2N1C=O	C[C@]12O[C@H]1[C@@H]1[C@H]2N1C=O	
InChI=1S/C6H7NO2/c1-6-4-3(5(6)9-6)7(4)2-8/h2-5H,1H3	InChI=1S/C6H7NO2/c1-6-4-3(5(6)9-6)7(4)2-8/h2-5H,1H3/t3-,4+,5-,6+,7?/m0/s1
