21
gdb 105090	2.67803	1.15708	1.07878	1.6253	78.49	-0.2315	0.0705	0.302	1245.9873	0.182327	-420.335005	-420.325655	-420.324711	-420.369466	35.324	
C	-1.8103688935	 0.1686012229	 2.0334271406	-0.317705
N	-0.8999980852	-0.6621243284	 1.2586195398	-0.081876
C	-0.3006794609	-0.073044754	 0.0703586735	-0.256993
C	 0.5367022031	-0.3588610733	 1.2739867436	-0.093112
C	 1.1663421663	 0.7283351045	 2.115888054	 0.285911
C	 1.2224601379	 2.1503763304	 1.5530120703	-0.12462
O	 1.9978831924	 3.0029581539	 2.3599806385	-0.422436
C	 1.1851873379	 0.5401104585	 3.593623799	-0.261341
N	 2.4262534127	 0.3933516871	 2.8142397138	-0.38512
H	-1.5531666565	 1.2387923585	 2.051065691	 0.108729
H	-2.8146960979	 0.068116411	 1.6106028638	 0.126602
H	-1.8411809547	-0.1904730084	 3.0665055578	 0.124418
H	-0.2404062804	-0.7116292988	-0.8074115344	 0.116374
H	-0.5265344339	 0.9692689217	-0.1491655936	 0.114716
H	 1.1383307007	-1.2683379673	 1.2475165517	 0.088075
H	 1.6147398049	 2.0957257133	 0.5232631078	 0.089331
H	 0.2185529856	 2.5862332261	 1.4958416822	 0.108489
H	 2.774000675	 2.4765052299	 2.6057475229	 0.293404
H	 1.1622496748	 1.4101397039	 4.2420228366	 0.133754
H	 0.7220940018	-0.3564213224	 3.9961051136	 0.119165
H	 2.6633914801	-0.5867873691	 2.6874496476	 0.234237
38.9079	121.8397	169.9582	191.5023	213.7942	282.1587	330.8869	352.6842	378.5061	419.8169	481.4156	562.8569	611.2953	693.9654	764.0905	819.8622	860.9337	915.0905	956.7033	968.3723	986.624	1037.4092	1051.3624	1084.9553	1102.7354	1105.9286	1131.0157	1134.8607	1147.1846	1168.0215	1205.7894	1238.3829	1256.5624	1287.1094	1325.2968	1350.3785	1384.0454	1411.2931	1449.8001	1452.485	1489.5512	1494.2021	1499.909	1509.1192	1516.3811	2958.7288	2986.9852	3054.3919	3073.0754	3083.7034	3095.2281	3105.8939	3117.8092	3175.9697	3209.8802	3507.4446	3708.2618
CN1CC1C1(CO)CN1	CN1C[C@H]1[C@@]1(CO)CN1	
InChI=1S/C6H12N2O/c1-8-2-5(8)6(4-9)3-7-6/h5,7,9H,2-4H2,1H3	InChI=1S/C6H12N2O/c1-8-2-5(8)6(4-9)3-7-6/h5,7,9H,2-4H2,1H3/t5-,6-,8?/m0/s1
