22
gdb 22459	2.37173	0.94621	0.85671	1.7075	81.99	-0.2459	0.0079	0.2538	1515.9575	0.191077	-441.449855	-441.438652	-441.437708	-441.486271	40.406	
C	 0.3945226322	 1.6777064907	-1.132984972	-0.380555
C	 0.1506488586	 0.2087133093	-0.7758002248	-0.207225
C	 0.9317004551	-0.7596256689	-1.6773592254	 0.040352
O	 2.3387442393	-0.5273888899	-1.6101018721	-0.429954
C	 0.6107147197	-2.2173936917	-1.3940995546	 0.370684
C	 1.017200679	-2.8558363479	-0.0883710697	-0.270822
C	-0.1618385425	-3.0677768509	 0.8801217963	-0.379886
N	 0.0069194753	-2.8255283128	-2.342542888	-0.18033
O	-0.2586030803	-4.1706153298	-2.0273573443	-0.399981
H	 1.4595599068	 1.9194349864	-1.0858565955	 0.12508
H	 0.052087038	 1.8937953396	-2.1506122007	 0.120873
H	-0.1411286102	 2.343295399	-0.4497420893	 0.111267
H	 0.4293319845	 0.0283742713	 0.2727781652	 0.090256
H	-0.9164562573	-0.0299256951	-0.8546590797	 0.111081
H	 0.6606605801	-0.5742474604	-2.7211485522	 0.103655
H	 2.5939145721	-0.491259674	-0.681782533	 0.281251
H	 1.4727886092	-3.8256576651	-0.311410069	 0.132819
H	 1.7882111099	-2.244977974	 0.3934184589	 0.078456
H	-0.6352312045	-2.1190659151	 1.1499532667	 0.117874
H	-0.9174126018	-3.7089423398	 0.4221846605	 0.14457
H	 0.1842433401	-3.5451745264	 1.8019312764	 0.114173
H	-0.6674784035	-4.4893423046	-2.8387428837	 0.306362
53.2514	97.5269	108.8723	140.7423	201.0799	211.4647	240.0418	242.6013	282.6587	307.7785	313.1011	377.2469	384.7463	445.6316	521.0104	644.2108	696.0873	777.5204	793.551	807.7547	891.2237	970.0835	985.4057	1000.8174	1051.0251	1076.5157	1091.9301	1098.6258	1122.9341	1243.2565	1253.3431	1294.265	1299.7067	1331.1535	1354.4614	1373.7684	1400.7084	1403.4218	1408.7086	1418.5229	1477.6042	1485.3237	1494.7402	1497.9194	1507.6527	1511.4539	1724.3775	3004.5752	3039.9567	3042.4971	3045.4492	3058.4038	3076.5081	3084.4993	3106.1156	3111.1043	3121.5456	3139.1104	3805.2379	3822.1307
CCC(O)C(CC)=NO	CC[C@@H](O)C(=NO)CC	
InChI=1S/C6H13NO2/c1-3-5(7-9)6(8)4-2/h6,8-9H,3-4H2,1-2H3	InChI=1S/C6H13NO2/c1-3-5(7-9)6(8)4-2/h6,8-9H,3-4H2,1-2H3/t6-/m1/s1
