19
gdb 126168	4.09676	0.98302	0.82349	3.8872	77.81	-0.229	0.0283	0.2573	1399.7926	0.160307	-419.231566	-419.222442	-419.221498	-419.266341	33.259	
C	-0.0198287381	 1.5887632137	 0.0088011595	-0.40842
C	-0.0385188984	 0.0802417605	 0.2658529483	-0.163705
C	-1.3626842912	-0.583154627	-0.1424625107	-0.026748
O	-1.6193849709	-0.4422918881	-1.5425093721	-0.445407
C	-1.3717476546	-2.0575946239	 0.1419082513	 0.407822
C	-1.0161166799	-2.8104548505	 1.2468641901	-0.326174
C	-1.2915476099	-4.1424822062	 0.8724050902	-0.004181
N	-1.7763468724	-4.2232349406	-0.364362668	-0.237399
N	-1.8195354912	-2.943761651	-0.7787204013	-0.23663
H	 0.9262472762	 2.030338965	 0.3338599942	 0.124935
H	-0.1307158645	 1.8121087483	-1.0577452878	 0.115055
H	-0.8260911832	 2.0984550984	 0.5496529571	 0.115289
H	 0.7723388637	-0.4106132086	-0.2832433686	 0.114702
H	 0.1307354919	-0.1191963443	 1.3303200616	 0.106299
H	-2.1788276228	-0.1055255862	 0.4258833391	 0.087944
H	-1.9037653042	 0.4606481254	-1.7062534547	 0.29369
H	-0.6238782063	-2.4521637301	 2.184759864	 0.097125
H	-1.1537943427	-5.0430991635	 1.4528952176	 0.107282
H	-2.1281671415	-2.7108941414	-1.7075851299	 0.278521
35.5106	86.3425	135.0714	202.9334	214.2204	260.1386	288.0546	352.9968	442.6925	499.0459	583.4979	656.2707	705.3552	750.7145	790.7358	806.9151	889.4665	892.5478	941.4882	985.8237	1035.9363	1061.0277	1068.5473	1111.2873	1132.3641	1143.2251	1209.9947	1242.1426	1285.7021	1297.7885	1327.8753	1356.5635	1384.2546	1401.2323	1409.8499	1450.8912	1473.411	1497.842	1502.101	1510.7904	1596.676	2952.4746	3028.336	3040.5357	3076.4277	3099.8657	3110.2271	3241.9043	3267.0226	3680.2389	3850.2913
CCC(O)C1=CC=NN1	CC[C@@H](O)c1ccn[nH]1	
InChI=1S/C6H10N2O/c1-2-6(9)5-3-4-7-8-5/h3-4,6,9H,2H2,1H3,(H,7,8)	InChI=1S/C6H10N2O/c1-2-6(9)5-3-4-7-8-5/h3-4,6,9H,2H2,1H3,(H,7,8)/t6-/m1/s1
