16
gdb 6356	5.28675	1.1333	0.94428	4.3032	64.98	-0.2481	0.0068	0.2549	1214.5913	0.129205	-417.104436	-417.095192	-417.094248	-417.139459	30.992	
C	-0.1736863935	 1.2840611265	 0.1459031034	-0.233466
O	 0.0266693891	-0.1091026702	-0.1049786565	-0.27306
C	 0.6797128138	-0.3810856124	-1.2698759916	 0.536753
O	 1.0686383565	 0.4469245655	-2.0445607945	-0.359828
N	 0.7913214618	-1.7591017206	-1.3601425041	-0.402601
C	 1.3821855358	-2.5252794484	-2.3710752026	 0.359895
C	 1.284578887	-4.0081346081	-2.0698054544	-0.484314
N	 1.9169268351	-1.9868826756	-3.3888407848	-0.4539
H	 0.7830116017	 1.8090389407	 0.2083546957	 0.142081
H	-0.7715161263	 1.739635703	-0.6476996154	 0.14212
H	-0.7008592894	 1.3397185561	 1.0987357374	 0.129816
H	 0.3871509196	-2.2564487237	-0.5832937116	 0.257977
H	 0.2383232783	-4.3211139868	-1.9765059713	 0.14184
H	 1.7491228326	-4.5892267302	-2.8673643766	 0.137913
H	 1.7869068305	-4.2502452521	-1.1262095578	 0.14186
H	 2.2881685274	-2.7092807135	-4.0039434752	 0.216916
45.5855	79.6869	104.6684	131.3118	158.6833	172.9882	310.8813	355.6304	409.1541	535.0753	569.7379	580.1258	737.8378	776.3963	867.5815	914.1068	952.7103	1027.1603	1065.0908	1084.337	1162.1177	1184.0883	1208.8637	1222.6866	1345.341	1402.6879	1470.2917	1477.8418	1481.0468	1482.8391	1501.6396	1553.6608	1737.3069	1865.96	3032.6849	3050.4991	3091.3292	3124.4215	3144.135	3154.694	3493.0682	3648.5112
COC(=O)NC(C)=N	COC(=O)NC(=N)C	
InChI=1S/C4H8N2O2/c1-3(5)6-4(7)8-2/h1-2H3,(H2,5,6,7)	InChI=1S/C4H8N2O2/c1-3(5)6-4(7)8-2/h1-2H3,(H2,5,6,7)
