15
gdb 98065	3.09877	1.08233	0.9627	3.2595	65.22	-0.2545	-0.0697	0.1849	1257.7789	0.110203	-491.120615	-491.110658	-491.109714	-491.156634	33.478	
C	 0.7785691385	 1.2787085071	 0.0366824702	-0.246434
O	 0.7629239822	-0.1468552706	-0.1583850173	-0.225726
C	 0.2495748641	-0.5565632196	-1.3185731658	 0.394362
O	-0.22698381	 0.1394544766	-2.1739362347	-0.356203
C	 0.2586235545	-2.0861285946	-1.4170378263	 0.322833
O	-0.6712386735	-2.7531498753	-1.0309772197	-0.312786
C	 1.4749039182	-2.6953696414	-2.0743590627	 0.283335
N	 1.3507694235	-4.0350494731	-2.2749585499	-0.545888
N	 2.4272285983	-1.8862218953	-2.3527527445	-0.502165
H	 1.3812773537	 1.7578677645	-0.7380436215	 0.152274
H	-0.2369861079	 1.6794657742	 0.0013501087	 0.147346
H	 1.2202960217	 1.435153827	 1.0199833973	 0.139624
H	 0.5585891141	-4.4877830985	-1.8447727978	 0.275091
H	 2.1489126993	-4.5946962301	-2.5202030289	 0.26
H	 3.2265708333	-2.3566969208	-2.7817465172	 0.214336
41.1989	76.0322	95.4084	114.8991	181.3483	210.7965	259.8275	312.3541	337.9358	369.4432	450.5229	484.0532	533.0879	654.7524	764.1002	810.2174	838.9919	888.6123	977.8629	1065.3691	1099.203	1142.9049	1174.5386	1211.5575	1303.653	1435.2712	1472.6991	1481.729	1493.4456	1606.2681	1721.4674	1803.5386	1830.7946	3058.1549	3137.4385	3168.979	3456.6304	3586.943	3721.4499
COC(=O)C(=O)C(N)=N	COC(=O)C(=O)C(=N)N	
InChI=1S/C4H6N2O3/c1-9-4(8)2(7)3(5)6/h1H3,(H3,5,6)	InChI=1S/C4H6N2O3/c1-9-4(8)2(7)3(5)6/h1H3,(H3,5,6)
