14
gdb 25491	5.52752	1.0158	0.8581	2.8961	75.72	-0.2561	-0.0603	0.1958	1256.6862	0.102908	-432.91215	-432.904806	-432.903862	-432.945095	26.238	
N	-0.1737512279	 1.3195996485	 0.0115494619	-0.418817
C	-0.0120754897	 0.0715756922	 0.0033756172	 0.105489
O	-1.1349068665	-0.712514815	 0.0081356669	-0.225947
C	-1.0272499486	-2.0687344474	 0.0006072586	 0.443477
N	 0.1510032595	-2.6628919237	-0.0098724748	-0.330064
C	 0.1364836856	-4.0022668859	-0.0163984182	-0.015845
C	-1.0476793762	-4.7229877933	-0.0122976543	-0.021444
N	-2.2406696289	-4.1104779158	-0.0015850514	-0.224699
C	-2.2344849829	-2.7868439546	 0.0048589946	-0.081518
H	 0.7337171399	 1.7824393077	 0.006348326	 0.238987
H	 0.9142574029	-0.5012726611	-0.0075801037	 0.144525
H	 1.1016022225	-4.5011268953	-0.0250758013	 0.125612
H	-1.0462850825	-5.8083259597	-0.0176368311	 0.122599
H	-3.1833115673	-2.2591161765	 0.0135777799	 0.137646
50.2051	87.2845	184.707	223.7674	414.7534	433.9896	486.4749	547.1038	624.5966	722.2396	781.2793	841.5546	874.184	892.2199	959.2384	982.5256	1022.9408	1041.7283	1068.0637	1091.9684	1197.1875	1249.0907	1260.8765	1325.6371	1330.0242	1391.2051	1440.9053	1502.4536	1586.7972	1619.0322	1742.6009	3147.6815	3165.9356	3180.0086	3189.0016	3512.2655
N=COC1=NC=CN=C1	[NH][CH]Oc1nccnc1	
InChI=1S/C5H5N3O/c6-4-9-5-3-7-1-2-8-5/h1-4,6H	InChI=1S/C5H5N3O/c6-4-9-5-3-7-1-2-8-5/h1-4,6H
