18
gdb 88906	6.52913	0.53737	0.51596	4.7909	85.44	-0.2574	-0.0566	0.2008	2081.4737	0.145389	-401.901964	-401.891912	-401.890968	-401.939567	34.104	
C	 0.1831709838	 1.511750309	-0.293951164	-0.394189
C	 0.0147870067	 0.0487560527	 0.0420446021	-0.003622
N	 1.235058563	-0.7702670841	 0.1433656892	-0.328486
C	 0.4029457489	-0.5772441666	 1.3363559468	-0.007226
C	 1.0291062666	 0.1933357222	 2.490816983	-0.364632
C	 1.7966733181	-0.659702029	 3.3875997718	 0.096959
C	 2.4241311835	-1.3712510615	 4.1357748818	 0.033715
C	 3.1766058419	-2.2447564532	 4.9963330682	 0.019961
O	 3.5893438264	-1.9440723566	 6.0935538477	-0.231139
H	 1.0758062229	 1.9327073399	 0.1736956806	 0.127658
H	 0.2874091438	 1.6420325858	-1.3761456387	 0.125616
H	-0.6882888502	 2.0899942446	 0.0316371644	 0.11952
H	-0.8449163129	-0.4156730839	-0.440933424	 0.086617
H	 1.0958502408	-1.6948538781	-0.2533451598	 0.234781
H	-0.2077861188	-1.4169209073	 1.6640490948	 0.094008
H	 1.6905009696	 0.9723815106	 2.0976274819	 0.152388
H	 0.2460066784	 0.705120082	 3.0663031809	 0.142573
H	 3.3598440775	-3.2521628764	 4.5689321234	 0.095498
19.5871	38.3359	65.4085	153.915	168.2465	187.9707	204.1902	326.89	393.0795	421.2133	466.9054	497.9741	610.7702	772.255	822.7554	840.4854	876.934	928.2905	981.9696	1022.359	1024.3611	1032.3609	1088.5626	1151.7367	1157.7984	1189.0209	1245.6768	1267.9081	1273.4924	1317.8418	1400.5544	1421.1888	1424.8503	1442.7637	1467.8607	1489.7235	1503.9316	1766.7566	2330.2131	2912.5897	3025.1878	3038.6356	3077.9106	3099.0354	3101.0522	3121.0458	3131.958	3515.0215
CC1NC1CC#CC=O	C[C@H]1N[C@H]1CC#CC=O	
InChI=1S/C7H9NO/c1-6-7(8-6)4-2-3-5-9/h5-8H,4H2,1H3	InChI=1S/C7H9NO/c1-6-7(8-6)4-2-3-5-9/h5-8H,4H2,1H3/t6-,7+/m1/s1
