18
gdb 68336	3.49306	1.04402	0.94086	2.3906	75.42	-0.258	0.0196	0.2776	1285.0856	0.147319	-439.030096	-439.02172	-439.020776	-439.063898	31.508	
O	 0.0759268904	 1.30664377	-0.065788777	-0.468488
C	 0.0425536599	-0.0668053104	 0.0089801088	 0.369882
C	 0.6233202398	-1.006825235	-1.0724962558	-0.262898
C	 0.0232119402	-1.9446210677	 0.0187041738	-0.107604
C	 0.6767744903	-1.0166686987	 1.0848758075	-0.296238
C	-1.2032046231	-0.9908590512	 0.0118964884	 0.097323
O	-2.0097330938	-0.8905342638	 1.1730680071	-0.213771
C	-3.1531667745	-1.6037714221	 1.1900692215	 0.120483
N	-3.885847279	-1.5967206052	 2.2172968122	-0.442808
H	-0.388927437	 1.6613516531	 0.7009315399	 0.294018
H	 0.1356053175	-0.9980763793	-2.051191837	 0.097366
H	 1.7107192805	-1.0173120553	-1.1588135439	 0.107816
H	 0.0077313171	-3.0311648056	 0.0111621038	 0.088056
H	 1.7681221519	-1.026740885	 1.1248542207	 0.097559
H	 0.2251908708	-1.0140454115	 2.0764708651	 0.120096
H	-1.8230661609	-0.9865327445	-0.891582182	 0.082922
H	-3.3462002334	-2.1420394094	 0.2518233444	 0.086408
H	-4.7119336867	-2.1694560484	 2.0572199427	 0.229878
45.0717	96.288	144.0481	240.0484	296.2956	328.0344	384.5614	452.3203	475.6888	588.2328	661.1452	702.5307	763.1773	820.8627	825.0612	916.0709	941.7311	953.5174	966.145	1013.2982	1038.0777	1046.3094	1068.92	1090.4803	1117.3928	1134.1047	1151.2788	1165.3933	1202.6358	1224.9833	1239.3692	1293.7306	1306.0016	1381.9022	1403.3753	1428.447	1494.2771	1541.8156	1746.2221	3021.3814	3049.6208	3062.9106	3075.7002	3136.5461	3154.0191	3156.6405	3518.2474	3801.5931
OC12CC(C1)C2OC=N	O[C@@]12C[C@@H](C1)[C@H]2O[CH][NH]	
InChI=1S/C6H9NO2/c7-3-9-5-4-1-6(5,8)2-4/h3-5,7-8H,1-2H2	InChI=1S/C6H9NO2/c7-3-9-5-4-1-6(5,8)2-4/h3-5,7-8H,1-2H2/t4-,5-,6-/m1/s1
