17
gdb 115443	3.99592	1.0574	1.02244	1.5777	70.08	-0.2495	0.0246	0.2741	1205.1398	0.13485	-458.916606	-458.907845	-458.906901	-458.950799	31.97	
O	-0.2301937841	 1.3855572706	 0.4578688483	-0.418346
C	-0.0794450783	 0.0093524329	 0.1837416396	-0.092031
C	-1.414632082	-0.6512615456	-0.1531597851	 0.210969
O	-2.3081641489	-0.6664090339	 0.943410266	-0.262
C	-3.321606449	 0.2930435931	 0.7028130254	-0.104303
C	-3.3968809275	 0.3212707061	-0.8348645004	-0.095558
O	-2.0261932442	 0.1138267437	-1.1906610753	-0.282595
C	-4.2759092894	-0.7049012375	-1.3961319587	 0.354635
C	-5.006241281	-1.5419041113	-1.8538059504	-0.469548
H	-0.6484759098	 1.7629263491	-0.32488269	 0.287774
H	 0.6223464989	-0.1747541747	-0.6456251842	 0.094225
H	 0.3261970684	-0.4620142229	 1.0835255841	 0.123704
H	-1.2654998592	-1.6921086156	-0.476504883	 0.088636
H	-4.2452627953	-0.0419615732	 1.1777624211	 0.12698
H	-3.0347594468	 1.2803156848	 1.0864756932	 0.11177
H	-3.6829002158	 1.3067461479	-1.2153677342	 0.119417
H	-5.6505602659	-2.2815560736	-2.2614584265	 0.20627
41.6042	95.4602	142.0404	181.0639	247.6183	284.69	337.102	432.0731	464.8551	544.5021	635.9534	667.2711	675.8474	767.0072	785.8748	843.9738	857.9601	893.2478	986.9908	1006.6907	1027.8054	1041.8231	1101.9338	1105.5464	1171.6415	1220.3545	1231.8757	1277.6743	1333.2871	1363.7369	1371.0443	1383.6793	1411.1526	1430.4347	1489.0702	1508.5314	2237.4988	2979.2943	3004.6504	3026.2397	3066.8429	3096.9991	3121.0894	3502.0722	3796.1963
OCC1OCC(O1)C#C	OC[C@H]1OC[C@@H](O1)C#C	
InChI=1S/C6H8O3/c1-2-5-4-8-6(3-7)9-5/h1,5-7H,3-4H2	InChI=1S/C6H8O3/c1-2-5-4-8-6(3-7)9-5/h1,5-7H,3-4H2/t5-,6-/m0/s1
