18
gdb 38020	3.51657	1.68909	1.34003	1.6716	81.78	-0.2189	0.0119	0.2308	968.3724	0.150708	-364.79043	-364.783881	-364.782937	-364.821064	27.447	
C	 0.102177478	 1.5069315353	 0.0535954813	-0.236151
C	 1.3449899898	 0.6800256073	-0.004154851	-0.055125
C	 1.9255083494	 0.3980098827	 1.3456535057	-0.230981
C	 1.0715534827	-0.3446449961	 2.0472958751	 0.280659
C	 0.7414517526	-0.529500994	 3.5038829392	-0.363196
C	-0.7766042269	-0.3722933012	 3.4387910556	-0.059757
C	-1.2552655166	-0.4275482916	 2.190670482	-0.094079
C	-0.1423965217	-0.7009071722	 1.2023070366	-0.056269
N	-0.0056278172	 0.0504460339	-0.067979935	-0.127209
H	-0.1366464435	 1.9756289814	 1.0056559145	 0.11325
H	-0.2356710334	 2.0449588759	-0.828176685	 0.11293
H	 1.951520713	 0.6536546402	-0.9052558076	 0.092937
H	 2.8296193746	 0.872001357	 1.7088192024	 0.098649
H	 1.0080245375	-1.5277595665	 3.8827538306	 0.118079
H	 1.2265151282	 0.1987717184	 4.1629488241	 0.114444
H	-1.3798794536	-0.2637684093	 4.3339479683	 0.097714
H	-2.3018573578	-0.3763125871	 1.9142160439	 0.102931
H	-0.1664985652	-1.7655901843	 0.9198835293	 0.091174
163.7978	189.3796	352.6611	380.2443	467.5512	483.4464	620.9396	651.4651	692.128	746.1768	784.086	801.7113	817.7815	852.5838	899.0181	921.7529	934.2813	969.2419	987.9526	1005.3258	1048.5339	1055.5276	1086.3602	1108.1574	1126.5802	1147.0455	1152.7977	1178.9032	1249.2906	1259.1302	1270.5067	1313.0012	1324.5722	1347.9439	1365.3377	1477.96	1491.8732	1654.732	1722.7487	2964.2036	2994.8079	3060.7968	3099.5754	3144.8847	3183.3685	3189.2999	3202.7861	3210.963
C1C2C=C3CC=CC3N12	C1[C@H]2[CH][C]3CC=C[C@H]3N12	
InChI=1S/C8H9N/c1-2-6-4-7-5-9(7)8(6)3-1/h1,3-4,7-8H,2,5H2	InChI=1S/C8H9N/c1-2-6-4-7-5-9(7)8(6)3-1/h1,3-4,7-8H,2,5H2/t7-,8-,9?/m1/s1
