21
gdb 120995	3.74378	0.85591	0.80326	2.4971	78.22	-0.2387	0.0751	0.3138	1487.6914	0.182676	-424.180486	-424.171478	-424.170534	-424.215317	33.258	
O	-0.1271190578	 1.44945182	 0.1877126064	-0.420691
C	-0.0178820103	 0.0374255401	 0.090750017	-0.073715
C	-1.4273596646	-0.5376189367	 0.014935411	-0.199447
C	-1.4363697464	-2.0592489893	-0.067704266	 0.017494
C	-1.0831290681	-2.8897915516	 1.2154990217	-0.259691
C	-2.4224166126	-3.6484197503	 1.079829021	 0.124935
O	-3.4821148364	-3.048180906	 1.8527111229	-0.292
C	-3.9505446912	-2.2948712326	 0.7085308529	-0.082228
C	-2.8005758463	-2.8095987557	-0.1738224997	-0.115299
H	 0.7586990249	 1.8157066736	 0.2631913985	 0.2852
H	 0.5520993257	-0.2578732331	-0.8060907823	 0.081978
H	 0.5096702253	-0.3821732584	 0.9628053867	 0.08982
H	-1.9809677543	-0.1950065807	 0.8967147597	 0.113111
H	-1.9304060756	-0.1085487058	-0.8610547123	 0.103207
H	-0.7978122538	-2.3733610728	-0.90124321	 0.071843
H	-0.1889929674	-3.5114030259	 1.1185460019	 0.097442
H	-1.0209743048	-2.318700862	 2.1457641941	 0.109465
H	-2.4245946893	-4.7399011782	 1.1448261708	 0.072582
H	-4.9432935333	-2.6379039095	 0.3892114496	 0.098712
H	-3.9982115947	-1.2177665731	 0.9064572283	 0.104763
H	-3.067422889	-3.2247211718	-1.1452661923	 0.072519
44.4675	93.3503	101.2821	142.041	265.333	277.8063	335.2919	362.3116	423.9709	503.6529	665.904	765.9912	782.8655	794.6246	865.1496	894.0854	926.2175	956.2878	980.5139	1008.1528	1016.8558	1028.4842	1064.1434	1089.9101	1102.2349	1115.222	1152.0033	1183.5731	1194.7934	1208.9772	1234.3407	1240.3202	1264.4046	1278.9091	1301.0812	1312.8517	1320.12	1339.9433	1362.1145	1387.9128	1461.7426	1465.0248	1491.8888	1526.0443	1528.0642	2957.148	2984.0786	3010.4425	3028.319	3031.8761	3054.0228	3057.381	3069.4765	3076.7947	3111.1756	3114.1466	3830.5185
OCCC1CC2OCC12	OCC[C@H]1C[C@H]2OC[C@@H]12	
InChI=1S/C7H12O2/c8-2-1-5-3-7-6(5)4-9-7/h5-8H,1-4H2	InChI=1S/C7H12O2/c8-2-1-5-3-7-6(5)4-9-7/h5-8H,1-4H2/t5-,6-,7+/m0/s1
