15
gdb 34549	4.36484	1.29177	1.18151	4.0272	76.12	-0.2395	-0.0581	0.1814	1028.3401	0.115416	-379.644692	-379.638202	-379.637258	-379.675634	25.779	
N	 0.0667003362	-1.1053177342	 0.1226228575	-0.33552
C	-0.0055601841	 0.0490567215	 0.0570611298	 0.196816
C	-0.055361364	 1.4630330706	-0.0284462568	 0.245455
C	-1.1446737384	 2.2442046542	-0.0912202717	-0.179447
C	-0.6883979939	 3.6729607552	-0.013165324	-0.057234
C	-0.1649414798	 3.9413690248	 1.4413481205	-0.247655
C	 1.1943694318	 3.5222341092	 0.9134371103	-0.032684
C	 1.1538063878	 2.3463188873	-0.0243848176	-0.156208
N	 0.7607633116	 3.6794126129	-0.5254911434	-0.131037
H	-2.1757842933	 1.9193834589	-0.0487465218	 0.135339
H	-1.3298220234	 4.4233576518	-0.4704480256	 0.098208
H	-0.1703987146	 5.0112940942	 1.6573887949	 0.128823
H	-0.6184858743	 3.3919417066	 2.2709348243	 0.113178
H	 2.146790965	 3.9025278574	 1.2691399049	 0.10758
H	 2.1014863733	 1.9654700196	-0.3892278611	 0.114387
124.4162	161.3032	342.2566	392.6334	482.9372	507.1641	566.3169	640.3885	705.0561	758.4108	784.8362	817.0176	845.7302	880.357	894.4214	932.0374	976.1428	1020.2526	1047.6877	1056.5538	1070.5042	1136.6573	1164.6266	1194.3912	1218.8738	1250.1104	1272.6829	1320.8102	1345.3192	1373.635	1486.1514	1656.7765	2340.2172	3059.9833	3123.3935	3138.2447	3163.3157	3180.0583	3230.1608
N#CC1=CC2CC3C1N23	N#CC1=C[C@H]2C[C@H]3[C@@H]1N23	
InChI=1S/C7H6N2/c8-3-4-1-5-2-6-7(4)9(5)6/h1,5-7H,2H2	InChI=1S/C7H6N2/c8-3-4-1-5-2-6-7(4)9(5)6/h1,5-7H,2H2/t5-,6-,7+,9?/m0/s1
