21
gdb 103498	2.53018	1.51635	1.27255	2.2633	78.45	-0.2297	0.0772	0.3069	1112.2189	0.18195	-424.204465	-424.195318	-424.194374	-424.238109	34.095	
C	 0.1441101076	 1.2102657535	 0.2612191021	-0.247972
O	-0.1900263543	-0.0908975033	-0.1812148875	-0.273292
C	 0.6012984362	-0.5859830426	-1.2220415447	 0.441312
C	 0.4326356464	 0.1326488933	-2.5470084085	-0.463053
C	 1.9589018421	-1.1920480318	-0.9178533603	-0.153336
C	 2.3151684281	-1.5352121698	 0.5188759476	-0.09285
O	 1.2277358217	-2.2693603368	 1.0610570401	-0.250656
C	 0.4637413985	-2.854794619	 0.0133679674	-0.086267
C	 0.7672951794	-2.0777718254	-1.2558864386	-0.150881
H	 1.2171424376	 1.3066683167	 0.4751610923	 0.108071
H	-0.1346586477	 1.9820219579	-0.4702369478	 0.107703
H	-0.4180177621	 1.3840705198	 1.1816950175	 0.129831
H	 0.7984795618	 1.1635829102	-2.4996695799	 0.119303
H	 0.9885543363	-0.3774577261	-3.3384526607	 0.118622
H	-0.6247132142	 0.1580196674	-2.8304095815	 0.126054
H	 2.772237233	-1.0367627784	-1.6189150464	 0.084999
H	 3.2436799888	-2.1305465743	 0.5238811507	 0.088679
H	 2.4742332525	-0.665626494	 1.1668321807	 0.10443
H	 0.7360583829	-3.912340107	-0.132971709	 0.086947
H	-0.5882098151	-2.8061543108	 0.3132344173	 0.114533
H	 0.6818628804	-2.5955205095	-2.2049946308	 0.087822
104.971	135.0375	153.0362	184.7283	203.6391	225.7892	269.2443	300.17	375.2009	475.4245	554.4793	666.5921	749.0225	753.3128	812.4653	850.6519	919.594	934.7888	991.9138	997.7057	1018.6759	1040.26	1098.6955	1109.0007	1122.9288	1127.3711	1137.4165	1174.7431	1180.4879	1229.2423	1231.8449	1238.8994	1290.3559	1312.3707	1360.2782	1383.1222	1411.5033	1444.6685	1475.1102	1481.5769	1490.132	1505.5289	1508.196	1514.8588	1525.2308	2959.9464	2975.4027	2993.6106	3035.4318	3043.8628	3051.4642	3068.199	3100.513	3114.6915	3118.1999	3162.2947	3172.7273
COC1(C)C2COCC12	CO[C@@]1(C)[C@H]2COC[C@@H]12	
InChI=1S/C7H12O2/c1-7(8-2)5-3-9-4-6(5)7/h5-6H,3-4H2,1-2H3	InChI=1S/C7H12O2/c1-7(8-2)5-3-9-4-6(5)7/h5-6H,3-4H2,1-2H3/t5-,6+,7-
