17
gdb 5747	4.74351	1.77907	1.39774	2.043	75.97	-0.1953	0.054	0.2493	905.9787	0.144342	-326.732943	-326.725944	-326.724999	-326.764333	26.739	
C	-0.2812741386	 1.5478181889	 0.0631950797	-0.394931
C	-0.0072553125	 0.048094958	 0.0262086988	-0.152877
C	 0.7195610375	-0.5087121148	-1.2668353022	-0.188931
N	 1.8088188708	-0.9256069774	-0.3734098447	 0.025677
C	 2.9940175084	-1.5516795634	-0.1090661307	-0.161991
C	 3.1488743472	-1.4693745824	 1.2676804542	-0.126171
C	 2.0238136089	-0.7909419902	 1.8393373181	-0.343637
C	 1.2194437189	-0.4757056944	 0.766810813	 0.350187
H	 0.6202764388	 2.1181842744	-0.1817595207	 0.123594
H	-1.0687590831	 1.822479477	-0.647113829	 0.114393
H	-0.6097745343	 1.8543361447	 1.0612780617	 0.12622
H	-0.9258569689	-0.5072356937	 0.2454167304	 0.091082
H	 0.2162847526	-1.3376558605	-1.7735179316	 0.121553
H	 1.0115509032	 0.2500393079	-1.9998973559	 0.119429
H	 3.6229650222	-1.9802421253	-0.871856969	 0.114886
H	 3.9960881718	-1.8543035425	 1.8164384087	 0.08978
H	 1.8621976172	-0.5835241365	 2.8852301989	 0.091739
73.3052	136.5764	233.8441	274.3518	421.7516	483.9199	603.5469	663.7014	691.8452	713.096	751.4427	758.9931	821.1303	840.6878	911.5189	929.4238	999.4546	1051.8853	1067.4776	1085.1189	1117.2364	1138.6043	1173.7475	1224.3709	1236.9403	1267.8681	1307.7861	1354.2521	1407.232	1416.9539	1450.9165	1470.7388	1494.3714	1497.5501	1521.0664	1575.053	3031.6	3041.7571	3044.9837	3095.979	3100.924	3109.7793	3235.7544	3258.1638	3272.2034
CC1CN2C=CC=C12	C[C@H]1Cn2cccc12	
InChI=1S/C7H9N/c1-6-5-8-4-2-3-7(6)8/h2-4,6H,5H2,1H3	InChI=1S/C7H9N/c1-6-5-8-4-2-3-7(6)8/h2-4,6H,5H2,1H3/t6-/m0/s1
