19
gdb 116256	2.11728	1.5637	1.11281	1.0767	76.47	-0.2506	0.0336	0.2843	1164.4994	0.158016	-422.978012	-422.968634	-422.96769	-423.013	33.698	
C	 0.0027377621	 1.439455977	 0.0361877556	-0.243109
O	-0.0309985932	 0.0622229623	-0.2752072644	-0.235744
C	-1.2840976271	-0.5349056553	-0.0858338801	 0.145086
C	-1.2643767273	-1.984640523	-0.5964753125	-0.281738
C	-2.1940428187	-2.7386432814	 0.3783783495	-0.077336
O	-2.7071945257	-1.7642940582	 1.2970479513	-0.24417
C	-1.7565388061	-0.7146218126	 1.3933660934	-0.151998
C	-0.652455382	-1.0250770563	 2.3074677575	 0.368418
C	 0.2443924075	-1.2923847247	 3.0620250708	-0.475714
H	 0.9938529505	 1.806133472	-0.2402390442	 0.130455
H	-0.7556311415	 2.0005871036	-0.53167889	 0.104896
H	-0.1524851677	 1.6235324529	 1.1084571253	 0.116425
H	-2.0652348002	 0.0488899409	-0.5976797973	 0.074446
H	-1.5970372822	-2.0524960043	-1.6337595879	 0.112111
H	-0.23704693	-2.3523443004	-0.5442638476	 0.129493
H	-3.0570462457	-3.1984120241	-0.1098282809	 0.110971
H	-1.6494238061	-3.5193656988	 0.9245240712	 0.108032
H	-2.2993422251	 0.1613623599	 1.7620290797	 0.109848
H	 1.0362203982	-1.5262132994	 3.7302149407	 0.199628
42.8171	92.465	115.5929	138.2172	204.1645	232.5604	271.664	357.8568	436.9694	502.7234	587.6229	627.4827	670.2022	682.1302	706.1074	823.7033	869.2835	929.2816	944.612	988.3143	1031.4274	1082.7429	1099.6527	1107.6742	1167.1439	1182.4909	1213.7751	1232.9967	1249.2725	1276.4139	1297.7122	1326.9354	1363.8433	1382.9919	1399.9959	1480.702	1491.3124	1494.8867	1506.3506	1522.7288	2229.3696	2975.5372	2983.0244	3021.3888	3036.7353	3063.1877	3077.718	3089.7305	3119.1228	3127.8172	3502.3434
COC1CCOC1C#C	CO[C@H]1CCO[C@H]1C#C	
InChI=1S/C7H10O2/c1-3-6-7(8-2)4-5-9-6/h1,6-7H,4-5H2,2H3	InChI=1S/C7H10O2/c1-3-6-7(8-2)4-5-9-6/h1,6-7H,4-5H2,2H3/t6-,7-/m0/s1
