18
gdb 107377	3.43951	1.16367	0.98138	3.169	72.86	-0.2511	0.022	0.2731	1209.6922	0.148195	-439.083786	-439.07556	-439.074616	-439.116878	31.429	
O	 0.073475916	 1.4341062376	 0.3969499707	-0.410186
C	 0.0909038198	 0.0442915269	 0.1104331708	-0.155899
C	-1.285614296	-0.5098158156	-0.1538648407	 0.274293
C	-2.1346890739	-1.0233525914	 1.0056299249	-0.370786
C	-1.6161086767	-1.9712413041	-0.0372571845	 0.047106
O	-2.5175379462	-2.3428976248	-1.0590385591	-0.23754
C	-2.8706158253	-1.2439888716	-1.8088369211	 0.398248
N	-3.7406954491	-1.2568685156	-2.7202491034	-0.530743
C	-2.0590938075	-0.0335901387	-1.3725310866	-0.372791
H	-0.4961626506	 1.5657195612	 1.1625244885	 0.284607
H	 0.7178785063	-0.0604954855	-0.7823124534	 0.116369
H	 0.5737604298	-0.5285027703	 0.9189780745	 0.086431
H	-1.6679880261	-1.0605167197	 1.985233557	 0.119172
H	-3.2001770759	-0.8161853098	 1.0144991406	 0.130553
H	-0.9001090384	-2.7514113752	 0.1903578748	 0.114316
H	-4.1448010891	-2.1895195964	-2.8200935009	 0.22487
H	-2.7171821282	 0.8181572284	-1.1876615127	 0.141853
H	-1.3764912188	 0.2585710844	-2.1776452392	 0.140125
85.1801	95.2785	154.9245	280.3092	305.4725	368.4958	388.1736	447.2944	452.5047	529.4061	637.7359	699.6858	745.9583	833.6753	885.7065	897.6098	911.2254	925.304	963.1873	1007.5832	1025.5652	1044.0874	1050.1321	1063.7649	1095.6722	1151.7841	1171.6268	1209.9659	1245.0007	1261.9974	1318.0857	1332.2039	1385.377	1407.705	1424.9592	1466.4054	1482.6174	1503.6273	1780.7003	2971.3617	3059.6954	3063.961	3109.4897	3122.4644	3190.8205	3213.5731	3475.7139	3806.8678
OCC12CC1OC(=N)C2	OC[C@]12C[C@H]1O[C]([NH])C2	
InChI=1S/C6H9NO2/c7-5-2-6(3-8)1-4(6)9-5/h4,7-8H,1-3H2	InChI=1S/C6H9NO2/c7-5-2-6(3-8)1-4(6)9-5/h4,7-8H,1-3H2/t4-,6-/m1/s1
