15
gdb 42454	3.49711	0.95873	0.91594	3.4566	67.28	-0.2764	0.0023	0.2787	1302.3838	0.11198	-453.954603	-453.945886	-453.944942	-453.989874	29.74	
O	 0.2471235186	 0.3642179382	-0.7762575092	-0.379263
C	 0.0225097018	 1.163689969	 0.0955845194	 0.492988
O	 0.9736511146	 1.6637208116	 0.9426790802	-0.244725
C	 2.2956836848	 1.1906036326	 0.6985607807	-0.19029
C	 2.994241841	 2.0356892897	-0.2785730534	 0.26511
N	 3.5510459867	 2.706738191	-1.0355415703	-0.295115
N	-1.2149832361	 1.6524141843	 0.4555686214	-0.124536
C	-1.5633654912	 3.0638273348	 0.4543526844	-0.224394
C	-2.1704386765	 2.1104303828	-0.5310455213	-0.217343
H	 2.8190180122	 1.2330060002	 1.6563511647	 0.165497
H	 2.2705594967	 0.1615246981	 0.3315581754	 0.183106
H	-2.1371807945	 3.4036583823	 1.3109341538	 0.136871
H	-0.8180765354	 3.7640715323	 0.0883277768	 0.146595
H	-1.8323411512	 2.1581524164	-1.5621417719	 0.14887
H	-3.1884949914	 1.761113877	-0.3905601009	 0.136629
31.6753	57.5945	90.8606	198.814	215.8449	269.2883	332.2292	370.4977	464.6491	587.219	631.6048	783.8195	797.8809	825.5751	919.0357	947.6916	974.5691	1037.7142	1055.5296	1077.3635	1137.2849	1140.6297	1169.6856	1178.783	1202.552	1300.7363	1380.9928	1419.1622	1456.2653	1498.9468	1526.931	1824.3752	2368.2776	3077.088	3120.4976	3124.6239	3130.6707	3206.6196	3219.8262
O=C(OCC#N)N1CC1	O=C(OCC#N)N1CC1	
InChI=1S/C5H6N2O2/c6-1-4-9-5(8)7-2-3-7/h2-4H2	InChI=1S/C5H6N2O2/c6-1-4-9-5(8)7-2-3-7/h2-4H2
