18
gdb 105930	3.28537	1.66133	1.41717	1.6908	73.93	-0.2234	0.0612	0.2846	953.4613	0.14921	-401.844879	-401.837831	-401.836887	-401.876584	28.398	
O	-0.0933550337	 1.465354021	 0.1109282705	-0.414993
C	-0.08257643	 0.0509136128	-0.0315943069	-0.214452
C	-1.4703541987	-0.5040062017	 0.0174363411	 0.385503
C	-2.2698377281	-0.9217690785	 1.2545271447	-0.123107
C	-2.0289108112	-1.894335267	 0.1058200403	-0.200054
C	-3.2843146893	-1.276017166	-0.548381882	-0.004875
C	-3.6813832625	-0.5174849731	 0.7656452683	-0.076069
C	-3.468460293	 0.7876889347	-0.0201183665	-0.19173
N	-2.524993127	 0.0172142102	-0.917727405	-0.212781
H	-0.572085329	 1.8102953826	-0.6514383673	 0.293548
H	 0.4067858576	-0.2421824379	-0.972763465	 0.097218
H	 0.517840444	-0.3474950511	 0.7932585116	 0.111373
H	-1.8590676193	-0.9267317477	 2.2550133228	 0.092887
H	-1.5582327067	-2.8668084209	 0.0588209153	 0.095327
H	-3.962769955	-1.7124113495	-1.2788889172	 0.079009
H	-4.5504913163	-0.7416613618	 1.3833155905	 0.070134
H	-4.3450174881	 1.095609491	-0.5985764592	 0.103617
H	-3.0214893036	 1.647087753	 0.4874994541	 0.109443
66.6015	141.6743	281.2718	356.5885	416.7256	436.2043	555.2526	675.0561	748.342	764.6532	798.9119	808.1927	847.6136	860.8222	867.4562	902.723	920.1685	935.7937	993.2108	1000.5253	1013.8877	1025.0929	1058.1525	1067.0314	1103.4719	1141.1146	1153.2417	1181.1387	1191.1114	1219.4041	1229.5777	1256.7403	1278.4914	1295.7073	1378.8652	1395.2938	1448.6497	1492.7711	1495.6068	2988.9099	3048.9481	3073.0784	3111.1906	3118.8212	3134.0894	3202.3508	3213.8684	3801.2133
OCC12C3C1C1C3CN21	OC[C@]12[C@@H]3[C@H]1[C@H]1[C@@H]3CN21	
InChI=1S/C7H9NO/c9-2-7-4-3-1-8(7)6(3)5(4)7/h3-6,9H,1-2H2	InChI=1S/C7H9NO/c9-2-7-4-3-1-8(7)6(3)5(4)7/h3-6,9H,1-2H2/t3-,4+,5+,6-,7+/m1/s1
