21
gdb 86226	2.4025	1.20421	0.86823	1.9258	84.88	-0.2506	0.0584	0.309	1377.8869	0.181493	-387.07325	-387.063533	-387.062588	-387.108338	36.729	
C	-0.1056501246	 1.5596868388	-0.0063990543	-0.406697
C	 0.064194528	 0.0419940137	-0.0203134367	 0.047574
C	 0.8916494085	-0.508600322	-1.19100823	-0.257527
C	 1.2049967322	-1.947839297	-0.7616191746	 0.117568
O	 2.3156511705	-2.5433836968	-1.4063237294	-0.438907
C	 1.5223768148	-1.8237625522	 0.7553338153	-0.148354
C	 0.7897517068	-0.5234266441	 1.226696097	-0.242002
C	 1.1798412817	-3.0147530801	 1.5179273439	 0.318366
C	 0.8742498608	-3.9917431121	 2.1490824166	-0.473975
H	 0.8683301071	 2.0614727739	 0.031883	 0.113642
H	-0.6279682739	 1.911785293	-0.9023440394	 0.112469
H	-0.6832162931	 1.886676966	 0.8649352099	 0.11508
H	-0.9331426012	-0.4163774114	-0.0702734399	 0.075869
H	 0.3720170191	-0.4531352546	-2.1536094051	 0.086908
H	 1.837156213	 0.0415434416	-1.2876397988	 0.100892
H	 0.307052064	-2.5712808253	-0.8857523234	 0.077145
H	 2.0706442058	-2.7277348037	-2.3181288626	 0.283076
H	 2.6066444833	-1.6730325816	 0.8158372143	 0.115291
H	 1.5259956996	 0.1999289677	 1.5925124042	 0.101806
H	 0.1006126994	-0.7236216071	 2.0494983912	 0.111479
H	 0.6169703882	-4.8580598165	 2.7060078217	 0.190298
26.3201	131.5231	138.7872	210.8683	236.4886	249.231	272.3368	357.2128	408.7934	445.6944	479.8103	499.5033	544.3257	605.9937	622.9536	630.4384	793.8303	847.9115	911.4646	936.2594	948.8408	972.4948	1031.4331	1048.8727	1079.0959	1111.1307	1124.0647	1158.7815	1165.4618	1216.6831	1255.7277	1270.0659	1283.5657	1308.7292	1338.8693	1350.0667	1369.3771	1386.9417	1411.2872	1429.8344	1488.8957	1497.0971	1497.3299	1504.1945	2234.434	2987.7122	3004.197	3022.5168	3026.1273	3034.6938	3052.8527	3076.823	3091.8946	3095.4983	3109.5901	3505.8775	3825.1963	26.3141	131.523	138.7874	210.8699	236.4896	249.2327	272.3373	357.2131	408.7934	445.6955	479.8107	499.5035	544.3265	605.9972	622.9563	630.4381	793.8302	847.9115	911.4647	936.2594	948.8409	972.4948	1031.4331	1048.8729	1079.0961	1111.1309	1124.065	1158.782	1165.4619	1216.6833	1255.7285	1270.0661	1283.5661	1308.7299	1338.8696	1350.0671	1369.3772	1386.942	1411.287	1429.8343	1488.8965	1497.0971	1497.3298	1504.1952	2234.4344	2987.7122	3004.1969	3022.5167	3026.1272	3034.6936	3052.8527	3076.823	3091.8945	3095.4984	3109.5901	3505.8778	3825.197
CC1CC(O)C(C1)C#C	C[C@H]1C[C@@H](O)[C@@H](C1)C#C	
InChI=1S/C8H12O/c1-3-7-4-6(2)5-8(7)9/h1,6-9H,4-5H2,2H3	InChI=1S/C8H12O/c1-3-7-4-6(2)5-8(7)9/h1,6-9H,4-5H2,2H3/t6-,7-,8-/m1/s1
