17
gdb 75337	2.62545	1.67801	1.1507	3.5131	75.67	-0.2458	-0.054	0.1918	1067.9319	0.136123	-421.848792	-421.840895	-421.839951	-421.881238	29.92	
C	-0.24705828	 1.4950572394	 0.0400789872	-0.477788
C	 0.0150037977	 0.016472093	-0.0278147858	 0.205744
C	-0.0209689191	-0.691646304	-1.1672105366	-0.135215
C	 0.1790661835	-2.1748472095	-1.2827115117	-0.311052
C	 0.7714204151	-2.8114901635	-0.0485410391	 0.041318
O	 1.9825463575	-2.24136189	 0.4249432652	-0.245429
C	 0.801414897	-2.0642395894	 1.2249265493	-0.065256
C	 0.2514835593	-0.6653539924	 1.270631119	 0.339958
O	 0.0040180144	-0.1375948504	 2.3383765087	-0.328965
H	 0.6229246565	 2.0277040491	 0.4394487275	 0.139733
H	-0.4829299615	 1.9020722866	-0.9460751639	 0.115638
H	-1.0755107477	 1.7057060671	 0.7231556885	 0.146385
H	-0.2363591529	-0.1725400526	-2.099400244	 0.101429
H	-0.7817426462	-2.6587081743	-1.5117209282	 0.129418
H	 0.8257887235	-2.3933265072	-2.1437145149	 0.132402
H	 0.7386000587	-3.8999349975	-0.0027486693	 0.103119
H	 0.8039711741	-2.5808621844	 2.1821263081	 0.108559
87.613	147.1972	197.7414	275.0927	293.7692	336.2332	393.125	453.776	486.7892	562.0236	686.0832	744.5873	772.0608	826.1618	866.6763	887.9894	921.441	959.0575	1018.9781	1059.9133	1072.5291	1080.7653	1119.4321	1153.7436	1229.9127	1254.6407	1269.5482	1358.8876	1374.7328	1394.3611	1414.052	1445.6598	1458.9053	1470.4546	1488.9646	1707.9358	1765.5933	3008.0435	3035.175	3040.3958	3097.9804	3113.3228	3125.9999	3145.1675	3148.5269
CC1=CCC2OC2C1=O	CC1=CC[C@H]2O[C@H]2C1=O	
InChI=1S/C7H8O2/c1-4-2-3-5-7(9-5)6(4)8/h2,5,7H,3H2,1H3	InChI=1S/C7H8O2/c1-4-2-3-5-7(9-5)6(4)8/h2,5,7H,3H2,1H3/t5-,7-/m1/s1
