19
gdb 41204	2.8685	1.74027	1.57719	1.8869	75.37	-0.2364	0.0454	0.2818	934.1076	0.161266	-422.903551	-422.89674	-422.895796	-422.934307	28.702	
C	 0.0373894377	 1.5995629986	-0.1140885524	-0.204779
O	 1.512175857	 1.4763572518	 0.0052705531	-0.336631
C	 1.2028165125	 0.283169752	 0.8323062998	 0.128374
C	 1.2940993237	-1.2834118689	 1.0862813413	 0.043916
C	-0.3225942396	-1.1023885414	 1.1249796312	-0.34388
C	-0.059184515	 0.0526064995	 0.0914532576	 0.232753
C	 0.2002309568	-0.6619177448	-1.2694171532	-0.250284
C	 1.5068874514	-1.4612431933	-1.2292012498	-0.063512
O	 1.7009146094	-2.0972295818	 0.0360981537	-0.253364
H	-0.3631239741	 2.2048185456	 0.7083290125	 0.1063
H	-0.2479827374	 2.0154221129	-1.0841215543	 0.112055
H	 1.009747624	 0.6828691776	 1.8387433575	 0.080841
H	 1.7904780938	-1.634125258	 1.9940548642	 0.092538
H	-0.8770736476	-1.9736516747	 0.7685732118	 0.110404
H	-0.6844826619	-0.7900216818	 2.1054117039	 0.112384
H	-0.6534720773	-1.3157362537	-1.4819045087	 0.101711
H	 0.2654404744	 0.0607523583	-2.0870349271	 0.106187
H	 1.5390601002	-2.2526006093	-1.9823721957	 0.105691
H	 2.3449873818	-0.7744161284	-1.4056062353	 0.119296
190.1519	231.5115	291.8088	377.8343	402.1867	426.2544	515.4091	551.6913	634.7236	718.3399	760.0813	787.9549	826.3714	835.3205	887.5389	911.2855	930.7136	952.9584	978.6924	1011.1959	1042.5539	1057.1353	1094.8859	1128.5826	1135.3687	1159.3163	1188.9301	1204.7984	1233.2826	1255.017	1265.9986	1285.6879	1306.6218	1351.5097	1375.0809	1410.2692	1443.6234	1470.4391	1490.9551	1505.2016	1511.6642	2978.7113	3019.9204	3024.3736	3036.9794	3067.8698	3088.236	3089.8594	3098.1194	3103.1585	3141.6366
C1OC2C3CC12CCO3	C1O[C@@H]2[C@H]3C[C@@]12CCO3	
InChI=1S/C7H10O2/c1-2-8-5-3-7(1)4-9-6(5)7/h5-6H,1-4H2	InChI=1S/C7H10O2/c1-2-8-5-3-7(1)4-9-6(5)7/h5-6H,1-4H2/t5-,6-,7+/m1/s1
