17
gdb 31013	3.7915	0.86363	0.70912	1.0644	77.4	-0.2517	-0.0701	0.1816	1589.4134	0.131983	-455.197796	-455.187024	-455.18608	-455.234408	36.688	
C	 0.8099247826	 1.5226790828	 0.6045889396	-0.48572
C	 0.1440595049	 0.2383578429	 0.2801022902	 0.398287
N	-0.8711247548	-0.2859158735	 0.8574562872	-0.343538
C	-1.1074894696	-1.4970264367	 0.1775983334	 0.189972
C	-2.0732424714	-2.3828773166	 0.4373987931	-0.402097
N	-1.8021959293	-4.951473135	-1.7419287548	-0.725996
H	-1.0516671656	-4.3024905474	-1.9733520542	 0.269916
H	-1.3612911938	-5.8483379333	-1.5572741981	 0.23403
H	-2.3476585068	-5.0760199519	-2.5903502828	 0.23403
C	-0.0813421566	-1.6235014826	-0.8967927461	 0.386173
O	 0.1475909229	-2.4489780251	-1.7326062923	-0.325677
O	 0.6916369368	-0.4691822464	-0.7717869059	-0.235067
H	 1.8612556726	 1.3519516309	 0.8585466786	 0.157233
H	 0.790403444	 2.1904864037	-0.2629313484	 0.157233
H	 0.2996319218	 1.9938388475	 1.4441346226	 0.160958
H	-2.1727325389	-3.29423641	-0.1490066709	 0.193601
H	-2.7707801887	-2.1929117794	 1.245489449	 0.136661
39.6343	105.0932	118.9072	134.8696	148.1842	169.068	181.9121	216.6395	289.1825	322.6348	349.1547	409.9262	570.4987	627.4734	628.129	656.7909	790.3127	811.081	832.1467	918.9606	971.1988	1033.3818	1033.5414	1064.9693	1082.5602	1119.5225	1265.5765	1301.5968	1412.2325	1451.5309	1470.4684	1470.5391	1669.985	1675.3229	1699.7368	1732.3632	1876.417	3047.2071	3104.0255	3118.7439	3165.5116	3238.5048	3454.7234	3569.1922	3584.5377	39.6358	105.0935	118.9071	134.8717	148.1882	169.07	181.913	216.6418	289.1829	322.6353	349.1566	409.9264	570.4989	627.4734	628.1291	656.7909	790.3128	811.0811	832.147	918.9614	971.1987	1033.3825	1033.5414	1064.9689	1082.5604	1119.523	1265.5764	1301.5968	1412.2322	1451.5317	1470.4678	1470.5384	1669.9847	1675.3224	1699.7361	1732.363	1876.4174	3047.2071	3104.0256	3118.744	3165.5116	3238.5048	3454.7237	3569.1923	3584.5378
CC1=NC(C[NH3+])=C([O-])O1	CC1=NC(=C)C(=O)O1.N	
InChI=1S/C5H8N2O2/c1-3-7-4(2-6)5(8)9-3/h8H,2,6H2,1H3	InChI=1S/C5H5NO2.H3N/c1-3-5(7)8-4(2)6-3;/h1H2,2H3;1H3
