16
gdb 26600	2.35647	1.87703	1.05151	3.9227	77.45	-0.2009	-0.0261	0.1748	1079.3166	0.126514	-434.126891	-434.118883	-434.117939	-434.15936	30.477	
C	-0.0167264725	 1.5348649211	 0.0265983298	-0.484296
C	 0.0020489038	 0.035955777	-0.0066870812	 0.150732
C	-0.0176208911	-0.6950807977	-1.1584229376	 0.33398
O	-0.0561837972	-0.0855932858	-2.3623169157	-0.413552
N	-0.0016452326	-2.0721616712	-1.2334976404	-0.370641
C	 0.0351224807	-2.697579117	-0.1048499556	 0.100509
N	 0.0577222677	-2.0826058482	 1.0990681371	-0.358662
C	 0.0434185707	-0.6733880948	 1.2567046894	 0.303628
N	 0.0643874944	-0.0775515955	 2.3935286486	-0.551479
H	 0.8668244263	 1.9184398115	 0.5481858278	 0.137718
H	-0.0476407659	 1.9494955019	-0.9811984115	 0.130436
H	-0.8825215798	 1.8955603077	 0.5924139788	 0.137715
H	-0.0637860775	-0.794192794	-3.0188755952	 0.299439
H	 0.049677779	-3.7843102351	-0.0878296624	 0.136221
H	 0.0863166683	-2.6447133425	 1.9371680415	 0.256723
H	 0.0926952056	-0.7361132676	 3.1722382266	 0.191528
108.8145	131.3806	181.9059	267.2402	290.0347	363.6799	484.8069	495.3392	516.18	534.9355	550.0027	613.0278	692.3271	694.5785	770.788	782.6721	887.3509	938.1843	949.4731	1059.7462	1062.8302	1092.13	1195.4566	1220.6257	1288.0328	1312.7707	1395.0202	1412.5532	1444.6638	1474.0381	1477.4701	1485.7017	1634.2896	1688.7689	1725.2435	3039.722	3086.1444	3150.1161	3169.4134	3466.5252	3612.7874	3786.486
CC1=C(O)N=CNC1=N	CC1=C(NC=N[C@H]1O)[NH]	
InChI=1S/C5H7N3O/c1-3-4(6)7-2-8-5(3)9/h2H,1H3,(H3,6,7,8,9)	InChI=1S/C5H8N3O/c1-3-4(6)7-2-8-5(3)9/h2,5-6,9H,1H3,(H,7,8)/t5-/m0/s1
