20
gdb 59891	2.97712	1.03889	0.86958	2.3701	77.64	-0.256	-0.0083	0.2477	1395.8719	0.16951	-440.286811	-440.277109	-440.276165	-440.322069	35.248	
C	 0.1050902189	 1.3457903794	 0.2999976387	-0.381204
C	-0.1896262451	-0.1492597114	 0.3153742353	 0.136804
O	-0.5829302538	-0.4846014687	 1.6326753879	-0.440419
C	-1.2856523258	-0.5162708187	-0.7204896009	-0.298737
C	-1.4716361771	-2.015492576	-0.8346210807	 0.343255
O	-1.0896226336	-2.6816722046	-1.7677996609	-0.317627
N	-2.0225155154	-2.6053569088	 0.3291316483	-0.1031
C	-3.4567437905	-2.5638748458	 0.6151364395	-0.228558
C	-2.7740954872	-3.8403767842	 0.2384802284	-0.220325
H	 0.855696335	 1.58138715	 1.0590712703	 0.127271
H	 0.4835176056	 1.6615872374	-0.6764417119	 0.113396
H	-0.801156495	 1.915655213	 0.5291086136	 0.119123
H	 0.7283881912	-0.6943612885	 0.0364413709	 0.07745
H	-0.896870583	-1.4001211286	 1.6125400962	 0.285845
H	-2.2187730445	-0.0366902841	-0.4038736812	 0.112388
H	-1.0068553189	-0.1451689068	-1.7091321268	 0.123011
H	-3.7284282653	-2.3647433243	 1.6473467954	 0.136587
H	-4.1010015365	-2.1022012909	-0.1287623337	 0.136881
H	-2.933644239	-4.2316321898	-0.7617765825	 0.145682
H	-2.5572897501	-4.5800819785	 1.0026634343	 0.132276
55.8451	69.7881	115.8145	154.5063	219.9066	235.3836	266.1495	314.8991	382.7025	462.0854	471.4937	531.2574	610.4601	691.469	764.0309	815.1879	865.5722	907.7798	942.2541	953.9889	961.3219	1038.2643	1063.3498	1090.1	1122.288	1129.0534	1134.1578	1167.5978	1179.3692	1189.9117	1250.1197	1294.8471	1326.8881	1356.4008	1374.7915	1402.4805	1456.0966	1465.2017	1485.6368	1494.0364	1499.5948	1520.2753	1798.9299	2954.2526	3041.1323	3048.3165	3113.5823	3114.131	3121.0189	3124.9473	3125.9366	3201.3413	3219.4107	3710.8478
CC(O)CC(=O)N1CC1	C[C@@H](O)CC(=O)N1CC1	
InChI=1S/C6H11NO2/c1-5(8)4-6(9)7-2-3-7/h5,8H,2-4H2,1H3	InChI=1S/C6H11NO2/c1-5(8)4-6(9)7-2-3-7/h5,8H,2-4H2,1H3/t5-/m1/s1
