19
gdb 41915	2.21608	2.20085	1.894	0.6968	72.62	-0.2231	0.0726	0.2957	878.834	0.163418	-423.012662	-423.006064	-423.00512	-423.043329	27.64	
C	-0.0303580244	 1.5157257927	-0.1406802119	-0.219593
C	 1.3758266661	 2.1431297082	 0.0297608299	-0.207927
C	 2.3039623066	 1.2979960921	 0.9127225413	 0.048419
C	 1.8294020499	 1.0895617995	 2.3516477961	-0.074409
O	 0.5348930103	 0.4996864338	 2.4137163328	-0.25883
C	 0.2927642808	-0.4884095075	 1.4481133026	 0.046222
C	-0.0396565702	 0.0021207489	 0.0398106269	-0.126343
C	 1.2688845896	-0.7054682226	 0.3245762515	 0.060066
O	 2.4716942577	 0.0098787837	 0.3095841234	-0.263357
H	-0.7206642786	 1.9548682631	 0.5875351565	 0.113874
H	-0.4159370462	 1.7671395248	-1.1329142929	 0.100166
H	 1.8671697658	 2.2224446137	-0.9452586564	 0.109346
H	 1.2951300348	 3.158597508	 0.4316847802	 0.097468
H	 3.3046048939	 1.7409531018	 0.9371407635	 0.086773
H	 2.5662024864	 0.4542541224	 2.8649603441	 0.101273
H	 1.7558029169	 2.0416467354	 2.886552332	 0.106688
H	-0.2456657991	-1.3334693396	 1.8664556143	 0.094419
H	-0.7937141308	-0.5464523176	-0.5159809008	 0.083252
H	 1.4270733603	-1.7104584208	-0.051270183	 0.102493
147.6116	229.0262	336.1021	370.285	451.8047	484.6318	523.9478	652.7225	694.2065	743.5023	754.8396	786.2554	835.311	877.1441	889.5075	904.271	949.3949	977.833	1033.8512	1049.6883	1082.7513	1088.6595	1112.7223	1126.7333	1141.8194	1176.3053	1222.0593	1236.9669	1259.7403	1281.2235	1325.8041	1328.7299	1342.1003	1362.874	1381.3849	1388.7951	1411.7364	1445.103	1474.5387	1493.1372	1496.8505	2996.7877	3038.2694	3044.7259	3065.753	3073.7986	3080.9855	3093.4425	3144.3461	3151.6306	3170.4432
C1CC2COC3C1C3O2	C1C[C@H]2CO[C@H]3[C@@H]1[C@H]3O2	
InChI=1S/C7H10O2/c1-2-5-6-7(5)9-4(1)3-8-6/h4-7H,1-3H2	InChI=1S/C7H10O2/c1-2-5-6-7(5)9-4(1)3-8-6/h4-7H,1-3H2/t4-,5+,6-,7+/m0/s1
