19
gdb 23244	2.52694	1.34804	1.10502	1.0382	80.25	-0.227	0.0008	0.2278	1182.4362	0.157846	-419.122529	-419.113399	-419.112455	-419.15608	34.385	
C	-0.0851605425	 1.5634910103	-0.0026748067	-0.428464
C	 0.0809721903	 0.063033258	-0.0951989141	 0.019683
C	 0.629141303	-0.6805514239	-1.264685356	-0.15804
N	 1.3407312023	-0.6719660008	 0.103059052	-0.154306
C	 2.4653792534	 0.1414662042	-0.5199720377	-0.047407
C	 3.790923052	-0.6005621871	-0.4274181529	-0.395144
C	 1.7699443164	 0.0476723726	-1.8685083619	 0.430542
N	 2.0515541772	 0.2585659503	-3.0859126775	-0.266659
O	 3.2846687159	 0.9309035597	-3.2076326335	-0.393848
H	 0.6014750919	 2.1133065004	-0.648165644	 0.137224
H	-1.1028909724	 1.8327554593	-0.3023524506	 0.127999
H	 0.0583164204	 1.9037473559	 1.028718265	 0.128591
H	-0.7233640722	-0.4819666426	 0.3978003971	 0.102812
H	 0.1521906181	-1.5638053571	-1.675583131	 0.110713
H	 2.5594987522	 1.1443606042	-0.0924740944	 0.094054
H	 3.6954640478	-1.6140455984	-0.8266935748	 0.124855
H	 4.5585763813	-0.0716037849	-0.9965064009	 0.136084
H	 4.1025179466	-0.6735425103	 0.6186431923	 0.123135
H	 3.3864045382	 0.9935369704	-4.1631707306	 0.308176
87.9827	153.6603	171.8846	210.0674	221.5111	262.3161	282.0266	355.6213	373.625	443.4356	483.1793	578.0033	644.2501	714.4995	735.0059	790.8652	829.832	902.5045	912.8537	976.9807	1006.7589	1049.708	1057.0561	1073.5124	1112.6176	1121.4868	1179.1796	1189.0204	1256.4843	1258.8454	1322.2715	1350.1864	1402.5531	1411.598	1416.3506	1430.1119	1484.9597	1494.3937	1495.0259	1501.5444	1786.17	3041.253	3047.3014	3062.3416	3100.7621	3112.9428	3120.0994	3136.5137	3139.506	3174.3774	3821.5366
CC1C2N1C(C)C2=NO	C[C@H]1[C@@H]2N1[C@@H](C)C2=NO	
InChI=1S/C6H10N2O/c1-3-5(7-9)6-4(2)8(3)6/h3-4,6,9H,1-2H3	InChI=1S/C6H10N2O/c1-3-5(7-9)6-4(2)8(3)6/h3-4,6,9H,1-2H3/t3-,4-,6-,8?/m0/s1
