17
gdb 69676	3.39979	1.31511	1.19537	3.7964	77.1	-0.24	0.0022	0.2422	1082.1567	0.135631	-380.7899	-380.78203	-380.781086	-380.822083	30.526	
C	 0.0544750719	 1.5843473896	-0.020276619	-0.496857
C	-0.0117951974	 0.0874050435	 0.0527822293	 0.331308
C	-0.8759228182	-0.6990165157	 0.9977511127	-0.370834
C	 0.6149677044	-0.9050410633	 1.0114124779	-0.051645
N	 1.2598843762	-1.7080367012	-0.1085922443	-0.154359
C	 0.2776791338	-2.2593109866	-1.079320806	-0.141236
C	-0.9475966434	-2.9634704394	-0.7952292678	 0.297924
N	-1.8970144916	-3.6081290809	-0.6458066635	-0.34667
C	 0.5647459443	-0.7963645991	-1.0746679567	-0.112555
H	 1.0312956003	 1.9263462101	-0.3807659888	 0.125544
H	-0.7105823902	 1.9831007922	-0.6972157842	 0.129667
H	-0.1129199504	 2.0277723224	 0.965810386	 0.127482
H	-1.204013385	-0.1120485849	 1.8521088522	 0.121975
H	-1.5974470918	-1.4411857044	 0.6886665071	 0.163146
H	 1.228480596	-0.7602268037	 1.8910184309	 0.114261
H	 0.8289197805	-2.7858582525	-1.8577976679	 0.151538
H	 1.1082704206	-0.3619333862	-1.9098779179	 0.111312
96.5791	173.3864	204.8213	258.0473	281.94	364.8007	400.4123	454.648	589.8659	608.4362	629.951	684.4171	753.3569	790.6243	820.6531	893.8971	934.3092	954.1535	975.9431	992.338	1037.3519	1059.8799	1072.1025	1080.4529	1105.001	1133.193	1230.1343	1242.9743	1257.9599	1330.738	1389.1774	1412.586	1431.1175	1484.8511	1499.4897	1505.9669	2343.5278	3024.0128	3081.9569	3106.2451	3119.7071	3137.4961	3143.8354	3199.7377	3243.1136
CC12CC1N1C(C#N)C21	C[C@]12C[C@H]1N1[C@@H](C#N)[C@@H]21	
InChI=1S/C7H8N2/c1-7-2-5(7)9-4(3-8)6(7)9/h4-6H,2H2,1H3	InChI=1S/C7H8N2/c1-7-2-5(7)9-4(3-8)6(7)9/h4-6H,2H2,1H3/t4-,5+,6-,7-,9?/m0/s1
