16
gdb 32191	2.66001	1.33307	0.89299	2.8898	74.91	-0.2198	-0.0374	0.1824	1226.2504	0.124637	-437.929785	-437.921357	-437.920412	-437.963386	30.278	
O	-0.0050024904	 1.4084428104	 0.0072591832	-0.409156
C	 0.0082359014	-0.0059363915	 0.0018815489	-0.190308
C	-1.4182904161	-0.4639893405	 0.0122437474	 0.324375
C	-2.564163238	 0.272766252	 0.023419918	-0.227082
C	-3.6765409552	-0.6387389803	 0.0298754223	-0.170021
C	-3.1799780685	-1.9042300803	 0.0225895059	-0.076516
N	-1.7867547116	-1.8159902009	 0.0116671545	-0.117493
C	-0.9358822086	-2.9120846458	 0.0017450696	 0.170072
O	-1.3076576206	-4.0575354843	 0.0016024457	-0.295415
H	 0.9061446288	 1.7144658578	-0.0002926764	 0.294885
H	 0.5306599117	-0.3955172822	-0.8891930745	 0.105347
H	 0.5456629917	-0.4021237643	 0.8810327313	 0.105321
H	-2.6022510189	 1.3497235799	 0.0266564461	 0.124981
H	-4.7221835621	-0.3713363033	 0.0389681264	 0.111137
H	-3.6443930561	-2.8750266614	 0.0237298569	 0.152001
H	 0.1284749727	-2.6200889851	-0.0060793053	 0.097871
64.9059	141.2098	175.9212	180.9297	218.8914	256.1635	294.0721	401.1189	566.0978	616.7343	622.1397	695.1339	757.9637	827.5541	829.7666	881.8873	912.6262	1021.2768	1027.2563	1052.8184	1074.456	1095.9933	1154.9454	1214.3926	1253.1973	1268.1561	1317.3056	1358.2364	1425.9982	1452.6148	1483.1089	1521.5112	1539.1647	1632.048	1818.5125	2940.3839	2955.5436	2989.6651	3250.5028	3277.835	3298.7437	3842.6951
OCC1=CC=CN1C=O	OCc1cccn1C=O	
InChI=1S/C6H7NO2/c8-4-6-2-1-3-7(6)5-9/h1-3,5,8H,4H2	InChI=1S/C6H7NO2/c8-4-6-2-1-3-7(6)5-9/h1-3,5,8H,4H2
