17
gdb 92317	2.42567	1.91677	1.25504	4.387	67.	-0.2642	-0.0046	0.2597	988.4214	0.137529	-458.995544	-458.988099	-458.987154	-459.027541	28.873	
O	 0.1577232071	 1.3723531785	-0.2338428536	-0.437556
C	 0.0395880925	-0.0065112826	-0.0694896477	 0.171616
C	 0.3656685226	-0.6752931685	 1.3048050193	-0.290326
C	-0.8693029654	-1.6091724601	 1.1123280362	-0.040448
C	-1.9573171929	-1.5565644066	 2.1831070256	-0.101394
O	-2.6414658721	-0.3016645606	 1.9804206662	-0.216836
C	-2.3373837648	 0.2413795639	 0.7769643179	 0.435812
O	-2.7493179921	 1.3193508409	 0.4355398626	-0.358707
C	-1.3757543939	-0.6514521078	 0.0094302367	-0.235096
H	-0.6852679198	 1.7855328171	-0.000788794	 0.302203
H	 0.6184932534	-0.4875363044	-0.8654742919	 0.091774
H	 1.3422893232	-1.1511677431	 1.4064778053	 0.10972
H	 0.2260535755	 0.0286611478	 2.1309776095	 0.119228
H	-0.6233320254	-2.6250166951	 0.8048974676	 0.089686
H	-2.687092278	-2.3672149996	 2.0792504124	 0.121332
H	-1.570107441	-1.5558097726	 3.2053700686	 0.130281
H	-1.8364910987	-1.0101611474	-0.9126341307	 0.108711
94.6077	168.5366	185.0514	322.2377	337.1048	389.6825	447.3699	540.0374	567.0674	681.9692	710.193	739.4173	799.2713	822.221	888.6569	945.6477	972.5938	990.4709	999.0907	1053.994	1082.3447	1134.5149	1155.2031	1170.9799	1188.5246	1209.2259	1232.7871	1251.9386	1259.1856	1310.6875	1324.2324	1369.3379	1398.3828	1446.154	1482.6091	1516.124	1840.2843	3043.5853	3045.9621	3062.4801	3100.3232	3101.681	3116.127	3130.6702	3739.896
OC1CC2COC(=O)C12	O[C@H]1C[C@H]2COC(=O)[C@@H]12	
InChI=1S/C6H8O3/c7-4-1-3-2-9-6(8)5(3)4/h3-5,7H,1-2H2	InChI=1S/C6H8O3/c7-4-1-3-2-9-6(8)5(3)4/h3-5,7H,1-2H2/t3-,4-,5+/m0/s1
