20
gdb 40526	3.94715	1.14968	1.11245	1.3664	86.1	-0.2084	0.0164	0.2248	1188.4236	0.173716	-365.951692	-365.944309	-365.943365	-365.983841	29.887	
C	 0.2268098337	 1.5107401789	 0.0786963889	-0.242544
N	 1.2738445229	 0.5010346055	-0.1012954778	-0.314397
C	-0.1322002871	 0.0602172579	 0.0778747835	-0.195147
C	-0.449873584	-0.6813492135	 1.3020124216	 0.460421
C	-1.3521367517	-1.6440438877	 1.5338356825	-0.23647
C	-1.152504817	-1.9715682408	 3.0204255392	-0.0612
C	-1.028908041	-0.5253578985	 3.6130009098	-0.210902
C	 0.2271597156	-0.5042390129	 2.6740071351	-0.123194
C	 0.4140702425	-2.003977538	 3.0865156364	-0.20491
H	 0.272133923	 2.0520275079	 1.019662657	 0.120097
H	-0.0885143023	 2.1088944601	-0.772691043	 0.11223
H	 1.5314759989	 0.4329171066	-1.0822419991	 0.233589
H	-0.6570409801	-0.2906270091	-0.8089280551	 0.080969
H	-2.0612327503	-2.1035810432	 0.8592458154	 0.092172
H	-1.7759624701	-2.7409197841	 3.475376274	 0.056749
H	-1.8360291759	 0.1785158212	 3.3947333718	 0.088377
H	-0.7736329639	-0.5093287471	 4.6776439427	 0.089313
H	 1.0268790745	 0.2288910802	 2.7640512748	 0.072648
H	 0.8064560164	-2.1275395087	 4.1013453136	 0.088903
H	 0.9353206658	-2.6573476047	 2.3832821689	 0.093296
78.9777	129.6525	160.7985	353.4323	422.6761	494.757	505.8786	601.8058	648.0561	774.6954	782.5528	823.2626	834.9436	854.3209	867.4276	868.7571	910.6985	911.5976	933.5618	968.6561	1002.9985	1010.8842	1061.8991	1064.8956	1088.9243	1105.9409	1112.3181	1116.9605	1152.7506	1203.1921	1224.1505	1227.7445	1234.0092	1241.7456	1259.6439	1271.2022	1286.113	1342.7183	1419.2967	1477.8444	1509.1038	1514.6041	1683.5692	3039.2364	3049.349	3104.4948	3110.3559	3117.5915	3117.7302	3121.6911	3133.0943	3190.8224	3224.1513	3504.8079
C1NC1C1=CC2CC1C2	C1N[C@H]1C1=C[C@@H]2C[C@H]1C2	
InChI=1S/C8H11N/c1-5-2-6(1)7(3-5)8-4-9-8/h3,5-6,8-9H,1-2,4H2	InChI=1S/C8H11N/c1-5-2-6(1)7(3-5)8-4-9-8/h3,5-6,8-9H,1-2,4H2/t5-,6+,8-/m1/s1
