22
gdb 59698	2.26091	1.23884	0.97517	4.1768	84.03	-0.2394	0.0237	0.263	1326.4569	0.193567	-404.369144	-404.359242	-404.358298	-404.404365	36.027	
C	 0.1935218462	 1.5227682155	 0.1514999683	-0.399139
C	 0.088318491	-0.0067409052	 0.0605898909	 0.022125
C	 0.9608148903	-0.674929565	 1.1313107428	-0.397467
C	-1.3790436798	-0.465653357	 0.0972090366	 0.044503
C	-1.6732231437	-1.995408149	 0.002980771	-0.281727
C	-2.3489730727	-1.9108603715	 1.3989194374	-0.1611
N	-2.0399733088	-0.476685739	 1.4229910965	-0.042369
C	-2.7202393555	 0.4811688025	 2.098537133	 0.121007
O	-3.4984768224	 0.2589892105	 3.0039619948	-0.330459
H	 1.2303532646	 1.850067245	 0.0265317192	 0.116974
H	-0.4089185446	 2.0146465406	-0.6195815266	 0.111582
H	-0.1480000706	 1.884506509	 1.1278699494	 0.125194
H	 0.4588957954	-0.3107715332	-0.9295478879	 0.079845
H	 0.967842226	-1.7654474777	 1.0427082029	 0.113027
H	 1.9969984206	-0.3339285859	 1.0454757065	 0.116026
H	 0.605376762	-0.4216854698	 2.1349310239	 0.130118
H	-1.9473677288	 0.1197441739	-0.6370932505	 0.082997
H	-2.346800085	-2.2691291826	-0.8096153902	 0.116047
H	-0.7869326641	-2.6287154513	-0.0444595612	 0.115383
H	-3.4239424393	-2.1120382909	 1.4258208299	 0.128042
H	-1.8660236553	-2.4787247804	 2.1998940641	 0.120796
H	-2.4798734155	 1.5019905815	 1.7378405891	 0.068596
56.8692	92.7217	98.6399	193.4753	211.1714	233.2083	262.4853	281.1325	329.7068	352.2913	419.3186	512.4611	631.5724	712.0947	793.776	824.2564	899.7938	916.472	926.4074	954.6399	968.0188	1032.2409	1035.0637	1052.4749	1094.334	1144.5317	1167.1927	1177.0591	1207.0866	1215.8537	1265.1449	1267.4013	1314.3449	1329.0878	1356.7531	1379.1988	1387.224	1400.1844	1422.8341	1432.7697	1483.7384	1488.5189	1498.9532	1507.785	1512.0012	1523.8494	1785.8743	2928.3021	2999.2605	3016.061	3029.8829	3041.4148	3049.3398	3091.1609	3093.184	3098.0735	3102.0031	3107.4678	3113.0654	3144.7918
CC(C)C1CCN1C=O	CC(C)[C@H]1CCN1C=O	
InChI=1S/C7H13NO/c1-6(2)7-3-4-8(7)5-9/h5-7H,3-4H2,1-2H3	InChI=1S/C7H13NO/c1-6(2)7-3-4-8(7)5-9/h5-7H,3-4H2,1-2H3/t7-/m1/s1
