20
gdb 59822	4.29953	0.6024	0.54657	3.7808	87.05	-0.2488	-0.0148	0.2341	2035.1461	0.168221	-403.167322	-403.156106	-403.155162	-403.206017	38.674	
C	-0.0595466697	 1.557088727	 0.0006170036	-0.391841
C	 0.011363492	 0.0260655288	 0.0283839474	 0.047634
C	 0.836940671	-0.4792915069	 1.2162414694	-0.386171
C	-1.4209618774	-0.5662393109	 0.039118585	-0.356987
C	-1.4594441829	-2.0183749833	-0.0647668125	-0.002232
C	-1.4589054161	-3.2213473128	-0.1551953531	 0.103492
C	-1.3815035922	-4.6716474936	-0.2407329072	 0.256837
N	-2.576475538	-5.2733904402	-0.5184784653	-0.520373
O	-0.3443655914	-5.2888034578	-0.0888955782	-0.336245
H	 0.9433511816	 1.9930302223	-0.040308877	 0.116398
H	-0.6183931688	 1.9196184744	-0.8688466062	 0.111298
H	-0.5522538462	 1.9442454935	 0.9006991806	 0.11372
H	 0.4942089619	-0.3156776642	-0.8959679594	 0.091079
H	 0.8916526464	-1.5712478773	 1.2268214813	 0.141855
H	 1.8581945631	-0.0879974526	 1.1736393564	 0.113886
H	 0.3953894831	-0.1528884403	 2.1659315095	 0.109081
H	-1.9312137247	-0.2588176768	 0.9631514982	 0.13118
H	-2.0018598743	-0.1324365719	-0.7853391154	 0.129257
H	-3.431475075	-4.7474200865	-0.560774925	 0.263976
H	-2.6099502622	-6.2795771411	-0.5302870017	 0.264155
13.5006	53.3852	63.8387	118.8326	155.3403	172.3394	226.5111	252.3763	299.8096	346.6424	383.7332	407.8412	446.1165	509.4698	568.2172	613.9261	724.5521	773.5464	815.2763	877.8127	931.268	947.533	970.1633	1081.5891	1089.2369	1126.9487	1138.2345	1191.4106	1255.7526	1307.2139	1348.8151	1366.3432	1368.5768	1402.5538	1423.48	1460.8931	1488.3916	1492.735	1503.865	1511.084	1607.0795	1771.9383	2344.0208	3007.5996	3023.0286	3024.2237	3031.4959	3046.2776	3089.4554	3096.2706	3104.2389	3118.0824	3602.5354	3744.9381
CC(C)CC#CC(N)=O	CC(C)CC#CC(=O)N	
InChI=1S/C7H11NO/c1-6(2)4-3-5-7(8)9/h6H,4H2,1-2H3,(H2,8,9)	InChI=1S/C7H11NO/c1-6(2)4-3-5-7(8)9/h6H,4H2,1-2H3,(H2,8,9)
