19
gdb 46048	3.63518	1.03655	0.92206	4.4094	75.05	-0.2616	0.0163	0.2778	1302.8014	0.160492	-423.062064	-423.05392	-423.052976	-423.095571	30.7	
O	-0.4687418163	 0.3820400108	-0.9157233397	-0.335774
C	-0.2780543756	 1.4173999639	-0.3486042551	 0.431198
C	-1.1749918718	 2.137441774	 0.6533257838	-0.371977
C	-0.6146863324	 3.56828849	 0.692087643	-0.04583
C	 0.8606668466	 3.3108486749	 0.3162392651	-0.091058
O	 0.8579474	 2.1494684106	-0.5301639829	-0.219627
C	-1.3022448175	 4.4872879593	-0.2983895737	 0.036708
C	-2.5531182194	 5.2302171954	 0.0930671908	-0.278575
C	-1.258827884	 5.9819531048	-0.1085716705	-0.279148
H	-2.2203714562	 2.0688397244	 0.349536556	 0.141291
H	-1.0738564367	 1.628879008	 1.6189112117	 0.134474
H	-0.6814746855	 4.0066302641	 1.6924362237	 0.078839
H	 1.309828268	 4.1330399106	-0.2449298666	 0.126748
H	 1.4801503352	 3.1009530966	 1.1964205023	 0.111011
H	-1.2593498834	 4.1382320878	-1.3279724256	 0.098282
H	-3.3386301884	 5.3465787549	-0.644922224	 0.119226
H	-2.9149690796	 5.1135521365	 1.1097846193	 0.113574
H	-0.7581731402	 6.3679709428	 0.7738703712	 0.112031
H	-1.1588192129	 6.6126149906	-0.9846843289	 0.118608
69.9412	76.4345	149.045	214.0961	291.2021	320.8906	430.2803	514.3894	556.6539	686.7235	736.8711	757.0928	809.011	832.004	854.9582	902.1584	922.4237	946.3461	985.4529	1007.1894	1051.0703	1059.5754	1081.0146	1085.0773	1139.1458	1147.1873	1167.883	1197.5157	1209.8919	1226.7522	1243.8319	1266.8545	1307.0241	1317.2551	1395.859	1430.6071	1461.5845	1470.0086	1506.8383	1522.0216	1884.9913	3032.2339	3051.5201	3065.0247	3109.0765	3128.444	3129.3516	3130.7621	3134.6664	3208.3667	3223.0328
O=C1CC(CO1)C1CC1	O=C1C[C@@H](CO1)C1CC1	
InChI=1S/C7H10O2/c8-7-3-6(4-9-7)5-1-2-5/h5-6H,1-4H2	InChI=1S/C7H10O2/c8-7-3-6(4-9-7)5-1-2-5/h5-6H,1-4H2/t6-/m0/s1
