21
gdb 89610	3.582	1.09697	0.93436	2.8844	84.47	-0.2356	-0.01	0.2255	1326.0526	0.181178	-387.094266	-387.084928	-387.083984	-387.128477	35.176	
C	-0.1482373365	 1.5476910736	 0.0387563223	-0.404945
C	 0.1991025961	 0.0756912585	-0.1484469203	 0.034834
C	 1.5274453686	-0.3056975001	-0.8923489125	-0.345169
C	 1.9476789205	-1.1684226483	 0.3070785736	 0.265287
C	 2.0031650157	-0.3145525619	 1.5562172149	-0.31796
C	 0.6630256605	-0.7352829919	 1.0729712081	-0.088755
C	 2.5181638075	-2.5373331095	 0.3234260854	 0.274701
C	 2.8842809461	-3.1508899667	-1.016843226	-0.490713
O	 2.6701930036	-3.1471160452	 1.3641539206	-0.326352
H	 0.6647957104	 2.0977592954	 0.5235536335	 0.116874
H	-0.3436307319	 2.0275649385	-0.926492168	 0.116042
H	-1.0445688086	 1.6644401043	 0.6575172023	 0.118334
H	-0.6404182755	-0.4358561858	-0.6288395355	 0.079032
H	 1.3479858954	-0.8693479182	-1.8099422732	 0.104503
H	 2.2016627667	 0.5263035636	-1.1243706762	 0.096812
H	 2.3691909006	-0.8472454919	 2.4263803929	 0.14233
H	 2.3357894844	 0.7163188512	 1.4647471	 0.108887
H	 0.0369873126	-1.3916071874	 1.6660628209	 0.102628
H	 3.5630870743	-2.4949592079	-1.573287181	 0.136133
H	 3.3531718098	-4.1219674137	-0.8551849411	 0.139633
H	 1.9889551395	-3.2789067666	-1.6361935805	 0.137864
59.1606	114.0383	152.2475	164.0526	223.2712	248.1133	298.7955	373.4714	399.8872	470.142	529.6695	590.4492	621.2535	688.325	781.3027	828.637	858.1415	886.3255	936.9943	953.9494	973.0544	997.6662	1022.3706	1048.7596	1082.4828	1087.2264	1098.8764	1131.6573	1153.5252	1196.5784	1227.2951	1251.7923	1288.6387	1321.6861	1367.6903	1374.7623	1397.1025	1415.3773	1462.7458	1472.5092	1476.6741	1493.2797	1496.8949	1498.7891	1774.0279	3029.5712	3034.3727	3041.1112	3054.0438	3093.8352	3095.4885	3101.4358	3110.7062	3117.5724	3152.7045	3184.373	3223.0377
CC1CC2(CC12)C(C)=O	C[C@H]1C[C@]2(C[C@@H]12)C(=O)C	
InChI=1S/C8H12O/c1-5-3-8(6(2)9)4-7(5)8/h5,7H,3-4H2,1-2H3	InChI=1S/C8H12O/c1-5-3-8(6(2)9)4-7(5)8/h5,7H,3-4H2,1-2H3/t5-,7-,8-/m0/s1
