17
gdb 30195	4.75766	1.12668	0.94896	3.2074	76.18	-0.1925	0.0315	0.224	1220.1358	0.137321	-418.019301	-418.011421	-418.010476	-418.051709	30.174	
C	-0.6551770159	 1.4863069485	-0.3024317648	-0.399017
C	 0.0473612419	 0.1739266744	-0.0149470864	 0.058146
C	 0.8804410525	-0.513147807	-1.1718982931	-0.384895
C	 2.035721165	-0.402968612	-0.2002547904	 0.35028
N	 3.1854614586	-0.874528215	 0.2325793652	-0.442595
C	 3.2000869689	-0.4443468293	 1.5440632436	 0.340083
O	 4.2773423211	-0.6687624419	 2.3269395603	-0.430915
C	 2.0493071597	 0.2273330006	 1.9162996021	-0.280168
N	 1.3387965229	 0.2853696287	 0.7246187449	 0.007644
H	 0.0248284777	 2.1926195088	-0.7877047712	 0.131653
H	-1.5117764979	 1.3167145216	-0.9629539974	 0.127213
H	-1.0260630242	 1.943474418	 0.620305382	 0.130489
H	-0.6248849578	-0.539274823	 0.4730040827	 0.106412
H	 0.5616207839	-1.5301724653	-1.4123510528	 0.132161
H	 0.956035166	 0.0699661137	-2.0937560466	 0.124912
H	 4.9045694997	-1.1594308251	 1.7821019132	 0.301182
H	 1.7759940779	 0.7293974744	 2.8265386787	 0.127414
73.217	180.2076	219.8318	261.42	306.6054	373.182	382.3878	408.8489	534.5673	603.0338	651.6664	677.6041	724.6584	739.7997	816.9748	875.7465	914.5517	997.79	1031.5045	1058.9368	1097.8022	1116.6902	1134.4885	1175.0763	1220.171	1233.5009	1242.4509	1328.2022	1362.3031	1408.2121	1416.3624	1447.8548	1482.4823	1487.0627	1496.0973	1567.7179	1626.5702	3037.9433	3057.7383	3063.0871	3109.4201	3114.781	3119.7187	3295.4758	3803.2409
CC1CC2=NC(O)=CN12	C[C@H]1Cc2nc(O)cn12	
InChI=1S/C6H8N2O/c1-4-2-5-7-6(9)3-8(4)5/h3-4,9H,2H2,1H3	InChI=1S/C6H8N2O/c1-4-2-5-7-6(9)3-8(4)5/h3-4,9H,2H2,1H3/t4-/m0/s1
