15
gdb 55496	5.74926	0.55303	0.52339	4.6736	74.67	-0.2584	0.0158	0.2742	1988.6281	0.110484	-416.823242	-416.813066	-416.812122	-416.862174	33.689	
N	-0.1635830463	 1.3512811	-0.2883501843	-0.527108
C	 0.1072426414	 0.0332853425	-0.0573245642	 0.4284
O	 1.2169051355	-0.4405370455	-0.1429051723	-0.334735
C	-1.1326650197	-0.7760481331	 0.3809546791	-0.496788
C	-0.9431388406	-2.2129802242	 0.2859221406	 0.112446
C	-0.7964410046	-3.4018608129	 0.2043606393	 0.110477
C	-0.5903566797	-4.84362263	 0.1000607485	-0.472721
C	-1.7541791936	-5.5536288475	-0.4480811422	 0.277464
N	-2.6635583956	-6.121645374	-0.8763163564	-0.302474
H	 0.5910002243	 1.9381149243	-0.6047332021	 0.266943
H	-1.1005931551	 1.7116222093	-0.3308093316	 0.261759
H	-1.3579617251	-0.49021811	 1.4175113936	 0.16305
H	-2.0040125503	-0.4707616635	-0.2123749324	 0.144404
H	 0.2756365872	-5.0587616936	-0.5391436196	 0.187422
H	-0.3591250678	-5.2739383818	 1.0829859438	 0.181459
9.6464	19.9012	69.4835	106.0748	169.691	206.3825	286.9648	352.5239	370.6737	380.8665	430.4978	496.0298	553.8941	616.1466	658.1134	809.2721	843.8811	932.0768	935.6353	949.7152	1089.6527	1172.5074	1219.9962	1232.401	1274.4027	1336.5393	1375.3015	1447.7533	1450.3608	1620.0675	1820.8738	2370.8088	2394.9468	3018.5993	3026.3332	3051.5292	3056.6263	3603.3682	3737.2946
NC(=O)CC#CCC#N	NC(=O)CC#CCC#N	
InChI=1S/C6H6N2O/c7-5-3-1-2-4-6(8)9/h3-4H2,(H2,8,9)	InChI=1S/C6H6N2O/c7-5-3-1-2-4-6(8)9/h3-4H2,(H2,8,9)
