16
gdb 37557	4.24136	1.6428	1.37872	2.5821	75.81	-0.2272	0.0256	0.2529	921.2834	0.125888	-400.610406	-400.604169	-400.603225	-400.64081	25.869	
C	-0.0224217653	 1.5048975575	 0.1969864181	-0.12038
O	 1.3238490792	 1.9125292148	-0.1978190311	-0.322174
C	 1.9447441664	 0.7728450048	-0.6423444623	 0.40637
C	 2.6236581095	 0.2488805792	-1.9800356873	-0.104685
N	 4.0047067057	 0.4163403873	-1.4402109773	-0.332569
C	 3.2270972111	-0.0889199998	-0.2711158744	-0.104685
C	 2.2741091521	-1.0498455205	-1.1189361299	-0.245452
C	 1.0456988627	-0.3800926689	-0.5527813878	 0.367655
C	-0.1263177695	-0.0072940928	-0.0652391344	-0.377943
H	-0.162852499	 1.7639524526	 1.2550687938	 0.117023
H	-0.7437765388	 2.0891478194	-0.3900977757	 0.117023
H	 2.3390105952	 0.4398978422	-3.0147246792	 0.095916
H	 4.6137418448	-0.3231007984	-1.8014329537	 0.209564
H	 3.6542570483	-0.2963656872	 0.7100028893	 0.095916
H	 2.4814208837	-2.0808505465	-1.3959371595	 0.09187
H	-1.026337646	-0.5702517836	 0.1412892015	 0.10655
142.1081	273.0002	333.2974	335.2924	582.2793	603.6345	644.8535	690.9441	706.2192	786.4596	802.711	843.8216	862.0742	891.3367	900.6715	910.61	945.0231	993.2084	999.3055	1022.2895	1054.3193	1082.4984	1083.6124	1133.6042	1148.5074	1183.1796	1186.8739	1207.337	1240.9977	1285.895	1301.7299	1324.8704	1415.8463	1515.6538	1760.771	3006.6163	3036.9889	3118.3872	3122.5661	3153.4397	3223.1581	3402.5405
C1OC23C4NC2C4C3=C1	C1O[C@@]23[C@H]4N[C@@H]2[C@H]4C3=C1	
InChI=1S/C7H7NO/c1-2-9-7-3(1)4-5(7)8-6(4)7/h1,4-6,8H,2H2	InChI=1S/C7H7NO/c1-2-9-7-3(1)4-5(7)8-6(4)7/h1,4-6,8H,2H2/t4-,5-,6+,7-
