16
gdb 129237	3.21456	1.40122	1.05844	0.9471	73.36	-0.2111	-0.0177	0.1934	1112.2048	0.125488	-430.198768	-430.190817	-430.189873	-430.232417	29.351	
N	-0.1170838246	 1.3177377311	-0.2637133568	-0.60348
C	-0.0012954712	 0.0621605909	-0.0626913638	 0.490047
N	 1.0605574024	-0.8280182518	-0.0111665001	-0.323228
N	 0.6527004384	-2.1068460915	 0.2423602949	-0.075662
N	-0.6096303553	-2.0864290403	 0.356145917	-0.118448
N	-1.0497524059	-0.8150475109	 0.1826055554	-0.052634
C	-2.4339534108	-0.4521344417	 0.249992773	 0.07272
C	-3.4898852476	-1.3893940435	-0.2643046171	-0.281178
C	-3.351865701	-1.1388031171	 1.221530048	-0.281177
H	 0.781652874	 1.7631632616	-0.4222767856	 0.213714
H	 2.0381365673	-0.633183537	-0.1348218386	 0.282737
H	-2.5283094219	 0.6125344681	 0.0792172292	 0.148021
H	-4.3305748725	-0.9602313145	-0.7973625252	 0.124228
H	-3.1527041571	-2.3510059135	-0.633416652	 0.140058
H	-2.9251564731	-1.9377881796	 1.8166526508	 0.140056
H	-4.0960332611	-0.5343699003	 1.727463201	 0.124227
26.8444	125.5229	174.0447	193.6601	316.0618	357.8693	433.0367	530.8225	623.0312	666.8709	692.1003	716.8795	764.4919	792.7781	816.7291	909.6273	951.4327	981.1793	1025.8736	1065.5551	1077.8246	1083.4633	1099.1392	1133.7958	1183.9739	1199.3843	1226.5545	1269.248	1369.7044	1399.9784	1454.2934	1455.787	1492.5654	1513.9926	1755.7567	3141.7859	3143.6672	3208.9401	3227.7657	3241.3127	3539.8932	3699.6868
N=C1NN=NN1C1CC1	[NH][C@@H]1NN=NN1C1CC1	
InChI=1S/C4H7N5/c5-4-6-7-8-9(4)3-1-2-3/h3H,1-2H2,(H2,5,6,8)	InChI=1S/C4H8N5/c5-4-6-7-8-9(4)3-1-2-3/h3-5H,1-2H2,(H,6,8)/t4-/m1/s1
