17
gdb 32565	2.03346	1.88101	1.05452	3.8539	71.53	-0.181	0.0433	0.2243	1123.078	0.135574	-455.164243	-455.155267	-455.154323	-455.198391	32.945	
C	 0.0367329228	 1.5695240531	 0.0123215722	-0.381823
C	-0.0293593028	 0.0435545946	 0.1018774621	-0.147888
N	 0.6780265579	-0.4868325162	 1.2568535306	-0.139277
C	 2.0474513397	-0.6839469576	 1.2989006714	 0.475978
N	 2.8503113193	-0.4489297254	 0.3426495863	-0.620545
O	 2.34351332	-1.1708910075	 2.545778999	-0.22497
C	 1.1505914355	-1.2588938792	 3.2757677923	-0.218783
C	 0.1493381684	-0.8396131761	 2.4893386247	 0.353967
O	-1.1820272933	-0.7100175726	 2.6558325069	-0.428518
H	 1.0775111884	 1.8960887903	-0.0492430062	 0.151829
H	-0.488538584	 1.9153366444	-0.8834505013	 0.116653
H	-0.4306686139	 2.0348658629	 0.8853275494	 0.120558
H	-1.0640710011	-0.301978856	 0.1648426218	 0.125142
H	 0.432422421	-0.4058685099	-0.781550691	 0.142325
H	 3.8020594434	-0.6876252681	 0.6071753292	 0.222573
H	 1.2105104446	-1.6226879248	 4.2839889781	 0.137509
H	-1.4202961958	-1.0155891919	 3.5371257545	 0.31527
49.5605	83.1048	163.7744	214.9369	260.9988	300.4944	320.9396	351.3492	413.4084	536.1123	563.4161	604.2106	623.5081	714.913	717.3309	744.9399	771.9875	791.2762	957.6497	998.4573	1047.9056	1085.5307	1105.6402	1159.1486	1209.2039	1234.615	1276.4889	1346.8142	1391.6368	1394.4677	1412.1503	1469.2042	1491.6345	1505.947	1531.48	1721.1887	1775.6241	3043.3951	3066.9079	3109.1599	3118.0386	3138.6108	3311.4588	3542.9781	3838.3491
CCN1C(=N)OC=C1O	CCN1[C@H]([NH])OC=C1O	
InChI=1S/C5H8N2O2/c1-2-7-4(8)3-9-5(7)6/h3,6,8H,2H2,1H3	InChI=1S/C5H9N2O2/c1-2-7-4(8)3-9-5(7)6/h3,5-6,8H,2H2,1H3/t5-/m0/s1
