16
gdb 123577	3.96853	1.62268	1.25704	1.0815	74.17	-0.2139	0.0192	0.2331	960.4199	0.128769	-396.916825	-396.910489	-396.909545	-396.947299	26.015	
C	 0.0492467524	 1.4797165755	-0.0101711572	-0.247819
C	 1.2832858961	 0.6593179817	 0.0463985738	-0.020136
C	 1.9454778733	 0.3664240987	 1.4098320978	-0.37561
C	 0.8311107618	-0.3683791326	 2.1017703123	 0.327766
N	 0.6243752127	-0.9020408245	 3.29533977	-0.328129
N	-0.6190164043	-1.4290328138	 3.1769186089	-0.190239
C	-1.1938217101	-1.2459247935	 1.9471683788	-0.20017
C	-0.2553411419	-0.5457333035	 1.2292507636	 0.236119
N	-0.0658873473	 0.0000850471	-0.0696796998	-0.202904
H	-0.289217607	 1.9658069363	 0.9016302549	 0.120939
H	-0.2142076097	 1.9914620456	-0.9312401744	 0.119184
H	 1.9021993261	 0.5902635763	-0.8419575741	 0.09906
H	 2.8380812621	-0.2553623712	 1.2786677675	 0.125467
H	 2.2594085207	 1.2787647522	 1.9277364299	 0.126758
H	-1.0115830325	-1.9178127366	 3.9628305732	 0.273036
H	-2.1795281425	-1.6175415776	 1.7205051649	 0.136675
170.3036	234.1878	347.9279	434.8316	447.0764	467.9056	619.2987	656.4512	691.0304	722.8713	753.1237	778.6131	787.6245	832.2813	912.5626	963.6639	971.0678	1046.8926	1057.5383	1085.6147	1102.6983	1114.8714	1167.5592	1175.0012	1184.2959	1251.9853	1287.0625	1313.0167	1371.1755	1438.9755	1466.0815	1485.6297	1496.5896	1515.7636	1632.1759	3041.3471	3075.1584	3106.5714	3165.0027	3198.0478	3271.1195	3681.8958
C1C2CC3=NNC=C3N12	C1[C@H]2Cc3n[nH]cc3N12	
InChI=1S/C6H7N3/c1-4-3-9(4)6-2-7-8-5(1)6/h2,4H,1,3H2,(H,7,8)	InChI=1S/C6H7N3/c1-4-3-9(4)6-2-7-8-5(1)6/h2,4H,1,3H2,(H,7,8)/t4-,9?/m1/s1
