21
gdb 59700	2.07935	1.38868	0.927	1.288	79.17	-0.248	-0.0344	0.2136	1313.009	0.180225	-424.221202	-424.211249	-424.210305	-424.256825	35.647	
C	-0.086050717	 1.5043430639	-0.1407303138	-0.398967
C	 0.0444738384	-0.0132510894	 0.0483999282	 0.003225
C	 0.8178445781	-0.3648151104	 1.3271521633	-0.406285
C	-1.3421265125	-0.6447780125	 0.0744488706	 0.155503
O	-2.1165834179	-0.395023312	-1.1216717926	-0.289477
C	-2.5499566898	-1.764643194	-1.1740461943	-0.09439
C	-1.5428338367	-2.1913200706	-0.0824161319	-0.173007
C	-0.3529482386	-2.9489123232	-0.6113426672	 0.16617
O	 0.2381988892	-3.8026231136	-0.000195414	-0.258931
H	 0.9007964819	 1.9709047425	-0.2187197396	 0.112964
H	-0.6520387169	 1.7375273291	-1.0460577026	 0.137394
H	-0.6046896437	 1.9603718929	 0.7111248456	 0.112702
H	 0.5865954133	-0.4161001759	-0.8168906043	 0.07689
H	 0.2998589292	 0.0186369677	 2.21416471	 0.115178
H	 0.9411772752	-1.4451611516	 1.4491368099	 0.135831
H	 1.814930685	 0.0853069887	 1.3072518838	 0.119688
H	-1.8863621075	-0.280189119	 0.9605222303	 0.078511
H	-3.599844659	-1.8817688834	-0.877394632	 0.109677
H	-2.4081514996	-2.2021748904	-2.1699525592	 0.110173
H	-1.935651078	-2.7062505132	 0.7943955092	 0.100636
H	-0.043675983	-2.6677090755	-1.6446836392	 0.086518
49.9707	67.1033	101.0949	169.7874	222.5399	227.9204	251.6431	303.2777	328.2124	386.6292	437.664	478.3592	494.6344	775.3497	849.0985	875.4978	887.1361	934.0206	955.2119	974.1764	991.2454	1017.4855	1040.4383	1079.8978	1120.5402	1137.5162	1177.6049	1184.7008	1205.0707	1224.2095	1272.4376	1309.8302	1324.989	1344.0878	1357.2236	1399.3132	1408.4403	1425.5329	1432.2086	1490.112	1492.087	1504.583	1513.9326	1522.0071	1824.153	2863.2747	2969.9816	3013.3047	3024.0713	3029.7681	3034.6986	3056.454	3095.2811	3100.5657	3112.3818	3117.6276	3123.3453
CC(C)C1OCC1C=O	CC(C)[C@H]1OC[C@H]1C=O	
InChI=1S/C7H12O2/c1-5(2)7-6(3-8)4-9-7/h3,5-7H,4H2,1-2H3	InChI=1S/C7H12O2/c1-5(2)7-6(3-8)4-9-7/h3,5-7H,4H2,1-2H3/t6-,7-/m1/s1
