18
gdb 41290	2.95992	2.03237	1.86574	1.081	74.1	-0.2188	0.0571	0.2759	837.9371	0.150401	-401.830633	-401.824567	-401.823623	-401.860528	26.664	
C	-0.0382962739	 1.5255245356	 0.0189568047	-0.227179
O	 1.434213505	 1.5125235696	 0.0937128186	-0.354963
C	 1.3834867845	 0.1041686406	 0.3657290169	 0.386308
C	 0.9665793186	-0.4006660992	 1.7716930167	-0.222839
N	-0.144343034	-1.1224272401	 1.0585324321	-0.198039
C	 0.5873887656	-1.8760458288	-0.1203935184	 0.007815
C	-0.2859415734	-1.062995637	-1.1080496292	-0.298796
C	-0.0829214726	-0.0213981592	-0.0309167449	 0.254333
C	 1.9870282061	-1.153793194	-0.2553260518	-0.319252
H	-0.4846402682	 2.0087273867	 0.8940794904	 0.120351
H	-0.3794063345	 2.0232203924	-0.8936043849	 0.122892
H	 1.6544294587	-1.0297949568	 2.3440732789	 0.097008
H	 0.54549868	 0.3745003472	 2.4150616571	 0.113726
H	 0.5560473895	-2.9627585241	-0.0624169345	 0.083579
H	 0.098947729	-0.8875184369	-2.1152788223	 0.104184
H	-1.3169521559	-1.4235414577	-1.1369940715	 0.115769
H	 2.2831289691	-1.0607047144	-1.3017661978	 0.112671
H	 2.7989505565	-1.6092831342	 0.3154405299	 0.102431
267.216	325.0527	377.9884	436.842	474.9659	521.9235	588.9807	657.3273	702.6237	759.1303	798.2801	823.0063	839.2606	898.3454	910.911	927.0909	947.5391	965.5004	998.3983	1004.1262	1044.7918	1073.9653	1119.8599	1130.81	1142.2181	1159.5432	1175.4729	1199.8948	1219.577	1224.3687	1244.7229	1278.5323	1297.2621	1300.1395	1346.0693	1480.7536	1490.6861	1501.2671	1517.652	3041.0177	3056.7348	3064.5661	3073.7627	3097.4509	3122.3476	3124.7796	3129.2394	3136.3547
C1OC23CN4C(CC124)C3	C1O[C@@]23CN4[C@@H](C[C@]124)C3	
InChI=1S/C7H9NO/c1-5-2-7-3-8(5)6(1,7)4-9-7/h5H,1-4H2	InChI=1S/C7H9NO/c1-5-2-7-3-8(5)6(1,7)4-9-7/h5H,1-4H2/t5-,6-,7-/m0/s1
