24
gdb 5886	3.8982	0.84759	0.8354	1.3123	81.91	-0.2616	0.075	0.3366	1526.604	0.220633	-351.414616	-351.403808	-351.402864	-351.450229	39.526	
C	-0.0873942681	 1.5610312535	 0.092961209	-0.400402
C	 0.0101245551	 0.0249640165	 0.0454600053	 0.265142
C	 0.6790956226	-0.4904582865	 1.3331361891	-0.400402
C	-1.4126650462	-0.5591354615	-0.041363726	-0.401499
C	 0.7913742093	-0.4417543977	-1.209393436	-0.186427
C	 2.2458569267	 0.0260396692	-1.3343810165	-0.188389
C	 2.9096182465	-0.4941693902	-2.6034279293	-0.070198
O	 4.2450338197	-0.0112069948	-2.6308779695	-0.422678
H	 0.8938678997	 2.0312332144	 0.2081439568	 0.114284
H	-0.5441805385	 1.956716221	-0.8213920713	 0.105594
H	-0.7057344078	 1.8825813572	 0.9382915574	 0.106803
H	 0.0812780262	-0.224298763	 2.2118267086	 0.106802
H	 0.7781041586	-1.5818892458	 1.3176939483	 0.105591
H	 1.6771396169	-0.0652367016	 1.4757419765	 0.114283
H	-1.9299533653	-0.211290377	-0.9425789678	 0.105893
H	-1.3908142515	-1.654336496	-0.0702386134	 0.105892
H	-2.0138941084	-0.2604025881	 0.8244033891	 0.106039
H	 0.7699021469	-1.5405458966	-1.2342868514	 0.086033
H	 0.2358926403	-0.1110153166	-2.0984767851	 0.086047
H	 2.3056761782	 1.1198552397	-1.3460509508	 0.107216
H	 2.840847928	-0.3122968944	-0.4790098029	 0.107202
H	 2.8849099112	-1.5966416055	-2.6114339194	 0.081663
H	 2.3444347646	-0.1518985119	-3.4863507796	 0.081657
H	 4.6665599453	-0.3387781945	-3.4305397013	 0.283857
59.725	81.5805	129.4711	143.2223	227.0151	259.2818	266.2128	271.2871	288.7884	299.5165	327.3689	381.1391	407.4809	472.8353	504.6324	747.809	755.7381	861.1506	911.0185	934.1997	936.9029	954.7688	1006.422	1010.3889	1044.4672	1066.3166	1085.63	1108.492	1205.8458	1205.9483	1254.0125	1264.4962	1273.8925	1315.203	1317.8011	1341.1723	1390.4924	1394.7105	1397.8049	1428.8887	1460.9913	1475.9696	1479.9059	1487.4663	1488.1051	1500.6919	1506.3981	1507.2494	1518.0323	1528.9963	2955.1806	2980.1523	2996.8266	3019.5152	3023.2448	3029.1638	3030.6765	3043.4905	3085.6325	3086.826	3087.3751	3091.6699	3094.7989	3101.0303	3104.0473	3830.14
CC(C)(C)CCCO	CC(C)(C)CCCO	
InChI=1S/C7H16O/c1-7(2,3)5-4-6-8/h8H,4-6H2,1-3H3	InChI=1S/C7H16O/c1-7(2,3)5-4-6-8/h8H,4-6H2,1-3H3
