20
gdb 16418	3.16269	2.16869	1.80018	1.6605	73.15	-0.2346	0.0808	0.3154	847.7946	0.179846	-349.004428	-348.997428	-348.996484	-349.035177	28.459	
C	-0.2425198323	 1.5295311619	 0.1086039056	-0.393873
C	 0.0224021719	 0.0235345215	-0.002855209	 0.030504
C	 0.8384302506	-0.3593563785	-1.2747449297	-0.229131
C	 2.3627186497	-0.4658539981	-1.0065499051	-0.200284
C	 2.6007821369	-0.8750960836	 0.4458948218	 0.103538
C	 1.502825485	-1.8203424343	 0.9817460738	-0.264992
C	 0.7799876812	-0.4813275632	 1.2333273414	 0.099054
O	 2.072174939	 0.1920319125	 1.287549182	-0.296497
H	 0.69985288	 2.0781904159	 0.1882528564	 0.133553
H	-0.7874172126	 1.8975459848	-0.7664291788	 0.106232
H	-0.8399624688	 1.7618646966	 0.9974736656	 0.106736
H	-0.9437411421	-0.4977729751	-0.0439043025	 0.065432
H	 0.4821663845	-1.3282611135	-1.6393823486	 0.099241
H	 0.6405267959	 0.3541262703	-2.0806947037	 0.095188
H	 2.8204188794	-1.1838151385	-1.6975386011	 0.090945
H	 2.863469487	 0.4958740136	-1.1613227093	 0.109571
H	 3.6481662897	-1.0955003019	 0.6706132097	 0.071557
H	 1.0508992766	-2.5499108703	 0.3062698479	 0.096968
H	 1.8019347598	-2.3015297843	 1.9139889639	 0.107602
H	 0.2121258684	-0.3490774858	 2.1597811696	 0.068659
140.182	219.9084	238.8942	341.101	375.3478	421.8733	442.9362	548.9503	662.3057	745.0097	798.5439	828.5844	881.5353	888.8526	915.32	932.6099	961.5899	966.879	1012.527	1030.426	1054.7836	1071.9888	1108.0904	1129.5032	1152.4616	1198.3049	1221.7173	1248.5786	1262.0934	1308.1107	1319.2454	1337.4158	1351.3163	1358.2992	1374.8187	1386.7341	1406.5869	1477.8215	1486.3783	1493.4344	1506.8616	1509.6953	3007.4838	3031.265	3032.3653	3045.7786	3057.3325	3067.0409	3068.9386	3078.0166	3086.9647	3095.6425	3120.6625	3134.3783
CC1CCC2CC1O2	C[C@H]1CC[C@@H]2C[C@H]1O2	
InChI=1S/C7H12O/c1-5-2-3-6-4-7(5)8-6/h5-7H,2-4H2,1H3	InChI=1S/C7H12O/c1-5-2-3-6-4-7(5)8-6/h5-7H,2-4H2,1H3/t5-,6+,7+/m0/s1
