25
gdb 57531	3.17779	0.86589	0.8237	2.0196	88.33	-0.2408	0.0628	0.3037	1562.6267	0.227253	-389.478775	-389.468224	-389.467279	-389.514556	39.483	
C	-0.1678456735	 1.5623417874	 0.1214116669	-0.402516
C	-0.0261056351	 0.0303119281	 0.0479806204	 0.263408
C	 0.6582381998	-0.4818094775	 1.32869064	-0.400279
C	-1.4318359117	-0.5915257077	-0.0519134658	-0.40382
C	 0.7696752408	-0.3875486457	-1.2155959925	-0.216607
C	 2.2275895515	 0.0538597629	-1.3037360716	-0.034403
C	 3.3272430541	-0.7770046478	-0.596966867	-0.080573
O	 4.0670595947	-0.9301041105	-1.8239506576	-0.274253
C	 3.003167201	-0.3272173851	-2.5868349066	-0.08857
H	 0.7992416545	 2.0603092135	 0.2425655988	 0.112026
H	-0.6401449201	 1.960139199	-0.7837463301	 0.108151
H	-0.7904095879	 1.8502782736	 0.9754070883	 0.11
H	 0.0607242813	-0.2304441797	 2.2118776086	 0.108321
H	 0.7782887132	-1.570558125	 1.3096237905	 0.109527
H	 1.6481050052	-0.0351128206	 1.4675031542	 0.115159
H	-1.9546971521	-0.2469894906	-0.9511165079	 0.10818
H	-1.3796325282	-1.685067172	-0.0941914075	 0.108754
H	-2.0443434701	-0.3197663972	 0.8147175875	 0.107816
H	 0.7325362834	-1.4819949068	-1.3102340942	 0.090223
H	 0.2394598605	 0.0070407027	-2.0941614023	 0.092041
H	 2.3270628888	 1.1202448815	-1.0864698515	 0.081085
H	 3.9166475327	-0.2723191714	 0.1777429031	 0.099967
H	 2.9827779251	-1.7445718627	-0.206240621	 0.094625
H	 2.4884382484	-1.0618986616	-3.2233253225	 0.092242
H	 3.3611395836	 0.4963798032	-3.2159808702	 0.099497
49.5074	81.3159	105.0601	169.3012	222.116	255.8746	282.3914	296.7635	302.8256	329.463	377.3672	415.0331	441.0656	484.6982	738.0102	757.9333	859.3059	883.0683	895.9738	920.794	936.4488	938.5185	958.6784	995.5373	1002.0158	1031.3353	1038.5424	1074.4729	1107.3155	1138.6336	1161.1453	1168.4755	1217.1651	1234.9008	1269.9052	1273.8181	1308.7574	1310.426	1342.3057	1377.8742	1398.1675	1399.9633	1405.4111	1432.1362	1475.8541	1481.2326	1486.6027	1487.8333	1507.9351	1508.3626	1510.9114	1518.4117	1536.8184	2988.8988	2997.6725	3004.9302	3021.6802	3024.738	3032.1187	3032.9867	3045.4851	3048.9713	3079.9272	3089.6395	3090.3137	3093.1827	3097.4535	3097.8775	3102.8268
CC(C)(C)CC1COC1	CC(C)(C)CC1COC1	
InChI=1S/C8H16O/c1-8(2,3)4-7-5-9-6-7/h7H,4-6H2,1-3H3	InChI=1S/C8H16O/c1-8(2,3)4-7-5-9-6-7/h7H,4-6H2,1-3H3
