20
gdb 63149	2.38243	1.61834	1.34363	3.4929	78.96	-0.2336	0.0024	0.2361	1073.6225	0.170733	-403.147632	-403.138834	-403.13789	-403.180789	33.33	
C	-0.3061149587	 1.6063720722	 0.0673446544	-0.442728
C	-0.0852140819	 0.1001750464	-0.0198445114	 0.157547
C	-1.3877675159	-0.6733795124	 0.2156394513	-0.445859
C	 0.7431759513	-0.4907171688	-1.2063843427	-0.010468
C	 1.9596253879	 0.2641185088	-1.8175670934	-0.269173
C	 2.8781909001	-0.5741931668	-0.8782098817	-0.182315
N	 1.6662879169	-1.1682856507	-0.2225150312	-0.143554
C	 1.10295277	-0.4148280105	 0.8394619829	 0.353677
O	 1.5172343168	-0.1853427121	 1.9401947816	-0.335922
H	 0.6130986315	 2.1739171462	-0.1002152052	 0.120995
H	-1.0499136759	 1.9329251714	-0.6675925006	 0.117507
H	-0.6734606364	 1.8697689434	 1.0638783933	 0.138112
H	-2.1435809976	-0.3857230822	-0.5237553442	 0.117952
H	-1.2311416364	-1.7536494079	 0.142201323	 0.130551
H	-1.7866274119	-0.4560003386	 1.2112234027	 0.132357
H	 0.1978279461	-1.1453813469	-1.8906327166	 0.079638
H	 2.1081493136	 0.1027944649	-2.8868031589	 0.114035
H	 1.9788766279	 1.3386627387	-1.622747776	 0.116191
H	 3.4721160508	-1.3367877291	-1.3871279253	 0.119558
H	 3.5164973317	-0.028371656	-0.1791214317	 0.131899
88.3074	166.9502	179.5978	217.2354	227.8775	249.3409	282.1621	323.7182	405.7621	521.432	620.3954	711.0628	731.9406	757.8321	782.8836	852.4662	892.5818	943.8102	961.0612	965.9526	991.8113	1015.2992	1028.0864	1062.697	1121.7458	1183.3368	1185.9266	1198.4804	1227.9073	1239.1011	1258.3427	1278.5079	1307.7683	1342.5876	1397.0164	1419.2736	1475.9851	1481.9931	1490.0145	1501.1856	1506.5102	1510.5326	1876.7259	3029.9765	3036.4565	3064.2244	3072.6556	3078.0573	3099.88	3105.8662	3111.6061	3113.1574	3114.7757	3133.1114
CC1(C)C2CCN2C1=O	CC1(C)[C@H]2CCN2C1=O	
InChI=1S/C7H11NO/c1-7(2)5-3-4-8(5)6(7)9/h5H,3-4H2,1-2H3	InChI=1S/C7H11NO/c1-7(2)5-3-4-8(5)6(7)9/h5H,3-4H2,1-2H3/t5-/m1/s1
