18
gdb 82419	2.56224	1.79726	1.21011	4.7837	72.44	-0.2318	0.0473	0.279	1038.6968	0.149196	-439.114559	-439.106486	-439.105542	-439.147391	30.266	
C	-0.0702434139	 1.400516086	-0.122475374	-0.340921
N	 0.0128238409	-0.0276848963	 0.1503376985	-0.145302
C	-1.2151189329	-0.7760854836	 0.0799269352	 0.038493
C	-1.4282434095	-1.8223275142	-0.9968390549	-0.318605
C	-1.1483904551	-2.2244601898	 0.4341211646	-0.066598
C	 0.2292643314	-2.6889348769	 0.8344349333	-0.100724
O	 1.2630061144	-1.9899901377	 0.1353856682	-0.252146
C	 1.246670691	-0.6264824241	 0.0463632639	 0.456977
O	 2.2791283299	-0.0323454314	-0.1472586995	-0.390945
H	 0.9058720565	 1.8436055044	 0.0648736967	 0.169118
H	-0.3545765112	 1.5998323385	-1.1641687314	 0.125979
H	-0.8160705978	 1.8567864922	 0.5364337604	 0.120546
H	-2.0665454355	-0.1880673689	 0.4043915081	 0.102975
H	-2.431758986	-1.9693774104	-1.3799326575	 0.119384
H	-0.6343420671	-1.9555417697	-1.7234584354	 0.13904
H	-1.9588229755	-2.6507809331	 1.0170591476	 0.099845
H	 0.3667415888	-2.5500940047	 1.9157707722	 0.11632
H	 0.3958891415	-3.7449992602	 0.6041882441	 0.126564
99.2377	108.4454	138.1996	217.0542	302.4043	349.1299	400.0164	465.4545	531.4091	581.991	676.9602	749.4295	776.3258	782.5895	834.4333	922.4129	963.8112	993.9544	1037.2928	1059.0687	1095.2166	1120.1144	1129.1627	1133.4784	1155.159	1167.1252	1205.3899	1251.8624	1285.9502	1353.7094	1379.6581	1425.1496	1430.0903	1459.7502	1489.5702	1499.2623	1512.3003	1522.7338	1822.5645	3012.3963	3016.1376	3078.5957	3086.4168	3137.7337	3157.5012	3169.2675	3173.6099	3229.8872
CN1C2CC2COC1=O	CN1[C@H]2C[C@H]2COC1=O	
InChI=1S/C6H9NO2/c1-7-5-2-4(5)3-9-6(7)8/h4-5H,2-3H2,1H3	InChI=1S/C6H9NO2/c1-7-5-2-4(5)3-9-6(7)8/h4-5H,2-3H2,1H3/t4-,5-/m0/s1
