19
gdb 97863	3.38664	0.76921	0.73734	1.9505	79.8	-0.2497	0.0271	0.2767	1619.5744	0.159299	-422.992168	-422.982557	-422.981613	-423.029538	33.21	
O	 0.1937028118	 0.7644030205	-0.9880671206	-0.401707
C	-0.1061262694	 0.01031369	 0.1792397585	-0.193507
C	-1.4694997159	-0.517921238	 0.2025290847	 0.003335
C	-2.6068267693	-0.917913919	 0.210400665	 0.117493
C	-3.9819279048	-1.4357166093	 0.2066768249	-0.074168
C	-4.8025283996	-0.9147111724	-0.9901142285	-0.215403
C	-4.3776081262	-1.8877920912	-2.1020106512	-0.237382
C	-4.074500146	-3.1902300321	-1.328105649	-0.061737
O	-4.0215699137	-2.8540846214	 0.064016842	-0.249467
H	-0.4870880393	 1.4395211208	-1.0758168127	 0.286007
H	 0.614289107	-0.8151638459	 0.1924122887	 0.143346
H	 0.0720452925	 0.5993547031	 1.0931692745	 0.118561
H	-4.4586308069	-1.2058295883	 1.165578698	 0.107539
H	-5.8660307074	-1.0238514765	-0.7572760524	 0.108224
H	-4.6013892043	 0.1318384888	-1.2251063141	 0.109596
H	-5.150268558	-2.0239563011	-2.861677583	 0.107282
H	-3.4772343676	-1.5201571858	-2.6009817172	 0.121234
H	-4.8601921386	-3.9439865385	-1.4510718026	 0.105359
H	-3.1228896144	-3.6357622336	-1.642376195	 0.105394
19.2155	34.806	70.1766	110.574	170.2439	231.3069	301.3523	345.9505	401.6177	539.8101	561.4958	650.9877	709.5756	796.9671	852.5241	892.75	921.3585	921.9438	948.5307	984.6058	1029.3349	1044.7436	1081.9845	1090.6606	1146.7919	1199.6918	1209.3887	1214.1133	1249.546	1286.0881	1321.8282	1336.6025	1356.9582	1365.2552	1390.7122	1416.8044	1482.5169	1490.2794	1497.0264	1529.6832	2350.7919	2976.8165	3023.9988	3049.8341	3058.9271	3063.2363	3064.4672	3070.7072	3114.4928	3127.3645	3817.6636
OCC#CC1CCCO1	OCC#C[C@H]1CCCO1	
InChI=1S/C7H10O2/c8-5-1-3-7-4-2-6-9-7/h7-8H,2,4-6H2	InChI=1S/C7H10O2/c8-5-1-3-7-4-2-6-9-7/h7-8H,2,4-6H2/t7-/m0/s1
