15
gdb 18222	4.96468	1.67384	1.35917	3.6579	69.76	-0.2134	-0.01	0.2034	881.5588	0.120558	-362.680028	-362.673555	-362.672611	-362.71069	25.018	
O	-0.0848303739	-0.0166693553	 0.0288949011	-0.326479
C	-0.0083362115	 1.1925105591	 0.0435554234	 0.143429
N	 1.1602889205	 1.8999435315	-0.0262714529	-0.039548
C	 2.4448113234	 1.3317825175	-0.0699299169	-0.017061
C	 3.3961512727	 2.2728506856	-0.0083427997	-0.163496
C	 2.7736753199	 3.6272533981	 0.0238311479	-0.095418
C	 1.9332108972	 4.0043903553	-1.1870871146	-0.302441
C	 1.2754224472	 3.340142558	-0.0067157446	-0.008071
H	-0.8869588537	 1.8618210713	 0.1136415223	 0.077009
H	 2.5183821601	 0.2585158285	-0.1515758986	 0.155918
H	 4.459845737	 2.0865893787	 0.0041350085	 0.112706
H	 3.2013970676	 4.4165459956	 0.6318030253	 0.101166
H	 1.7076483813	 5.0563323607	-1.322714723	 0.121309
H	 2.0672697703	 3.4361584304	-2.100628027	 0.126099
H	 0.542637012	 3.8691582851	 0.5901371289	 0.114879
102.4692	229.3092	262.092	362.0567	388.3275	505.4478	604.4957	717.4772	747.9677	766.2175	801.955	821.73	911.7432	923.9221	933.6919	1003.1383	1022.6871	1044.5458	1057.3178	1073.2179	1093.4742	1117.4032	1196.0822	1261.8875	1299.51	1329.0469	1357.3968	1436.4707	1442.9959	1472.0173	1650.982	1793.0536	2951.7681	3135.2077	3169.993	3185.4319	3229.2927	3241.7374	3275.124
O=CN1C=CC2CC12	O=CN1C=C[C@H]2C[C@@H]12	
InChI=1S/C6H7NO/c8-4-7-2-1-5-3-6(5)7/h1-2,4-6H,3H2	InChI=1S/C6H7NO/c8-4-7-2-1-5-3-6(5)7/h1-2,4-6H,3H2/t5-,6+/m0/s1
