17
gdb 116885	3.97723	0.57858	0.53323	3.0618	76.49	-0.2615	-0.0449	0.2166	2046.2772	0.131805	-458.914753	-458.904345	-458.9034	-458.952479	34.715	
C	 0.3571822248	 1.363352474	 0.1402104635	-0.220812
O	 0.5341749713	-0.034906446	 0.1080788762	-0.228406
C	 0.2580991341	-0.5745007525	-1.1682747498	-0.201489
C	 0.4677263512	-2.015876042	-1.159775816	-0.026604
C	 0.6417872042	-3.2064394125	-1.1907343258	 0.175424
C	 0.8456828244	-4.657799633	-1.1776827945	-0.120046
O	 2.0348780308	-5.0711340953	-1.7917621416	-0.409128
C	 0.8115340448	-5.1217984199	 0.2849255885	 0.147251
O	 1.7358507873	-5.7257607231	 0.7637114156	-0.248601
H	 1.0293718976	 1.8772025146	-0.5651292364	 0.108324
H	-0.6785982754	 1.6506243445	-0.1012819619	 0.106433
H	 0.5890702334	 1.6935475199	 1.1548489514	 0.134457
H	-0.7814312621	-0.3511281839	-1.4666637858	 0.117796
H	 0.9083799901	-0.115964067	-1.9338264702	 0.123642
H	-0.0161212269	-5.1365821233	-1.6762533935	 0.124905
H	 2.5698774332	-5.4577468929	-1.0792764443	 0.297977
H	-0.0961207627	-4.8579696516	 0.8591118248	 0.118878
25.7826	50.9951	73.4119	116.6408	130.3456	233.4534	236.1024	305.4661	321.1333	366.2017	375.6332	426.5233	526.3569	584.0955	714.5909	802.7964	880.569	979.1723	1015.0996	1025.4426	1114.1473	1147.2552	1174.329	1182.267	1220.5723	1236.0453	1253.3214	1327.6975	1388.319	1408.9178	1430.3654	1477.7793	1485.2094	1493.4826	1515.3624	1823.1732	2364.8147	2945.8745	2949.4471	2964.5852	2970.5713	2971.586	3015.5737	3124.3709	3681.0374
COCC#CC(O)C=O	COCC#C[C@@H](O)C=O	
InChI=1S/C6H8O3/c1-9-4-2-3-6(8)5-7/h5-6,8H,4H2,1H3	InChI=1S/C6H8O3/c1-9-4-2-3-6(8)5-7/h5-6,8H,4H2,1H3/t6-/m1/s1
