22
gdb 8009	2.85655	1.69937	1.42527	1.4153	77.1	-0.2563	0.0735	0.3298	1015.4536	0.200852	-350.225669	-350.216868	-350.215924	-350.258583	34.031	
C	 0.7180476373	 1.4134036801	-0.452020358	-0.394924
C	 0.0508383607	 0.1077457887	 0.0041018138	 0.007775
C	 0.2340981525	-1.0309332702	-1.0195163627	-0.218835
C	 1.6228724273	-1.6326328349	-0.7300317986	 0.129113
O	 2.5584173376	-1.0138044397	-1.6158680874	-0.432928
C	 1.9057971784	-1.2978087647	 0.7619077527	-0.249537
C	 0.6696766338	-0.5224034784	 1.2808649449	 0.056411
C	 0.9658275497	 0.4279762205	 2.4401651414	-0.416436
H	 1.7786730943	 1.2671162561	-0.6734344528	 0.130623
H	 0.2438175274	 1.7773635525	-1.3696371313	 0.108224
H	 0.6227938237	 2.2002855543	 0.3026179835	 0.105077
H	-1.0144226568	 0.3083500774	 0.1700116362	 0.057391
H	-0.5296872983	-1.7996160872	-0.8561472261	 0.089089
H	 0.1635720707	-0.7077868639	-2.0614817723	 0.103815
H	 1.6250006101	-2.7178055113	-0.9046763047	 0.059015
H	 3.4359225641	-1.3377285749	-1.388686538	 0.27787
H	 2.1066842404	-2.1907049359	 1.3622736357	 0.091241
H	 2.8016905615	-0.6680523134	 0.8125529381	 0.094247
H	-0.0570424061	-1.2660345559	 1.6371975575	 0.066274
H	 1.7150567618	 1.1771494184	 2.1641373049	 0.117547
H	 0.0634518213	 0.9594252474	 2.7623082293	 0.11016
H	 1.3523007989	-0.1204575449	 3.3061841139	 0.108788
65.3045	143.7797	224.588	229.4253	279.3003	304.647	314.3503	356.7462	415.2816	419.3734	494.4521	589.678	723.2846	763.4205	810.4893	848.0278	896.4799	924.2687	958.7493	985.8817	1004.6907	1032.7279	1056.0083	1084.1329	1095.3368	1126.3077	1180.0495	1214.2477	1228.8972	1240.362	1283.955	1298.4892	1329.4048	1342.1617	1358.9808	1379.2438	1383.3944	1410.8242	1414.3034	1423.1583	1474.8126	1485.3627	1493.6793	1497.7798	1506.3048	1509.687	2989.1693	2995.7302	3025.7207	3027.8392	3033.9892	3037.3014	3047.8078	3081.211	3090.4546	3094.9859	3101.3466	3102.2641	3121.6959	3812.3814
CC1CC(O)CC1C	C[C@H]1C[C@@H](O)C[C@H]1C	
InChI=1S/C7H14O/c1-5-3-7(8)4-6(5)2/h5-8H,3-4H2,1-2H3	InChI=1S/C7H14O/c1-5-3-7(8)4-6(5)2/h5-8H,3-4H2,1-2H3/t5-,6+,7+
