17
gdb 24437	3.45011	1.59969	1.1346	2.1421	73.85	-0.1898	0.0368	0.2266	1042.6473	0.139334	-421.864567	-421.857738	-421.856793	-421.895723	27.401	
C	-0.0022415191	 1.534072121	-0.0054379082	-0.223752
C	 1.4371365441	 2.0546035537	 0.067252888	-0.078972
O	 2.1222047121	 1.6241240764	 1.2605222344	-0.261572
C	 1.8842813118	 0.3287604567	 1.5039284944	 0.398596
C	 0.9514429645	-0.5075981384	 0.9748547367	 0.108926
C	-0.0478602227	-0.0092075847	-0.0266322825	-0.335568
C	 1.1874298436	-1.7683649564	 1.6289982925	-0.304066
C	 2.2242803031	-1.5766571677	 2.4820020669	-0.024822
O	 2.6700180603	-0.2736203506	 2.4123852021	-0.192015
H	-0.5511421939	 1.9081015987	 0.8661446778	 0.119043
H	-0.479336136	 1.9552844783	-0.896401993	 0.104621
H	 2.0132359826	 1.7100016205	-0.8026783071	 0.111557
H	 1.4684488501	 3.1453699478	 0.0976371092	 0.120672
H	-1.0615141505	-0.3532889499	 0.2094844142	 0.109876
H	 0.1736870877	-0.3819419872	-1.036187899	 0.107811
H	 0.6479018068	-2.6918994303	 1.4827293752	 0.106773
H	 2.7509392756	-2.2047357279	 3.1788807882	 0.132893
118.9748	217.0227	302.1248	334.2591	394.3858	460.0414	526.8341	608.8729	658.3927	677.1075	712.1203	720.7192	817.1517	870.0659	884.7409	909.6456	922.0202	996.3658	1053.0715	1065.9613	1097.0561	1142.1626	1186.2291	1208.4098	1223.8882	1270.5095	1298.5838	1304.2354	1353.8625	1370.7014	1404.9096	1469.5292	1476.5935	1495.3249	1505.6186	1557.1901	1679.0217	3006.3772	3015.077	3040.7364	3054.3963	3090.5086	3114.674	3247.3358	3297.7218
C1COC2=C(C1)C=CO2	C1COc2c(C1)cco2	
InChI=1S/C7H8O2/c1-2-6-3-5-9-7(6)8-4-1/h3,5H,1-2,4H2	InChI=1S/C7H8O2/c1-2-6-3-5-9-7(6)8-4-1/h3,5H,1-2,4H2
