13
gdb 31924	6.37306	0.8917	0.78746	2.0335	69.62	-0.2712	-0.0632	0.208	1330.743	0.089782	-452.781251	-452.773291	-452.772347	-452.814605	27.559	
O	 0.3889715906	 0.9467161402	-0.6502660464	-0.408023
C	-0.0302504864	 0.0699951185	 0.3603328566	-0.155074
C	-1.4550620759	-0.3430965522	 0.1657328851	 0.379129
N	-2.1611600553	-0.1649675585	-0.910543303	-0.315019
C	-3.380660012	-0.744569447	-0.6292202002	-0.17179
C	-3.347256122	-1.2568858694	 0.6319857087	 0.216694
O	-2.0971547013	-0.9978571782	 1.1514578554	-0.193091
C	-4.2861039646	-1.9403325611	 1.4281083972	 0.228001
N	-5.0746016399	-2.5021104481	 2.0640225993	-0.32342
H	-0.1582878154	 0.777786608	-1.4279081029	 0.306
H	 0.5908931567	-0.841591993	 0.4041274706	 0.129567
H	 0.0755546555	 0.5684228519	 1.3318401668	 0.144895
H	-4.1948391899	-0.7576175711	-1.335617377	 0.162131
53.3697	127.6709	144.4591	206.265	256.9052	272.0335	411.6485	499.7224	566.4408	613.2376	674.2939	684.6363	740.134	891.7742	983.4785	1011.7126	1029.6967	1112.3851	1176.2563	1213.8706	1237.7318	1262.1346	1319.9465	1363.3647	1459.8859	1500.5249	1572.6715	1612.4766	2348.0187	2959.8247	3050.0504	3278.0501	3775.2622
OCC1=NC=C(O1)C#N	OCc1ncc(o1)C#N	
InChI=1S/C5H4N2O2/c6-1-4-2-7-5(3-8)9-4/h2,8H,3H2	InChI=1S/C5H4N2O2/c6-1-4-2-7-5(3-8)9-4/h2,8H,3H2
