19
gdb 98227	3.24489	1.03495	0.81089	5.0049	74.2	-0.2331	-0.0189	0.2141	1417.6531	0.15709	-456.381839	-456.371142	-456.370197	-456.418914	36.759	
C	-0.1805452162	 1.4066945797	 0.0005559239	-0.349199
N	-0.0823757739	-0.0556860782	 0.0009187867	-0.172761
C	-0.0211885952	-0.7591494006	 1.2364136809	 0.399873
C	 0.3153076585	 0.0724947523	 2.4690299894	-0.503035
O	-0.2188473639	-1.9428122717	 1.3198897992	-0.287935
C	 0.0437187561	-0.7399497473	-1.2294603176	 0.380439
O	 0.2857777582	-1.9180188121	-1.313793646	-0.305213
C	-0.1285242635	 0.1076142817	-2.5112056499	-0.283977
N	 0.0852279477	-0.639900908	-3.736302018	-0.488102
H	 0.7893608353	 1.8922380877	-0.161953151	 0.136559
H	-0.8693273786	 1.7434357949	-0.7743480803	 0.150278
H	-0.5815969392	 1.7528005331	 0.9502788341	 0.144666
H	-0.557206108	 0.634053457	 2.8199323655	 0.149524
H	 0.6001438836	-0.6295519613	 3.2522344935	 0.156997
H	 1.1268143648	 0.7842975678	 2.2956614679	 0.136169
H	-1.1422153211	 0.5296773284	-2.5223927153	 0.134153
H	 0.5549558254	 0.9642377941	-2.4905677292	 0.126967
H	 1.0359549515	-1.000824651	-3.7339312958	 0.234847
H	-0.4929555413	-1.4762631666	-3.705209098	 0.239749
34.1189	54.8573	85.7884	108.001	192.7197	194.1793	216.6906	241.0525	319.5015	354.0149	400.3674	451.6388	542.5526	562.8951	606.5155	627.1373	756.5379	835.1375	930.556	952.6829	997.7759	1047.4094	1084.4384	1139.7654	1161.5327	1175.4034	1182.0071	1234.8703	1302.8185	1365.7867	1388.1981	1404.2694	1459.6444	1466.2724	1474.645	1487.6255	1509.4239	1515.2396	1680.9548	1777.6009	1849.5375	3022.6281	3031.7706	3045.3849	3067.9054	3111.7918	3127.7542	3160.6814	3171.8341	3489.8514	3552.8491
CN(C(C)=O)C(=O)CN	CN(C(=O)C)C(=O)CN	
InChI=1S/C5H10N2O2/c1-4(8)7(2)5(9)3-6/h3,6H2,1-2H3	InChI=1S/C5H10N2O2/c1-4(8)7(2)5(9)3-6/h3,6H2,1-2H3
