19
gdb 95441	2.5612	1.48276	0.97431	2.1367	79.79	-0.2141	-0.0541	0.16	1221.9686	0.158818	-419.239376	-419.229919	-419.228975	-419.27443	33.324	
C	-0.1190129195	 1.4455967622	 0.006596946	-0.350626
N	 0.0271131057	 0.0368973317	 0.3208071313	-0.112071
C	-1.1359593075	-0.8378022389	 0.1411423147	-0.184232
C	-0.4884089008	-2.2396933513	 0.2245654125	-0.176914
N	 0.9515281239	-2.021946957	 0.0176746552	-0.303577
C	 1.1407125819	-0.7500481398	 0.0903448673	 0.27041
C	 2.5461917686	-0.2048967162	 0.0139035797	 0.334365
C	 3.6154885394	-1.1991837753	-0.3766013215	-0.465318
O	 2.7971490644	 0.9553034601	 0.2612714551	-0.308766
H	 0.8194804431	 1.9618128348	 0.1910887578	 0.176901
H	-0.4216439676	 1.6018521453	-1.0418536393	 0.107526
H	-0.8967352322	 1.8773152191	 0.645505508	 0.123294
H	-1.8924557012	-0.6549797061	 0.9105935138	 0.113247
H	-1.6019342226	-0.6521511168	-0.8404691616	 0.098638
H	-0.6352098303	-2.6938134623	 1.2134099597	 0.117945
H	-0.8836392406	-2.9431721831	-0.5134173549	 0.116795
H	 3.4206517775	-1.5831469464	-1.3828305835	 0.149269
H	 4.5871910056	-0.7055219849	-0.3431469808	 0.131906
H	 3.5912485422	-2.0647937349	 0.2892926705	 0.161207
39.6635	111.1855	121.0219	149.4619	191.7377	216.4646	234.2259	327.7967	393.5313	472.4591	504.9886	631.7262	653.0268	698.5943	780.3751	862.2252	945.5957	962.8213	999.4774	1017.9501	1041.725	1101.9239	1110.444	1157.0768	1205.383	1214.6341	1258.4773	1269.4983	1307.4395	1356.2951	1384.2791	1433.3028	1453.676	1460.0909	1461.4942	1489.6207	1501.4279	1511.8475	1536.7725	1645.7348	1790.4366	2966.7617	2973.1485	3020.3658	3055.8765	3066.2854	3067.0803	3084.0524	3123.9491	3162.4902	3186.9065
CN1CCN=C1C(C)=O	CN1CC[N][C]1C(=O)C	
InChI=1S/C6H10N2O/c1-5(9)6-7-3-4-8(6)2/h3-4H2,1-2H3	InChI=1S/C6H10N2O/c1-5(9)6-7-3-4-8(6)2/h3-4H2,1-2H3
