22
gdb 101898	3.76356	0.63073	0.57205	3.7369	80.28	-0.2486	0.0323	0.2808	1966.842	0.192415	-441.51697	-441.50588	-441.504936	-441.554555	38.858	
C	-0.2242012153	 1.4623103152	-0.133781376	-0.381205
C	-0.2377539974	-0.0461725058	-0.3917584057	-0.191927
C	 0.9329329896	-0.5231940139	-1.2590349287	 0.137626
O	 2.1937152365	-0.1773059459	-0.6771045145	-0.432689
C	 0.8595412396	-2.0232694012	-1.5647066202	-0.200194
C	 1.9778952547	-2.4785769772	-2.511293695	-0.168095
N	 1.9746540605	-3.9135078757	-2.7631728005	-0.267597
C	 1.1277976615	-4.4933401554	-3.6508642413	 0.150312
O	 0.3103251972	-3.8955198842	-4.3205601492	-0.328061
H	 0.7213322013	 1.7685441347	 0.3214479882	 0.124892
H	-0.3363387428	 2.0209460576	-1.0694183338	 0.117104
H	-1.0405452096	 1.7579231679	 0.5318238586	 0.110125
H	-0.2086405616	-0.5915098472	 0.5638102996	 0.083141
H	-1.1763452817	-0.3390855496	-0.8778038879	 0.10368
H	 0.9175658109	 0.0316340268	-2.2070215467	 0.091877
H	 2.2240279427	-0.5771383361	 0.1999109931	 0.274894
H	 0.9194461678	-2.5884936177	-0.6231483031	 0.077202
H	-0.1065442733	-2.2626815441	-2.0210297893	 0.127188
H	 1.8644687656	-1.9731001474	-3.4753991347	 0.135389
H	 2.9502626797	-2.1997536187	-2.0995282655	 0.117842
H	 2.5911232286	-4.5079952564	-2.2337725809	 0.246921
H	 1.2709025957	-5.5915811757	-3.7064554068	 0.071573
37.6907	55.0171	91.5464	120.4214	133.3906	198.511	223.8026	258.9337	297.772	321.8297	348.4025	402.6853	471.4771	503.3499	566.0732	730.4115	779.8302	808.2354	878.4123	945.5322	981.0661	1007.4049	1019.8064	1033.3301	1061.4167	1097.7666	1118.2338	1148.3245	1195.0343	1238.8501	1263.9524	1278.6762	1320.4898	1351.132	1363.5797	1391.8645	1405.3804	1407.9859	1421.9419	1428.7261	1470.6292	1480.6553	1491.5571	1496.2914	1509.2824	1527.4796	1802.0107	2928.1357	2996.464	3005.1215	3027.9515	3039.0359	3054.2891	3063.2099	3081.7276	3103.8368	3120.5317	3121.6249	3643.1021	3789.1332
CCC(O)CCNC=O	CC[C@@H](O)CCNC=O	
InChI=1S/C6H13NO2/c1-2-6(9)3-4-7-5-8/h5-6,9H,2-4H2,1H3,(H,7,8)	InChI=1S/C6H13NO2/c1-2-6(9)3-4-7-5-8/h5-6,9H,2-4H2,1H3,(H,7,8)/t6-/m1/s1
