14
gdb 129692	3.44601	1.28828	0.93876	1.4476	76.43	-0.1924	-0.0107	0.1817	1154.4972	0.100822	-432.852534	-432.843682	-432.842738	-432.8857	32.554	
N	 0.0207961926	 1.4926552312	-0.1488702166	-0.629095
C	-0.0004361101	 0.1012051118	-0.0723328588	-0.007749
C	-1.0956452695	-0.7581711234	-0.0277772359	 0.230514
N	-0.5789625886	-2.0320505222	-0.0434162966	-0.32881
N	 0.7657181613	-2.0479503261	-0.0844498672	-0.310793
C	 1.1108398168	-0.7698512629	-0.104400069	 0.38823
O	 2.3980964104	-0.353646714	-0.1398550783	-0.445481
C	-2.4701661565	-0.4733906159	 0.0254857422	 0.248619
C	-3.6464409277	-0.2124745297	 0.0809997867	-0.426453
H	 0.8666009256	 1.8893720325	 0.2388435527	 0.255998
H	-0.7965116895	 1.9266102837	 0.2599073506	 0.251024
H	-1.0909572169	-2.8949263285	-0.0105059707	 0.275928
H	 2.9551739154	-1.1415815975	-0.1387094608	 0.304243
H	-4.6830043834	 0.0146182909	 0.1166418515	 0.193826
113.5265	124.7182	172.9185	214.4812	263.9114	273.8858	336.7641	406.2089	414.9408	476.1693	518.3875	521.0394	598.6712	664.5623	682.5825	692.9199	729.0784	762.338	803.5698	997.6859	1148.8824	1229.4168	1245.2981	1269.5589	1332.8064	1466.5707	1513.0651	1594.9054	1627.7709	1656.8079	2221.0176	3501.1773	3540.0099	3637.0497	3699.5166	3803.4725
NC1=C(NN=C1O)C#C	Nc1c([nH]nc1O)C#C	
InChI=1S/C5H5N3O/c1-2-3-4(6)5(9)8-7-3/h1H,6H2,(H2,7,8,9)	InChI=1S/C5H5N3O/c1-2-3-4(6)5(9)8-7-3/h1H,6H2,(H2,7,8,9)
