21
gdb 80901	2.02234	1.69295	1.4867	2.8512	78.92	-0.2357	0.0625	0.2982	1064.0239	0.181247	-424.184472	-424.175367	-424.174423	-424.217307	36.375	
C	-0.1074917717	 1.5549198248	-0.0797819218	-0.483139
C	 0.0591387049	 0.0404278267	-0.0465409272	 0.413099
O	-1.2345717688	-0.5311023156	-0.2999217187	-0.499668
C	 1.2938781028	-0.6486298033	-0.7190670578	-0.189202
C	 2.1286008818	-0.1482148683	 0.4951696421	-0.285596
C	 0.8047138001	-0.6737849131	 1.132203698	 0.230347
C	 0.3971796496	-0.6959156843	 2.5802707529	-0.524327
C	 1.0086494069	-1.9112669293	 0.1709717486	 0.157133
O	 0.0018531189	-2.8279994951	-0.0999786579	-0.455715
H	-0.4569023388	 1.8706905535	-1.0716954435	 0.108198
H	-0.8654903077	 1.8599775817	 0.6483577697	 0.130592
H	 0.8101845857	 2.1060468411	 0.1259320927	 0.127823
H	-1.582128182	-0.139823025	-1.1085972166	 0.282815
H	 1.5786998587	-0.617768413	-1.7723499679	 0.065073
H	 3.0228849299	-0.7321302984	 0.7248031022	 0.098134
H	 2.3375793461	 0.9173777906	 0.5652775082	 0.095953
H	 0.3088987292	 0.3153068308	 2.9931963758	 0.115097
H	-0.5707005935	-1.194571762	 2.6966646744	 0.132483
H	 1.1300766443	-1.2419844984	 3.1836909471	 0.121429
H	 1.9056909422	-2.4939860927	 0.4005975758	 0.073789
H	-0.7953007189	-2.307876821	-0.2779049362	 0.285682
164.0226	171.3152	185.1737	201.4663	217.532	304.1057	311.9592	402.7762	430.8921	450.3732	466.7783	530.0282	630.2688	661.2559	668.7265	686.0203	747.2526	786.4319	863.3239	894.9502	933.9611	949.3755	1009.1226	1026.2538	1073.7221	1084.3391	1114.2399	1136.4183	1160.4495	1171.3551	1184.5046	1205.7194	1238.937	1245.5582	1305.1413	1354.9222	1379.7059	1407.2962	1415.1626	1485.1621	1488.0618	1490.7075	1493.4052	1500.5767	1541.3766	3024.3792	3027.9153	3065.8347	3076.9949	3089.9735	3092.7978	3099.7587	3101.3338	3137.3359	3156.3813	3708.8843	3806.5274
CC1(O)C2CC1(C)C2O	C[C@@]1(O)[C@H]2C[C@]1(C)[C@H]2O	
InChI=1S/C7H12O2/c1-6-3-4(5(6)8)7(6,2)9/h4-5,8-9H,3H2,1-2H3	InChI=1S/C7H12O2/c1-6-3-4(5(6)8)7(6,2)9/h4-5,8-9H,3H2,1-2H3/t4-,5-,6+,7+/m0/s1
