17
gdb 125181	3.2282	1.49844	1.04359	3.4952	75.47	-0.2275	0.0154	0.2429	1114.612	0.138191	-418.024199	-418.016091	-418.015146	-418.05829	28.998	
C	-0.0314323049	 1.5280970008	 0.1240117847	-0.503327
C	-0.0175517092	 0.0463690164	-0.0680071456	 0.168716
C	 0.0360048013	-0.762709555	-1.1823193607	 0.142318
C	 0.0877604314	-0.8047915188	-2.6729709923	-0.193671
O	 0.0723824049	-2.2107638339	-2.9902128788	-0.285363
C	 0.1051785257	-3.0454939568	-1.8208005257	-0.172344
C	 0.0481617948	-2.0729632786	-0.6875260211	 0.286058
N	 0.0059659768	-2.1384938004	 0.6324956852	-0.33062
N	-0.0306474358	-0.8279385306	 0.9859864474	-0.248715
H	 0.9786911124	 1.9329860486	 0.2592043231	 0.144171
H	-0.4695089215	 2.0216372031	-0.7467999859	 0.144239
H	-0.622210384	 1.8136664829	 1.0005644805	 0.131706
H	-0.7731458749	-0.3273000712	-3.1618807593	 0.109295
H	 0.9982988234	-0.3511109472	-3.0919885735	 0.10688
H	-0.7489960811	-3.7349187396	-1.8471061797	 0.118272
H	 1.024275072	-3.6486130833	-1.8215846252	 0.114786
H	-0.0815361012	-0.5932268865	 1.9635980671	 0.267599
36.5286	53.0949	162.3875	235.3954	239.298	316.2013	480.5152	502.8137	585.2664	633.182	655.3953	687.0826	793.0866	852.7447	893.8751	995.683	1018.3035	1045.6515	1054.3175	1067.2268	1089.2226	1166.793	1169.1831	1211.2977	1214.024	1283.2586	1338.0999	1375.0161	1418.7608	1455.2893	1475.717	1485.0379	1507.1949	1517.3812	1528.3704	1534.957	1658.2385	2984.9505	2999.6302	3008.9124	3029.1823	3030.0774	3085.8025	3121.4623	3662.9752
CC1=C2COCC2=NN1	Cc1c2COCc2n[nH]1	
InChI=1S/C6H8N2O/c1-4-5-2-9-3-6(5)8-7-4/h2-3H2,1H3,(H,7,8)	InChI=1S/C6H8N2O/c1-4-5-2-9-3-6(5)8-7-4/h2-3H2,1H3,(H,7,8)
