18
gdb 55963	4.31951	0.92399	0.88197	5.3527	73.55	-0.2356	0.0022	0.2379	1334.7665	0.148441	-439.11627	-439.108015	-439.10707	-439.150076	30.42	
O	-0.2746854208	-0.0523509287	-0.776028301	-0.361642
C	-0.0115050281	 1.1500243285	-0.2391358156	 0.415285
O	 1.0978234007	 1.5888887014	-0.1121020968	-0.331702
C	-1.282981805	 1.9191243496	 0.1586804434	-0.307564
N	-2.4304853477	 1.0362727582	 0.2769284556	-0.108572
H	-1.2522720027	-0.1342342795	-0.7308007395	 0.300457
C	-3.7451179348	 1.5800875793	-0.1143456052	-0.20466
C	-4.7047361812	 0.786914256	 0.7291296235	-0.070157
C	-4.0559717529	 0.0985264216	 1.662834587	-0.065099
C	-2.5741675129	 0.3377546043	 1.5704152908	-0.2098
H	-1.0645394746	 2.4922097338	 1.0713324885	 0.127036
H	-1.4678508391	 2.6454279991	-0.6406073868	 0.140748
H	-3.8345462558	 2.6598682859	 0.101900426	 0.106124
H	-3.9107828871	 1.458748344	-1.1931133224	 0.117616
H	-5.7763796335	 0.8215542133	 0.5806513601	 0.11028
H	-4.4976505047	-0.53455856	 2.4216305819	 0.11095
H	-1.9791281254	-0.5848394059	 1.5869626035	 0.122288
H	-2.2173061443	 0.9561177994	 2.415135127	 0.108412
62.1131	86.6748	103.2289	191.2669	341.6053	362.8781	402.9549	406.0728	565.5124	615.7982	689.5378	734.0882	793.8914	846.015	864.7868	873.8854	941.0369	965.6587	995.6906	997.883	1038.4312	1051.4052	1131.3411	1145.9623	1190.6973	1197.6175	1209.4235	1213.4412	1277.1701	1327.0343	1344.1184	1381.0296	1391.3353	1415.0717	1466.1326	1510.9509	1525.0915	1694.8658	1880.7716	2930.0352	2940.5511	3006.3834	3020.1604	3024.4742	3075.2689	3209.1583	3232.833	3486.6134
[O-]C(=O)C[NH+]1CC=CC1	OC(=O)CN1CC=CC1	
InChI=1S/C6H9NO2/c8-6(9)5-7-3-1-2-4-7/h1-2H,3-5H2,(H,8,9)	InChI=1S/C6H9NO2/c8-6(9)5-7-3-1-2-4-7/h1-2H,3-5H2,(H,8,9)
