19
gdb 73374	2.45828	2.24169	1.61291	1.8963	73.54	-0.2252	0.0848	0.31	904.8974	0.161284	-423.013397	-423.00653	-423.005586	-423.04415	28.844	
C	-0.0472425924	 1.4506262424	 0.0291476639	-0.485524
C	 0.0638297931	-0.0543967349	 0.043324545	 0.370159
C	 0.7254653362	-0.7211886068	-1.1680640207	-0.091804
O	 0.8020264275	-2.105413412	-0.7913716467	-0.278934
C	 0.489580652	-2.1543145446	 0.5783612868	 0.12807
C	-0.9844859462	-1.7866898669	 0.978162478	 0.05248
C	-0.3973252719	-1.0940134931	 2.2283512886	-0.262364
C	 0.7516605631	-0.7748578163	 1.2431378191	-0.143893
O	-1.254278038	-0.6774007454	 0.1084368787	-0.316021
H	 0.9400317224	 1.912727221	-0.0706885435	 0.118741
H	-0.6675231558	 1.7793005996	-0.8105414321	 0.131259
H	-0.5098851375	 1.812558623	 0.9513295845	 0.127415
H	 0.1044203183	-0.617663105	-2.0630248074	 0.112034
H	 1.7330866123	-0.3309413868	-1.3769087759	 0.085587
H	 0.9101920619	-3.0461600758	 1.0409453709	 0.088129
H	-1.8251361008	-2.4784242364	 0.9859296643	 0.080973
H	-0.9802945674	-0.2700213585	 2.6432966155	 0.106785
H	-0.0861796739	-1.7866423708	 3.0138197591	 0.103218
H	 1.740135687	-0.4271227728	 1.539966532	 0.07369
201.0637	237.5412	251.7185	332.9697	400.9472	435.421	497.7927	604.4066	636.1318	715.6778	752.0208	805.5404	827.5631	869.3115	887.3702	909.5928	950.8742	966.8872	981.674	1005.4503	1021.551	1051.7758	1084.5232	1103.0184	1107.4221	1149.7192	1180.11	1199.9443	1218.0198	1226.2616	1247.5198	1254.7149	1298.0414	1322.6883	1331.5253	1400.6853	1414.3212	1482.1152	1485.9653	1495.3006	1507.1738	2989.0256	3040.3135	3070.6666	3079.9554	3110.2622	3117.875	3126.2097	3131.9425	3134.6525	3142.1853
CC12COC3C(CC13)O2	C[C@@]12CO[C@@H]3[C@@H](C[C@H]13)O2	
InChI=1S/C7H10O2/c1-7-3-8-6-4(7)2-5(6)9-7/h4-6H,2-3H2,1H3	InChI=1S/C7H10O2/c1-7-3-8-6-4(7)2-5(6)9-7/h4-6H,2-3H2,1H3/t4-,5+,6-,7+/m0/s1
