21
gdb 77679	1.76254	1.67232	1.64065	1.8862	78.31	-0.2275	0.0764	0.3039	1077.4778	0.181112	-424.219639	-424.210152	-424.209208	-424.253225	36.058	
C	-0.3999914585	 1.4667434278	 0.1061126723	-0.417098
C	-0.1076982835	-0.0054235	-0.0697165448	-0.139701
C	 0.6068770124	-0.602263525	-1.2742532094	 0.307521
O	 0.153438304	-1.8161860546	-1.7993583501	-0.472067
C	 1.4073539921	 0.3316033047	-2.1875489182	-0.313349
C	 2.6835151691	 0.5901858432	-1.3614249523	-0.077513
O	 2.333846453	 0.3656611637	 0.010211266	-0.302146
C	 1.2960559123	-0.5906700063	 0.059780805	 0.366181
C	 1.5923739999	-1.8103537103	 0.8861077486	-0.460785
H	-1.2002014304	 1.8064946903	-0.561249733	 0.108671
H	-0.7177532383	 1.6716452365	 1.1338582445	 0.119558
H	 0.4892633316	 2.0723246338	-0.0827527146	 0.130275
H	-0.8761870056	-0.6749880301	 0.313287395	 0.081351
H	-0.7149929022	-1.6683071258	-2.1888234999	 0.281986
H	 1.6237704644	-0.1801910903	-3.1280807056	 0.111926
H	 0.8747751767	 1.2598106485	-2.4183417938	 0.102972
H	 3.482732661	-0.1038415341	-1.6614002575	 0.098517
H	 3.0670778344	 1.6111430879	-1.4420984908	 0.104802
H	 1.6847033143	-1.5537825905	 1.9464715862	 0.121126
H	 0.7924172692	-2.5459311357	 0.771444893	 0.127155
H	 2.5313613241	-2.2729652137	 0.5651747994	 0.120618
120.6571	147.3656	185.1495	194.4655	204.9522	218.1304	250.9791	297.1037	384.0715	397.2685	523.2403	537.9765	579.6069	625.2478	721.6215	752.8945	811.2605	866.9916	918.6928	951.7327	974.0142	1012.3683	1044.1788	1070.5925	1100.6741	1115.8703	1133.4614	1162.5016	1192.0754	1220.4894	1238.9511	1268.9458	1292.4587	1311.7919	1343.0098	1386.08	1408.5621	1412.8144	1466.2786	1480.3139	1486.0621	1495.2468	1502.253	1507.8419	1521.5277	2991.8184	3031.6518	3036.9203	3049.8432	3085.0873	3087.8193	3099.5698	3110.0627	3115.3041	3124.558	3131.2412	3797.2302
CC1C2(O)CCOC12C	C[C@H]1[C@@]2(O)CCO[C@@]12C	
InChI=1S/C7H12O2/c1-5-6(2)7(5,8)3-4-9-6/h5,8H,3-4H2,1-2H3	InChI=1S/C7H12O2/c1-5-6(2)7(5,8)3-4-9-6/h5,8H,3-4H2,1-2H3/t5-,6+,7+/m1/s1
