14
gdb 126275	2.1393	1.58063	0.96107	2.8321	71.88	-0.2926	-0.0888	0.2037	1168.8341	0.10045	-432.861056	-432.852944	-432.852	-432.89469	28.489	
C	 0.0636684679	 1.6304789826	-0.0750309238	-0.379483
C	-0.0277460392	 0.1025608182	 0.0808820977	-0.311843
C	-1.4344102821	-0.385682432	 0.1514887972	 0.168196
C	-2.1375303721	-0.9911653634	 1.1544586745	 0.262923
O	-3.3898609666	-1.2314798974	 0.7329248394	-0.210516
N	-3.4495654837	-0.7467026859	-0.5944161428	 0.008145
N	-2.3248156425	-0.2716267047	-0.8967539768	-0.150694
C	-1.762366181	-1.3689761207	 2.4624502693	 0.251558
N	-1.4207981532	-1.6651454406	 3.5279313774	-0.322032
H	 1.1091851099	 1.9384861922	-0.1573449428	 0.129682
H	-0.4645251483	 1.9605068231	-0.9733695554	 0.146542
H	-0.3767772736	 2.1404590784	 0.7865658061	 0.131512
H	 0.4645129769	-0.3824543521	-0.7698369779	 0.141094
H	 0.5012699175	-0.2214352177	 0.982313898	 0.134917
47.5774	131.2144	160.1952	180.3969	219.7989	333.0905	388.9407	505.1713	542.6572	591.1655	668.7102	693.094	728.5452	766.6846	800.3641	973.2276	1018.2521	1057.1042	1085.7415	1178.8337	1218.2602	1298.9082	1354.4192	1380.3715	1411.4854	1454.9853	1479.3824	1497.0602	1506.7577	1626.0249	2355.4005	3044.9011	3049.2279	3090.1539	3123.9882	3130.4022
CCC1=C(ON=N1)C#N	CCc1c(onn1)C#N	
InChI=1S/C5H5N3O/c1-2-4-5(3-6)9-8-7-4/h2H2,1H3	InChI=1S/C5H5N3O/c1-2-4-5(3-6)9-8-7-4/h2H2,1H3
