17
gdb 54230	2.28201	1.54058	1.29636	1.6779	68.99	-0.2456	0.0105	0.2561	1050.3495	0.135969	-455.207927	-455.198846	-455.197902	-455.241801	33.261	
C	-0.066826428	 1.5492955169	-0.1899134788	-0.451453
C	-0.0313207742	 0.0238990993	-0.0646621827	 0.054575
C	 0.8055238115	-0.7310837944	-1.1402646193	-0.204447
N	 1.731390711	-1.1002825515	-0.0554593083	-0.331814
C	 1.0093230174	-0.5232101476	 0.9477324621	 0.41336
O	 1.1167542087	-0.4944805561	 2.150921865	-0.38992
C	-1.4431475182	-0.53072774	 0.1479339718	 0.346694
N	-1.8269906766	-0.535030965	 1.4532059414	-0.524652
O	-2.1506767187	-0.8767686666	-0.7783326631	-0.372802
H	 0.9350320744	 1.9469747123	-0.3786910421	 0.125709
H	-0.7215756512	 1.8445970719	-1.015180206	 0.142216
H	-0.4470345546	 2.001117206	 0.7301737547	 0.139875
H	 0.2834929139	-1.5731719985	-1.5991031251	 0.140662
H	 1.2549726167	-0.0977562504	-1.9099412322	 0.115207
H	 2.5244778656	-1.7239488771	-0.0274820981	 0.256404
H	-1.1342784411	-0.4298496564	 2.1823807807	 0.280271
H	-2.7245838765	-0.9329634029	 1.6790157499	 0.260115
60.7222	118.181	168.41	215.1514	227.5011	233.0389	303.1808	388.7718	421.8365	441.9153	507.9286	615.758	622.8585	670.9922	728.5898	782.5054	788.9623	889.2997	929.4252	977.1127	991.6886	1118.869	1146.6391	1156.6186	1182.3085	1201.1816	1228.8111	1296.6948	1354.1828	1385.8787	1411.2136	1488.9952	1497.351	1529.3338	1629.0789	1797.3483	1866.2429	3039.3559	3060.93	3112.6598	3121.1287	3123.241	3544.5531	3612.3658	3694.8879
CC1(CNC1=O)C(N)=O	C[C@]1(CNC1=O)C(=O)N	
InChI=1S/C5H8N2O2/c1-5(3(6)8)2-7-4(5)9/h2H2,1H3,(H2,6,8)(H,7,9)	InChI=1S/C5H8N2O2/c1-5(3(6)8)2-7-4(5)9/h2H2,1H3,(H2,6,8)(H,7,9)/t5-/m0/s1
