16
gdb 17847	4.80142	1.88139	1.61635	3.4295	64.54	-0.2359	0.075	0.3109	814.2327	0.130681	-383.643221	-383.636785	-383.635841	-383.673914	25.079	
C	-0.0385058709	 1.3933517634	-0.3067289886	-0.082831
C	 1.4295756928	 1.5890298826	 0.1184178917	-0.387422
C	 1.2728115729	 0.1829898354	 0.7213153425	 0.544228
O	-0.0782980967	 0.0791846103	 0.2943712276	-0.317478
C	 2.2241939691	-1.0316616298	 0.57936088	-0.035604
C	 3.1420244036	-0.3970725792	 1.6506734106	-0.234436
C	 1.6762983671	-0.3030685837	 2.1360953404	-0.035604
O	 1.466110943	-1.6940040209	 1.667830324	-0.314135
H	-0.7643119753	 2.0724372239	 0.1544444212	 0.10869
H	-0.2220367006	 1.3513399309	-1.3861663917	 0.108689
H	 2.1502078519	 1.6700605579	-0.6973074923	 0.118496
H	 1.609526796	 2.3890009269	 0.838799071	 0.118496
H	 2.4762583584	-1.6276169946	-0.2982422514	 0.097028
H	 3.744384356	-1.1192400623	 2.2006685247	 0.115858
H	 3.6823614374	 0.5224499449	 1.4104853549	 0.098998
H	 1.2756593054	-0.0310549256	 3.1130207756	 0.097028
87.3987	213.2021	234.3525	387.0477	444.9942	540.4086	647.5082	747.4537	771.0699	801.8549	868.734	878.4968	880.0771	912.3473	970.7094	1005.7294	1009.69	1022.0832	1102.5349	1119.7226	1135.4167	1138.3685	1165.9741	1170.9844	1200.555	1203.0842	1222.3305	1256.4812	1263.7879	1337.1649	1354.6027	1479.7028	1485.2831	1532.2199	3028.2426	3065.3316	3070.2252	3077.8037	3116.6774	3122.7282	3131.9415	3158.0258
C1CC2(O1)C1CC2O1	C1C[C@@]2(O1)[C@H]1C[C@@H]2O1	
InChI=1S/C6H8O2/c1-2-7-6(1)4-3-5(6)8-4/h4-5H,1-3H2	InChI=1S/C6H8O2/c1-2-7-6(1)4-3-5(6)8-4/h4-5H,1-3H2/t4-,5+,6-
