17
gdb 67088	2.56309	1.73068	1.43428	2.3452	72.57	-0.2289	-0.0362	0.1927	962.0403	0.135052	-421.775803	-421.767858	-421.766914	-421.808716	30.187	
O	 0.4076391088	 1.346075193	-0.288520168	-0.455751
C	 0.1806481749	 0.0113509352	-0.1098422187	 0.376732
C	-0.0427449831	-1.0966885059	-1.0875838325	-0.12592
C	 1.1478607674	-1.9035383657	-0.5661369823	-0.292666
C	 0.9919095106	-1.0558161627	 0.7345473276	 0.150438
C	-0.3820396086	-1.5421106303	 1.3255278977	-0.269732
C	-1.0212954205	-0.8725805543	 0.1159624864	-0.15342
C	 2.098084477	-0.6816346064	 1.642045189	 0.030873
O	 2.240167623	 0.4509656555	 2.0529873917	-0.270036
H	 0.737098676	 1.6844356826	 0.5553224122	 0.302903
H	-0.4073648654	-1.0194270271	-2.1031627318	 0.098231
H	 1.0572619852	-2.9906680669	-0.4663462371	 0.097307
H	 2.0644162726	-1.6553344146	-1.1087242817	 0.114331
H	-0.4903020186	-2.6234825646	 1.4617980486	 0.099492
H	-0.6234314363	-1.0207078735	 2.2553573921	 0.115547
H	-2.0677040202	-0.6672785781	-0.0668643135	 0.096223
H	 2.8009024772	-1.4883505161	 1.9481169102	 0.08545
46.7843	110.8669	210.1053	268.2883	309.0395	385.6115	394.2741	488.6403	497.4793	642.5229	680.4208	723.3877	775.5705	845.3417	877.4553	921.4422	930.2681	963.7898	989.5402	999.5311	1014.9692	1081.1363	1085.6575	1097.5378	1139.3768	1153.0263	1208.7047	1237.7904	1254.095	1265.1874	1300.2609	1349.3899	1418.141	1485.9458	1492.2193	1515.8521	1781.057	2882.4168	3035.0019	3042.2801	3099.1612	3106.1739	3202.8166	3211.4127	3761.0121
OC12C3CC1(CC23)C=O	O[C@@]12[C@H]3C[C@@]1(C[C@@H]23)C=O	
InChI=1S/C7H8O2/c8-3-6-1-4-5(2-6)7(4,6)9/h3-5,9H,1-2H2	InChI=1S/C7H8O2/c8-3-6-1-4-5(2-6)7(4,6)9/h3-5,9H,1-2H2/t4-,5+,6+,7+
