21
gdb 121929	2.5562	0.98093	0.77773	1.9242	75.75	-0.2602	0.0709	0.331	1508.8264	0.180065	-461.323272	-461.313004	-461.31206	-461.359798	36.426	
C	-0.0274940898	 1.323027494	-0.0207654899	-0.406832
C	 0.0821380248	-0.2045795706	 0.0375771385	 0.1047
O	 0.7324520978	-0.6596294647	 1.2128182258	-0.274301
C	 2.1075874747	-0.3289002639	 1.3243979345	-0.078163
C	 2.6937093796	-1.2528161953	 2.3808286463	-0.059554
O	 2.5745968178	-2.6104702081	 2.0058543645	-0.42159
C	-1.3006818994	-0.8273101763	-0.0226920127	 0.078042
C	-1.7626643408	-1.8848729264	 0.8816868412	-0.173132
O	-2.1946414789	-0.5309489981	 1.0484579494	-0.236574
H	 0.9567133406	 1.7975084616	-0.045573259	 0.118669
H	-0.5671337511	 1.6284463364	-0.9227638977	 0.119344
H	-0.5777799568	 1.6834348506	 0.8521847638	 0.145399
H	 0.6416881101	-0.5628737874	-0.8446422735	 0.070513
H	 2.616758204	-0.4952566932	 0.3619430435	 0.095593
H	 2.2474353706	 0.7226276343	 1.6149730955	 0.096443
H	 3.7611294161	-1.0414042769	 2.5024680474	 0.108659
H	 2.1977135278	-1.0541116722	 3.3442155337	 0.096986
H	 1.6547074892	-2.7256203468	 1.7410078311	 0.286411
H	-1.7570593308	-0.7600884849	-1.0124497027	 0.093969
H	-2.5285414199	-2.5825866456	 0.5451977947	 0.111978
H	-1.0946217756	-2.2492891764	 1.6565197455	 0.123439
41.013	70.5517	74.4255	138.7751	165.6327	224.1444	256.1064	282.1371	316.8122	408.9379	434.6474	485.5576	525.2948	637.9767	766.4522	842.322	867.2853	910.8053	922.8768	965.4615	995.4124	1046.0235	1081.4349	1087.0681	1111.3981	1125.6086	1137.7824	1159.1539	1173.6028	1191.2451	1236.2053	1263.302	1298.0154	1349.8465	1367.1767	1384.6717	1397.6738	1418.816	1432.8732	1441.8698	1490.8964	1495.1574	1499.6975	1509.7438	1520.9533	2949.6971	2977.1737	2983.1271	3024.8988	3046.0765	3080.048	3087.506	3096.8391	3115.2666	3133.3319	3193.8142	3798.7127
CC(OCCO)C1CO1	C[C@@H](OCCO)[C@H]1CO1	
InChI=1S/C6H12O3/c1-5(6-4-9-6)8-3-2-7/h5-7H,2-4H2,1H3	InChI=1S/C6H12O3/c1-5(6-4-9-6)8-3-2-7/h5-7H,2-4H2,1H3/t5-,6-/m1/s1
