19
gdb 50581	3.30497	1.23733	1.06884	1.6482	76.77	-0.2143	-0.0262	0.1881	1159.9269	0.160891	-419.176266	-419.168207	-419.167263	-419.209271	30.78	
O	 0.0950195292	-0.1138138832	 0.2402832976	-0.251918
C	 0.0773217901	 1.0613584318	-0.0273401692	 0.148416
C	 1.3174926435	 1.9173910894	-0.1374161138	-0.062557
C	 1.3157328883	 2.885166327	 1.0921854306	-0.175917
N	 2.621238993	 3.4791288684	 1.4113359642	-0.096313
C	 3.5588954041	 2.6591117568	 2.1802017419	-0.24768
C	 3.8353119844	 2.9653836738	 0.7555171827	 0.006126
C	 3.7240182301	 1.8853225742	-0.3103803233	-0.200754
N	 2.5027936057	 1.0986995335	-0.2570987893	-0.287115
H	-0.8815370383	 1.6116677342	-0.154322796	 0.083948
H	 1.2313590889	 2.5311500729	-1.0468992274	 0.097304
H	 0.6096607774	 3.7022407538	 0.903761481	 0.112187
H	 0.9543996274	 2.3492261814	 1.978566062	 0.111621
H	 4.092104478	 3.1745536553	 2.975144106	 0.115265
H	 3.2578433192	 1.6410848704	 2.426240708	 0.101447
H	 4.5612477989	 3.7451282019	 0.5273603906	 0.09125
H	 3.7703865843	 2.3686772029	-1.2969583364	 0.108972
H	 4.5851746912	 1.2108633564	-0.2543973268	 0.114334
H	 2.5116432444	 0.3668474293	 0.4430701478	 0.231385
59.5198	121.7205	190.1383	244.6953	311.9771	346.1891	393.7044	445.0237	516.0096	638.78	683.272	739.384	772.6554	791.4795	838.3284	903.6597	916.5161	936.8373	992.1678	1027.99	1062.4382	1096.937	1107.5342	1121.8408	1141.6146	1170.7393	1195.4052	1250.2547	1271.5435	1313.184	1319.104	1358.4374	1364.3353	1381.5384	1419.6734	1429.6432	1478.9483	1485.7088	1498.188	1514.5074	1821.7056	2884.0054	2996.5223	3003.4923	3017.5111	3057.8448	3067.9172	3085.3504	3107.8918	3170.4812	3558.7831
O=CC1CN2CC2CN1	O=C[C@H]1CN2C[C@H]2CN1	
InChI=1S/C6H10N2O/c9-4-5-2-8-3-6(8)1-7-5/h4-7H,1-3H2	InChI=1S/C6H10N2O/c9-4-5-2-8-3-6(8)1-7-5/h4-7H,1-3H2/t5-,6-,8?/m1/s1
