14
gdb 66410	2.31357	1.58303	1.30191	2.8728	68.67	-0.2399	-0.0096	0.2303	1005.472	0.098985	-436.630162	-436.621968	-436.621024	-436.662801	30.791	
O	-0.130107639	 1.4850562199	 0.0011635653	-0.440803
C	-0.0471130152	 0.1223353942	-0.0639793798	 0.233639
C	-1.1693192051	-0.8787303769	-0.1028476388	-0.074109
N	-0.4697138276	-1.628636969	-1.1469989874	-0.338399
C	 0.6362164547	-0.7463187256	-1.1286539972	 0.345866
O	 1.670018233	-0.7358129352	-1.7268387	-0.332367
C	-0.3409302004	-0.7881825402	 1.1687404316	-0.317562
C	 0.5121618138	-1.8472598149	 1.6172870982	 0.323802
C	 1.2265385205	-2.7447867203	 1.9798151103	-0.425754
H	 0.7192253032	 1.8294064695	 0.301731325	 0.306913
H	-2.2370429297	-0.7110628019	-0.1463059175	 0.131653
H	-0.3361271508	-2.6328313018	-1.0877265227	 0.252017
H	-0.8186345992	-0.1994353843	 1.9501797217	 0.130781
H	 1.8648183517	-3.5290543235	 2.3045200312	 0.204323
100.5472	129.643	204.7707	215.8832	301.6653	318.6286	367.4363	486.1399	503.7292	578.5941	602.3185	656.591	669.5246	698.6377	740.7948	774.799	831.8344	908.7895	929.7525	991.1725	1035.6897	1056.1974	1130.0631	1179.074	1260.2879	1310.9541	1323.5829	1338.9247	1474.8163	1909.5848	2233.7439	3132.7155	3212.2588	3502.034	3543.2543	3794.8322
OC12C(NC1=O)C2C#C	O[C@@]12[C@@H](NC1=O)[C@H]2C#C	
InChI=1S/C6H5NO2/c1-2-3-4-6(3,9)5(8)7-4/h1,3-4,9H,(H,7,8)	InChI=1S/C6H5NO2/c1-2-3-4-6(3,9)5(8)7-4/h1,3-4,9H,(H,7,8)/t3-,4+,6+/m1/s1
