22
gdb 113455	3.92546	0.9484	0.91729	1.7264	86.75	-0.2226	0.0826	0.3052	1408.0227	0.194308	-367.15314	-367.144302	-367.143358	-367.186823	34.196	
C	 0.0181923509	 1.5029623386	-0.2992502354	-0.370216
C	-0.0451847826	 0.0910633665	 0.2948309135	-0.197961
C	-1.4321520916	-0.5157360621	 0.2287430902	-0.060445
C	-1.9075265158	-1.2093254184	-1.0324044124	-0.3666
C	-1.6305286635	-2.0049998589	 0.2080273966	 0.359539
C	-0.6291782694	-3.1593495964	 0.3527267912	-0.250089
N	-1.6591025756	-4.0185161926	 1.0475140909	-0.126609
C	-2.0426650826	-3.2802752814	 2.2648828379	-0.238964
C	-2.6223234434	-2.8417925706	 0.9784970653	-0.117276
H	 1.0298815262	 1.9159796457	-0.2368715904	 0.110384
H	-0.2820544563	 1.4995165061	-1.352167183	 0.118675
H	-0.6538775827	 2.1847200881	 0.2334594587	 0.114242
H	 0.6603595581	-0.5616386017	-0.2352139458	 0.095171
H	 0.2934631081	 0.1180600266	 1.3391643322	 0.095869
H	-2.1934876447	 0.0479706428	 0.7660648014	 0.079074
H	-2.9402343441	-1.0792528929	-1.3412063597	 0.110977
H	-1.2054424792	-1.2997619317	-1.8573119494	 0.109038
H	-0.3395891166	-3.619231518	-0.5953561595	 0.112479
H	 0.268168337	-2.9828524626	 0.957152404	 0.101326
H	-2.6686110795	-3.8662436509	 2.9314098041	 0.118654
H	-1.3022951854	-2.6568116837	 2.7632661158	 0.108821
H	-3.6699829874	-2.9768290023	 0.7251867238	 0.09391
70.9233	113.1868	142.6923	185.2431	245.5612	305.6928	358.0232	416.1491	454.0244	483.537	599.1682	739.5962	770.0389	782.7949	809.6309	845.0934	896.2544	917.4807	931.8624	958.9733	975.8864	990.7436	1049.1498	1054.7333	1060.9053	1091.1391	1101.1847	1109.4031	1126.0775	1131.9432	1187.1152	1198.1334	1214.7432	1242.6399	1277.9641	1297.0095	1310.2684	1342.0254	1379.3456	1408.6345	1441.2982	1483.8895	1489.3935	1497.2336	1501.0724	1503.9234	1506.9623	3013.4485	3031.8127	3033.4173	3045.3454	3096.5337	3097.4063	3099.0412	3105.1401	3113.0263	3117.1566	3150.5529	3192.3637	3197.5528
CCC1CC11CN2CC12	CC[C@H]1C[C@]21CN1C[C@@H]21	
InChI=1S/C8H13N/c1-2-6-3-8(6)5-9-4-7(8)9/h6-7H,2-5H2,1H3	InChI=1S/C8H13N/c1-2-6-3-8(6)5-9-4-7(8)9/h6-7H,2-5H2,1H3/t6-,7-,8+,9?/m0/s1
