19
gdb 76164	2.10196	1.44361	1.19191	2.8316	79.01	-0.2347	0.0527	0.2874	1157.3694	0.154122	-422.971039	-422.960386	-422.959442	-423.005602	39.613	
C	-0.0543416637	 1.5618124047	-0.0309839233	-0.458651
C	 0.0098118343	 0.0515844952	 0.0005338904	 0.297498
O	-1.1589351085	-0.5799212116	-0.4445080143	-0.445118
C	 1.3123612933	-0.6764234626	-0.2478447229	-0.027
O	 2.513243138	 0.020890024	-0.3941965248	-0.413944
C	 0.7000338881	-0.6844420929	 1.1554218073	 0.02065
C	 1.3830704091	 0.1065040707	 2.2653982253	-0.462689
C	 0.1102927968	-1.9214088146	 1.5962939944	 0.318756
C	-0.3528772027	-2.947336721	 2.0195200577	-0.450385
H	 0.8983507602	 2.0216422399	 0.2354154018	 0.132532
H	-0.3151031782	 1.899208748	-1.0425841098	 0.103945
H	-0.8287619977	 1.9290536865	 0.6488935354	 0.134726
H	-1.2459700098	-0.4115301188	-1.3897572841	 0.27881
H	 1.2398510792	-1.6162330852	-0.794475901	 0.101677
H	 2.5351923085	 0.4021849273	-1.27837741	 0.291202
H	 1.9969155073	 0.9123724126	 1.8634557376	 0.134524
H	 0.6418245975	 0.5261996013	 2.9518633753	 0.124667
H	 2.0357550055	-0.5568452494	 2.8391542098	 0.132728
H	-0.7770095772	-3.8525342443	 2.3763389851	 0.186072
123.0905	147.9353	148.5158	171.3054	199.6942	226.6949	235.3658	280.1633	293.1763	313.5529	376.5255	413.4285	438.7993	534.0542	535.3735	590.5621	614.4192	636.7883	669.6827	721.697	868.826	945.0188	998.2043	1023.6598	1066.1591	1091.6166	1146.2332	1172.6734	1196.8584	1268.8796	1291.1944	1299.219	1346.823	1402.047	1413.3058	1447.6095	1481.736	1488.8977	1500.7972	1512.2199	2236.0182	3024.5581	3051.3364	3092.0514	3110.8181	3114.4822	3139.8415	3153.5617	3505.6859	3788.326	3802.3468
CC1(O)C(O)C1(C)C#C	C[C@@]1(O)[C@@H](O)[C@]1(C)C#C	
InChI=1S/C7H10O2/c1-4-6(2)5(8)7(6,3)9/h1,5,8-9H,2-3H3	InChI=1S/C7H10O2/c1-4-6(2)5(8)7(6,3)9/h1,5,8-9H,2-3H3/t5-,6-,7+/m0/s1
