16
gdb 98726	2.86591	1.08371	0.90841	5.6939	71.18	-0.2785	-0.0478	0.2307	1282.7158	0.122925	-437.898999	-437.890079	-437.889135	-437.933472	31.774	
O	 0.0986639647	 1.3586764006	-0.1883951315	-0.41657
C	-0.0454339166	-0.0237998352	-0.2645518786	-0.134527
C	-1.4580746999	-0.4597829615	 0.0842965416	 0.361737
O	-2.2941249836	 0.3731332424	 0.3684467591	-0.330096
C	-1.7549281135	-1.921156463	 0.0561287794	-0.126347
C	-2.9302036154	-2.4224403002	 0.8565425928	-0.283293
C	-3.0377232389	-2.4087883164	-0.6427636865	-0.16601
C	-3.9147196001	-1.493622487	-1.3210394353	 0.310488
N	-4.6364050001	-0.8035845887	-1.9036898811	-0.329181
H	-0.7827674296	 1.6983347226	 0.0347583032	 0.299755
H	 0.1850528741	-0.4050839913	-1.2752360813	 0.122646
H	 0.6506258233	-0.5380117479	 0.4206158597	 0.118973
H	-0.8991872776	-2.5759551582	-0.0682174099	 0.113841
H	-2.8465554882	-3.3859246672	 1.3439417781	 0.140925
H	-3.4844313299	-1.659122071	 1.3895827332	 0.169389
H	-2.9365758087	-3.361990878	-1.1512440129	 0.14827
47.3218	99.0794	124.2068	183.3327	231.5374	271.3619	325.6799	378.42	409.2873	515.8379	555.8135	599.4637	697.1496	768.5917	818.5594	854.7747	909.3759	963.1894	1025.7888	1057.5437	1081.155	1109.5791	1128.789	1147.3917	1159.529	1216.1972	1244.0563	1308.9259	1380.4074	1407.7648	1453.0887	1471.6532	1489.0711	1787.8012	2362.2264	2958.8672	2974.4485	3152.5798	3167.5891	3176.9494	3252.7959	3690.6447
OCC(=O)C1CC1C#N	OCC(=O)[C@H]1C[C@H]1C#N	
InChI=1S/C6H7NO2/c7-2-4-1-5(4)6(9)3-8/h4-5,8H,1,3H2	InChI=1S/C6H7NO2/c7-2-4-1-5(4)6(9)3-8/h4-5,8H,1,3H2/t4-,5-/m0/s1
