22
gdb 40646	3.04459	1.23003	1.20271	1.0188	86.61	-0.2293	0.083	0.3123	1190.1176	0.196723	-367.179795	-367.171697	-367.170753	-367.212693	31.95	
C	 0.5443342706	 1.6989336148	 0.1274324708	-0.222564
C	 0.975980119	 0.4043817849	-0.4681932243	-0.222555
N	-0.3410802601	 0.5388792836	 0.1461156745	-0.059934
C	-0.52050425	-0.1061972889	 1.4185293683	 0.050853
C	-1.8259323559	-0.0117554044	 2.1702055232	-0.083617
C	-3.0784835302	 0.4548191612	 1.4393678769	-0.209098
C	-3.1738259037	-0.4085443029	 0.1567477999	-0.203465
C	-2.3635207504	-1.6954821082	 0.4509408452	-0.209077
C	-1.3861020722	-1.3342861481	 1.5622278281	-0.083701
H	 1.0108953239	 1.9961798945	 1.0652875903	 0.109523
H	 0.2329517017	 2.5240408356	-0.5070333444	 0.115121
H	 0.9854886009	 0.2663836789	-1.5457390366	 0.115136
H	 1.7313459753	-0.1649693786	 0.0711238493	 0.109524
H	 0.3664858985	-0.1065375494	 2.0615147944	 0.062701
H	-1.7684315896	 0.1641719695	 3.2395759611	 0.07493
H	-3.9419703552	 0.280102723	 2.0923151681	 0.092736
H	-3.0646718878	 1.5252280509	 1.2081893483	 0.096573
H	-4.2111542155	-0.630329725	-0.1110698715	 0.082591
H	-2.7180221552	 0.1260258969	-0.6763325314	 0.120066
H	-3.019661272	-2.4942177708	 0.817107764	 0.092736
H	-1.8671510603	-2.0770397947	-0.4475784913	 0.096576
H	-1.0023308919	-2.1393519729	 2.1805958171	 0.074945
76.5116	130.8287	146.8739	204.5252	292.9692	314.4109	483.5114	515.7942	642.2493	707.4476	753.0686	765.8142	805.0498	819.9182	868.3676	886.1925	888.779	901.0806	951.8909	984.1894	1025.2629	1032.0232	1045.1933	1055.3287	1092.5133	1103.616	1116.9049	1118.1352	1119.1944	1168.8103	1175.694	1189.5337	1219.0991	1225.84	1258.443	1318.8956	1322.0946	1330.4698	1334.492	1365.4552	1371.5925	1444.2168	1480.6907	1488.5148	1492.4578	1505.2616	1520.3948	3026.2939	3030.1897	3030.7414	3063.805	3067.7893	3068.9983	3093.7586	3097.8082	3134.4309	3151.4225	3162.0502	3175.0788	3189.631
C1CN1C1C2CCCC12	C1CN1[C@H]1[C@H]2CCC[C@@H]12	
InChI=1S/C8H13N/c1-2-6-7(3-1)8(6)9-4-5-9/h6-8H,1-5H2	InChI=1S/C8H13N/c1-2-6-7(3-1)8(6)9-4-5-9/h6-8H,1-5H2/t6-,7+,8-
