16
gdb 19367	4.42328	1.7134	1.54209	1.0672	63.8	-0.2317	0.0625	0.2942	862.0858	0.128908	-383.638918	-383.631752	-383.630808	-383.670299	27.388	
C	 0.049694164	 1.3298113752	 0.2489767195	-0.257312
O	-0.0034557083	-0.0209075762	-0.1898304116	-0.274778
C	-1.2606182429	-0.5664153231	-0.1091261138	 0.409767
C	-1.90732534	-1.0446867238	 1.1622220957	-0.346372
C	-1.6244223196	-2.0248238185	 0.0348742695	-0.197355
C	-2.6496392071	-1.8518533945	-1.1311722166	 0.028364
O	-3.6022159696	-0.8272599518	-0.7956131247	-0.236458
C	-2.3094939542	-0.4432188395	-1.2804340395	-0.062777
H	 1.084528848	 1.6594063459	 0.1355791784	 0.128962
H	-0.6010102532	 1.9777896768	-0.3544629477	 0.11363
H	-0.2489214916	 1.4183741366	 1.3019366119	 0.11704
H	-1.2106697516	-1.1353312078	 1.990070749	 0.116795
H	-2.9237102066	-0.7798140618	 1.4247213458	 0.135296
H	-0.9724501849	-2.8799369538	 0.1479908069	 0.104904
H	-2.9532061049	-2.5996724452	-1.8531240249	 0.110662
H	-2.2493512674	 0.2026695715	-2.1485876579	 0.109631
89.8395	170.5463	180.2728	344.3332	361.5073	414.3932	450.2381	553.4942	661.4357	746.2195	795.8987	817.8656	851.8823	885.246	917.2694	966.9019	985.9443	1010.4235	1018.8895	1058.5095	1075.2537	1089.9346	1167.006	1180.5839	1205.6996	1221.0263	1257.5183	1265.4291	1353.2342	1392.4574	1459.2599	1487.1916	1494.4501	1505.3688	2997.8252	3054.3452	3126.4137	3137.7446	3183.1339	3199.5713	3215.6119	3233.8475
COC12CC1C1OC21	CO[C@]12C[C@H]1[C@H]1O[C@@H]21	
InChI=1S/C6H8O2/c1-7-6-2-3(6)4-5(6)8-4/h3-5H,2H2,1H3	InChI=1S/C6H8O2/c1-7-6-2-3(6)4-5(6)8-4/h3-5H,2H2,1H3/t3-,4+,5+,6+/m0/s1
