16
gdb 14076	3.61675	1.65457	1.35175	3.4889	66.71	-0.2414	-0.037	0.2044	945.5635	0.12852	-383.731504	-383.723694	-383.72275	-383.763803	28.558	
C	-0.0338873706	 1.4870906794	-0.1593497882	-0.417609
C	 0.0467426242	-0.0066675322	 0.0029116558	-0.008478
O	 1.3423057585	-0.6062669748	-0.0682635676	-0.278133
C	 0.6790262362	-0.6402429265	 1.1791537103	 0.32675
C	 1.1619040158	-0.0309536812	 2.5076816507	-0.338426
C	 0.4963834755	-1.219126773	 3.2720542034	-0.348987
C	 0.2046213951	-1.8904518874	 1.9091181617	 0.333114
O	-0.1995570895	-2.9616878782	 1.5654516649	-0.297195
H	 0.7652804471	 1.9868265419	 0.393381453	 0.131664
H	 0.0580281802	 1.7591012739	-1.2159577141	 0.13844
H	-0.9994849637	 1.8590648187	 0.1995503807	 0.127669
H	-0.7267425083	-0.5871052118	-0.5026386891	 0.112417
H	 2.2509399579	-0.023516989	 2.5888541571	 0.128437
H	 0.7794658172	 0.9638805378	 2.7426443605	 0.115604
H	 1.1455944687	-1.8003785316	 3.9308851828	 0.138735
H	-0.4149248144	-0.9610236062	 3.8187750681	 0.136001
86.534	131.07	179.707	192.8189	269.181	346.493	443.0229	510.6334	529.2557	618.4376	724.2361	756.7096	788.1988	861.7665	924.9687	955.6612	1010.4109	1038.0321	1049.7089	1084.7669	1121.103	1137.9997	1183.3034	1211.4586	1218.9529	1245.6093	1342.8251	1408.897	1438.376	1460.6697	1484.9512	1485.1745	1504.2961	1892.9907	3039.1887	3068.8143	3078.3233	3101.5808	3103.325	3118.6514	3130.8037	3134.9191
CC1OC11CCC1=O	C[C@H]1O[C@]21CCC2=O	
InChI=1S/C6H8O2/c1-4-6(8-4)3-2-5(6)7/h4H,2-3H2,1H3	InChI=1S/C6H8O2/c1-4-6(8-4)3-2-5(6)7/h4H,2-3H2,1H3/t4-,6+/m1/s1
