15
gdb 56112	4.06304	0.79008	0.66416	3.4775	70.83	-0.2554	-0.022	0.2335	1576.3451	0.110169	-453.971666	-453.961679	-453.960735	-454.008584	34.13	
N	-0.0121840582	 1.2872414293	 0.0082419656	-0.523351
C	 0.0457668775	-0.0682408397	 0.0007745832	 0.40635
O	 1.0908200416	-0.6924800718	-0.0129928224	-0.358616
C	-1.3155474981	-0.7668077616	 0.0111862472	-0.251421
N	-1.0922738842	-2.1872119236	 0.0025050067	-0.327504
C	-2.1239691009	-3.0684888293	 0.0058029089	 0.290719
O	-3.2959028503	-2.7288043482	 0.0174038829	-0.375275
C	-1.7053920651	-4.4646958303	-0.005696093	 0.213752
C	-1.3956543071	-5.6261501027	-0.0150099092	-0.388144
H	 0.8502017631	 1.8062423793	 0.0020050879	 0.270987
H	-0.8824334756	 1.7899421516	 0.019747255	 0.269945
H	-1.8880201558	-0.4597667497	 0.8967707442	 0.145578
H	-1.9055125764	-0.4519086389	-0.8600411787	 0.14567
H	-0.1243221026	-2.4804688015	-0.0087027422	 0.273534
H	-1.1312132077	-6.6553403931	-0.0232063963	 0.207776
20.0302	54.7427	93.5789	131.5334	171.7335	199.922	275.6652	291.7033	387.6834	492.9951	561.9591	564.5931	586.696	634.0066	641.4409	657.273	674.8249	770.127	835.2524	974.4068	1011.8357	1092.8352	1150.8189	1228.9102	1234.36	1303.2762	1410.0986	1497.8361	1518.841	1623.6459	1745.9688	1799.4781	2228.9344	3017.321	3040.6383	3497.0602	3590.0375	3606.4683	3740.2736
NC(=O)CNC(=O)C#C	NC(=O)CNC(=O)C#C	
InChI=1S/C5H6N2O2/c1-2-5(9)7-3-4(6)8/h1H,3H2,(H2,6,8)(H,7,9)	InChI=1S/C5H6N2O2/c1-2-5(9)7-3-4(6)8/h1H,3H2,(H2,6,8)(H,7,9)
