21
gdb 63215	2.07306	1.86548	1.36711	1.3947	83.17	-0.2417	0.0232	0.2649	1063.5238	0.18181	-387.089069	-387.080212	-387.079267	-387.122057	35.329	
C	 0.358567441	 1.5391728291	-0.2807478795	-0.436352
C	-0.0097634057	 0.0788867396	 0.0244393393	 0.268006
O	-1.4143682697	-0.0139256921	 0.27955236	-0.469536
C	 0.443844577	-0.839228708	-1.0979945268	-0.105214
C	 1.4869439944	-1.5892649127	-0.7554102899	-0.077285
C	 1.9222486283	-1.3360246616	 0.6674476169	-0.343031
C	 0.7675120989	-0.4988385942	 1.230673069	 0.337408
C	 0.8863676608	 0.2335704258	 2.5395368647	-0.32702
C	 0.0183279591	-0.995687329	 2.4401984001	-0.298089
H	 1.4402844222	 1.6575462181	-0.3901730589	 0.123581
H	-0.1066639287	 1.8682566223	-1.218786753	 0.100643
H	 0.0150972494	 2.197815561	 0.5226268356	 0.119958
H	-1.8671110379	 0.5436114319	-0.3612148225	 0.274766
H	-0.0377567461	-0.8196530929	-2.0704041127	 0.083986
H	 2.0011910715	-2.2870048206	-1.4075483566	 0.092915
H	 2.0837683539	-2.2616090734	 1.2331327362	 0.103964
H	 2.8782153913	-0.7916948215	 0.6906704049	 0.104723
H	 1.8275675085	 0.1662653828	 3.0763729462	 0.102817
H	 0.3871652637	 1.1918654677	 2.64089079	 0.108929
H	-1.054610802	-0.8562421307	 2.4527062577	 0.133698
H	 0.3690514	-1.9123966417	 2.903521589	 0.101135
61.7711	219.1894	234.8471	241.3852	261.4581	271.8753	318.3303	374.5089	435.1087	446.0298	533.3184	555.1664	638.2875	747.6795	753.0017	781.3391	854.1898	898.8647	925.464	947.0817	961.1526	970.5015	975.5865	987.2148	1035.534	1060.5338	1067.3301	1085.3398	1117.4428	1154.3788	1188.8982	1193.3533	1196.1716	1253.7387	1283.6416	1330.851	1371.0545	1391.7501	1401.0417	1464.1712	1485.2125	1489.9851	1492.124	1504.1696	1690.458	2994.483	3021.5128	3042.7245	3090.1639	3116.9122	3122.2172	3136.2303	3173.631	3200.0273	3202.6193	3238.2454	3816.0888
CC1(O)C=CCC11CC1	C[C@@]1(O)C=CCC21CC2	
InChI=1S/C8H12O/c1-7(9)3-2-4-8(7)5-6-8/h2-3,9H,4-6H2,1H3	InChI=1S/C8H12O/c1-7(9)3-2-4-8(7)5-6-8/h2-3,9H,4-6H2,1H3/t7-/m1/s1
