16
gdb 34950	3.55898	1.55164	1.3463	3.3826	71.35	-0.2637	0.0271	0.2907	944.5199	0.127061	-400.716994	-400.710627	-400.709683	-400.747754	25.881	
N	-0.0024641658	-1.1453099302	-0.0624063305	-0.337091
C	 0.0050057571	 0.0089161026	 0.0085032343	 0.265997
C	 0.0314827525	 1.4616999876	 0.0733726185	-0.13078
C	-0.361799837	 2.0815486097	 1.4412091841	-0.102047
C	 0.664906025	 1.4352306714	 2.4068645984	-0.265869
C	 1.6961330696	 2.273136158	 1.633796528	-0.06727
C	 0.6279320162	 3.347458005	 1.3484521981	 0.097173
O	 1.049201067	 3.5258648665	-0.0081743616	-0.281171
C	 1.4421870594	 2.1319709212	 0.0801617793	 0.052665
H	-0.5429604763	 1.8722490324	-0.7603028203	 0.133445
H	-1.4204743963	 2.161561155	 1.675865639	 0.090035
H	 0.5582746092	 1.8103554649	 3.4281434154	 0.112359
H	 0.7423831145	 0.3464362075	 2.418828342	 0.135007
H	 2.7089385785	 2.4929503702	 1.9633127013	 0.090939
H	 0.4190200501	 4.2543389815	 1.9119996338	 0.100388
H	 2.1859499661	 1.8196772667	-0.6495225399	 0.106222
142.3204	159.8376	374.9065	425.1417	486.3611	528.6082	558.8777	695.0448	737.2624	776.2464	826.6982	845.9037	873.1996	888.6953	937.0402	967.4676	984.0719	994.8627	1009.0442	1045.0722	1074.1416	1078.6256	1112.1216	1152.0583	1173.3887	1205.4195	1220.2379	1243.3347	1250.0091	1292.4746	1303.4965	1321.5186	1341.91	1502.6009	2353.1577	3069.7796	3092.2171	3127.4875	3142.818	3148.4348	3152.4099	3159.0961
N#CC1C2CC3C2OC13	N#C[C@H]1[C@H]2C[C@@H]3[C@H]2O[C@H]13	
InChI=1S/C7H7NO/c8-2-5-3-1-4-6(3)9-7(4)5/h3-7H,1H2	InChI=1S/C7H7NO/c8-2-5-3-1-4-6(3)9-7(4)5/h3-7H,1H2/t3-,4-,5+,6+,7+/m1/s1
