19
gdb 8039	3.4179	1.879	1.501	2.066	72.2	-0.2095	0.0764	0.2859	924.1666	0.16453	-365.015739	-365.007738	-365.006793	-365.047745	30.283	
C	-0.0767137733	 1.5546179188	 0.1298277837	-0.325251
N	 0.0491555673	 0.1151375759	 0.1111865437	-0.073592
C	-1.1692669066	-0.6842300758	 0.3943243451	-0.217034
C	-0.3739520631	-1.5425898853	 1.4048486857	 0.440562
C	-1.0161058355	-2.0037175688	 2.6856365493	-0.473161
O	 0.4048273683	-2.584991335	 0.7640478582	-0.336034
C	 1.5903972433	-1.7500522833	 0.7174167495	-0.080002
C	 0.7950463697	-0.5355805637	 1.2120457438	-0.096158
H	 0.909159085	 2.0163765215	 0.0103213897	 0.120043
H	-0.6997264854	 1.8798929912	-0.7102200781	 0.122967
H	-0.5306902496	 1.9525550896	 1.0587398368	 0.085999
H	-1.9650466177	-0.1003488931	 0.8839341594	 0.08348
H	-1.5840434879	-1.2107059453	-0.4714474638	 0.107806
H	-1.7515792959	-2.7884283986	 2.4735897435	 0.131347
H	-0.2684959402	-2.4202931989	 3.3669420122	 0.124386
H	-1.5314749815	-1.1801047849	 3.1890852165	 0.116957
H	 2.3580510419	-2.1176728314	 1.4117647238	 0.092511
H	 2.0036039596	-1.662531185	-0.2923235957	 0.106218
H	 1.2089947216	 0.1204481021	 1.9819940966	 0.068957
93.9392	192.676	207.4551	223.8613	285.9997	305.954	342.3874	381.7452	446.1786	599.0735	686.2649	760.5948	841.6996	907.8374	926.94	941.9843	976.2414	997.6084	1013.2305	1058.3786	1095.5626	1129.1065	1160.8116	1167.8494	1181.6832	1193.3753	1220.6979	1229.9839	1281.1811	1325.8452	1340.4996	1366.5755	1408.9776	1453.0092	1480.8762	1482.2627	1487.9286	1499.554	1502.2498	1505.1846	2911.8253	2974.2872	3006.3274	3032.429	3053.245	3069.0741	3076.5713	3081.6909	3096.6675	3099.9988	3114.9719
CN1CC2(C)OCC12	CN1C[C@@]2(C)OC[C@@H]12	
InChI=1S/C6H11NO/c1-6-4-7(2)5(6)3-8-6/h5H,3-4H2,1-2H3	InChI=1S/C6H11NO/c1-6-4-7(2)5(6)3-8-6/h5H,3-4H2,1-2H3/t5-,6-/m1/s1
