16
gdb 71089	3.10514	1.61016	1.44228	2.905	68.37	-0.2475	-0.0247	0.2228	929.8548	0.125406	-437.83757	-437.830787	-437.829842	-437.868485	27.73	
O	 0.1503358762	 1.3461838901	-0.0744732028	-0.474666
C	 0.0560434997	-0.030717159	-0.0602951389	 0.387987
C	 0.4080038928	-0.828504047	-1.3183245085	-0.192872
N	-0.4391251386	-1.9363554447	-0.7499617156	-0.159069
C	 0.0512721084	-2.1632411762	 0.7027980591	-0.128211
C	 0.8156701056	-0.8514787628	 1.0128689309	-0.311428
C	-1.3573487367	-1.7371734541	 1.1437564568	 0.471314
O	-2.1291915581	-2.0259035593	 2.0070119293	-0.320948
C	-1.3244834284	-0.8592487471	-0.0899645468	-0.225709
H	 0.0693081923	 1.6815262874	 0.8251554659	 0.289786
H	-0.0720083887	-0.4529088857	-2.224852777	 0.124379
H	 1.4578461024	-1.0657235838	-1.5165526078	 0.106992
H	 0.4995836739	-3.1251318212	 0.9396548342	 0.102759
H	 1.8907270805	-0.8901566767	 0.8182217661	 0.114959
H	 0.6547071846	-0.5044850447	 2.0394951616	 0.111332
H	-2.175968716	-0.4560405854	-0.6349167165	 0.103396
138.3085	258.8337	296.1589	357.84	398.2003	458.5238	521.8108	573.1314	620.587	644.5329	749.1887	789.4735	807.4264	837.5883	893.3591	923.5362	949.6105	988.3621	1013.5768	1023.6743	1074.6985	1092.7564	1116.9548	1132.8665	1151.268	1198.3379	1211.8592	1231.7559	1260.0255	1265.407	1328.2673	1389.3035	1496.3808	1521.4991	1912.1423	3043.7309	3053.6645	3098.0336	3119.8601	3146.17	3153.5419	3804.6965
OC12CN3C(C1)C(=O)C23	O[C@@]12CN3[C@@H](C1)C(=O)[C@@H]23	
InChI=1S/C6H7NO2/c8-4-3-1-6(9)2-7(3)5(4)6/h3,5,9H,1-2H2	InChI=1S/C6H7NO2/c8-4-3-1-6(9)2-7(3)5(4)6/h3,5,9H,1-2H2/t3-,5-,6+/m0/s1
